MODEL 1
USER: ADFR SOLUTION from run 47
USER: SCORE 18.098522 LL:  -4.247 LR: -15.166 RR:   0.000 FEB:  -8.007
USER: RMSD 5.985518
USER: SEED 46
USER: STATUS searching
USER: GENES 26
USER: genes 0 Translation |==|  0.37233 0.63733 0.49470
USER: genes 1 Rotation |==|  0.63231 0.61484 0.42332 0.96198
USER: genes 2 Torsion [C]-N--CA-[C] |==|  0.55673
USER: genes 3 Torsion [N]-CA--C-[N] |==|  0.39804
USER: genes 4 Torsion [C]-N--CA-[C] |==|  0.75557
USER: genes 5 Torsion [N]-CA--C-[N] |==|  0.91007
USER: genes 6 Torsion [C]-N--CA-[CB] |==|  0.14032
USER: genes 7 Torsion [N]-CA--C-[O] |==|  0.11721
USER: genes 8 Torsion [N]-CA--CB-[CG] |==|  0.18137
USER: genes 9 Torsion [CA]-CB--CG-[CD2] |==|  0.75795
USER: genes 10 Torsion [CE2]-CZ--OH-[HH] |==|  0.33849
USER: genes 11 Torsion [N]-CA--CB-[OG] |==|  0.01665
USER: genes 12 Torsion [CA]-CB--OG-[HG] |==|  0.26032
USER: genes 13 Torsion [N]-CA--CB-[CG2] |==|  0.10625
USER: genes 14 Torsion [CA]-CB--OG1-[HG1] |==|  0.14531
USER: genes 15 Torsion [N]-C--CA-[N] |==|  0.49043
USER: genes 16 Torsion [C]-CA--N-[C] |==|  0.71517
USER: genes 17 Torsion [N]-C--CA-[CB] |==|  0.97131
USER: genes 18 Torsion [N]-C--CA-[N] |==|  0.20590
USER: genes 19 Torsion [C]-CA--N-[C] |==|  0.67631
USER: genes 20 Torsion [N]-C--CA-[N] |==|  0.45509
USER: genes 21 Torsion [C]-CA--CB-[CG2] |==|  0.24377
USER: genes 22 Torsion [C]-CA--CB-[OG] |==|  0.81183
USER: genes 23 Torsion [CA]-CB--OG-[HG] |==|  0.13384
USER: genes 24 Torsion [C]-CA--CB-[OG] |==|  0.71888
USER: genes 25 Torsion [CA]-CB--OG-[HG] |==|  0.08737
ROOT
ATOM      1  C   SER B 156      35.423 -13.177  -9.940  1.00 15.87 LIG 0.24  C 
ATOM      2 O    SER B 156      34.437 -12.458 -10.109  1.00 15.60 LIG-0.27  OA
ATOM      3  N   THR B 157      36.634 -12.873 -10.398  1.00 16.26 LIG-0.34  N 
ATOM      4 H    THR B 157      37.338 -13.344 -10.255  1.00 16.26 LIG 0.16  HD
ENDROOT
BRANCH 3 5
ATOM      5  CA  THR B 157      36.855 -11.681 -11.199  1.00 15.91 LIG 0.20  C 
BRANCH 5 6
ATOM      6  C   THR B 157      38.165 -11.969 -11.927  1.00 16.14 LIG 0.24  C 
ATOM      7 O    THR B 157      39.070 -12.586 -11.356  1.00 15.69 LIG-0.27  OA
ATOM      8  N   SER B 158      38.272 -11.530 -13.174  1.00 15.14 LIG-0.34  N 
ATOM      9 H    SER B 158      37.655 -11.098 -13.590  1.00 15.14 LIG 0.16  HD
BRANCH 8 10
ATOM     10  CA  SER B 158      39.485 -11.760 -13.951  1.00 18.36 LIG 0.20  C 
BRANCH 10 11
ATOM     11  C   SER B 158      40.499 -10.643 -13.726  1.00 20.96 LIG 0.24  C 
ATOM     12 O    SER B 158      41.709 -10.873 -13.761  1.00 20.92 LIG-0.27  OA
ATOM     13  N   TYR B 159      39.999  -9.433 -13.496  1.00 23.40 LIG-0.35  N 
ATOM     14 H    TYR B 159      39.156  -9.259 -13.467  1.00 23.40 LIG 0.16  HD
BRANCH 13 15
ATOM     15  CA  TYR B 159      40.862  -8.278 -13.268  1.00 28.83 LIG 0.17  C 
BRANCH 15 16
ATOM     16  C   TYR B 159      40.049  -6.989 -13.229  1.00 30.09 LIG 0.22  C 
ATOM     17 O    TYR B 159      38.967  -7.023 -12.605  1.00 33.46 LIG-0.29  OA
ENDBRANCH 15 16
BRANCH 15 18
ATOM     18  CB  TYR B 159      41.918  -8.181 -14.372  1.00 32.38 LIG 0.07  C 
BRANCH 18 19
ATOM     19  CG  TYR B 159      41.340  -7.901 -15.742  1.00 36.58 LIG-0.06  A 
ATOM     20  CD2 TYR B 159      40.912  -8.941 -16.566  1.00 38.67 LIG 0.01  A 
ATOM     21  CE2 TYR B 159      40.368  -8.687 -17.823  1.00 40.79 LIG 0.04  A 
ATOM     22  CZ  TYR B 159      40.252  -7.379 -18.266  1.00 41.05 LIG 0.07  A 
ATOM     23  CE1 TYR B 159      40.672  -6.328 -17.467  1.00 40.09 LIG 0.04  A 
ATOM     24  CD1 TYR B 159      41.211  -6.594 -16.210  1.00 38.09 LIG 0.01  A 
BRANCH 22 25
ATOM     25 OH   TYR B 159      39.716  -7.120 -19.508  1.00 43.66 LIG-0.36  OA
ATOM     26 HH   TYR B 159      39.046  -6.620 -19.426  1.00 43.66 LIG 0.22  HD
ENDBRANCH 22 25
ENDBRANCH 18 19
ENDBRANCH 15 18
ENDBRANCH 13 15
ENDBRANCH 10 11
BRANCH 10 27
ATOM     27  CB  SER B 158      39.149 -11.852 -15.441  1.00 15.79 LIG 0.20  C 
BRANCH 27 28
ATOM     28 OG   SER B 158      37.783 -11.553 -15.671  1.00 17.90 LIG-0.40  OA
ATOM     29 HG   SER B 158      37.702 -10.738 -15.854  1.00 17.90 LIG 0.21  HD
ENDBRANCH 27 28
ENDBRANCH 10 27
ENDBRANCH 8 10
ENDBRANCH 5 6
BRANCH 5 30
ATOM     30  CB  THR B 157      37.040 -10.420 -10.328  1.00 18.18 LIG 0.15  C 
ATOM     31  CG2 THR B 157      37.843 -10.743  -9.079  1.00 16.96 LIG 0.04  C 
BRANCH 30 32
ATOM     32 OG1  THR B 157      37.715  -9.408 -11.088  1.00 15.90 LIG-0.39  OA
ATOM     33 HG1  THR B 157      37.313  -9.290 -11.816  1.00 15.90 LIG 0.21  HD
ENDBRANCH 30 32
ENDBRANCH 5 30
ENDBRANCH 3 5
BRANCH 1 34
ATOM     34  CA  SER B 156      35.307 -14.482  -9.173  1.00 16.58 LIG 0.20  C 
BRANCH 34 35
ATOM     35  N   SER B 156      33.940 -14.605  -8.684  1.00 15.80 LIG-0.34  N 
ATOM     36 H    SER B 156      33.372 -14.846  -9.283  1.00 15.80 LIG 0.16  HD
ATOM     37  C   PRO B 155      33.615 -14.361  -7.418  1.00 18.36 LIG 0.24  C 
ATOM     38 O    PRO B 155      34.431 -14.004  -6.568  1.00 18.57 LIG-0.27  OA
BRANCH 37 39
ATOM     39  CA  PRO B 155      32.144 -14.533  -7.061  1.00 19.30 LIG 0.18  C 
ATOM     40  CB  PRO B 155      31.271 -14.716  -8.296  1.00 17.99 LIG 0.04  C 
ATOM     41  CG  PRO B 155      31.009 -13.297  -8.704  1.00 20.29 LIG 0.02  C 
ATOM     42  CD  PRO B 155      30.694 -12.620  -7.377  1.00 20.15 LIG 0.13  C 
ATOM     43  N   PRO B 155      31.580 -13.331  -6.436  1.00 20.34 LIG-0.34  N 
ATOM     44  C   SER B 154      31.806 -13.013  -5.151  1.00 23.17 LIG 0.24  C 
ATOM     45 O    SER B 154      32.504 -13.713  -4.416  1.00 21.43 LIG-0.27  OA
BRANCH 44 46
ATOM     46  CA  SER B 154      31.161 -11.734  -4.624  1.00 26.04 LIG 0.20  C 
BRANCH 46 47
ATOM     47  N   SER B 154      29.725 -11.900  -4.418  1.00 29.08 LIG-0.34  N 
ATOM     48 H    SER B 154      29.518 -12.483  -3.820  1.00 29.08 LIG 0.16  HD
ATOM     49  C   VAL B 153      28.833 -11.198  -5.109  1.00 31.74 LIG 0.26  C 
ATOM     50 O    VAL B 153      29.148 -10.373  -5.964  1.00 31.76 LIG-0.27  OA
BRANCH 49 51
ATOM     51  CA  VAL B 153      27.366 -11.468  -4.791  1.00 34.29 LIG 0.40  C 
ATOM     52  N   VAL B 153      26.508 -10.375  -5.327  1.00 34.52 LIG 0.61  N 
BRANCH 51 53
ATOM     53  CB  VAL B 153      26.974 -12.837  -5.399  1.00 36.17 LIG 0.03  C 
ATOM     54  CG2 VAL B 153      27.274 -13.951  -4.414  1.00 38.03 LIG 0.01  C 
ATOM     55  CG1 VAL B 153      27.724 -13.064  -6.702  1.00 38.39 LIG 0.01  C 
ENDBRANCH 51 53
ENDBRANCH 49 51
ENDBRANCH 46 47
BRANCH 46 56
ATOM     56  CB  SER B 154      31.843 -11.324  -3.317  1.00 27.48 LIG 0.20  C 
BRANCH 56 57
ATOM     57 OG   SER B 154      31.564 -12.253  -2.284  1.00 30.72 LIG-0.40  OA
ATOM     58 HG   SER B 154      31.694 -13.033  -2.566  1.00 30.72 LIG 0.21  HD
ENDBRANCH 56 57
ENDBRANCH 46 56
ENDBRANCH 44 46
ENDBRANCH 37 39
ENDBRANCH 34 35
BRANCH 34 59
ATOM     59  CB  SER B 156      35.634 -15.629 -10.131  1.00 16.81 LIG 0.20  C 
BRANCH 59 60
ATOM     60 OG   SER B 156      34.443 -16.255 -10.583  1.00 16.65 LIG-0.40  OA
ATOM     61 HG   SER B 156      33.824 -15.688 -10.621  1.00 16.65 LIG 0.21  HD
ENDBRANCH 59 60
ENDBRANCH 34 59
ENDBRANCH 1 34
TORSDOF 24
ENDMDL
MODEL 2
USER: ADFR SOLUTION from run 179
USER: SCORE 17.685532 LL:  -3.547 LR: -15.137 RR:   0.000 FEB:  -7.978
USER: RMSD 12.725732
USER: SEED 178
USER: STATUS no improvement in best in 4 clusters for 5 generations
USER: GENES 26
USER: genes 0 Translation |==|  0.37808 0.51113 0.45618
USER: genes 1 Rotation |==|  0.15389 0.73494 0.22721 0.52440
USER: genes 2 Torsion [C]-N--CA-[C] |==|  0.78869
USER: genes 3 Torsion [N]-CA--C-[N] |==|  0.30583
USER: genes 4 Torsion [C]-N--CA-[C] |==|  0.60490
USER: genes 5 Torsion [N]-CA--C-[N] |==|  0.41978
USER: genes 6 Torsion [C]-N--CA-[CB] |==|  0.52058
USER: genes 7 Torsion [N]-CA--C-[O] |==|  0.65344
USER: genes 8 Torsion [N]-CA--CB-[CG] |==|  0.13797
USER: genes 9 Torsion [CA]-CB--CG-[CD2] |==|  0.27975
USER: genes 10 Torsion [CE2]-CZ--OH-[HH] |==|  0.81615
USER: genes 11 Torsion [N]-CA--CB-[OG] |==|  0.13519
USER: genes 12 Torsion [CA]-CB--OG-[HG] |==|  0.00525
USER: genes 13 Torsion [N]-CA--CB-[CG2] |==|  0.41693
USER: genes 14 Torsion [CA]-CB--OG1-[HG1] |==|  0.12302
USER: genes 15 Torsion [N]-C--CA-[N] |==|  0.45888
USER: genes 16 Torsion [C]-CA--N-[C] |==|  0.55739
USER: genes 17 Torsion [N]-C--CA-[CB] |==|  0.54821
USER: genes 18 Torsion [N]-C--CA-[N] |==|  0.18549
USER: genes 19 Torsion [C]-CA--N-[C] |==|  0.59444
USER: genes 20 Torsion [N]-C--CA-[N] |==|  0.11441
USER: genes 21 Torsion [C]-CA--CB-[CG2] |==|  0.56372
USER: genes 22 Torsion [C]-CA--CB-[OG] |==|  0.59497
USER: genes 23 Torsion [CA]-CB--OG-[HG] |==|  0.31299
USER: genes 24 Torsion [C]-CA--CB-[OG] |==|  0.45456
USER: genes 25 Torsion [CA]-CB--OG-[HG] |==|  0.01066
ROOT
ATOM      1  C   SER B 156      35.583 -16.111 -10.749  1.00 15.87 LIG 0.24  C 
ATOM      2 O    SER B 156      34.851 -15.178 -11.084  1.00 15.60 LIG-0.27  OA
ATOM      3  N   THR B 157      35.132 -17.219 -10.169  1.00 16.26 LIG-0.34  N 
ATOM      4 H    THR B 157      35.624 -17.894  -9.966  1.00 16.26 LIG 0.16  HD
ENDROOT
BRANCH 3 5
ATOM      5  CA  THR B 157      33.728 -17.369  -9.827  1.00 15.91 LIG 0.20  C 
BRANCH 5 6
ATOM      6  C   THR B 157      33.563 -16.508  -8.579  1.00 16.14 LIG 0.24  C 
ATOM      7 O    THR B 157      34.076 -16.856  -7.510  1.00 15.69 LIG-0.27  OA
ATOM      8  N   SER B 158      32.856 -15.392  -8.704  1.00 15.14 LIG-0.34  N 
ATOM      9 H    SER B 158      32.489 -15.131  -9.437  1.00 15.14 LIG 0.16  HD
BRANCH 8 10
ATOM     10  CA  SER B 158      32.646 -14.502  -7.567  1.00 18.36 LIG 0.20  C 
BRANCH 10 11
ATOM     11  C   SER B 158      31.238 -13.914  -7.585  1.00 20.96 LIG 0.24  C 
ATOM     12 O    SER B 158      30.640 -13.745  -8.649  1.00 20.92 LIG-0.27  OA
ATOM     13  N   TYR B 159      30.715 -13.605  -6.403  1.00 23.40 LIG-0.35  N 
ATOM     14 H    TYR B 159      31.123 -13.716  -5.653  1.00 23.40 LIG 0.16  HD
BRANCH 13 15
ATOM     15  CA  TYR B 159      29.375 -13.038  -6.283  1.00 28.83 LIG 0.17  C 
BRANCH 15 16
ATOM     16  C   TYR B 159      29.208 -11.835  -7.205  1.00 30.09 LIG 0.22  C 
ATOM     17 O    TYR B 159      28.841 -10.764  -6.674  1.00 33.46 LIG-0.29  OA
ENDBRANCH 15 16
BRANCH 15 18
ATOM     18  CB  TYR B 159      29.107 -12.613  -4.837  1.00 32.38 LIG 0.07  C 
BRANCH 18 19
ATOM     19  CG  TYR B 159      30.208 -11.765  -4.240  1.00 36.58 LIG-0.06  A 
ATOM     20  CD2 TYR B 159      30.076 -10.379  -4.151  1.00 38.67 LIG 0.01  A 
ATOM     21  CE2 TYR B 159      31.083  -9.595  -3.591  1.00 40.79 LIG 0.04  A 
ATOM     22  CZ  TYR B 159      32.237 -10.199  -3.117  1.00 41.05 LIG 0.07  A 
ATOM     23  CE1 TYR B 159      32.391 -11.574  -3.195  1.00 40.09 LIG 0.04  A 
ATOM     24  CD1 TYR B 159      31.377 -12.348  -3.755  1.00 38.09 LIG 0.01  A 
BRANCH 22 25
ATOM     25 OH   TYR B 159      33.235  -9.430  -2.564  1.00 43.66 LIG-0.36  OA
ATOM     26 HH   TYR B 159      33.571  -8.938  -3.156  1.00 43.66 LIG 0.22  HD
ENDBRANCH 22 25
ENDBRANCH 18 19
ENDBRANCH 15 18
ENDBRANCH 13 15
ENDBRANCH 10 11
BRANCH 10 27
ATOM     27  CB  SER B 158      33.674 -13.370  -7.587  1.00 15.79 LIG 0.20  C 
BRANCH 27 28
ATOM     28 OG   SER B 158      33.744 -12.772  -8.869  1.00 17.90 LIG-0.40  OA
ATOM     29 HG   SER B 158      33.185 -13.136  -9.379  1.00 17.90 LIG 0.21  HD
ENDBRANCH 27 28
ENDBRANCH 10 27
ENDBRANCH 8 10
ENDBRANCH 5 6
BRANCH 5 30
ATOM     30  CB  THR B 157      33.368 -18.828  -9.472  1.00 18.18 LIG 0.15  C 
ATOM     31  CG2 THR B 157      32.226 -18.871  -8.470  1.00 16.96 LIG 0.04  C 
BRANCH 30 32
ATOM     32 OG1  THR B 157      32.993 -19.532 -10.664  1.00 15.90 LIG-0.39  OA
ATOM     33 HG1  THR B 157      33.534 -19.348 -11.280  1.00 15.90 LIG 0.21  HD
ENDBRANCH 30 32
ENDBRANCH 5 30
ENDBRANCH 3 5
BRANCH 1 34
ATOM     34  CA  SER B 156      37.080 -16.047 -10.995  1.00 16.58 LIG 0.20  C 
BRANCH 34 35
ATOM     35  N   SER B 156      37.343 -14.961 -11.931  1.00 15.80 LIG-0.34  N 
ATOM     36 H    SER B 156      36.715 -14.376 -11.976  1.00 15.80 LIG 0.16  HD
ATOM     37  C   PRO B 155      38.462 -14.897 -12.647  1.00 18.36 LIG 0.24  C 
ATOM     38 O    PRO B 155      39.352 -15.746 -12.586  1.00 18.57 LIG-0.27  OA
BRANCH 37 39
ATOM     39  CA  PRO B 155      38.590 -13.701 -13.581  1.00 19.30 LIG 0.18  C 
ATOM     40  CB  PRO B 155      39.660 -13.916 -14.644  1.00 17.99 LIG 0.04  C 
ATOM     41  CG  PRO B 155      40.904 -13.490 -13.923  1.00 20.29 LIG 0.02  C 
ATOM     42  CD  PRO B 155      40.464 -12.211 -13.224  1.00 20.15 LIG 0.13  C 
ATOM     43  N   PRO B 155      39.058 -12.499 -12.883  1.00 20.34 LIG-0.34  N 
ATOM     44  C   SER B 154      38.249 -11.751 -12.113  1.00 23.17 LIG 0.24  C 
ATOM     45 O    SER B 154      37.062 -12.030 -11.946  1.00 21.43 LIG-0.27  OA
BRANCH 44 46
ATOM     46  CA  SER B 154      38.863 -10.525 -11.442  1.00 26.04 LIG 0.20  C 
BRANCH 46 47
ATOM     47  N   SER B 154      39.250  -9.513 -12.418  1.00 29.08 LIG-0.34  N 
ATOM     48 H    SER B 154      38.735  -9.467 -13.106  1.00 29.08 LIG 0.16  HD
ATOM     49  C   VAL B 153      40.316  -8.738 -12.238  1.00 31.74 LIG 0.26  C 
ATOM     50 O    VAL B 153      41.045  -8.822 -11.252  1.00 31.76 LIG-0.27  OA
BRANCH 49 51
ATOM     51  CA  VAL B 153      40.605  -7.720 -13.336  1.00 34.29 LIG 0.40  C 
ATOM     52  N   VAL B 153      39.341  -7.090 -13.808  1.00 34.52 LIG 0.61  N 
BRANCH 51 53
ATOM     53  CB  VAL B 153      41.586  -6.659 -12.779  1.00 36.17 LIG 0.03  C 
ATOM     54  CG2 VAL B 153      41.469  -5.372 -13.575  1.00 38.03 LIG 0.01  C 
ATOM     55  CG1 VAL B 153      43.010  -7.187 -12.829  1.00 38.39 LIG 0.01  C 
ENDBRANCH 51 53
ENDBRANCH 49 51
ENDBRANCH 46 47
BRANCH 46 56
ATOM     56  CB  SER B 154      37.862  -9.943 -10.440  1.00 27.48 LIG 0.20  C 
BRANCH 56 57
ATOM     57 OG   SER B 154      37.964  -8.531 -10.382  1.00 30.72 LIG-0.40  OA
ATOM     58 HG   SER B 154      37.264  -8.186 -10.692  1.00 30.72 LIG 0.21  HD
ENDBRANCH 56 57
ENDBRANCH 46 56
ENDBRANCH 44 46
ENDBRANCH 37 39
ENDBRANCH 34 35
BRANCH 34 59
ATOM     59  CB  SER B 156      37.771 -15.776  -9.658  1.00 16.81 LIG 0.20  C 
BRANCH 59 60
ATOM     60 OG   SER B 156      39.157 -16.074  -9.745  1.00 16.65 LIG-0.40  OA
ATOM     61 HG   SER B 156      39.348 -16.294 -10.533  1.00 16.65 LIG 0.21  HD
ENDBRANCH 59 60
ENDBRANCH 34 59
ENDBRANCH 1 34
TORSDOF 24
ENDMDL
MODEL 3
USER: ADFR SOLUTION from run 91
USER: SCORE 17.883683 LL:  -3.614 LR: -15.114 RR:   0.000 FEB:  -7.954
USER: RMSD 7.566068
USER: SEED 90
USER: STATUS no improvement in best in 12 clusters for 5 generations
USER: GENES 26
USER: genes 0 Translation |==|  0.29148 0.58897 0.61268
USER: genes 1 Rotation |==|  0.87694 0.61968 0.19437 0.51373
USER: genes 2 Torsion [C]-N--CA-[C] |==|  0.65707
USER: genes 3 Torsion [N]-CA--C-[N] |==|  0.48432
USER: genes 4 Torsion [C]-N--CA-[C] |==|  0.63144
USER: genes 5 Torsion [N]-CA--C-[N] |==|  0.40673
USER: genes 6 Torsion [C]-N--CA-[CB] |==|  0.79738
USER: genes 7 Torsion [N]-CA--C-[O] |==|  0.48914
USER: genes 8 Torsion [N]-CA--CB-[CG] |==|  0.83728
USER: genes 9 Torsion [CA]-CB--CG-[CD2] |==|  0.70875
USER: genes 10 Torsion [CE2]-CZ--OH-[HH] |==|  0.20771
USER: genes 11 Torsion [N]-CA--CB-[OG] |==|  0.60547
USER: genes 12 Torsion [CA]-CB--OG-[HG] |==|  0.93325
USER: genes 13 Torsion [N]-CA--CB-[CG2] |==|  0.77566
USER: genes 14 Torsion [CA]-CB--OG1-[HG1] |==|  0.92845
USER: genes 15 Torsion [N]-C--CA-[N] |==|  0.53333
USER: genes 16 Torsion [C]-CA--N-[C] |==|  0.73966
USER: genes 17 Torsion [N]-C--CA-[CB] |==|  0.45159
USER: genes 18 Torsion [N]-C--CA-[N] |==|  0.44612
USER: genes 19 Torsion [C]-CA--N-[C] |==|  0.81598
USER: genes 20 Torsion [N]-C--CA-[N] |==|  0.42794
USER: genes 21 Torsion [C]-CA--CB-[CG2] |==|  0.22630
USER: genes 22 Torsion [C]-CA--CB-[OG] |==|  0.76227
USER: genes 23 Torsion [CA]-CB--OG-[HG] |==|  0.79374
USER: genes 24 Torsion [C]-CA--CB-[OG] |==|  0.36013
USER: genes 25 Torsion [CA]-CB--OG-[HG] |==|  0.76727
ROOT
ATOM      1  C   SER B 156      33.180 -14.301  -7.463  1.00 15.87 LIG 0.24  C 
ATOM      2 O    SER B 156      33.894 -14.397  -6.463  1.00 15.60 LIG-0.27  OA
ATOM      3  N   THR B 157      33.653 -14.355  -8.704  1.00 16.26 LIG-0.34  N 
ATOM      4 H    THR B 157      33.163 -14.330  -9.410  1.00 16.26 LIG 0.16  HD
ENDROOT
BRANCH 3 5
ATOM      5  CA  THR B 157      35.079 -14.464  -8.959  1.00 15.91 LIG 0.20  C 
BRANCH 5 6
ATOM      6  C   THR B 157      35.384 -13.261  -9.846  1.00 16.14 LIG 0.24  C 
ATOM      7 O    THR B 157      34.467 -12.539 -10.252  1.00 15.69 LIG-0.27  OA
ATOM      8  N   SER B 158      36.657 -13.040 -10.147  1.00 15.14 LIG-0.34  N 
ATOM      9 H    SER B 158      37.310 -13.529  -9.877  1.00 15.14 LIG 0.16  HD
BRANCH 8 10
ATOM     10  CA  SER B 158      37.046 -11.911 -10.986  1.00 18.36 LIG 0.20  C 
BRANCH 10 11
ATOM     11  C   SER B 158      38.022 -12.350 -12.075  1.00 20.96 LIG 0.24  C 
ATOM     12 O    SER B 158      38.837 -13.250 -11.864  1.00 20.92 LIG-0.27  OA
ATOM     13  N   TYR B 159      37.931 -11.712 -13.237  1.00 23.40 LIG-0.35  N 
ATOM     14 H    TYR B 159      37.367 -11.082 -13.397  1.00 23.40 LIG 0.16  HD
BRANCH 13 15
ATOM     15  CA  TYR B 159      38.804 -12.040 -14.361  1.00 28.83 LIG 0.17  C 
BRANCH 15 16
ATOM     16  C   TYR B 159      38.844 -13.546 -14.598  1.00 30.09 LIG 0.22  C 
ATOM     17 O    TYR B 159      39.501 -13.944 -15.584  1.00 33.46 LIG-0.29  OA
ENDBRANCH 15 16
BRANCH 15 18
ATOM     18  CB  TYR B 159      40.221 -11.527 -14.097  1.00 32.38 LIG 0.07  C 
BRANCH 18 19
ATOM     19  CG  TYR B 159      40.293 -10.034 -13.869  1.00 36.58 LIG-0.06  A 
ATOM     20  CD2 TYR B 159      40.782  -9.180 -14.857  1.00 38.67 LIG 0.01  A 
ATOM     21  CE2 TYR B 159      40.839  -7.802 -14.655  1.00 40.79 LIG 0.04  A 
ATOM     22  CZ  TYR B 159      40.405  -7.269 -13.451  1.00 41.05 LIG 0.07  A 
ATOM     23  CE1 TYR B 159      39.917  -8.096 -12.453  1.00 40.09 LIG 0.04  A 
ATOM     24  CD1 TYR B 159      39.863  -9.472 -12.668  1.00 38.09 LIG 0.01  A 
BRANCH 22 25
ATOM     25 OH   TYR B 159      40.460  -5.909 -13.245  1.00 43.66 LIG-0.36  OA
ATOM     26 HH   TYR B 159      39.845  -5.534 -13.679  1.00 43.66 LIG 0.22  HD
ENDBRANCH 22 25
ENDBRANCH 18 19
ENDBRANCH 15 18
ENDBRANCH 13 15
ENDBRANCH 10 11
BRANCH 10 27
ATOM     27  CB  SER B 158      37.692 -10.818 -10.133  1.00 15.79 LIG 0.20  C 
BRANCH 27 28
ATOM     28 OG   SER B 158      37.310  -9.531 -10.586  1.00 17.90 LIG-0.40  OA
ATOM     29 HG   SER B 158      37.087  -9.573 -11.395  1.00 17.90 LIG 0.21  HD
ENDBRANCH 27 28
ENDBRANCH 10 27
ENDBRANCH 8 10
ENDBRANCH 5 6
BRANCH 5 30
ATOM     30  CB  THR B 157      35.435 -15.752  -9.734  1.00 18.18 LIG 0.15  C 
ATOM     31  CG2 THR B 157      35.503 -16.943  -8.793  1.00 16.96 LIG 0.04  C 
BRANCH 30 32
ATOM     32 OG1  THR B 157      34.446 -15.990 -10.745  1.00 15.90 LIG-0.39  OA
ATOM     33 HG1  THR B 157      33.721 -15.633 -10.518  1.00 15.90 LIG 0.21  HD
ENDBRANCH 30 32
ENDBRANCH 5 30
ENDBRANCH 3 5
BRANCH 1 34
ATOM     34  CA  SER B 156      31.678 -14.120  -7.327  1.00 16.58 LIG 0.20  C 
BRANCH 34 35
ATOM     35  N   SER B 156      31.381 -13.798  -5.937  1.00 15.80 LIG-0.34  N 
ATOM     36 H    SER B 156      31.437 -12.960  -5.750  1.00 15.80 LIG 0.16  HD
ATOM     37  C   PRO B 155      31.053 -14.730  -5.047  1.00 18.36 LIG 0.24  C 
ATOM     38 O    PRO B 155      30.986 -15.930  -5.319  1.00 18.57 LIG-0.27  OA
BRANCH 37 39
ATOM     39  CA  PRO B 155      30.771 -14.236  -3.634  1.00 19.30 LIG 0.18  C 
ATOM     40  CB  PRO B 155      30.009 -15.265  -2.808  1.00 17.99 LIG 0.04  C 
ATOM     41  CG  PRO B 155      28.588 -14.983  -3.194  1.00 20.29 LIG 0.02  C 
ATOM     42  CD  PRO B 155      28.527 -13.462  -3.158  1.00 20.15 LIG 0.13  C 
ATOM     43  N   PRO B 155      29.873 -13.076  -3.621  1.00 20.34 LIG-0.34  N 
ATOM     44  C   SER B 154      30.294 -11.835  -3.920  1.00 23.17 LIG 0.24  C 
ATOM     45 O    SER B 154      31.462 -11.595  -4.225  1.00 21.43 LIG-0.27  OA
BRANCH 44 46
ATOM     46  CA  SER B 154      29.257 -10.716  -3.869  1.00 26.04 LIG 0.20  C 
BRANCH 46 47
ATOM     47  N   SER B 154      29.885  -9.403  -3.760  1.00 29.08 LIG-0.34  N 
ATOM     48 H    SER B 154      29.772  -8.898  -4.447  1.00 29.08 LIG 0.16  HD
ATOM     49  C   VAL B 153      30.569  -9.043  -2.678  1.00 31.74 LIG 0.26  C 
ATOM     50 O    VAL B 153      30.724  -9.781  -1.708  1.00 31.76 LIG-0.27  OA
BRANCH 49 51
ATOM     51  CA  VAL B 153      31.171  -7.642  -2.694  1.00 34.29 LIG 0.40  C 
ATOM     52  N   VAL B 153      31.341  -7.133  -1.305  1.00 34.52 LIG 0.61  N 
BRANCH 51 53
ATOM     53  CB  VAL B 153      32.527  -7.696  -3.440  1.00 36.17 LIG 0.03  C 
ATOM     54  CG2 VAL B 153      32.300  -7.652  -4.939  1.00 38.03 LIG 0.01  C 
ATOM     55  CG1 VAL B 153      33.285  -8.956  -3.054  1.00 38.39 LIG 0.01  C 
ENDBRANCH 51 53
ENDBRANCH 49 51
ENDBRANCH 46 47
BRANCH 46 56
ATOM     56  CB  SER B 154      28.378 -10.783  -5.121  1.00 27.48 LIG 0.20  C 
BRANCH 56 57
ATOM     57 OG   SER B 154      28.975 -10.083  -6.199  1.00 30.72 LIG-0.40  OA
ATOM     58 HG   SER B 154      28.903  -9.256  -6.071  1.00 30.72 LIG 0.21  HD
ENDBRANCH 56 57
ENDBRANCH 46 56
ENDBRANCH 44 46
ENDBRANCH 37 39
ENDBRANCH 34 35
BRANCH 34 59
ATOM     59  CB  SER B 156      31.252 -12.971  -8.242  1.00 16.81 LIG 0.20  C 
BRANCH 59 60
ATOM     60 OG   SER B 156      30.158 -13.363  -9.058  1.00 16.65 LIG-0.40  OA
ATOM     61 HG   SER B 156      30.445 -13.771  -9.734  1.00 16.65 LIG 0.21  HD
ENDBRANCH 59 60
ENDBRANCH 34 59
ENDBRANCH 1 34
TORSDOF 24
ENDMDL
MODEL 4
USER: ADFR SOLUTION from run 179
USER: SCORE 17.837795 LL:  -3.755 LR: -15.043 RR:   0.000 FEB:  -7.883
USER: RMSD 13.331192
USER: SEED 178
USER: STATUS no improvement in best in 4 clusters for 5 generations
USER: GENES 26
USER: genes 0 Translation |==|  0.37698 0.51815 0.45856
USER: genes 1 Rotation |==|  0.15816 0.74533 0.23142 0.52874
USER: genes 2 Torsion [C]-N--CA-[C] |==|  0.80375
USER: genes 3 Torsion [N]-CA--C-[N] |==|  0.33775
USER: genes 4 Torsion [C]-N--CA-[C] |==|  0.53956
USER: genes 5 Torsion [N]-CA--C-[N] |==|  0.43970
USER: genes 6 Torsion [C]-N--CA-[CB] |==|  0.23899
USER: genes 7 Torsion [N]-CA--C-[O] |==|  0.32520
USER: genes 8 Torsion [N]-CA--CB-[CG] |==|  0.14065
USER: genes 9 Torsion [CA]-CB--CG-[CD2] |==|  0.28040
USER: genes 10 Torsion [CE2]-CZ--OH-[HH] |==|  0.81619
USER: genes 11 Torsion [N]-CA--CB-[OG] |==|  0.13483
USER: genes 12 Torsion [CA]-CB--OG-[HG] |==|  0.00507
USER: genes 13 Torsion [N]-CA--CB-[CG2] |==|  0.41542
USER: genes 14 Torsion [CA]-CB--OG1-[HG1] |==|  0.12262
USER: genes 15 Torsion [N]-C--CA-[N] |==|  0.45032
USER: genes 16 Torsion [C]-CA--N-[C] |==|  0.55682
USER: genes 17 Torsion [N]-C--CA-[CB] |==|  0.54698
USER: genes 18 Torsion [N]-C--CA-[N] |==|  0.18740
USER: genes 19 Torsion [C]-CA--N-[C] |==|  0.59444
USER: genes 20 Torsion [N]-C--CA-[N] |==|  0.11581
USER: genes 21 Torsion [C]-CA--CB-[CG2] |==|  0.56372
USER: genes 22 Torsion [C]-CA--CB-[OG] |==|  0.59497
USER: genes 23 Torsion [CA]-CB--OG-[HG] |==|  0.31299
USER: genes 24 Torsion [C]-CA--CB-[OG] |==|  0.45456
USER: genes 25 Torsion [CA]-CB--OG-[HG] |==|  0.01066
ROOT
ATOM      1  C   SER B 156      35.552 -15.948 -10.699  1.00 15.87 LIG 0.24  C 
ATOM      2 O    SER B 156      34.847 -14.982 -10.996  1.00 15.60 LIG-0.27  OA
ATOM      3  N   THR B 157      35.070 -17.068 -10.169  1.00 16.26 LIG-0.34  N 
ATOM      4 H    THR B 157      35.543 -17.764  -9.994  1.00 16.26 LIG 0.16  HD
ENDROOT
BRANCH 3 5
ATOM      5  CA  THR B 157      33.661 -17.195  -9.838  1.00 15.91 LIG 0.20  C 
BRANCH 5 6
ATOM      6  C   THR B 157      33.484 -16.274  -8.635  1.00 16.14 LIG 0.24  C 
ATOM      7 O    THR B 157      34.149 -16.456  -7.610  1.00 15.69 LIG-0.27  OA
ATOM      8  N   SER B 158      32.599 -15.292  -8.752  1.00 15.14 LIG-0.34  N 
ATOM      9 H    SER B 158      32.126 -15.147  -9.455  1.00 15.14 LIG 0.16  HD
BRANCH 8 10
ATOM     10  CA  SER B 158      32.364 -14.358  -7.655  1.00 18.36 LIG 0.20  C 
BRANCH 10 11
ATOM     11  C   SER B 158      31.085 -13.558  -7.884  1.00 20.96 LIG 0.24  C 
ATOM     12 O    SER B 158      30.616 -13.430  -9.016  1.00 20.92 LIG-0.27  OA
ATOM     13  N   TYR B 159      30.526 -13.022  -6.804  1.00 23.40 LIG-0.35  N 
ATOM     14 H    TYR B 159      30.844 -13.103  -6.008  1.00 23.40 LIG 0.16  HD
BRANCH 13 15
ATOM     15  CA  TYR B 159      29.298 -12.237  -6.887  1.00 28.83 LIG 0.17  C 
BRANCH 15 16
ATOM     16  C   TYR B 159      29.224 -11.219  -5.754  1.00 30.09 LIG 0.22  C 
ATOM     17 O    TYR B 159      29.215 -10.013  -6.079  1.00 33.46 LIG-0.29  OA
ENDBRANCH 15 16
BRANCH 15 18
ATOM     18  CB  TYR B 159      28.076 -13.157  -6.826  1.00 32.38 LIG 0.07  C 
BRANCH 18 19
ATOM     19  CG  TYR B 159      28.106 -14.130  -5.669  1.00 36.58 LIG-0.06  A 
ATOM     20  CD2 TYR B 159      27.364 -13.893  -4.512  1.00 38.67 LIG 0.01  A 
ATOM     21  CE2 TYR B 159      27.380 -14.793  -3.448  1.00 40.79 LIG 0.04  A 
ATOM     22  CZ  TYR B 159      28.148 -15.943  -3.537  1.00 41.05 LIG 0.07  A 
ATOM     23  CE1 TYR B 159      28.896 -16.201  -4.675  1.00 40.09 LIG 0.04  A 
ATOM     24  CD1 TYR B 159      28.869 -15.295  -5.734  1.00 38.09 LIG 0.01  A 
BRANCH 22 25
ATOM     25 OH   TYR B 159      28.169 -16.836  -2.490  1.00 43.66 LIG-0.36  OA
ATOM     26 HH   TYR B 159      28.534 -16.477  -1.823  1.00 43.66 LIG 0.22  HD
ENDBRANCH 22 25
ENDBRANCH 18 19
ENDBRANCH 15 18
ENDBRANCH 13 15
ENDBRANCH 10 11
BRANCH 10 27
ATOM     27  CB  SER B 158      33.548 -13.400  -7.514  1.00 15.79 LIG 0.20  C 
BRANCH 27 28
ATOM     28 OG   SER B 158      33.905 -12.848  -8.769  1.00 17.90 LIG-0.40  OA
ATOM     29 HG   SER B 158      33.380 -13.133  -9.360  1.00 17.90 LIG 0.21  HD
ENDBRANCH 27 28
ENDBRANCH 10 27
ENDBRANCH 8 10
ENDBRANCH 5 6
BRANCH 5 30
ATOM     30  CB  THR B 157      33.289 -18.634  -9.418  1.00 18.18 LIG 0.15  C 
ATOM     31  CG2 THR B 157      32.144 -18.623  -8.420  1.00 16.96 LIG 0.04  C 
BRANCH 30 32
ATOM     32 OG1  THR B 157      32.914 -19.389 -10.578  1.00 15.90 LIG-0.39  OA
ATOM     33 HG1  THR B 157      33.457 -19.236 -11.200  1.00 15.90 LIG 0.21  HD
ENDBRANCH 30 32
ENDBRANCH 5 30
ENDBRANCH 3 5
BRANCH 1 34
ATOM     34  CA  SER B 156      37.051 -15.913 -10.937  1.00 16.58 LIG 0.20  C 
BRANCH 34 35
ATOM     35  N   SER B 156      37.339 -14.841 -11.882  1.00 15.80 LIG-0.34  N 
ATOM     36 H    SER B 156      36.721 -14.247 -11.938  1.00 15.80 LIG 0.16  HD
ATOM     37  C   PRO B 155      38.465 -14.802 -12.589  1.00 18.36 LIG 0.24  C 
ATOM     38 O    PRO B 155      39.341 -15.664 -12.512  1.00 18.57 LIG-0.27  OA
BRANCH 37 39
ATOM     39  CA  PRO B 155      38.619 -13.618 -13.534  1.00 19.30 LIG 0.18  C 
ATOM     40  CB  PRO B 155      39.702 -13.856 -14.579  1.00 17.99 LIG 0.04  C 
ATOM     41  CG  PRO B 155      40.940 -13.435 -13.846  1.00 20.29 LIG 0.02  C 
ATOM     42  CD  PRO B 155      40.504 -12.144 -13.167  1.00 20.15 LIG 0.13  C 
ATOM     43  N   PRO B 155      39.091 -12.413 -12.843  1.00 20.34 LIG-0.34  N 
ATOM     44  C   SER B 154      38.279 -11.648 -12.093  1.00 23.17 LIG 0.24  C 
ATOM     45 O    SER B 154      37.087 -11.912 -11.940  1.00 21.43 LIG-0.27  OA
BRANCH 44 46
ATOM     46  CA  SER B 154      38.896 -10.422 -11.427  1.00 26.04 LIG 0.20  C 
BRANCH 46 47
ATOM     47  N   SER B 154      39.294  -9.417 -12.408  1.00 29.08 LIG-0.34  N 
ATOM     48 H    SER B 154      38.782  -9.373 -13.098  1.00 29.08 LIG 0.16  HD
ATOM     49  C   VAL B 153      40.363  -8.648 -12.227  1.00 31.74 LIG 0.26  C 
ATOM     50 O    VAL B 153      41.087  -8.729 -11.237  1.00 31.76 LIG-0.27  OA
BRANCH 49 51
ATOM     51  CA  VAL B 153      40.664  -7.637 -13.330  1.00 34.29 LIG 0.40  C 
ATOM     52  N   VAL B 153      39.406  -6.995 -13.803  1.00 34.52 LIG 0.61  N 
BRANCH 51 53
ATOM     53  CB  VAL B 153      41.657  -6.586 -12.779  1.00 36.17 LIG 0.03  C 
ATOM     54  CG2 VAL B 153      41.555  -5.302 -13.580  1.00 38.03 LIG 0.01  C 
ATOM     55  CG1 VAL B 153      43.075  -7.131 -12.828  1.00 38.39 LIG 0.01  C 
ENDBRANCH 51 53
ENDBRANCH 49 51
ENDBRANCH 46 47
BRANCH 46 56
ATOM     56  CB  SER B 154      37.894  -9.828 -10.433  1.00 27.48 LIG 0.20  C 
BRANCH 56 57
ATOM     57 OG   SER B 154      38.004  -8.416 -10.383  1.00 30.72 LIG-0.40  OA
ATOM     58 HG   SER B 154      37.307  -8.069 -10.699  1.00 30.72 LIG 0.21  HD
ENDBRANCH 56 57
ENDBRANCH 46 56
ENDBRANCH 44 46
ENDBRANCH 37 39
ENDBRANCH 34 35
BRANCH 34 59
ATOM     59  CB  SER B 156      37.741 -15.642  -9.599  1.00 16.81 LIG 0.20  C 
BRANCH 59 60
ATOM     60 OG   SER B 156      39.121 -15.965  -9.676  1.00 16.65 LIG-0.40  OA
ATOM     61 HG   SER B 156      39.312 -16.196 -10.461  1.00 16.65 LIG 0.21  HD
ENDBRANCH 59 60
ENDBRANCH 34 59
ENDBRANCH 1 34
TORSDOF 24
ENDMDL
MODEL 5
USER: ADFR SOLUTION from run 100
USER: SCORE 17.496560 LL:  -4.256 LR: -14.538 RR:   0.000 FEB:  -7.378
USER: RMSD 5.645622
USER: SEED 99
USER: STATUS no improvement in best in 6 clusters for 5 generations
USER: GENES 26
USER: genes 0 Translation |==|  0.36897 0.63436 0.49895
USER: genes 1 Rotation |==|  0.62126 0.62120 0.40327 0.95962
USER: genes 2 Torsion [C]-N--CA-[C] |==|  0.55307
USER: genes 3 Torsion [N]-CA--C-[N] |==|  0.44881
USER: genes 4 Torsion [C]-N--CA-[C] |==|  0.64501
USER: genes 5 Torsion [N]-CA--C-[N] |==|  0.98092
USER: genes 6 Torsion [C]-N--CA-[CB] |==|  0.80623
USER: genes 7 Torsion [N]-CA--C-[O] |==|  0.54089
USER: genes 8 Torsion [N]-CA--CB-[CG] |==|  0.84942
USER: genes 9 Torsion [CA]-CB--CG-[CD2] |==|  0.41082
USER: genes 10 Torsion [CE2]-CZ--OH-[HH] |==|  0.29307
USER: genes 11 Torsion [N]-CA--CB-[OG] |==|  0.77224
USER: genes 12 Torsion [CA]-CB--OG-[HG] |==|  0.10460
USER: genes 13 Torsion [N]-CA--CB-[CG2] |==|  0.11375
USER: genes 14 Torsion [CA]-CB--OG1-[HG1] |==|  0.16454
USER: genes 15 Torsion [N]-C--CA-[N] |==|  0.50553
USER: genes 16 Torsion [C]-CA--N-[C] |==|  0.68792
USER: genes 17 Torsion [N]-C--CA-[CB] |==|  0.99564
USER: genes 18 Torsion [N]-C--CA-[N] |==|  0.22012
USER: genes 19 Torsion [C]-CA--N-[C] |==|  0.67700
USER: genes 20 Torsion [N]-C--CA-[N] |==|  0.46237
USER: genes 21 Torsion [C]-CA--CB-[CG2] |==|  0.91310
USER: genes 22 Torsion [C]-CA--CB-[OG] |==|  0.65103
USER: genes 23 Torsion [CA]-CB--OG-[HG] |==|  0.64995
USER: genes 24 Torsion [C]-CA--CB-[OG] |==|  0.75652
USER: genes 25 Torsion [CA]-CB--OG-[HG] |==|  0.02022
ROOT
ATOM      1  C   SER B 156      35.330 -13.246  -9.851  1.00 15.87 LIG 0.24  C 
ATOM      2 O    SER B 156      34.379 -12.478 -10.007  1.00 15.60 LIG-0.27  OA
ATOM      3  N   THR B 157      36.529 -13.039 -10.387  1.00 16.26 LIG-0.34  N 
ATOM      4 H    THR B 157      37.212 -13.544 -10.255  1.00 16.26 LIG 0.16  HD
ENDROOT
BRANCH 3 5
ATOM      5  CA  THR B 157      36.773 -11.906 -11.262  1.00 15.91 LIG 0.20  C 
BRANCH 5 6
ATOM      6  C   THR B 157      38.042 -12.294 -12.016  1.00 16.14 LIG 0.24  C 
ATOM      7 O    THR B 157      38.777 -13.185 -11.578  1.00 15.69 LIG-0.27  OA
ATOM      8  N   SER B 158      38.301 -11.637 -13.140  1.00 15.14 LIG-0.34  N 
ATOM      9 H    SER B 158      37.805 -11.014 -13.462  1.00 15.14 LIG 0.16  HD
BRANCH 8 10
ATOM     10  CA  SER B 158      39.489 -11.941 -13.930  1.00 18.36 LIG 0.20  C 
BRANCH 10 11
ATOM     11  C   SER B 158      40.290 -10.675 -14.222  1.00 20.96 LIG 0.24  C 
ATOM     12 O    SER B 158      41.392 -10.739 -14.771  1.00 20.92 LIG-0.27  OA
ATOM     13  N   TYR B 159      39.731  -9.528 -13.854  1.00 23.40 LIG-0.35  N 
ATOM     14 H    TYR B 159      38.963  -9.469 -13.469  1.00 23.40 LIG 0.16  HD
BRANCH 13 15
ATOM     15  CA  TYR B 159      40.392  -8.245 -14.080  1.00 28.83 LIG 0.17  C 
BRANCH 15 16
ATOM     16  C   TYR B 159      40.828  -8.106 -15.534  1.00 30.09 LIG 0.22  C 
ATOM     17 O    TYR B 159      41.645  -7.196 -15.794  1.00 33.46 LIG-0.29  OA
ENDBRANCH 15 16
BRANCH 15 18
ATOM     18  CB  TYR B 159      41.613  -8.112 -13.166  1.00 32.38 LIG 0.07  C 
BRANCH 18 19
ATOM     19  CG  TYR B 159      41.300  -8.319 -11.701  1.00 36.58 LIG-0.06  A 
ATOM     20  CD2 TYR B 159      42.241  -8.882 -10.839  1.00 38.67 LIG 0.01  A 
ATOM     21  CE2 TYR B 159      41.960  -9.063  -9.486  1.00 40.79 LIG 0.04  A 
ATOM     22  CZ  TYR B 159      40.724  -8.682  -8.987  1.00 41.05 LIG 0.07  A 
ATOM     23  CE1 TYR B 159      39.772  -8.122  -9.823  1.00 40.09 LIG 0.04  A 
ATOM     24  CD1 TYR B 159      40.065  -7.942 -11.174  1.00 38.09 LIG 0.01  A 
BRANCH 22 25
ATOM     25 OH   TYR B 159      40.441  -8.860  -7.651  1.00 43.66 LIG-0.36  OA
ATOM     26 HH   TYR B 159      40.466  -8.118  -7.258  1.00 43.66 LIG 0.22  HD
ENDBRANCH 22 25
ENDBRANCH 18 19
ENDBRANCH 15 18
ENDBRANCH 13 15
ENDBRANCH 10 11
BRANCH 10 27
ATOM     27  CB  SER B 158      39.090 -12.607 -15.248  1.00 15.79 LIG 0.20  C 
BRANCH 27 28
ATOM     28 OG   SER B 158      38.859 -13.993 -15.065  1.00 17.90 LIG-0.40  OA
ATOM     29 HG   SER B 158      38.484 -14.119 -14.324  1.00 17.90 LIG 0.21  HD
ENDBRANCH 27 28
ENDBRANCH 10 27
ENDBRANCH 8 10
ENDBRANCH 5 6
BRANCH 5 30
ATOM     30  CB  THR B 157      37.046 -10.608 -10.471  1.00 18.18 LIG 0.15  C 
ATOM     31  CG2 THR B 157      37.934 -10.887  -9.270  1.00 16.96 LIG 0.04  C 
BRANCH 30 32
ATOM     32 OG1  THR B 157      37.680  -9.649 -11.329  1.00 15.90 LIG-0.39  OA
ATOM     33 HG1  THR B 157      37.181  -9.488 -11.986  1.00 15.90 LIG 0.21  HD
ENDBRANCH 30 32
ENDBRANCH 5 30
ENDBRANCH 3 5
BRANCH 1 34
ATOM     34  CA  SER B 156      35.182 -14.501  -9.009  1.00 16.58 LIG 0.20  C 
BRANCH 34 35
ATOM     35  N   SER B 156      33.801 -14.583  -8.550  1.00 15.80 LIG-0.34  N 
ATOM     36 H    SER B 156      33.230 -14.726  -9.177  1.00 15.80 LIG 0.16  HD
ATOM     37  C   PRO B 155      33.470 -14.445  -7.270  1.00 18.36 LIG 0.24  C 
ATOM     38 O    PRO B 155      34.293 -14.229  -6.378  1.00 18.57 LIG-0.27  OA
BRANCH 37 39
ATOM     39  CA  PRO B 155      31.985 -14.557  -6.947  1.00 19.30 LIG 0.18  C 
ATOM     40  CB  PRO B 155      31.142 -14.774  -8.198  1.00 17.99 LIG 0.04  C 
ATOM     41  CG  PRO B 155      30.935 -13.370  -8.680  1.00 20.29 LIG 0.02  C 
ATOM     42  CD  PRO B 155      30.605 -12.620  -7.397  1.00 20.15 LIG 0.13  C 
ATOM     43  N   PRO B 155      31.442 -13.310  -6.398  1.00 20.34 LIG-0.34  N 
ATOM     44  C   SER B 154      31.642 -12.937  -5.122  1.00 23.17 LIG 0.24  C 
ATOM     45 O    SER B 154      32.296 -13.620  -4.335  1.00 21.43 LIG-0.27  OA
BRANCH 44 46
ATOM     46  CA  SER B 154      31.021 -11.616  -4.677  1.00 26.04 LIG 0.20  C 
BRANCH 46 47
ATOM     47  N   SER B 154      29.598 -11.758  -4.389  1.00 29.08 LIG-0.34  N 
ATOM     48 H    SER B 154      29.420 -12.285  -3.732  1.00 29.08 LIG 0.16  HD
ATOM     49  C   VAL B 153      28.673 -11.118  -5.098  1.00 31.74 LIG 0.26  C 
ATOM     50 O    VAL B 153      28.946 -10.374  -6.037  1.00 31.76 LIG-0.27  OA
BRANCH 49 51
ATOM     51  CA  VAL B 153      27.223 -11.355  -4.688  1.00 34.29 LIG 0.40  C 
ATOM     52  N   VAL B 153      26.330 -10.349  -5.329  1.00 34.52 LIG 0.61  N 
BRANCH 51 53
ATOM     53  CB  VAL B 153      26.824 -12.795  -5.093  1.00 36.17 LIG 0.03  C 
ATOM     54  CG2 VAL B 153      27.580 -13.214  -6.340  1.00 38.03 LIG 0.01  C 
ATOM     55  CG1 VAL B 153      25.324 -12.875  -5.329  1.00 38.39 LIG 0.01  C 
ENDBRANCH 51 53
ENDBRANCH 49 51
ENDBRANCH 46 47
BRANCH 46 56
ATOM     56  CB  SER B 154      31.765 -11.098  -3.443  1.00 27.48 LIG 0.20  C 
BRANCH 56 57
ATOM     57 OG   SER B 154      30.866 -10.846  -2.376  1.00 30.72 LIG-0.40  OA
ATOM     58 HG   SER B 154      30.968 -10.058  -2.104  1.00 30.72 LIG 0.21  HD
ENDBRANCH 56 57
ENDBRANCH 46 56
ENDBRANCH 44 46
ENDBRANCH 37 39
ENDBRANCH 34 35
BRANCH 34 59
ATOM     59  CB  SER B 156      35.523 -15.707  -9.886  1.00 16.81 LIG 0.20  C 
BRANCH 59 60
ATOM     60 OG   SER B 156      34.370 -16.161 -10.579  1.00 16.65 LIG-0.40  OA
ATOM     61 HG   SER B 156      33.737 -15.622 -10.455  1.00 16.65 LIG 0.21  HD
ENDBRANCH 59 60
ENDBRANCH 34 59
ENDBRANCH 1 34
TORSDOF 24
ENDMDL
MODEL 6
USER: ADFR SOLUTION from run 141
USER: SCORE 17.623875 LL:  -4.090 LR: -14.525 RR:   0.000 FEB:  -7.366
USER: RMSD 12.686756
USER: SEED 140
USER: STATUS no improvement in best in 7 clusters for 5 generations
USER: GENES 26
USER: genes 0 Translation |==|  0.31777 0.39534 0.49645
USER: genes 1 Rotation |==|  0.79281 0.51214 0.83401 0.72924
USER: genes 2 Torsion [C]-N--CA-[C] |==|  0.60273
USER: genes 3 Torsion [N]-CA--C-[N] |==|  0.38889
USER: genes 4 Torsion [C]-N--CA-[C] |==|  0.53169
USER: genes 5 Torsion [N]-CA--C-[N] |==|  0.26733
USER: genes 6 Torsion [C]-N--CA-[CB] |==|  0.43144
USER: genes 7 Torsion [N]-CA--C-[O] |==|  0.29012
USER: genes 8 Torsion [N]-CA--CB-[CG] |==|  0.82755
USER: genes 9 Torsion [CA]-CB--CG-[CD2] |==|  0.21597
USER: genes 10 Torsion [CE2]-CZ--OH-[HH] |==|  0.29030
USER: genes 11 Torsion [N]-CA--CB-[OG] |==|  0.65337
USER: genes 12 Torsion [CA]-CB--OG-[HG] |==|  0.11969
USER: genes 13 Torsion [N]-CA--CB-[CG2] |==|  0.12223
USER: genes 14 Torsion [CA]-CB--OG1-[HG1] |==|  0.67880
USER: genes 15 Torsion [N]-C--CA-[N] |==|  0.89345
USER: genes 16 Torsion [C]-CA--N-[C] |==|  0.81131
USER: genes 17 Torsion [N]-C--CA-[CB] |==|  0.89786
USER: genes 18 Torsion [N]-C--CA-[N] |==|  0.40952
USER: genes 19 Torsion [C]-CA--N-[C] |==|  0.80131
USER: genes 20 Torsion [N]-C--CA-[N] |==|  0.86464
USER: genes 21 Torsion [C]-CA--CB-[CG2] |==|  0.46057
USER: genes 22 Torsion [C]-CA--CB-[OG] |==|  0.28479
USER: genes 23 Torsion [CA]-CB--OG-[HG] |==|  0.64376
USER: genes 24 Torsion [C]-CA--CB-[OG] |==|  0.43140
USER: genes 25 Torsion [CA]-CB--OG-[HG] |==|  0.66399
ROOT
ATOM      1  C   SER B 156      33.909 -18.803  -9.903  1.00 15.87 LIG 0.24  C 
ATOM      2 O    SER B 156      33.051 -18.988 -10.769  1.00 15.60 LIG-0.27  OA
ATOM      3  N   THR B 157      33.638 -18.294  -8.706  1.00 16.26 LIG-0.34  N 
ATOM      4 H    THR B 157      34.218 -18.197  -8.078  1.00 16.26 LIG 0.16  HD
ENDROOT
BRANCH 3 5
ATOM      5  CA  THR B 157      32.297 -17.853  -8.364  1.00 15.91 LIG 0.20  C 
BRANCH 5 6
ATOM      6  C   THR B 157      32.528 -16.614  -7.504  1.00 16.14 LIG 0.24  C 
ATOM      7 O    THR B 157      33.445 -16.594  -6.677  1.00 15.69 LIG-0.27  OA
ATOM      8  N   SER B 158      31.709 -15.587  -7.693  1.00 15.14 LIG-0.34  N 
ATOM      9 H    SER B 158      31.065 -15.580  -8.262  1.00 15.14 LIG 0.16  HD
BRANCH 8 10
ATOM     10  CA  SER B 158      31.855 -14.358  -6.920  1.00 18.36 LIG 0.20  C 
BRANCH 10 11
ATOM     11  C   SER B 158      30.646 -13.446  -7.110  1.00 20.96 LIG 0.24  C 
ATOM     12 O    SER B 158      30.575 -12.689  -8.080  1.00 20.92 LIG-0.27  OA
ATOM     13  N   TYR B 159      29.699 -13.525  -6.182  1.00 23.40 LIG-0.35  N 
ATOM     14 H    TYR B 159      29.737 -14.048  -5.499  1.00 23.40 LIG 0.16  HD
BRANCH 13 15
ATOM     15  CA  TYR B 159      28.490 -12.708  -6.250  1.00 28.83 LIG 0.17  C 
BRANCH 15 16
ATOM     16  C   TYR B 159      28.738 -11.319  -5.674  1.00 30.09 LIG 0.22  C 
ATOM     17 O    TYR B 159      28.860 -10.382  -6.492  1.00 33.46 LIG-0.29  OA
ENDBRANCH 15 16
BRANCH 15 18
ATOM     18  CB  TYR B 159      27.351 -13.383  -5.482  1.00 32.38 LIG 0.07  C 
BRANCH 18 19
ATOM     19  CG  TYR B 159      26.955 -14.730  -6.044  1.00 36.58 LIG-0.06  A 
ATOM     20  CD2 TYR B 159      27.724 -15.866  -5.793  1.00 38.67 LIG 0.01  A 
ATOM     21  CE2 TYR B 159      27.356 -17.112  -6.300  1.00 40.79 LIG 0.04  A 
ATOM     22  CZ  TYR B 159      26.208 -17.225  -7.068  1.00 41.05 LIG 0.07  A 
ATOM     23  CE1 TYR B 159      25.428 -16.111  -7.333  1.00 40.09 LIG 0.04  A 
ATOM     24  CD1 TYR B 159      25.805 -14.871  -6.819  1.00 38.09 LIG 0.01  A 
BRANCH 22 25
ATOM     25 OH   TYR B 159      25.840 -18.452  -7.573  1.00 43.66 LIG-0.36  OA
ATOM     26 HH   TYR B 159      25.195 -18.756  -7.128  1.00 43.66 LIG 0.22  HD
ENDBRANCH 22 25
ENDBRANCH 18 19
ENDBRANCH 15 18
ENDBRANCH 13 15
ENDBRANCH 10 11
BRANCH 10 27
ATOM     27  CB  SER B 158      33.125 -13.617  -7.341  1.00 15.79 LIG 0.20  C 
BRANCH 27 28
ATOM     28 OG   SER B 158      33.961 -13.370  -6.224  1.00 17.90 LIG-0.40  OA
ATOM     29 HG   SER B 158      33.992 -14.056  -5.740  1.00 17.90 LIG 0.21  HD
ENDBRANCH 27 28
ENDBRANCH 10 27
ENDBRANCH 8 10
ENDBRANCH 5 6
BRANCH 5 30
ATOM     30  CB  THR B 157      31.536 -18.902  -7.524  1.00 18.18 LIG 0.15  C 
ATOM     31  CG2 THR B 157      32.431 -19.473  -6.438  1.00 16.96 LIG 0.04  C 
BRANCH 30 32
ATOM     32 OG1  THR B 157      30.382 -18.293  -6.930  1.00 15.90 LIG-0.39  OA
ATOM     33 HG1  THR B 157      30.463 -18.296  -6.093  1.00 15.90 LIG 0.21  HD
ENDBRANCH 30 32
ENDBRANCH 5 30
ENDBRANCH 3 5
BRANCH 1 34
ATOM     34  CA  SER B 156      35.361 -19.165 -10.164  1.00 16.58 LIG 0.20  C 
BRANCH 34 35
ATOM     35  N   SER B 156      36.203 -18.147  -9.548  1.00 15.80 LIG-0.34  N 
ATOM     36 H    SER B 156      36.661 -18.428  -8.877  1.00 15.80 LIG 0.16  HD
ATOM     37  C   PRO B 155      36.247 -16.896  -9.996  1.00 18.36 LIG 0.24  C 
ATOM     38 O    PRO B 155      35.579 -16.497 -10.951  1.00 18.57 LIG-0.27  OA
BRANCH 37 39
ATOM     39  CA  PRO B 155      37.175 -15.949  -9.247  1.00 19.30 LIG 0.18  C 
ATOM     40  CB  PRO B 155      37.187 -16.225  -7.748  1.00 17.99 LIG 0.04  C 
ATOM     41  CG  PRO B 155      36.001 -15.438  -7.278  1.00 20.29 LIG 0.02  C 
ATOM     42  CD  PRO B 155      36.151 -14.123  -8.031  1.00 20.15 LIG 0.13  C 
ATOM     43  N   PRO B 155      36.724 -14.555  -9.320  1.00 20.34 LIG-0.34  N 
ATOM     44  C   SER B 154      36.907 -13.795 -10.412  1.00 23.17 LIG 0.24  C 
ATOM     45 O    SER B 154      37.467 -14.222 -11.422  1.00 21.43 LIG-0.27  OA
BRANCH 44 46
ATOM     46  CA  SER B 154      36.389 -12.360 -10.358  1.00 26.04 LIG 0.20  C 
BRANCH 46 47
ATOM     47  N   SER B 154      37.224 -11.455 -11.140  1.00 29.08 LIG-0.34  N 
ATOM     48 H    SER B 154      36.859 -11.174 -11.867  1.00 29.08 LIG 0.16  HD
ATOM     49  C   VAL B 153      38.444 -11.108 -10.742  1.00 31.74 LIG 0.26  C 
ATOM     50 O    VAL B 153      38.953 -11.523  -9.703  1.00 31.76 LIG-0.27  OA
BRANCH 49 51
ATOM     51  CA  VAL B 153      39.208 -10.153 -11.654  1.00 34.29 LIG 0.40  C 
ATOM     52  N   VAL B 153      39.155 -10.627 -13.065  1.00 34.52 LIG 0.61  N 
BRANCH 51 53
ATOM     53  CB  VAL B 153      38.591  -8.740 -11.516  1.00 36.17 LIG 0.03  C 
ATOM     54  CG2 VAL B 153      39.520  -7.704 -12.122  1.00 38.03 LIG 0.01  C 
ATOM     55  CG1 VAL B 153      38.330  -8.426 -10.051  1.00 38.39 LIG 0.01  C 
ENDBRANCH 51 53
ENDBRANCH 49 51
ENDBRANCH 46 47
BRANCH 46 56
ATOM     56  CB  SER B 154      34.945 -12.324 -10.864  1.00 27.48 LIG 0.20  C 
BRANCH 56 57
ATOM     57 OG   SER B 154      34.030 -12.228  -9.786  1.00 30.72 LIG-0.40  OA
ATOM     58 HG   SER B 154      33.449 -12.830  -9.858  1.00 30.72 LIG 0.21  HD
ENDBRANCH 56 57
ENDBRANCH 46 56
ENDBRANCH 44 46
ENDBRANCH 37 39
ENDBRANCH 34 35
BRANCH 34 59
ATOM     59  CB  SER B 156      35.632 -20.532  -9.534  1.00 16.81 LIG 0.20  C 
BRANCH 59 60
ATOM     60 OG   SER B 156      36.719 -21.173 -10.185  1.00 16.65 LIG-0.40  OA
ATOM     61 HG   SER B 156      36.462 -21.907 -10.503  1.00 16.65 LIG 0.21  HD
ENDBRANCH 59 60
ENDBRANCH 34 59
ENDBRANCH 1 34
TORSDOF 24
ENDMDL
MODEL 7
USER: ADFR SOLUTION from run 92
USER: SCORE 17.702584 LL:  -3.986 LR: -14.530 RR:   0.000 FEB:  -7.371
USER: RMSD 10.597063
USER: SEED 91
USER: STATUS no improvement in best in 6 clusters for 5 generations
USER: GENES 26
USER: genes 0 Translation |==|  0.26564 0.50878 0.62443
USER: genes 1 Rotation |==|  0.12690 0.44398 0.20102 0.63516
USER: genes 2 Torsion [C]-N--CA-[C] |==|  0.17349
USER: genes 3 Torsion [N]-CA--C-[N] |==|  0.09997
USER: genes 4 Torsion [C]-N--CA-[C] |==|  0.62542
USER: genes 5 Torsion [N]-CA--C-[N] |==|  0.39710
USER: genes 6 Torsion [C]-N--CA-[CB] |==|  0.85900
USER: genes 7 Torsion [N]-CA--C-[O] |==|  0.55635
USER: genes 8 Torsion [N]-CA--CB-[CG] |==|  0.71277
USER: genes 9 Torsion [CA]-CB--CG-[CD2] |==|  0.09099
USER: genes 10 Torsion [CE2]-CZ--OH-[HH] |==|  0.29294
USER: genes 11 Torsion [N]-CA--CB-[OG] |==|  0.73083
USER: genes 12 Torsion [CA]-CB--OG-[HG] |==|  0.13812
USER: genes 13 Torsion [N]-CA--CB-[CG2] |==|  0.56611
USER: genes 14 Torsion [CA]-CB--OG1-[HG1] |==|  0.18619
USER: genes 15 Torsion [N]-C--CA-[N] |==|  0.33531
USER: genes 16 Torsion [C]-CA--N-[C] |==|  0.63337
USER: genes 17 Torsion [N]-C--CA-[CB] |==|  0.78002
USER: genes 18 Torsion [N]-C--CA-[N] |==|  0.26816
USER: genes 19 Torsion [C]-CA--N-[C] |==|  0.70203
USER: genes 20 Torsion [N]-C--CA-[N] |==|  0.22908
USER: genes 21 Torsion [C]-CA--CB-[CG2] |==|  0.50812
USER: genes 22 Torsion [C]-CA--CB-[OG] |==|  0.64862
USER: genes 23 Torsion [CA]-CB--OG-[HG] |==|  0.16327
USER: genes 24 Torsion [C]-CA--CB-[OG] |==|  0.72731
USER: genes 25 Torsion [CA]-CB--OG-[HG] |==|  0.85669
ROOT
ATOM      1  C   SER B 156      32.462 -16.166  -7.216  1.00 15.87 LIG 0.24  C 
ATOM      2 O    SER B 156      31.572 -16.592  -7.953  1.00 15.60 LIG-0.27  OA
ATOM      3  N   THR B 157      32.961 -16.861  -6.198  1.00 16.26 LIG-0.34  N 
ATOM      4 H    THR B 157      33.609 -16.593  -5.700  1.00 16.26 LIG 0.16  HD
ENDROOT
BRANCH 3 5
ATOM      5  CA  THR B 157      32.425 -18.165  -5.846  1.00 15.91 LIG 0.20  C 
BRANCH 5 6
ATOM      6  C   THR B 157      32.698 -19.017  -7.081  1.00 16.14 LIG 0.24  C 
ATOM      7 O    THR B 157      31.886 -19.878  -7.434  1.00 15.69 LIG-0.27  OA
ATOM      8  N   SER B 158      33.828 -18.784  -7.737  1.00 15.14 LIG-0.34  N 
ATOM      9 H    SER B 158      34.407 -18.191  -7.509  1.00 15.14 LIG 0.16  HD
BRANCH 8 10
ATOM     10  CA  SER B 158      34.174 -19.547  -8.932  1.00 18.36 LIG 0.20  C 
BRANCH 10 11
ATOM     11  C   SER B 158      35.632 -19.995  -8.892  1.00 20.96 LIG 0.24  C 
ATOM     12 O    SER B 158      36.503 -19.263  -8.417  1.00 20.92 LIG-0.27  OA
ATOM     13  N   TYR B 159      35.891 -21.200  -9.390  1.00 23.40 LIG-0.35  N 
ATOM     14 H    TYR B 159      35.292 -21.720  -9.725  1.00 23.40 LIG 0.16  HD
BRANCH 13 15
ATOM     15  CA  TYR B 159      37.244 -21.747  -9.407  1.00 28.83 LIG 0.17  C 
BRANCH 15 16
ATOM     16  C   TYR B 159      37.706 -22.102  -7.998  1.00 30.09 LIG 0.22  C 
ATOM     17 O    TYR B 159      38.939 -22.204  -7.817  1.00 33.46 LIG-0.29  OA
ENDBRANCH 15 16
BRANCH 15 18
ATOM     18  CB  TYR B 159      38.216 -20.737 -10.022  1.00 32.38 LIG 0.07  C 
BRANCH 18 19
ATOM     19  CG  TYR B 159      38.616 -21.068 -11.443  1.00 36.58 LIG-0.06  A 
ATOM     20  CD2 TYR B 159      37.724 -21.700 -12.310  1.00 38.67 LIG 0.01  A 
ATOM     21  CE2 TYR B 159      38.085 -21.996 -13.624  1.00 40.79 LIG 0.04  A 
ATOM     22  CZ  TYR B 159      39.351 -21.660 -14.077  1.00 41.05 LIG 0.07  A 
ATOM     23  CE1 TYR B 159      40.255 -21.034 -13.235  1.00 40.09 LIG 0.04  A 
ATOM     24  CD1 TYR B 159      39.882 -20.740 -11.925  1.00 38.09 LIG 0.01  A 
BRANCH 22 25
ATOM     25 OH   TYR B 159      39.713 -21.951 -15.373  1.00 43.66 LIG-0.36  OA
ATOM     26 HH   TYR B 159      39.716 -21.245 -15.829  1.00 43.66 LIG 0.22  HD
ENDBRANCH 22 25
ENDBRANCH 18 19
ENDBRANCH 15 18
ENDBRANCH 13 15
ENDBRANCH 10 11
BRANCH 10 27
ATOM     27  CB  SER B 158      33.934 -18.702 -10.185  1.00 15.79 LIG 0.20  C 
BRANCH 27 28
ATOM     28 OG   SER B 158      32.672 -18.995 -10.759  1.00 17.90 LIG-0.40  OA
ATOM     29 HG   SER B 158      32.080 -18.965 -10.164  1.00 17.90 LIG 0.21  HD
ENDBRANCH 27 28
ENDBRANCH 10 27
ENDBRANCH 8 10
ENDBRANCH 5 6
BRANCH 5 30
ATOM     30  CB  THR B 157      30.901 -18.121  -5.602  1.00 18.18 LIG 0.15  C 
ATOM     31  CG2 THR B 157      30.468 -19.269  -4.706  1.00 16.96 LIG 0.04  C 
BRANCH 30 32
ATOM     32 OG1  THR B 157      30.550 -16.871  -4.993  1.00 15.90 LIG-0.39  OA
ATOM     33 HG1  THR B 157      30.681 -16.247  -5.539  1.00 15.90 LIG 0.21  HD
ENDBRANCH 30 32
ENDBRANCH 5 30
ENDBRANCH 3 5
BRANCH 1 34
ATOM     34  CA  SER B 156      33.061 -14.789  -7.442  1.00 16.58 LIG 0.20  C 
BRANCH 34 35
ATOM     35  N   SER B 156      33.626 -14.751  -8.785  1.00 15.80 LIG-0.34  N 
ATOM     36 H    SER B 156      33.101 -15.051  -9.396  1.00 15.80 LIG 0.16  HD
ATOM     37  C   PRO B 155      34.849 -14.289  -9.026  1.00 18.36 LIG 0.24  C 
ATOM     38 O    PRO B 155      35.600 -13.870  -8.144  1.00 18.57 LIG-0.27  OA
BRANCH 37 39
ATOM     39  CA  PRO B 155      35.298 -14.315 -10.482  1.00 19.30 LIG 0.18  C 
ATOM     40  CB  PRO B 155      35.751 -15.702 -10.918  1.00 17.99 LIG 0.04  C 
ATOM     41  CG  PRO B 155      37.182 -15.716 -10.474  1.00 20.29 LIG 0.02  C 
ATOM     42  CD  PRO B 155      37.681 -14.344 -10.908  1.00 20.15 LIG 0.13  C 
ATOM     43  N   PRO B 155      36.492 -13.494 -10.709  1.00 20.34 LIG-0.34  N 
ATOM     44  C   SER B 154      36.440 -12.154 -10.798  1.00 23.17 LIG 0.24  C 
ATOM     45 O    SER B 154      35.383 -11.531 -10.694  1.00 21.43 LIG-0.27  OA
BRANCH 44 46
ATOM     46  CA  SER B 154      37.756 -11.419 -11.036  1.00 26.04 LIG 0.20  C 
BRANCH 46 47
ATOM     47  N   SER B 154      37.959 -11.120 -12.450  1.00 29.08 LIG-0.34  N 
ATOM     48 H    SER B 154      37.455 -10.494 -12.756  1.00 29.08 LIG 0.16  HD
ATOM     49  C   VAL B 153      38.855 -11.776 -13.182  1.00 31.74 LIG 0.26  C 
ATOM     50 O    VAL B 153      39.562 -12.673 -12.729  1.00 31.76 LIG-0.27  OA
BRANCH 49 51
ATOM     51  CA  VAL B 153      38.966 -11.361 -14.646  1.00 34.29 LIG 0.40  C 
ATOM     52  N   VAL B 153      39.835 -10.159 -14.781  1.00 34.52 LIG 0.61  N 
BRANCH 51 53
ATOM     53  CB  VAL B 153      39.530 -12.554 -15.455  1.00 36.17 LIG 0.03  C 
ATOM     54  CG2 VAL B 153      39.723 -12.155 -16.906  1.00 38.03 LIG 0.01  C 
ATOM     55  CG1 VAL B 153      38.591 -13.745 -15.353  1.00 38.39 LIG 0.01  C 
ENDBRANCH 51 53
ENDBRANCH 49 51
ENDBRANCH 46 47
BRANCH 46 56
ATOM     56  CB  SER B 154      37.772 -10.129 -10.212  1.00 27.48 LIG 0.20  C 
BRANCH 56 57
ATOM     57 OG   SER B 154      38.053  -9.006 -11.029  1.00 30.72 LIG-0.40  OA
ATOM     58 HG   SER B 154      37.473  -8.948 -11.634  1.00 30.72 LIG 0.21  HD
ENDBRANCH 56 57
ENDBRANCH 46 56
ENDBRANCH 44 46
ENDBRANCH 37 39
ENDBRANCH 34 35
BRANCH 34 59
ATOM     59  CB  SER B 156      31.942 -13.755  -7.307  1.00 16.81 LIG 0.20  C 
BRANCH 59 60
ATOM     60 OG   SER B 156      31.451 -13.382  -8.586  1.00 16.65 LIG-0.40  OA
ATOM     61 HG   SER B 156      32.093 -13.159  -9.079  1.00 16.65 LIG 0.21  HD
ENDBRANCH 59 60
ENDBRANCH 34 59
ENDBRANCH 1 34
TORSDOF 24
ENDMDL
MODEL 8
USER: ADFR SOLUTION from run 155
USER: SCORE 17.697838 LL:  -4.167 LR: -14.459 RR:   0.000 FEB:  -7.300
USER: RMSD 13.009117
USER: SEED 154
USER: STATUS no improvement in best in 5 clusters for 5 generations
USER: GENES 26
USER: genes 0 Translation |==|  0.38234 0.51842 0.45551
USER: genes 1 Rotation |==|  0.15811 0.76373 0.24914 0.52509
USER: genes 2 Torsion [C]-N--CA-[C] |==|  0.81111
USER: genes 3 Torsion [N]-CA--C-[N] |==|  0.33701
USER: genes 4 Torsion [C]-N--CA-[C] |==|  0.80784
USER: genes 5 Torsion [N]-CA--C-[N] |==|  0.86423
USER: genes 6 Torsion [C]-N--CA-[CB] |==|  0.30039
USER: genes 7 Torsion [N]-CA--C-[O] |==|  0.28714
USER: genes 8 Torsion [N]-CA--CB-[CG] |==|  0.91633
USER: genes 9 Torsion [CA]-CB--CG-[CD2] |==|  0.31791
USER: genes 10 Torsion [CE2]-CZ--OH-[HH] |==|  0.46149
USER: genes 11 Torsion [N]-CA--CB-[OG] |==|  0.12863
USER: genes 12 Torsion [CA]-CB--OG-[HG] |==|  0.26797
USER: genes 13 Torsion [N]-CA--CB-[CG2] |==|  0.40242
USER: genes 14 Torsion [CA]-CB--OG1-[HG1] |==|  0.56897
USER: genes 15 Torsion [N]-C--CA-[N] |==|  0.44575
USER: genes 16 Torsion [C]-CA--N-[C] |==|  0.55568
USER: genes 17 Torsion [N]-C--CA-[CB] |==|  0.52822
USER: genes 18 Torsion [N]-C--CA-[N] |==|  0.18593
USER: genes 19 Torsion [C]-CA--N-[C] |==|  0.62280
USER: genes 20 Torsion [N]-C--CA-[N] |==|  0.07199
USER: genes 21 Torsion [C]-CA--CB-[CG2] |==|  0.57963
USER: genes 22 Torsion [C]-CA--CB-[OG] |==|  0.56126
USER: genes 23 Torsion [CA]-CB--OG-[HG] |==|  0.31327
USER: genes 24 Torsion [C]-CA--CB-[OG] |==|  0.67805
USER: genes 25 Torsion [CA]-CB--OG-[HG] |==|  0.73909
ROOT
ATOM      1  C   SER B 156      35.701 -15.942 -10.763  1.00 15.87 LIG 0.24  C 
ATOM      2 O    SER B 156      35.034 -14.923 -10.954  1.00 15.60 LIG-0.27  OA
ATOM      3  N   THR B 157      35.189 -17.067 -10.276  1.00 16.26 LIG-0.34  N 
ATOM      4 H    THR B 157      35.632 -17.797 -10.174  1.00 16.26 LIG 0.16  HD
ENDROOT
BRANCH 3 5
ATOM      5  CA  THR B 157      33.796 -17.143  -9.867  1.00 15.91 LIG 0.20  C 
BRANCH 5 6
ATOM      6  C   THR B 157      33.727 -16.240  -8.639  1.00 16.14 LIG 0.24  C 
ATOM      7 O    THR B 157      34.436 -16.474  -7.655  1.00 15.69 LIG-0.27  OA
ATOM      8  N   SER B 158      32.884 -15.217  -8.689  1.00 15.14 LIG-0.34  N 
ATOM      9 H    SER B 158      32.381 -15.036  -9.362  1.00 15.14 LIG 0.16  HD
BRANCH 8 10
ATOM     10  CA  SER B 158      32.751 -14.297  -7.564  1.00 18.36 LIG 0.20  C 
BRANCH 10 11
ATOM     11  C   SER B 158      32.088 -14.983  -6.373  1.00 20.96 LIG 0.24  C 
ATOM     12 O    SER B 158      32.578 -14.900  -5.245  1.00 20.92 LIG-0.27  OA
ATOM     13  N   TYR B 159      30.972 -15.657  -6.630  1.00 23.40 LIG-0.35  N 
ATOM     14 H    TYR B 159      30.620 -15.724  -7.412  1.00 23.40 LIG 0.16  HD
BRANCH 13 15
ATOM     15  CA  TYR B 159      30.239 -16.355  -5.576  1.00 28.83 LIG 0.17  C 
BRANCH 15 16
ATOM     16  C   TYR B 159      29.924 -17.788  -5.989  1.00 30.09 LIG 0.22  C 
ATOM     17 O    TYR B 159      30.627 -18.689  -5.483  1.00 33.46 LIG-0.29  OA
ENDBRANCH 15 16
BRANCH 15 18
ATOM     18  CB  TYR B 159      28.936 -15.616  -5.260  1.00 32.38 LIG 0.07  C 
BRANCH 18 19
ATOM     19  CG  TYR B 159      29.016 -14.123  -5.485  1.00 36.58 LIG-0.06  A 
ATOM     20  CD2 TYR B 159      28.255 -13.505  -6.477  1.00 38.67 LIG 0.01  A 
ATOM     21  CE2 TYR B 159      28.316 -12.127  -6.679  1.00 40.79 LIG 0.04  A 
ATOM     22  CZ  TYR B 159      29.149 -11.356  -5.884  1.00 41.05 LIG 0.07  A 
ATOM     23  CE1 TYR B 159      29.916 -11.947  -4.892  1.00 40.09 LIG 0.04  A 
ATOM     24  CD1 TYR B 159      29.844 -13.324  -4.698  1.00 38.09 LIG 0.01  A 
BRANCH 22 25
ATOM     25 OH   TYR B 159      29.216  -9.995  -6.079  1.00 43.66 LIG-0.36  OA
ATOM     26 HH   TYR B 159      29.599  -9.636  -5.423  1.00 43.66 LIG 0.22  HD
ENDBRANCH 22 25
ENDBRANCH 18 19
ENDBRANCH 15 18
ENDBRANCH 13 15
ENDBRANCH 10 11
BRANCH 10 27
ATOM     27  CB  SER B 158      31.925 -13.077  -7.975  1.00 15.79 LIG 0.20  C 
BRANCH 27 28
ATOM     28 OG   SER B 158      30.760 -13.467  -8.680  1.00 17.90 LIG-0.40  OA
ATOM     29 HG   SER B 158      30.109 -13.499  -8.150  1.00 17.90 LIG 0.21  HD
ENDBRANCH 27 28
ENDBRANCH 10 27
ENDBRANCH 8 10
ENDBRANCH 5 6
BRANCH 5 30
ATOM     30  CB  THR B 157      33.388 -18.573  -9.453  1.00 18.18 LIG 0.15  C 
ATOM     31  CG2 THR B 157      32.386 -18.536  -8.312  1.00 16.96 LIG 0.04  C 
BRANCH 30 32
ATOM     32 OG1  THR B 157      32.814 -19.251 -10.579  1.00 15.90 LIG-0.39  OA
ATOM     33 HG1  THR B 157      32.301 -19.859 -10.309  1.00 15.90 LIG 0.21  HD
ENDBRANCH 30 32
ENDBRANCH 5 30
ENDBRANCH 3 5
BRANCH 1 34
ATOM     34  CA  SER B 156      37.183 -15.969 -11.091  1.00 16.58 LIG 0.20  C 
BRANCH 34 35
ATOM     35  N   SER B 156      37.468 -14.877 -12.014  1.00 15.80 LIG-0.34  N 
ATOM     36 H    SER B 156      36.875 -14.255 -12.015  1.00 15.80 LIG 0.16  HD
ATOM     37  C   PRO B 155      38.554 -14.861 -12.780  1.00 18.36 LIG 0.24  C 
ATOM     38 O    PRO B 155      39.394 -15.763 -12.781  1.00 18.57 LIG-0.27  OA
BRANCH 37 39
ATOM     39  CA  PRO B 155      38.711 -13.652 -13.692  1.00 19.30 LIG 0.18  C 
ATOM     40  CB  PRO B 155      39.839 -13.835 -14.700  1.00 17.99 LIG 0.04  C 
ATOM     41  CG  PRO B 155      41.036 -13.398 -13.910  1.00 20.29 LIG 0.02  C 
ATOM     42  CD  PRO B 155      40.538 -12.135 -13.220  1.00 20.15 LIG 0.13  C 
ATOM     43  N   PRO B 155      39.122 -12.451 -12.956  1.00 20.34 LIG-0.34  N 
ATOM     44  C   SER B 154      38.261 -11.726 -12.221  1.00 23.17 LIG 0.24  C 
ATOM     45 O    SER B 154      37.072 -12.026 -12.120  1.00 21.43 LIG-0.27  OA
BRANCH 44 46
ATOM     46  CA  SER B 154      38.818 -10.499 -11.505  1.00 26.04 LIG 0.20  C 
BRANCH 46 47
ATOM     47  N   SER B 154      39.235  -9.466 -12.448  1.00 29.08 LIG-0.34  N 
ATOM     48 H    SER B 154      38.679  -9.326 -13.089  1.00 29.08 LIG 0.16  HD
ATOM     49  C   VAL B 153      40.384  -8.812 -12.306  1.00 31.74 LIG 0.26  C 
ATOM     50 O    VAL B 153      41.169  -9.030 -11.386  1.00 31.76 LIG-0.27  OA
BRANCH 49 51
ATOM     51  CA  VAL B 153      40.696  -7.756 -13.362  1.00 34.29 LIG 0.40  C 
ATOM     52  N   VAL B 153      39.438  -7.234 -13.962  1.00 34.52 LIG 0.61  N 
BRANCH 51 53
ATOM     53  CB  VAL B 153      41.513  -6.621 -12.698  1.00 36.17 LIG 0.03  C 
ATOM     54  CG2 VAL B 153      41.257  -5.308 -13.412  1.00 38.03 LIG 0.01  C 
ATOM     55  CG1 VAL B 153      42.995  -6.960 -12.726  1.00 38.39 LIG 0.01  C 
ENDBRANCH 51 53
ENDBRANCH 49 51
ENDBRANCH 46 47
BRANCH 46 56
ATOM     56  CB  SER B 154      37.758  -9.948 -10.547  1.00 27.48 LIG 0.20  C 
BRANCH 56 57
ATOM     57 OG   SER B 154      38.001  -8.584 -10.249  1.00 30.72 LIG-0.40  OA
ATOM     58 HG   SER B 154      37.390  -8.112 -10.579  1.00 30.72 LIG 0.21  HD
ENDBRANCH 56 57
ENDBRANCH 46 56
ENDBRANCH 44 46
ENDBRANCH 37 39
ENDBRANCH 34 35
BRANCH 34 59
ATOM     59  CB  SER B 156      37.963 -15.781  -9.788  1.00 16.81 LIG 0.20  C 
BRANCH 59 60
ATOM     60 OG   SER B 156      38.703 -14.569  -9.821  1.00 16.65 LIG-0.40  OA
ATOM     61 HG   SER B 156      39.483 -14.724 -10.091  1.00 16.65 LIG 0.21  HD
ENDBRANCH 59 60
ENDBRANCH 34 59
ENDBRANCH 1 34
TORSDOF 24
ENDMDL
MODEL 9
USER: ADFR SOLUTION from run 44
USER: SCORE 17.825551 LL:  -4.373 LR: -14.331 RR:   0.000 FEB:  -7.171
USER: RMSD 12.643656
USER: SEED 43
USER: STATUS no improvement in best in 6 clusters for 5 generations
USER: GENES 26
USER: genes 0 Translation |==|  0.32621 0.60323 0.57054
USER: genes 1 Rotation |==|  0.71938 0.15649 0.76550 0.61570
USER: genes 2 Torsion [C]-N--CA-[C] |==|  0.60906
USER: genes 3 Torsion [N]-CA--C-[N] |==|  0.26759
USER: genes 4 Torsion [C]-N--CA-[C] |==|  0.76209
USER: genes 5 Torsion [N]-CA--C-[N] |==|  0.98439
USER: genes 6 Torsion [C]-N--CA-[CB] |==|  0.19693
USER: genes 7 Torsion [N]-CA--C-[O] |==|  0.98907
USER: genes 8 Torsion [N]-CA--CB-[CG] |==|  0.19042
USER: genes 9 Torsion [CA]-CB--CG-[CD2] |==|  0.87450
USER: genes 10 Torsion [CE2]-CZ--OH-[HH] |==|  0.09607
USER: genes 11 Torsion [N]-CA--CB-[OG] |==|  0.11034
USER: genes 12 Torsion [CA]-CB--OG-[HG] |==|  0.23570
USER: genes 13 Torsion [N]-CA--CB-[CG2] |==|  0.42761
USER: genes 14 Torsion [CA]-CB--OG1-[HG1] |==|  0.10376
USER: genes 15 Torsion [N]-C--CA-[N] |==|  0.44786
USER: genes 16 Torsion [C]-CA--N-[C] |==|  0.65644
USER: genes 17 Torsion [N]-C--CA-[CB] |==|  0.34621
USER: genes 18 Torsion [N]-C--CA-[N] |==|  0.29033
USER: genes 19 Torsion [C]-CA--N-[C] |==|  0.64272
USER: genes 20 Torsion [N]-C--CA-[N] |==|  0.84854
USER: genes 21 Torsion [C]-CA--CB-[CG2] |==|  0.41615
USER: genes 22 Torsion [C]-CA--CB-[OG] |==|  0.66362
USER: genes 23 Torsion [CA]-CB--OG-[HG] |==|  0.23323
USER: genes 24 Torsion [C]-CA--CB-[OG] |==|  0.61899
USER: genes 25 Torsion [CA]-CB--OG-[HG] |==|  0.91590
ROOT
ATOM      1  C   SER B 156      34.143 -13.970  -8.348  1.00 15.87 LIG 0.24  C 
ATOM      2 O    SER B 156      34.357 -12.845  -8.802  1.00 15.60 LIG-0.27  OA
ATOM      3  N   THR B 157      33.052 -14.280  -7.655  1.00 16.26 LIG-0.34  N 
ATOM      4 H    THR B 157      32.869 -15.069  -7.366  1.00 16.26 LIG 0.16  HD
ENDROOT
BRANCH 3 5
ATOM      5  CA  THR B 157      32.058 -13.272  -7.329  1.00 15.91 LIG 0.20  C 
BRANCH 5 6
ATOM      6  C   THR B 157      31.635 -13.623  -5.906  1.00 16.14 LIG 0.24  C 
ATOM      7 O    THR B 157      30.774 -14.487  -5.709  1.00 15.69 LIG-0.27  OA
ATOM      8  N   SER B 158      32.231 -12.965  -4.919  1.00 15.14 LIG-0.34  N 
ATOM      9 H    SER B 158      32.831 -12.360  -5.034  1.00 15.14 LIG 0.16  HD
BRANCH 8 10
ATOM     10  CA  SER B 158      31.894 -13.234  -3.526  1.00 18.36 LIG 0.20  C 
BRANCH 10 11
ATOM     11  C   SER B 158      30.684 -12.415  -3.087  1.00 20.96 LIG 0.24  C 
ATOM     12 O    SER B 158      30.182 -12.579  -1.973  1.00 20.92 LIG-0.27  OA
ATOM     13  N   TYR B 159      30.220 -11.534  -3.967  1.00 23.40 LIG-0.35  N 
ATOM     14 H    TYR B 159      30.560 -11.411  -4.748  1.00 23.40 LIG 0.16  HD
BRANCH 13 15
ATOM     15  CA  TYR B 159      29.070 -10.686  -3.668  1.00 28.83 LIG 0.17  C 
BRANCH 15 16
ATOM     16  C   TYR B 159      28.560  -9.995  -4.928  1.00 30.09 LIG 0.22  C 
ATOM     17 O    TYR B 159      29.215 -10.179  -5.977  1.00 33.46 LIG-0.29  OA
ENDBRANCH 15 16
BRANCH 15 18
ATOM     18  CB  TYR B 159      29.447  -9.631  -2.625  1.00 32.38 LIG 0.07  C 
BRANCH 18 19
ATOM     19  CG  TYR B 159      30.418  -8.591  -3.139  1.00 36.58 LIG-0.06  A 
ATOM     20  CD2 TYR B 159      31.539  -8.961  -3.881  1.00 38.67 LIG 0.01  A 
ATOM     21  CE2 TYR B 159      32.430  -8.004  -4.366  1.00 40.79 LIG 0.04  A 
ATOM     22  CZ  TYR B 159      32.201  -6.663  -4.104  1.00 41.05 LIG 0.07  A 
ATOM     23  CE1 TYR B 159      31.096  -6.270  -3.367  1.00 40.09 LIG 0.04  A 
ATOM     24  CD1 TYR B 159      30.210  -7.234  -2.891  1.00 38.09 LIG 0.01  A 
BRANCH 22 25
ATOM     25 OH   TYR B 159      33.078  -5.713  -4.579  1.00 43.66 LIG-0.36  OA
ATOM     26 HH   TYR B 159      33.378  -5.957  -5.325  1.00 43.66 LIG 0.22  HD
ENDBRANCH 22 25
ENDBRANCH 18 19
ENDBRANCH 15 18
ENDBRANCH 13 15
ENDBRANCH 10 11
BRANCH 10 27
ATOM     27  CB  SER B 158      33.085 -12.909  -2.623  1.00 15.79 LIG 0.20  C 
BRANCH 27 28
ATOM     28 OG   SER B 158      33.739 -11.729  -3.054  1.00 17.90 LIG-0.40  OA
ATOM     29 HG   SER B 158      33.352 -11.058  -2.727  1.00 17.90 LIG 0.21  HD
ENDBRANCH 27 28
ENDBRANCH 10 27
ENDBRANCH 8 10
ENDBRANCH 5 6
BRANCH 5 30
ATOM     30  CB  THR B 157      30.820 -13.356  -8.248  1.00 18.18 LIG 0.15  C 
ATOM     31  CG2 THR B 157      29.593 -12.796  -7.549  1.00 16.96 LIG 0.04  C 
BRANCH 30 32
ATOM     32 OG1  THR B 157      31.068 -12.620  -9.454  1.00 15.90 LIG-0.39  OA
ATOM     33 HG1  THR B 157      31.870 -12.722  -9.684  1.00 15.90 LIG 0.21  HD
ENDBRANCH 30 32
ENDBRANCH 5 30
ENDBRANCH 3 5
BRANCH 1 34
ATOM     34  CA  SER B 156      35.139 -15.095  -8.566  1.00 16.58 LIG 0.20  C 
BRANCH 34 35
ATOM     35  N   SER B 156      36.007 -14.728  -9.677  1.00 15.80 LIG-0.34  N 
ATOM     36 H    SER B 156      36.415 -13.979  -9.572  1.00 15.80 LIG 0.16  HD
ATOM     37  C   PRO B 155      36.145 -15.496 -10.754  1.00 18.36 LIG 0.24  C 
ATOM     38 O    PRO B 155      35.548 -16.563 -10.904  1.00 18.57 LIG-0.27  OA
BRANCH 37 39
ATOM     39  CA  PRO B 155      37.089 -14.975 -11.830  1.00 19.30 LIG 0.18  C 
ATOM     40  CB  PRO B 155      38.179 -15.983 -12.172  1.00 17.99 LIG 0.04  C 
ATOM     41  CG  PRO B 155      39.211 -15.695 -11.123  1.00 20.29 LIG 0.02  C 
ATOM     42  CD  PRO B 155      39.257 -14.173 -11.109  1.00 20.15 LIG 0.13  C 
ATOM     43  N   PRO B 155      37.854 -13.807 -11.379  1.00 20.34 LIG-0.34  N 
ATOM     44  C   SER B 154      37.319 -12.575 -11.320  1.00 23.17 LIG 0.24  C 
ATOM     45 O    SER B 154      36.152 -12.352 -11.640  1.00 21.43 LIG-0.27  OA
BRANCH 44 46
ATOM     46  CA  SER B 154      38.223 -11.446 -10.833  1.00 26.04 LIG 0.20  C 
BRANCH 46 47
ATOM     47  N   SER B 154      38.670 -10.599 -11.934  1.00 29.08 LIG-0.34  N 
ATOM     48 H    SER B 154      38.036 -10.312 -12.440  1.00 29.08 LIG 0.16  HD
ATOM     49  C   VAL B 153      39.955 -10.312 -12.119  1.00 31.74 LIG 0.26  C 
ATOM     50 O    VAL B 153      40.847 -10.737 -11.390  1.00 31.76 LIG-0.27  OA
BRANCH 49 51
ATOM     51  CA  VAL B 153      40.283  -9.414 -13.308  1.00 34.29 LIG 0.40  C 
ATOM     52  N   VAL B 153      39.717  -9.984 -14.562  1.00 34.52 LIG 0.61  N 
BRANCH 51 53
ATOM     53  CB  VAL B 153      39.716  -8.001 -13.030  1.00 36.17 LIG 0.03  C 
ATOM     54  CG2 VAL B 153      40.574  -6.952 -13.712  1.00 38.03 LIG 0.01  C 
ATOM     55  CG1 VAL B 153      39.658  -7.747 -11.532  1.00 38.39 LIG 0.01  C 
ENDBRANCH 51 53
ENDBRANCH 49 51
ENDBRANCH 46 47
BRANCH 46 56
ATOM     56  CB  SER B 154      37.474 -10.612  -9.791  1.00 27.48 LIG 0.20  C 
BRANCH 56 57
ATOM     57 OG   SER B 154      37.374  -9.258 -10.198  1.00 30.72 LIG-0.40  OA
ATOM     58 HG   SER B 154      36.716  -9.167 -10.711  1.00 30.72 LIG 0.21  HD
ENDBRANCH 56 57
ENDBRANCH 46 56
ENDBRANCH 44 46
ENDBRANCH 37 39
ENDBRANCH 34 35
BRANCH 34 59
ATOM     59  CB  SER B 156      35.957 -15.264  -7.285  1.00 16.81 LIG 0.20  C 
BRANCH 59 60
ATOM     60 OG   SER B 156      37.331 -15.449  -7.592  1.00 16.65 LIG-0.40  OA
ATOM     61 HG   SER B 156      37.403 -15.833  -8.336  1.00 16.65 LIG 0.21  HD
ENDBRANCH 59 60
ENDBRANCH 34 59
ENDBRANCH 1 34
TORSDOF 24
ENDMDL
MODEL 10
USER: ADFR SOLUTION from run 189
USER: SCORE 17.298016 LL:  -4.094 LR: -14.165 RR:   0.000 FEB:  -7.005
USER: RMSD 4.763277
USER: SEED 188
USER: STATUS no improvement in best in 10 clusters for 5 generations
USER: GENES 26
USER: genes 0 Translation |==|  0.42649 0.58841 0.48605
USER: genes 1 Rotation |==|  0.94142 0.58492 0.28301 0.52919
USER: genes 2 Torsion [C]-N--CA-[C] |==|  0.63907
USER: genes 3 Torsion [N]-CA--C-[N] |==|  0.01546
USER: genes 4 Torsion [C]-N--CA-[C] |==|  0.73886
USER: genes 5 Torsion [N]-CA--C-[N] |==|  0.78475
USER: genes 6 Torsion [C]-N--CA-[CB] |==|  0.32575
USER: genes 7 Torsion [N]-CA--C-[O] |==|  0.00193
USER: genes 8 Torsion [N]-CA--CB-[CG] |==|  0.78096
USER: genes 9 Torsion [CA]-CB--CG-[CD2] |==|  0.73326
USER: genes 10 Torsion [CE2]-CZ--OH-[HH] |==|  0.26251
USER: genes 11 Torsion [N]-CA--CB-[OG] |==|  0.08097
USER: genes 12 Torsion [CA]-CB--OG-[HG] |==|  0.27264
USER: genes 13 Torsion [N]-CA--CB-[CG2] |==|  0.89098
USER: genes 14 Torsion [CA]-CB--OG1-[HG1] |==|  0.75683
USER: genes 15 Torsion [N]-C--CA-[N] |==|  0.38023
USER: genes 16 Torsion [C]-CA--N-[C] |==|  0.81466
USER: genes 17 Torsion [N]-C--CA-[CB] |==|  0.91605
USER: genes 18 Torsion [N]-C--CA-[N] |==|  0.37446
USER: genes 19 Torsion [C]-CA--N-[C] |==|  0.79742
USER: genes 20 Torsion [N]-C--CA-[N] |==|  0.34113
USER: genes 21 Torsion [C]-CA--CB-[CG2] |==|  0.79251
USER: genes 22 Torsion [C]-CA--CB-[OG] |==|  0.56008
USER: genes 23 Torsion [CA]-CB--OG-[HG] |==|  0.32191
USER: genes 24 Torsion [C]-CA--CB-[OG] |==|  0.64303
USER: genes 25 Torsion [CA]-CB--OG-[HG] |==|  0.92837
ROOT
ATOM      1  C   SER B 156      36.926 -14.314 -10.122  1.00 15.87 LIG 0.24  C 
ATOM      2 O    SER B 156      37.124 -14.421  -8.910  1.00 15.60 LIG-0.27  OA
ATOM      3  N   THR B 157      37.875 -14.499 -11.034  1.00 16.26 LIG-0.34  N 
ATOM      4 H    THR B 157      37.744 -14.468 -11.883  1.00 16.26 LIG 0.16  HD
ENDROOT
BRANCH 3 5
ATOM      5  CA  THR B 157      39.247 -14.776 -10.644  1.00 15.91 LIG 0.20  C 
BRANCH 5 6
ATOM      6  C   THR B 157      40.066 -13.777 -11.455  1.00 16.14 LIG 0.24  C 
ATOM      7 O    THR B 157      41.300 -13.820 -11.430  1.00 15.69 LIG-0.27  OA
ATOM      8  N   SER B 158      39.393 -12.884 -12.170  1.00 15.14 LIG-0.34  N 
ATOM      9 H    SER B 158      38.536 -12.836 -12.201  1.00 15.14 LIG 0.16  HD
BRANCH 8 10
ATOM     10  CA  SER B 158      40.090 -11.891 -12.980  1.00 18.36 LIG 0.20  C 
BRANCH 10 11
ATOM     11  C   SER B 158      40.274 -10.588 -12.208  1.00 20.96 LIG 0.24  C 
ATOM     12 O    SER B 158      41.364 -10.299 -11.710  1.00 20.92 LIG-0.27  OA
ATOM     13  N   TYR B 159      39.204  -9.805 -12.113  1.00 23.40 LIG-0.35  N 
ATOM     14 H    TYR B 159      38.437  -9.995 -12.454  1.00 23.40 LIG 0.16  HD
BRANCH 13 15
ATOM     15  CA  TYR B 159      39.249  -8.529 -11.404  1.00 28.83 LIG 0.17  C 
BRANCH 15 16
ATOM     16  C   TYR B 159      38.233  -8.501 -10.268  1.00 30.09 LIG 0.22  C 
ATOM     17 O    TYR B 159      37.545  -9.531 -10.101  1.00 33.46 LIG-0.29  OA
ENDBRANCH 15 16
BRANCH 15 18
ATOM     18  CB  TYR B 159      38.966  -7.376 -12.370  1.00 32.38 LIG 0.07  C 
BRANCH 18 19
ATOM     19  CG  TYR B 159      40.156  -6.992 -13.222  1.00 36.58 LIG-0.06  A 
ATOM     20  CD2 TYR B 159      40.994  -5.941 -12.851  1.00 38.67 LIG 0.01  A 
ATOM     21  CE2 TYR B 159      42.098  -5.592 -13.627  1.00 40.79 LIG 0.04  A 
ATOM     22  CZ  TYR B 159      42.368  -6.299 -14.788  1.00 41.05 LIG 0.07  A 
ATOM     23  CE1 TYR B 159      41.549  -7.346 -15.179  1.00 40.09 LIG 0.04  A 
ATOM     24  CD1 TYR B 159      40.450  -7.688 -14.394  1.00 38.09 LIG 0.01  A 
BRANCH 22 25
ATOM     25 OH   TYR B 159      43.456  -5.958 -15.560  1.00 43.66 LIG-0.36  OA
ATOM     26 HH   TYR B 159      44.112  -6.438 -15.347  1.00 43.66 LIG 0.22  HD
ENDBRANCH 22 25
ENDBRANCH 18 19
ENDBRANCH 15 18
ENDBRANCH 13 15
ENDBRANCH 10 11
BRANCH 10 27
ATOM     27  CB  SER B 158      39.308 -11.616 -14.266  1.00 15.79 LIG 0.20  C 
BRANCH 27 28
ATOM     28 OG   SER B 158      37.920 -11.818 -14.068  1.00 17.90 LIG-0.40  OA
ATOM     29 HG   SER B 158      37.547 -11.078 -13.927  1.00 17.90 LIG 0.21  HD
ENDBRANCH 27 28
ENDBRANCH 10 27
ENDBRANCH 8 10
ENDBRANCH 5 6
BRANCH 5 30
ATOM     30  CB  THR B 157      39.685 -16.205 -11.032  1.00 18.18 LIG 0.15  C 
ATOM     31  CG2 THR B 157      38.555 -17.195 -10.804  1.00 16.96 LIG 0.04  C 
BRANCH 30 32
ATOM     32 OG1  THR B 157      40.076 -16.227 -12.412  1.00 15.90 LIG-0.39  OA
ATOM     33 HG1  THR B 157      39.401 -16.370 -12.892  1.00 15.90 LIG 0.21  HD
ENDBRANCH 30 32
ENDBRANCH 5 30
ENDBRANCH 3 5
BRANCH 1 34
ATOM     34  CA  SER B 156      35.547 -13.965 -10.653  1.00 16.58 LIG 0.20  C 
BRANCH 34 35
ATOM     35  N   SER B 156      34.561 -14.737  -9.908  1.00 15.80 LIG-0.34  N 
ATOM     36 H    SER B 156      34.045 -14.261  -9.412  1.00 15.80 LIG 0.16  HD
ATOM     37  C   PRO B 155      34.480 -16.061 -10.000  1.00 18.36 LIG 0.24  C 
ATOM     38 O    PRO B 155      35.230 -16.736 -10.705  1.00 18.57 LIG-0.27  OA
BRANCH 37 39
ATOM     39  CA  PRO B 155      33.396 -16.724  -9.159  1.00 19.30 LIG 0.18  C 
ATOM     40  CB  PRO B 155      33.106 -15.946  -7.882  1.00 17.99 LIG 0.04  C 
ATOM     41  CG  PRO B 155      34.155 -16.474  -6.951  1.00 20.29 LIG 0.02  C 
ATOM     42  CD  PRO B 155      34.111 -17.973  -7.213  1.00 20.15 LIG 0.13  C 
ATOM     43  N   PRO B 155      33.811 -18.038  -8.656  1.00 20.34 LIG-0.34  N 
ATOM     44  C   SER B 154      33.817 -19.137  -9.429  1.00 23.17 LIG 0.24  C 
ATOM     45 O    SER B 154      33.475 -19.108 -10.611  1.00 21.43 LIG-0.27  OA
BRANCH 44 46
ATOM     46  CA  SER B 154      34.271 -20.442  -8.782  1.00 26.04 LIG 0.20  C 
BRANCH 46 47
ATOM     47  N   SER B 154      33.383 -21.550  -9.121  1.00 29.08 LIG-0.34  N 
ATOM     48 H    SER B 154      33.716 -22.113  -9.679  1.00 29.08 LIG 0.16  HD
ATOM     49  C   VAL B 153      32.165 -21.655  -8.597  1.00 31.74 LIG 0.26  C 
ATOM     50 O    VAL B 153      31.703 -20.837  -7.806  1.00 31.76 LIG-0.27  OA
BRANCH 49 51
ATOM     51  CA  VAL B 153      31.343 -22.863  -9.035  1.00 34.29 LIG 0.40  C 
ATOM     52  N   VAL B 153      30.930 -23.668  -7.852  1.00 34.52 LIG 0.61  N 
BRANCH 51 53
ATOM     53  CB  VAL B 153      30.112 -22.361  -9.829  1.00 36.17 LIG 0.03  C 
ATOM     54  CG2 VAL B 153      29.087 -21.768  -8.882  1.00 38.03 LIG 0.01  C 
ATOM     55  CG1 VAL B 153      29.501 -23.505 -10.623  1.00 38.39 LIG 0.01  C 
ENDBRANCH 51 53
ENDBRANCH 49 51
ENDBRANCH 46 47
BRANCH 46 56
ATOM     56  CB  SER B 154      35.703 -20.754  -9.223  1.00 27.48 LIG 0.20  C 
BRANCH 56 57
ATOM     57 OG   SER B 154      35.991 -22.134  -9.075  1.00 30.72 LIG-0.40  OA
ATOM     58 HG   SER B 154      36.138 -22.472  -9.829  1.00 30.72 LIG 0.21  HD
ENDBRANCH 56 57
ENDBRANCH 46 56
ENDBRANCH 44 46
ENDBRANCH 37 39
ENDBRANCH 34 35
BRANCH 34 59
ATOM     59  CB  SER B 156      35.321 -12.467 -10.442  1.00 16.81 LIG 0.20  C 
BRANCH 59 60
ATOM     60 OG   SER B 156      34.086 -12.239  -9.779  1.00 16.65 LIG-0.40  OA
ATOM     61 HG   SER B 156      33.562 -12.878  -9.933  1.00 16.65 LIG 0.21  HD
ENDBRANCH 59 60
ENDBRANCH 34 59
ENDBRANCH 1 34
TORSDOF 24
ENDMDL
MODEL 11
USER: ADFR SOLUTION from run 47
USER: SCORE 17.360142 LL:  -3.897 LR: -14.103 RR:   0.000 FEB:  -6.943
USER: RMSD 11.579204
USER: SEED 46
USER: STATUS searching
USER: GENES 26
USER: genes 0 Translation |==|  0.35150 0.59633 0.55713
USER: genes 1 Rotation |==|  0.38290 0.97708 0.58017 0.54750
USER: genes 2 Torsion [C]-N--CA-[C] |==|  0.75536
USER: genes 3 Torsion [N]-CA--C-[N] |==|  0.25029
USER: genes 4 Torsion [C]-N--CA-[C] |==|  0.17153
USER: genes 5 Torsion [N]-CA--C-[N] |==|  0.08753
USER: genes 6 Torsion [C]-N--CA-[CB] |==|  0.80553
USER: genes 7 Torsion [N]-CA--C-[O] |==|  0.32627
USER: genes 8 Torsion [N]-CA--CB-[CG] |==|  0.63852
USER: genes 9 Torsion [CA]-CB--CG-[CD2] |==|  0.62253
USER: genes 10 Torsion [CE2]-CZ--OH-[HH] |==|  0.46319
USER: genes 11 Torsion [N]-CA--CB-[OG] |==|  0.26640
USER: genes 12 Torsion [CA]-CB--OG-[HG] |==|  0.89660
USER: genes 13 Torsion [N]-CA--CB-[CG2] |==|  0.56023
USER: genes 14 Torsion [CA]-CB--OG1-[HG1] |==|  0.15376
USER: genes 15 Torsion [N]-C--CA-[N] |==|  0.46051
USER: genes 16 Torsion [C]-CA--N-[C] |==|  0.77213
USER: genes 17 Torsion [N]-C--CA-[CB] |==|  0.76233
USER: genes 18 Torsion [N]-C--CA-[N] |==|  0.51111
USER: genes 19 Torsion [C]-CA--N-[C] |==|  0.75677
USER: genes 20 Torsion [N]-C--CA-[N] |==|  0.80973
USER: genes 21 Torsion [C]-CA--CB-[CG2] |==|  0.48391
USER: genes 22 Torsion [C]-CA--CB-[OG] |==|  0.64804
USER: genes 23 Torsion [CA]-CB--OG-[HG] |==|  0.17579
USER: genes 24 Torsion [C]-CA--CB-[OG] |==|  0.16717
USER: genes 25 Torsion [CA]-CB--OG-[HG] |==|  0.03404
ROOT
ATOM      1  C   SER B 156      34.845 -14.130  -8.629  1.00 15.87 LIG 0.24  C 
ATOM      2 O    SER B 156      35.454 -13.977  -7.569  1.00 15.60 LIG-0.27  OA
ATOM      3  N   THR B 157      33.520 -14.210  -8.703  1.00 16.26 LIG-0.34  N 
ATOM      4 H    THR B 157      33.079 -14.277  -9.438  1.00 16.26 LIG 0.16  HD
ENDROOT
BRANCH 3 5
ATOM      5  CA  THR B 157      32.699 -14.189  -7.505  1.00 15.91 LIG 0.20  C 
BRANCH 5 6
ATOM      6  C   THR B 157      32.619 -15.656  -7.092  1.00 16.14 LIG 0.24  C 
ATOM      7 O    THR B 157      31.712 -16.375  -7.524  1.00 15.69 LIG-0.27  OA
ATOM      8  N   SER B 158      33.556 -16.102  -6.265  1.00 15.14 LIG-0.34  N 
ATOM      9 H    SER B 158      34.195 -15.620  -5.952  1.00 15.14 LIG 0.16  HD
BRANCH 8 10
ATOM     10  CA  SER B 158      33.563 -17.491  -5.817  1.00 18.36 LIG 0.20  C 
BRANCH 10 11
ATOM     11  C   SER B 158      33.730 -18.445  -6.996  1.00 20.96 LIG 0.24  C 
ATOM     12 O    SER B 158      33.214 -19.564  -6.978  1.00 20.92 LIG-0.27  OA
ATOM     13  N   TYR B 159      34.450 -17.995  -8.018  1.00 23.40 LIG-0.35  N 
ATOM     14 H    TYR B 159      34.816 -17.217  -8.043  1.00 23.40 LIG 0.16  HD
BRANCH 13 15
ATOM     15  CA  TYR B 159      34.681 -18.809  -9.209  1.00 28.83 LIG 0.17  C 
BRANCH 15 16
ATOM     16  C   TYR B 159      33.368 -19.352  -9.761  1.00 30.09 LIG 0.22  C 
ATOM     17 O    TYR B 159      33.044 -18.985 -10.910  1.00 33.46 LIG-0.29  OA
ENDBRANCH 15 16
BRANCH 15 18
ATOM     18  CB  TYR B 159      35.617 -19.975  -8.879  1.00 32.38 LIG 0.07  C 
BRANCH 18 19
ATOM     19  CG  TYR B 159      36.773 -20.115  -9.845  1.00 36.58 LIG-0.06  A 
ATOM     20  CD2 TYR B 159      37.147 -21.365 -10.338  1.00 38.67 LIG 0.01  A 
ATOM     21  CE2 TYR B 159      38.205 -21.497 -11.237  1.00 40.79 LIG 0.04  A 
ATOM     22  CZ  TYR B 159      38.899 -20.370 -11.646  1.00 41.05 LIG 0.07  A 
ATOM     23  CE1 TYR B 159      38.548 -19.118 -11.168  1.00 40.09 LIG 0.04  A 
ATOM     24  CD1 TYR B 159      37.487 -18.997 -10.273  1.00 38.09 LIG 0.01  A 
BRANCH 22 25
ATOM     25 OH   TYR B 159      39.945 -20.494 -12.532  1.00 43.66 LIG-0.36  OA
ATOM     26 HH   TYR B 159      40.153 -19.736 -12.829  1.00 43.66 LIG 0.22  HD
ENDBRANCH 22 25
ENDBRANCH 18 19
ENDBRANCH 15 18
ENDBRANCH 13 15
ENDBRANCH 10 11
BRANCH 10 27
ATOM     27  CB  SER B 158      32.263 -17.814  -5.078  1.00 15.79 LIG 0.20  C 
BRANCH 27 28
ATOM     28 OG   SER B 158      31.322 -18.417  -5.949  1.00 17.90 LIG-0.40  OA
ATOM     29 HG   SER B 158      31.378 -18.065  -6.709  1.00 17.90 LIG 0.21  HD
ENDBRANCH 27 28
ENDBRANCH 10 27
ENDBRANCH 8 10
ENDBRANCH 5 6
BRANCH 5 30
ATOM     30  CB  THR B 157      31.271 -13.676  -7.787  1.00 18.18 LIG 0.15  C 
ATOM     31  CG2 THR B 157      30.622 -13.164  -6.512  1.00 16.96 LIG 0.04  C 
BRANCH 30 32
ATOM     32 OG1  THR B 157      31.324 -12.623  -8.759  1.00 15.90 LIG-0.39  OA
ATOM     33 HG1  THR B 157      31.719 -12.898  -9.448  1.00 15.90 LIG 0.21  HD
ENDBRANCH 30 32
ENDBRANCH 5 30
ENDBRANCH 3 5
BRANCH 1 34
ATOM     34  CA  SER B 156      35.596 -14.231  -9.945  1.00 16.58 LIG 0.20  C 
BRANCH 34 35
ATOM     35  N   SER B 156      36.967 -13.790  -9.725  1.00 15.80 LIG-0.34  N 
ATOM     36 H    SER B 156      37.527 -14.432  -9.602  1.00 15.80 LIG 0.16  HD
ATOM     37  C   PRO B 155      37.306 -12.505  -9.716  1.00 18.36 LIG 0.24  C 
ATOM     38 O    PRO B 155      36.497 -11.591  -9.880  1.00 18.57 LIG-0.27  OA
BRANCH 37 39
ATOM     39  CA  PRO B 155      38.779 -12.204  -9.472  1.00 19.30 LIG 0.18  C 
ATOM     40  CB  PRO B 155      39.115 -12.144  -7.987  1.00 17.99 LIG 0.04  C 
ATOM     41  CG  PRO B 155      38.766 -10.727  -7.647  1.00 20.29 LIG 0.02  C 
ATOM     42  CD  PRO B 155      39.357  -9.947  -8.814  1.00 20.15 LIG 0.13  C 
ATOM     43  N   PRO B 155      39.160 -10.869  -9.948  1.00 20.34 LIG-0.34  N 
ATOM     44  C   SER B 154      39.368 -10.600 -11.248  1.00 23.17 LIG 0.24  C 
ATOM     45 O    SER B 154      39.252 -11.459 -12.121  1.00 21.43 LIG-0.27  OA
BRANCH 44 46
ATOM     46  CA  SER B 154      39.759  -9.169 -11.609  1.00 26.04 LIG 0.20  C 
BRANCH 46 47
ATOM     47  N   SER B 154      39.864  -8.987 -13.053  1.00 29.08 LIG-0.34  N 
ATOM     48 H    SER B 154      39.141  -8.712 -13.429  1.00 29.08 LIG 0.16  HD
ATOM     49  C   VAL B 153      40.994  -9.233 -13.709  1.00 31.74 LIG 0.26  C 
ATOM     50 O    VAL B 153      42.016  -9.632 -13.155  1.00 31.76 LIG-0.27  OA
BRANCH 49 51
ATOM     51  CA  VAL B 153      40.966  -8.999 -15.216  1.00 34.29 LIG 0.40  C 
ATOM     52  N   VAL B 153      40.092 -10.004 -15.883  1.00 34.52 LIG 0.61  N 
BRANCH 51 53
ATOM     53  CB  VAL B 153      40.467  -7.558 -15.482  1.00 36.17 LIG 0.03  C 
ATOM     54  CG2 VAL B 153      40.560  -7.239 -16.962  1.00 38.03 LIG 0.01  C 
ATOM     55  CG1 VAL B 153      41.284  -6.564 -14.672  1.00 38.39 LIG 0.01  C 
ENDBRANCH 51 53
ENDBRANCH 49 51
ENDBRANCH 46 47
BRANCH 46 56
ATOM     56  CB  SER B 154      38.728  -8.200 -11.024  1.00 27.48 LIG 0.20  C 
BRANCH 56 57
ATOM     57 OG   SER B 154      38.216  -7.338 -12.025  1.00 30.72 LIG-0.40  OA
ATOM     58 HG   SER B 154      37.807  -7.790 -12.602  1.00 30.72 LIG 0.21  HD
ENDBRANCH 56 57
ENDBRANCH 46 56
ENDBRANCH 44 46
ENDBRANCH 37 39
ENDBRANCH 34 35
BRANCH 34 59
ATOM     59  CB  SER B 156      35.573 -15.692 -10.397  1.00 16.81 LIG 0.20  C 
BRANCH 59 60
ATOM     60 OG   SER B 156      34.236 -16.136 -10.579  1.00 16.65 LIG-0.40  OA
ATOM     61 HG   SER B 156      33.717 -15.476 -10.569  1.00 16.65 LIG 0.21  HD
ENDBRANCH 59 60
ENDBRANCH 34 59
ENDBRANCH 1 34
TORSDOF 24
ENDMDL
MODEL 12
USER: ADFR SOLUTION from run 154
USER: SCORE 17.833869 LL:  -4.324 LR: -14.084 RR:   0.000 FEB:  -6.925
USER: RMSD 10.923339
USER: SEED 153
USER: STATUS no improvement in best in 2 clusters for 5 generations
USER: GENES 26
USER: genes 0 Translation |==|  0.28086 0.47891 0.61353
USER: genes 1 Rotation |==|  0.10442 0.69343 0.66901 0.66596
USER: genes 2 Torsion [C]-N--CA-[C] |==|  0.79262
USER: genes 3 Torsion [N]-CA--C-[N] |==|  0.42145
USER: genes 4 Torsion [C]-N--CA-[C] |==|  0.81596
USER: genes 5 Torsion [N]-CA--C-[N] |==|  0.92644
USER: genes 6 Torsion [C]-N--CA-[CB] |==|  0.82178
USER: genes 7 Torsion [N]-CA--C-[O] |==|  0.66222
USER: genes 8 Torsion [N]-CA--CB-[CG] |==|  0.57126
USER: genes 9 Torsion [CA]-CB--CG-[CD2] |==|  0.62173
USER: genes 10 Torsion [CE2]-CZ--OH-[HH] |==|  0.72960
USER: genes 11 Torsion [N]-CA--CB-[OG] |==|  0.98220
USER: genes 12 Torsion [CA]-CB--OG-[HG] |==|  0.53309
USER: genes 13 Torsion [N]-CA--CB-[CG2] |==|  0.72767
USER: genes 14 Torsion [CA]-CB--OG1-[HG1] |==|  0.37043
USER: genes 15 Torsion [N]-C--CA-[N] |==|  0.96672
USER: genes 16 Torsion [C]-CA--N-[C] |==|  0.71341
USER: genes 17 Torsion [N]-C--CA-[CB] |==|  0.73338
USER: genes 18 Torsion [N]-C--CA-[N] |==|  0.25070
USER: genes 19 Torsion [C]-CA--N-[C] |==|  0.69559
USER: genes 20 Torsion [N]-C--CA-[N] |==|  0.24900
USER: genes 21 Torsion [C]-CA--CB-[CG2] |==|  0.54059
USER: genes 22 Torsion [C]-CA--CB-[OG] |==|  0.58789
USER: genes 23 Torsion [CA]-CB--OG-[HG] |==|  0.39616
USER: genes 24 Torsion [C]-CA--CB-[OG] |==|  0.57758
USER: genes 25 Torsion [CA]-CB--OG-[HG] |==|  0.06082
ROOT
ATOM      1  C   SER B 156      32.885 -16.860  -7.445  1.00 15.87 LIG 0.24  C 
ATOM      2 O    SER B 156      32.621 -17.262  -6.310  1.00 15.60 LIG-0.27  OA
ATOM      3  N   THR B 157      33.026 -17.670  -8.490  1.00 16.26 LIG-0.34  N 
ATOM      4 H    THR B 157      33.171 -17.401  -9.294  1.00 16.26 LIG 0.16  HD
ENDROOT
BRANCH 3 5
ATOM      5  CA  THR B 157      32.943 -19.112  -8.339  1.00 15.91 LIG 0.20  C 
BRANCH 5 6
ATOM      6  C   THR B 157      34.267 -19.487  -7.681  1.00 16.14 LIG 0.24  C 
ATOM      7 O    THR B 157      35.273 -18.796  -7.870  1.00 15.69 LIG-0.27  OA
ATOM      8  N   SER B 158      34.275 -20.571  -6.915  1.00 15.14 LIG-0.34  N 
ATOM      9 H    SER B 158      33.588 -21.067  -6.770  1.00 15.14 LIG 0.16  HD
BRANCH 8 10
ATOM     10  CA  SER B 158      35.494 -21.007  -6.242  1.00 18.36 LIG 0.20  C 
BRANCH 10 11
ATOM     11  C   SER B 158      36.545 -21.457  -7.253  1.00 20.96 LIG 0.24  C 
ATOM     12 O    SER B 158      37.746 -21.399  -6.981  1.00 20.92 LIG-0.27  OA
ATOM     13  N   TYR B 159      36.087 -21.905  -8.417  1.00 23.40 LIG-0.35  N 
ATOM     14 H    TYR B 159      35.252 -21.949  -8.620  1.00 23.40 LIG 0.16  HD
BRANCH 13 15
ATOM     15  CA  TYR B 159      36.989 -22.370  -9.467  1.00 28.83 LIG 0.17  C 
BRANCH 15 16
ATOM     16  C   TYR B 159      37.881 -23.498  -8.961  1.00 30.09 LIG 0.22  C 
ATOM     17 O    TYR B 159      39.115 -23.312  -9.022  1.00 33.46 LIG-0.29  OA
ENDBRANCH 15 16
BRANCH 15 18
ATOM     18  CB  TYR B 159      37.862 -21.214  -9.964  1.00 32.38 LIG 0.07  C 
BRANCH 18 19
ATOM     19  CG  TYR B 159      38.354 -21.393 -11.383  1.00 36.58 LIG-0.06  A 
ATOM     20  CD2 TYR B 159      39.676 -21.110 -11.724  1.00 38.67 LIG 0.01  A 
ATOM     21  CE2 TYR B 159      40.137 -21.285 -13.028  1.00 40.79 LIG 0.04  A 
ATOM     22  CZ  TYR B 159      39.268 -21.745 -14.005  1.00 41.05 LIG 0.07  A 
ATOM     23  CE1 TYR B 159      37.949 -22.031 -13.691  1.00 40.09 LIG 0.04  A 
ATOM     24  CD1 TYR B 159      37.500 -21.856 -12.384  1.00 38.09 LIG 0.01  A 
BRANCH 22 25
ATOM     25 OH   TYR B 159      39.716 -21.918 -15.295  1.00 43.66 LIG-0.36  OA
ATOM     26 HH   TYR B 159      39.514 -21.245 -15.755  1.00 43.66 LIG 0.22  HD
ENDBRANCH 22 25
ENDBRANCH 18 19
ENDBRANCH 15 18
ENDBRANCH 13 15
ENDBRANCH 10 11
BRANCH 10 27
ATOM     27  CB  SER B 158      35.185 -22.156  -5.281  1.00 15.79 LIG 0.20  C 
BRANCH 27 28
ATOM     28 OG   SER B 158      33.789 -22.383  -5.197  1.00 17.90 LIG-0.40  OA
ATOM     29 HG   SER B 158      33.627 -22.898  -4.553  1.00 17.90 LIG 0.21  HD
ENDBRANCH 27 28
ENDBRANCH 10 27
ENDBRANCH 8 10
ENDBRANCH 5 6
BRANCH 5 30
ATOM     30  CB  THR B 157      32.844 -19.835  -9.699  1.00 18.18 LIG 0.15  C 
ATOM     31  CG2 THR B 157      31.399 -20.175 -10.024  1.00 16.96 LIG 0.04  C 
BRANCH 30 32
ATOM     32 OG1  THR B 157      33.386 -18.996 -10.728  1.00 15.90 LIG-0.39  OA
ATOM     33 HG1  THR B 157      33.902 -19.446 -11.214  1.00 15.90 LIG 0.21  HD
ENDBRANCH 30 32
ENDBRANCH 5 30
ENDBRANCH 3 5
BRANCH 1 34
ATOM     34  CA  SER B 156      33.060 -15.377  -7.719  1.00 16.58 LIG 0.20  C 
BRANCH 34 35
ATOM     35  N   SER B 156      33.631 -15.223  -9.051  1.00 15.80 LIG-0.34  N 
ATOM     36 H    SER B 156      33.068 -15.336  -9.690  1.00 15.80 LIG 0.16  HD
ATOM     37  C   PRO B 155      34.915 -14.934  -9.244  1.00 18.36 LIG 0.24  C 
ATOM     38 O    PRO B 155      35.720 -14.785  -8.323  1.00 18.57 LIG-0.27  OA
BRANCH 37 39
ATOM     39  CA  PRO B 155      35.360 -14.805 -10.694  1.00 19.30 LIG 0.18  C 
ATOM     40  CB  PRO B 155      35.970 -16.097 -11.224  1.00 17.99 LIG 0.04  C 
ATOM     41  CG  PRO B 155      37.394 -15.977 -10.773  1.00 20.29 LIG 0.02  C 
ATOM     42  CD  PRO B 155      37.730 -14.530 -11.107  1.00 20.15 LIG 0.13  C 
ATOM     43  N   PRO B 155      36.452 -13.838 -10.856  1.00 20.34 LIG-0.34  N 
ATOM     44  C   SER B 154      36.245 -12.510 -10.851  1.00 23.17 LIG 0.24  C 
ATOM     45 O    SER B 154      35.123 -12.023 -10.710  1.00 21.43 LIG-0.27  OA
BRANCH 44 46
ATOM     46  CA  SER B 154      37.467 -11.613 -11.029  1.00 26.04 LIG 0.20  C 
BRANCH 46 47
ATOM     47  N   SER B 154      37.717 -11.314 -12.435  1.00 29.08 LIG-0.34  N 
ATOM     48 H    SER B 154      37.138 -10.789 -12.795  1.00 29.08 LIG 0.16  HD
ATOM     49  C   VAL B 153      38.759 -11.824 -13.084  1.00 31.74 LIG 0.26  C 
ATOM     50 O    VAL B 153      39.574 -12.578 -12.556  1.00 31.76 LIG-0.27  OA
BRANCH 49 51
ATOM     51  CA  VAL B 153      38.903 -11.428 -14.550  1.00 34.29 LIG 0.40  C 
ATOM     52  N   VAL B 153      39.716 -10.186 -14.676  1.00 34.52 LIG 0.61  N 
BRANCH 51 53
ATOM     53  CB  VAL B 153      39.555 -12.603 -15.318  1.00 36.17 LIG 0.03  C 
ATOM     54  CG2 VAL B 153      40.042 -12.134 -16.675  1.00 38.03 LIG 0.01  C 
ATOM     55  CG1 VAL B 153      38.557 -13.740 -15.476  1.00 38.39 LIG 0.01  C 
ENDBRANCH 51 53
ENDBRANCH 49 51
ENDBRANCH 46 47
BRANCH 46 56
ATOM     56  CB  SER B 154      37.263 -10.319 -10.238  1.00 27.48 LIG 0.20  C 
BRANCH 56 57
ATOM     57 OG   SER B 154      37.908  -9.228 -10.873  1.00 30.72 LIG-0.40  OA
ATOM     58 HG   SER B 154      37.436  -8.538 -10.792  1.00 30.72 LIG 0.21  HD
ENDBRANCH 56 57
ENDBRANCH 46 56
ENDBRANCH 44 46
ENDBRANCH 37 39
ENDBRANCH 34 35
BRANCH 34 59
ATOM     59  CB  SER B 156      31.685 -14.713  -7.650  1.00 16.81 LIG 0.20  C 
BRANCH 59 60
ATOM     60 OG   SER B 156      31.646 -13.560  -8.477  1.00 16.65 LIG-0.40  OA
ATOM     61 HG   SER B 156      32.246 -13.615  -9.063  1.00 16.65 LIG 0.21  HD
ENDBRANCH 59 60
ENDBRANCH 34 59
ENDBRANCH 1 34
TORSDOF 24
ENDMDL
MODEL 13
USER: ADFR SOLUTION from run 47
USER: SCORE 17.216224 LL:  -3.900 LR: -14.060 RR:   0.000 FEB:  -6.901
USER: RMSD 13.017381
USER: SEED 46
USER: STATUS searching
USER: GENES 26
USER: genes 0 Translation |==|  0.34016 0.59355 0.56804
USER: genes 1 Rotation |==|  0.36291 0.97846 0.52942 0.53761
USER: genes 2 Torsion [C]-N--CA-[C] |==|  0.75206
USER: genes 3 Torsion [N]-CA--C-[N] |==|  0.18165
USER: genes 4 Torsion [C]-N--CA-[C] |==|  0.15128
USER: genes 5 Torsion [N]-CA--C-[N] |==|  0.12082
USER: genes 6 Torsion [C]-N--CA-[CB] |==|  0.17356
USER: genes 7 Torsion [N]-CA--C-[O] |==|  0.65729
USER: genes 8 Torsion [N]-CA--CB-[CG] |==|  0.57336
USER: genes 9 Torsion [CA]-CB--CG-[CD2] |==|  0.53046
USER: genes 10 Torsion [CE2]-CZ--OH-[HH] |==|  0.51365
USER: genes 11 Torsion [N]-CA--CB-[OG] |==|  0.24906
USER: genes 12 Torsion [CA]-CB--OG-[HG] |==|  0.88765
USER: genes 13 Torsion [N]-CA--CB-[CG2] |==|  0.57584
USER: genes 14 Torsion [CA]-CB--OG1-[HG1] |==|  0.00189
USER: genes 15 Torsion [N]-C--CA-[N] |==|  0.47759
USER: genes 16 Torsion [C]-CA--N-[C] |==|  0.77987
USER: genes 17 Torsion [N]-C--CA-[CB] |==|  0.78687
USER: genes 18 Torsion [N]-C--CA-[N] |==|  0.49855
USER: genes 19 Torsion [C]-CA--N-[C] |==|  0.70522
USER: genes 20 Torsion [N]-C--CA-[N] |==|  0.86317
USER: genes 21 Torsion [C]-CA--CB-[CG2] |==|  0.42848
USER: genes 22 Torsion [C]-CA--CB-[OG] |==|  0.60226
USER: genes 23 Torsion [CA]-CB--OG-[HG] |==|  0.45560
USER: genes 24 Torsion [C]-CA--CB-[OG] |==|  0.20827
USER: genes 25 Torsion [CA]-CB--OG-[HG] |==|  0.03352
ROOT
ATOM      1  C   SER B 156      34.531 -14.195  -8.400  1.00 15.87 LIG 0.24  C 
ATOM      2 O    SER B 156      35.099 -13.784  -7.387  1.00 15.60 LIG-0.27  OA
ATOM      3  N   THR B 157      33.215 -14.373  -8.476  1.00 16.26 LIG-0.34  N 
ATOM      4 H    THR B 157      32.800 -14.621  -9.187  1.00 16.26 LIG 0.16  HD
ENDROOT
BRANCH 3 5
ATOM      5  CA  THR B 157      32.361 -14.154  -7.322  1.00 15.91 LIG 0.20  C 
BRANCH 5 6
ATOM      6  C   THR B 157      32.331 -15.512  -6.627  1.00 16.14 LIG 0.24  C 
ATOM      7 O    THR B 157      31.277 -16.152  -6.557  1.00 15.69 LIG-0.27  OA
ATOM      8  N   SER B 158      33.474 -15.954  -6.117  1.00 15.14 LIG-0.34  N 
ATOM      9 H    SER B 158      34.218 -15.526  -6.153  1.00 15.14 LIG 0.16  HD
BRANCH 8 10
ATOM     10  CA  SER B 158      33.544 -17.243  -5.436  1.00 18.36 LIG 0.20  C 
BRANCH 10 11
ATOM     11  C   SER B 158      33.012 -18.362  -6.327  1.00 20.96 LIG 0.24  C 
ATOM     12 O    SER B 158      32.265 -19.229  -5.871  1.00 20.92 LIG-0.27  OA
ATOM     13  N   TYR B 159      33.401 -18.336  -7.598  1.00 23.40 LIG-0.35  N 
ATOM     14 H    TYR B 159      33.923 -17.737  -7.929  1.00 23.40 LIG 0.16  HD
BRANCH 13 15
ATOM     15  CA  TYR B 159      32.959 -19.347  -8.555  1.00 28.83 LIG 0.17  C 
BRANCH 15 16
ATOM     16  C   TYR B 159      33.622 -19.140  -9.911  1.00 30.09 LIG 0.22  C 
ATOM     17 O    TYR B 159      32.864 -18.997 -10.894  1.00 33.46 LIG-0.29  OA
ENDBRANCH 15 16
BRANCH 15 18
ATOM     18  CB  TYR B 159      31.437 -19.292  -8.718  1.00 32.38 LIG 0.07  C 
BRANCH 18 19
ATOM     19  CG  TYR B 159      30.825 -20.609  -9.141  1.00 36.58 LIG-0.06  A 
ATOM     20  CD2 TYR B 159      29.495 -20.682  -9.553  1.00 38.67 LIG 0.01  A 
ATOM     21  CE2 TYR B 159      28.930 -21.891  -9.955  1.00 40.79 LIG 0.04  A 
ATOM     22  CZ  TYR B 159      29.701 -23.043  -9.943  1.00 41.05 LIG 0.07  A 
ATOM     23  CE1 TYR B 159      31.025 -22.997  -9.537  1.00 40.09 LIG 0.04  A 
ATOM     24  CD1 TYR B 159      31.580 -21.782  -9.140  1.00 38.09 LIG 0.01  A 
BRANCH 22 25
ATOM     25 OH   TYR B 159      29.150 -24.241 -10.338  1.00 43.66 LIG-0.36  OA
ATOM     26 HH   TYR B 159      29.706 -24.859 -10.217  1.00 43.66 LIG 0.22  HD
ENDBRANCH 22 25
ENDBRANCH 18 19
ENDBRANCH 15 18
ENDBRANCH 13 15
ENDBRANCH 10 11
BRANCH 10 27
ATOM     27  CB  SER B 158      32.739 -17.198  -4.137  1.00 15.79 LIG 0.20  C 
BRANCH 27 28
ATOM     28 OG   SER B 158      31.393 -17.580  -4.362  1.00 17.90 LIG-0.40  OA
ATOM     29 HG   SER B 158      31.124 -17.247  -5.085  1.00 17.90 LIG 0.21  HD
ENDBRANCH 27 28
ENDBRANCH 10 27
ENDBRANCH 8 10
ENDBRANCH 5 6
BRANCH 5 30
ATOM     30  CB  THR B 157      30.920 -13.775  -7.728  1.00 18.18 LIG 0.15  C 
ATOM     31  CG2 THR B 157      30.261 -12.934  -6.648  1.00 16.96 LIG 0.04  C 
BRANCH 30 32
ATOM     32 OG1  THR B 157      30.947 -13.045  -8.962  1.00 15.90 LIG-0.39  OA
ATOM     33 HG1  THR B 157      31.741 -12.974  -9.228  1.00 15.90 LIG 0.21  HD
ENDBRANCH 30 32
ENDBRANCH 5 30
ENDBRANCH 3 5
BRANCH 1 34
ATOM     34  CA  SER B 156      35.323 -14.521  -9.654  1.00 16.58 LIG 0.20  C 
BRANCH 34 35
ATOM     35  N   SER B 156      36.699 -14.087  -9.451  1.00 15.80 LIG-0.34  N 
ATOM     36 H    SER B 156      37.241 -14.722  -9.245  1.00 15.80 LIG 0.16  HD
ATOM     37  C   PRO B 155      37.068 -12.816  -9.576  1.00 18.36 LIG 0.24  C 
ATOM     38 O    PRO B 155      36.283 -11.910  -9.861  1.00 18.57 LIG-0.27  OA
BRANCH 37 39
ATOM     39  CA  PRO B 155      38.542 -12.520  -9.332  1.00 19.30 LIG 0.18  C 
ATOM     40  CB  PRO B 155      38.888 -12.515  -7.849  1.00 17.99 LIG 0.04  C 
ATOM     41  CG  PRO B 155      38.539 -11.113  -7.453  1.00 20.29 LIG 0.02  C 
ATOM     42  CD  PRO B 155      39.119 -10.288  -8.594  1.00 20.15 LIG 0.13  C 
ATOM     43  N   PRO B 155      38.915 -11.168  -9.760  1.00 20.34 LIG-0.34  N 
ATOM     44  C   SER B 154      39.114 -10.849 -11.051  1.00 23.17 LIG 0.24  C 
ATOM     45 O    SER B 154      38.994 -11.675 -11.955  1.00 21.43 LIG-0.27  OA
BRANCH 44 46
ATOM     46  CA  SER B 154      39.498  -9.405 -11.361  1.00 26.04 LIG 0.20  C 
BRANCH 46 47
ATOM     47  N   SER B 154      39.696  -9.195 -12.791  1.00 29.08 LIG-0.34  N 
ATOM     48 H    SER B 154      38.968  -9.175 -13.251  1.00 29.08 LIG 0.16  HD
ATOM     49  C   VAL B 153      40.908  -9.049 -13.316  1.00 31.74 LIG 0.26  C 
ATOM     50 O    VAL B 153      41.937  -9.085 -12.645  1.00 31.76 LIG-0.27  OA
BRANCH 49 51
ATOM     51  CA  VAL B 153      40.971  -8.833 -14.825  1.00 34.29 LIG 0.40  C 
ATOM     52  N   VAL B 153      40.146  -9.853 -15.531  1.00 34.52 LIG 0.61  N 
BRANCH 51 53
ATOM     53  CB  VAL B 153      40.479  -7.399 -15.140  1.00 36.17 LIG 0.03  C 
ATOM     54  CG2 VAL B 153      41.085  -6.914 -16.443  1.00 38.03 LIG 0.01  C 
ATOM     55  CG1 VAL B 153      40.846  -6.460 -14.001  1.00 38.39 LIG 0.01  C 
ENDBRANCH 51 53
ENDBRANCH 49 51
ENDBRANCH 46 47
BRANCH 46 56
ATOM     56  CB  SER B 154      38.411  -8.467 -10.830  1.00 27.48 LIG 0.20  C 
BRANCH 56 57
ATOM     57 OG   SER B 154      38.216  -7.368 -11.704  1.00 30.72 LIG-0.40  OA
ATOM     58 HG   SER B 154      37.488  -6.992 -11.523  1.00 30.72 LIG 0.21  HD
ENDBRANCH 56 57
ENDBRANCH 46 56
ENDBRANCH 44 46
ENDBRANCH 37 39
ENDBRANCH 34 35
BRANCH 34 59
ATOM     59  CB  SER B 156      35.269 -16.034  -9.872  1.00 16.81 LIG 0.20  C 
BRANCH 59 60
ATOM     60 OG   SER B 156      33.996 -16.421 -10.368  1.00 16.65 LIG-0.40  OA
ATOM     61 HG   SER B 156      33.567 -15.738 -10.604  1.00 16.65 LIG 0.21  HD
ENDBRANCH 59 60
ENDBRANCH 34 59
ENDBRANCH 1 34
TORSDOF 24
ENDMDL
MODEL 14
USER: ADFR SOLUTION from run 141
USER: SCORE 18.394594 LL:  -5.192 LR: -14.033 RR:   0.000 FEB:  -6.873
USER: RMSD 11.444529
USER: SEED 140
USER: STATUS no improvement in best in 7 clusters for 5 generations
USER: GENES 26
USER: genes 0 Translation |==|  0.31612 0.41561 0.49941
USER: genes 1 Rotation |==|  0.79202 0.55965 0.82703 0.73285
USER: genes 2 Torsion [C]-N--CA-[C] |==|  0.67240
USER: genes 3 Torsion [N]-CA--C-[N] |==|  0.53068
USER: genes 4 Torsion [C]-N--CA-[C] |==|  0.57183
USER: genes 5 Torsion [N]-CA--C-[N] |==|  0.39625
USER: genes 6 Torsion [C]-N--CA-[CB] |==|  0.35245
USER: genes 7 Torsion [N]-CA--C-[O] |==|  0.07954
USER: genes 8 Torsion [N]-CA--CB-[CG] |==|  0.93816
USER: genes 9 Torsion [CA]-CB--CG-[CD2] |==|  0.33768
USER: genes 10 Torsion [CE2]-CZ--OH-[HH] |==|  0.74692
USER: genes 11 Torsion [N]-CA--CB-[OG] |==|  0.66584
USER: genes 12 Torsion [CA]-CB--OG-[HG] |==|  0.11255
USER: genes 13 Torsion [N]-CA--CB-[CG2] |==|  0.18043
USER: genes 14 Torsion [CA]-CB--OG1-[HG1] |==|  0.64901
USER: genes 15 Torsion [N]-C--CA-[N] |==|  0.93037
USER: genes 16 Torsion [C]-CA--N-[C] |==|  0.78760
USER: genes 17 Torsion [N]-C--CA-[CB] |==|  0.88979
USER: genes 18 Torsion [N]-C--CA-[N] |==|  0.42745
USER: genes 19 Torsion [C]-CA--N-[C] |==|  0.79878
USER: genes 20 Torsion [N]-C--CA-[N] |==|  0.87659
USER: genes 21 Torsion [C]-CA--CB-[CG2] |==|  0.41958
USER: genes 22 Torsion [C]-CA--CB-[OG] |==|  0.20630
USER: genes 23 Torsion [CA]-CB--OG-[HG] |==|  0.72558
USER: genes 24 Torsion [C]-CA--CB-[OG] |==|  0.39856
USER: genes 25 Torsion [CA]-CB--OG-[HG] |==|  0.60851
ROOT
ATOM      1  C   SER B 156      33.863 -18.332  -9.841  1.00 15.87 LIG 0.24  C 
ATOM      2 O    SER B 156      32.949 -18.706 -10.578  1.00 15.60 LIG-0.27  OA
ATOM      3  N   THR B 157      33.659 -17.683  -8.700  1.00 16.26 LIG-0.34  N 
ATOM      4 H    THR B 157      34.284 -17.450  -8.156  1.00 16.26 LIG 0.16  HD
ENDROOT
BRANCH 3 5
ATOM      5  CA  THR B 157      32.320 -17.308  -8.278  1.00 15.91 LIG 0.20  C 
BRANCH 5 6
ATOM      6  C   THR B 157      32.367 -15.784  -8.225  1.00 16.14 LIG 0.24  C 
ATOM      7 O    THR B 157      33.329 -15.175  -8.704  1.00 15.69 LIG-0.27  OA
ATOM      8  N   SER B 158      31.341 -15.169  -7.651  1.00 15.14 LIG-0.34  N 
ATOM      9 H    SER B 158      30.663 -15.573  -7.311  1.00 15.14 LIG 0.16  HD
BRANCH 8 10
ATOM     10  CA  SER B 158      31.296 -13.713  -7.556  1.00 18.36 LIG 0.20  C 
BRANCH 10 11
ATOM     11  C   SER B 158      30.437 -13.269  -6.375  1.00 20.96 LIG 0.24  C 
ATOM     12 O    SER B 158      29.412 -13.883  -6.075  1.00 20.92 LIG-0.27  OA
ATOM     13  N   TYR B 159      30.863 -12.201  -5.709  1.00 23.40 LIG-0.35  N 
ATOM     14 H    TYR B 159      31.576 -11.762  -5.909  1.00 23.40 LIG 0.16  HD
BRANCH 13 15
ATOM     15  CA  TYR B 159      30.134 -11.677  -4.557  1.00 28.83 LIG 0.17  C 
BRANCH 15 16
ATOM     16  C   TYR B 159      29.518 -10.319  -4.874  1.00 30.09 LIG 0.22  C 
ATOM     17 O    TYR B 159      29.216 -10.102  -6.067  1.00 33.46 LIG-0.29  OA
ENDBRANCH 15 16
BRANCH 15 18
ATOM     18  CB  TYR B 159      31.072 -11.542  -3.354  1.00 32.38 LIG 0.07  C 
BRANCH 18 19
ATOM     19  CG  TYR B 159      32.296 -12.428  -3.437  1.00 36.58 LIG-0.06  A 
ATOM     20  CD2 TYR B 159      33.579 -11.883  -3.402  1.00 38.67 LIG 0.01  A 
ATOM     21  CE2 TYR B 159      34.709 -12.696  -3.467  1.00 40.79 LIG 0.04  A 
ATOM     22  CZ  TYR B 159      34.557 -14.070  -3.570  1.00 41.05 LIG 0.07  A 
ATOM     23  CE1 TYR B 159      33.293 -14.635  -3.608  1.00 40.09 LIG 0.04  A 
ATOM     24  CD1 TYR B 159      32.171 -13.812  -3.540  1.00 38.09 LIG 0.01  A 
BRANCH 22 25
ATOM     25 OH   TYR B 159      35.669 -14.879  -3.635  1.00 43.66 LIG-0.36  OA
ATOM     26 HH   TYR B 159      35.884 -14.996  -4.438  1.00 43.66 LIG 0.22  HD
ENDBRANCH 22 25
ENDBRANCH 18 19
ENDBRANCH 15 18
ENDBRANCH 13 15
ENDBRANCH 10 11
BRANCH 10 27
ATOM     27  CB  SER B 158      30.734 -13.118  -8.848  1.00 15.79 LIG 0.20  C 
BRANCH 27 28
ATOM     28 OG   SER B 158      31.671 -12.246  -9.454  1.00 17.90 LIG-0.40  OA
ATOM     29 HG   SER B 158      32.441 -12.577  -9.394  1.00 17.90 LIG 0.21  HD
ENDBRANCH 27 28
ENDBRANCH 10 27
ENDBRANCH 8 10
ENDBRANCH 5 6
BRANCH 5 30
ATOM     30  CB  THR B 157      31.984 -17.842  -6.869  1.00 18.18 LIG 0.15  C 
ATOM     31  CG2 THR B 157      32.878 -17.198  -5.823  1.00 16.96 LIG 0.04  C 
BRANCH 30 32
ATOM     32 OG1  THR B 157      30.609 -17.564  -6.568  1.00 15.90 LIG-0.39  OA
ATOM     33 HG1  THR B 157      30.560 -17.153  -5.837  1.00 15.90 LIG 0.21  HD
ENDBRANCH 30 32
ENDBRANCH 5 30
ENDBRANCH 3 5
BRANCH 1 34
ATOM     34  CA  SER B 156      35.312 -18.607 -10.205  1.00 16.58 LIG 0.20  C 
BRANCH 34 35
ATOM     35  N   SER B 156      36.145 -17.608  -9.548  1.00 15.80 LIG-0.34  N 
ATOM     36 H    SER B 156      36.562 -17.899  -8.855  1.00 15.80 LIG 0.16  HD
ATOM     37  C   PRO B 155      36.241 -16.359  -9.995  1.00 18.36 LIG 0.24  C 
ATOM     38 O    PRO B 155      35.632 -15.947 -10.983  1.00 18.57 LIG-0.27  OA
BRANCH 37 39
ATOM     39  CA  PRO B 155      37.153 -15.433  -9.200  1.00 19.30 LIG 0.18  C 
ATOM     40  CB  PRO B 155      37.030 -15.658  -7.698  1.00 17.99 LIG 0.04  C 
ATOM     41  CG  PRO B 155      35.851 -14.800  -7.351  1.00 20.29 LIG 0.02  C 
ATOM     42  CD  PRO B 155      36.128 -13.520  -8.128  1.00 20.15 LIG 0.13  C 
ATOM     43  N   PRO B 155      36.780 -14.023  -9.352  1.00 20.34 LIG-0.34  N 
ATOM     44  C   SER B 154      37.089 -13.309 -10.448  1.00 23.17 LIG 0.24  C 
ATOM     45 O    SER B 154      37.706 -13.797 -11.395  1.00 21.43 LIG-0.27  OA
BRANCH 44 46
ATOM     46  CA  SER B 154      36.642 -11.850 -10.480  1.00 26.04 LIG 0.20  C 
BRANCH 46 47
ATOM     47  N   SER B 154      37.498 -11.042 -11.342  1.00 29.08 LIG-0.34  N 
ATOM     48 H    SER B 154      37.131 -10.804 -12.083  1.00 29.08 LIG 0.16  HD
ATOM     49  C   VAL B 153      38.737 -10.715 -10.989  1.00 31.74 LIG 0.26  C 
ATOM     50 O    VAL B 153      39.247 -11.070  -9.929  1.00 31.76 LIG-0.27  OA
BRANCH 49 51
ATOM     51  CA  VAL B 153      39.521  -9.864 -11.983  1.00 34.29 LIG 0.40  C 
ATOM     52  N   VAL B 153      39.341 -10.383 -13.368  1.00 34.52 LIG 0.61  N 
BRANCH 51 53
ATOM     53  CB  VAL B 153      39.037  -8.398 -11.867  1.00 36.17 LIG 0.03  C 
ATOM     54  CG2 VAL B 153      40.160  -7.447 -12.236  1.00 38.03 LIG 0.01  C 
ATOM     55  CG1 VAL B 153      38.548  -8.120 -10.455  1.00 38.39 LIG 0.01  C 
ENDBRANCH 51 53
ENDBRANCH 49 51
ENDBRANCH 46 47
BRANCH 46 56
ATOM     56  CB  SER B 154      35.188 -11.777 -10.954  1.00 27.48 LIG 0.20  C 
BRANCH 56 57
ATOM     57 OG   SER B 154      34.299 -12.206  -9.936  1.00 30.72 LIG-0.40  OA
ATOM     58 HG   SER B 154      34.079 -13.005 -10.074  1.00 30.72 LIG 0.21  HD
ENDBRANCH 56 57
ENDBRANCH 46 56
ENDBRANCH 44 46
ENDBRANCH 37 39
ENDBRANCH 34 35
BRANCH 34 59
ATOM     59  CB  SER B 156      35.671 -20.008  -9.708  1.00 16.81 LIG 0.20  C 
BRANCH 59 60
ATOM     60 OG   SER B 156      36.547 -20.651 -10.622  1.00 16.65 LIG-0.40  OA
ATOM     61 HG   SER B 156      36.339 -21.463 -10.686  1.00 16.65 LIG 0.21  HD
ENDBRANCH 59 60
ENDBRANCH 34 59
ENDBRANCH 1 34
TORSDOF 24
ENDMDL
MODEL 15
USER: ADFR SOLUTION from run 67
USER: SCORE 17.474143 LL:  -4.489 LR: -13.946 RR:   0.000 FEB:  -6.787
USER: RMSD 12.830778
USER: SEED 66
USER: STATUS no improvement in best in 8 clusters for 5 generations
USER: GENES 26
USER: genes 0 Translation |==|  0.37264 0.53793 0.47767
USER: genes 1 Rotation |==|  0.21493 0.50302 0.16168 0.73295
USER: genes 2 Torsion [C]-N--CA-[C] |==|  0.78980
USER: genes 3 Torsion [N]-CA--C-[N] |==|  0.91112
USER: genes 4 Torsion [C]-N--CA-[C] |==|  0.62121
USER: genes 5 Torsion [N]-CA--C-[N] |==|  0.12032
USER: genes 6 Torsion [C]-N--CA-[CB] |==|  0.77043
USER: genes 7 Torsion [N]-CA--C-[O] |==|  0.17801
USER: genes 8 Torsion [N]-CA--CB-[CG] |==|  0.32842
USER: genes 9 Torsion [CA]-CB--CG-[CD2] |==|  0.26688
USER: genes 10 Torsion [CE2]-CZ--OH-[HH] |==|  0.60339
USER: genes 11 Torsion [N]-CA--CB-[OG] |==|  0.02749
USER: genes 12 Torsion [CA]-CB--OG-[HG] |==|  0.89584
USER: genes 13 Torsion [N]-CA--CB-[CG2] |==|  0.86802
USER: genes 14 Torsion [CA]-CB--OG1-[HG1] |==|  0.81882
USER: genes 15 Torsion [N]-C--CA-[N] |==|  0.37987
USER: genes 16 Torsion [C]-CA--N-[C] |==|  0.81213
USER: genes 17 Torsion [N]-C--CA-[CB] |==|  0.53720
USER: genes 18 Torsion [N]-C--CA-[N] |==|  0.23738
USER: genes 19 Torsion [C]-CA--N-[C] |==|  0.66436
USER: genes 20 Torsion [N]-C--CA-[N] |==|  0.40663
USER: genes 21 Torsion [C]-CA--CB-[CG2] |==|  0.96149
USER: genes 22 Torsion [C]-CA--CB-[OG] |==|  0.72458
USER: genes 23 Torsion [CA]-CB--OG-[HG] |==|  0.21695
USER: genes 24 Torsion [C]-CA--CB-[OG] |==|  0.73116
USER: genes 25 Torsion [CA]-CB--OG-[HG] |==|  0.35787
ROOT
ATOM      1  C   SER B 156      35.432 -15.488 -10.298  1.00 15.87 LIG 0.24  C 
ATOM      2 O    SER B 156      34.756 -15.455 -11.328  1.00 15.60 LIG-0.27  OA
ATOM      3  N   THR B 157      35.796 -16.619  -9.702  1.00 16.26 LIG-0.34  N 
ATOM      4 H    THR B 157      36.300 -16.660  -9.006  1.00 16.26 LIG 0.16  HD
ENDROOT
BRANCH 3 5
ATOM      5  CA  THR B 157      35.352 -17.908 -10.204  1.00 15.91 LIG 0.20  C 
BRANCH 5 6
ATOM      6  C   THR B 157      33.897 -17.993  -9.754  1.00 16.14 LIG 0.24  C 
ATOM      7 O    THR B 157      33.068 -18.599 -10.441  1.00 15.69 LIG-0.27  OA
ATOM      8  N   SER B 158      33.582 -17.395  -8.612  1.00 15.14 LIG-0.34  N 
ATOM      9 H    SER B 158      34.142 -16.968  -8.119  1.00 15.14 LIG 0.16  HD
BRANCH 8 10
ATOM     10  CA  SER B 158      32.216 -17.424  -8.099  1.00 18.36 LIG 0.20  C 
BRANCH 10 11
ATOM     11  C   SER B 158      31.798 -16.052  -7.579  1.00 20.96 LIG 0.24  C 
ATOM     12 O    SER B 158      31.186 -15.942  -6.515  1.00 20.92 LIG-0.27  OA
ATOM     13  N   TYR B 159      32.132 -15.011  -8.334  1.00 23.40 LIG-0.35  N 
ATOM     14 H    TYR B 159      32.558 -15.074  -9.079  1.00 23.40 LIG 0.16  HD
BRANCH 13 15
ATOM     15  CA  TYR B 159      31.793 -13.644  -7.946  1.00 28.83 LIG 0.17  C 
BRANCH 15 16
ATOM     16  C   TYR B 159      31.955 -13.449  -6.443  1.00 30.09 LIG 0.22  C 
ATOM     17 O    TYR B 159      33.110 -13.565  -5.979  1.00 33.46 LIG-0.29  OA
ENDBRANCH 15 16
BRANCH 15 18
ATOM     18  CB  TYR B 159      30.353 -13.321  -8.350  1.00 32.38 LIG 0.07  C 
BRANCH 18 19
ATOM     19  CG  TYR B 159      29.453 -12.995  -7.179  1.00 36.58 LIG-0.06  A 
ATOM     20  CD2 TYR B 159      29.215 -11.673  -6.803  1.00 38.67 LIG 0.01  A 
ATOM     21  CE2 TYR B 159      28.377 -11.368  -5.732  1.00 40.79 LIG 0.04  A 
ATOM     22  CZ  TYR B 159      27.771 -12.394  -5.025  1.00 41.05 LIG 0.07  A 
ATOM     23  CE1 TYR B 159      27.992 -13.715  -5.378  1.00 40.09 LIG 0.04  A 
ATOM     24  CD1 TYR B 159      28.829 -14.008  -6.452  1.00 38.09 LIG 0.01  A 
BRANCH 22 25
ATOM     25 OH   TYR B 159      26.942 -12.100  -3.966  1.00 43.66 LIG-0.36  OA
ATOM     26 HH   TYR B 159      27.048 -12.672  -3.359  1.00 43.66 LIG 0.22  HD
ENDBRANCH 22 25
ENDBRANCH 18 19
ENDBRANCH 15 18
ENDBRANCH 13 15
ENDBRANCH 10 11
BRANCH 10 27
ATOM     27  CB  SER B 158      32.097 -18.455  -6.975  1.00 15.79 LIG 0.20  C 
BRANCH 27 28
ATOM     28 OG   SER B 158      33.374 -18.931  -6.587  1.00 17.90 LIG-0.40  OA
ATOM     29 HG   SER B 158      33.864 -19.005  -7.265  1.00 17.90 LIG 0.21  HD
ENDBRANCH 27 28
ENDBRANCH 10 27
ENDBRANCH 8 10
ENDBRANCH 5 6
BRANCH 5 30
ATOM     30  CB  THR B 157      36.134 -19.080  -9.571  1.00 18.18 LIG 0.15  C 
ATOM     31  CG2 THR B 157      37.628 -18.808  -9.603  1.00 16.96 LIG 0.04  C 
BRANCH 30 32
ATOM     32 OG1  THR B 157      35.705 -19.264  -8.215  1.00 15.90 LIG-0.39  OA
ATOM     33 HG1  THR B 157      35.915 -18.589  -7.761  1.00 15.90 LIG 0.21  HD
ENDBRANCH 30 32
ENDBRANCH 5 30
ENDBRANCH 3 5
BRANCH 1 34
ATOM     34  CA  SER B 156      35.904 -14.204  -9.640  1.00 16.58 LIG 0.20  C 
BRANCH 34 35
ATOM     35  N   SER B 156      36.374 -13.302 -10.684  1.00 15.80 LIG-0.34  N 
ATOM     36 H    SER B 156      35.886 -12.602 -10.790  1.00 15.80 LIG 0.16  HD
ATOM     37  C   PRO B 155      37.466 -13.554 -11.400  1.00 18.36 LIG 0.24  C 
ATOM     38 O    PRO B 155      38.155 -14.564 -11.250  1.00 18.57 LIG-0.27  OA
BRANCH 37 39
ATOM     39  CA  PRO B 155      37.828 -12.515 -12.454  1.00 19.30 LIG 0.18  C 
ATOM     40  CB  PRO B 155      38.878 -13.030 -13.430  1.00 17.99 LIG 0.04  C 
ATOM     41  CG  PRO B 155      40.153 -12.737 -12.699  1.00 20.29 LIG 0.02  C 
ATOM     42  CD  PRO B 155      39.919 -11.329 -12.170  1.00 20.15 LIG 0.13  C 
ATOM     43  N   PRO B 155      38.475 -11.334 -11.870  1.00 20.34 LIG-0.34  N 
ATOM     44  C   SER B 154      37.783 -10.376 -11.231  1.00 23.17 LIG 0.24  C 
ATOM     45 O    SER B 154      36.561 -10.430 -11.095  1.00 21.43 LIG-0.27  OA
BRANCH 44 46
ATOM     46  CA  SER B 154      38.578  -9.200 -10.670  1.00 26.04 LIG 0.20  C 
BRANCH 46 47
ATOM     47  N   SER B 154      38.791  -8.164 -11.675  1.00 29.08 LIG-0.34  N 
ATOM     48 H    SER B 154      38.068  -7.833 -12.003  1.00 29.08 LIG 0.16  HD
ATOM     49  C   VAL B 153      40.012  -7.781 -12.038  1.00 31.74 LIG 0.26  C 
ATOM     50 O    VAL B 153      41.035  -8.269 -11.563  1.00 31.76 LIG-0.27  OA
BRANCH 49 51
ATOM     51  CA  VAL B 153      40.091  -6.687 -13.097  1.00 34.29 LIG 0.40  C 
ATOM     52  N   VAL B 153      41.275  -5.816 -12.858  1.00 34.52 LIG 0.61  N 
BRANCH 51 53
ATOM     53  CB  VAL B 153      40.160  -7.355 -14.492  1.00 36.17 LIG 0.03  C 
ATOM     54  CG2 VAL B 153      40.470  -8.833 -14.348  1.00 38.03 LIG 0.01  C 
ATOM     55  CG1 VAL B 153      41.218  -6.672 -15.346  1.00 38.39 LIG 0.01  C 
ENDBRANCH 51 53
ENDBRANCH 49 51
ENDBRANCH 46 47
BRANCH 46 56
ATOM     56  CB  SER B 154      37.840  -8.622  -9.459  1.00 27.48 LIG 0.20  C 
BRANCH 56 57
ATOM     57 OG   SER B 154      37.095  -7.472  -9.819  1.00 30.72 LIG-0.40  OA
ATOM     58 HG   SER B 154      36.387  -7.705 -10.204  1.00 30.72 LIG 0.21  HD
ENDBRANCH 56 57
ENDBRANCH 46 56
ENDBRANCH 44 46
ENDBRANCH 37 39
ENDBRANCH 34 35
BRANCH 34 59
ATOM     59  CB  SER B 156      34.720 -13.585  -8.896  1.00 16.81 LIG 0.20  C 
BRANCH 59 60
ATOM     60 OG   SER B 156      34.097 -12.588  -9.693  1.00 16.65 LIG-0.40  OA
ATOM     61 HG   SER B 156      33.271 -12.734  -9.730  1.00 16.65 LIG 0.21  HD
ENDBRANCH 59 60
ENDBRANCH 34 59
ENDBRANCH 1 34
TORSDOF 24
ENDMDL
MODEL 16
USER: ADFR SOLUTION from run 89
USER: SCORE 17.280515 LL:  -3.729 LR: -13.946 RR:   0.000 FEB:  -6.787
USER: RMSD 13.038467
USER: SEED 88
USER: STATUS searching
USER: GENES 26
USER: genes 0 Translation |==|  0.32030 0.57967 0.57910
USER: genes 1 Rotation |==|  0.46393 0.99460 0.52961 0.55652
USER: genes 2 Torsion [C]-N--CA-[C] |==|  0.80518
USER: genes 3 Torsion [N]-CA--C-[N] |==|  0.89474
USER: genes 4 Torsion [C]-N--CA-[C] |==|  0.18519
USER: genes 5 Torsion [N]-CA--C-[N] |==|  0.06332
USER: genes 6 Torsion [C]-N--CA-[CB] |==|  0.24838
USER: genes 7 Torsion [N]-CA--C-[O] |==|  0.20077
USER: genes 8 Torsion [N]-CA--CB-[CG] |==|  0.17090
USER: genes 9 Torsion [CA]-CB--CG-[CD2] |==|  0.68065
USER: genes 10 Torsion [CE2]-CZ--OH-[HH] |==|  0.80721
USER: genes 11 Torsion [N]-CA--CB-[OG] |==|  0.83854
USER: genes 12 Torsion [CA]-CB--OG-[HG] |==|  0.28843
USER: genes 13 Torsion [N]-CA--CB-[CG2] |==|  0.95293
USER: genes 14 Torsion [CA]-CB--OG1-[HG1] |==|  0.47879
USER: genes 15 Torsion [N]-C--CA-[N] |==|  0.36400
USER: genes 16 Torsion [C]-CA--N-[C] |==|  0.77542
USER: genes 17 Torsion [N]-C--CA-[CB] |==|  0.68015
USER: genes 18 Torsion [N]-C--CA-[N] |==|  0.09906
USER: genes 19 Torsion [C]-CA--N-[C] |==|  0.17778
USER: genes 20 Torsion [N]-C--CA-[N] |==|  0.89033
USER: genes 21 Torsion [C]-CA--CB-[CG2] |==|  0.67209
USER: genes 22 Torsion [C]-CA--CB-[OG] |==|  0.26902
USER: genes 23 Torsion [CA]-CB--OG-[HG] |==|  0.34174
USER: genes 24 Torsion [C]-CA--CB-[OG] |==|  0.42240
USER: genes 25 Torsion [CA]-CB--OG-[HG] |==|  0.86391
ROOT
ATOM      1  C   SER B 156      33.979 -14.518  -8.168  1.00 15.87 LIG 0.24  C 
ATOM      2 O    SER B 156      34.610 -14.408  -7.115  1.00 15.60 LIG-0.27  OA
ATOM      3  N   THR B 157      32.708 -14.151  -8.297  1.00 16.26 LIG-0.34  N 
ATOM      4 H    THR B 157      32.267 -14.184  -9.034  1.00 16.26 LIG 0.16  HD
ENDROOT
BRANCH 3 5
ATOM      5  CA  THR B 157      31.952 -13.652  -7.161  1.00 15.91 LIG 0.20  C 
BRANCH 5 6
ATOM      6  C   THR B 157      31.762 -14.883  -6.280  1.00 16.14 LIG 0.24  C 
ATOM      7 O    THR B 157      31.818 -14.782  -5.050  1.00 15.69 LIG-0.27  OA
ATOM      8  N   SER B 158      31.537 -16.037  -6.896  1.00 15.14 LIG-0.34  N 
ATOM      9 H    SER B 158      31.495 -16.130  -7.749  1.00 15.14 LIG 0.16  HD
BRANCH 8 10
ATOM     10  CA  SER B 158      31.339 -17.268  -6.138  1.00 18.36 LIG 0.20  C 
BRANCH 10 11
ATOM     11  C   SER B 158      30.044 -17.212  -5.334  1.00 20.96 LIG 0.24  C 
ATOM     12 O    SER B 158      29.890 -17.922  -4.338  1.00 20.92 LIG-0.27  OA
ATOM     13  N   TYR B 159      29.117 -16.366  -5.770  1.00 23.40 LIG-0.35  N 
ATOM     14 H    TYR B 159      29.211 -15.866  -6.465  1.00 23.40 LIG 0.16  HD
BRANCH 13 15
ATOM     15  CA  TYR B 159      27.835 -16.216  -5.088  1.00 28.83 LIG 0.17  C 
BRANCH 15 16
ATOM     16  C   TYR B 159      26.732 -15.849  -6.074  1.00 30.09 LIG 0.22  C 
ATOM     17 O    TYR B 159      26.345 -16.750  -6.849  1.00 33.46 LIG-0.29  OA
ENDBRANCH 15 16
BRANCH 15 18
ATOM     18  CB  TYR B 159      27.933 -15.135  -4.008  1.00 32.38 LIG 0.07  C 
BRANCH 18 19
ATOM     19  CG  TYR B 159      28.272 -13.764  -4.552  1.00 36.58 LIG-0.06  A 
ATOM     20  CD2 TYR B 159      29.475 -13.140  -4.223  1.00 38.67 LIG 0.01  A 
ATOM     21  CE2 TYR B 159      29.796 -11.882  -4.731  1.00 40.79 LIG 0.04  A 
ATOM     22  CZ  TYR B 159      28.905 -11.238  -5.575  1.00 41.05 LIG 0.07  A 
ATOM     23  CE1 TYR B 159      27.703 -11.837  -5.915  1.00 40.09 LIG 0.04  A 
ATOM     24  CD1 TYR B 159      27.394 -13.095  -5.403  1.00 38.09 LIG 0.01  A 
BRANCH 22 25
ATOM     25 OH   TYR B 159      29.216  -9.995  -6.079  1.00 43.66 LIG-0.36  OA
ATOM     26 HH   TYR B 159      29.198  -9.428  -5.459  1.00 43.66 LIG 0.22  HD
ENDBRANCH 22 25
ENDBRANCH 18 19
ENDBRANCH 15 18
ENDBRANCH 13 15
ENDBRANCH 10 11
BRANCH 10 27
ATOM     27  CB  SER B 158      32.518 -17.499  -5.191  1.00 15.79 LIG 0.20  C 
BRANCH 27 28
ATOM     28 OG   SER B 158      33.738 -17.566  -5.908  1.00 17.90 LIG-0.40  OA
ATOM     29 HG   SER B 158      34.161 -16.846  -5.811  1.00 17.90 LIG 0.21  HD
ENDBRANCH 27 28
ENDBRANCH 10 27
ENDBRANCH 8 10
ENDBRANCH 5 6
BRANCH 5 30
ATOM     30  CB  THR B 157      30.563 -13.120  -7.574  1.00 18.18 LIG 0.15  C 
ATOM     31  CG2 THR B 157      30.507 -12.871  -9.072  1.00 16.96 LIG 0.04  C 
BRANCH 30 32
ATOM     32 OG1  THR B 157      29.557 -14.072  -7.203  1.00 15.90 LIG-0.39  OA
ATOM     33 HG1  THR B 157      28.796 -13.740  -7.332  1.00 15.90 LIG 0.21  HD
ENDBRANCH 30 32
ENDBRANCH 5 30
ENDBRANCH 3 5
BRANCH 1 34
ATOM     34  CA  SER B 156      34.640 -15.086  -9.411  1.00 16.58 LIG 0.20  C 
BRANCH 34 35
ATOM     35  N   SER B 156      35.918 -14.411  -9.599  1.00 15.80 LIG-0.34  N 
ATOM     36 H    SER B 156      36.596 -14.856  -9.314  1.00 15.80 LIG 0.16  HD
ATOM     37  C   PRO B 155      36.009 -13.210 -10.163  1.00 18.36 LIG 0.24  C 
ATOM     38 O    PRO B 155      35.032 -12.573 -10.559  1.00 18.57 LIG-0.27  OA
BRANCH 37 39
ATOM     39  CA  PRO B 155      37.415 -12.636 -10.290  1.00 19.30 LIG 0.18  C 
ATOM     40  CB  PRO B 155      37.598 -11.379  -9.449  1.00 17.99 LIG 0.04  C 
ATOM     41  CG  PRO B 155      37.077 -10.313 -10.365  1.00 20.29 LIG 0.02  C 
ATOM     42  CD  PRO B 155      37.696 -10.692 -11.704  1.00 20.15 LIG 0.13  C 
ATOM     43  N   PRO B 155      37.702 -12.166 -11.649  1.00 20.34 LIG-0.34  N 
ATOM     44  C   SER B 154      38.006 -13.005 -12.653  1.00 23.17 LIG 0.24  C 
ATOM     45 O    SER B 154      38.062 -14.225 -12.493  1.00 21.43 LIG-0.27  OA
BRANCH 44 46
ATOM     46  CA  SER B 154      38.284 -12.386 -14.020  1.00 26.04 LIG 0.20  C 
BRANCH 46 47
ATOM     47  N   SER B 154      38.971 -11.104 -13.902  1.00 29.08 LIG-0.34  N 
ATOM     48 H    SER B 154      38.520 -10.432 -14.192  1.00 29.08 LIG 0.16  HD
ATOM     49  C   VAL B 153      40.193 -11.011 -13.386  1.00 31.74 LIG 0.26  C 
ATOM     50 O    VAL B 153      40.826 -11.984 -12.982  1.00 31.76 LIG-0.27  OA
BRANCH 49 51
ATOM     51  CA  VAL B 153      40.794  -9.610 -13.320  1.00 34.29 LIG 0.40  C 
ATOM     52  N   VAL B 153      40.454  -8.839 -14.548  1.00 34.52 LIG 0.61  N 
BRANCH 51 53
ATOM     53  CB  VAL B 153      40.260  -8.904 -12.050  1.00 36.17 LIG 0.03  C 
ATOM     54  CG2 VAL B 153      39.464  -7.671 -12.434  1.00 38.03 LIG 0.01  C 
ATOM     55  CG1 VAL B 153      41.417  -8.525 -11.138  1.00 38.39 LIG 0.01  C 
ENDBRANCH 51 53
ENDBRANCH 49 51
ENDBRANCH 46 47
BRANCH 46 56
ATOM     56  CB  SER B 154      39.115 -13.361 -14.858  1.00 27.48 LIG 0.20  C 
BRANCH 56 57
ATOM     57 OG   SER B 154      38.289 -14.120 -15.724  1.00 30.72 LIG-0.40  OA
ATOM     58 HG   SER B 154      38.541 -14.013 -16.517  1.00 30.72 LIG 0.21  HD
ENDBRANCH 56 57
ENDBRANCH 46 56
ENDBRANCH 44 46
ENDBRANCH 37 39
ENDBRANCH 34 35
BRANCH 34 59
ATOM     59  CB  SER B 156      34.858 -16.584  -9.193  1.00 16.81 LIG 0.20  C 
BRANCH 59 60
ATOM     60 OG   SER B 156      34.851 -17.274 -10.434  1.00 16.65 LIG-0.40  OA
ATOM     61 HG   SER B 156      34.179 -17.040 -10.882  1.00 16.65 LIG 0.21  HD
ENDBRANCH 59 60
ENDBRANCH 34 59
ENDBRANCH 1 34
TORSDOF 24
ENDMDL
MODEL 17
USER: ADFR SOLUTION from run 128
USER: SCORE 17.193734 LL:  -4.572 LR: -13.877 RR:   0.000 FEB:  -6.718
USER: RMSD 11.492747
USER: SEED 127
USER: STATUS no improvement in best in 7 clusters for 5 generations
USER: GENES 26
USER: genes 0 Translation |==|  0.46780 0.47051 0.46536
USER: genes 1 Rotation |==|  0.28404 0.20817 0.15708 0.52461
USER: genes 2 Torsion [C]-N--CA-[C] |==|  0.70619
USER: genes 3 Torsion [N]-CA--C-[N] |==|  0.05000
USER: genes 4 Torsion [C]-N--CA-[C] |==|  0.17100
USER: genes 5 Torsion [N]-CA--C-[N] |==|  0.22180
USER: genes 6 Torsion [C]-N--CA-[CB] |==|  0.84730
USER: genes 7 Torsion [N]-CA--C-[O] |==|  0.65619
USER: genes 8 Torsion [N]-CA--CB-[CG] |==|  0.57354
USER: genes 9 Torsion [CA]-CB--CG-[CD2] |==|  0.36949
USER: genes 10 Torsion [CE2]-CZ--OH-[HH] |==|  0.70097
USER: genes 11 Torsion [N]-CA--CB-[OG] |==|  0.86212
USER: genes 12 Torsion [CA]-CB--OG-[HG] |==|  0.37400
USER: genes 13 Torsion [N]-CA--CB-[CG2] |==|  0.56865
USER: genes 14 Torsion [CA]-CB--OG1-[HG1] |==|  0.87787
USER: genes 15 Torsion [N]-C--CA-[N] |==|  0.99285
USER: genes 16 Torsion [C]-CA--N-[C] |==|  0.79412
USER: genes 17 Torsion [N]-C--CA-[CB] |==|  0.48397
USER: genes 18 Torsion [N]-C--CA-[N] |==|  0.85036
USER: genes 19 Torsion [C]-CA--N-[C] |==|  0.76373
USER: genes 20 Torsion [N]-C--CA-[N] |==|  0.32671
USER: genes 21 Torsion [C]-CA--CB-[CG2] |==|  0.41044
USER: genes 22 Torsion [C]-CA--CB-[OG] |==|  0.67049
USER: genes 23 Torsion [CA]-CB--OG-[HG] |==|  0.34280
USER: genes 24 Torsion [C]-CA--CB-[OG] |==|  0.39109
USER: genes 25 Torsion [CA]-CB--OG-[HG] |==|  0.46052
ROOT
ATOM      1  C   SER B 156      38.072 -17.056 -10.556  1.00 15.87 LIG 0.24  C 
ATOM      2 O    SER B 156      38.213 -18.202 -10.986  1.00 15.60 LIG-0.27  OA
ATOM      3  N   THR B 157      37.580 -16.784  -9.352  1.00 16.26 LIG-0.34  N 
ATOM      4 H    THR B 157      37.512 -15.992  -9.024  1.00 16.26 LIG 0.16  HD
ENDROOT
BRANCH 3 5
ATOM      5  CA  THR B 157      37.105 -17.844  -8.479  1.00 15.91 LIG 0.20  C 
BRANCH 5 6
ATOM      6  C   THR B 157      35.586 -17.714  -8.541  1.00 16.14 LIG 0.24  C 
ATOM      7 O    THR B 157      34.881 -18.237  -7.671  1.00 15.69 LIG-0.27  OA
ATOM      8  N   SER B 158      35.080 -17.025  -9.556  1.00 15.14 LIG-0.34  N 
ATOM      9 H    SER B 158      35.551 -16.655 -10.172  1.00 15.14 LIG 0.16  HD
BRANCH 8 10
ATOM     10  CA  SER B 158      33.639 -16.845  -9.698  1.00 18.36 LIG 0.20  C 
BRANCH 10 11
ATOM     11  C   SER B 158      33.062 -16.088  -8.505  1.00 20.96 LIG 0.24  C 
ATOM     12 O    SER B 158      32.493 -16.690  -7.593  1.00 20.92 LIG-0.27  OA
ATOM     13  N   TYR B 159      33.214 -14.768  -8.518  1.00 23.40 LIG-0.35  N 
ATOM     14 H    TYR B 159      33.608 -14.336  -9.149  1.00 23.40 LIG 0.16  HD
BRANCH 13 15
ATOM     15  CA  TYR B 159      32.711 -13.929  -7.433  1.00 28.83 LIG 0.17  C 
BRANCH 15 16
ATOM     16  C   TYR B 159      33.465 -14.204  -6.137  1.00 30.09 LIG 0.22  C 
ATOM     17 O    TYR B 159      32.781 -14.537  -5.146  1.00 33.46 LIG-0.29  OA
ENDBRANCH 15 16
BRANCH 15 18
ATOM     18  CB  TYR B 159      31.217 -14.183  -7.217  1.00 32.38 LIG 0.07  C 
BRANCH 18 19
ATOM     19  CG  TYR B 159      30.481 -13.003  -6.621  1.00 36.58 LIG-0.06  A 
ATOM     20  CD2 TYR B 159      29.270 -12.568  -7.158  1.00 38.67 LIG 0.01  A 
ATOM     21  CE2 TYR B 159      28.583 -11.489  -6.604  1.00 40.79 LIG 0.04  A 
ATOM     22  CZ  TYR B 159      29.113 -10.833  -5.504  1.00 41.05 LIG 0.07  A 
ATOM     23  CE1 TYR B 159      30.316 -11.245  -4.954  1.00 40.09 LIG 0.04  A 
ATOM     24  CD1 TYR B 159      30.992 -12.327  -5.514  1.00 38.09 LIG 0.01  A 
BRANCH 22 25
ATOM     25 OH   TYR B 159      28.440  -9.766  -4.953  1.00 43.66 LIG-0.36  OA
ATOM     26 HH   TYR B 159      28.847  -9.053  -5.135  1.00 43.66 LIG 0.22  HD
ENDBRANCH 22 25
ENDBRANCH 18 19
ENDBRANCH 15 18
ENDBRANCH 13 15
ENDBRANCH 10 11
BRANCH 10 27
ATOM     27  CB  SER B 158      32.947 -18.204  -9.824  1.00 15.79 LIG 0.20  C 
BRANCH 27 28
ATOM     28 OG   SER B 158      33.581 -19.006 -10.804  1.00 17.90 LIG-0.40  OA
ATOM     29 HG   SER B 158      33.685 -19.784 -10.505  1.00 17.90 LIG 0.21  HD
ENDBRANCH 27 28
ENDBRANCH 10 27
ENDBRANCH 8 10
ENDBRANCH 5 6
BRANCH 5 30
ATOM     30  CB  THR B 157      37.559 -17.641  -7.017  1.00 18.18 LIG 0.15  C 
ATOM     31  CG2 THR B 157      37.600 -18.967  -6.278  1.00 16.96 LIG 0.04  C 
BRANCH 30 32
ATOM     32 OG1  THR B 157      38.859 -17.036  -7.000  1.00 15.90 LIG-0.39  OA
ATOM     33 HG1  THR B 157      39.350 -17.411  -7.569  1.00 15.90 LIG 0.21  HD
ENDBRANCH 30 32
ENDBRANCH 5 30
ENDBRANCH 3 5
BRANCH 1 34
ATOM     34  CA  SER B 156      38.472 -15.859 -11.401  1.00 16.58 LIG 0.20  C 
BRANCH 34 35
ATOM     35  N   SER B 156      38.143 -14.647 -10.661  1.00 15.80 LIG-0.34  N 
ATOM     36 H    SER B 156      38.825 -14.242 -10.329  1.00 15.80 LIG 0.16  HD
ATOM     37  C   PRO B 155      36.893 -14.219 -10.521  1.00 18.36 LIG 0.24  C 
ATOM     38 O    PRO B 155      35.919 -14.810 -10.991  1.00 18.57 LIG-0.27  OA
BRANCH 37 39
ATOM     39  CA  PRO B 155      36.711 -12.936  -9.721  1.00 19.30 LIG 0.18  C 
ATOM     40  CB  PRO B 155      35.266 -12.451  -9.735  1.00 17.99 LIG 0.04  C 
ATOM     41  CG  PRO B 155      35.214 -11.666 -11.010  1.00 20.29 LIG 0.02  C 
ATOM     42  CD  PRO B 155      36.512 -10.870 -10.966  1.00 20.15 LIG 0.13  C 
ATOM     43  N   PRO B 155      37.441 -11.807 -10.308  1.00 20.34 LIG-0.34  N 
ATOM     44  C   SER B 154      38.768 -11.653 -10.163  1.00 23.17 LIG 0.24  C 
ATOM     45 O    SER B 154      39.454 -12.453  -9.527  1.00 21.43 LIG-0.27  OA
BRANCH 44 46
ATOM     46  CA  SER B 154      39.405 -10.435 -10.825  1.00 26.04 LIG 0.20  C 
BRANCH 46 47
ATOM     47  N   SER B 154      39.081 -10.361 -12.246  1.00 29.08 LIG-0.34  N 
ATOM     48 H    SER B 154      38.403  -9.864 -12.430  1.00 29.08 LIG 0.16  HD
ATOM     49  C   VAL B 153      39.789 -11.017 -13.160  1.00 31.74 LIG 0.26  C 
ATOM     50 O    VAL B 153      40.752 -11.728 -12.878  1.00 31.76 LIG-0.27  OA
BRANCH 49 51
ATOM     51  CA  VAL B 153      39.344 -10.851 -14.609  1.00 34.29 LIG 0.40  C 
ATOM     52  N   VAL B 153      40.420 -10.209 -15.414  1.00 34.52 LIG 0.61  N 
BRANCH 51 53
ATOM     53  CB  VAL B 153      38.975 -12.244 -15.175  1.00 36.17 LIG 0.03  C 
ATOM     54  CG2 VAL B 153      37.859 -12.114 -16.194  1.00 38.03 LIG 0.01  C 
ATOM     55  CG1 VAL B 153      38.558 -13.172 -14.046  1.00 38.39 LIG 0.01  C 
ENDBRANCH 51 53
ENDBRANCH 49 51
ENDBRANCH 46 47
BRANCH 46 56
ATOM     56  CB  SER B 154      38.938  -9.166 -10.106  1.00 27.48 LIG 0.20  C 
BRANCH 56 57
ATOM     57 OG   SER B 154      38.227  -8.314 -10.988  1.00 30.72 LIG-0.40  OA
ATOM     58 HG   SER B 154      37.463  -8.161 -10.675  1.00 30.72 LIG 0.21  HD
ENDBRANCH 56 57
ENDBRANCH 46 56
ENDBRANCH 44 46
ENDBRANCH 37 39
ENDBRANCH 34 35
BRANCH 34 59
ATOM     59  CB  SER B 156      39.979 -15.935 -11.653  1.00 16.81 LIG 0.20  C 
BRANCH 59 60
ATOM     60 OG   SER B 156      40.282 -15.535 -12.981  1.00 16.65 LIG-0.40  OA
ATOM     61 HG   SER B 156      41.108 -15.394 -13.050  1.00 16.65 LIG 0.21  HD
ENDBRANCH 59 60
ENDBRANCH 34 59
ENDBRANCH 1 34
TORSDOF 24
ENDMDL
MODEL 18
USER: ADFR SOLUTION from run 47
USER: SCORE 17.032378 LL:  -3.976 LR: -13.874 RR:   0.000 FEB:  -6.715
USER: RMSD 4.211218
USER: SEED 46
USER: STATUS searching
USER: GENES 26
USER: genes 0 Translation |==|  0.37689 0.63882 0.48113
USER: genes 1 Rotation |==|  0.63414 0.61390 0.42405 0.96181
USER: genes 2 Torsion [C]-N--CA-[C] |==|  0.55109
USER: genes 3 Torsion [N]-CA--C-[N] |==|  0.39203
USER: genes 4 Torsion [C]-N--CA-[C] |==|  0.75824
USER: genes 5 Torsion [N]-CA--C-[N] |==|  0.91690
USER: genes 6 Torsion [C]-N--CA-[CB] |==|  0.14104
USER: genes 7 Torsion [N]-CA--C-[O] |==|  0.11606
USER: genes 8 Torsion [N]-CA--CB-[CG] |==|  0.17744
USER: genes 9 Torsion [CA]-CB--CG-[CD2] |==|  0.75989
USER: genes 10 Torsion [CE2]-CZ--OH-[HH] |==|  0.34279
USER: genes 11 Torsion [N]-CA--CB-[OG] |==|  0.02644
USER: genes 12 Torsion [CA]-CB--OG-[HG] |==|  0.26415
USER: genes 13 Torsion [N]-CA--CB-[CG2] |==|  0.10061
USER: genes 14 Torsion [CA]-CB--OG1-[HG1] |==|  0.14291
USER: genes 15 Torsion [N]-C--CA-[N] |==|  0.50214
USER: genes 16 Torsion [C]-CA--N-[C] |==|  0.76949
USER: genes 17 Torsion [N]-C--CA-[CB] |==|  0.58127
USER: genes 18 Torsion [N]-C--CA-[N] |==|  0.43511
USER: genes 19 Torsion [C]-CA--N-[C] |==|  0.75721
USER: genes 20 Torsion [N]-C--CA-[N] |==|  0.38495
USER: genes 21 Torsion [C]-CA--CB-[CG2] |==|  0.53202
USER: genes 22 Torsion [C]-CA--CB-[OG] |==|  0.60547
USER: genes 23 Torsion [CA]-CB--OG-[HG] |==|  0.45516
USER: genes 24 Torsion [C]-CA--CB-[OG] |==|  0.71616
USER: genes 25 Torsion [CA]-CB--OG-[HG] |==|  0.08365
ROOT
ATOM      1  C   SER B 156      35.550 -13.142 -10.225  1.00 15.87 LIG 0.24  C 
ATOM      2 O    SER B 156      34.564 -12.422 -10.394  1.00 15.60 LIG-0.27  OA
ATOM      3  N   THR B 157      36.762 -12.835 -10.675  1.00 16.26 LIG-0.34  N 
ATOM      4 H    THR B 157      37.466 -13.308 -10.531  1.00 16.26 LIG 0.16  HD
ENDROOT
BRANCH 3 5
ATOM      5  CA  THR B 157      36.988 -11.638 -11.466  1.00 15.91 LIG 0.20  C 
BRANCH 5 6
ATOM      6  C   THR B 157      38.328 -11.899 -12.148  1.00 16.14 LIG 0.24  C 
ATOM      7 O    THR B 157      39.238 -12.465 -11.535  1.00 15.69 LIG-0.27  OA
ATOM      8  N   SER B 158      38.453 -11.495 -13.406  1.00 15.14 LIG-0.34  N 
ATOM      9 H    SER B 158      37.834 -11.099 -13.852  1.00 15.14 LIG 0.16  HD
BRANCH 8 10
ATOM     10  CA  SER B 158      39.696 -11.704 -14.142  1.00 18.36 LIG 0.20  C 
BRANCH 10 11
ATOM     11  C   SER B 158      40.671 -10.554 -13.906  1.00 20.96 LIG 0.24  C 
ATOM     12 O    SER B 158      41.888 -10.742 -13.946  1.00 20.92 LIG-0.27  OA
ATOM     13  N   TYR B 159      40.130  -9.365 -13.662  1.00 23.40 LIG-0.35  N 
ATOM     14 H    TYR B 159      39.282  -9.220 -13.630  1.00 23.40 LIG 0.16  HD
BRANCH 13 15
ATOM     15  CA  TYR B 159      40.953  -8.183 -13.423  1.00 28.83 LIG 0.17  C 
BRANCH 15 16
ATOM     16  C   TYR B 159      40.095  -6.924 -13.363  1.00 30.09 LIG 0.22  C 
ATOM     17 O    TYR B 159      39.015  -7.008 -12.740  1.00 33.46 LIG-0.29  OA
ENDBRANCH 15 16
BRANCH 15 18
ATOM     18  CB  TYR B 159      41.999  -8.034 -14.531  1.00 32.38 LIG 0.07  C 
BRANCH 18 19
ATOM     19  CG  TYR B 159      41.402  -7.790 -15.900  1.00 36.58 LIG-0.06  A 
ATOM     20  CD2 TYR B 159      41.014  -8.855 -16.713  1.00 38.67 LIG 0.01  A 
ATOM     21  CE2 TYR B 159      40.452  -8.633 -17.969  1.00 40.79 LIG 0.04  A 
ATOM     22  CZ  TYR B 159      40.279  -7.335 -18.422  1.00 41.05 LIG 0.07  A 
ATOM     23  CE1 TYR B 159      40.659  -6.261 -17.634  1.00 40.09 LIG 0.04  A 
ATOM     24  CD1 TYR B 159      41.216  -6.494 -16.378  1.00 38.09 LIG 0.01  A 
BRANCH 22 25
ATOM     25 OH   TYR B 159      39.726  -7.110 -19.663  1.00 43.66 LIG-0.36  OA
ATOM     26 HH   TYR B 159      39.049  -6.620 -19.583  1.00 43.66 LIG 0.22  HD
ENDBRANCH 22 25
ENDBRANCH 18 19
ENDBRANCH 15 18
ENDBRANCH 13 15
ENDBRANCH 10 11
BRANCH 10 27
ATOM     27  CB  SER B 158      39.407 -11.829 -15.639  1.00 15.79 LIG 0.20  C 
BRANCH 27 28
ATOM     28 OG   SER B 158      38.061 -11.495 -15.925  1.00 17.90 LIG-0.40  OA
ATOM     29 HG   SER B 158      38.015 -10.688 -16.154  1.00 17.90 LIG 0.21  HD
ENDBRANCH 27 28
ENDBRANCH 10 27
ENDBRANCH 8 10
ENDBRANCH 5 6
BRANCH 5 30
ATOM     30  CB  THR B 157      37.119 -10.375 -10.587  1.00 18.18 LIG 0.15  C 
ATOM     31  CG2 THR B 157      37.841 -10.696  -9.289  1.00 16.96 LIG 0.04  C 
BRANCH 30 32
ATOM     32 OG1  THR B 157      37.841  -9.365 -11.305  1.00 15.90 LIG-0.39  OA
ATOM     33 HG1  THR B 157      37.493  -9.257 -12.062  1.00 15.90 LIG 0.21  HD
ENDBRANCH 30 32
ENDBRANCH 5 30
ENDBRANCH 3 5
BRANCH 1 34
ATOM     34  CA  SER B 156      35.429 -14.453  -9.468  1.00 16.58 LIG 0.20  C 
BRANCH 34 35
ATOM     35  N   SER B 156      34.037 -14.627  -9.074  1.00 15.80 LIG-0.34  N 
ATOM     36 H    SER B 156      33.581 -15.125  -9.605  1.00 15.80 LIG 0.16  HD
ATOM     37  C   PRO B 155      33.532 -14.057  -7.984  1.00 18.36 LIG 0.24  C 
ATOM     38 O    PRO B 155      34.189 -13.335  -7.232  1.00 18.57 LIG-0.27  OA
BRANCH 37 39
ATOM     39  CA  PRO B 155      32.060 -14.334  -7.706  1.00 19.30 LIG 0.18  C 
ATOM     40  CB  PRO B 155      31.392 -13.187  -6.958  1.00 17.99 LIG 0.04  C 
ATOM     41  CG  PRO B 155      31.725 -13.510  -5.532  1.00 20.29 LIG 0.02  C 
ATOM     42  CD  PRO B 155      31.464 -15.008  -5.458  1.00 20.15 LIG 0.13  C 
ATOM     43  N   PRO B 155      31.871 -15.471  -6.798  1.00 20.34 LIG-0.34  N 
ATOM     44  C   SER B 154      31.985 -16.746  -7.206  1.00 23.17 LIG 0.24  C 
ATOM     45 O    SER B 154      32.257 -17.040  -8.370  1.00 21.43 LIG-0.27  OA
BRANCH 44 46
ATOM     46  CA  SER B 154      31.764 -17.836  -6.160  1.00 26.04 LIG 0.20  C 
BRANCH 46 47
ATOM     47  N   SER B 154      31.373 -19.101  -6.773  1.00 29.08 LIG-0.34  N 
ATOM     48 H    SER B 154      32.030 -19.629  -6.946  1.00 29.08 LIG 0.16  HD
ATOM     49  C   VAL B 153      30.102 -19.389  -7.034  1.00 31.74 LIG 0.26  C 
ATOM     50 O    VAL B 153      29.177 -18.619  -6.786  1.00 31.76 LIG-0.27  OA
BRANCH 49 51
ATOM     51  CA  VAL B 153      29.833 -20.747  -7.674  1.00 34.29 LIG 0.40  C 
ATOM     52  N   VAL B 153      28.630 -21.380  -7.066  1.00 34.52 LIG 0.61  N 
BRANCH 51 53
ATOM     53  CB  VAL B 153      29.651 -20.547  -9.198  1.00 36.17 LIG 0.03  C 
ATOM     54  CG2 VAL B 153      29.106 -21.815  -9.829  1.00 38.03 LIG 0.01  C 
ATOM     55  CG1 VAL B 153      30.977 -20.164  -9.837  1.00 38.39 LIG 0.01  C 
ENDBRANCH 51 53
ENDBRANCH 49 51
ENDBRANCH 46 47
BRANCH 46 56
ATOM     56  CB  SER B 154      33.043 -18.015  -5.338  1.00 27.48 LIG 0.20  C 
BRANCH 56 57
ATOM     57 OG   SER B 154      33.264 -19.382  -5.033  1.00 30.72 LIG-0.40  OA
ATOM     58 HG   SER B 154      34.059 -19.488  -4.784  1.00 30.72 LIG 0.21  HD
ENDBRANCH 56 57
ENDBRANCH 46 56
ENDBRANCH 44 46
ENDBRANCH 37 39
ENDBRANCH 34 35
BRANCH 34 59
ATOM     59  CB  SER B 156      35.863 -15.584 -10.401  1.00 16.81 LIG 0.20  C 
BRANCH 59 60
ATOM     60 OG   SER B 156      34.730 -16.267 -10.917  1.00 16.65 LIG-0.40  OA
ATOM     61 HG   SER B 156      34.083 -15.734 -10.974  1.00 16.65 LIG 0.21  HD
ENDBRANCH 59 60
ENDBRANCH 34 59
ENDBRANCH 1 34
TORSDOF 24
ENDMDL
MODEL 19
USER: ADFR SOLUTION from run 189
USER: SCORE 16.717098 LL:  -4.762 LR: -13.825 RR:   0.000 FEB:  -6.665
USER: RMSD 12.380187
USER: SEED 188
USER: STATUS no improvement in best in 10 clusters for 5 generations
USER: GENES 26
USER: genes 0 Translation |==|  0.46068 0.55656 0.43879
USER: genes 1 Rotation |==|  0.73634 0.51313 0.91905 0.63552
USER: genes 2 Torsion [C]-N--CA-[C] |==|  0.57169
USER: genes 3 Torsion [N]-CA--C-[N] |==|  0.53047
USER: genes 4 Torsion [C]-N--CA-[C] |==|  0.70296
USER: genes 5 Torsion [N]-CA--C-[N] |==|  0.76391
USER: genes 6 Torsion [C]-N--CA-[CB] |==|  0.29583
USER: genes 7 Torsion [N]-CA--C-[O] |==|  0.63844
USER: genes 8 Torsion [N]-CA--CB-[CG] |==|  0.97175
USER: genes 9 Torsion [CA]-CB--CG-[CD2] |==|  0.77090
USER: genes 10 Torsion [CE2]-CZ--OH-[HH] |==|  0.85292
USER: genes 11 Torsion [N]-CA--CB-[OG] |==|  0.15617
USER: genes 12 Torsion [CA]-CB--OG-[HG] |==|  0.81201
USER: genes 13 Torsion [N]-CA--CB-[CG2] |==|  0.17182
USER: genes 14 Torsion [CA]-CB--OG1-[HG1] |==|  0.03850
USER: genes 15 Torsion [N]-C--CA-[N] |==|  0.56849
USER: genes 16 Torsion [C]-CA--N-[C] |==|  0.71021
USER: genes 17 Torsion [N]-C--CA-[CB] |==|  0.29680
USER: genes 18 Torsion [N]-C--CA-[N] |==|  0.87290
USER: genes 19 Torsion [C]-CA--N-[C] |==|  0.85555
USER: genes 20 Torsion [N]-C--CA-[N] |==|  0.12037
USER: genes 21 Torsion [C]-CA--CB-[CG2] |==|  0.83806
USER: genes 22 Torsion [C]-CA--CB-[OG] |==|  0.61238
USER: genes 23 Torsion [CA]-CB--OG-[HG] |==|  0.92192
USER: genes 24 Torsion [C]-CA--CB-[OG] |==|  0.62466
USER: genes 25 Torsion [CA]-CB--OG-[HG] |==|  0.89656
ROOT
ATOM      1  C   SER B 156      37.875 -15.055 -11.114  1.00 15.87 LIG 0.24  C 
ATOM      2 O    SER B 156      37.478 -15.384 -12.233  1.00 15.60 LIG-0.27  OA
ATOM      3  N   THR B 157      37.069 -14.920 -10.066  1.00 16.26 LIG-0.34  N 
ATOM      4 H    THR B 157      37.336 -14.730  -9.271  1.00 16.26 LIG 0.16  HD
ENDROOT
BRANCH 3 5
ATOM      5  CA  THR B 157      35.632 -15.091 -10.197  1.00 15.91 LIG 0.20  C 
BRANCH 5 6
ATOM      6  C   THR B 157      35.060 -14.252  -9.058  1.00 16.14 LIG 0.24  C 
ATOM      7 O    THR B 157      35.789 -13.480  -8.427  1.00 15.69 LIG-0.27  OA
ATOM      8  N   SER B 158      33.768 -14.396  -8.792  1.00 15.14 LIG-0.34  N 
ATOM      9 H    SER B 158      33.243 -14.928  -9.217  1.00 15.14 LIG 0.16  HD
BRANCH 8 10
ATOM     10  CA  SER B 158      33.130 -13.635  -7.723  1.00 18.36 LIG 0.20  C 
BRANCH 10 11
ATOM     11  C   SER B 158      32.822 -14.527  -6.525  1.00 20.96 LIG 0.24  C 
ATOM     12 O    SER B 158      33.606 -14.602  -5.577  1.00 20.92 LIG-0.27  OA
ATOM     13  N   TYR B 159      31.677 -15.200  -6.573  1.00 23.40 LIG-0.35  N 
ATOM     14 H    TYR B 159      31.122 -15.158  -7.229  1.00 23.40 LIG 0.16  HD
BRANCH 13 15
ATOM     15  CA  TYR B 159      31.263 -16.086  -5.488  1.00 28.83 LIG 0.17  C 
BRANCH 15 16
ATOM     16  C   TYR B 159      30.804 -17.434  -6.030  1.00 30.09 LIG 0.22  C 
ATOM     17 O    TYR B 159      29.702 -17.860  -5.622  1.00 33.46 LIG-0.29  OA
ENDBRANCH 15 16
BRANCH 15 18
ATOM     18  CB  TYR B 159      30.128 -15.445  -4.686  1.00 32.38 LIG 0.07  C 
BRANCH 18 19
ATOM     19  CG  TYR B 159      29.881 -13.994  -5.037  1.00 36.58 LIG-0.06  A 
ATOM     20  CD2 TYR B 159      30.655 -12.979  -4.477  1.00 38.67 LIG 0.01  A 
ATOM     21  CE2 TYR B 159      30.438 -11.642  -4.807  1.00 40.79 LIG 0.04  A 
ATOM     22  CZ  TYR B 159      29.435 -11.314  -5.704  1.00 41.05 LIG 0.07  A 
ATOM     23  CE1 TYR B 159      28.651 -12.304  -6.274  1.00 40.09 LIG 0.04  A 
ATOM     24  CD1 TYR B 159      28.879 -13.637  -5.938  1.00 38.09 LIG 0.01  A 
BRANCH 22 25
ATOM     25 OH   TYR B 159      29.215  -9.995  -6.034  1.00 43.66 LIG-0.36  OA
ATOM     26 HH   TYR B 159      29.114  -9.544  -5.332  1.00 43.66 LIG 0.22  HD
ENDBRANCH 22 25
ENDBRANCH 18 19
ENDBRANCH 15 18
ENDBRANCH 13 15
ENDBRANCH 10 11
BRANCH 10 27
ATOM     27  CB  SER B 158      31.837 -12.995  -8.231  1.00 15.79 LIG 0.20  C 
BRANCH 27 28
ATOM     28 OG   SER B 158      30.961 -13.975  -8.759  1.00 17.90 LIG-0.40  OA
ATOM     29 HG   SER B 158      31.291 -14.297  -9.461  1.00 17.90 LIG 0.21  HD
ENDBRANCH 27 28
ENDBRANCH 10 27
ENDBRANCH 8 10
ENDBRANCH 5 6
BRANCH 5 30
ATOM     30  CB  THR B 157      35.200 -16.559  -9.995  1.00 18.18 LIG 0.15  C 
ATOM     31  CG2 THR B 157      35.552 -17.035  -8.596  1.00 16.96 LIG 0.04  C 
BRANCH 30 32
ATOM     32 OG1  THR B 157      33.786 -16.674 -10.204  1.00 15.90 LIG-0.39  OA
ATOM     33 HG1  THR B 157      33.500 -15.977 -10.575  1.00 15.90 LIG 0.21  HD
ENDBRANCH 30 32
ENDBRANCH 5 30
ENDBRANCH 3 5
BRANCH 1 34
ATOM     34  CA  SER B 156      39.348 -14.786 -10.864  1.00 16.58 LIG 0.20  C 
BRANCH 34 35
ATOM     35  N   SER B 156      39.963 -14.400 -12.128  1.00 15.80 LIG-0.34  N 
ATOM     36 H    SER B 156      39.782 -13.597 -12.376  1.00 15.80 LIG 0.16  HD
ATOM     37  C   PRO B 155      40.734 -15.230 -12.824  1.00 18.36 LIG 0.24  C 
ATOM     38 O    PRO B 155      40.981 -16.383 -12.468  1.00 18.57 LIG-0.27  OA
BRANCH 37 39
ATOM     39  CA  PRO B 155      41.304 -14.680 -14.125  1.00 19.30 LIG 0.18  C 
ATOM     40  CB  PRO B 155      42.794 -14.378 -14.017  1.00 17.99 LIG 0.04  C 
ATOM     41  CG  PRO B 155      42.790 -12.998 -13.431  1.00 20.29 LIG 0.02  C 
ATOM     42  CD  PRO B 155      41.708 -12.295 -14.239  1.00 20.15 LIG 0.13  C 
ATOM     43  N   PRO B 155      40.731 -13.375 -14.475  1.00 20.34 LIG-0.34  N 
ATOM     44  C   SER B 154      39.506 -13.247 -15.012  1.00 23.17 LIG 0.24  C 
ATOM     45 O    SER B 154      38.788 -14.219 -15.245  1.00 21.43 LIG-0.27  OA
BRANCH 44 46
ATOM     46  CA  SER B 154      39.028 -11.832 -15.329  1.00 26.04 LIG 0.20  C 
BRANCH 46 47
ATOM     47  N   SER B 154      39.294 -10.914 -14.226  1.00 29.08 LIG-0.34  N 
ATOM     48 H    SER B 154      39.713 -10.198 -14.454  1.00 29.08 LIG 0.16  HD
ATOM     49  C   VAL B 153      38.909 -11.184 -12.983  1.00 31.74 LIG 0.26  C 
ATOM     50 O    VAL B 153      38.316 -12.215 -12.674  1.00 31.76 LIG-0.27  OA
BRANCH 49 51
ATOM     51  CA  VAL B 153      39.248 -10.136 -11.927  1.00 34.29 LIG 0.40  C 
ATOM     52  N   VAL B 153      38.966  -8.768 -12.443  1.00 34.52 LIG 0.61  N 
BRANCH 51 53
ATOM     53  CB  VAL B 153      38.422 -10.435 -10.652  1.00 36.17 LIG 0.03  C 
ATOM     54  CG2 VAL B 153      36.940 -10.421 -10.975  1.00 38.03 LIG 0.01  C 
ATOM     55  CG1 VAL B 153      38.740  -9.412  -9.573  1.00 38.39 LIG 0.01  C 
ENDBRANCH 51 53
ENDBRANCH 49 51
ENDBRANCH 46 47
BRANCH 46 56
ATOM     56  CB  SER B 154      39.713 -11.341 -16.607  1.00 27.48 LIG 0.20  C 
BRANCH 56 57
ATOM     57 OG   SER B 154      40.092  -9.981 -16.490  1.00 30.72 LIG-0.40  OA
ATOM     58 HG   SER B 154      39.574  -9.590 -15.958  1.00 30.72 LIG 0.21  HD
ENDBRANCH 56 57
ENDBRANCH 46 56
ENDBRANCH 44 46
ENDBRANCH 37 39
ENDBRANCH 34 35
BRANCH 34 59
ATOM     59  CB  SER B 156      39.460 -13.647  -9.849  1.00 16.81 LIG 0.20  C 
BRANCH 59 60
ATOM     60 OG   SER B 156      40.440 -12.707 -10.261  1.00 16.65 LIG-0.40  OA
ATOM     61 HG   SER B 156      41.084 -13.111 -10.620  1.00 16.65 LIG 0.21  HD
ENDBRANCH 59 60
ENDBRANCH 34 59
ENDBRANCH 1 34
TORSDOF 24
ENDMDL
MODEL 20
USER: ADFR SOLUTION from run 190
USER: SCORE 18.019881 LL:  -4.596 LR: -13.779 RR:   0.000 FEB:  -6.620
USER: RMSD 12.183316
USER: SEED 189
USER: STATUS no improvement in best in 7 clusters for 5 generations
USER: GENES 26
USER: genes 0 Translation |==|  0.25403 0.64331 0.66004
USER: genes 1 Rotation |==|  0.56402 0.98407 0.60684 0.51280
USER: genes 2 Torsion [C]-N--CA-[C] |==|  0.75152
USER: genes 3 Torsion [N]-CA--C-[N] |==|  0.95556
USER: genes 4 Torsion [C]-N--CA-[C] |==|  0.69792
USER: genes 5 Torsion [N]-CA--C-[N] |==|  0.05237
USER: genes 6 Torsion [C]-N--CA-[CB] |==|  0.45949
USER: genes 7 Torsion [N]-CA--C-[O] |==|  0.61553
USER: genes 8 Torsion [N]-CA--CB-[CG] |==|  0.63516
USER: genes 9 Torsion [CA]-CB--CG-[CD2] |==|  0.47192
USER: genes 10 Torsion [CE2]-CZ--OH-[HH] |==|  0.37891
USER: genes 11 Torsion [N]-CA--CB-[OG] |==|  0.95005
USER: genes 12 Torsion [CA]-CB--OG-[HG] |==|  0.48601
USER: genes 13 Torsion [N]-CA--CB-[CG2] |==|  0.73508
USER: genes 14 Torsion [CA]-CB--OG1-[HG1] |==|  0.59974
USER: genes 15 Torsion [N]-C--CA-[N] |==|  0.43952
USER: genes 16 Torsion [C]-CA--N-[C] |==|  0.63724
USER: genes 17 Torsion [N]-C--CA-[CB] |==|  0.94521
USER: genes 18 Torsion [N]-C--CA-[N] |==|  0.43755
USER: genes 19 Torsion [C]-CA--N-[C] |==|  0.59750
USER: genes 20 Torsion [N]-C--CA-[N] |==|  0.94282
USER: genes 21 Torsion [C]-CA--CB-[CG2] |==|  0.26487
USER: genes 22 Torsion [C]-CA--CB-[OG] |==|  0.57775
USER: genes 23 Torsion [CA]-CB--OG-[HG] |==|  0.25702
USER: genes 24 Torsion [C]-CA--CB-[OG] |==|  0.67016
USER: genes 25 Torsion [CA]-CB--OG-[HG] |==|  0.83835
ROOT
ATOM      1  C   SER B 156      32.140 -13.038  -6.468  1.00 15.87 LIG 0.24  C 
ATOM      2 O    SER B 156      32.915 -13.515  -5.637  1.00 15.60 LIG-0.27  OA
ATOM      3  N   THR B 157      31.093 -12.288  -6.142  1.00 16.26 LIG-0.34  N 
ATOM      4 H    THR B 157      30.567 -11.915  -6.712  1.00 16.26 LIG 0.16  HD
ENDROOT
BRANCH 3 5
ATOM      5  CA  THR B 157      30.753 -12.038  -4.752  1.00 15.91 LIG 0.20  C 
BRANCH 5 6
ATOM      6  C   THR B 157      29.818 -13.188  -4.392  1.00 16.14 LIG 0.24  C 
ATOM      7 O    THR B 157      29.574 -13.445  -3.208  1.00 15.69 LIG-0.27  OA
ATOM      8  N   SER B 158      29.294 -13.877  -5.398  1.00 15.14 LIG-0.34  N 
ATOM      9 H    SER B 158      29.450 -13.717  -6.228  1.00 15.14 LIG 0.16  HD
BRANCH 8 10
ATOM     10  CA  SER B 158      28.386 -14.993  -5.152  1.00 18.36 LIG 0.20  C 
BRANCH 10 11
ATOM     11  C   SER B 158      29.056 -16.325  -5.478  1.00 20.96 LIG 0.24  C 
ATOM     12 O    SER B 158      28.382 -17.338  -5.673  1.00 20.92 LIG-0.27  OA
ATOM     13  N   TYR B 159      30.384 -16.316  -5.536  1.00 23.40 LIG-0.35  N 
ATOM     14 H    TYR B 159      30.866 -15.616  -5.401  1.00 23.40 LIG 0.16  HD
BRANCH 13 15
ATOM     15  CA  TYR B 159      31.145 -17.524  -5.842  1.00 28.83 LIG 0.17  C 
BRANCH 15 16
ATOM     16  C   TYR B 159      31.138 -18.486  -4.660  1.00 30.09 LIG 0.22  C 
ATOM     17 O    TYR B 159      32.216 -19.060  -4.394  1.00 33.46 LIG-0.29  OA
ENDBRANCH 15 16
BRANCH 15 18
ATOM     18  CB  TYR B 159      32.589 -17.164  -6.198  1.00 32.38 LIG 0.07  C 
BRANCH 18 19
ATOM     19  CG  TYR B 159      33.084 -17.822  -7.467  1.00 36.58 LIG-0.06  A 
ATOM     20  CD2 TYR B 159      34.294 -17.443  -8.047  1.00 38.67 LIG 0.01  A 
ATOM     21  CE2 TYR B 159      34.759 -18.056  -9.209  1.00 40.79 LIG 0.04  A 
ATOM     22  CZ  TYR B 159      34.006 -19.057  -9.803  1.00 41.05 LIG 0.07  A 
ATOM     23  CE1 TYR B 159      32.799 -19.450  -9.247  1.00 40.09 LIG 0.04  A 
ATOM     24  CD1 TYR B 159      32.346 -18.832  -8.083  1.00 38.09 LIG 0.01  A 
BRANCH 22 25
ATOM     25 OH   TYR B 159      34.459 -19.665 -10.952  1.00 43.66 LIG-0.36  OA
ATOM     26 HH   TYR B 159      34.344 -20.495 -10.894  1.00 43.66 LIG 0.22  HD
ENDBRANCH 22 25
ENDBRANCH 18 19
ENDBRANCH 15 18
ENDBRANCH 13 15
ENDBRANCH 10 11
BRANCH 10 27
ATOM     27  CB  SER B 158      27.120 -14.838  -5.997  1.00 15.79 LIG 0.20  C 
BRANCH 27 28
ATOM     28 OG   SER B 158      26.976 -13.505  -6.454  1.00 17.90 LIG-0.40  OA
ATOM     29 HG   SER B 158      26.315 -13.456  -6.971  1.00 17.90 LIG 0.21  HD
ENDBRANCH 27 28
ENDBRANCH 10 27
ENDBRANCH 8 10
ENDBRANCH 5 6
BRANCH 5 30
ATOM     30  CB  THR B 157      29.992 -10.706  -4.569  1.00 18.18 LIG 0.15  C 
ATOM     31  CG2 THR B 157      30.949  -9.587  -4.196  1.00 16.96 LIG 0.04  C 
BRANCH 30 32
ATOM     32 OG1  THR B 157      29.310 -10.375  -5.786  1.00 15.90 LIG-0.39  OA
ATOM     33 HG1  THR B 157      29.323  -9.542  -5.897  1.00 15.90 LIG 0.21  HD
ENDBRANCH 30 32
ENDBRANCH 5 30
ENDBRANCH 3 5
BRANCH 1 34
ATOM     34  CA  SER B 156      32.352 -13.282  -7.952  1.00 16.58 LIG 0.20  C 
BRANCH 34 35
ATOM     35  N   SER B 156      33.749 -13.641  -8.162  1.00 15.80 LIG-0.34  N 
ATOM     36 H    SER B 156      34.036 -14.258  -7.636  1.00 15.80 LIG 0.16  HD
ATOM     37  C   PRO B 155      34.500 -13.056  -9.089  1.00 18.36 LIG 0.24  C 
ATOM     38 O    PRO B 155      34.085 -12.164  -9.832  1.00 18.57 LIG-0.27  OA
BRANCH 37 39
ATOM     39  CA  PRO B 155      35.941 -13.541  -9.186  1.00 19.30 LIG 0.18  C 
ATOM     40  CB  PRO B 155      36.394 -14.249  -7.916  1.00 17.99 LIG 0.04  C 
ATOM     41  CG  PRO B 155      36.835 -13.101  -7.059  1.00 20.29 LIG 0.02  C 
ATOM     42  CD  PRO B 155      37.628 -12.242  -8.034  1.00 20.15 LIG 0.13  C 
ATOM     43  N   PRO B 155      36.894 -12.431  -9.299  1.00 20.34 LIG-0.34  N 
ATOM     44  C   SER B 154      37.090 -11.764 -10.449  1.00 23.17 LIG 0.24  C 
ATOM     45 O    SER B 154      36.481 -12.045 -11.481  1.00 21.43 LIG-0.27  OA
BRANCH 44 46
ATOM     46  CA  SER B 154      38.111 -10.629 -10.432  1.00 26.04 LIG 0.20  C 
BRANCH 46 47
ATOM     47  N   SER B 154      38.622 -10.342 -11.768  1.00 29.08 LIG-0.34  N 
ATOM     48 H    SER B 154      38.043 -10.437 -12.397  1.00 29.08 LIG 0.16  HD
ATOM     49  C   VAL B 153      39.882  -9.968 -11.970  1.00 31.74 LIG 0.26  C 
ATOM     50 O    VAL B 153      40.697  -9.843 -11.059  1.00 31.76 LIG-0.27  OA
BRANCH 49 51
ATOM     51  CA  VAL B 153      40.283  -9.697 -13.416  1.00 34.29 LIG 0.40  C 
ATOM     52  N   VAL B 153      39.341 -10.371 -14.353  1.00 34.52 LIG 0.61  N 
BRANCH 51 53
ATOM     53  CB  VAL B 153      40.302  -8.166 -13.645  1.00 36.17 LIG 0.03  C 
ATOM     54  CG2 VAL B 153      41.708  -7.629 -13.462  1.00 38.03 LIG 0.01  C 
ATOM     55  CG1 VAL B 153      39.343  -7.483 -12.683  1.00 38.39 LIG 0.01  C 
ENDBRANCH 51 53
ENDBRANCH 49 51
ENDBRANCH 46 47
BRANCH 46 56
ATOM     56  CB  SER B 154      37.466  -9.378  -9.829  1.00 27.48 LIG 0.20  C 
BRANCH 56 57
ATOM     57 OG   SER B 154      38.065  -8.200 -10.340  1.00 30.72 LIG-0.40  OA
ATOM     58 HG   SER B 154      37.635  -7.936 -11.011  1.00 30.72 LIG 0.21  HD
ENDBRANCH 56 57
ENDBRANCH 46 56
ENDBRANCH 44 46
ENDBRANCH 37 39
ENDBRANCH 34 35
BRANCH 34 59
ATOM     59  CB  SER B 156      31.437 -14.430  -8.382  1.00 16.81 LIG 0.20  C 
BRANCH 59 60
ATOM     60 OG   SER B 156      32.203 -15.519  -8.874  1.00 16.65 LIG-0.40  OA
ATOM     61 HG   SER B 156      32.674 -15.262  -9.521  1.00 16.65 LIG 0.21  HD
ENDBRANCH 59 60
ENDBRANCH 34 59
ENDBRANCH 1 34
TORSDOF 24
ENDMDL
MODEL 21
USER: ADFR SOLUTION from run 141
USER: SCORE 18.170719 LL:  -4.733 LR: -13.782 RR:   0.000 FEB:  -6.623
USER: RMSD 12.382023
USER: SEED 140
USER: STATUS no improvement in best in 7 clusters for 5 generations
USER: GENES 26
USER: genes 0 Translation |==|  0.31799 0.39292 0.49589
USER: genes 1 Rotation |==|  0.79737 0.50579 0.83233 0.72605
USER: genes 2 Torsion [C]-N--CA-[C] |==|  0.59173
USER: genes 3 Torsion [N]-CA--C-[N] |==|  0.38773
USER: genes 4 Torsion [C]-N--CA-[C] |==|  0.75846
USER: genes 5 Torsion [N]-CA--C-[N] |==|  0.95696
USER: genes 6 Torsion [C]-N--CA-[CB] |==|  0.25134
USER: genes 7 Torsion [N]-CA--C-[O] |==|  0.50294
USER: genes 8 Torsion [N]-CA--CB-[CG] |==|  0.90357
USER: genes 9 Torsion [CA]-CB--CG-[CD2] |==|  0.25426
USER: genes 10 Torsion [CE2]-CZ--OH-[HH] |==|  0.56115
USER: genes 11 Torsion [N]-CA--CB-[OG] |==|  0.88575
USER: genes 12 Torsion [CA]-CB--OG-[HG] |==|  0.01791
USER: genes 13 Torsion [N]-CA--CB-[CG2] |==|  0.13227
USER: genes 14 Torsion [CA]-CB--OG1-[HG1] |==|  0.58135
USER: genes 15 Torsion [N]-C--CA-[N] |==|  0.88946
USER: genes 16 Torsion [C]-CA--N-[C] |==|  0.83264
USER: genes 17 Torsion [N]-C--CA-[CB] |==|  0.87463
USER: genes 18 Torsion [N]-C--CA-[N] |==|  0.41331
USER: genes 19 Torsion [C]-CA--N-[C] |==|  0.79910
USER: genes 20 Torsion [N]-C--CA-[N] |==|  0.86464
USER: genes 21 Torsion [C]-CA--CB-[CG2] |==|  0.46058
USER: genes 22 Torsion [C]-CA--CB-[OG] |==|  0.28481
USER: genes 23 Torsion [CA]-CB--OG-[HG] |==|  0.64375
USER: genes 24 Torsion [C]-CA--CB-[OG] |==|  0.43143
USER: genes 25 Torsion [CA]-CB--OG-[HG] |==|  0.66397
ROOT
ATOM      1  C   SER B 156      33.915 -18.860  -9.915  1.00 15.87 LIG 0.24  C 
ATOM      2 O    SER B 156      33.052 -19.007 -10.782  1.00 15.60 LIG-0.27  OA
ATOM      3  N   THR B 157      33.655 -18.387  -8.700  1.00 16.26 LIG-0.34  N 
ATOM      4 H    THR B 157      34.239 -18.316  -8.073  1.00 16.26 LIG 0.16  HD
ENDROOT
BRANCH 3 5
ATOM      5  CA  THR B 157      32.320 -17.944  -8.337  1.00 15.91 LIG 0.20  C 
BRANCH 5 6
ATOM      6  C   THR B 157      32.568 -16.800  -7.359  1.00 16.14 LIG 0.24  C 
ATOM      7 O    THR B 157      33.466 -16.888  -6.515  1.00 15.69 LIG-0.27  OA
ATOM      8  N   SER B 158      31.785 -15.734  -7.466  1.00 15.14 LIG-0.34  N 
ATOM      9 H    SER B 158      31.155 -15.652  -8.044  1.00 15.14 LIG 0.16  HD
BRANCH 8 10
ATOM     10  CA  SER B 158      31.949 -14.589  -6.576  1.00 18.36 LIG 0.20  C 
BRANCH 10 11
ATOM     11  C   SER B 158      31.150 -14.777  -5.290  1.00 20.96 LIG 0.24  C 
ATOM     12 O    SER B 158      31.371 -14.073  -4.303  1.00 20.92 LIG-0.27  OA
ATOM     13  N   TYR B 159      30.222 -15.728  -5.309  1.00 23.40 LIG-0.35  N 
ATOM     14 H    TYR B 159      30.059 -16.228  -5.990  1.00 23.40 LIG 0.16  HD
BRANCH 13 15
ATOM     15  CA  TYR B 159      29.387 -16.006  -4.143  1.00 28.83 LIG 0.17  C 
BRANCH 15 16
ATOM     16  C   TYR B 159      29.016 -17.483  -4.078  1.00 30.09 LIG 0.22  C 
ATOM     17 O    TYR B 159      28.283 -17.840  -3.131  1.00 33.46 LIG-0.29  OA
ENDBRANCH 15 16
BRANCH 15 18
ATOM     18  CB  TYR B 159      28.111 -15.162  -4.194  1.00 32.38 LIG 0.07  C 
BRANCH 18 19
ATOM     19  CG  TYR B 159      28.314 -13.790  -4.798  1.00 36.58 LIG-0.06  A 
ATOM     20  CD2 TYR B 159      28.131 -13.573  -6.163  1.00 38.67 LIG 0.01  A 
ATOM     21  CE2 TYR B 159      28.307 -12.308  -6.721  1.00 40.79 LIG 0.04  A 
ATOM     22  CZ  TYR B 159      28.671 -11.247  -5.909  1.00 41.05 LIG 0.07  A 
ATOM     23  CE1 TYR B 159      28.861 -11.437  -4.549  1.00 40.09 LIG 0.04  A 
ATOM     24  CD1 TYR B 159      28.680 -12.705  -4.002  1.00 38.09 LIG 0.01  A 
BRANCH 22 25
ATOM     25 OH   TYR B 159      28.847  -9.995  -6.454  1.00 43.66 LIG-0.36  OA
ATOM     26 HH   TYR B 159      29.338  -9.536  -5.950  1.00 43.66 LIG 0.22  HD
ENDBRANCH 22 25
ENDBRANCH 18 19
ENDBRANCH 15 18
ENDBRANCH 13 15
ENDBRANCH 10 11
BRANCH 10 27
ATOM     27  CB  SER B 158      31.494 -13.308  -7.277  1.00 15.79 LIG 0.20  C 
BRANCH 27 28
ATOM     28 OG   SER B 158      31.923 -13.290  -8.627  1.00 17.90 LIG-0.40  OA
ATOM     29 HG   SER B 158      32.273 -14.028  -8.820  1.00 17.90 LIG 0.21  HD
ENDBRANCH 27 28
ENDBRANCH 10 27
ENDBRANCH 8 10
ENDBRANCH 5 6
BRANCH 5 30
ATOM     30  CB  THR B 157      31.517 -19.048  -7.614  1.00 18.18 LIG 0.15  C 
ATOM     31  CG2 THR B 157      32.350 -19.685  -6.515  1.00 16.96 LIG 0.04  C 
BRANCH 30 32
ATOM     32 OG1  THR B 157      30.325 -18.482  -7.053  1.00 15.90 LIG-0.39  OA
ATOM     33 HG1  THR B 157      30.105 -18.915  -6.367  1.00 15.90 LIG 0.21  HD
ENDBRANCH 30 32
ENDBRANCH 5 30
ENDBRANCH 3 5
BRANCH 1 34
ATOM     34  CA  SER B 156      35.362 -19.226 -10.194  1.00 16.58 LIG 0.20  C 
BRANCH 34 35
ATOM     35  N   SER B 156      36.216 -18.219  -9.579  1.00 15.80 LIG-0.34  N 
ATOM     36 H    SER B 156      36.755 -18.530  -8.985  1.00 15.80 LIG 0.16  HD
ATOM     37  C   PRO B 155      36.154 -16.934  -9.916  1.00 18.36 LIG 0.24  C 
ATOM     38 O    PRO B 155      35.371 -16.494 -10.759  1.00 18.57 LIG-0.27  OA
BRANCH 37 39
ATOM     39  CA  PRO B 155      37.112 -16.003  -9.183  1.00 19.30 LIG 0.18  C 
ATOM     40  CB  PRO B 155      37.139 -16.274  -7.684  1.00 17.99 LIG 0.04  C 
ATOM     41  CG  PRO B 155      35.976 -15.462  -7.200  1.00 20.29 LIG 0.02  C 
ATOM     42  CD  PRO B 155      36.142 -14.153  -7.960  1.00 20.15 LIG 0.13  C 
ATOM     43  N   PRO B 155      36.687 -14.601  -9.255  1.00 20.34 LIG-0.34  N 
ATOM     44  C   SER B 154      36.870 -13.848 -10.353  1.00 23.17 LIG 0.24  C 
ATOM     45 O    SER B 154      37.407 -14.290 -11.369  1.00 21.43 LIG-0.27  OA
BRANCH 44 46
ATOM     46  CA  SER B 154      36.382 -12.403 -10.297  1.00 26.04 LIG 0.20  C 
BRANCH 46 47
ATOM     47  N   SER B 154      37.204 -11.523 -11.120  1.00 29.08 LIG-0.34  N 
ATOM     48 H    SER B 154      36.822 -11.252 -11.842  1.00 29.08 LIG 0.16  HD
ATOM     49  C   VAL B 153      38.439 -11.183 -10.763  1.00 31.74 LIG 0.26  C 
ATOM     50 O    VAL B 153      38.972 -11.584  -9.731  1.00 31.76 LIG-0.27  OA
BRANCH 49 51
ATOM     51  CA  VAL B 153      39.187 -10.254 -11.714  1.00 34.29 LIG 0.40  C 
ATOM     52  N   VAL B 153      39.090 -10.755 -13.114  1.00 34.52 LIG 0.61  N 
BRANCH 51 53
ATOM     53  CB  VAL B 153      38.591  -8.832 -11.586  1.00 36.17 LIG 0.03  C 
ATOM     54  CG2 VAL B 153      39.513  -7.819 -12.238  1.00 38.03 LIG 0.01  C 
ATOM     55  CG1 VAL B 153      38.374  -8.487 -10.122  1.00 38.39 LIG 0.01  C 
ENDBRANCH 51 53
ENDBRANCH 49 51
ENDBRANCH 46 47
BRANCH 46 56
ATOM     56  CB  SER B 154      34.921 -12.345 -10.751  1.00 27.48 LIG 0.20  C 
BRANCH 56 57
ATOM     57 OG   SER B 154      34.048 -12.220  -9.642  1.00 30.72 LIG-0.40  OA
ATOM     58 HG   SER B 154      33.453 -12.811  -9.685  1.00 30.72 LIG 0.21  HD
ENDBRANCH 56 57
ENDBRANCH 46 56
ENDBRANCH 44 46
ENDBRANCH 37 39
ENDBRANCH 34 35
BRANCH 34 59
ATOM     59  CB  SER B 156      35.633 -20.600  -9.579  1.00 16.81 LIG 0.20  C 
BRANCH 59 60
ATOM     60 OG   SER B 156      36.709 -21.242 -10.248  1.00 16.65 LIG-0.40  OA
ATOM     61 HG   SER B 156      36.445 -21.972 -10.569  1.00 16.65 LIG 0.21  HD
ENDBRANCH 59 60
ENDBRANCH 34 59
ENDBRANCH 1 34
TORSDOF 24
ENDMDL
MODEL 22
USER: ADFR SOLUTION from run 121
USER: SCORE 16.864451 LL:  -3.863 LR: -13.777 RR:   0.000 FEB:  -6.618
USER: RMSD 12.755181
USER: SEED 120
USER: STATUS searching
USER: GENES 26
USER: genes 0 Translation |==|  0.33108 0.54045 0.55795
USER: genes 1 Rotation |==|  0.46090 0.98674 0.58652 0.56376
USER: genes 2 Torsion [C]-N--CA-[C] |==|  0.76674
USER: genes 3 Torsion [N]-CA--C-[N] |==|  0.49444
USER: genes 4 Torsion [C]-N--CA-[C] |==|  0.79740
USER: genes 5 Torsion [N]-CA--C-[N] |==|  0.28134
USER: genes 6 Torsion [C]-N--CA-[CB] |==|  0.43042
USER: genes 7 Torsion [N]-CA--C-[O] |==|  0.54040
USER: genes 8 Torsion [N]-CA--CB-[CG] |==|  0.09539
USER: genes 9 Torsion [CA]-CB--CG-[CD2] |==|  0.22455
USER: genes 10 Torsion [CE2]-CZ--OH-[HH] |==|  0.24539
USER: genes 11 Torsion [N]-CA--CB-[OG] |==|  0.86615
USER: genes 12 Torsion [CA]-CB--OG-[HG] |==|  0.83956
USER: genes 13 Torsion [N]-CA--CB-[CG2] |==|  0.55953
USER: genes 14 Torsion [CA]-CB--OG1-[HG1] |==|  0.07731
USER: genes 15 Torsion [N]-C--CA-[N] |==|  0.34664
USER: genes 16 Torsion [C]-CA--N-[C] |==|  0.78901
USER: genes 17 Torsion [N]-C--CA-[CB] |==|  0.63248
USER: genes 18 Torsion [N]-C--CA-[N] |==|  0.10310
USER: genes 19 Torsion [C]-CA--N-[C] |==|  0.17761
USER: genes 20 Torsion [N]-C--CA-[N] |==|  0.91131
USER: genes 21 Torsion [C]-CA--CB-[CG2] |==|  0.66740
USER: genes 22 Torsion [C]-CA--CB-[OG] |==|  0.27689
USER: genes 23 Torsion [CA]-CB--OG-[HG] |==|  0.59147
USER: genes 24 Torsion [C]-CA--CB-[OG] |==|  0.20582
USER: genes 25 Torsion [CA]-CB--OG-[HG] |==|  0.85242
ROOT
ATOM      1  C   SER B 156      34.279 -15.429  -8.612  1.00 15.87 LIG 0.24  C 
ATOM      2 O    SER B 156      34.892 -15.539  -7.549  1.00 15.60 LIG-0.27  OA
ATOM      3  N   THR B 157      32.995 -15.089  -8.681  1.00 16.26 LIG-0.34  N 
ATOM      4 H    THR B 157      32.564 -14.970  -9.416  1.00 16.26 LIG 0.16  HD
ENDROOT
BRANCH 3 5
ATOM      5  CA  THR B 157      32.207 -14.888  -7.477  1.00 15.91 LIG 0.20  C 
BRANCH 5 6
ATOM      6  C   THR B 157      31.756 -16.295  -7.097  1.00 16.14 LIG 0.24  C 
ATOM      7 O    THR B 157      32.061 -17.259  -7.807  1.00 15.69 LIG-0.27  OA
ATOM      8  N   SER B 158      31.038 -16.420  -5.988  1.00 15.14 LIG-0.34  N 
ATOM      9 H    SER B 158      30.813 -15.763  -5.480  1.00 15.14 LIG 0.16  HD
BRANCH 8 10
ATOM     10  CA  SER B 158      30.564 -17.726  -5.542  1.00 18.36 LIG 0.20  C 
BRANCH 10 11
ATOM     11  C   SER B 158      29.427 -18.227  -6.427  1.00 20.96 LIG 0.24  C 
ATOM     12 O    SER B 158      28.281 -17.797  -6.284  1.00 20.92 LIG-0.27  OA
ATOM     13  N   TYR B 159      29.750 -19.135  -7.342  1.00 23.40 LIG-0.35  N 
ATOM     14 H    TYR B 159      30.546 -19.444  -7.452  1.00 23.40 LIG 0.16  HD
BRANCH 13 15
ATOM     15  CA  TYR B 159      28.755 -19.692  -8.254  1.00 28.83 LIG 0.17  C 
BRANCH 15 16
ATOM     16  C   TYR B 159      27.999 -20.842  -7.600  1.00 30.09 LIG 0.22  C 
ATOM     17 O    TYR B 159      27.327 -21.577  -8.354  1.00 33.46 LIG-0.29  OA
ENDBRANCH 15 16
BRANCH 15 18
ATOM     18  CB  TYR B 159      29.430 -20.188  -9.535  1.00 32.38 LIG 0.07  C 
BRANCH 18 19
ATOM     19  CG  TYR B 159      30.812 -20.762  -9.309  1.00 36.58 LIG-0.06  A 
ATOM     20  CD2 TYR B 159      30.980 -22.068  -8.850  1.00 38.67 LIG 0.01  A 
ATOM     21  CE2 TYR B 159      32.251 -22.603  -8.652  1.00 40.79 LIG 0.04  A 
ATOM     22  CZ  TYR B 159      33.369 -21.827  -8.913  1.00 41.05 LIG 0.07  A 
ATOM     23  CE1 TYR B 159      33.228 -20.526  -9.369  1.00 40.09 LIG 0.04  A 
ATOM     24  CD1 TYR B 159      31.952 -20.002  -9.566  1.00 38.09 LIG 0.01  A 
BRANCH 22 25
ATOM     25 OH   TYR B 159      34.627 -22.350  -8.718  1.00 43.66 LIG-0.36  OA
ATOM     26 HH   TYR B 159      34.881 -22.737  -9.419  1.00 43.66 LIG 0.22  HD
ENDBRANCH 22 25
ENDBRANCH 18 19
ENDBRANCH 15 18
ENDBRANCH 13 15
ENDBRANCH 10 11
BRANCH 10 27
ATOM     27  CB  SER B 158      30.085 -17.646  -4.092  1.00 15.79 LIG 0.20  C 
BRANCH 27 28
ATOM     28 OG   SER B 158      31.038 -16.984  -3.279  1.00 17.90 LIG-0.40  OA
ATOM     29 HG   SER B 158      31.774 -17.388  -3.325  1.00 17.90 LIG 0.21  HD
ENDBRANCH 27 28
ENDBRANCH 10 27
ENDBRANCH 8 10
ENDBRANCH 5 6
BRANCH 5 30
ATOM     30  CB  THR B 157      30.955 -14.022  -7.739  1.00 18.18 LIG 0.15  C 
ATOM     31  CG2 THR B 157      30.455 -13.397  -6.448  1.00 16.96 LIG 0.04  C 
BRANCH 30 32
ATOM     32 OG1  THR B 157      31.276 -12.991  -8.683  1.00 15.90 LIG-0.39  OA
ATOM     33 HG1  THR B 157      31.899 -13.253  -9.183  1.00 15.90 LIG 0.21  HD
ENDBRANCH 30 32
ENDBRANCH 5 30
ENDBRANCH 3 5
BRANCH 1 34
ATOM     34  CA  SER B 156      34.977 -15.677  -9.938  1.00 16.58 LIG 0.20  C 
BRANCH 34 35
ATOM     35  N   SER B 156      36.151 -14.817 -10.003  1.00 15.80 LIG-0.34  N 
ATOM     36 H    SER B 156      36.895 -15.227  -9.868  1.00 15.80 LIG 0.16  HD
ATOM     37  C   PRO B 155      36.063 -13.514 -10.251  1.00 18.36 LIG 0.24  C 
ATOM     38 O    PRO B 155      34.993 -12.931 -10.433  1.00 18.57 LIG-0.27  OA
BRANCH 37 39
ATOM     39  CA  PRO B 155      37.380 -12.750 -10.288  1.00 19.30 LIG 0.18  C 
ATOM     40  CB  PRO B 155      37.324 -11.469  -9.465  1.00 17.99 LIG 0.04  C 
ATOM     41  CG  PRO B 155      36.730 -10.498 -10.440  1.00 20.29 LIG 0.02  C 
ATOM     42  CD  PRO B 155      37.493 -10.802 -11.722  1.00 20.15 LIG 0.13  C 
ATOM     43  N   PRO B 155      37.700 -12.260 -11.634  1.00 20.34 LIG-0.34  N 
ATOM     44  C   SER B 154      38.192 -13.061 -12.594  1.00 23.17 LIG 0.24  C 
ATOM     45 O    SER B 154      38.405 -14.258 -12.403  1.00 21.43 LIG-0.27  OA
BRANCH 44 46
ATOM     46  CA  SER B 154      38.482 -12.425 -13.951  1.00 26.04 LIG 0.20  C 
BRANCH 46 47
ATOM     47  N   SER B 154      39.007 -11.070 -13.811  1.00 29.08 LIG-0.34  N 
ATOM     48 H    SER B 154      38.500 -10.458 -14.141  1.00 29.08 LIG 0.16  HD
ATOM     49  C   VAL B 153      40.173 -10.829 -13.221  1.00 31.74 LIG 0.26  C 
ATOM     50 O    VAL B 153      40.887 -11.717 -12.761  1.00 31.76 LIG-0.27  OA
BRANCH 49 51
ATOM     51  CA  VAL B 153      40.600  -9.367 -13.140  1.00 34.29 LIG 0.40  C 
ATOM     52  N   VAL B 153      40.094  -8.611 -14.319  1.00 34.52 LIG 0.61  N 
BRANCH 51 53
ATOM     53  CB  VAL B 153      40.063  -8.768 -11.817  1.00 36.17 LIG 0.03  C 
ATOM     54  CG2 VAL B 153      39.132  -7.607 -12.111  1.00 38.03 LIG 0.01  C 
ATOM     55  CG1 VAL B 153      41.221  -8.312 -10.943  1.00 38.39 LIG 0.01  C 
ENDBRANCH 51 53
ENDBRANCH 49 51
ENDBRANCH 46 47
BRANCH 46 56
ATOM     56  CB  SER B 154      39.474 -13.303 -14.719  1.00 27.48 LIG 0.20  C 
BRANCH 56 57
ATOM     57 OG   SER B 154      38.805 -14.115 -15.668  1.00 30.72 LIG-0.40  OA
ATOM     58 HG   SER B 154      39.209 -14.847 -15.746  1.00 30.72 LIG 0.21  HD
ENDBRANCH 56 57
ENDBRANCH 46 56
ENDBRANCH 44 46
ENDBRANCH 37 39
ENDBRANCH 34 35
BRANCH 34 59
ATOM     59  CB  SER B 156      35.391 -17.148  -9.991  1.00 16.81 LIG 0.20  C 
BRANCH 59 60
ATOM     60 OG   SER B 156      34.259 -17.977 -10.213  1.00 16.65 LIG-0.40  OA
ATOM     61 HG   SER B 156      33.668 -17.804  -9.642  1.00 16.65 LIG 0.21  HD
ENDBRANCH 59 60
ENDBRANCH 34 59
ENDBRANCH 1 34
TORSDOF 24
ENDMDL
MODEL 23
USER: ADFR SOLUTION from run 96
USER: SCORE 17.342335 LL:  -4.033 LR: -13.774 RR:   0.000 FEB:  -6.615
USER: RMSD 6.534013
USER: SEED 95
USER: STATUS searching
USER: GENES 26
USER: genes 0 Translation |==|  0.44137 0.64123 0.44163
USER: genes 1 Rotation |==|  0.13556 0.28786 0.76552 0.54097
USER: genes 2 Torsion [C]-N--CA-[C] |==|  0.75909
USER: genes 3 Torsion [N]-CA--C-[N] |==|  0.88368
USER: genes 4 Torsion [C]-N--CA-[C] |==|  0.15526
USER: genes 5 Torsion [N]-CA--C-[N] |==|  0.14444
USER: genes 6 Torsion [C]-N--CA-[CB] |==|  0.42941
USER: genes 7 Torsion [N]-CA--C-[O] |==|  0.11075
USER: genes 8 Torsion [N]-CA--CB-[CG] |==|  0.26086
USER: genes 9 Torsion [CA]-CB--CG-[CD2] |==|  0.28212
USER: genes 10 Torsion [CE2]-CZ--OH-[HH] |==|  0.44984
USER: genes 11 Torsion [N]-CA--CB-[OG] |==|  0.69770
USER: genes 12 Torsion [CA]-CB--OG-[HG] |==|  0.00383
USER: genes 13 Torsion [N]-CA--CB-[CG2] |==|  0.77506
USER: genes 14 Torsion [CA]-CB--OG1-[HG1] |==|  0.16928
USER: genes 15 Torsion [N]-C--CA-[N] |==|  0.45068
USER: genes 16 Torsion [C]-CA--N-[C] |==|  0.74209
USER: genes 17 Torsion [N]-C--CA-[CB] |==|  0.49844
USER: genes 18 Torsion [N]-C--CA-[N] |==|  0.43471
USER: genes 19 Torsion [C]-CA--N-[C] |==|  0.79652
USER: genes 20 Torsion [N]-C--CA-[N] |==|  0.46308
USER: genes 21 Torsion [C]-CA--CB-[CG2] |==|  0.88041
USER: genes 22 Torsion [C]-CA--CB-[OG] |==|  0.86089
USER: genes 23 Torsion [CA]-CB--OG-[HG] |==|  0.23361
USER: genes 24 Torsion [C]-CA--CB-[OG] |==|  0.57981
USER: genes 25 Torsion [CA]-CB--OG-[HG] |==|  0.92404
ROOT
ATOM      1  C   SER B 156      37.339 -13.087 -11.055  1.00 15.87 LIG 0.24  C 
ATOM      2 O    SER B 156      38.066 -13.483 -10.143  1.00 15.60 LIG-0.27  OA
ATOM      3  N   THR B 157      37.805 -12.543 -12.175  1.00 16.26 LIG-0.34  N 
ATOM      4 H    THR B 157      37.313 -12.299 -12.836  1.00 16.26 LIG 0.16  HD
ENDROOT
BRANCH 3 5
ATOM      5  CA  THR B 157      39.228 -12.318 -12.364  1.00 15.91 LIG 0.20  C 
BRANCH 5 6
ATOM      6  C   THR B 157      39.467 -10.948 -11.737  1.00 16.14 LIG 0.24  C 
ATOM      7 O    THR B 157      40.468 -10.748 -11.042  1.00 15.69 LIG-0.27  OA
ATOM      8  N   SER B 158      38.561 -10.008 -11.978  1.00 15.14 LIG-0.34  N 
ATOM      9 H    SER B 158      37.858 -10.125 -12.457  1.00 15.14 LIG 0.16  HD
BRANCH 8 10
ATOM     10  CA  SER B 158      38.706  -8.666 -11.424  1.00 18.36 LIG 0.20  C 
BRANCH 10 11
ATOM     11  C   SER B 158      40.043  -8.049 -11.826  1.00 20.96 LIG 0.24  C 
ATOM     12 O    SER B 158      40.799  -7.575 -10.976  1.00 20.92 LIG-0.27  OA
ATOM     13  N   TYR B 159      40.328  -8.061 -13.124  1.00 23.40 LIG-0.35  N 
ATOM     14 H    TYR B 159      39.809  -8.387 -13.727  1.00 23.40 LIG 0.16  HD
BRANCH 13 15
ATOM     15  CA  TYR B 159      41.577  -7.505 -13.638  1.00 28.83 LIG 0.17  C 
BRANCH 15 16
ATOM     16  C   TYR B 159      41.461  -5.999 -13.839  1.00 30.09 LIG 0.22  C 
ATOM     17 O    TYR B 159      40.838  -5.359 -12.965  1.00 33.46 LIG-0.29  OA
ENDBRANCH 15 16
BRANCH 15 18
ATOM     18  CB  TYR B 159      41.945  -8.171 -14.967  1.00 32.38 LIG 0.07  C 
BRANCH 18 19
ATOM     19  CG  TYR B 159      41.456  -7.411 -16.181  1.00 36.58 LIG-0.06  A 
ATOM     20  CD2 TYR B 159      42.325  -6.613 -16.924  1.00 38.67 LIG 0.01  A 
ATOM     21  CE2 TYR B 159      41.881  -5.921 -18.050  1.00 40.79 LIG 0.04  A 
ATOM     22  CZ  TYR B 159      40.555  -6.025 -18.438  1.00 41.05 LIG 0.07  A 
ATOM     23  CE1 TYR B 159      39.672  -6.810 -17.714  1.00 40.09 LIG 0.04  A 
ATOM     24  CD1 TYR B 159      40.127  -7.500 -16.592  1.00 38.09 LIG 0.01  A 
BRANCH 22 25
ATOM     25 OH   TYR B 159      40.110  -5.343 -19.548  1.00 43.66 LIG-0.36  OA
ATOM     26 HH   TYR B 159      39.384  -5.676 -19.810  1.00 43.66 LIG 0.22  HD
ENDBRANCH 22 25
ENDBRANCH 18 19
ENDBRANCH 15 18
ENDBRANCH 13 15
ENDBRANCH 10 11
BRANCH 10 27
ATOM     27  CB  SER B 158      38.602  -8.711  -9.898  1.00 15.79 LIG 0.20  C 
BRANCH 27 28
ATOM     28 OG   SER B 158      37.385  -8.137  -9.456  1.00 17.90 LIG-0.40  OA
ATOM     29 HG   SER B 158      36.933  -7.893 -10.120  1.00 17.90 LIG 0.21  HD
ENDBRANCH 27 28
ENDBRANCH 10 27
ENDBRANCH 8 10
ENDBRANCH 5 6
BRANCH 5 30
ATOM     30  CB  THR B 157      39.613 -12.253 -13.858  1.00 18.18 LIG 0.15  C 
ATOM     31  CG2 THR B 157      39.753 -13.650 -14.438  1.00 16.96 LIG 0.04  C 
BRANCH 30 32
ATOM     32 OG1  THR B 157      38.609 -11.527 -14.579  1.00 15.90 LIG-0.39  OA
ATOM     33 HG1  THR B 157      38.559 -10.744 -14.279  1.00 15.90 LIG 0.21  HD
ENDBRANCH 30 32
ENDBRANCH 5 30
ENDBRANCH 3 5
BRANCH 1 34
ATOM     34  CA  SER B 156      35.829 -13.208 -10.948  1.00 16.58 LIG 0.20  C 
BRANCH 34 35
ATOM     35  N   SER B 156      35.521 -14.175  -9.903  1.00 15.80 LIG-0.34  N 
ATOM     36 H    SER B 156      35.476 -13.836  -9.114  1.00 15.80 LIG 0.16  HD
ATOM     37  C   PRO B 155      35.329 -15.464 -10.163  1.00 18.36 LIG 0.24  C 
ATOM     38 O    PRO B 155      35.406 -15.944 -11.295  1.00 18.57 LIG-0.27  OA
BRANCH 37 39
ATOM     39  CA  PRO B 155      35.014 -16.349  -8.964  1.00 19.30 LIG 0.18  C 
ATOM     40  CB  PRO B 155      34.798 -17.803  -9.364  1.00 17.99 LIG 0.04  C 
ATOM     41  CG  PRO B 155      33.349 -17.807  -9.751  1.00 20.29 LIG 0.02  C 
ATOM     42  CD  PRO B 155      32.704 -16.994  -8.637  1.00 20.15 LIG 0.13  C 
ATOM     43  N   PRO B 155      33.741 -15.991  -8.329  1.00 20.34 LIG-0.34  N 
ATOM     44  C   SER B 154      33.613 -14.927  -7.518  1.00 23.17 LIG 0.24  C 
ATOM     45 O    SER B 154      34.560 -14.185  -7.258  1.00 21.43 LIG-0.27  OA
BRANCH 44 46
ATOM     46  CA  SER B 154      32.233 -14.666  -6.922  1.00 26.04 LIG 0.20  C 
BRANCH 46 47
ATOM     47  N   SER B 154      32.315 -13.886  -5.692  1.00 29.08 LIG-0.34  N 
ATOM     48 H    SER B 154      32.058 -13.069  -5.772  1.00 29.08 LIG 0.16  HD
ATOM     49  C   VAL B 153      32.754 -14.417  -4.555  1.00 31.74 LIG 0.26  C 
ATOM     50 O    VAL B 153      33.122 -15.585  -4.460  1.00 31.76 LIG-0.27  OA
BRANCH 49 51
ATOM     51  CA  VAL B 153      32.786 -13.490  -3.344  1.00 34.29 LIG 0.40  C 
ATOM     52  N   VAL B 153      32.983 -14.275  -2.093  1.00 34.52 LIG 0.61  N 
BRANCH 51 53
ATOM     53  CB  VAL B 153      33.922 -12.457  -3.542  1.00 36.17 LIG 0.03  C 
ATOM     54  CG2 VAL B 153      35.162 -13.144  -4.083  1.00 38.03 LIG 0.01  C 
ATOM     55  CG1 VAL B 153      34.231 -11.762  -2.225  1.00 38.39 LIG 0.01  C 
ENDBRANCH 51 53
ENDBRANCH 49 51
ENDBRANCH 46 47
BRANCH 46 56
ATOM     56  CB  SER B 154      31.365 -13.942  -7.955  1.00 27.48 LIG 0.20  C 
BRANCH 56 57
ATOM     57 OG   SER B 154      32.044 -12.821  -8.494  1.00 30.72 LIG-0.40  OA
ATOM     58 HG   SER B 154      32.541 -13.070  -9.123  1.00 30.72 LIG 0.21  HD
ENDBRANCH 56 57
ENDBRANCH 46 56
ENDBRANCH 44 46
ENDBRANCH 37 39
ENDBRANCH 34 35
BRANCH 34 59
ATOM     59  CB  SER B 156      35.265 -11.833 -10.585  1.00 16.81 LIG 0.20  C 
BRANCH 59 60
ATOM     60 OG   SER B 156      34.057 -11.969  -9.851  1.00 16.65 LIG-0.40  OA
ATOM     61 HG   SER B 156      33.682 -12.692 -10.059  1.00 16.65 LIG 0.21  HD
ENDBRANCH 59 60
ENDBRANCH 34 59
ENDBRANCH 1 34
TORSDOF 24
ENDMDL
MODEL 24
USER: ADFR SOLUTION from run 15
USER: SCORE 16.366193 LL:  -3.771 LR: -13.764 RR:   0.000 FEB:  -6.604
USER: RMSD 12.946943
USER: SEED 704773
USER: STATUS no improvement in best in 12 clusters for 5 generations
USER: GENES 26
USER: genes 0 Translation |==|  0.32580 0.58944 0.56797
USER: genes 1 Rotation |==|  0.37497 0.98370 0.49361 0.51905
USER: genes 2 Torsion [C]-N--CA-[C] |==|  0.75622
USER: genes 3 Torsion [N]-CA--C-[N] |==|  0.85507
USER: genes 4 Torsion [C]-N--CA-[C] |==|  0.57108
USER: genes 5 Torsion [N]-CA--C-[N] |==|  0.06460
USER: genes 6 Torsion [C]-N--CA-[CB] |==|  0.25348
USER: genes 7 Torsion [N]-CA--C-[O] |==|  0.73478
USER: genes 8 Torsion [N]-CA--CB-[CG] |==|  0.76164
USER: genes 9 Torsion [CA]-CB--CG-[CD2] |==|  0.74567
USER: genes 10 Torsion [CE2]-CZ--OH-[HH] |==|  0.28425
USER: genes 11 Torsion [N]-CA--CB-[OG] |==|  0.99733
USER: genes 12 Torsion [CA]-CB--OG-[HG] |==|  0.68626
USER: genes 13 Torsion [N]-CA--CB-[CG2] |==|  0.56943
USER: genes 14 Torsion [CA]-CB--OG1-[HG1] |==|  0.97166
USER: genes 15 Torsion [N]-C--CA-[N] |==|  0.43070
USER: genes 16 Torsion [C]-CA--N-[C] |==|  0.78627
USER: genes 17 Torsion [N]-C--CA-[CB] |==|  0.67831
USER: genes 18 Torsion [N]-C--CA-[N] |==|  0.11329
USER: genes 19 Torsion [C]-CA--N-[C] |==|  0.17756
USER: genes 20 Torsion [N]-C--CA-[N] |==|  0.78576
USER: genes 21 Torsion [C]-CA--CB-[CG2] |==|  0.62496
USER: genes 22 Torsion [C]-CA--CB-[OG] |==|  0.12917
USER: genes 23 Torsion [CA]-CB--OG-[HG] |==|  0.15519
USER: genes 24 Torsion [C]-CA--CB-[OG] |==|  0.46800
USER: genes 25 Torsion [CA]-CB--OG-[HG] |==|  0.58441
ROOT
ATOM      1  C   SER B 156      34.132 -14.291  -8.402  1.00 15.87 LIG 0.24  C 
ATOM      2 O    SER B 156      34.763 -13.765  -7.483  1.00 15.60 LIG-0.27  OA
ATOM      3  N   THR B 157      32.807 -14.398  -8.407  1.00 16.26 LIG-0.34  N 
ATOM      4 H    THR B 157      32.350 -14.726  -9.058  1.00 16.26 LIG 0.16  HD
ENDROOT
BRANCH 3 5
ATOM      5  CA  THR B 157      32.013 -13.953  -7.275  1.00 15.91 LIG 0.20  C 
BRANCH 5 6
ATOM      6  C   THR B 157      31.969 -15.172  -6.358  1.00 16.14 LIG 0.24  C 
ATOM      7 O    THR B 157      32.287 -15.068  -5.169  1.00 15.69 LIG-0.27  OA
ATOM      8  N   SER B 158      31.578 -16.319  -6.899  1.00 15.14 LIG-0.34  N 
ATOM      9 H    SER B 158      31.353 -16.414  -7.723  1.00 15.14 LIG 0.16  HD
BRANCH 8 10
ATOM     10  CA  SER B 158      31.501 -17.538  -6.101  1.00 18.36 LIG 0.20  C 
BRANCH 10 11
ATOM     11  C   SER B 158      31.656 -18.777  -6.978  1.00 20.96 LIG 0.24  C 
ATOM     12 O    SER B 158      31.211 -19.867  -6.613  1.00 20.92 LIG-0.27  OA
ATOM     13  N   TYR B 159      32.285 -18.603  -8.136  1.00 23.40 LIG-0.35  N 
ATOM     14 H    TYR B 159      32.602 -17.848  -8.402  1.00 23.40 LIG 0.16  HD
BRANCH 13 15
ATOM     15  CA  TYR B 159      32.495 -19.707  -9.068  1.00 28.83 LIG 0.17  C 
BRANCH 15 16
ATOM     16  C   TYR B 159      33.804 -19.537  -9.830  1.00 30.09 LIG 0.22  C 
ATOM     17 O    TYR B 159      33.735 -18.998 -10.955  1.00 33.46 LIG-0.29  OA
ENDBRANCH 15 16
BRANCH 15 18
ATOM     18  CB  TYR B 159      31.333 -19.788 -10.061  1.00 32.38 LIG 0.07  C 
BRANCH 18 19
ATOM     19  CG  TYR B 159      30.156 -20.591  -9.554  1.00 36.58 LIG-0.06  A 
ATOM     20  CD2 TYR B 159      30.054 -21.958  -9.813  1.00 38.67 LIG 0.01  A 
ATOM     21  CE2 TYR B 159      28.977 -22.703  -9.337  1.00 40.79 LIG 0.04  A 
ATOM     22  CZ  TYR B 159      27.987 -22.077  -8.596  1.00 41.05 LIG 0.07  A 
ATOM     23  CE1 TYR B 159      28.064 -20.720  -8.327  1.00 40.09 LIG 0.04  A 
ATOM     24  CD1 TYR B 159      29.147 -19.986  -8.805  1.00 38.09 LIG 0.01  A 
BRANCH 22 25
ATOM     25 OH   TYR B 159      26.920 -22.808  -8.124  1.00 43.66 LIG-0.36  OA
ATOM     26 HH   TYR B 159      27.029 -22.968  -7.307  1.00 43.66 LIG 0.22  HD
ENDBRANCH 22 25
ENDBRANCH 18 19
ENDBRANCH 15 18
ENDBRANCH 13 15
ENDBRANCH 10 11
BRANCH 10 27
ATOM     27  CB  SER B 158      30.164 -17.600  -5.360  1.00 15.79 LIG 0.20  C 
BRANCH 27 28
ATOM     28 OG   SER B 158      29.381 -16.453  -5.633  1.00 17.90 LIG-0.40  OA
ATOM     29 HG   SER B 158      29.302 -15.994  -4.934  1.00 17.90 LIG 0.21  HD
ENDBRANCH 27 28
ENDBRANCH 10 27
ENDBRANCH 8 10
ENDBRANCH 5 6
BRANCH 5 30
ATOM     30  CB  THR B 157      30.569 -13.589  -7.683  1.00 18.18 LIG 0.15  C 
ATOM     31  CG2 THR B 157      29.969 -12.593  -6.705  1.00 16.96 LIG 0.04  C 
BRANCH 30 32
ATOM     32 OG1  THR B 157      30.573 -13.028  -9.003  1.00 15.90 LIG-0.39  OA
ATOM     33 HG1  THR B 157      31.364 -12.878  -9.241  1.00 15.90 LIG 0.21  HD
ENDBRANCH 30 32
ENDBRANCH 5 30
ENDBRANCH 3 5
BRANCH 1 34
ATOM     34  CA  SER B 156      34.853 -14.853  -9.614  1.00 16.58 LIG 0.20  C 
BRANCH 34 35
ATOM     35  N   SER B 156      36.130 -14.163  -9.746  1.00 15.80 LIG-0.34  N 
ATOM     36 H    SER B 156      36.807 -14.621  -9.480  1.00 15.80 LIG 0.16  HD
ATOM     37  C   PRO B 155      36.223 -12.931 -10.239  1.00 18.36 LIG 0.24  C 
ATOM     38 O    PRO B 155      35.248 -12.276 -10.609  1.00 18.57 LIG-0.27  OA
BRANCH 37 39
ATOM     39  CA  PRO B 155      37.627 -12.346 -10.314  1.00 19.30 LIG 0.18  C 
ATOM     40  CB  PRO B 155      37.790 -11.129  -9.412  1.00 17.99 LIG 0.04  C 
ATOM     41  CG  PRO B 155      37.279 -10.023 -10.285  1.00 20.29 LIG 0.02  C 
ATOM     42  CD  PRO B 155      37.921 -10.335 -11.630  1.00 20.15 LIG 0.13  C 
ATOM     43  N   PRO B 155      37.934 -11.810 -11.645  1.00 20.34 LIG-0.34  N 
ATOM     44  C   SER B 154      38.259 -12.599 -12.683  1.00 23.17 LIG 0.24  C 
ATOM     45 O    SER B 154      38.318 -13.824 -12.580  1.00 21.43 LIG-0.27  OA
BRANCH 44 46
ATOM     46  CA  SER B 154      38.556 -11.914 -14.014  1.00 26.04 LIG 0.20  C 
BRANCH 46 47
ATOM     47  N   SER B 154      39.340 -10.697 -13.832  1.00 29.08 LIG-0.34  N 
ATOM     48 H    SER B 154      38.935  -9.976 -14.068  1.00 29.08 LIG 0.16  HD
ATOM     49  C   VAL B 153      40.574 -10.727 -13.339  1.00 31.74 LIG 0.26  C 
ATOM     50 O    VAL B 153      41.139 -11.768 -13.012  1.00 31.76 LIG-0.27  OA
BRANCH 49 51
ATOM     51  CA  VAL B 153      41.279  -9.381 -13.199  1.00 34.29 LIG 0.40  C 
ATOM     52  N   VAL B 153      41.768  -8.909 -14.524  1.00 34.52 LIG 0.61  N 
BRANCH 51 53
ATOM     53  CB  VAL B 153      40.290  -8.368 -12.573  1.00 36.17 LIG 0.03  C 
ATOM     54  CG2 VAL B 153      40.350  -7.051 -13.322  1.00 38.03 LIG 0.01  C 
ATOM     55  CG1 VAL B 153      40.617  -8.159 -11.103  1.00 38.39 LIG 0.01  C 
ENDBRANCH 51 53
ENDBRANCH 49 51
ENDBRANCH 46 47
BRANCH 46 56
ATOM     56  CB  SER B 154      39.295 -12.891 -14.932  1.00 27.48 LIG 0.20  C 
BRANCH 56 57
ATOM     57 OG   SER B 154      38.668 -14.162 -14.933  1.00 30.72 LIG-0.40  OA
ATOM     58 HG   SER B 154      37.862 -14.076 -15.150  1.00 30.72 LIG 0.21  HD
ENDBRANCH 56 57
ENDBRANCH 46 56
ENDBRANCH 44 46
ENDBRANCH 37 39
ENDBRANCH 34 35
BRANCH 34 59
ATOM     59  CB  SER B 156      35.078 -16.348  -9.384  1.00 16.81 LIG 0.20  C 
BRANCH 59 60
ATOM     60 OG   SER B 156      35.507 -16.977 -10.582  1.00 16.65 LIG-0.40  OA
ATOM     61 HG   SER B 156      35.240 -17.774 -10.592  1.00 16.65 LIG 0.21  HD
ENDBRANCH 59 60
ENDBRANCH 34 59
ENDBRANCH 1 34
TORSDOF 24
ENDMDL
MODEL 25
USER: ADFR SOLUTION from run 134
USER: SCORE 16.820710 LL:  -3.962 LR: -13.751 RR:   0.000 FEB:  -6.592
USER: RMSD 12.486938
USER: SEED 133
USER: STATUS no improvement in best in 4 clusters for 5 generations
USER: GENES 26
USER: genes 0 Translation |==|  0.38455 0.61237 0.56696
USER: genes 1 Rotation |==|  0.28609 0.83291 0.80297 0.54029
USER: genes 2 Torsion [C]-N--CA-[C] |==|  0.73952
USER: genes 3 Torsion [N]-CA--C-[N] |==|  0.34164
USER: genes 4 Torsion [C]-N--CA-[C] |==|  0.80717
USER: genes 5 Torsion [N]-CA--C-[N] |==|  0.98263
USER: genes 6 Torsion [C]-N--CA-[CB] |==|  0.31041
USER: genes 7 Torsion [N]-CA--C-[O] |==|  0.12741
USER: genes 8 Torsion [N]-CA--CB-[CG] |==|  0.73906
USER: genes 9 Torsion [CA]-CB--CG-[CD2] |==|  0.20595
USER: genes 10 Torsion [CE2]-CZ--OH-[HH] |==|  0.70723
USER: genes 11 Torsion [N]-CA--CB-[OG] |==|  0.05746
USER: genes 12 Torsion [CA]-CB--OG-[HG] |==|  0.35834
USER: genes 13 Torsion [N]-CA--CB-[CG2] |==|  0.85885
USER: genes 14 Torsion [CA]-CB--OG1-[HG1] |==|  0.86069
USER: genes 15 Torsion [N]-C--CA-[N] |==|  0.63605
USER: genes 16 Torsion [C]-CA--N-[C] |==|  0.16107
USER: genes 17 Torsion [N]-C--CA-[CB] |==|  0.24659
USER: genes 18 Torsion [N]-C--CA-[N] |==|  0.40470
USER: genes 19 Torsion [C]-CA--N-[C] |==|  0.71627
USER: genes 20 Torsion [N]-C--CA-[N] |==|  0.97367
USER: genes 21 Torsion [C]-CA--CB-[CG2] |==|  0.84727
USER: genes 22 Torsion [C]-CA--CB-[OG] |==|  0.66480
USER: genes 23 Torsion [CA]-CB--OG-[HG] |==|  0.19860
USER: genes 24 Torsion [C]-CA--CB-[OG] |==|  0.19921
USER: genes 25 Torsion [CA]-CB--OG-[HG] |==|  0.74063
ROOT
ATOM      1  C   SER B 156      35.762 -13.757  -8.423  1.00 15.87 LIG 0.24  C 
ATOM      2 O    SER B 156      36.581 -14.120  -7.576  1.00 15.60 LIG-0.27  OA
ATOM      3  N   THR B 157      34.689 -14.470  -8.751  1.00 16.26 LIG-0.34  N 
ATOM      4 H    THR B 157      34.089 -14.212  -9.310  1.00 16.26 LIG 0.16  HD
ENDROOT
BRANCH 3 5
ATOM      5  CA  THR B 157      34.449 -15.778  -8.165  1.00 15.91 LIG 0.20  C 
BRANCH 5 6
ATOM      6  C   THR B 157      35.063 -16.746  -9.173  1.00 16.14 LIG 0.24  C 
ATOM      7 O    THR B 157      34.686 -16.741 -10.349  1.00 15.69 LIG-0.27  OA
ATOM      8  N   SER B 158      36.000 -17.571  -8.723  1.00 15.14 LIG-0.34  N 
ATOM      9 H    SER B 158      36.277 -17.592  -7.909  1.00 15.14 LIG 0.16  HD
BRANCH 8 10
ATOM     10  CA  SER B 158      36.647 -18.530  -9.612  1.00 18.36 LIG 0.20  C 
BRANCH 10 11
ATOM     11  C   SER B 158      35.674 -19.628 -10.033  1.00 20.96 LIG 0.24  C 
ATOM     12 O    SER B 158      35.999 -20.469 -10.873  1.00 20.92 LIG-0.27  OA
ATOM     13  N   TYR B 159      34.483 -19.614  -9.444  1.00 23.40 LIG-0.35  N 
ATOM     14 H    TYR B 159      34.243 -19.032  -8.858  1.00 23.40 LIG 0.16  HD
BRANCH 13 15
ATOM     15  CA  TYR B 159      33.463 -20.612  -9.756  1.00 28.83 LIG 0.17  C 
BRANCH 15 16
ATOM     16  C   TYR B 159      32.149 -19.945 -10.145  1.00 30.09 LIG 0.22  C 
ATOM     17 O    TYR B 159      32.216 -18.995 -10.954  1.00 33.46 LIG-0.29  OA
ENDBRANCH 15 16
BRANCH 15 18
ATOM     18  CB  TYR B 159      33.233 -21.528  -8.551  1.00 32.38 LIG 0.07  C 
BRANCH 18 19
ATOM     19  CG  TYR B 159      34.057 -22.796  -8.588  1.00 36.58 LIG-0.06  A 
ATOM     20  CD2 TYR B 159      35.426 -22.770  -8.321  1.00 38.67 LIG 0.01  A 
ATOM     21  CE2 TYR B 159      36.186 -23.938  -8.342  1.00 40.79 LIG 0.04  A 
ATOM     22  CZ  TYR B 159      35.575 -25.147  -8.635  1.00 41.05 LIG 0.07  A 
ATOM     23  CE1 TYR B 159      34.217 -25.199  -8.904  1.00 40.09 LIG 0.04  A 
ATOM     24  CD1 TYR B 159      33.466 -24.025  -8.878  1.00 38.09 LIG 0.01  A 
BRANCH 22 25
ATOM     25 OH   TYR B 159      36.321 -26.304  -8.658  1.00 43.66 LIG-0.36  OA
ATOM     26 HH   TYR B 159      36.443 -26.542  -9.454  1.00 43.66 LIG 0.22  HD
ENDBRANCH 22 25
ENDBRANCH 18 19
ENDBRANCH 15 18
ENDBRANCH 13 15
ENDBRANCH 10 11
BRANCH 10 27
ATOM     27  CB  SER B 158      37.857 -19.159  -8.920  1.00 15.79 LIG 0.20  C 
BRANCH 27 28
ATOM     28 OG   SER B 158      37.761 -19.027  -7.513  1.00 17.90 LIG-0.40  OA
ATOM     29 HG   SER B 158      37.880 -19.776  -7.152  1.00 17.90 LIG 0.21  HD
ENDBRANCH 27 28
ENDBRANCH 10 27
ENDBRANCH 8 10
ENDBRANCH 5 6
BRANCH 5 30
ATOM     30  CB  THR B 157      32.943 -16.090  -8.035  1.00 18.18 LIG 0.15  C 
ATOM     31  CG2 THR B 157      32.216 -14.949  -7.344  1.00 16.96 LIG 0.04  C 
BRANCH 30 32
ATOM     32 OG1  THR B 157      32.383 -16.301  -9.338  1.00 15.90 LIG-0.39  OA
ATOM     33 HG1  THR B 157      32.603 -15.667  -9.843  1.00 15.90 LIG 0.21  HD
ENDBRANCH 30 32
ENDBRANCH 5 30
ENDBRANCH 3 5
BRANCH 1 34
ATOM     34  CA  SER B 156      35.937 -12.437  -9.152  1.00 16.58 LIG 0.20  C 
BRANCH 34 35
ATOM     35  N   SER B 156      37.303 -12.369  -9.653  1.00 15.80 LIG-0.34  N 
ATOM     36 H    SER B 156      37.748 -11.690  -9.370  1.00 15.80 LIG 0.16  HD
ATOM     37  C   PRO B 155      37.804 -13.285 -10.477  1.00 18.36 LIG 0.24  C 
ATOM     38 O    PRO B 155      37.157 -14.249 -10.888  1.00 18.57 LIG-0.27  OA
BRANCH 37 39
ATOM     39  CA  PRO B 155      39.248 -13.074 -10.912  1.00 19.30 LIG 0.18  C 
ATOM     40  CB  PRO B 155      40.237 -13.723  -9.952  1.00 17.99 LIG 0.04  C 
ATOM     41  CG  PRO B 155      40.395 -12.663  -8.905  1.00 20.29 LIG 0.02  C 
ATOM     42  CD  PRO B 155      40.528 -11.392  -9.733  1.00 20.15 LIG 0.13  C 
ATOM     43  N   PRO B 155      39.638 -11.660 -10.878  1.00 20.34 LIG-0.34  N 
ATOM     44  C   SER B 154      39.273 -10.788 -11.833  1.00 23.17 LIG 0.24  C 
ATOM     45 O    SER B 154      38.586 -11.124 -12.798  1.00 21.43 LIG-0.27  OA
BRANCH 44 46
ATOM     46  CA  SER B 154      39.745  -9.345 -11.677  1.00 26.04 LIG 0.20  C 
BRANCH 46 47
ATOM     47  N   SER B 154      40.026  -8.727 -12.969  1.00 29.08 LIG-0.34  N 
ATOM     48 H    SER B 154      39.326  -8.475 -13.401  1.00 29.08 LIG 0.16  HD
ATOM     49  C   VAL B 153      41.268  -8.578 -13.417  1.00 31.74 LIG 0.26  C 
ATOM     50 O    VAL B 153      42.256  -8.950 -12.789  1.00 31.76 LIG-0.27  OA
BRANCH 49 51
ATOM     51  CA  VAL B 153      41.419  -7.914 -14.782  1.00 34.29 LIG 0.40  C 
ATOM     52  N   VAL B 153      40.091  -7.769 -15.440  1.00 34.52 LIG 0.61  N 
BRANCH 51 53
ATOM     53  CB  VAL B 153      42.101  -6.538 -14.589  1.00 36.17 LIG 0.03  C 
ATOM     54  CG2 VAL B 153      41.321  -5.704 -13.590  1.00 38.03 LIG 0.01  C 
ATOM     55  CG1 VAL B 153      42.201  -5.812 -15.922  1.00 38.39 LIG 0.01  C 
ENDBRANCH 51 53
ENDBRANCH 49 51
ENDBRANCH 46 47
BRANCH 46 56
ATOM     56  CB  SER B 154      38.681  -8.543 -10.923  1.00 27.48 LIG 0.20  C 
BRANCH 56 57
ATOM     57 OG   SER B 154      38.216  -7.456 -11.704  1.00 30.72 LIG-0.40  OA
ATOM     58 HG   SER B 154      37.744  -7.745 -12.335  1.00 30.72 LIG 0.21  HD
ENDBRANCH 56 57
ENDBRANCH 46 56
ENDBRANCH 44 46
ENDBRANCH 37 39
ENDBRANCH 34 35
BRANCH 34 59
ATOM     59  CB  SER B 156      34.942 -12.399 -10.313  1.00 16.81 LIG 0.20  C 
BRANCH 59 60
ATOM     60 OG   SER B 156      33.617 -12.234  -9.829  1.00 16.65 LIG-0.40  OA
ATOM     61 HG   SER B 156      33.258 -12.987  -9.733  1.00 16.65 LIG 0.21  HD
ENDBRANCH 59 60
ENDBRANCH 34 59
ENDBRANCH 1 34
TORSDOF 24
ENDMDL
MODEL 26
USER: ADFR SOLUTION from run 96
USER: SCORE 17.151889 LL:  -3.925 LR: -13.731 RR:   0.000 FEB:  -6.572
USER: RMSD 5.771573
USER: SEED 95
USER: STATUS searching
USER: GENES 26
USER: genes 0 Translation |==|  0.44137 0.64123 0.44163
USER: genes 1 Rotation |==|  0.13556 0.28786 0.76552 0.54097
USER: genes 2 Torsion [C]-N--CA-[C] |==|  0.75909
USER: genes 3 Torsion [N]-CA--C-[N] |==|  0.88368
USER: genes 4 Torsion [C]-N--CA-[C] |==|  0.15526
USER: genes 5 Torsion [N]-CA--C-[N] |==|  0.14444
USER: genes 6 Torsion [C]-N--CA-[CB] |==|  0.42941
USER: genes 7 Torsion [N]-CA--C-[O] |==|  0.11075
USER: genes 8 Torsion [N]-CA--CB-[CG] |==|  0.26086
USER: genes 9 Torsion [CA]-CB--CG-[CD2] |==|  0.28212
USER: genes 10 Torsion [CE2]-CZ--OH-[HH] |==|  0.44984
USER: genes 11 Torsion [N]-CA--CB-[OG] |==|  0.69770
USER: genes 12 Torsion [CA]-CB--OG-[HG] |==|  0.00383
USER: genes 13 Torsion [N]-CA--CB-[CG2] |==|  0.77506
USER: genes 14 Torsion [CA]-CB--OG1-[HG1] |==|  0.16928
USER: genes 15 Torsion [N]-C--CA-[N] |==|  0.46448
USER: genes 16 Torsion [C]-CA--N-[C] |==|  0.73117
USER: genes 17 Torsion [N]-C--CA-[CB] |==|  0.93511
USER: genes 18 Torsion [N]-C--CA-[N] |==|  0.37256
USER: genes 19 Torsion [C]-CA--N-[C] |==|  0.84792
USER: genes 20 Torsion [N]-C--CA-[N] |==|  0.38597
USER: genes 21 Torsion [C]-CA--CB-[CG2] |==|  0.38419
USER: genes 22 Torsion [C]-CA--CB-[OG] |==|  0.54784
USER: genes 23 Torsion [CA]-CB--OG-[HG] |==|  0.14488
USER: genes 24 Torsion [C]-CA--CB-[OG] |==|  0.59141
USER: genes 25 Torsion [CA]-CB--OG-[HG] |==|  0.92265
ROOT
ATOM      1  C   SER B 156      37.339 -13.087 -11.055  1.00 15.87 LIG 0.24  C 
ATOM      2 O    SER B 156      38.066 -13.483 -10.143  1.00 15.60 LIG-0.27  OA
ATOM      3  N   THR B 157      37.805 -12.543 -12.175  1.00 16.26 LIG-0.34  N 
ATOM      4 H    THR B 157      37.313 -12.299 -12.836  1.00 16.26 LIG 0.16  HD
ENDROOT
BRANCH 3 5
ATOM      5  CA  THR B 157      39.228 -12.318 -12.364  1.00 15.91 LIG 0.20  C 
BRANCH 5 6
ATOM      6  C   THR B 157      39.467 -10.948 -11.737  1.00 16.14 LIG 0.24  C 
ATOM      7 O    THR B 157      40.468 -10.748 -11.042  1.00 15.69 LIG-0.27  OA
ATOM      8  N   SER B 158      38.561 -10.008 -11.978  1.00 15.14 LIG-0.34  N 
ATOM      9 H    SER B 158      37.858 -10.125 -12.457  1.00 15.14 LIG 0.16  HD
BRANCH 8 10
ATOM     10  CA  SER B 158      38.706  -8.666 -11.424  1.00 18.36 LIG 0.20  C 
BRANCH 10 11
ATOM     11  C   SER B 158      40.043  -8.049 -11.826  1.00 20.96 LIG 0.24  C 
ATOM     12 O    SER B 158      40.799  -7.575 -10.976  1.00 20.92 LIG-0.27  OA
ATOM     13  N   TYR B 159      40.328  -8.061 -13.124  1.00 23.40 LIG-0.35  N 
ATOM     14 H    TYR B 159      39.809  -8.387 -13.727  1.00 23.40 LIG 0.16  HD
BRANCH 13 15
ATOM     15  CA  TYR B 159      41.577  -7.505 -13.638  1.00 28.83 LIG 0.17  C 
BRANCH 15 16
ATOM     16  C   TYR B 159      41.461  -5.999 -13.839  1.00 30.09 LIG 0.22  C 
ATOM     17 O    TYR B 159      40.838  -5.359 -12.965  1.00 33.46 LIG-0.29  OA
ENDBRANCH 15 16
BRANCH 15 18
ATOM     18  CB  TYR B 159      41.944  -8.171 -14.967  1.00 32.38 LIG 0.07  C 
BRANCH 18 19
ATOM     19  CG  TYR B 159      41.456  -7.411 -16.181  1.00 36.58 LIG-0.06  A 
ATOM     20  CD2 TYR B 159      42.325  -6.613 -16.924  1.00 38.67 LIG 0.01  A 
ATOM     21  CE2 TYR B 159      41.881  -5.921 -18.050  1.00 40.79 LIG 0.04  A 
ATOM     22  CZ  TYR B 159      40.555  -6.025 -18.438  1.00 41.05 LIG 0.07  A 
ATOM     23  CE1 TYR B 159      39.672  -6.810 -17.714  1.00 40.09 LIG 0.04  A 
ATOM     24  CD1 TYR B 159      40.127  -7.500 -16.592  1.00 38.09 LIG 0.01  A 
BRANCH 22 25
ATOM     25 OH   TYR B 159      40.110  -5.343 -19.548  1.00 43.66 LIG-0.36  OA
ATOM     26 HH   TYR B 159      39.384  -5.676 -19.810  1.00 43.66 LIG 0.22  HD
ENDBRANCH 22 25
ENDBRANCH 18 19
ENDBRANCH 15 18
ENDBRANCH 13 15
ENDBRANCH 10 11
BRANCH 10 27
ATOM     27  CB  SER B 158      38.602  -8.711  -9.898  1.00 15.79 LIG 0.20  C 
BRANCH 27 28
ATOM     28 OG   SER B 158      37.385  -8.137  -9.456  1.00 17.90 LIG-0.40  OA
ATOM     29 HG   SER B 158      36.933  -7.893 -10.120  1.00 17.90 LIG 0.21  HD
ENDBRANCH 27 28
ENDBRANCH 10 27
ENDBRANCH 8 10
ENDBRANCH 5 6
BRANCH 5 30
ATOM     30  CB  THR B 157      39.613 -12.253 -13.858  1.00 18.18 LIG 0.15  C 
ATOM     31  CG2 THR B 157      39.753 -13.650 -14.438  1.00 16.96 LIG 0.04  C 
BRANCH 30 32
ATOM     32 OG1  THR B 157      38.609 -11.527 -14.579  1.00 15.90 LIG-0.39  OA
ATOM     33 HG1  THR B 157      38.559 -10.744 -14.279  1.00 15.90 LIG 0.21  HD
ENDBRANCH 30 32
ENDBRANCH 5 30
ENDBRANCH 3 5
BRANCH 1 34
ATOM     34  CA  SER B 156      35.829 -13.208 -10.948  1.00 16.58 LIG 0.20  C 
BRANCH 34 35
ATOM     35  N   SER B 156      35.519 -14.083  -9.825  1.00 15.80 LIG-0.34  N 
ATOM     36 H    SER B 156      35.519 -13.688  -9.062  1.00 15.80 LIG 0.16  HD
ATOM     37  C   PRO B 155      35.261 -15.377  -9.985  1.00 18.36 LIG 0.24  C 
ATOM     38 O    PRO B 155      35.274 -15.939 -11.082  1.00 18.57 LIG-0.27  OA
BRANCH 37 39
ATOM     39  CA  PRO B 155      34.954 -16.159  -8.714  1.00 19.30 LIG 0.18  C 
ATOM     40  CB  PRO B 155      35.534 -15.490  -7.475  1.00 17.99 LIG 0.04  C 
ATOM     41  CG  PRO B 155      36.937 -16.019  -7.464  1.00 20.29 LIG 0.02  C 
ATOM     42  CD  PRO B 155      36.740 -17.496  -7.776  1.00 20.15 LIG 0.13  C 
ATOM     43  N   PRO B 155      35.596 -17.479  -8.706  1.00 20.34 LIG-0.34  N 
ATOM     44  C   SER B 154      35.114 -18.519  -9.406  1.00 23.17 LIG 0.24  C 
ATOM     45 O    SER B 154      34.102 -18.429 -10.100  1.00 21.43 LIG-0.27  OA
BRANCH 44 46
ATOM     46  CA  SER B 154      35.877 -19.837  -9.310  1.00 26.04 LIG 0.20  C 
BRANCH 46 47
ATOM     47  N   SER B 154      34.979 -20.967  -9.097  1.00 29.08 LIG-0.34  N 
ATOM     48 H    SER B 154      35.061 -21.600  -9.675  1.00 29.08 LIG 0.16  HD
ATOM     49  C   VAL B 153      34.114 -20.993  -8.088  1.00 31.74 LIG 0.26  C 
ATOM     50 O    VAL B 153      34.006 -20.077  -7.276  1.00 31.76 LIG-0.27  OA
BRANCH 49 51
ATOM     51  CA  VAL B 153      33.236 -22.235  -7.981  1.00 34.29 LIG 0.40  C 
ATOM     52  N   VAL B 153      33.103 -22.657  -6.559  1.00 34.52 LIG 0.61  N 
BRANCH 51 53
ATOM     53  CB  VAL B 153      31.854 -21.918  -8.602  1.00 36.17 LIG 0.03  C 
ATOM     54  CG2 VAL B 153      31.374 -23.093  -9.434  1.00 38.03 LIG 0.01  C 
ATOM     55  CG1 VAL B 153      31.941 -20.664  -9.456  1.00 38.39 LIG 0.01  C 
ENDBRANCH 51 53
ENDBRANCH 49 51
ENDBRANCH 46 47
BRANCH 46 56
ATOM     56  CB  SER B 154      36.696 -20.042 -10.588  1.00 27.48 LIG 0.20  C 
BRANCH 56 57
ATOM     57 OG   SER B 154      37.099 -21.394 -10.723  1.00 30.72 LIG-0.40  OA
ATOM     58 HG   SER B 154      36.428 -21.895 -10.650  1.00 30.72 LIG 0.21  HD
ENDBRANCH 56 57
ENDBRANCH 46 56
ENDBRANCH 44 46
ENDBRANCH 37 39
ENDBRANCH 34 35
BRANCH 34 59
ATOM     59  CB  SER B 156      35.254 -11.811 -10.709  1.00 16.81 LIG 0.20  C 
BRANCH 59 60
ATOM     60 OG   SER B 156      34.094 -11.883  -9.893  1.00 16.65 LIG-0.40  OA
ATOM     61 HG   SER B 156      33.722 -12.628 -10.000  1.00 16.65 LIG 0.21  HD
ENDBRANCH 59 60
ENDBRANCH 34 59
ENDBRANCH 1 34
TORSDOF 24
ENDMDL
MODEL 27
USER: ADFR SOLUTION from run 92
USER: SCORE 17.476648 LL:  -5.082 LR: -13.732 RR:   0.000 FEB:  -6.573
USER: RMSD 6.196973
USER: SEED 91
USER: STATUS no improvement in best in 6 clusters for 5 generations
USER: GENES 26
USER: genes 0 Translation |==|  0.46668 0.66514 0.37457
USER: genes 1 Rotation |==|  0.17612 0.34677 0.80824 0.66312
USER: genes 2 Torsion [C]-N--CA-[C] |==|  0.74071
USER: genes 3 Torsion [N]-CA--C-[N] |==|  0.88045
USER: genes 4 Torsion [C]-N--CA-[C] |==|  0.68334
USER: genes 5 Torsion [N]-CA--C-[N] |==|  0.26846
USER: genes 6 Torsion [C]-N--CA-[CB] |==|  0.19663
USER: genes 7 Torsion [N]-CA--C-[O] |==|  0.00094
USER: genes 8 Torsion [N]-CA--CB-[CG] |==|  0.19506
USER: genes 9 Torsion [CA]-CB--CG-[CD2] |==|  0.90108
USER: genes 10 Torsion [CE2]-CZ--OH-[HH] |==|  0.79001
USER: genes 11 Torsion [N]-CA--CB-[OG] |==|  0.88103
USER: genes 12 Torsion [CA]-CB--OG-[HG] |==|  0.20730
USER: genes 13 Torsion [N]-CA--CB-[CG2] |==|  0.97362
USER: genes 14 Torsion [CA]-CB--OG1-[HG1] |==|  0.77980
USER: genes 15 Torsion [N]-C--CA-[N] |==|  0.45378
USER: genes 16 Torsion [C]-CA--N-[C] |==|  0.52852
USER: genes 17 Torsion [N]-C--CA-[CB] |==|  0.85421
USER: genes 18 Torsion [N]-C--CA-[N] |==|  0.47630
USER: genes 19 Torsion [C]-CA--N-[C] |==|  0.50635
USER: genes 20 Torsion [N]-C--CA-[N] |==|  0.91437
USER: genes 21 Torsion [C]-CA--CB-[CG2] |==|  0.02699
USER: genes 22 Torsion [C]-CA--CB-[OG] |==|  0.87432
USER: genes 23 Torsion [CA]-CB--OG-[HG] |==|  0.18046
USER: genes 24 Torsion [C]-CA--CB-[OG] |==|  0.05699
USER: genes 25 Torsion [CA]-CB--OG-[HG] |==|  0.18182
ROOT
ATOM      1  C   SER B 156      38.041 -12.531 -12.463  1.00 15.87 LIG 0.24  C 
ATOM      2 O    SER B 156      38.862 -13.331 -12.013  1.00 15.60 LIG-0.27  OA
ATOM      3  N   THR B 157      38.201 -11.897 -13.621  1.00 16.26 LIG-0.34  N 
ATOM      4 H    THR B 157      37.619 -11.366 -13.967  1.00 16.26 LIG 0.16  HD
ENDROOT
BRANCH 3 5
ATOM      5  CA  THR B 157      39.412 -12.064 -14.407  1.00 15.91 LIG 0.20  C 
BRANCH 5 6
ATOM      6  C   THR B 157      40.303 -10.911 -13.954  1.00 16.14 LIG 0.24  C 
ATOM      7 O    THR B 157      41.504 -11.101 -13.739  1.00 15.69 LIG-0.27  OA
ATOM      8  N   SER B 158      39.727  -9.724 -13.809  1.00 15.14 LIG-0.34  N 
ATOM      9 H    SER B 158      38.893  -9.570 -13.952  1.00 15.14 LIG 0.16  HD
BRANCH 8 10
ATOM     10  CA  SER B 158      40.499  -8.561 -13.383  1.00 18.36 LIG 0.20  C 
BRANCH 10 11
ATOM     11  C   SER B 158      40.046  -8.079 -12.008  1.00 20.96 LIG 0.24  C 
ATOM     12 O    SER B 158      39.070  -7.335 -11.891  1.00 20.92 LIG-0.27  OA
ATOM     13  N   TYR B 159      40.759  -8.506 -10.971  1.00 23.40 LIG-0.35  N 
ATOM     14 H    TYR B 159      41.443  -9.024 -11.039  1.00 23.40 LIG 0.16  HD
BRANCH 13 15
ATOM     15  CA  TYR B 159      40.427  -8.120  -9.602  1.00 28.83 LIG 0.17  C 
BRANCH 15 16
ATOM     16  C   TYR B 159      41.554  -8.488  -8.644  1.00 30.09 LIG 0.22  C 
ATOM     17 O    TYR B 159      42.561  -9.038  -9.141  1.00 33.46 LIG-0.29  OA
ENDBRANCH 15 16
BRANCH 15 18
ATOM     18  CB  TYR B 159      39.134  -8.808  -9.157  1.00 32.38 LIG 0.07  C 
BRANCH 18 19
ATOM     19  CG  TYR B 159      39.281 -10.298  -8.946  1.00 36.58 LIG-0.06  A 
ATOM     20  CD2 TYR B 159      40.119 -11.059  -9.762  1.00 38.67 LIG 0.01  A 
ATOM     21  CE2 TYR B 159      40.266 -12.430  -9.563  1.00 40.79 LIG 0.04  A 
ATOM     22  CZ  TYR B 159      39.568 -13.052  -8.541  1.00 41.05 LIG 0.07  A 
ATOM     23  CE1 TYR B 159      38.728 -12.319  -7.718  1.00 40.09 LIG 0.04  A 
ATOM     24  CD1 TYR B 159      38.591 -10.948  -7.924  1.00 38.09 LIG 0.01  A 
BRANCH 22 25
ATOM     25 OH   TYR B 159      39.708 -14.407  -8.340  1.00 43.66 LIG-0.36  OA
ATOM     26 HH   TYR B 159      39.278 -14.824  -8.930  1.00 43.66 LIG 0.22  HD
ENDBRANCH 22 25
ENDBRANCH 18 19
ENDBRANCH 15 18
ENDBRANCH 13 15
ENDBRANCH 10 11
BRANCH 10 27
ATOM     27  CB  SER B 158      40.347  -7.427 -14.398  1.00 15.79 LIG 0.20  C 
BRANCH 27 28
ATOM     28 OG   SER B 158      40.429  -7.919 -15.723  1.00 17.90 LIG-0.40  OA
ATOM     29 HG   SER B 158      39.716  -8.319 -15.919  1.00 17.90 LIG 0.21  HD
ENDBRANCH 27 28
ENDBRANCH 10 27
ENDBRANCH 8 10
ENDBRANCH 5 6
BRANCH 5 30
ATOM     30  CB  THR B 157      39.147 -11.918 -15.921  1.00 18.18 LIG 0.15  C 
ATOM     31  CG2 THR B 157      37.655 -11.870 -16.203  1.00 16.96 LIG 0.04  C 
BRANCH 30 32
ATOM     32 OG1  THR B 157      39.769 -10.719 -16.402  1.00 15.90 LIG-0.39  OA
ATOM     33 HG1  THR B 157      39.290 -10.057 -16.208  1.00 15.90 LIG 0.21  HD
ENDBRANCH 30 32
ENDBRANCH 5 30
ENDBRANCH 3 5
BRANCH 1 34
ATOM     34  CA  SER B 156      36.764 -12.222 -11.703  1.00 16.58 LIG 0.20  C 
BRANCH 34 35
ATOM     35  N   SER B 156      36.565 -13.262 -10.701  1.00 15.80 LIG-0.34  N 
ATOM     36 H    SER B 156      37.240 -13.785 -10.599  1.00 15.80 LIG 0.16  HD
ATOM     37  C   PRO B 155      35.433 -13.378 -10.014  1.00 18.36 LIG 0.24  C 
ATOM     38 O    PRO B 155      34.466 -12.632 -10.173  1.00 18.57 LIG-0.27  OA
BRANCH 37 39
ATOM     39  CA  PRO B 155      35.379 -14.516  -9.003  1.00 19.30 LIG 0.18  C 
ATOM     40  CB  PRO B 155      35.749 -15.856  -9.627  1.00 17.99 LIG 0.04  C 
ATOM     41  CG  PRO B 155      34.440 -16.303 -10.204  1.00 20.29 LIG 0.02  C 
ATOM     42  CD  PRO B 155      33.455 -15.984  -9.087  1.00 20.15 LIG 0.13  C 
ATOM     43  N   PRO B 155      34.019 -14.752  -8.505  1.00 20.34 LIG-0.34  N 
ATOM     44  C   SER B 154      33.444 -13.965  -7.579  1.00 23.17 LIG 0.24  C 
ATOM     45 O    SER B 154      34.025 -12.995  -7.092  1.00 21.43 LIG-0.27  OA
BRANCH 44 46
ATOM     46  CA  SER B 154      32.024 -14.320  -7.147  1.00 26.04 LIG 0.20  C 
BRANCH 46 47
ATOM     47  N   SER B 154      31.592 -13.520  -6.006  1.00 29.08 LIG-0.34  N 
ATOM     48 H    SER B 154      32.167 -12.937  -5.742  1.00 29.08 LIG 0.16  HD
ATOM     49  C   VAL B 153      30.403 -13.697  -5.438  1.00 31.74 LIG 0.26  C 
ATOM     50 O    VAL B 153      29.595 -14.539  -5.824  1.00 31.76 LIG-0.27  OA
BRANCH 49 51
ATOM     51  CA  VAL B 153      30.077 -12.791  -4.254  1.00 34.29 LIG 0.40  C 
ATOM     52  N   VAL B 153      31.320 -12.434  -3.515  1.00 34.52 LIG 0.61  N 
BRANCH 51 53
ATOM     53  CB  VAL B 153      29.356 -11.527  -4.783  1.00 36.17 LIG 0.03  C 
ATOM     54  CG2 VAL B 153      28.998 -11.705  -6.246  1.00 38.03 LIG 0.01  C 
ATOM     55  CG1 VAL B 153      30.243 -10.306  -4.598  1.00 38.39 LIG 0.01  C 
ENDBRANCH 51 53
ENDBRANCH 49 51
ENDBRANCH 46 47
BRANCH 46 56
ATOM     56  CB  SER B 154      31.071 -14.120  -8.329  1.00 27.48 LIG 0.20  C 
BRANCH 56 57
ATOM     57 OG   SER B 154      31.328 -12.892  -8.987  1.00 30.72 LIG-0.40  OA
ATOM     58 HG   SER B 154      32.092 -12.914  -9.333  1.00 30.72 LIG 0.21  HD
ENDBRANCH 56 57
ENDBRANCH 46 56
ENDBRANCH 44 46
ENDBRANCH 37 39
ENDBRANCH 34 35
BRANCH 34 59
ATOM     59  CB  SER B 156      36.927 -10.859 -11.029  1.00 16.81 LIG 0.20  C 
BRANCH 59 60
ATOM     60 OG   SER B 156      37.952 -10.109 -11.664  1.00 16.65 LIG-0.40  OA
ATOM     61 HG   SER B 156      37.721  -9.927 -12.450  1.00 16.65 LIG 0.21  HD
ENDBRANCH 59 60
ENDBRANCH 34 59
ENDBRANCH 1 34
TORSDOF 24
ENDMDL
MODEL 28
USER: ADFR SOLUTION from run 118
USER: SCORE 17.182266 LL:  -4.099 LR: -13.719 RR:   0.000 FEB:  -6.560
USER: RMSD 13.657199
USER: SEED 117
USER: STATUS no improvement in best in 15 clusters for 5 generations
USER: GENES 26
USER: genes 0 Translation |==|  0.41343 0.69366 0.45706
USER: genes 1 Rotation |==|  0.13263 0.69307 0.25753 0.63774
USER: genes 2 Torsion [C]-N--CA-[C] |==|  0.76830
USER: genes 3 Torsion [N]-CA--C-[N] |==|  0.44428
USER: genes 4 Torsion [C]-N--CA-[C] |==|  0.75102
USER: genes 5 Torsion [N]-CA--C-[N] |==|  0.98128
USER: genes 6 Torsion [C]-N--CA-[CB] |==|  0.47757
USER: genes 7 Torsion [N]-CA--C-[O] |==|  0.89081
USER: genes 8 Torsion [N]-CA--CB-[CG] |==|  0.76915
USER: genes 9 Torsion [CA]-CB--CG-[CD2] |==|  0.87404
USER: genes 10 Torsion [CE2]-CZ--OH-[HH] |==|  0.65939
USER: genes 11 Torsion [N]-CA--CB-[OG] |==|  0.96431
USER: genes 12 Torsion [CA]-CB--OG-[HG] |==|  0.98530
USER: genes 13 Torsion [N]-CA--CB-[CG2] |==|  0.16343
USER: genes 14 Torsion [CA]-CB--OG1-[HG1] |==|  0.02685
USER: genes 15 Torsion [N]-C--CA-[N] |==|  0.30073
USER: genes 16 Torsion [C]-CA--N-[C] |==|  0.63915
USER: genes 17 Torsion [N]-C--CA-[CB] |==|  0.63978
USER: genes 18 Torsion [N]-C--CA-[N] |==|  0.28962
USER: genes 19 Torsion [C]-CA--N-[C] |==|  0.69358
USER: genes 20 Torsion [N]-C--CA-[N] |==|  0.39626
USER: genes 21 Torsion [C]-CA--CB-[CG2] |==|  0.47850
USER: genes 22 Torsion [C]-CA--CB-[OG] |==|  0.77561
USER: genes 23 Torsion [CA]-CB--OG-[HG] |==|  0.32914
USER: genes 24 Torsion [C]-CA--CB-[OG] |==|  0.65969
USER: genes 25 Torsion [CA]-CB--OG-[HG] |==|  0.22760
ROOT
ATOM      1  C   SER B 156      36.564 -11.868 -10.731  1.00 15.87 LIG 0.24  C 
ATOM      2 O    SER B 156      35.525 -11.233 -10.926  1.00 15.60 LIG-0.27  OA
ATOM      3  N   THR B 157      36.587 -13.179 -10.515  1.00 16.26 LIG-0.34  N 
ATOM      4 H    THR B 157      37.305 -13.641 -10.417  1.00 16.26 LIG 0.16  HD
ENDROOT
BRANCH 3 5
ATOM      5  CA  THR B 157      35.356 -13.947 -10.427  1.00 15.91 LIG 0.20  C 
BRANCH 5 6
ATOM      6  C   THR B 157      34.912 -13.759  -8.979  1.00 16.14 LIG 0.24  C 
ATOM      7 O    THR B 157      35.725 -13.403  -8.120  1.00 15.69 LIG-0.27  OA
ATOM      8  N   SER B 158      33.636 -13.995  -8.704  1.00 15.14 LIG-0.34  N 
ATOM      9 H    SER B 158      33.053 -14.245  -9.285  1.00 15.14 LIG 0.16  HD
BRANCH 8 10
ATOM     10  CA  SER B 158      33.118 -13.840  -7.349  1.00 18.36 LIG 0.20  C 
BRANCH 10 11
ATOM     11  C   SER B 158      33.243 -15.142  -6.563  1.00 20.96 LIG 0.24  C 
ATOM     12 O    SER B 158      32.973 -15.181  -5.361  1.00 20.92 LIG-0.27  OA
ATOM     13  N   TYR B 159      33.651 -16.205  -7.248  1.00 23.40 LIG-0.35  N 
ATOM     14 H    TYR B 159      33.844 -16.191  -8.087  1.00 23.40 LIG 0.16  HD
BRANCH 13 15
ATOM     15  CA  TYR B 159      33.808 -17.511  -6.614  1.00 28.83 LIG 0.17  C 
BRANCH 15 16
ATOM     16  C   TYR B 159      34.941 -17.489  -5.595  1.00 30.09 LIG 0.22  C 
ATOM     17 O    TYR B 159      35.964 -16.840  -5.903  1.00 33.46 LIG-0.29  OA
ENDBRANCH 15 16
BRANCH 15 18
ATOM     18  CB  TYR B 159      34.092 -18.581  -7.671  1.00 32.38 LIG 0.07  C 
BRANCH 18 19
ATOM     19  CG  TYR B 159      32.847 -19.117  -8.342  1.00 36.58 LIG-0.06  A 
ATOM     20  CD2 TYR B 159      31.721 -19.463  -7.595  1.00 38.67 LIG 0.01  A 
ATOM     21  CE2 TYR B 159      30.568 -19.946  -8.211  1.00 40.79 LIG 0.04  A 
ATOM     22  CZ  TYR B 159      30.537 -20.087  -9.589  1.00 41.05 LIG 0.07  A 
ATOM     23  CE1 TYR B 159      31.643 -19.751 -10.354  1.00 40.09 LIG 0.04  A 
ATOM     24  CD1 TYR B 159      32.789 -19.267  -9.727  1.00 38.09 LIG 0.01  A 
BRANCH 22 25
ATOM     25 OH   TYR B 159      29.401 -20.564 -10.204  1.00 43.66 LIG-0.36  OA
ATOM     26 HH   TYR B 159      29.591 -21.250 -10.651  1.00 43.66 LIG 0.22  HD
ENDBRANCH 22 25
ENDBRANCH 18 19
ENDBRANCH 15 18
ENDBRANCH 13 15
ENDBRANCH 10 11
BRANCH 10 27
ATOM     27  CB  SER B 158      31.651 -13.407  -7.391  1.00 15.79 LIG 0.20  C 
BRANCH 27 28
ATOM     28 OG   SER B 158      31.282 -12.995  -8.695  1.00 17.90 LIG-0.40  OA
ATOM     29 HG   SER B 158      31.960 -12.995  -9.191  1.00 17.90 LIG 0.21  HD
ENDBRANCH 27 28
ENDBRANCH 10 27
ENDBRANCH 8 10
ENDBRANCH 5 6
BRANCH 5 30
ATOM     30  CB  THR B 157      35.590 -15.452 -10.681  1.00 18.18 LIG 0.15  C 
ATOM     31  CG2 THR B 157      36.581 -16.019  -9.679  1.00 16.96 LIG 0.04  C 
BRANCH 30 32
ATOM     32 OG1  THR B 157      34.344 -16.153 -10.579  1.00 15.90 LIG-0.39  OA
ATOM     33 HG1  THR B 157      33.713 -15.599 -10.533  1.00 15.90 LIG 0.21  HD
ENDBRANCH 30 32
ENDBRANCH 5 30
ENDBRANCH 3 5
BRANCH 1 34
ATOM     34  CA  SER B 156      37.911 -11.167 -10.734  1.00 16.58 LIG 0.20  C 
BRANCH 34 35
ATOM     35  N   SER B 156      38.225 -10.788 -12.106  1.00 15.80 LIG-0.34  N 
ATOM     36 H    SER B 156      37.592 -10.370 -12.509  1.00 15.80 LIG 0.16  HD
ATOM     37  C   PRO B 155      39.395 -11.074 -12.670  1.00 18.36 LIG 0.24  C 
ATOM     38 O    PRO B 155      40.294 -11.684 -12.089  1.00 18.57 LIG-0.27  OA
BRANCH 37 39
ATOM     39  CA  PRO B 155      39.573 -10.612 -14.110  1.00 19.30 LIG 0.18  C 
ATOM     40  CB  PRO B 155      40.070 -11.732 -15.015  1.00 17.99 LIG 0.04  C 
ATOM     41  CG  PRO B 155      41.553 -11.665 -14.807  1.00 20.29 LIG 0.02  C 
ATOM     42  CD  PRO B 155      41.831 -10.169 -14.862  1.00 20.15 LIG 0.13  C 
ATOM     43  N   PRO B 155      40.623  -9.595 -14.242  1.00 20.34 LIG-0.34  N 
ATOM     44  C   SER B 154      40.427  -8.309 -13.903  1.00 23.17 LIG 0.24  C 
ATOM     45 O    SER B 154      39.352  -7.905 -13.461  1.00 21.43 LIG-0.27  OA
BRANCH 44 46
ATOM     46  CA  SER B 154      41.602  -7.353 -14.089  1.00 26.04 LIG 0.20  C 
BRANCH 46 47
ATOM     47  N   SER B 154      41.426  -6.503 -15.262  1.00 29.08 LIG-0.34  N 
ATOM     48 H    SER B 154      40.801  -5.916 -15.184  1.00 29.08 LIG 0.16  HD
ATOM     49  C   VAL B 153      42.179  -6.644 -16.348  1.00 31.74 LIG 0.26  C 
ATOM     50 O    VAL B 153      43.063  -7.493 -16.444  1.00 31.76 LIG-0.27  OA
BRANCH 49 51
ATOM     51  CA  VAL B 153      41.891  -5.688 -17.501  1.00 34.29 LIG 0.40  C 
ATOM     52  N   VAL B 153      43.157  -5.287 -18.173  1.00 34.52 LIG 0.61  N 
BRANCH 51 53
ATOM     53  CB  VAL B 153      40.927  -6.385 -18.491  1.00 36.17 LIG 0.03  C 
ATOM     54  CG2 VAL B 153      40.466  -5.402 -19.550  1.00 38.03 LIG 0.01  C 
ATOM     55  CG1 VAL B 153      39.733  -6.957 -17.743  1.00 38.39 LIG 0.01  C 
ENDBRANCH 51 53
ENDBRANCH 49 51
ENDBRANCH 46 47
BRANCH 46 56
ATOM     56  CB  SER B 154      41.760  -6.496 -12.830  1.00 27.48 LIG 0.20  C 
BRANCH 56 57
ATOM     57 OG   SER B 154      40.841  -5.418 -12.829  1.00 30.72 LIG-0.40  OA
ATOM     58 HG   SER B 154      40.329  -5.486 -12.167  1.00 30.72 LIG 0.21  HD
ENDBRANCH 56 57
ENDBRANCH 46 56
ENDBRANCH 44 46
ENDBRANCH 37 39
ENDBRANCH 34 35
BRANCH 34 59
ATOM     59  CB  SER B 156      37.803  -9.923  -9.851  1.00 16.81 LIG 0.20  C 
BRANCH 59 60
ATOM     60 OG   SER B 156      38.135  -8.757 -10.590  1.00 16.65 LIG-0.40  OA
ATOM     61 HG   SER B 156      37.467  -8.506 -11.034  1.00 16.65 LIG 0.21  HD
ENDBRANCH 59 60
ENDBRANCH 34 59
ENDBRANCH 1 34
TORSDOF 24
ENDMDL
MODEL 29
USER: ADFR SOLUTION from run 56
USER: SCORE 16.529678 LL:  -3.741 LR: -13.709 RR:   0.000 FEB:  -6.549
USER: RMSD 11.756640
USER: SEED 55
USER: STATUS no improvement in best in 8 clusters for 5 generations
USER: GENES 26
USER: genes 0 Translation |==|  0.35917 0.62591 0.54613
USER: genes 1 Rotation |==|  0.40842 0.95805 0.67299 0.54330
USER: genes 2 Torsion [C]-N--CA-[C] |==|  0.80271
USER: genes 3 Torsion [N]-CA--C-[N] |==|  0.90000
USER: genes 4 Torsion [C]-N--CA-[C] |==|  0.68239
USER: genes 5 Torsion [N]-CA--C-[N] |==|  0.30385
USER: genes 6 Torsion [C]-N--CA-[CB] |==|  0.84032
USER: genes 7 Torsion [N]-CA--C-[O] |==|  0.71042
USER: genes 8 Torsion [N]-CA--CB-[CG] |==|  0.71662
USER: genes 9 Torsion [CA]-CB--CG-[CD2] |==|  0.18793
USER: genes 10 Torsion [CE2]-CZ--OH-[HH] |==|  0.37882
USER: genes 11 Torsion [N]-CA--CB-[OG] |==|  0.32501
USER: genes 12 Torsion [CA]-CB--OG-[HG] |==|  0.21577
USER: genes 13 Torsion [N]-CA--CB-[CG2] |==|  0.62373
USER: genes 14 Torsion [CA]-CB--OG1-[HG1] |==|  0.11921
USER: genes 15 Torsion [N]-C--CA-[N] |==|  0.40171
USER: genes 16 Torsion [C]-CA--N-[C] |==|  0.65580
USER: genes 17 Torsion [N]-C--CA-[CB] |==|  0.71239
USER: genes 18 Torsion [N]-C--CA-[N] |==|  0.23379
USER: genes 19 Torsion [C]-CA--N-[C] |==|  0.69019
USER: genes 20 Torsion [N]-C--CA-[N] |==|  0.47556
USER: genes 21 Torsion [C]-CA--CB-[CG2] |==|  0.28463
USER: genes 22 Torsion [C]-CA--CB-[OG] |==|  0.47958
USER: genes 23 Torsion [CA]-CB--OG-[HG] |==|  0.73300
USER: genes 24 Torsion [C]-CA--CB-[OG] |==|  0.14800
USER: genes 25 Torsion [CA]-CB--OG-[HG] |==|  0.99308
ROOT
ATOM      1  C   SER B 156      35.058 -13.443  -8.860  1.00 15.87 LIG 0.24  C 
ATOM      2 O    SER B 156      35.781 -13.702  -7.896  1.00 15.60 LIG-0.27  OA
ATOM      3  N   THR B 157      33.730 -13.464  -8.802  1.00 16.26 LIG-0.34  N 
ATOM      4 H    THR B 157      33.213 -13.247  -9.454  1.00 16.26 LIG 0.16  HD
ENDROOT
BRANCH 3 5
ATOM      5  CA  THR B 157      33.039 -13.868  -7.590  1.00 15.91 LIG 0.20  C 
BRANCH 5 6
ATOM      6  C   THR B 157      33.290 -15.370  -7.510  1.00 16.14 LIG 0.24  C 
ATOM      7 O    THR B 157      33.455 -15.916  -6.414  1.00 15.69 LIG-0.27  OA
ATOM      8  N   SER B 158      33.319 -16.039  -8.656  1.00 15.14 LIG-0.34  N 
ATOM      9 H    SER B 158      33.208 -15.680  -9.429  1.00 15.14 LIG 0.16  HD
BRANCH 8 10
ATOM     10  CA  SER B 158      33.550 -17.480  -8.680  1.00 18.36 LIG 0.20  C 
BRANCH 10 11
ATOM     11  C   SER B 158      34.875 -17.810  -9.363  1.00 20.96 LIG 0.24  C 
ATOM     12 O    SER B 158      35.010 -17.662 -10.579  1.00 20.92 LIG-0.27  OA
ATOM     13  N   TYR B 159      35.847 -18.254  -8.574  1.00 23.40 LIG-0.35  N 
ATOM     14 H    TYR B 159      35.765 -18.363  -7.724  1.00 23.40 LIG 0.16  HD
BRANCH 13 15
ATOM     15  CA  TYR B 159      37.164 -18.602  -9.103  1.00 28.83 LIG 0.17  C 
BRANCH 15 16
ATOM     16  C   TYR B 159      37.858 -17.376  -9.685  1.00 30.09 LIG 0.22  C 
ATOM     17 O    TYR B 159      37.890 -17.284 -10.931  1.00 33.46 LIG-0.29  OA
ENDBRANCH 15 16
BRANCH 15 18
ATOM     18  CB  TYR B 159      37.032 -19.675 -10.186  1.00 32.38 LIG 0.07  C 
BRANCH 18 19
ATOM     19  CG  TYR B 159      37.390 -21.065  -9.709  1.00 36.58 LIG-0.06  A 
ATOM     20  CD2 TYR B 159      36.597 -21.729  -8.773  1.00 38.67 LIG 0.01  A 
ATOM     21  CE2 TYR B 159      36.917 -23.014  -8.340  1.00 40.79 LIG 0.04  A 
ATOM     22  CZ  TYR B 159      38.043 -23.645  -8.844  1.00 41.05 LIG 0.07  A 
ATOM     23  CE1 TYR B 159      38.848 -23.007  -9.773  1.00 40.09 LIG 0.04  A 
ATOM     24  CD1 TYR B 159      38.517 -21.723 -10.201  1.00 38.09 LIG 0.01  A 
BRANCH 22 25
ATOM     25 OH   TYR B 159      38.365 -24.915  -8.419  1.00 43.66 LIG-0.36  OA
ATOM     26 HH   TYR B 159      38.591 -25.382  -9.079  1.00 43.66 LIG 0.22  HD
ENDBRANCH 22 25
ENDBRANCH 18 19
ENDBRANCH 15 18
ENDBRANCH 13 15
ENDBRANCH 10 11
BRANCH 10 27
ATOM     27  CB  SER B 158      32.408 -18.184  -9.414  1.00 15.79 LIG 0.20  C 
BRANCH 27 28
ATOM     28 OG   SER B 158      32.881 -18.837 -10.579  1.00 17.90 LIG-0.40  OA
ATOM     29 HG   SER B 158      33.262 -19.554 -10.363  1.00 17.90 LIG 0.21  HD
ENDBRANCH 27 28
ENDBRANCH 10 27
ENDBRANCH 8 10
ENDBRANCH 5 6
BRANCH 5 30
ATOM     30  CB  THR B 157      31.516 -13.626  -7.679  1.00 18.18 LIG 0.15  C 
ATOM     31  CG2 THR B 157      30.996 -12.995  -6.399  1.00 16.96 LIG 0.04  C 
BRANCH 30 32
ATOM     32 OG1  THR B 157      31.234 -12.765  -8.792  1.00 15.90 LIG-0.39  OA
ATOM     33 HG1  THR B 157      31.695 -13.002  -9.453  1.00 15.90 LIG 0.21  HD
ENDBRANCH 30 32
ENDBRANCH 5 30
ENDBRANCH 3 5
BRANCH 1 34
ATOM     34  CA  SER B 156      35.662 -13.068 -10.202  1.00 16.58 LIG 0.20  C 
BRANCH 34 35
ATOM     35  N   SER B 156      36.876 -12.300  -9.958  1.00 15.80 LIG-0.34  N 
ATOM     36 H    SER B 156      37.454 -12.703  -9.464  1.00 15.80 LIG 0.16  HD
ATOM     37  C   PRO B 155      37.059 -11.083 -10.462  1.00 18.36 LIG 0.24  C 
ATOM     38 O    PRO B 155      36.223 -10.507 -11.159  1.00 18.57 LIG-0.27  OA
BRANCH 37 39
ATOM     39  CA  PRO B 155      38.381 -10.409 -10.117  1.00 19.30 LIG 0.18  C 
ATOM     40  CB  PRO B 155      38.217  -9.340  -9.043  1.00 17.99 LIG 0.04  C 
ATOM     41  CG  PRO B 155      37.815  -8.145  -9.854  1.00 20.29 LIG 0.02  C 
ATOM     42  CD  PRO B 155      38.774  -8.203 -11.035  1.00 20.15 LIG 0.13  C 
ATOM     43  N   PRO B 155      38.931  -9.654 -11.248  1.00 20.34 LIG-0.34  N 
ATOM     44  C   SER B 154      39.558 -10.251 -12.276  1.00 23.17 LIG 0.24  C 
ATOM     45 O    SER B 154      39.709 -11.472 -12.331  1.00 21.43 LIG-0.27  OA
BRANCH 44 46
ATOM     46  CA  SER B 154      40.084  -9.350 -13.391  1.00 26.04 LIG 0.20  C 
BRANCH 46 47
ATOM     47  N   SER B 154      41.398  -8.804 -13.068  1.00 29.08 LIG-0.34  N 
ATOM     48 H    SER B 154      42.030  -9.387 -13.054  1.00 29.08 LIG 0.16  HD
ATOM     49  C   VAL B 153      41.576  -7.510 -12.820  1.00 31.74 LIG 0.26  C 
ATOM     50 O    VAL B 153      40.659  -6.692 -12.839  1.00 31.76 LIG-0.27  OA
BRANCH 49 51
ATOM     51  CA  VAL B 153      43.002  -7.073 -12.499  1.00 34.29 LIG 0.40  C 
ATOM     52  N   VAL B 153      43.092  -5.587 -12.454  1.00 34.52 LIG 0.61  N 
BRANCH 51 53
ATOM     53  CB  VAL B 153      43.417  -7.700 -11.146  1.00 36.17 LIG 0.03  C 
ATOM     54  CG2 VAL B 153      44.326  -8.892 -11.382  1.00 38.03 LIG 0.01  C 
ATOM     55  CG1 VAL B 153      42.183  -8.120 -10.364  1.00 38.39 LIG 0.01  C 
ENDBRANCH 51 53
ENDBRANCH 49 51
ENDBRANCH 46 47
BRANCH 46 56
ATOM     56  CB  SER B 154      40.144 -10.145 -14.698  1.00 27.48 LIG 0.20  C 
BRANCH 56 57
ATOM     57 OG   SER B 154      40.466  -9.303 -15.791  1.00 30.72 LIG-0.40  OA
ATOM     58 HG   SER B 154      39.761  -9.064 -16.178  1.00 30.72 LIG 0.21  HD
ENDBRANCH 56 57
ENDBRANCH 46 56
ENDBRANCH 44 46
ENDBRANCH 37 39
ENDBRANCH 34 35
BRANCH 34 59
ATOM     59  CB  SER B 156      35.991 -14.358 -10.954  1.00 16.81 LIG 0.20  C 
BRANCH 59 60
ATOM     60 OG   SER B 156      34.849 -15.199 -11.024  1.00 16.65 LIG-0.40  OA
ATOM     61 HG   SER B 156      34.212 -14.843 -10.608  1.00 16.65 LIG 0.21  HD
ENDBRANCH 59 60
ENDBRANCH 34 59
ENDBRANCH 1 34
TORSDOF 24
ENDMDL
MODEL 30
USER: ADFR SOLUTION from run 186
USER: SCORE 17.254792 LL:  -4.369 LR: -13.702 RR:   0.000 FEB:  -6.543
USER: RMSD 11.757611
USER: SEED 185
USER: STATUS no improvement in best in 9 clusters for 5 generations
USER: GENES 26
USER: genes 0 Translation |==|  0.35743 0.63668 0.55156
USER: genes 1 Rotation |==|  0.37379 0.96093 0.64139 0.54033
USER: genes 2 Torsion [C]-N--CA-[C] |==|  0.78577
USER: genes 3 Torsion [N]-CA--C-[N] |==|  0.88334
USER: genes 4 Torsion [C]-N--CA-[C] |==|  0.81960
USER: genes 5 Torsion [N]-CA--C-[N] |==|  0.88559
USER: genes 6 Torsion [C]-N--CA-[CB] |==|  0.35510
USER: genes 7 Torsion [N]-CA--C-[O] |==|  0.12655
USER: genes 8 Torsion [N]-CA--CB-[CG] |==|  0.79768
USER: genes 9 Torsion [CA]-CB--CG-[CD2] |==|  0.07480
USER: genes 10 Torsion [CE2]-CZ--OH-[HH] |==|  0.93829
USER: genes 11 Torsion [N]-CA--CB-[OG] |==|  0.19767
USER: genes 12 Torsion [CA]-CB--OG-[HG] |==|  0.77532
USER: genes 13 Torsion [N]-CA--CB-[CG2] |==|  0.60562
USER: genes 14 Torsion [CA]-CB--OG1-[HG1] |==|  0.10858
USER: genes 15 Torsion [N]-C--CA-[N] |==|  0.42403
USER: genes 16 Torsion [C]-CA--N-[C] |==|  0.62713
USER: genes 17 Torsion [N]-C--CA-[CB] |==|  0.76136
USER: genes 18 Torsion [N]-C--CA-[N] |==|  0.19529
USER: genes 19 Torsion [C]-CA--N-[C] |==|  0.67328
USER: genes 20 Torsion [N]-C--CA-[N] |==|  0.01455
USER: genes 21 Torsion [C]-CA--CB-[CG2] |==|  0.90551
USER: genes 22 Torsion [C]-CA--CB-[OG] |==|  0.14665
USER: genes 23 Torsion [CA]-CB--OG-[HG] |==|  0.13563
USER: genes 24 Torsion [C]-CA--CB-[OG] |==|  0.17023
USER: genes 25 Torsion [CA]-CB--OG-[HG] |==|  0.94583
ROOT
ATOM      1  C   SER B 156      35.010 -13.192  -8.746  1.00 15.87 LIG 0.24  C 
ATOM      2 O    SER B 156      35.691 -13.234  -7.720  1.00 15.60 LIG-0.27  OA
ATOM      3  N   THR B 157      33.692 -13.366  -8.753  1.00 16.26 LIG-0.34  N 
ATOM      4 H    THR B 157      33.198 -13.301  -9.454  1.00 16.26 LIG 0.16  HD
ENDROOT
BRANCH 3 5
ATOM      5  CA  THR B 157      32.971 -13.691  -7.534  1.00 15.91 LIG 0.20  C 
BRANCH 5 6
ATOM      6  C   THR B 157      33.261 -15.173  -7.322  1.00 16.14 LIG 0.24  C 
ATOM      7 O    THR B 157      33.513 -15.603  -6.192  1.00 15.69 LIG-0.27  OA
ATOM      8  N   SER B 158      33.227 -15.954  -8.395  1.00 15.14 LIG-0.34  N 
ATOM      9 H    SER B 158      33.054 -15.677  -9.190  1.00 15.14 LIG 0.16  HD
BRANCH 8 10
ATOM     10  CA  SER B 158      33.488 -17.386  -8.291  1.00 18.36 LIG 0.20  C 
BRANCH 10 11
ATOM     11  C   SER B 158      34.926 -17.650  -7.855  1.00 20.96 LIG 0.24  C 
ATOM     12 O    SER B 158      35.183 -18.532  -7.034  1.00 20.92 LIG-0.27  OA
ATOM     13  N   TYR B 159      35.858 -16.881  -8.408  1.00 23.40 LIG-0.35  N 
ATOM     14 H    TYR B 159      35.692 -16.260  -8.981  1.00 23.40 LIG 0.16  HD
BRANCH 13 15
ATOM     15  CA  TYR B 159      37.272 -17.035  -8.078  1.00 28.83 LIG 0.17  C 
BRANCH 15 16
ATOM     16  C   TYR B 159      37.779 -15.838  -7.281  1.00 30.09 LIG 0.22  C 
ATOM     17 O    TYR B 159      37.058 -15.440  -6.341  1.00 33.46 LIG-0.29  OA
ENDBRANCH 15 16
BRANCH 15 18
ATOM     18  CB  TYR B 159      38.101 -17.183  -9.357  1.00 32.38 LIG 0.07  C 
BRANCH 18 19
ATOM     19  CG  TYR B 159      37.934 -18.525 -10.035  1.00 36.58 LIG-0.06  A 
ATOM     20  CD2 TYR B 159      36.760 -19.264  -9.884  1.00 38.67 LIG 0.01  A 
ATOM     21  CE2 TYR B 159      36.598 -20.495 -10.517  1.00 40.79 LIG 0.04  A 
ATOM     22  CZ  TYR B 159      37.619 -20.997 -11.308  1.00 41.05 LIG 0.07  A 
ATOM     23  CE1 TYR B 159      38.795 -20.283 -11.473  1.00 40.09 LIG 0.04  A 
ATOM     24  CD1 TYR B 159      38.945 -19.052 -10.838  1.00 38.09 LIG 0.01  A 
BRANCH 22 25
ATOM     25 OH   TYR B 159      37.465 -22.213 -11.935  1.00 43.66 LIG-0.36  OA
ATOM     26 HH   TYR B 159      36.881 -22.664 -11.533  1.00 43.66 LIG 0.22  HD
ENDBRANCH 22 25
ENDBRANCH 18 19
ENDBRANCH 15 18
ENDBRANCH 13 15
ENDBRANCH 10 11
BRANCH 10 27
ATOM     27  CB  SER B 158      33.229 -18.068  -9.636  1.00 15.79 LIG 0.20  C 
BRANCH 27 28
ATOM     28 OG   SER B 158      34.228 -17.724 -10.579  1.00 17.90 LIG-0.40  OA
ATOM     29 HG   SER B 158      34.055 -16.971 -10.908  1.00 17.90 LIG 0.21  HD
ENDBRANCH 27 28
ENDBRANCH 10 27
ENDBRANCH 8 10
ENDBRANCH 5 6
BRANCH 5 30
ATOM     30  CB  THR B 157      31.447 -13.503  -7.691  1.00 18.18 LIG 0.15  C 
ATOM     31  CG2 THR B 157      30.842 -12.932  -6.420  1.00 16.96 LIG 0.04  C 
BRANCH 30 32
ATOM     32 OG1  THR B 157      31.185 -12.620  -8.791  1.00 15.90 LIG-0.39  OA
ATOM     33 HG1  THR B 157      31.722 -12.784  -9.416  1.00 15.90 LIG 0.21  HD
ENDBRANCH 30 32
ENDBRANCH 5 30
ENDBRANCH 3 5
BRANCH 1 34
ATOM     34  CA  SER B 156      35.656 -12.924 -10.094  1.00 16.58 LIG 0.20  C 
BRANCH 34 35
ATOM     35  N   SER B 156      36.868 -12.146  -9.873  1.00 15.80 LIG-0.34  N 
ATOM     36 H    SER B 156      37.362 -12.439  -9.233  1.00 15.80 LIG 0.16  HD
ATOM     37  C   PRO B 155      37.169 -11.079 -10.606  1.00 18.36 LIG 0.24  C 
ATOM     38 O    PRO B 155      36.451 -10.658 -11.515  1.00 18.57 LIG-0.27  OA
BRANCH 37 39
ATOM     39  CA  PRO B 155      38.471 -10.371 -10.254  1.00 19.30 LIG 0.18  C 
ATOM     40  CB  PRO B 155      38.285  -9.351  -9.137  1.00 17.99 LIG 0.04  C 
ATOM     41  CG  PRO B 155      37.829  -8.140  -9.895  1.00 20.29 LIG 0.02  C 
ATOM     42  CD  PRO B 155      38.772  -8.119 -11.091  1.00 20.15 LIG 0.13  C 
ATOM     43  N   PRO B 155      38.977  -9.554 -11.362  1.00 20.34 LIG-0.34  N 
ATOM     44  C   SER B 154      39.610 -10.089 -12.421  1.00 23.17 LIG 0.24  C 
ATOM     45 O    SER B 154      39.803 -11.300 -12.525  1.00 21.43 LIG-0.27  OA
BRANCH 44 46
ATOM     46  CA  SER B 154      40.086  -9.128 -13.506  1.00 26.04 LIG 0.20  C 
BRANCH 46 47
ATOM     47  N   SER B 154      41.204  -8.309 -13.049  1.00 29.08 LIG-0.34  N 
ATOM     48 H    SER B 154      41.910  -8.755 -12.843  1.00 29.08 LIG 0.16  HD
ATOM     49  C   VAL B 153      41.113  -6.985 -12.965  1.00 31.74 LIG 0.26  C 
ATOM     50 O    VAL B 153      40.094  -6.364 -13.258  1.00 31.76 LIG-0.27  OA
BRANCH 49 51
ATOM     51  CA  VAL B 153      42.357  -6.251 -12.474  1.00 34.29 LIG 0.40  C 
ATOM     52  N   VAL B 153      43.489  -7.204 -12.303  1.00 34.52 LIG 0.61  N 
BRANCH 51 53
ATOM     53  CB  VAL B 153      42.710  -5.140 -13.493  1.00 36.17 LIG 0.03  C 
ATOM     54  CG2 VAL B 153      42.363  -5.592 -14.899  1.00 38.03 LIG 0.01  C 
ATOM     55  CG1 VAL B 153      44.187  -4.792 -13.396  1.00 38.39 LIG 0.01  C 
ENDBRANCH 51 53
ENDBRANCH 49 51
ENDBRANCH 46 47
BRANCH 46 56
ATOM     56  CB  SER B 154      40.486  -9.927 -14.750  1.00 27.48 LIG 0.20  C 
BRANCH 56 57
ATOM     57 OG   SER B 154      39.441 -10.796 -15.153  1.00 30.72 LIG-0.40  OA
ATOM     58 HG   SER B 154      38.718 -10.370 -15.184  1.00 30.72 LIG 0.21  HD
ENDBRANCH 56 57
ENDBRANCH 46 56
ENDBRANCH 44 46
ENDBRANCH 37 39
ENDBRANCH 34 35
BRANCH 34 59
ATOM     59  CB  SER B 156      35.997 -14.270 -10.735  1.00 16.81 LIG 0.20  C 
BRANCH 59 60
ATOM     60 OG   SER B 156      34.820 -15.036 -10.943  1.00 16.65 LIG-0.40  OA
ATOM     61 HG   SER B 156      34.205 -14.744 -10.451  1.00 16.65 LIG 0.21  HD
ENDBRANCH 59 60
ENDBRANCH 34 59
ENDBRANCH 1 34
TORSDOF 24
ENDMDL
MODEL 31
USER: ADFR SOLUTION from run 59
USER: SCORE 17.253849 LL:  -4.558 LR: -13.684 RR:   0.000 FEB:  -6.525
USER: RMSD 12.287290
USER: SEED 58
USER: STATUS no improvement in best in 2 clusters for 5 generations
USER: GENES 26
USER: genes 0 Translation |==|  0.34446 0.39538 0.50948
USER: genes 1 Rotation |==|  0.26113 0.41519 0.33116 0.89654
USER: genes 2 Torsion [C]-N--CA-[C] |==|  0.69155
USER: genes 3 Torsion [N]-CA--C-[N] |==|  0.41571
USER: genes 4 Torsion [C]-N--CA-[C] |==|  0.16839
USER: genes 5 Torsion [N]-CA--C-[N] |==|  0.09992
USER: genes 6 Torsion [C]-N--CA-[CB] |==|  0.30263
USER: genes 7 Torsion [N]-CA--C-[O] |==|  0.92891
USER: genes 8 Torsion [N]-CA--CB-[CG] |==|  0.26968
USER: genes 9 Torsion [CA]-CB--CG-[CD2] |==|  0.76887
USER: genes 10 Torsion [CE2]-CZ--OH-[HH] |==|  0.16788
USER: genes 11 Torsion [N]-CA--CB-[OG] |==|  0.75104
USER: genes 12 Torsion [CA]-CB--OG-[HG] |==|  0.90535
USER: genes 13 Torsion [N]-CA--CB-[CG2] |==|  0.53374
USER: genes 14 Torsion [CA]-CB--OG1-[HG1] |==|  0.49602
USER: genes 15 Torsion [N]-C--CA-[N] |==|  0.14966
USER: genes 16 Torsion [C]-CA--N-[C] |==|  0.17202
USER: genes 17 Torsion [N]-C--CA-[CB] |==|  0.77617
USER: genes 18 Torsion [N]-C--CA-[N] |==|  0.18341
USER: genes 19 Torsion [C]-CA--N-[C] |==|  0.62324
USER: genes 20 Torsion [N]-C--CA-[N] |==|  0.39995
USER: genes 21 Torsion [C]-CA--CB-[CG2] |==|  0.58634
USER: genes 22 Torsion [C]-CA--CB-[OG] |==|  0.37225
USER: genes 23 Torsion [CA]-CB--OG-[HG] |==|  0.47176
USER: genes 24 Torsion [C]-CA--CB-[OG] |==|  0.59505
USER: genes 25 Torsion [CA]-CB--OG-[HG] |==|  0.23106
ROOT
ATOM      1  C   SER B 156      34.650 -18.802  -9.630  1.00 15.87 LIG 0.24  C 
ATOM      2 O    SER B 156      34.064 -19.199 -10.639  1.00 15.60 LIG-0.27  OA
ATOM      3  N   THR B 157      35.888 -19.169  -9.315  1.00 16.26 LIG-0.34  N 
ATOM      4 H    THR B 157      36.324 -18.870  -8.637  1.00 16.26 LIG 0.16  HD
ENDROOT
BRANCH 3 5
ATOM      5  CA  THR B 157      36.615 -20.132 -10.124  1.00 15.91 LIG 0.20  C 
BRANCH 5 6
ATOM      6  C   THR B 157      36.714 -21.362  -9.226  1.00 16.14 LIG 0.24  C 
ATOM      7 O    THR B 157      36.760 -21.233  -7.998  1.00 15.69 LIG-0.27  OA
ATOM      8  N   SER B 158      36.746 -22.546  -9.824  1.00 15.14 LIG-0.34  N 
ATOM      9 H    SER B 158      36.716 -22.659 -10.676  1.00 15.14 LIG 0.16  HD
BRANCH 8 10
ATOM     10  CA  SER B 158      36.837 -23.778  -9.048  1.00 18.36 LIG 0.20  C 
BRANCH 10 11
ATOM     11  C   SER B 158      35.638 -23.926  -8.115  1.00 20.96 LIG 0.24  C 
ATOM     12 O    SER B 158      35.769 -24.426  -6.996  1.00 20.92 LIG-0.27  OA
ATOM     13  N   TYR B 159      34.473 -23.489  -8.581  1.00 23.40 LIG-0.35  N 
ATOM     14 H    TYR B 159      34.368 -23.139  -9.361  1.00 23.40 LIG 0.16  HD
BRANCH 13 15
ATOM     15  CA  TYR B 159      33.251 -23.569  -7.785  1.00 28.83 LIG 0.17  C 
BRANCH 15 16
ATOM     16  C   TYR B 159      32.122 -24.210  -8.585  1.00 30.09 LIG 0.22  C 
ATOM     17 O    TYR B 159      32.187 -24.114  -9.829  1.00 33.46 LIG-0.29  OA
ENDBRANCH 15 16
BRANCH 15 18
ATOM     18  CB  TYR B 159      32.824 -22.172  -7.328  1.00 32.38 LIG 0.07  C 
BRANCH 18 19
ATOM     19  CG  TYR B 159      31.767 -21.543  -8.208  1.00 36.58 LIG-0.06  A 
ATOM     20  CD2 TYR B 159      32.115 -20.879  -9.384  1.00 38.67 LIG 0.01  A 
ATOM     21  CE2 TYR B 159      31.143 -20.308 -10.204  1.00 40.79 LIG 0.04  A 
ATOM     22  CZ  TYR B 159      29.807 -20.398  -9.845  1.00 41.05 LIG 0.07  A 
ATOM     23  CE1 TYR B 159      29.436 -21.051  -8.681  1.00 40.09 LIG 0.04  A 
ATOM     24  CD1 TYR B 159      30.416 -21.621  -7.871  1.00 38.09 LIG 0.01  A 
BRANCH 22 25
ATOM     25 OH   TYR B 159      28.843 -19.835 -10.650  1.00 43.66 LIG-0.36  OA
ATOM     26 HH   TYR B 159      28.869 -20.191 -11.411  1.00 43.66 LIG 0.22  HD
ENDBRANCH 22 25
ENDBRANCH 18 19
ENDBRANCH 15 18
ENDBRANCH 13 15
ENDBRANCH 10 11
BRANCH 10 27
ATOM     27  CB  SER B 158      38.128 -23.790  -8.228  1.00 15.79 LIG 0.20  C 
BRANCH 27 28
ATOM     28 OG   SER B 158      39.189 -24.372  -8.963  1.00 17.90 LIG-0.40  OA
ATOM     29 HG   SER B 158      38.888 -24.984  -9.454  1.00 17.90 LIG 0.21  HD
ENDBRANCH 27 28
ENDBRANCH 10 27
ENDBRANCH 8 10
ENDBRANCH 5 6
BRANCH 5 30
ATOM     30  CB  THR B 157      38.042 -19.650 -10.462  1.00 18.18 LIG 0.15  C 
ATOM     31  CG2 THR B 157      38.663 -20.523 -11.539  1.00 16.96 LIG 0.04  C 
BRANCH 30 32
ATOM     32 OG1  THR B 157      37.994 -18.289 -10.910  1.00 15.90 LIG-0.39  OA
ATOM     33 HG1  THR B 157      38.772 -18.021 -11.075  1.00 15.90 LIG 0.21  HD
ENDBRANCH 30 32
ENDBRANCH 5 30
ENDBRANCH 3 5
BRANCH 1 34
ATOM     34  CA  SER B 156      33.972 -17.841  -8.670  1.00 16.58 LIG 0.20  C 
BRANCH 34 35
ATOM     35  N   SER B 156      34.840 -16.683  -8.494  1.00 15.80 LIG-0.34  N 
ATOM     36 H    SER B 156      35.113 -16.569  -7.687  1.00 15.80 LIG 0.16  HD
ATOM     37  C   PRO B 155      35.170 -15.884  -9.504  1.00 18.36 LIG 0.24  C 
ATOM     38 O    PRO B 155      34.765 -16.048 -10.656  1.00 18.57 LIG-0.27  OA
BRANCH 37 39
ATOM     39  CA  PRO B 155      36.085 -14.716  -9.160  1.00 19.30 LIG 0.18  C 
ATOM     40  CB  PRO B 155      35.321 -13.550  -8.545  1.00 17.99 LIG 0.04  C 
ATOM     41  CG  PRO B 155      34.839 -12.818  -9.762  1.00 20.29 LIG 0.02  C 
ATOM     42  CD  PRO B 155      36.068 -12.816 -10.660  1.00 20.15 LIG 0.13  C 
ATOM     43  N   PRO B 155      36.692 -14.117 -10.354  1.00 20.34 LIG-0.34  N 
ATOM     44  C   SER B 154      37.730 -14.680 -10.995  1.00 23.17 LIG 0.24  C 
ATOM     45 O    SER B 154      38.237 -15.737 -10.619  1.00 21.43 LIG-0.27  OA
BRANCH 44 46
ATOM     46  CA  SER B 154      38.267 -13.953 -12.225  1.00 26.04 LIG 0.20  C 
BRANCH 46 47
ATOM     47  N   SER B 154      38.865 -12.669 -11.874  1.00 29.08 LIG-0.34  N 
ATOM     48 H    SER B 154      39.375 -12.692 -11.182  1.00 29.08 LIG 0.16  HD
ATOM     49  C   VAL B 153      38.626 -11.570 -12.582  1.00 31.74 LIG 0.26  C 
ATOM     50 O    VAL B 153      37.889 -11.554 -13.566  1.00 31.76 LIG-0.27  OA
BRANCH 49 51
ATOM     51  CA  VAL B 153      39.317 -10.295 -12.108  1.00 34.29 LIG 0.40  C 
ATOM     52  N   VAL B 153      39.716  -9.455 -13.271  1.00 34.52 LIG 0.61  N 
BRANCH 51 53
ATOM     53  CB  VAL B 153      38.352  -9.530 -11.169  1.00 36.17 LIG 0.03  C 
ATOM     54  CG2 VAL B 153      38.593  -8.037 -11.279  1.00 38.03 LIG 0.01  C 
ATOM     55  CG1 VAL B 153      38.543  -9.995  -9.734  1.00 38.39 LIG 0.01  C 
ENDBRANCH 51 53
ENDBRANCH 49 51
ENDBRANCH 46 47
BRANCH 46 56
ATOM     56  CB  SER B 154      39.294 -14.844 -12.930  1.00 27.48 LIG 0.20  C 
BRANCH 56 57
ATOM     57 OG   SER B 154      39.068 -14.870 -14.329  1.00 30.72 LIG-0.40  OA
ATOM     58 HG   SER B 154      39.716 -15.245 -14.710  1.00 30.72 LIG 0.21  HD
ENDBRANCH 56 57
ENDBRANCH 46 56
ENDBRANCH 44 46
ENDBRANCH 37 39
ENDBRANCH 34 35
BRANCH 34 59
ATOM     59  CB  SER B 156      32.637 -17.417  -9.283  1.00 16.81 LIG 0.20  C 
BRANCH 59 60
ATOM     60 OG   SER B 156      32.339 -16.070  -8.943  1.00 16.65 LIG-0.40  OA
ATOM     61 HG   SER B 156      32.735 -15.553  -9.474  1.00 16.65 LIG 0.21  HD
ENDBRANCH 59 60
ENDBRANCH 34 59
ENDBRANCH 1 34
TORSDOF 24
ENDMDL
MODEL 32
USER: ADFR SOLUTION from run 77
USER: SCORE 16.523172 LL:  -3.956 LR: -13.674 RR:   0.000 FEB:  -6.515
USER: RMSD 11.839233
USER: SEED 76
USER: STATUS no improvement in best in 13 clusters for 5 generations
USER: GENES 26
USER: genes 0 Translation |==|  0.38969 0.56577 0.47775
USER: genes 1 Rotation |==|  0.18830 0.46491 0.25461 0.80232
USER: genes 2 Torsion [C]-N--CA-[C] |==|  0.81438
USER: genes 3 Torsion [N]-CA--C-[N] |==|  0.86670
USER: genes 4 Torsion [C]-N--CA-[C] |==|  0.74827
USER: genes 5 Torsion [N]-CA--C-[N] |==|  0.89715
USER: genes 6 Torsion [C]-N--CA-[CB] |==|  0.19024
USER: genes 7 Torsion [N]-CA--C-[O] |==|  0.94017
USER: genes 8 Torsion [N]-CA--CB-[CG] |==|  0.42975
USER: genes 9 Torsion [CA]-CB--CG-[CD2] |==|  0.21403
USER: genes 10 Torsion [CE2]-CZ--OH-[HH] |==|  0.68660
USER: genes 11 Torsion [N]-CA--CB-[OG] |==|  0.07100
USER: genes 12 Torsion [CA]-CB--OG-[HG] |==|  0.85449
USER: genes 13 Torsion [N]-CA--CB-[CG2] |==|  0.67109
USER: genes 14 Torsion [CA]-CB--OG1-[HG1] |==|  0.79882
USER: genes 15 Torsion [N]-C--CA-[N] |==|  0.12085
USER: genes 16 Torsion [C]-CA--N-[C] |==|  0.65071
USER: genes 17 Torsion [N]-C--CA-[CB] |==|  0.50937
USER: genes 18 Torsion [N]-C--CA-[N] |==|  0.51111
USER: genes 19 Torsion [C]-CA--N-[C] |==|  0.79369
USER: genes 20 Torsion [N]-C--CA-[N] |==|  0.37001
USER: genes 21 Torsion [C]-CA--CB-[CG2] |==|  0.54735
USER: genes 22 Torsion [C]-CA--CB-[OG] |==|  0.57093
USER: genes 23 Torsion [CA]-CB--OG-[HG] |==|  0.23062
USER: genes 24 Torsion [C]-CA--CB-[OG] |==|  0.35083
USER: genes 25 Torsion [CA]-CB--OG-[HG] |==|  0.71546
ROOT
ATOM      1  C   SER B 156      35.905 -14.841 -10.296  1.00 15.87 LIG 0.24  C 
ATOM      2 O    SER B 156      35.085 -15.146 -11.164  1.00 15.60 LIG-0.27  OA
ATOM      3  N   THR B 157      36.838 -15.676  -9.850  1.00 16.26 LIG-0.34  N 
ATOM      4 H    THR B 157      37.442 -15.465  -9.274  1.00 16.26 LIG 0.16  HD
ENDROOT
BRANCH 3 5
ATOM      5  CA  THR B 157      36.904 -17.049 -10.321  1.00 15.91 LIG 0.20  C 
BRANCH 5 6
ATOM      6  C   THR B 157      35.630 -17.684  -9.772  1.00 16.14 LIG 0.24  C 
ATOM      7 O    THR B 157      34.904 -18.358 -10.509  1.00 15.69 LIG-0.27  OA
ATOM      8  N   SER B 158      35.356 -17.477  -8.490  1.00 15.14 LIG-0.34  N 
ATOM      9 H    SER B 158      35.847 -17.011  -7.959  1.00 15.14 LIG 0.16  HD
BRANCH 8 10
ATOM     10  CA  SER B 158      34.162 -18.047  -7.875  1.00 18.36 LIG 0.20  C 
BRANCH 10 11
ATOM     11  C   SER B 158      32.982 -17.085  -7.978  1.00 20.96 LIG 0.24  C 
ATOM     12 O    SER B 158      31.841 -17.506  -8.174  1.00 20.92 LIG-0.27  OA
ATOM     13  N   TYR B 159      33.264 -15.793  -7.842  1.00 23.40 LIG-0.35  N 
ATOM     14 H    TYR B 159      34.056 -15.485  -7.706  1.00 23.40 LIG 0.16  HD
BRANCH 13 15
ATOM     15  CA  TYR B 159      32.224 -14.771  -7.916  1.00 28.83 LIG 0.17  C 
BRANCH 15 16
ATOM     16  C   TYR B 159      32.834 -13.375  -7.973  1.00 30.09 LIG 0.22  C 
ATOM     17 O    TYR B 159      34.002 -13.252  -7.545  1.00 33.46 LIG-0.29  OA
ENDBRANCH 15 16
BRANCH 15 18
ATOM     18  CB  TYR B 159      31.296 -14.871  -6.702  1.00 32.38 LIG 0.07  C 
BRANCH 18 19
ATOM     19  CG  TYR B 159      30.605 -13.571  -6.358  1.00 36.58 LIG-0.06  A 
ATOM     20  CD2 TYR B 159      29.515 -13.119  -7.101  1.00 38.67 LIG 0.01  A 
ATOM     21  CE2 TYR B 159      28.868 -11.927  -6.779  1.00 40.79 LIG 0.04  A 
ATOM     22  CZ  TYR B 159      29.316 -11.174  -5.705  1.00 41.05 LIG 0.07  A 
ATOM     23  CE1 TYR B 159      30.398 -11.601  -4.952  1.00 40.09 LIG 0.04  A 
ATOM     24  CD1 TYR B 159      31.035 -12.796  -5.281  1.00 38.09 LIG 0.01  A 
BRANCH 22 25
ATOM     25 OH   TYR B 159      28.682  -9.995  -5.382  1.00 43.66 LIG-0.36  OA
ATOM     26 HH   TYR B 159      29.200  -9.350  -5.526  1.00 43.66 LIG 0.22  HD
ENDBRANCH 22 25
ENDBRANCH 18 19
ENDBRANCH 15 18
ENDBRANCH 13 15
ENDBRANCH 10 11
BRANCH 10 27
ATOM     27  CB  SER B 158      34.430 -18.371  -6.405  1.00 15.79 LIG 0.20  C 
BRANCH 27 28
ATOM     28 OG   SER B 158      35.462 -17.552  -5.885  1.00 17.90 LIG-0.40  OA
ATOM     29 HG   SER B 158      36.137 -17.601  -6.384  1.00 17.90 LIG 0.21  HD
ENDBRANCH 27 28
ENDBRANCH 10 27
ENDBRANCH 8 10
ENDBRANCH 5 6
BRANCH 5 30
ATOM     30  CB  THR B 157      38.122 -17.804  -9.744  1.00 18.18 LIG 0.15  C 
ATOM     31  CG2 THR B 157      39.051 -18.254 -10.858  1.00 16.96 LIG 0.04  C 
BRANCH 30 32
ATOM     32 OG1  THR B 157      38.830 -16.947  -8.839  1.00 15.90 LIG-0.39  OA
ATOM     33 HG1  THR B 157      39.237 -16.354  -9.274  1.00 15.90 LIG 0.21  HD
ENDBRANCH 30 32
ENDBRANCH 5 30
ENDBRANCH 3 5
BRANCH 1 34
ATOM     34  CA  SER B 156      35.898 -13.454  -9.679  1.00 16.58 LIG 0.20  C 
BRANCH 34 35
ATOM     35  N   SER B 156      37.275 -12.984  -9.595  1.00 15.80 LIG-0.34  N 
ATOM     36 H    SER B 156      37.700 -13.005 -10.342  1.00 15.80 LIG 0.16  HD
ATOM     37  C   PRO B 155      37.812 -12.563  -8.454  1.00 18.36 LIG 0.24  C 
ATOM     38 O    PRO B 155      37.201 -12.546  -7.384  1.00 18.57 LIG-0.27  OA
BRANCH 37 39
ATOM     39  CA  PRO B 155      39.263 -12.103  -8.528  1.00 19.30 LIG 0.18  C 
ATOM     40  CB  PRO B 155      39.813 -11.718  -7.160  1.00 17.99 LIG 0.04  C 
ATOM     41  CG  PRO B 155      39.364 -10.293  -7.034  1.00 20.29 LIG 0.02  C 
ATOM     42  CD  PRO B 155      39.678  -9.721  -8.409  1.00 20.15 LIG 0.13  C 
ATOM     43  N   PRO B 155      39.414 -10.865  -9.301  1.00 20.34 LIG-0.34  N 
ATOM     44  C   SER B 154      39.389 -10.848 -10.645  1.00 23.17 LIG 0.24  C 
ATOM     45 O    SER B 154      39.237 -11.872 -11.311  1.00 21.43 LIG-0.27  OA
BRANCH 44 46
ATOM     46  CA  SER B 154      39.557  -9.493 -11.327  1.00 26.04 LIG 0.20  C 
BRANCH 46 47
ATOM     47  N   SER B 154      39.418  -9.598 -12.776  1.00 29.08 LIG-0.34  N 
ATOM     48 H    SER B 154      38.676  -9.291 -13.084  1.00 29.08 LIG 0.16  HD
ATOM     49  C   VAL B 153      40.374 -10.128 -13.534  1.00 31.74 LIG 0.26  C 
ATOM     50 O    VAL B 153      41.426 -10.566 -13.075  1.00 31.76 LIG-0.27  OA
BRANCH 49 51
ATOM     51  CA  VAL B 153      40.100 -10.173 -15.034  1.00 34.29 LIG 0.40  C 
ATOM     52  N   VAL B 153      41.283  -9.682 -15.794  1.00 34.52 LIG 0.61  N 
BRANCH 51 53
ATOM     53  CB  VAL B 153      39.747 -11.629 -15.427  1.00 36.17 LIG 0.03  C 
ATOM     54  CG2 VAL B 153      39.879 -11.810 -16.927  1.00 38.03 LIG 0.01  C 
ATOM     55  CG1 VAL B 153      38.335 -11.964 -14.974  1.00 38.39 LIG 0.01  C 
ENDBRANCH 51 53
ENDBRANCH 49 51
ENDBRANCH 46 47
BRANCH 46 56
ATOM     56  CB  SER B 154      38.527  -8.511 -10.764  1.00 27.48 LIG 0.20  C 
BRANCH 56 57
ATOM     57 OG   SER B 154      38.234  -7.488 -11.699  1.00 30.72 LIG-0.40  OA
ATOM     58 HG   SER B 154      37.658  -7.763 -12.244  1.00 30.72 LIG 0.21  HD
ENDBRANCH 56 57
ENDBRANCH 46 56
ENDBRANCH 44 46
ENDBRANCH 37 39
ENDBRANCH 34 35
BRANCH 34 59
ATOM     59  CB  SER B 156      35.076 -12.533 -10.582  1.00 16.81 LIG 0.20  C 
BRANCH 59 60
ATOM     60 OG   SER B 156      34.059 -11.882  -9.836  1.00 16.65 LIG-0.40  OA
ATOM     61 HG   SER B 156      33.321 -12.256  -9.983  1.00 16.65 LIG 0.21  HD
ENDBRANCH 59 60
ENDBRANCH 34 59
ENDBRANCH 1 34
TORSDOF 24
ENDMDL
MODEL 33
USER: ADFR SOLUTION from run 140
USER: SCORE 17.344133 LL:  -4.632 LR: -13.663 RR:   0.000 FEB:  -6.504
USER: RMSD 5.276443
USER: SEED 139
USER: STATUS no improvement in best in 13 clusters for 5 generations
USER: GENES 26
USER: genes 0 Translation |==|  0.37305 0.63713 0.50060
USER: genes 1 Rotation |==|  0.59331 0.59058 0.43285 0.97810
USER: genes 2 Torsion [C]-N--CA-[C] |==|  0.68182
USER: genes 3 Torsion [N]-CA--C-[N] |==|  0.45762
USER: genes 4 Torsion [C]-N--CA-[C] |==|  0.84691
USER: genes 5 Torsion [N]-CA--C-[N] |==|  0.89968
USER: genes 6 Torsion [C]-N--CA-[CB] |==|  0.41865
USER: genes 7 Torsion [N]-CA--C-[O] |==|  0.09995
USER: genes 8 Torsion [N]-CA--CB-[CG] |==|  0.01019
USER: genes 9 Torsion [CA]-CB--CG-[CD2] |==|  0.79385
USER: genes 10 Torsion [CE2]-CZ--OH-[HH] |==|  0.05792
USER: genes 11 Torsion [N]-CA--CB-[OG] |==|  0.29268
USER: genes 12 Torsion [CA]-CB--OG-[HG] |==|  0.64325
USER: genes 13 Torsion [N]-CA--CB-[CG2] |==|  0.15933
USER: genes 14 Torsion [CA]-CB--OG1-[HG1] |==|  0.11127
USER: genes 15 Torsion [N]-C--CA-[N] |==|  0.48607
USER: genes 16 Torsion [C]-CA--N-[C] |==|  0.65449
USER: genes 17 Torsion [N]-C--CA-[CB] |==|  0.01210
USER: genes 18 Torsion [N]-C--CA-[N] |==|  0.22222
USER: genes 19 Torsion [C]-CA--N-[C] |==|  0.67715
USER: genes 20 Torsion [N]-C--CA-[N] |==|  0.44503
USER: genes 21 Torsion [C]-CA--CB-[CG2] |==|  0.27395
USER: genes 22 Torsion [C]-CA--CB-[OG] |==|  0.57091
USER: genes 23 Torsion [CA]-CB--OG-[HG] |==|  0.81675
USER: genes 24 Torsion [C]-CA--CB-[OG] |==|  0.76883
USER: genes 25 Torsion [CA]-CB--OG-[HG] |==|  0.06508
ROOT
ATOM      1  C   SER B 156      35.443 -13.182  -9.816  1.00 15.87 LIG 0.24  C 
ATOM      2 O    SER B 156      34.444 -12.563 -10.188  1.00 15.60 LIG-0.27  OA
ATOM      3  N   THR B 157      36.676 -12.881 -10.214  1.00 16.26 LIG-0.34  N 
ATOM      4 H    THR B 157      37.385 -13.278  -9.933  1.00 16.26 LIG 0.16  HD
ENDROOT
BRANCH 3 5
ATOM      5  CA  THR B 157      36.916 -11.826 -11.183  1.00 15.91 LIG 0.20  C 
BRANCH 5 6
ATOM      6  C   THR B 157      37.476 -12.564 -12.395  1.00 16.14 LIG 0.24  C 
ATOM      7 O    THR B 157      37.882 -13.725 -12.282  1.00 15.69 LIG-0.27  OA
ATOM      8  N   SER B 158      37.501 -11.903 -13.545  1.00 15.14 LIG-0.34  N 
ATOM      9 H    SER B 158      37.224 -11.096 -13.646  1.00 15.14 LIG 0.16  HD
BRANCH 8 10
ATOM     10  CA  SER B 158      38.016 -12.528 -14.759  1.00 18.36 LIG 0.20  C 
BRANCH 10 11
ATOM     11  C   SER B 158      39.435 -13.047 -14.547  1.00 20.96 LIG 0.24  C 
ATOM     12 O    SER B 158      39.810 -14.092 -15.083  1.00 20.92 LIG-0.27  OA
ATOM     13  N   TYR B 159      40.219 -12.313 -13.765  1.00 23.40 LIG-0.35  N 
ATOM     14 H    TYR B 159      39.969 -11.583 -13.383  1.00 23.40 LIG 0.16  HD
BRANCH 13 15
ATOM     15  CA  TYR B 159      41.599 -12.698 -13.485  1.00 28.83 LIG 0.17  C 
BRANCH 15 16
ATOM     16  C   TYR B 159      41.672 -13.626 -12.277  1.00 30.09 LIG 0.22  C 
ATOM     17 O    TYR B 159      40.737 -14.443 -12.137  1.00 33.46 LIG-0.29  OA
ENDBRANCH 15 16
BRANCH 15 18
ATOM     18  CB  TYR B 159      42.453 -11.455 -13.225  1.00 32.38 LIG 0.07  C 
BRANCH 18 19
ATOM     19  CG  TYR B 159      41.664 -10.165 -13.231  1.00 36.58 LIG-0.06  A 
ATOM     20  CD2 TYR B 159      41.204  -9.611 -14.425  1.00 38.67 LIG 0.01  A 
ATOM     21  CE2 TYR B 159      40.466  -8.429 -14.434  1.00 40.79 LIG 0.04  A 
ATOM     22  CZ  TYR B 159      40.186  -7.788 -13.237  1.00 41.05 LIG 0.07  A 
ATOM     23  CE1 TYR B 159      40.634  -8.317 -12.037  1.00 40.09 LIG 0.04  A 
ATOM     24  CD1 TYR B 159      41.368  -9.502 -12.040  1.00 38.09 LIG 0.01  A 
BRANCH 22 25
ATOM     25 OH   TYR B 159      39.459  -6.619 -13.239  1.00 43.66 LIG-0.36  OA
ATOM     26 HH   TYR B 159      39.020  -6.563 -13.953  1.00 43.66 LIG 0.22  HD
ENDBRANCH 22 25
ENDBRANCH 18 19
ENDBRANCH 15 18
ENDBRANCH 13 15
ENDBRANCH 10 11
BRANCH 10 27
ATOM     27  CB  SER B 158      38.007 -11.523 -15.913  1.00 15.79 LIG 0.20  C 
BRANCH 27 28
ATOM     28 OG   SER B 158      39.318 -11.066 -16.197  1.00 17.90 LIG-0.40  OA
ATOM     29 HG   SER B 158      39.325 -10.226 -16.208  1.00 17.90 LIG 0.21  HD
ENDBRANCH 27 28
ENDBRANCH 10 27
ENDBRANCH 8 10
ENDBRANCH 5 6
BRANCH 5 30
ATOM     30  CB  THR B 157      37.971 -10.812 -10.690  1.00 18.18 LIG 0.15  C 
ATOM     31  CG2 THR B 157      39.280 -11.513 -10.368  1.00 16.96 LIG 0.04  C 
BRANCH 30 32
ATOM     32 OG1  THR B 157      38.189  -9.819 -11.701  1.00 15.90 LIG-0.39  OA
ATOM     33 HG1  THR B 157      37.455  -9.612 -12.054  1.00 15.90 LIG 0.21  HD
ENDBRANCH 30 32
ENDBRANCH 5 30
ENDBRANCH 3 5
BRANCH 1 34
ATOM     34  CA  SER B 156      35.317 -14.348  -8.853  1.00 16.58 LIG 0.20  C 
BRANCH 34 35
ATOM     35  N   SER B 156      33.923 -14.451  -8.439  1.00 15.80 LIG-0.34  N 
ATOM     36 H    SER B 156      33.368 -14.525  -9.092  1.00 15.80 LIG 0.16  HD
ATOM     37  C   PRO B 155      33.559 -14.429  -7.161  1.00 18.36 LIG 0.24  C 
ATOM     38 O    PRO B 155      34.359 -14.311  -6.232  1.00 18.57 LIG-0.27  OA
BRANCH 37 39
ATOM     39  CA  PRO B 155      32.065 -14.547  -6.890  1.00 19.30 LIG 0.18  C 
ATOM     40  CB  PRO B 155      31.266 -14.776  -8.167  1.00 17.99 LIG 0.04  C 
ATOM     41  CG  PRO B 155      31.069 -13.376  -8.665  1.00 20.29 LIG 0.02  C 
ATOM     42  CD  PRO B 155      30.690 -12.620  -7.399  1.00 20.15 LIG 0.13  C 
ATOM     43  N   PRO B 155      31.495 -13.300  -6.367  1.00 20.34 LIG-0.34  N 
ATOM     44  C   SER B 154      31.650 -12.917  -5.088  1.00 23.17 LIG 0.24  C 
ATOM     45 O    SER B 154      32.280 -13.592  -4.274  1.00 21.43 LIG-0.27  OA
BRANCH 44 46
ATOM     46  CA  SER B 154      31.007 -11.597  -4.673  1.00 26.04 LIG 0.20  C 
BRANCH 46 47
ATOM     47  N   SER B 154      29.578 -11.749  -4.416  1.00 29.08 LIG-0.34  N 
ATOM     48 H    SER B 154      29.390 -12.269  -3.757  1.00 29.08 LIG 0.16  HD
ATOM     49  C   VAL B 153      28.665 -11.126  -5.154  1.00 31.74 LIG 0.26  C 
ATOM     50 O    VAL B 153      28.953 -10.391  -6.096  1.00 31.76 LIG-0.27  OA
BRANCH 49 51
ATOM     51  CA  VAL B 153      27.208 -11.371  -4.776  1.00 34.29 LIG 0.40  C 
ATOM     52  N   VAL B 153      26.339 -10.294  -5.327  1.00 34.52 LIG 0.61  N 
BRANCH 51 53
ATOM     53  CB  VAL B 153      26.785 -12.761  -5.312  1.00 36.17 LIG 0.03  C 
ATOM     54  CG2 VAL B 153      26.861 -13.793  -4.203  1.00 38.03 LIG 0.01  C 
ATOM     55  CG1 VAL B 153      27.678 -13.164  -6.475  1.00 38.39 LIG 0.01  C 
ENDBRANCH 51 53
ENDBRANCH 49 51
ENDBRANCH 46 47
BRANCH 46 56
ATOM     56  CB  SER B 154      31.717 -11.058  -3.428  1.00 27.48 LIG 0.20  C 
BRANCH 56 57
ATOM     57 OG   SER B 154      30.859 -10.215  -2.678  1.00 30.72 LIG-0.40  OA
ATOM     58 HG   SER B 154      30.685  -9.525  -3.124  1.00 30.72 LIG 0.21  HD
ENDBRANCH 56 57
ENDBRANCH 46 56
ENDBRANCH 44 46
ENDBRANCH 37 39
ENDBRANCH 34 35
BRANCH 34 59
ATOM     59  CB  SER B 156      35.750 -15.620  -9.583  1.00 16.81 LIG 0.20  C 
BRANCH 59 60
ATOM     60 OG   SER B 156      34.675 -16.144 -10.349  1.00 16.65 LIG-0.40  OA
ATOM     61 HG   SER B 156      34.129 -15.531 -10.524  1.00 16.65 LIG 0.21  HD
ENDBRANCH 59 60
ENDBRANCH 34 59
ENDBRANCH 1 34
TORSDOF 24
ENDMDL
MODEL 34
USER: ADFR SOLUTION from run 189
USER: SCORE 18.003749 LL:  -4.592 LR: -13.651 RR:   0.000 FEB:  -6.491
USER: RMSD 5.220016
USER: SEED 188
USER: STATUS no improvement in best in 10 clusters for 5 generations
USER: GENES 26
USER: genes 0 Translation |==|  0.42470 0.56721 0.49942
USER: genes 1 Rotation |==|  0.04377 0.44366 0.69668 0.50123
USER: genes 2 Torsion [C]-N--CA-[C] |==|  0.71724
USER: genes 3 Torsion [N]-CA--C-[N] |==|  0.95306
USER: genes 4 Torsion [C]-N--CA-[C] |==|  0.85455
USER: genes 5 Torsion [N]-CA--C-[N] |==|  0.89622
USER: genes 6 Torsion [C]-N--CA-[CB] |==|  0.22974
USER: genes 7 Torsion [N]-CA--C-[O] |==|  0.97356
USER: genes 8 Torsion [N]-CA--CB-[CG] |==|  0.99462
USER: genes 9 Torsion [CA]-CB--CG-[CD2] |==|  0.73077
USER: genes 10 Torsion [CE2]-CZ--OH-[HH] |==|  0.42687
USER: genes 11 Torsion [N]-CA--CB-[OG] |==|  0.00169
USER: genes 12 Torsion [CA]-CB--OG-[HG] |==|  0.51100
USER: genes 13 Torsion [N]-CA--CB-[CG2] |==|  0.83561
USER: genes 14 Torsion [CA]-CB--OG1-[HG1] |==|  0.06383
USER: genes 15 Torsion [N]-C--CA-[N] |==|  0.37400
USER: genes 16 Torsion [C]-CA--N-[C] |==|  0.83748
USER: genes 17 Torsion [N]-C--CA-[CB] |==|  0.92048
USER: genes 18 Torsion [N]-C--CA-[N] |==|  0.39907
USER: genes 19 Torsion [C]-CA--N-[C] |==|  0.80013
USER: genes 20 Torsion [N]-C--CA-[N] |==|  0.21705
USER: genes 21 Torsion [C]-CA--CB-[CG2] |==|  0.78173
USER: genes 22 Torsion [C]-CA--CB-[OG] |==|  0.57439
USER: genes 23 Torsion [CA]-CB--OG-[HG] |==|  0.15226
USER: genes 24 Torsion [C]-CA--CB-[OG] |==|  0.60214
USER: genes 25 Torsion [CA]-CB--OG-[HG] |==|  0.94542
ROOT
ATOM      1  C   SER B 156      36.876 -14.807  -9.841  1.00 15.87 LIG 0.24  C 
ATOM      2 O    SER B 156      36.947 -15.026  -8.631  1.00 15.60 LIG-0.27  OA
ATOM      3  N   THR B 157      37.863 -15.080 -10.689  1.00 16.26 LIG-0.34  N 
ATOM      4 H    THR B 157      37.814 -14.970 -11.541  1.00 16.26 LIG 0.16  HD
ENDROOT
BRANCH 3 5
ATOM      5  CA  THR B 157      39.135 -15.601 -10.218  1.00 15.91 LIG 0.20  C 
BRANCH 5 6
ATOM      6  C   THR B 157      40.057 -14.386 -10.239  1.00 16.14 LIG 0.24  C 
ATOM      7 O    THR B 157      41.121 -14.402  -9.612  1.00 15.69 LIG-0.27  OA
ATOM      8  N   SER B 158      39.660 -13.339 -10.951  1.00 15.14 LIG-0.34  N 
ATOM      9 H    SER B 158      38.924 -13.306 -11.394  1.00 15.14 LIG 0.16  HD
BRANCH 8 10
ATOM     10  CA  SER B 158      40.476 -12.133 -11.033  1.00 18.36 LIG 0.20  C 
BRANCH 10 11
ATOM     11  C   SER B 158      40.852 -11.631  -9.642  1.00 20.96 LIG 0.24  C 
ATOM     12 O    SER B 158      41.964 -11.144  -9.427  1.00 20.92 LIG-0.27  OA
ATOM     13  N   TYR B 159      39.920 -11.752  -8.702  1.00 23.40 LIG-0.35  N 
ATOM     14 H    TYR B 159      39.141 -12.091  -8.839  1.00 23.40 LIG 0.16  HD
BRANCH 13 15
ATOM     15  CA  TYR B 159      40.153 -11.307  -7.331  1.00 28.83 LIG 0.17  C 
BRANCH 15 16
ATOM     16  C   TYR B 159      39.247 -12.050  -6.356  1.00 30.09 LIG 0.22  C 
ATOM     17 O    TYR B 159      38.345 -12.759  -6.852  1.00 33.46 LIG-0.29  OA
ENDBRANCH 15 16
BRANCH 15 18
ATOM     18  CB  TYR B 159      39.902  -9.801  -7.214  1.00 32.38 LIG 0.07  C 
BRANCH 18 19
ATOM     19  CG  TYR B 159      39.529  -9.145  -8.524  1.00 36.58 LIG-0.06  A 
ATOM     20  CD2 TYR B 159      40.489  -8.497  -9.301  1.00 38.67 LIG 0.01  A 
ATOM     21  CE2 TYR B 159      40.151  -7.901 -10.515  1.00 40.79 LIG 0.04  A 
ATOM     22  CZ  TYR B 159      38.839  -7.949 -10.959  1.00 41.05 LIG 0.07  A 
ATOM     23  CE1 TYR B 159      37.866  -8.585 -10.204  1.00 40.09 LIG 0.04  A 
ATOM     24  CD1 TYR B 159      38.216  -9.179  -8.994  1.00 38.09 LIG 0.01  A 
BRANCH 22 25
ATOM     25 OH   TYR B 159      38.499  -7.361 -12.156  1.00 43.66 LIG-0.36  OA
ATOM     26 HH   TYR B 159      37.822  -7.745 -12.475  1.00 43.66 LIG 0.22  HD
ENDBRANCH 22 25
ENDBRANCH 18 19
ENDBRANCH 15 18
ENDBRANCH 13 15
ENDBRANCH 10 11
BRANCH 10 27
ATOM     27  CB  SER B 158      39.722 -11.035 -11.785  1.00 15.79 LIG 0.20  C 
BRANCH 27 28
ATOM     28 OG   SER B 158      38.438 -11.484 -12.182  1.00 17.90 LIG-0.40  OA
ATOM     29 HG   SER B 158      38.061 -10.888 -12.639  1.00 17.90 LIG 0.21  HD
ENDBRANCH 27 28
ENDBRANCH 10 27
ENDBRANCH 8 10
ENDBRANCH 5 6
BRANCH 5 30
ATOM     30  CB  THR B 157      39.711 -16.675 -11.167  1.00 18.18 LIG 0.15  C 
ATOM     31  CG2 THR B 157      38.747 -17.840 -11.308  1.00 16.96 LIG 0.04  C 
BRANCH 30 32
ATOM     32 OG1  THR B 157      39.958 -16.093 -12.454  1.00 15.90 LIG-0.39  OA
ATOM     33 HG1  THR B 157      40.049 -15.261 -12.373  1.00 15.90 LIG 0.21  HD
ENDBRANCH 30 32
ENDBRANCH 5 30
ENDBRANCH 3 5
BRANCH 1 34
ATOM     34  CA  SER B 156      35.622 -14.204 -10.447  1.00 16.58 LIG 0.20  C 
BRANCH 34 35
ATOM     35  N   SER B 156      34.466 -14.893  -9.885  1.00 15.80 LIG-0.34  N 
ATOM     36 H    SER B 156      33.914 -14.376  -9.477  1.00 15.80 LIG 0.16  HD
ATOM     37  C   PRO B 155      34.297 -16.206 -10.002  1.00 18.36 LIG 0.24  C 
ATOM     38 O    PRO B 155      35.100 -16.942 -10.579  1.00 18.57 LIG-0.27  OA
BRANCH 37 39
ATOM     39  CA  PRO B 155      33.039 -16.778  -9.361  1.00 19.30 LIG 0.18  C 
ATOM     40  CB  PRO B 155      32.579 -15.953  -8.166  1.00 17.99 LIG 0.04  C 
ATOM     41  CG  PRO B 155      33.408 -16.525  -7.056  1.00 20.29 LIG 0.02  C 
ATOM     42  CD  PRO B 155      33.311 -18.024  -7.304  1.00 20.15 LIG 0.13  C 
ATOM     43  N   PRO B 155      33.268 -18.104  -8.776  1.00 20.34 LIG-0.34  N 
ATOM     44  C   SER B 154      33.337 -19.219  -9.522  1.00 23.17 LIG 0.24  C 
ATOM     45 O    SER B 154      33.214 -19.196 -10.747  1.00 21.43 LIG-0.27  OA
BRANCH 44 46
ATOM     46  CA  SER B 154      33.580 -20.535  -8.789  1.00 26.04 LIG 0.20  C 
BRANCH 46 47
ATOM     47  N   SER B 154      32.847 -21.638  -9.402  1.00 29.08 LIG-0.34  N 
ATOM     48 H    SER B 154      33.341 -22.198  -9.829  1.00 29.08 LIG 0.16  HD
ATOM     49  C   VAL B 153      31.526 -21.745  -9.296  1.00 31.74 LIG 0.26  C 
ATOM     50 O    VAL B 153      30.835 -20.931  -8.688  1.00 31.76 LIG-0.27  OA
BRANCH 49 51
ATOM     51  CA  VAL B 153      30.887 -22.947  -9.984  1.00 34.29 LIG 0.40  C 
ATOM     52  N   VAL B 153      31.079 -24.177  -9.165  1.00 34.52 LIG 0.61  N 
BRANCH 51 53
ATOM     53  CB  VAL B 153      29.384 -22.650 -10.204  1.00 36.17 LIG 0.03  C 
ATOM     54  CG2 VAL B 153      28.617 -22.854  -8.911  1.00 38.03 LIG 0.01  C 
ATOM     55  CG1 VAL B 153      28.829 -23.548 -11.298  1.00 38.39 LIG 0.01  C 
ENDBRANCH 51 53
ENDBRANCH 49 51
ENDBRANCH 46 47
BRANCH 46 56
ATOM     56  CB  SER B 154      35.080 -20.837  -8.773  1.00 27.48 LIG 0.20  C 
BRANCH 56 57
ATOM     57 OG   SER B 154      35.318 -22.231  -8.684  1.00 30.72 LIG-0.40  OA
ATOM     58 HG   SER B 154      34.914 -22.624  -9.306  1.00 30.72 LIG 0.21  HD
ENDBRANCH 56 57
ENDBRANCH 46 56
ENDBRANCH 44 46
ENDBRANCH 37 39
ENDBRANCH 34 35
BRANCH 34 59
ATOM     59  CB  SER B 156      35.583 -12.719 -10.085  1.00 16.81 LIG 0.20  C 
BRANCH 59 60
ATOM     60 OG   SER B 156      34.250 -12.302  -9.833  1.00 16.65 LIG-0.40  OA
ATOM     61 HG   SER B 156      33.714 -12.849 -10.179  1.00 16.65 LIG 0.21  HD
ENDBRANCH 59 60
ENDBRANCH 34 59
ENDBRANCH 1 34
TORSDOF 24
ENDMDL
MODEL 35
USER: ADFR SOLUTION from run 121
USER: SCORE 16.382597 LL:  -3.721 LR: -13.638 RR:   0.000 FEB:  -6.479
USER: RMSD 11.984715
USER: SEED 120
USER: STATUS searching
USER: GENES 26
USER: genes 0 Translation |==|  0.34891 0.62870 0.55789
USER: genes 1 Rotation |==|  0.36002 0.97068 0.58179 0.54663
USER: genes 2 Torsion [C]-N--CA-[C] |==|  0.76765
USER: genes 3 Torsion [N]-CA--C-[N] |==|  0.22846
USER: genes 4 Torsion [C]-N--CA-[C] |==|  0.15504
USER: genes 5 Torsion [N]-CA--C-[N] |==|  0.10542
USER: genes 6 Torsion [C]-N--CA-[CB] |==|  0.83191
USER: genes 7 Torsion [N]-CA--C-[O] |==|  0.44506
USER: genes 8 Torsion [N]-CA--CB-[CG] |==|  0.65109
USER: genes 9 Torsion [CA]-CB--CG-[CD2] |==|  0.63823
USER: genes 10 Torsion [CE2]-CZ--OH-[HH] |==|  0.44382
USER: genes 11 Torsion [N]-CA--CB-[OG] |==|  0.91367
USER: genes 12 Torsion [CA]-CB--OG-[HG] |==|  0.19102
USER: genes 13 Torsion [N]-CA--CB-[CG2] |==|  0.59072
USER: genes 14 Torsion [CA]-CB--OG1-[HG1] |==|  0.10118
USER: genes 15 Torsion [N]-C--CA-[N] |==|  0.43437
USER: genes 16 Torsion [C]-CA--N-[C] |==|  0.68482
USER: genes 17 Torsion [N]-C--CA-[CB] |==|  0.74448
USER: genes 18 Torsion [N]-C--CA-[N] |==|  0.19506
USER: genes 19 Torsion [C]-CA--N-[C] |==|  0.67533
USER: genes 20 Torsion [N]-C--CA-[N] |==|  0.94964
USER: genes 21 Torsion [C]-CA--CB-[CG2] |==|  0.54369
USER: genes 22 Torsion [C]-CA--CB-[OG] |==|  0.49227
USER: genes 23 Torsion [CA]-CB--OG-[HG] |==|  0.78713
USER: genes 24 Torsion [C]-CA--CB-[OG] |==|  0.21220
USER: genes 25 Torsion [CA]-CB--OG-[HG] |==|  0.90126
ROOT
ATOM      1  C   SER B 156      34.773 -13.378  -8.613  1.00 15.87 LIG 0.24  C 
ATOM      2 O    SER B 156      35.352 -13.169  -7.546  1.00 15.60 LIG-0.27  OA
ATOM      3  N   THR B 157      33.463 -13.582  -8.704  1.00 16.26 LIG-0.34  N 
ATOM      4 H    THR B 157      33.039 -13.690  -9.444  1.00 16.26 LIG 0.16  HD
ENDROOT
BRANCH 3 5
ATOM      5  CA  THR B 157      32.629 -13.640  -7.515  1.00 15.91 LIG 0.20  C 
BRANCH 5 6
ATOM      6  C   THR B 157      32.773 -15.083  -7.039  1.00 16.14 LIG 0.24  C 
ATOM      7 O    THR B 157      31.915 -15.922  -7.330  1.00 15.69 LIG-0.27  OA
ATOM      8  N   SER B 158      33.845 -15.375  -6.314  1.00 15.14 LIG-0.34  N 
ATOM      9 H    SER B 158      34.454 -14.807  -6.099  1.00 15.14 LIG 0.16  HD
BRANCH 8 10
ATOM     10  CA  SER B 158      34.070 -16.728  -5.816  1.00 18.36 LIG 0.20  C 
BRANCH 10 11
ATOM     11  C   SER B 158      34.068 -17.738  -6.959  1.00 20.96 LIG 0.24  C 
ATOM     12 O    SER B 158      33.562 -18.853  -6.814  1.00 20.92 LIG-0.27  OA
ATOM     13  N   TYR B 159      34.634 -17.342  -8.095  1.00 23.40 LIG-0.35  N 
ATOM     14 H    TYR B 159      34.992 -16.568  -8.209  1.00 23.40 LIG 0.16  HD
BRANCH 13 15
ATOM     15  CA  TYR B 159      34.694 -18.214  -9.265  1.00 28.83 LIG 0.17  C 
BRANCH 15 16
ATOM     16  C   TYR B 159      33.293 -18.587  -9.738  1.00 30.09 LIG 0.22  C 
ATOM     17 O    TYR B 159      33.185 -18.995 -10.914  1.00 33.46 LIG-0.29  OA
ENDBRANCH 15 16
BRANCH 15 18
ATOM     18  CB  TYR B 159      35.478 -19.487  -8.938  1.00 32.38 LIG 0.07  C 
BRANCH 18 19
ATOM     19  CG  TYR B 159      36.625 -19.753  -9.887  1.00 36.58 LIG-0.06  A 
ATOM     20  CD2 TYR B 159      36.787 -21.003 -10.484  1.00 38.67 LIG 0.01  A 
ATOM     21  CE2 TYR B 159      37.836 -21.249 -11.368  1.00 40.79 LIG 0.04  A 
ATOM     22  CZ  TYR B 159      38.736 -20.236 -11.660  1.00 41.05 LIG 0.07  A 
ATOM     23  CE1 TYR B 159      38.597 -18.986 -11.079  1.00 40.09 LIG 0.04  A 
ATOM     24  CD1 TYR B 159      37.544 -18.751 -10.199  1.00 38.09 LIG 0.01  A 
BRANCH 22 25
ATOM     25 OH   TYR B 159      39.775 -20.473 -12.532  1.00 43.66 LIG-0.36  OA
ATOM     26 HH   TYR B 159      40.064 -19.742 -12.829  1.00 43.66 LIG 0.22  HD
ENDBRANCH 22 25
ENDBRANCH 18 19
ENDBRANCH 15 18
ENDBRANCH 13 15
ENDBRANCH 10 11
BRANCH 10 27
ATOM     27  CB  SER B 158      32.990 -17.103  -4.801  1.00 15.79 LIG 0.20  C 
BRANCH 27 28
ATOM     28 OG   SER B 158      32.538 -15.960  -4.096  1.00 17.90 LIG-0.40  OA
ATOM     29 HG   SER B 158      32.111 -15.459  -4.618  1.00 17.90 LIG 0.21  HD
ENDBRANCH 27 28
ENDBRANCH 10 27
ENDBRANCH 8 10
ENDBRANCH 5 6
BRANCH 5 30
ATOM     30  CB  THR B 157      31.142 -13.371  -7.834  1.00 18.18 LIG 0.15  C 
ATOM     31  CG2 THR B 157      30.464 -12.664  -6.673  1.00 16.96 LIG 0.04  C 
BRANCH 30 32
ATOM     32 OG1  THR B 157      31.045 -12.564  -9.015  1.00 15.90 LIG-0.39  OA
ATOM     33 HG1  THR B 157      31.648 -12.787  -9.557  1.00 15.90 LIG 0.21  HD
ENDBRANCH 30 32
ENDBRANCH 5 30
ENDBRANCH 3 5
BRANCH 1 34
ATOM     34  CA  SER B 156      35.546 -13.405  -9.920  1.00 16.58 LIG 0.20  C 
BRANCH 34 35
ATOM     35  N   SER B 156      36.773 -12.640  -9.742  1.00 15.80 LIG-0.34  N 
ATOM     36 H    SER B 156      37.329 -12.991  -9.189  1.00 15.80 LIG 0.16  HD
ATOM     37  C   PRO B 155      36.997 -11.498 -10.387  1.00 18.36 LIG 0.24  C 
ATOM     38 O    PRO B 155      36.190 -10.995 -11.170  1.00 18.57 LIG-0.27  OA
BRANCH 37 39
ATOM     39  CA  PRO B 155      38.327 -10.816 -10.095  1.00 19.30 LIG 0.18  C 
ATOM     40  CB  PRO B 155      38.216  -9.807  -8.958  1.00 17.99 LIG 0.04  C 
ATOM     41  CG  PRO B 155      37.740  -8.580  -9.675  1.00 20.29 LIG 0.02  C 
ATOM     42  CD  PRO B 155      38.619  -8.558 -10.919  1.00 20.15 LIG 0.13  C 
ATOM     43  N   PRO B 155      38.787  -9.992 -11.219  1.00 20.34 LIG-0.34  N 
ATOM     44  C   SER B 154      39.354 -10.522 -12.316  1.00 23.17 LIG 0.24  C 
ATOM     45 O    SER B 154      39.522 -11.735 -12.445  1.00 21.43 LIG-0.27  OA
BRANCH 44 46
ATOM     46  CA  SER B 154      39.788  -9.555 -13.413  1.00 26.04 LIG 0.20  C 
BRANCH 46 47
ATOM     47  N   SER B 154      40.940  -8.758 -13.004  1.00 29.08 LIG-0.34  N 
ATOM     48 H    SER B 154      41.652  -9.216 -12.851  1.00 29.08 LIG 0.16  HD
ATOM     49  C   VAL B 153      40.869  -7.435 -12.887  1.00 31.74 LIG 0.26  C 
ATOM     50 O    VAL B 153      39.842  -6.798 -13.104  1.00 31.76 LIG-0.27  OA
BRANCH 49 51
ATOM     51  CA  VAL B 153      42.148  -6.725 -12.454  1.00 34.29 LIG 0.40  C 
ATOM     52  N   VAL B 153      43.097  -7.693 -11.836  1.00 34.52 LIG 0.61  N 
BRANCH 51 53
ATOM     53  CB  VAL B 153      42.776  -6.040 -13.692  1.00 36.17 LIG 0.03  C 
ATOM     54  CG2 VAL B 153      44.216  -5.661 -13.405  1.00 38.03 LIG 0.01  C 
ATOM     55  CG1 VAL B 153      41.968  -4.809 -14.073  1.00 38.39 LIG 0.01  C 
ENDBRANCH 51 53
ENDBRANCH 49 51
ENDBRANCH 46 47
BRANCH 46 56
ATOM     56  CB  SER B 154      40.110 -10.344 -14.685  1.00 27.48 LIG 0.20  C 
BRANCH 56 57
ATOM     57 OG   SER B 154      40.457  -9.474 -15.749  1.00 30.72 LIG-0.40  OA
ATOM     58 HG   SER B 154      39.762  -9.120 -16.059  1.00 30.72 LIG 0.21  HD
ENDBRANCH 56 57
ENDBRANCH 46 56
ENDBRANCH 44 46
ENDBRANCH 37 39
ENDBRANCH 34 35
BRANCH 34 59
ATOM     59  CB  SER B 156      35.872 -14.863 -10.251  1.00 16.81 LIG 0.20  C 
BRANCH 59 60
ATOM     60 OG   SER B 156      34.722 -15.529 -10.751  1.00 16.65 LIG-0.40  OA
ATOM     61 HG   SER B 156      34.037 -15.241 -10.358  1.00 16.65 LIG 0.21  HD
ENDBRANCH 59 60
ENDBRANCH 34 59
ENDBRANCH 1 34
TORSDOF 24
ENDMDL
MODEL 36
USER: ADFR SOLUTION from run 148
USER: SCORE 16.951938 LL:  -4.735 LR: -13.637 RR:   0.000 FEB:  -6.478
USER: RMSD 12.849127
USER: SEED 147
USER: STATUS no improvement in best in 6 clusters for 5 generations
USER: GENES 26
USER: genes 0 Translation |==|  0.34145 0.63807 0.51064
USER: genes 1 Rotation |==|  0.81205 0.18592 0.69640 0.62411
USER: genes 2 Torsion [C]-N--CA-[C] |==|  0.63333
USER: genes 3 Torsion [N]-CA--C-[N] |==|  0.93246
USER: genes 4 Torsion [C]-N--CA-[C] |==|  0.16687
USER: genes 5 Torsion [N]-CA--C-[N] |==|  0.05861
USER: genes 6 Torsion [C]-N--CA-[CB] |==|  0.44751
USER: genes 7 Torsion [N]-CA--C-[O] |==|  0.43756
USER: genes 8 Torsion [N]-CA--CB-[CG] |==|  0.81709
USER: genes 9 Torsion [CA]-CB--CG-[CD2] |==|  0.44767
USER: genes 10 Torsion [CE2]-CZ--OH-[HH] |==|  0.49569
USER: genes 11 Torsion [N]-CA--CB-[OG] |==|  0.76730
USER: genes 12 Torsion [CA]-CB--OG-[HG] |==|  0.03919
USER: genes 13 Torsion [N]-CA--CB-[CG2] |==|  0.73737
USER: genes 14 Torsion [CA]-CB--OG1-[HG1] |==|  0.75765
USER: genes 15 Torsion [N]-C--CA-[N] |==|  0.68231
USER: genes 16 Torsion [C]-CA--N-[C] |==|  0.15776
USER: genes 17 Torsion [N]-C--CA-[CB] |==|  0.51357
USER: genes 18 Torsion [N]-C--CA-[N] |==|  0.46753
USER: genes 19 Torsion [C]-CA--N-[C] |==|  0.65392
USER: genes 20 Torsion [N]-C--CA-[N] |==|  0.17819
USER: genes 21 Torsion [C]-CA--CB-[CG2] |==|  0.77601
USER: genes 22 Torsion [C]-CA--CB-[OG] |==|  0.52878
USER: genes 23 Torsion [CA]-CB--OG-[HG] |==|  0.17923
USER: genes 24 Torsion [C]-CA--CB-[OG] |==|  0.21062
USER: genes 25 Torsion [CA]-CB--OG-[HG] |==|  0.83228
ROOT
ATOM      1  C   SER B 156      34.566 -13.160  -9.606  1.00 15.87 LIG 0.24  C 
ATOM      2 O    SER B 156      34.384 -11.962  -9.829  1.00 15.60 LIG-0.27  OA
ATOM      3  N   THR B 157      33.896 -13.839  -8.680  1.00 16.26 LIG-0.34  N 
ATOM      4 H    THR B 157      33.984 -14.683  -8.540  1.00 16.26 LIG 0.16  HD
ENDROOT
BRANCH 3 5
ATOM      5  CA  THR B 157      32.936 -13.178  -7.813  1.00 15.91 LIG 0.20  C 
BRANCH 5 6
ATOM      6  C   THR B 157      33.305 -13.671  -6.417  1.00 16.14 LIG 0.24  C 
ATOM      7 O    THR B 157      33.010 -13.000  -5.423  1.00 15.69 LIG-0.27  OA
ATOM      8  N   SER B 158      33.943 -14.831  -6.336  1.00 15.14 LIG-0.34  N 
ATOM      9 H    SER B 158      34.159 -15.314  -7.014  1.00 15.14 LIG 0.16  HD
BRANCH 8 10
ATOM     10  CA  SER B 158      34.335 -15.385  -5.044  1.00 18.36 LIG 0.20  C 
BRANCH 10 11
ATOM     11  C   SER B 158      33.115 -15.619  -4.157  1.00 20.96 LIG 0.24  C 
ATOM     12 O    SER B 158      33.234 -15.705  -2.934  1.00 20.92 LIG-0.27  OA
ATOM     13  N   TYR B 159      31.946 -15.720  -4.781  1.00 23.40 LIG-0.35  N 
ATOM     14 H    TYR B 159      31.850 -15.663  -5.634  1.00 23.40 LIG 0.16  HD
BRANCH 13 15
ATOM     15  CA  TYR B 159      30.703 -15.940  -4.046  1.00 28.83 LIG 0.17  C 
BRANCH 15 16
ATOM     16  C   TYR B 159      30.574 -17.398  -3.619  1.00 30.09 LIG 0.22  C 
ATOM     17 O    TYR B 159      29.821 -17.637  -2.651  1.00 33.46 LIG-0.29  OA
ENDBRANCH 15 16
BRANCH 15 18
ATOM     18  CB  TYR B 159      29.501 -15.554  -4.913  1.00 32.38 LIG 0.07  C 
BRANCH 18 19
ATOM     19  CG  TYR B 159      29.431 -14.077  -5.229  1.00 36.58 LIG-0.06  A 
ATOM     20  CD2 TYR B 159      28.661 -13.607  -6.293  1.00 38.67 LIG 0.01  A 
ATOM     21  CE2 TYR B 159      28.585 -12.246  -6.581  1.00 40.79 LIG 0.04  A 
ATOM     22  CZ  TYR B 159      29.287 -11.341  -5.799  1.00 41.05 LIG 0.07  A 
ATOM     23  CE1 TYR B 159      30.060 -11.783  -4.738  1.00 40.09 LIG 0.04  A 
ATOM     24  CD1 TYR B 159      30.126 -13.146  -4.458  1.00 38.09 LIG 0.01  A 
BRANCH 22 25
ATOM     25 OH   TYR B 159      29.216  -9.995  -6.079  1.00 43.66 LIG-0.36  OA
ATOM     26 HH   TYR B 159      29.670  -9.567  -5.516  1.00 43.66 LIG 0.22  HD
ENDBRANCH 22 25
ENDBRANCH 18 19
ENDBRANCH 15 18
ENDBRANCH 13 15
ENDBRANCH 10 11
BRANCH 10 27
ATOM     27  CB  SER B 158      35.306 -14.438  -4.337  1.00 15.79 LIG 0.20  C 
BRANCH 27 28
ATOM     28 OG   SER B 158      36.634 -14.648  -4.785  1.00 17.90 LIG-0.40  OA
ATOM     29 HG   SER B 158      36.624 -15.111  -5.485  1.00 17.90 LIG 0.21  HD
ENDBRANCH 27 28
ENDBRANCH 10 27
ENDBRANCH 8 10
ENDBRANCH 5 6
BRANCH 5 30
ATOM     30  CB  THR B 157      31.484 -13.605  -8.120  1.00 18.18 LIG 0.15  C 
ATOM     31  CG2 THR B 157      30.827 -12.627  -9.079  1.00 16.96 LIG 0.04  C 
BRANCH 30 32
ATOM     32 OG1  THR B 157      31.483 -14.919  -8.694  1.00 15.90 LIG-0.39  OA
ATOM     33 HG1  THR B 157      31.581 -14.862  -9.526  1.00 15.90 LIG 0.21  HD
ENDBRANCH 30 32
ENDBRANCH 5 30
ENDBRANCH 3 5
BRANCH 1 34
ATOM     34  CA  SER B 156      35.590 -13.948 -10.403  1.00 16.58 LIG 0.20  C 
BRANCH 34 35
ATOM     35  N   SER B 156      36.914 -13.428 -10.087  1.00 15.80 LIG-0.34  N 
ATOM     36 H    SER B 156      37.358 -13.158 -10.772  1.00 15.80 LIG 0.16  HD
ATOM     37  C   PRO B 155      37.381 -13.383  -8.843  1.00 18.36 LIG 0.24  C 
ATOM     38 O    PRO B 155      36.743 -13.782  -7.867  1.00 18.57 LIG-0.27  OA
BRANCH 37 39
ATOM     39  CA  PRO B 155      38.783 -12.812  -8.675  1.00 19.30 LIG 0.18  C 
ATOM     40  CB  PRO B 155      39.274 -12.911  -7.236  1.00 17.99 LIG 0.04  C 
ATOM     41  CG  PRO B 155      38.693 -11.673  -6.623  1.00 20.29 LIG 0.02  C 
ATOM     42  CD  PRO B 155      38.973 -10.613  -7.680  1.00 20.15 LIG 0.13  C 
ATOM     43  N   PRO B 155      38.830 -11.369  -8.938  1.00 20.34 LIG-0.34  N 
ATOM     44  C   SER B 154      38.824 -10.863 -10.183  1.00 23.17 LIG 0.24  C 
ATOM     45 O    SER B 154      38.778 -11.581 -11.182  1.00 21.43 LIG-0.27  OA
BRANCH 44 46
ATOM     46  CA  SER B 154      38.876  -9.344 -10.318  1.00 26.04 LIG 0.20  C 
BRANCH 46 47
ATOM     47  N   SER B 154      39.139  -8.933 -11.694  1.00 29.08 LIG-0.34  N 
ATOM     48 H    SER B 154      38.584  -9.249 -12.270  1.00 29.08 LIG 0.16  HD
ATOM     49  C   VAL B 153      40.157  -8.136 -12.003  1.00 31.74 LIG 0.26  C 
ATOM     50 O    VAL B 153      40.943  -7.699 -11.166  1.00 31.76 LIG-0.27  OA
BRANCH 49 51
ATOM     51  CA  VAL B 153      40.316  -7.784 -13.479  1.00 34.29 LIG 0.40  C 
ATOM     52  N   VAL B 153      39.144  -6.996 -13.954  1.00 34.52 LIG 0.61  N 
BRANCH 51 53
ATOM     53  CB  VAL B 153      41.633  -6.991 -13.658  1.00 36.17 LIG 0.03  C 
ATOM     54  CG2 VAL B 153      41.424  -5.538 -13.278  1.00 38.03 LIG 0.01  C 
ATOM     55  CG1 VAL B 153      42.116  -7.099 -15.096  1.00 38.39 LIG 0.01  C 
ENDBRANCH 51 53
ENDBRANCH 49 51
ENDBRANCH 46 47
BRANCH 46 56
ATOM     56  CB  SER B 154      37.554  -8.747  -9.828  1.00 27.48 LIG 0.20  C 
BRANCH 56 57
ATOM     57 OG   SER B 154      37.466  -7.370 -10.153  1.00 30.72 LIG-0.40  OA
ATOM     58 HG   SER B 154      37.449  -7.280 -10.988  1.00 30.72 LIG 0.21  HD
ENDBRANCH 56 57
ENDBRANCH 46 56
ENDBRANCH 44 46
ENDBRANCH 37 39
ENDBRANCH 34 35
BRANCH 34 59
ATOM     59  CB  SER B 156      35.485 -15.418  -9.993  1.00 16.81 LIG 0.20  C 
BRANCH 59 60
ATOM     60 OG   SER B 156      34.338 -16.017 -10.579  1.00 16.65 LIG-0.40  OA
ATOM     61 HG   SER B 156      33.648 -15.616 -10.318  1.00 16.65 LIG 0.21  HD
ENDBRANCH 59 60
ENDBRANCH 34 59
ENDBRANCH 1 34
TORSDOF 24
ENDMDL
MODEL 37
USER: ADFR SOLUTION from run 153
USER: SCORE 16.832463 LL:  -3.793 LR: -13.635 RR:   0.000 FEB:  -6.475
USER: RMSD 12.950983
USER: SEED 152
USER: STATUS no improvement in best in 19 clusters for 5 generations
USER: GENES 26
USER: genes 0 Translation |==|  0.34031 0.58083 0.56756
USER: genes 1 Rotation |==|  0.38185 0.97702 0.57512 0.55343
USER: genes 2 Torsion [C]-N--CA-[C] |==|  0.72272
USER: genes 3 Torsion [N]-CA--C-[N] |==|  0.46506
USER: genes 4 Torsion [C]-N--CA-[C] |==|  0.79612
USER: genes 5 Torsion [N]-CA--C-[N] |==|  0.33502
USER: genes 6 Torsion [C]-N--CA-[CB] |==|  0.39587
USER: genes 7 Torsion [N]-CA--C-[O] |==|  0.45867
USER: genes 8 Torsion [N]-CA--CB-[CG] |==|  0.04539
USER: genes 9 Torsion [CA]-CB--CG-[CD2] |==|  0.73033
USER: genes 10 Torsion [CE2]-CZ--OH-[HH] |==|  0.57836
USER: genes 11 Torsion [N]-CA--CB-[OG] |==|  0.81820
USER: genes 12 Torsion [CA]-CB--OG-[HG] |==|  0.03147
USER: genes 13 Torsion [N]-CA--CB-[CG2] |==|  0.59752
USER: genes 14 Torsion [CA]-CB--OG1-[HG1] |==|  0.06367
USER: genes 15 Torsion [N]-C--CA-[N] |==|  0.45721
USER: genes 16 Torsion [C]-CA--N-[C] |==|  0.78321
USER: genes 17 Torsion [N]-C--CA-[CB] |==|  0.75562
USER: genes 18 Torsion [N]-C--CA-[N] |==|  0.48619
USER: genes 19 Torsion [C]-CA--N-[C] |==|  0.70730
USER: genes 20 Torsion [N]-C--CA-[N] |==|  0.92046
USER: genes 21 Torsion [C]-CA--CB-[CG2] |==|  0.94630
USER: genes 22 Torsion [C]-CA--CB-[OG] |==|  0.57187
USER: genes 23 Torsion [CA]-CB--OG-[HG] |==|  0.43536
USER: genes 24 Torsion [C]-CA--CB-[OG] |==|  0.19909
USER: genes 25 Torsion [CA]-CB--OG-[HG] |==|  0.94184
ROOT
ATOM      1  C   SER B 156      34.534 -14.491  -8.410  1.00 15.87 LIG 0.24  C 
ATOM      2 O    SER B 156      35.114 -14.323  -7.336  1.00 15.60 LIG-0.27  OA
ATOM      3  N   THR B 157      33.212 -14.570  -8.520  1.00 16.26 LIG-0.34  N 
ATOM      4 H    THR B 157      32.792 -14.647  -9.266  1.00 16.26 LIG 0.16  HD
ENDROOT
BRANCH 3 5
ATOM      5  CA  THR B 157      32.358 -14.531  -7.345  1.00 15.91 LIG 0.20  C 
BRANCH 5 6
ATOM      6  C   THR B 157      32.018 -15.996  -7.093  1.00 16.14 LIG 0.24  C 
ATOM      7 O    THR B 157      32.267 -16.849  -7.951  1.00 15.69 LIG-0.27  OA
ATOM      8  N   SER B 158      31.455 -16.293  -5.928  1.00 15.14 LIG-0.34  N 
ATOM      9 H    SER B 158      31.272 -15.716  -5.318  1.00 15.14 LIG 0.16  HD
BRANCH 8 10
ATOM     10  CA  SER B 158      31.097 -17.668  -5.595  1.00 18.36 LIG 0.20  C 
BRANCH 10 11
ATOM     11  C   SER B 158      29.868 -18.118  -6.380  1.00 20.96 LIG 0.24  C 
ATOM     12 O    SER B 158      28.798 -17.518  -6.273  1.00 20.92 LIG-0.27  OA
ATOM     13  N   TYR B 159      30.030 -19.176  -7.168  1.00 23.40 LIG-0.35  N 
ATOM     14 H    TYR B 159      30.771 -19.605  -7.251  1.00 23.40 LIG 0.16  HD
BRANCH 13 15
ATOM     15  CA  TYR B 159      28.933 -19.705  -7.975  1.00 28.83 LIG 0.17  C 
BRANCH 15 16
ATOM     16  C   TYR B 159      28.241 -20.861  -7.263  1.00 30.09 LIG 0.22  C 
ATOM     17 O    TYR B 159      27.126 -21.210  -7.705  1.00 33.46 LIG-0.29  OA
ENDBRANCH 15 16
BRANCH 15 18
ATOM     18  CB  TYR B 159      29.457 -20.182  -9.332  1.00 32.38 LIG 0.07  C 
BRANCH 18 19
ATOM     19  CG  TYR B 159      30.958 -20.365  -9.372  1.00 36.58 LIG-0.06  A 
ATOM     20  CD2 TYR B 159      31.789 -19.367  -9.879  1.00 38.67 LIG 0.01  A 
ATOM     21  CE2 TYR B 159      33.173 -19.528  -9.907  1.00 40.79 LIG 0.04  A 
ATOM     22  CZ  TYR B 159      33.735 -20.700  -9.427  1.00 41.05 LIG 0.07  A 
ATOM     23  CE1 TYR B 159      32.931 -21.707  -8.920  1.00 40.09 LIG 0.04  A 
ATOM     24  CD1 TYR B 159      31.549 -21.534  -8.894  1.00 38.09 LIG 0.01  A 
BRANCH 22 25
ATOM     25 OH   TYR B 159      35.102 -20.865  -9.453  1.00 43.66 LIG-0.36  OA
ATOM     26 HH   TYR B 159      35.285 -21.683  -9.513  1.00 43.66 LIG 0.22  HD
ENDBRANCH 22 25
ENDBRANCH 18 19
ENDBRANCH 15 18
ENDBRANCH 13 15
ENDBRANCH 10 11
BRANCH 10 27
ATOM     27  CB  SER B 158      30.819 -17.792  -4.096  1.00 15.79 LIG 0.20  C 
BRANCH 27 28
ATOM     28 OG   SER B 158      31.994 -17.553  -3.342  1.00 17.90 LIG-0.40  OA
ATOM     29 HG   SER B 158      32.589 -17.237  -3.843  1.00 17.90 LIG 0.21  HD
ENDBRANCH 27 28
ENDBRANCH 10 27
ENDBRANCH 8 10
ENDBRANCH 5 6
BRANCH 5 30
ATOM     30  CB  THR B 157      31.047 -13.757  -7.605  1.00 18.18 LIG 0.15  C 
ATOM     31  CG2 THR B 157      30.616 -12.998  -6.361  1.00 16.96 LIG 0.04  C 
BRANCH 30 32
ATOM     32 OG1  THR B 157      31.241 -12.838  -8.689  1.00 15.90 LIG-0.39  OA
ATOM     33 HG1  THR B 157      31.881 -13.099  -9.166  1.00 15.90 LIG 0.21  HD
ENDBRANCH 30 32
ENDBRANCH 5 30
ENDBRANCH 3 5
BRANCH 1 34
ATOM     34  CA  SER B 156      35.321 -14.611  -9.703  1.00 16.58 LIG 0.20  C 
BRANCH 34 35
ATOM     35  N   SER B 156      36.679 -14.143  -9.457  1.00 15.80 LIG-0.34  N 
ATOM     36 H    SER B 156      37.256 -14.773  -9.358  1.00 15.80 LIG 0.16  HD
ATOM     37  C   PRO B 155      36.983 -12.850  -9.395  1.00 18.36 LIG 0.24  C 
ATOM     38 O    PRO B 155      36.149 -11.952  -9.527  1.00 18.57 LIG-0.27  OA
BRANCH 37 39
ATOM     39  CA  PRO B 155      38.446 -12.519  -9.131  1.00 19.30 LIG 0.18  C 
ATOM     40  CB  PRO B 155      38.760 -12.453  -7.642  1.00 17.99 LIG 0.04  C 
ATOM     41  CG  PRO B 155      38.378 -11.042  -7.306  1.00 20.29 LIG 0.02  C 
ATOM     42  CD  PRO B 155      38.969 -10.251  -8.465  1.00 20.15 LIG 0.13  C 
ATOM     43  N   PRO B 155      38.806 -11.177  -9.602  1.00 20.34 LIG-0.34  N 
ATOM     44  C   SER B 154      39.027 -10.903 -10.899  1.00 23.17 LIG 0.24  C 
ATOM     45 O    SER B 154      38.940 -11.764 -11.774  1.00 21.43 LIG-0.27  OA
BRANCH 44 46
ATOM     46  CA  SER B 154      39.393  -9.465 -11.255  1.00 26.04 LIG 0.20  C 
BRANCH 46 47
ATOM     47  N   SER B 154      39.719  -9.326 -12.671  1.00 29.08 LIG-0.34  N 
ATOM     48 H    SER B 154      39.038  -9.349 -13.195  1.00 29.08 LIG 0.16  HD
ATOM     49  C   VAL B 153      40.973  -9.179 -13.088  1.00 31.74 LIG 0.26  C 
ATOM     50 O    VAL B 153      41.935  -9.155 -12.324  1.00 31.76 LIG-0.27  OA
BRANCH 49 51
ATOM     51  CA  VAL B 153      41.172  -9.043 -14.595  1.00 34.29 LIG 0.40  C 
ATOM     52  N   VAL B 153      40.091  -9.757 -15.329  1.00 34.52 LIG 0.61  N 
BRANCH 51 53
ATOM     53  CB  VAL B 153      41.194  -7.537 -14.955  1.00 36.17 LIG 0.03  C 
ATOM     54  CG2 VAL B 153      40.555  -6.726 -13.845  1.00 38.03 LIG 0.01  C 
ATOM     55  CG1 VAL B 153      40.465  -7.305 -16.269  1.00 38.39 LIG 0.01  C 
ENDBRANCH 51 53
ENDBRANCH 49 51
ENDBRANCH 46 47
BRANCH 46 56
ATOM     56  CB  SER B 154      38.231  -8.540 -10.883  1.00 27.48 LIG 0.20  C 
BRANCH 56 57
ATOM     57 OG   SER B 154      38.238  -7.369 -11.682  1.00 30.72 LIG-0.40  OA
ATOM     58 HG   SER B 154      37.466  -7.040 -11.704  1.00 30.72 LIG 0.21  HD
ENDBRANCH 56 57
ENDBRANCH 46 56
ENDBRANCH 44 46
ENDBRANCH 37 39
ENDBRANCH 34 35
BRANCH 34 59
ATOM     59  CB  SER B 156      35.334 -16.083 -10.119  1.00 16.81 LIG 0.20  C 
BRANCH 59 60
ATOM     60 OG   SER B 156      34.050 -16.482 -10.578  1.00 16.65 LIG-0.40  OA
ATOM     61 HG   SER B 156      33.469 -15.953 -10.281  1.00 16.65 LIG 0.21  HD
ENDBRANCH 59 60
ENDBRANCH 34 59
ENDBRANCH 1 34
TORSDOF 24
ENDMDL
MODEL 38
USER: ADFR SOLUTION from run 133
USER: SCORE 17.365473 LL:  -4.212 LR: -13.623 RR:   0.000 FEB:  -6.464
USER: RMSD 12.253722
USER: SEED 132
USER: STATUS no improvement in best in 19 clusters for 5 generations
USER: GENES 26
USER: genes 0 Translation |==|  0.31098 0.56668 0.59015
USER: genes 1 Rotation |==|  0.47379 0.97997 0.37436 0.55622
USER: genes 2 Torsion [C]-N--CA-[C] |==|  0.80891
USER: genes 3 Torsion [N]-CA--C-[N] |==|  0.32222
USER: genes 4 Torsion [C]-N--CA-[C] |==|  0.73950
USER: genes 5 Torsion [N]-CA--C-[N] |==|  0.96448
USER: genes 6 Torsion [C]-N--CA-[CB] |==|  0.21727
USER: genes 7 Torsion [N]-CA--C-[O] |==|  0.96504
USER: genes 8 Torsion [N]-CA--CB-[CG] |==|  0.19959
USER: genes 9 Torsion [CA]-CB--CG-[CD2] |==|  0.85289
USER: genes 10 Torsion [CE2]-CZ--OH-[HH] |==|  0.04839
USER: genes 11 Torsion [N]-CA--CB-[OG] |==|  0.01060
USER: genes 12 Torsion [CA]-CB--OG-[HG] |==|  0.41198
USER: genes 13 Torsion [N]-CA--CB-[CG2] |==|  0.42932
USER: genes 14 Torsion [CA]-CB--OG1-[HG1] |==|  0.08564
USER: genes 15 Torsion [N]-C--CA-[N] |==|  0.38889
USER: genes 16 Torsion [C]-CA--N-[C] |==|  0.65653
USER: genes 17 Torsion [N]-C--CA-[CB] |==|  0.08738
USER: genes 18 Torsion [N]-C--CA-[N] |==|  0.45641
USER: genes 19 Torsion [C]-CA--N-[C] |==|  0.77224
USER: genes 20 Torsion [N]-C--CA-[N] |==|  0.41524
USER: genes 21 Torsion [C]-CA--CB-[CG2] |==|  0.23189
USER: genes 22 Torsion [C]-CA--CB-[OG] |==|  0.70706
USER: genes 23 Torsion [CA]-CB--OG-[HG] |==|  0.84619
USER: genes 24 Torsion [C]-CA--CB-[OG] |==|  0.59820
USER: genes 25 Torsion [CA]-CB--OG-[HG] |==|  0.13965
ROOT
ATOM      1  C   SER B 156      33.721 -14.820  -7.936  1.00 15.87 LIG 0.24  C 
ATOM      2 O    SER B 156      34.346 -14.175  -7.092  1.00 15.60 LIG-0.27  OA
ATOM      3  N   THR B 157      32.502 -14.488  -8.350  1.00 16.26 LIG-0.34  N 
ATOM      4 H    THR B 157      32.069 -14.905  -8.966  1.00 16.26 LIG 0.16  HD
ENDROOT
BRANCH 3 5
ATOM      5  CA  THR B 157      31.793 -13.361  -7.769  1.00 15.91 LIG 0.20  C 
BRANCH 5 6
ATOM      6  C   THR B 157      31.480 -13.820  -6.348  1.00 16.14 LIG 0.24  C 
ATOM      7 O    THR B 157      30.733 -14.784  -6.155  1.00 15.69 LIG-0.27  OA
ATOM      8  N   SER B 158      32.045 -13.141  -5.357  1.00 15.14 LIG-0.34  N 
ATOM      9 H    SER B 158      32.567 -12.467  -5.468  1.00 15.14 LIG 0.16  HD
BRANCH 8 10
ATOM     10  CA  SER B 158      31.808 -13.507  -3.964  1.00 18.36 LIG 0.20  C 
BRANCH 10 11
ATOM     11  C   SER B 158      30.655 -12.700  -3.375  1.00 20.96 LIG 0.24  C 
ATOM     12 O    SER B 158      30.148 -13.019  -2.298  1.00 20.92 LIG-0.27  OA
ATOM     13  N   TYR B 159      30.245 -11.654  -4.087  1.00 23.40 LIG-0.35  N 
ATOM     14 H    TYR B 159      30.589 -11.422  -4.841  1.00 23.40 LIG 0.16  HD
BRANCH 13 15
ATOM     15  CA  TYR B 159      29.153 -10.799  -3.631  1.00 28.83 LIG 0.17  C 
BRANCH 15 16
ATOM     16  C   TYR B 159      28.565 -10.003  -4.791  1.00 30.09 LIG 0.22  C 
ATOM     17 O    TYR B 159      29.216  -9.995  -5.858  1.00 33.46 LIG-0.29  OA
ENDBRANCH 15 16
BRANCH 15 18
ATOM     18  CB  TYR B 159      29.651  -9.834  -2.552  1.00 32.38 LIG 0.07  C 
BRANCH 18 19
ATOM     19  CG  TYR B 159      30.548  -8.739  -3.085  1.00 36.58 LIG-0.06  A 
ATOM     20  CD2 TYR B 159      31.668  -9.042  -3.859  1.00 38.67 LIG 0.01  A 
ATOM     21  CE2 TYR B 159      32.490  -8.035  -4.362  1.00 40.79 LIG 0.04  A 
ATOM     22  CZ  TYR B 159      32.194  -6.710  -4.086  1.00 41.05 LIG 0.07  A 
ATOM     23  CE1 TYR B 159      31.088  -6.383  -3.318  1.00 40.09 LIG 0.04  A 
ATOM     24  CD1 TYR B 159      30.272  -7.397  -2.824  1.00 38.09 LIG 0.01  A 
BRANCH 22 25
ATOM     25 OH   TYR B 159      33.003  -5.710  -4.579  1.00 43.66 LIG-0.36  OA
ATOM     26 HH   TYR B 159      33.476  -6.014  -5.203  1.00 43.66 LIG 0.22  HD
ENDBRANCH 22 25
ENDBRANCH 18 19
ENDBRANCH 15 18
ENDBRANCH 13 15
ENDBRANCH 10 11
BRANCH 10 27
ATOM     27  CB  SER B 158      33.072 -13.272  -3.135  1.00 15.79 LIG 0.20  C 
BRANCH 27 28
ATOM     28 OG   SER B 158      34.092 -12.685  -3.923  1.00 17.90 LIG-0.40  OA
ATOM     29 HG   SER B 158      34.566 -12.186  -3.440  1.00 17.90 LIG 0.21  HD
ENDBRANCH 27 28
ENDBRANCH 10 27
ENDBRANCH 8 10
ENDBRANCH 5 6
BRANCH 5 30
ATOM     30  CB  THR B 157      30.463 -13.072  -8.498  1.00 18.18 LIG 0.15  C 
ATOM     31  CG2 THR B 157      29.482 -12.373  -7.571  1.00 16.96 LIG 0.04  C 
BRANCH 30 32
ATOM     32 OG1  THR B 157      30.715 -12.249  -9.645  1.00 15.90 LIG-0.39  OA
ATOM     33 HG1  THR B 157      31.481 -12.417  -9.948  1.00 15.90 LIG 0.21  HD
ENDBRANCH 30 32
ENDBRANCH 5 30
ENDBRANCH 3 5
BRANCH 1 34
ATOM     34  CA  SER B 156      34.329 -16.057  -8.571  1.00 16.58 LIG 0.20  C 
BRANCH 34 35
ATOM     35  N   SER B 156      35.742 -15.796  -8.819  1.00 15.80 LIG-0.34  N 
ATOM     36 H    SER B 156      36.184 -15.566  -8.119  1.00 15.80 LIG 0.16  HD
ATOM     37  C   PRO B 155      36.282 -15.908 -10.028  1.00 18.36 LIG 0.24  C 
ATOM     38 O    PRO B 155      35.639 -16.227 -11.029  1.00 18.57 LIG-0.27  OA
BRANCH 37 39
ATOM     39  CA  PRO B 155      37.771 -15.602 -10.126  1.00 19.30 LIG 0.18  C 
ATOM     40  CB  PRO B 155      38.516 -15.964  -8.847  1.00 17.99 LIG 0.04  C 
ATOM     41  CG  PRO B 155      38.315 -14.735  -8.012  1.00 20.29 LIG 0.02  C 
ATOM     42  CD  PRO B 155      38.570 -13.610  -9.006  1.00 20.15 LIG 0.13  C 
ATOM     43  N   PRO B 155      38.035 -14.165 -10.263  1.00 20.34 LIG-0.34  N 
ATOM     44  C   SER B 154      37.873 -13.511 -11.425  1.00 23.17 LIG 0.24  C 
ATOM     45 O    SER B 154      37.491 -14.078 -12.449  1.00 21.43 LIG-0.27  OA
BRANCH 44 46
ATOM     46  CA  SER B 154      38.182 -12.016 -11.432  1.00 26.04 LIG 0.20  C 
BRANCH 46 47
ATOM     47  N   SER B 154      38.326 -11.501 -12.790  1.00 29.08 LIG-0.34  N 
ATOM     48 H    SER B 154      37.621 -11.120 -13.102  1.00 29.08 LIG 0.16  HD
ATOM     49  C   VAL B 153      39.463 -11.625 -13.468  1.00 31.74 LIG 0.26  C 
ATOM     50 O    VAL B 153      40.460 -12.179 -13.008  1.00 31.76 LIG-0.27  OA
BRANCH 49 51
ATOM     51  CA  VAL B 153      39.478 -11.040 -14.877  1.00 34.29 LIG 0.40  C 
ATOM     52  N   VAL B 153      40.847 -10.573 -15.231  1.00 34.52 LIG 0.61  N 
BRANCH 51 53
ATOM     53  CB  VAL B 153      38.982 -12.123 -15.866  1.00 36.17 LIG 0.03  C 
ATOM     54  CG2 VAL B 153      37.466 -12.140 -15.903  1.00 38.03 LIG 0.01  C 
ATOM     55  CG1 VAL B 153      39.519 -13.486 -15.459  1.00 38.39 LIG 0.01  C 
ENDBRANCH 51 53
ENDBRANCH 49 51
ENDBRANCH 46 47
BRANCH 46 56
ATOM     56  CB  SER B 154      37.070 -11.266 -10.694  1.00 27.48 LIG 0.20  C 
BRANCH 56 57
ATOM     57 OG   SER B 154      36.225 -10.584 -11.605  1.00 30.72 LIG-0.40  OA
ATOM     58 HG   SER B 154      36.686 -10.076 -12.089  1.00 30.72 LIG 0.21  HD
ENDBRANCH 56 57
ENDBRANCH 46 56
ENDBRANCH 44 46
ENDBRANCH 37 39
ENDBRANCH 34 35
BRANCH 34 59
ATOM     59  CB  SER B 156      34.167 -17.223  -7.596  1.00 16.81 LIG 0.20  C 
BRANCH 59 60
ATOM     60 OG   SER B 156      35.289 -18.091  -7.665  1.00 16.65 LIG-0.40  OA
ATOM     61 HG   SER B 156      35.996 -17.641  -7.599  1.00 16.65 LIG 0.21  HD
ENDBRANCH 59 60
ENDBRANCH 34 59
ENDBRANCH 1 34
TORSDOF 24
ENDMDL
MODEL 39
USER: ADFR SOLUTION from run 67
USER: SCORE 16.238294 LL:  -4.067 LR: -13.608 RR:   0.000 FEB:  -6.449
USER: RMSD 12.017361
USER: SEED 66
USER: STATUS no improvement in best in 8 clusters for 5 generations
USER: GENES 26
USER: genes 0 Translation |==|  0.35828 0.52676 0.49755
USER: genes 1 Rotation |==|  0.25269 0.50174 0.16041 0.77113
USER: genes 2 Torsion [C]-N--CA-[C] |==|  0.76758
USER: genes 3 Torsion [N]-CA--C-[N] |==|  0.86999
USER: genes 4 Torsion [C]-N--CA-[C] |==|  0.62313
USER: genes 5 Torsion [N]-CA--C-[N] |==|  0.05473
USER: genes 6 Torsion [C]-N--CA-[CB] |==|  0.85855
USER: genes 7 Torsion [N]-CA--C-[O] |==|  0.17587
USER: genes 8 Torsion [N]-CA--CB-[CG] |==|  0.62784
USER: genes 9 Torsion [CA]-CB--CG-[CD2] |==|  0.27793
USER: genes 10 Torsion [CE2]-CZ--OH-[HH] |==|  0.59866
USER: genes 11 Torsion [N]-CA--CB-[OG] |==|  0.04474
USER: genes 12 Torsion [CA]-CB--OG-[HG] |==|  0.90596
USER: genes 13 Torsion [N]-CA--CB-[CG2] |==|  0.84845
USER: genes 14 Torsion [CA]-CB--OG1-[HG1] |==|  0.82746
USER: genes 15 Torsion [N]-C--CA-[N] |==|  0.32500
USER: genes 16 Torsion [C]-CA--N-[C] |==|  0.56946
USER: genes 17 Torsion [N]-C--CA-[CB] |==|  0.23454
USER: genes 18 Torsion [N]-C--CA-[N] |==|  0.13080
USER: genes 19 Torsion [C]-CA--N-[C] |==|  0.63498
USER: genes 20 Torsion [N]-C--CA-[N] |==|  0.90534
USER: genes 21 Torsion [C]-CA--CB-[CG2] |==|  0.42398
USER: genes 22 Torsion [C]-CA--CB-[OG] |==|  0.48268
USER: genes 23 Torsion [CA]-CB--OG-[HG] |==|  0.28209
USER: genes 24 Torsion [C]-CA--CB-[OG] |==|  0.70429
USER: genes 25 Torsion [CA]-CB--OG-[HG] |==|  0.36405
ROOT
ATOM      1  C   SER B 156      35.033 -15.748  -9.880  1.00 15.87 LIG 0.24  C 
ATOM      2 O    SER B 156      34.464 -15.615 -10.965  1.00 15.60 LIG-0.27  OA
ATOM      3  N   THR B 157      35.460 -16.920  -9.420  1.00 16.26 LIG-0.34  N 
ATOM      4 H    THR B 157      35.893 -17.023  -8.684  1.00 16.26 LIG 0.16  HD
ENDROOT
BRANCH 3 5
ATOM      5  CA  THR B 157      35.213 -18.149 -10.154  1.00 15.91 LIG 0.20  C 
BRANCH 5 6
ATOM      6  C   THR B 157      33.803 -18.550  -9.731  1.00 16.14 LIG 0.24  C 
ATOM      7 O    THR B 157      32.973 -18.892 -10.579  1.00 15.69 LIG-0.27  OA
ATOM      8  N   SER B 158      33.529 -18.513  -8.433  1.00 15.14 LIG-0.34  N 
ATOM      9 H    SER B 158      34.091 -18.278  -7.826  1.00 15.14 LIG 0.16  HD
BRANCH 8 10
ATOM     10  CA  SER B 158      32.209 -18.882  -7.933  1.00 18.36 LIG 0.20  C 
BRANCH 10 11
ATOM     11  C   SER B 158      31.724 -17.887  -6.883  1.00 20.96 LIG 0.24  C 
ATOM     12 O    SER B 158      30.832 -18.193  -6.089  1.00 20.92 LIG-0.27  OA
ATOM     13  N   TYR B 159      32.317 -16.697  -6.883  1.00 23.40 LIG-0.35  N 
ATOM     14 H    TYR B 159      32.939 -16.470  -7.432  1.00 23.40 LIG 0.16  HD
BRANCH 13 15
ATOM     15  CA  TYR B 159      31.947 -15.657  -5.927  1.00 28.83 LIG 0.17  C 
BRANCH 15 16
ATOM     16  C   TYR B 159      32.409 -16.021  -4.520  1.00 30.09 LIG 0.22  C 
ATOM     17 O    TYR B 159      33.642 -16.122  -4.340  1.00 33.46 LIG-0.29  OA
ENDBRANCH 15 16
BRANCH 15 18
ATOM     18  CB  TYR B 159      30.430 -15.453  -5.928  1.00 32.38 LIG 0.07  C 
BRANCH 18 19
ATOM     19  CG  TYR B 159      30.014 -13.999  -5.970  1.00 36.58 LIG-0.06  A 
ATOM     20  CD2 TYR B 159      29.611 -13.403  -7.165  1.00 38.67 LIG 0.01  A 
ATOM     21  CE2 TYR B 159      29.216 -12.067  -7.207  1.00 40.79 LIG 0.04  A 
ATOM     22  CZ  TYR B 159      29.225 -11.315  -6.042  1.00 41.05 LIG 0.07  A 
ATOM     23  CE1 TYR B 159      29.621 -11.884  -4.843  1.00 40.09 LIG 0.04  A 
ATOM     24  CD1 TYR B 159      30.012 -13.221  -4.813  1.00 38.09 LIG 0.01  A 
BRANCH 22 25
ATOM     25 OH   TYR B 159      28.836  -9.995  -6.076  1.00 43.66 LIG-0.36  OA
ATOM     26 HH   TYR B 159      29.300  -9.552  -5.534  1.00 43.66 LIG 0.22  HD
ENDBRANCH 22 25
ENDBRANCH 18 19
ENDBRANCH 15 18
ENDBRANCH 13 15
ENDBRANCH 10 11
BRANCH 10 27
ATOM     27  CB  SER B 158      32.249 -20.286  -7.326  1.00 15.79 LIG 0.20  C 
BRANCH 27 28
ATOM     28 OG   SER B 158      33.583 -20.692  -7.077  1.00 17.90 LIG-0.40  OA
ATOM     29 HG   SER B 158      34.088 -20.373  -7.667  1.00 17.90 LIG 0.21  HD
ENDBRANCH 27 28
ENDBRANCH 10 27
ENDBRANCH 8 10
ENDBRANCH 5 6
BRANCH 5 30
ATOM     30  CB  THR B 157      36.190 -19.274  -9.749  1.00 18.18 LIG 0.15  C 
ATOM     31  CG2 THR B 157      37.630 -18.813  -9.895  1.00 16.96 LIG 0.04  C 
BRANCH 30 32
ATOM     32 OG1  THR B 157      35.940 -19.659  -8.391  1.00 15.90 LIG-0.39  OA
ATOM     33 HG1  THR B 157      36.080 -19.004  -7.884  1.00 15.90 LIG 0.21  HD
ENDBRANCH 30 32
ENDBRANCH 5 30
ENDBRANCH 3 5
BRANCH 1 34
ATOM     34  CA  SER B 156      35.292 -14.545  -8.990  1.00 16.58 LIG 0.20  C 
BRANCH 34 35
ATOM     35  N   SER B 156      36.180 -13.634  -9.700  1.00 15.80 LIG-0.34  N 
ATOM     36 H    SER B 156      36.147 -13.706 -10.556  1.00 15.80 LIG 0.16  HD
ATOM     37  C   PRO B 155      36.967 -12.771  -9.065  1.00 18.36 LIG 0.24  C 
ATOM     38 O    PRO B 155      37.018 -12.680  -7.837  1.00 18.57 LIG-0.27  OA
BRANCH 37 39
ATOM     39  CA  PRO B 155      37.837 -11.885  -9.947  1.00 19.30 LIG 0.18  C 
ATOM     40  CB  PRO B 155      37.090 -10.648 -10.432  1.00 17.99 LIG 0.04  C 
ATOM     41  CG  PRO B 155      36.383 -11.168 -11.647  1.00 20.29 LIG 0.02  C 
ATOM     42  CD  PRO B 155      37.464 -11.990 -12.336  1.00 20.15 LIG 0.13  C 
ATOM     43  N   PRO B 155      38.217 -12.549 -11.198  1.00 20.34 LIG-0.34  N 
ATOM     44  C   SER B 154      39.187 -13.478 -11.256  1.00 23.17 LIG 0.24  C 
ATOM     45 O    SER B 154      39.818 -13.829 -10.259  1.00 21.43 LIG-0.27  OA
BRANCH 44 46
ATOM     46  CA  SER B 154      39.484 -14.092 -12.621  1.00 26.04 LIG 0.20  C 
BRANCH 46 47
ATOM     47  N   SER B 154      39.603 -13.072 -13.658  1.00 29.08 LIG-0.34  N 
ATOM     48 H    SER B 154      40.116 -12.414 -13.450  1.00 29.08 LIG 0.16  HD
ATOM     49  C   VAL B 153      38.960 -13.175 -14.817  1.00 31.74 LIG 0.26  C 
ATOM     50 O    VAL B 153      38.226 -14.120 -15.094  1.00 31.76 LIG-0.27  OA
BRANCH 49 51
ATOM     51  CA  VAL B 153      39.175 -12.039 -15.812  1.00 34.29 LIG 0.40  C 
ATOM     52  N   VAL B 153      39.342 -10.744 -15.096  1.00 34.52 LIG 0.61  N 
BRANCH 51 53
ATOM     53  CB  VAL B 153      40.419 -12.366 -16.674  1.00 36.17 LIG 0.03  C 
ATOM     54  CG2 VAL B 153      40.303 -11.701 -18.032  1.00 38.03 LIG 0.01  C 
ATOM     55  CG1 VAL B 153      40.564 -13.872 -16.831  1.00 38.39 LIG 0.01  C 
ENDBRANCH 51 53
ENDBRANCH 49 51
ENDBRANCH 46 47
BRANCH 46 56
ATOM     56  CB  SER B 154      40.771 -14.917 -12.535  1.00 27.48 LIG 0.20  C 
BRANCH 56 57
ATOM     57 OG   SER B 154      41.006 -15.620 -13.743  1.00 30.72 LIG-0.40  OA
ATOM     58 HG   SER B 154      41.589 -15.217 -14.193  1.00 30.72 LIG 0.21  HD
ENDBRANCH 56 57
ENDBRANCH 46 56
ENDBRANCH 44 46
ENDBRANCH 37 39
ENDBRANCH 34 35
BRANCH 34 59
ATOM     59  CB  SER B 156      33.952 -13.867  -8.703  1.00 16.81 LIG 0.20  C 
BRANCH 59 60
ATOM     60 OG   SER B 156      33.841 -12.654  -9.433  1.00 16.65 LIG-0.40  OA
ATOM     61 HG   SER B 156      33.100 -12.631  -9.828  1.00 16.65 LIG 0.21  HD
ENDBRANCH 59 60
ENDBRANCH 34 59
ENDBRANCH 1 34
TORSDOF 24
ENDMDL
MODEL 40
USER: ADFR SOLUTION from run 141
USER: SCORE 18.186936 LL:  -5.335 LR: -13.596 RR:   0.000 FEB:  -6.437
USER: RMSD 12.322789
USER: SEED 140
USER: STATUS no improvement in best in 7 clusters for 5 generations
USER: GENES 26
USER: genes 0 Translation |==|  0.30815 0.41578 0.50287
USER: genes 1 Rotation |==|  0.80437 0.55340 0.81085 0.74057
USER: genes 2 Torsion [C]-N--CA-[C] |==|  0.68306
USER: genes 3 Torsion [N]-CA--C-[N] |==|  0.50439
USER: genes 4 Torsion [C]-N--CA-[C] |==|  0.65015
USER: genes 5 Torsion [N]-CA--C-[N] |==|  0.10463
USER: genes 6 Torsion [C]-N--CA-[CB] |==|  0.27168
USER: genes 7 Torsion [N]-CA--C-[O] |==|  0.46471
USER: genes 8 Torsion [N]-CA--CB-[CG] |==|  0.88757
USER: genes 9 Torsion [CA]-CB--CG-[CD2] |==|  0.27785
USER: genes 10 Torsion [CE2]-CZ--OH-[HH] |==|  0.71989
USER: genes 11 Torsion [N]-CA--CB-[OG] |==|  0.67311
USER: genes 12 Torsion [CA]-CB--OG-[HG] |==|  0.09581
USER: genes 13 Torsion [N]-CA--CB-[CG2] |==|  0.20622
USER: genes 14 Torsion [CA]-CB--OG1-[HG1] |==|  0.67634
USER: genes 15 Torsion [N]-C--CA-[N] |==|  0.92511
USER: genes 16 Torsion [C]-CA--N-[C] |==|  0.80192
USER: genes 17 Torsion [N]-C--CA-[CB] |==|  0.89008
USER: genes 18 Torsion [N]-C--CA-[N] |==|  0.40903
USER: genes 19 Torsion [C]-CA--N-[C] |==|  0.79104
USER: genes 20 Torsion [N]-C--CA-[N] |==|  0.86224
USER: genes 21 Torsion [C]-CA--CB-[CG2] |==|  0.44593
USER: genes 22 Torsion [C]-CA--CB-[OG] |==|  0.21275
USER: genes 23 Torsion [CA]-CB--OG-[HG] |==|  0.72262
USER: genes 24 Torsion [C]-CA--CB-[OG] |==|  0.43230
USER: genes 25 Torsion [CA]-CB--OG-[HG] |==|  0.57798
ROOT
ATOM      1  C   SER B 156      33.642 -18.328  -9.769  1.00 15.87 LIG 0.24  C 
ATOM      2 O    SER B 156      32.665 -18.625 -10.458  1.00 15.60 LIG-0.27  OA
ATOM      3  N   THR B 157      33.547 -17.684  -8.610  1.00 16.26 LIG-0.34  N 
ATOM      4 H    THR B 157      34.215 -17.505  -8.099  1.00 16.26 LIG 0.16  HD
ENDROOT
BRANCH 3 5
ATOM      5  CA  THR B 157      32.263 -17.223  -8.111  1.00 15.91 LIG 0.20  C 
BRANCH 5 6
ATOM      6  C   THR B 157      32.386 -15.702  -8.136  1.00 16.14 LIG 0.24  C 
ATOM      7 O    THR B 157      33.418 -15.169  -8.556  1.00 15.69 LIG-0.27  OA
ATOM      8  N   SER B 158      31.348 -15.005  -7.692  1.00 15.14 LIG-0.34  N 
ATOM      9 H    SER B 158      30.621 -15.355  -7.395  1.00 15.14 LIG 0.16  HD
BRANCH 8 10
ATOM     10  CA  SER B 158      31.372 -13.546  -7.680  1.00 18.36 LIG 0.20  C 
BRANCH 10 11
ATOM     11  C   SER B 158      31.052 -13.005  -6.290  1.00 20.96 LIG 0.24  C 
ATOM     12 O    SER B 158      30.372 -11.987  -6.151  1.00 20.92 LIG-0.27  OA
ATOM     13  N   TYR B 159      31.546 -13.692  -5.265  1.00 23.40 LIG-0.35  N 
ATOM     14 H    TYR B 159      32.024 -14.404  -5.348  1.00 23.40 LIG 0.16  HD
BRANCH 13 15
ATOM     15  CA  TYR B 159      31.310 -13.282  -3.883  1.00 28.83 LIG 0.17  C 
BRANCH 15 16
ATOM     16  C   TYR B 159      32.558 -13.486  -3.033  1.00 30.09 LIG 0.22  C 
ATOM     17 O    TYR B 159      32.565 -12.952  -1.903  1.00 33.46 LIG-0.29  OA
ENDBRANCH 15 16
BRANCH 15 18
ATOM     18  CB  TYR B 159      30.149 -14.082  -3.285  1.00 32.38 LIG 0.07  C 
BRANCH 18 19
ATOM     19  CG  TYR B 159      28.998 -14.290  -4.244  1.00 36.58 LIG-0.06  A 
ATOM     20  CD2 TYR B 159      28.844 -15.495  -4.929  1.00 38.67 LIG 0.01  A 
ATOM     21  CE2 TYR B 159      27.778 -15.695  -5.805  1.00 40.79 LIG 0.04  A 
ATOM     22  CZ  TYR B 159      26.856 -14.679  -6.002  1.00 41.05 LIG 0.07  A 
ATOM     23  CE1 TYR B 159      26.988 -13.472  -5.335  1.00 40.09 LIG 0.04  A 
ATOM     24  CD1 TYR B 159      28.056 -13.285  -4.460  1.00 38.09 LIG 0.01  A 
BRANCH 22 25
ATOM     25 OH   TYR B 159      25.802 -14.870  -6.867  1.00 43.66 LIG-0.36  OA
ATOM     26 HH   TYR B 159      25.968 -14.494  -7.599  1.00 43.66 LIG 0.22  HD
ENDBRANCH 22 25
ENDBRANCH 18 19
ENDBRANCH 15 18
ENDBRANCH 13 15
ENDBRANCH 10 11
BRANCH 10 27
ATOM     27  CB  SER B 158      30.361 -12.994  -8.687  1.00 15.79 LIG 0.20  C 
BRANCH 27 28
ATOM     28 OG   SER B 158      31.012 -12.245  -9.699  1.00 17.90 LIG-0.40  OA
ATOM     29 HG   SER B 158      31.760 -12.589  -9.864  1.00 17.90 LIG 0.21  HD
ENDBRANCH 27 28
ENDBRANCH 10 27
ENDBRANCH 8 10
ENDBRANCH 5 6
BRANCH 5 30
ATOM     30  CB  THR B 157      32.008 -17.674  -6.656  1.00 18.18 LIG 0.15  C 
ATOM     31  CG2 THR B 157      32.851 -16.864  -5.686  1.00 16.96 LIG 0.04  C 
BRANCH 30 32
ATOM     32 OG1  THR B 157      30.618 -17.512  -6.342  1.00 15.90 LIG-0.39  OA
ATOM     33 HG1  THR B 157      30.534 -16.945  -5.727  1.00 15.90 LIG 0.21  HD
ENDBRANCH 30 32
ENDBRANCH 5 30
ENDBRANCH 3 5
BRANCH 1 34
ATOM     34  CA  SER B 156      35.045 -18.699 -10.215  1.00 16.58 LIG 0.20  C 
BRANCH 34 35
ATOM     35  N   SER B 156      35.978 -17.744  -9.630  1.00 15.80 LIG-0.34  N 
ATOM     36 H    SER B 156      36.468 -18.070  -9.003  1.00 15.80 LIG 0.16  HD
ATOM     37  C   PRO B 155      36.051 -16.481 -10.040  1.00 18.36 LIG 0.24  C 
ATOM     38 O    PRO B 155      35.338 -16.018 -10.931  1.00 18.57 LIG-0.27  OA
BRANCH 37 39
ATOM     39  CA  PRO B 155      37.076 -15.606  -9.331  1.00 19.30 LIG 0.18  C 
ATOM     40  CB  PRO B 155      37.133 -15.887  -7.834  1.00 17.99 LIG 0.04  C 
ATOM     41  CG  PRO B 155      36.027 -15.020  -7.313  1.00 20.29 LIG 0.02  C 
ATOM     42  CD  PRO B 155      36.239 -13.716  -8.071  1.00 20.15 LIG 0.13  C 
ATOM     43  N   PRO B 155      36.723 -14.183  -9.383  1.00 20.34 LIG-0.34  N 
ATOM     44  C   SER B 154      36.913 -13.433 -10.482  1.00 23.17 LIG 0.24  C 
ATOM     45 O    SER B 154      37.397 -13.896 -11.515  1.00 21.43 LIG-0.27  OA
BRANCH 44 46
ATOM     46  CA  SER B 154      36.502 -11.965 -10.404  1.00 26.04 LIG 0.20  C 
BRANCH 46 47
ATOM     47  N   SER B 154      37.368 -11.119 -11.218  1.00 29.08 LIG-0.34  N 
ATOM     48 H    SER B 154      37.011 -10.850 -11.954  1.00 29.08 LIG 0.16  HD
ATOM     49  C   VAL B 153      38.600 -10.803 -10.833  1.00 31.74 LIG 0.26  C 
ATOM     50 O    VAL B 153      39.095 -11.200  -9.781  1.00 31.76 LIG-0.27  OA
BRANCH 49 51
ATOM     51  CA  VAL B 153      39.396  -9.908 -11.778  1.00 34.29 LIG 0.40  C 
ATOM     52  N   VAL B 153      39.341 -10.440 -13.168  1.00 34.52 LIG 0.61  N 
BRANCH 51 53
ATOM     53  CB  VAL B 153      38.817  -8.474 -11.704  1.00 36.17 LIG 0.03  C 
ATOM     54  CG2 VAL B 153      39.832  -7.475 -12.227  1.00 38.03 LIG 0.01  C 
ATOM     55  CG1 VAL B 153      38.432  -8.140 -10.271  1.00 38.39 LIG 0.01  C 
ENDBRANCH 51 53
ENDBRANCH 49 51
ENDBRANCH 46 47
BRANCH 46 56
ATOM     56  CB  SER B 154      35.045 -11.824 -10.853  1.00 27.48 LIG 0.20  C 
BRANCH 56 57
ATOM     57 OG   SER B 154      34.156 -12.253  -9.836  1.00 30.72 LIG-0.40  OA
ATOM     58 HG   SER B 154      33.893 -13.033 -10.004  1.00 30.72 LIG 0.21  HD
ENDBRANCH 56 57
ENDBRANCH 46 56
ENDBRANCH 44 46
ENDBRANCH 37 39
ENDBRANCH 34 35
BRANCH 34 59
ATOM     59  CB  SER B 156      35.348 -20.112  -9.714  1.00 16.81 LIG 0.20  C 
BRANCH 59 60
ATOM     60 OG   SER B 156      36.343 -20.724 -10.521  1.00 16.65 LIG-0.40  OA
ATOM     61 HG   SER B 156      36.238 -21.557 -10.511  1.00 16.65 LIG 0.21  HD
ENDBRANCH 59 60
ENDBRANCH 34 59
ENDBRANCH 1 34
TORSDOF 24
ENDMDL
MODEL 41
USER: ADFR SOLUTION from run 73
USER: SCORE 17.760919 LL:  -4.911 LR: -13.583 RR:   0.000 FEB:  -6.424
USER: RMSD 12.227706
USER: SEED 72
USER: STATUS no improvement in best in 5 clusters for 5 generations
USER: GENES 26
USER: genes 0 Translation |==|  0.31819 0.41748 0.49890
USER: genes 1 Rotation |==|  0.77968 0.58777 0.84435 0.71330
USER: genes 2 Torsion [C]-N--CA-[C] |==|  0.58344
USER: genes 3 Torsion [N]-CA--C-[N] |==|  0.26116
USER: genes 4 Torsion [C]-N--CA-[C] |==|  0.79269
USER: genes 5 Torsion [N]-CA--C-[N] |==|  0.47574
USER: genes 6 Torsion [C]-N--CA-[CB] |==|  0.36590
USER: genes 7 Torsion [N]-CA--C-[O] |==|  0.93664
USER: genes 8 Torsion [N]-CA--CB-[CG] |==|  0.24895
USER: genes 9 Torsion [CA]-CB--CG-[CD2] |==|  0.28056
USER: genes 10 Torsion [CE2]-CZ--OH-[HH] |==|  0.08188
USER: genes 11 Torsion [N]-CA--CB-[OG] |==|  0.78753
USER: genes 12 Torsion [CA]-CB--OG-[HG] |==|  0.15138
USER: genes 13 Torsion [N]-CA--CB-[CG2] |==|  0.70110
USER: genes 14 Torsion [CA]-CB--OG1-[HG1] |==|  0.18240
USER: genes 15 Torsion [N]-C--CA-[N] |==|  0.95870
USER: genes 16 Torsion [C]-CA--N-[C] |==|  0.81463
USER: genes 17 Torsion [N]-C--CA-[CB] |==|  0.79412
USER: genes 18 Torsion [N]-C--CA-[N] |==|  0.44755
USER: genes 19 Torsion [C]-CA--N-[C] |==|  0.56166
USER: genes 20 Torsion [N]-C--CA-[N] |==|  0.16369
USER: genes 21 Torsion [C]-CA--CB-[CG2] |==|  0.70514
USER: genes 22 Torsion [C]-CA--CB-[OG] |==|  0.68819
USER: genes 23 Torsion [CA]-CB--OG-[HG] |==|  0.78935
USER: genes 24 Torsion [C]-CA--CB-[OG] |==|  0.83723
USER: genes 25 Torsion [CA]-CB--OG-[HG] |==|  0.12496
ROOT
ATOM      1  C   SER B 156      33.921 -18.289  -9.852  1.00 15.87 LIG 0.24  C 
ATOM      2 O    SER B 156      33.086 -18.830 -10.579  1.00 15.60 LIG-0.27  OA
ATOM      3  N   THR B 157      33.603 -17.632  -8.741  1.00 16.26 LIG-0.34  N 
ATOM      4 H    THR B 157      34.176 -17.283  -8.203  1.00 16.26 LIG 0.16  HD
ENDROOT
BRANCH 3 5
ATOM      5  CA  THR B 157      32.216 -17.452  -8.346  1.00 15.91 LIG 0.20  C 
BRANCH 5 6
ATOM      6  C   THR B 157      32.221 -16.128  -7.588  1.00 16.14 LIG 0.24  C 
ATOM      7 O    THR B 157      32.489 -16.102  -6.383  1.00 15.69 LIG-0.27  OA
ATOM      8  N   SER B 158      31.930 -15.034  -8.282  1.00 15.14 LIG-0.34  N 
ATOM      9 H    SER B 158      31.740 -15.029  -9.120  1.00 15.14 LIG 0.16  HD
BRANCH 8 10
ATOM     10  CA  SER B 158      31.913 -13.722  -7.644  1.00 18.36 LIG 0.20  C 
BRANCH 10 11
ATOM     11  C   SER B 158      30.670 -13.553  -6.775  1.00 20.96 LIG 0.24  C 
ATOM     12 O    SER B 158      29.764 -14.387  -6.803  1.00 20.92 LIG-0.27  OA
ATOM     13  N   TYR B 159      30.635 -12.471  -6.004  1.00 23.40 LIG-0.35  N 
ATOM     14 H    TYR B 159      31.260 -11.880  -5.977  1.00 23.40 LIG 0.16  HD
BRANCH 13 15
ATOM     15  CA  TYR B 159      29.504 -12.194  -5.123  1.00 28.83 LIG 0.17  C 
BRANCH 15 16
ATOM     16  C   TYR B 159      28.655 -11.051  -5.668  1.00 30.09 LIG 0.22  C 
ATOM     17 O    TYR B 159      29.216 -10.258  -6.454  1.00 33.46 LIG-0.29  OA
ENDBRANCH 15 16
BRANCH 15 18
ATOM     18  CB  TYR B 159      30.000 -11.837  -3.720  1.00 32.38 LIG 0.07  C 
BRANCH 18 19
ATOM     19  CG  TYR B 159      30.254 -10.358  -3.525  1.00 36.58 LIG-0.06  A 
ATOM     20  CD2 TYR B 159      29.329  -9.554  -2.861  1.00 38.67 LIG 0.01  A 
ATOM     21  CE2 TYR B 159      29.564  -8.194  -2.668  1.00 40.79 LIG 0.04  A 
ATOM     22  CZ  TYR B 159      30.736  -7.628  -3.147  1.00 41.05 LIG 0.07  A 
ATOM     23  CE1 TYR B 159      31.670  -8.406  -3.812  1.00 40.09 LIG 0.04  A 
ATOM     24  CD1 TYR B 159      31.425  -9.765  -3.996  1.00 38.09 LIG 0.01  A 
BRANCH 22 25
ATOM     25 OH   TYR B 159      30.974  -6.285  -2.962  1.00 43.66 LIG-0.36  OA
ATOM     26 HH   TYR B 159      30.595  -6.027  -2.257  1.00 43.66 LIG 0.22  HD
ENDBRANCH 22 25
ENDBRANCH 18 19
ENDBRANCH 15 18
ENDBRANCH 13 15
ENDBRANCH 10 11
BRANCH 10 27
ATOM     27  CB  SER B 158      31.949 -12.620  -8.704  1.00 15.79 LIG 0.20  C 
BRANCH 27 28
ATOM     28 OG   SER B 158      33.253 -12.472  -9.237  1.00 17.90 LIG-0.40  OA
ATOM     29 HG   SER B 158      33.524 -13.214  -9.524  1.00 17.90 LIG 0.21  HD
ENDBRANCH 27 28
ENDBRANCH 10 27
ENDBRANCH 8 10
ENDBRANCH 5 6
BRANCH 5 30
ATOM     30  CB  THR B 157      31.733 -18.566  -7.392  1.00 18.18 LIG 0.15  C 
ATOM     31  CG2 THR B 157      30.779 -19.509  -8.105  1.00 16.96 LIG 0.04  C 
BRANCH 30 32
ATOM     32 OG1  THR B 157      32.864 -19.300  -6.904  1.00 15.90 LIG-0.39  OA
ATOM     33 HG1  THR B 157      33.339 -18.799  -6.425  1.00 15.90 LIG 0.21  HD
ENDBRANCH 30 32
ENDBRANCH 5 30
ENDBRANCH 3 5
BRANCH 1 34
ATOM     34  CA  SER B 156      35.399 -18.351 -10.192  1.00 16.58 LIG 0.20  C 
BRANCH 34 35
ATOM     35  N   SER B 156      36.096 -17.360  -9.382  1.00 15.80 LIG-0.34  N 
ATOM     36 H    SER B 156      36.632 -17.696  -8.799  1.00 15.80 LIG 0.16  HD
ATOM     37  C   PRO B 155      35.910 -16.053  -9.544  1.00 18.36 LIG 0.24  C 
ATOM     38 O    PRO B 155      35.133 -15.579 -10.374  1.00 18.57 LIG-0.27  OA
BRANCH 37 39
ATOM     39  CA  PRO B 155      36.712 -15.145  -8.622  1.00 19.30 LIG 0.18  C 
ATOM     40  CB  PRO B 155      36.165 -15.144  -7.200  1.00 17.99 LIG 0.04  C 
ATOM     41  CG  PRO B 155      35.083 -14.110  -7.283  1.00 20.29 LIG 0.02  C 
ATOM     42  CD  PRO B 155      35.749 -12.992  -8.074  1.00 20.15 LIG 0.13  C 
ATOM     43  N   PRO B 155      36.614 -13.733  -9.010  1.00 20.34 LIG-0.34  N 
ATOM     44  C   SER B 154      37.307 -13.220 -10.041  1.00 23.17 LIG 0.24  C 
ATOM     45 O    SER B 154      38.068 -13.905 -10.724  1.00 21.43 LIG-0.27  OA
BRANCH 44 46
ATOM     46  CA  SER B 154      37.114 -11.736 -10.340  1.00 26.04 LIG 0.20  C 
BRANCH 46 47
ATOM     47  N   SER B 154      38.204 -11.203 -11.152  1.00 29.08 LIG-0.34  N 
ATOM     48 H    SER B 154      38.634 -11.797 -11.602  1.00 29.08 LIG 0.16  HD
ATOM     49  C   VAL B 153      38.489  -9.905 -11.175  1.00 31.74 LIG 0.26  C 
ATOM     50 O    VAL B 153      37.867  -9.071 -10.520  1.00 31.76 LIG-0.27  OA
BRANCH 49 51
ATOM     51  CA  VAL B 153      39.652  -9.483 -12.068  1.00 34.29 LIG 0.40  C 
ATOM     52  N   VAL B 153      39.392  -9.877 -13.481  1.00 34.52 LIG 0.61  N 
BRANCH 51 53
ATOM     53  CB  VAL B 153      39.843  -7.953 -11.940  1.00 36.17 LIG 0.03  C 
ATOM     54  CG2 VAL B 153      39.341  -7.257 -13.191  1.00 38.03 LIG 0.01  C 
ATOM     55  CG1 VAL B 153      41.310  -7.628 -11.704  1.00 38.39 LIG 0.01  C 
ENDBRANCH 51 53
ENDBRANCH 49 51
ENDBRANCH 46 47
BRANCH 46 56
ATOM     56  CB  SER B 154      35.773 -11.533 -11.051  1.00 27.48 LIG 0.20  C 
BRANCH 56 57
ATOM     57 OG   SER B 154      35.966 -11.120 -12.393  1.00 30.72 LIG-0.40  OA
ATOM     58 HG   SER B 154      36.188 -10.310 -12.408  1.00 30.72 LIG 0.21  HD
ENDBRANCH 56 57
ENDBRANCH 46 56
ENDBRANCH 44 46
ENDBRANCH 37 39
ENDBRANCH 34 35
BRANCH 34 59
ATOM     59  CB  SER B 156      35.905 -19.757  -9.864  1.00 16.81 LIG 0.20  C 
BRANCH 59 60
ATOM     60 OG   SER B 156      35.691 -20.056  -8.493  1.00 16.65 LIG-0.40  OA
ATOM     61 HG   SER B 156      34.916 -19.820  -8.272  1.00 16.65 LIG 0.21  HD
ENDBRANCH 59 60
ENDBRANCH 34 59
ENDBRANCH 1 34
TORSDOF 24
ENDMDL
MODEL 42
USER: ADFR SOLUTION from run 91
USER: SCORE 16.716953 LL:  -3.931 LR: -13.565 RR:   0.000 FEB:  -6.406
USER: RMSD 5.059623
USER: SEED 90
USER: STATUS no improvement in best in 12 clusters for 5 generations
USER: GENES 26
USER: genes 0 Translation |==|  0.30128 0.61050 0.58890
USER: genes 1 Rotation |==|  0.88477 0.71129 0.27627 0.58513
USER: genes 2 Torsion [C]-N--CA-[C] |==|  0.55578
USER: genes 3 Torsion [N]-CA--C-[N] |==|  0.48273
USER: genes 4 Torsion [C]-N--CA-[C] |==|  0.72236
USER: genes 5 Torsion [N]-CA--C-[N] |==|  0.42256
USER: genes 6 Torsion [C]-N--CA-[CB] |==|  0.79026
USER: genes 7 Torsion [N]-CA--C-[O] |==|  0.28648
USER: genes 8 Torsion [N]-CA--CB-[CG] |==|  0.91378
USER: genes 9 Torsion [CA]-CB--CG-[CD2] |==|  0.79705
USER: genes 10 Torsion [CE2]-CZ--OH-[HH] |==|  0.47799
USER: genes 11 Torsion [N]-CA--CB-[OG] |==|  0.89661
USER: genes 12 Torsion [CA]-CB--OG-[HG] |==|  0.74627
USER: genes 13 Torsion [N]-CA--CB-[CG2] |==|  0.55332
USER: genes 14 Torsion [CA]-CB--OG1-[HG1] |==|  0.88502
USER: genes 15 Torsion [N]-C--CA-[N] |==|  0.32324
USER: genes 16 Torsion [C]-CA--N-[C] |==|  0.78447
USER: genes 17 Torsion [N]-C--CA-[CB] |==|  0.94814
USER: genes 18 Torsion [N]-C--CA-[N] |==|  0.25945
USER: genes 19 Torsion [C]-CA--N-[C] |==|  0.71859
USER: genes 20 Torsion [N]-C--CA-[N] |==|  0.77701
USER: genes 21 Torsion [C]-CA--CB-[CG2] |==|  0.55677
USER: genes 22 Torsion [C]-CA--CB-[OG] |==|  0.59952
USER: genes 23 Torsion [CA]-CB--OG-[HG] |==|  0.11772
USER: genes 24 Torsion [C]-CA--CB-[OG] |==|  0.30886
USER: genes 25 Torsion [CA]-CB--OG-[HG] |==|  0.97995
ROOT
ATOM      1  C   SER B 156      33.452 -13.801  -7.962  1.00 15.87 LIG 0.24  C 
ATOM      2 O    SER B 156      33.807 -13.744  -6.784  1.00 15.60 LIG-0.27  OA
ATOM      3  N   THR B 157      34.237 -13.455  -8.977  1.00 16.26 LIG-0.34  N 
ATOM      4 H    THR B 157      34.018 -13.526  -9.806  1.00 16.26 LIG 0.16  HD
ENDROOT
BRANCH 3 5
ATOM      5  CA  THR B 157      35.566 -12.913  -8.747  1.00 15.91 LIG 0.20  C 
BRANCH 5 6
ATOM      6  C   THR B 157      35.898 -12.196 -10.052  1.00 16.14 LIG 0.24  C 
ATOM      7 O    THR B 157      35.138 -12.285 -11.022  1.00 15.69 LIG-0.27  OA
ATOM      8  N   SER B 158      37.022 -11.490 -10.083  1.00 15.14 LIG-0.34  N 
ATOM      9 H    SER B 158      37.565 -11.415  -9.421  1.00 15.14 LIG 0.16  HD
BRANCH 8 10
ATOM     10  CA  SER B 158      37.422 -10.768 -11.286  1.00 18.36 LIG 0.20  C 
BRANCH 10 11
ATOM     11  C   SER B 158      38.474 -11.549 -12.069  1.00 20.96 LIG 0.24  C 
ATOM     12 O    SER B 158      39.238 -12.326 -11.494  1.00 20.92 LIG-0.27  OA
ATOM     13  N   TYR B 159      38.506 -11.339 -13.380  1.00 23.40 LIG-0.35  N 
ATOM     14 H    TYR B 159      37.979 -10.799 -13.794  1.00 23.40 LIG 0.16  HD
BRANCH 13 15
ATOM     15  CA  TYR B 159      39.463 -12.028 -14.243  1.00 28.83 LIG 0.17  C 
BRANCH 15 16
ATOM     16  C   TYR B 159      39.520 -13.515 -13.914  1.00 30.09 LIG 0.22  C 
ATOM     17 O    TYR B 159      38.927 -14.289 -14.696  1.00 33.46 LIG-0.29  OA
ENDBRANCH 15 16
BRANCH 15 18
ATOM     18  CB  TYR B 159      40.856 -11.416 -14.081  1.00 32.38 LIG 0.07  C 
BRANCH 18 19
ATOM     19  CG  TYR B 159      40.836  -9.940 -13.751  1.00 36.58 LIG-0.06  A 
ATOM     20  CD2 TYR B 159      40.497  -8.993 -14.717  1.00 38.67 LIG 0.01  A 
ATOM     21  CE2 TYR B 159      40.466  -7.633 -14.413  1.00 40.79 LIG 0.04  A 
ATOM     22  CZ  TYR B 159      40.779  -7.212 -13.131  1.00 41.05 LIG 0.07  A 
ATOM     23  CE1 TYR B 159      41.120  -8.133 -12.153  1.00 40.09 LIG 0.04  A 
ATOM     24  CD1 TYR B 159      41.146  -9.490 -12.468  1.00 38.09 LIG 0.01  A 
BRANCH 22 25
ATOM     25 OH   TYR B 159      40.751  -5.870 -12.824  1.00 43.66 LIG-0.36  OA
ATOM     26 HH   TYR B 159      40.854  -5.769 -11.996  1.00 43.66 LIG 0.22  HD
ENDBRANCH 22 25
ENDBRANCH 18 19
ENDBRANCH 15 18
ENDBRANCH 13 15
ENDBRANCH 10 11
BRANCH 10 27
ATOM     27  CB  SER B 158      37.979  -9.393 -10.915  1.00 15.79 LIG 0.20  C 
BRANCH 27 28
ATOM     28 OG   SER B 158      37.262  -8.832  -9.829  1.00 17.90 LIG-0.40  OA
ATOM     29 HG   SER B 158      36.629  -8.365 -10.123  1.00 17.90 LIG 0.21  HD
ENDBRANCH 27 28
ENDBRANCH 10 27
ENDBRANCH 8 10
ENDBRANCH 5 6
BRANCH 5 30
ATOM     30  CB  THR B 157      36.613 -14.023  -8.511  1.00 18.18 LIG 0.15  C 
ATOM     31  CG2 THR B 157      37.846 -13.460  -7.824  1.00 16.96 LIG 0.04  C 
BRANCH 30 32
ATOM     32 OG1  THR B 157      36.039 -15.059  -7.703  1.00 15.90 LIG-0.39  OA
ATOM     33 HG1  THR B 157      35.579 -14.713  -7.090  1.00 15.90 LIG 0.21  HD
ENDBRANCH 30 32
ENDBRANCH 5 30
ENDBRANCH 3 5
BRANCH 1 34
ATOM     34  CA  SER B 156      32.062 -14.290  -8.329  1.00 16.58 LIG 0.20  C 
BRANCH 34 35
ATOM     35  N   SER B 156      31.941 -15.681  -7.910  1.00 15.80 LIG-0.34  N 
ATOM     36 H    SER B 156      31.494 -15.792  -7.185  1.00 15.80 LIG 0.16  HD
ATOM     37  C   PRO B 155      32.483 -16.679  -8.602  1.00 18.36 LIG 0.24  C 
ATOM     38 O    PRO B 155      33.133 -16.511  -9.635  1.00 18.57 LIG-0.27  OA
BRANCH 37 39
ATOM     39  CA  PRO B 155      32.269 -18.077  -8.035  1.00 19.30 LIG 0.18  C 
ATOM     40  CB  PRO B 155      31.872 -18.045  -6.565  1.00 17.99 LIG 0.04  C 
ATOM     41  CG  PRO B 155      33.205 -17.970  -5.884  1.00 20.29 LIG 0.02  C 
ATOM     42  CD  PRO B 155      34.031 -18.994  -6.651  1.00 20.15 LIG 0.13  C 
ATOM     43  N   PRO B 155      33.506 -18.866  -8.023  1.00 20.34 LIG-0.34  N 
ATOM     44  C   SER B 154      34.005 -19.442  -9.130  1.00 23.17 LIG 0.24  C 
ATOM     45 O    SER B 154      33.452 -19.342 -10.226  1.00 21.43 LIG-0.27  OA
BRANCH 44 46
ATOM     46  CA  SER B 154      35.300 -20.235  -8.981  1.00 26.04 LIG 0.20  C 
BRANCH 46 47
ATOM     47  N   SER B 154      35.040 -21.652  -8.746  1.00 29.08 LIG-0.34  N 
ATOM     48 H    SER B 154      34.835 -22.097  -9.454  1.00 29.08 LIG 0.16  HD
ATOM     49  C   VAL B 153      35.120 -22.187  -7.532  1.00 31.74 LIG 0.26  C 
ATOM     50 O    VAL B 153      35.409 -21.534  -6.531  1.00 31.76 LIG-0.27  OA
BRANCH 49 51
ATOM     51  CA  VAL B 153      34.826 -23.680  -7.429  1.00 34.29 LIG 0.40  C 
ATOM     52  N   VAL B 153      33.357 -23.922  -7.418  1.00 34.52 LIG 0.61  N 
BRANCH 51 53
ATOM     53  CB  VAL B 153      35.503 -24.399  -8.622  1.00 36.17 LIG 0.03  C 
ATOM     54  CG2 VAL B 153      34.851 -25.749  -8.854  1.00 38.03 LIG 0.01  C 
ATOM     55  CG1 VAL B 153      36.990 -24.567  -8.354  1.00 38.39 LIG 0.01  C 
ENDBRANCH 51 53
ENDBRANCH 49 51
ENDBRANCH 46 47
BRANCH 46 56
ATOM     56  CB  SER B 154      36.154 -20.051 -10.238  1.00 27.48 LIG 0.20  C 
BRANCH 56 57
ATOM     57 OG   SER B 154      36.852 -21.243 -10.557  1.00 30.72 LIG-0.40  OA
ATOM     58 HG   SER B 154      36.341 -21.902 -10.459  1.00 30.72 LIG 0.21  HD
ENDBRANCH 56 57
ENDBRANCH 46 56
ENDBRANCH 44 46
ENDBRANCH 37 39
ENDBRANCH 34 35
BRANCH 34 59
ATOM     59  CB  SER B 156      31.041 -13.422  -7.592  1.00 16.81 LIG 0.20  C 
BRANCH 59 60
ATOM     60 OG   SER B 156      30.327 -12.606  -8.509  1.00 16.65 LIG-0.40  OA
ATOM     61 HG   SER B 156      30.666 -12.680  -9.273  1.00 16.65 LIG 0.21  HD
ENDBRANCH 59 60
ENDBRANCH 34 59
ENDBRANCH 1 34
TORSDOF 24
ENDMDL
MODEL 43
USER: ADFR SOLUTION from run 165
USER: SCORE 16.133144 LL:  -4.436 LR: -13.562 RR:   0.000 FEB:  -6.402
USER: RMSD 11.020534
USER: SEED 164
USER: STATUS no improvement in best in 10 clusters for 5 generations
USER: GENES 26
USER: genes 0 Translation |==|  0.39641 0.36864 0.52298
USER: genes 1 Rotation |==|  0.67118 0.66252 0.92652 0.61119
USER: genes 2 Torsion [C]-N--CA-[C] |==|  0.19604
USER: genes 3 Torsion [N]-CA--C-[N] |==|  0.67910
USER: genes 4 Torsion [C]-N--CA-[C] |==|  0.77042
USER: genes 5 Torsion [N]-CA--C-[N] |==|  0.95556
USER: genes 6 Torsion [C]-N--CA-[CB] |==|  0.54796
USER: genes 7 Torsion [N]-CA--C-[O] |==|  0.53252
USER: genes 8 Torsion [N]-CA--CB-[CG] |==|  0.71579
USER: genes 9 Torsion [CA]-CB--CG-[CD2] |==|  0.18899
USER: genes 10 Torsion [CE2]-CZ--OH-[HH] |==|  0.46771
USER: genes 11 Torsion [N]-CA--CB-[OG] |==|  0.96353
USER: genes 12 Torsion [CA]-CB--OG-[HG] |==|  0.13422
USER: genes 13 Torsion [N]-CA--CB-[CG2] |==|  0.56322
USER: genes 14 Torsion [CA]-CB--OG1-[HG1] |==|  0.88565
USER: genes 15 Torsion [N]-C--CA-[N] |==|  0.76145
USER: genes 16 Torsion [C]-CA--N-[C] |==|  0.66230
USER: genes 17 Torsion [N]-C--CA-[CB] |==|  0.46726
USER: genes 18 Torsion [N]-C--CA-[N] |==|  0.13598
USER: genes 19 Torsion [C]-CA--N-[C] |==|  0.64210
USER: genes 20 Torsion [N]-C--CA-[N] |==|  0.33681
USER: genes 21 Torsion [C]-CA--CB-[CG2] |==|  0.58642
USER: genes 22 Torsion [C]-CA--CB-[OG] |==|  0.74582
USER: genes 23 Torsion [CA]-CB--OG-[HG] |==|  0.37657
USER: genes 24 Torsion [C]-CA--CB-[OG] |==|  0.68837
USER: genes 25 Torsion [CA]-CB--OG-[HG] |==|  0.77422
ROOT
ATOM      1  C   SER B 156      36.091 -19.424  -9.347  1.00 15.87 LIG 0.24  C 
ATOM      2 O    SER B 156      36.019 -20.375 -10.127  1.00 15.60 LIG-0.27  OA
ATOM      3  N   THR B 157      35.127 -19.114  -8.485  1.00 16.26 LIG-0.34  N 
ATOM      4 H    THR B 157      35.180 -18.479  -7.907  1.00 16.26 LIG 0.16  HD
ENDROOT
BRANCH 3 5
ATOM      5  CA  THR B 157      33.877 -19.852  -8.461  1.00 15.91 LIG 0.20  C 
BRANCH 5 6
ATOM      6  C   THR B 157      34.268 -21.214  -7.893  1.00 16.14 LIG 0.24  C 
ATOM      7 O    THR B 157      34.690 -21.307  -6.736  1.00 15.69 LIG-0.27  OA
ATOM      8  N   SER B 158      34.130 -22.263  -8.693  1.00 15.14 LIG-0.34  N 
ATOM      9 H    SER B 158      33.839 -22.222  -9.501  1.00 15.14 LIG 0.16  HD
BRANCH 8 10
ATOM     10  CA  SER B 158      34.476 -23.606  -8.238  1.00 18.36 LIG 0.20  C 
BRANCH 10 11
ATOM     11  C   SER B 158      35.974 -23.860  -8.371  1.00 20.96 LIG 0.24  C 
ATOM     12 O    SER B 158      36.508 -24.801  -7.782  1.00 20.92 LIG-0.27  OA
ATOM     13  N   TYR B 159      36.646 -23.016  -9.148  1.00 23.40 LIG-0.35  N 
ATOM     14 H    TYR B 159      36.286 -22.354  -9.563  1.00 23.40 LIG 0.16  HD
BRANCH 13 15
ATOM     15  CA  TYR B 159      38.085 -23.152  -9.361  1.00 28.83 LIG 0.17  C 
BRANCH 15 16
ATOM     16  C   TYR B 159      38.797 -23.507  -8.061  1.00 30.09 LIG 0.22  C 
ATOM     17 O    TYR B 159      40.044 -23.429  -8.062  1.00 33.46 LIG-0.29  OA
ENDBRANCH 15 16
BRANCH 15 18
ATOM     18  CB  TYR B 159      38.662 -21.849  -9.920  1.00 32.38 LIG 0.07  C 
BRANCH 18 19
ATOM     19  CG  TYR B 159      38.932 -21.895 -11.408  1.00 36.58 LIG-0.06  A 
ATOM     20  CD2 TYR B 159      37.883 -21.967 -12.325  1.00 38.67 LIG 0.01  A 
ATOM     21  CE2 TYR B 159      38.127 -21.997 -13.697  1.00 40.79 LIG 0.04  A 
ATOM     22  CZ  TYR B 159      39.433 -21.958 -14.160  1.00 41.05 LIG 0.07  A 
ATOM     23  CE1 TYR B 159      40.492 -21.887 -13.269  1.00 40.09 LIG 0.04  A 
ATOM     24  CD1 TYR B 159      40.236 -21.855 -11.900  1.00 38.09 LIG 0.01  A 
BRANCH 22 25
ATOM     25 OH   TYR B 159      39.680 -21.988 -15.514  1.00 43.66 LIG-0.36  OA
ATOM     26 HH   TYR B 159      40.487 -21.799 -15.656  1.00 43.66 LIG 0.22  HD
ENDBRANCH 22 25
ENDBRANCH 18 19
ENDBRANCH 15 18
ENDBRANCH 13 15
ENDBRANCH 10 11
BRANCH 10 27
ATOM     27  CB  SER B 158      33.707 -24.651  -9.047  1.00 15.79 LIG 0.20  C 
BRANCH 27 28
ATOM     28 OG   SER B 158      32.665 -24.048  -9.794  1.00 17.90 LIG-0.40  OA
ATOM     29 HG   SER B 158      32.965 -23.379 -10.204  1.00 17.90 LIG 0.21  HD
ENDBRANCH 27 28
ENDBRANCH 10 27
ENDBRANCH 8 10
ENDBRANCH 5 6
BRANCH 5 30
ATOM     30  CB  THR B 157      33.293 -20.056  -9.876  1.00 18.18 LIG 0.15  C 
ATOM     31  CG2 THR B 157      31.796 -20.304  -9.809  1.00 16.96 LIG 0.04  C 
BRANCH 30 32
ATOM     32 OG1  THR B 157      33.556 -18.894 -10.673  1.00 15.90 LIG-0.39  OA
ATOM     33 HG1  THR B 157      33.434 -18.203 -10.211  1.00 15.90 LIG 0.21  HD
ENDBRANCH 30 32
ENDBRANCH 5 30
ENDBRANCH 3 5
BRANCH 1 34
ATOM     34  CA  SER B 156      37.323 -18.536  -9.320  1.00 16.58 LIG 0.20  C 
BRANCH 34 35
ATOM     35  N   SER B 156      37.076 -17.388 -10.182  1.00 15.80 LIG-0.34  N 
ATOM     36 H    SER B 156      36.390 -16.921  -9.959  1.00 15.80 LIG 0.16  HD
ATOM     37  C   PRO B 155      37.855 -17.100 -11.221  1.00 18.36 LIG 0.24  C 
ATOM     38 O    PRO B 155      38.831 -17.780 -11.543  1.00 18.57 LIG-0.27  OA
BRANCH 37 39
ATOM     39  CA  PRO B 155      37.468 -15.867 -12.026  1.00 19.30 LIG 0.18  C 
ATOM     40  CB  PRO B 155      38.560 -15.453 -13.004  1.00 17.99 LIG 0.04  C 
ATOM     41  CG  PRO B 155      39.450 -14.613 -12.139  1.00 20.29 LIG 0.02  C 
ATOM     42  CD  PRO B 155      38.455 -13.757 -11.367  1.00 20.15 LIG 0.13  C 
ATOM     43  N   PRO B 155      37.318 -14.677 -11.181  1.00 20.34 LIG-0.34  N 
ATOM     44  C   SER B 154      36.229 -14.465 -10.421  1.00 23.17 LIG 0.24  C 
ATOM     45 O    SER B 154      35.289 -15.259 -10.388  1.00 21.43 LIG-0.27  OA
BRANCH 44 46
ATOM     46  CA  SER B 154      36.199 -13.187  -9.588  1.00 26.04 LIG 0.20  C 
BRANCH 46 47
ATOM     47  N   SER B 154      36.544 -12.014 -10.385  1.00 29.08 LIG-0.34  N 
ATOM     48 H    SER B 154      36.097 -11.938 -11.116  1.00 29.08 LIG 0.16  HD
ATOM     49  C   VAL B 153      37.477 -11.152  -9.993  1.00 31.74 LIG 0.26  C 
ATOM     50 O    VAL B 153      38.112 -11.281  -8.949  1.00 31.76 LIG-0.27  OA
BRANCH 49 51
ATOM     51  CA  VAL B 153      37.737  -9.969 -10.921  1.00 34.29 LIG 0.40  C 
ATOM     52  N   VAL B 153      37.503  -8.685 -10.204  1.00 34.52 LIG 0.61  N 
BRANCH 51 53
ATOM     53  CB  VAL B 153      39.192 -10.061 -11.443  1.00 36.17 LIG 0.03  C 
ATOM     54  CG2 VAL B 153      39.747  -8.671 -11.689  1.00 38.03 LIG 0.01  C 
ATOM     55  CG1 VAL B 153      39.236 -10.884 -12.721  1.00 38.39 LIG 0.01  C 
ENDBRANCH 51 53
ENDBRANCH 49 51
ENDBRANCH 46 47
BRANCH 46 56
ATOM     56  CB  SER B 154      34.809 -13.019  -8.969  1.00 27.48 LIG 0.20  C 
BRANCH 56 57
ATOM     57 OG   SER B 154      33.967 -12.250  -9.811  1.00 30.72 LIG-0.40  OA
ATOM     58 HG   SER B 154      33.211 -12.612  -9.858  1.00 30.72 LIG 0.21  HD
ENDBRANCH 56 57
ENDBRANCH 46 56
ENDBRANCH 44 46
ENDBRANCH 37 39
ENDBRANCH 34 35
BRANCH 34 59
ATOM     59  CB  SER B 156      37.551 -18.080  -7.879  1.00 16.81 LIG 0.20  C 
BRANCH 59 60
ATOM     60 OG   SER B 156      37.322 -16.684  -7.756  1.00 16.65 LIG-0.40  OA
ATOM     61 HG   SER B 156      38.003 -16.264  -8.011  1.00 16.65 LIG 0.21  HD
ENDBRANCH 59 60
ENDBRANCH 34 59
ENDBRANCH 1 34
TORSDOF 24
ENDMDL
MODEL 44
USER: ADFR SOLUTION from run 91
USER: SCORE 17.018528 LL:  -3.883 LR: -13.547 RR:   0.000 FEB:  -6.388
USER: RMSD 4.709753
USER: SEED 90
USER: STATUS no improvement in best in 12 clusters for 5 generations
USER: GENES 26
USER: genes 0 Translation |==|  0.30177 0.61192 0.58926
USER: genes 1 Rotation |==|  0.88721 0.70579 0.27602 0.58689
USER: genes 2 Torsion [C]-N--CA-[C] |==|  0.56342
USER: genes 3 Torsion [N]-CA--C-[N] |==|  0.48724
USER: genes 4 Torsion [C]-N--CA-[C] |==|  0.71820
USER: genes 5 Torsion [N]-CA--C-[N] |==|  0.42005
USER: genes 6 Torsion [C]-N--CA-[CB] |==|  0.78972
USER: genes 7 Torsion [N]-CA--C-[O] |==|  0.28234
USER: genes 8 Torsion [N]-CA--CB-[CG] |==|  0.91120
USER: genes 9 Torsion [CA]-CB--CG-[CD2] |==|  0.80220
USER: genes 10 Torsion [CE2]-CZ--OH-[HH] |==|  0.47742
USER: genes 11 Torsion [N]-CA--CB-[OG] |==|  0.87595
USER: genes 12 Torsion [CA]-CB--OG-[HG] |==|  0.77497
USER: genes 13 Torsion [N]-CA--CB-[CG2] |==|  0.57299
USER: genes 14 Torsion [CA]-CB--OG1-[HG1] |==|  0.89161
USER: genes 15 Torsion [N]-C--CA-[N] |==|  0.36494
USER: genes 16 Torsion [C]-CA--N-[C] |==|  0.77395
USER: genes 17 Torsion [N]-C--CA-[CB] |==|  0.86317
USER: genes 18 Torsion [N]-C--CA-[N] |==|  0.42222
USER: genes 19 Torsion [C]-CA--N-[C] |==|  0.80856
USER: genes 20 Torsion [N]-C--CA-[N] |==|  0.34024
USER: genes 21 Torsion [C]-CA--CB-[CG2] |==|  0.40261
USER: genes 22 Torsion [C]-CA--CB-[OG] |==|  0.42431
USER: genes 23 Torsion [CA]-CB--OG-[HG] |==|  0.19435
USER: genes 24 Torsion [C]-CA--CB-[OG] |==|  0.30925
USER: genes 25 Torsion [CA]-CB--OG-[HG] |==|  0.93123
ROOT
ATOM      1  C   SER B 156      33.465 -13.768  -7.954  1.00 15.87 LIG 0.24  C 
ATOM      2 O    SER B 156      33.809 -13.701  -6.773  1.00 15.60 LIG-0.27  OA
ATOM      3  N   THR B 157      34.267 -13.450  -8.966  1.00 16.26 LIG-0.34  N 
ATOM      4 H    THR B 157      34.055 -13.529  -9.796  1.00 16.26 LIG 0.16  HD
ENDROOT
BRANCH 3 5
ATOM      5  CA  THR B 157      35.603 -12.930  -8.730  1.00 15.91 LIG 0.20  C 
BRANCH 5 6
ATOM      6  C   THR B 157      35.934 -12.177 -10.015  1.00 16.14 LIG 0.24  C 
ATOM      7 O    THR B 157      35.152 -12.205 -10.970  1.00 15.69 LIG-0.27  OA
ATOM      8  N   SER B 158      37.080 -11.509 -10.045  1.00 15.14 LIG-0.34  N 
ATOM      9 H    SER B 158      37.639 -11.477  -9.393  1.00 15.14 LIG 0.16  HD
BRANCH 8 10
ATOM     10  CA  SER B 158      37.481 -10.757 -11.230  1.00 18.36 LIG 0.20  C 
BRANCH 10 11
ATOM     11  C   SER B 158      38.516 -11.529 -12.042  1.00 20.96 LIG 0.24  C 
ATOM     12 O    SER B 158      39.286 -12.320 -11.494  1.00 20.92 LIG-0.27  OA
ATOM     13  N   TYR B 159      38.529 -11.296 -13.351  1.00 23.40 LIG-0.35  N 
ATOM     14 H    TYR B 159      37.999 -10.745 -13.746  1.00 23.40 LIG 0.16  HD
BRANCH 13 15
ATOM     15  CA  TYR B 159      39.469 -11.973 -14.240  1.00 28.83 LIG 0.17  C 
BRANCH 15 16
ATOM     16  C   TYR B 159      39.528 -13.465 -13.936  1.00 30.09 LIG 0.22  C 
ATOM     17 O    TYR B 159      38.896 -14.223 -14.703  1.00 33.46 LIG-0.29  OA
ENDBRANCH 15 16
BRANCH 15 18
ATOM     18  CB  TYR B 159      40.867 -11.367 -14.093  1.00 32.38 LIG 0.07  C 
BRANCH 18 19
ATOM     19  CG  TYR B 159      40.856  -9.891 -13.761  1.00 36.58 LIG-0.06  A 
ATOM     20  CD2 TYR B 159      40.474  -8.945 -14.711  1.00 38.67 LIG 0.01  A 
ATOM     21  CE2 TYR B 159      40.452  -7.585 -14.405  1.00 40.79 LIG 0.04  A 
ATOM     22  CZ  TYR B 159      40.818  -7.164 -13.136  1.00 41.05 LIG 0.07  A 
ATOM     23  CE1 TYR B 159      41.203  -8.085 -12.175  1.00 40.09 LIG 0.04  A 
ATOM     24  CD1 TYR B 159      41.219  -9.441 -12.492  1.00 38.09 LIG 0.01  A 
BRANCH 22 25
ATOM     25 OH   TYR B 159      40.800  -5.822 -12.828  1.00 43.66 LIG-0.36  OA
ATOM     26 HH   TYR B 159      40.934  -5.722 -12.004  1.00 43.66 LIG 0.22  HD
ENDBRANCH 22 25
ENDBRANCH 18 19
ENDBRANCH 15 18
ENDBRANCH 13 15
ENDBRANCH 10 11
BRANCH 10 27
ATOM     27  CB  SER B 158      38.059  -9.401 -10.823  1.00 15.79 LIG 0.20  C 
BRANCH 27 28
ATOM     28 OG   SER B 158      37.256  -8.785  -9.831  1.00 17.90 LIG-0.40  OA
ATOM     29 HG   SER B 158      36.597  -8.413 -10.195  1.00 17.90 LIG 0.21  HD
ENDBRANCH 27 28
ENDBRANCH 10 27
ENDBRANCH 8 10
ENDBRANCH 5 6
BRANCH 5 30
ATOM     30  CB  THR B 157      36.640 -14.056  -8.535  1.00 18.18 LIG 0.15  C 
ATOM     31  CG2 THR B 157      37.806 -13.572  -7.689  1.00 16.96 LIG 0.04  C 
BRANCH 30 32
ATOM     32 OG1  THR B 157      36.014 -15.178  -7.899  1.00 15.90 LIG-0.39  OA
ATOM     33 HG1  THR B 157      35.477 -14.905  -7.313  1.00 15.90 LIG 0.21  HD
ENDBRANCH 30 32
ENDBRANCH 5 30
ENDBRANCH 3 5
BRANCH 1 34
ATOM     34  CA  SER B 156      32.070 -14.237  -8.329  1.00 16.58 LIG 0.20  C 
BRANCH 34 35
ATOM     35  N   SER B 156      31.788 -15.464  -7.594  1.00 15.80 LIG-0.34  N 
ATOM     36 H    SER B 156      31.317 -15.347  -6.884  1.00 15.80 LIG 0.16  HD
ATOM     37  C   PRO B 155      32.228 -16.651  -8.000  1.00 18.36 LIG 0.24  C 
ATOM     38 O    PRO B 155      32.912 -16.808  -9.012  1.00 18.57 LIG-0.27  OA
BRANCH 37 39
ATOM     39  CA  PRO B 155      31.850 -17.839  -7.124  1.00 19.30 LIG 0.18  C 
ATOM     40  CB  PRO B 155      32.150 -17.585  -5.652  1.00 17.99 LIG 0.04  C 
ATOM     41  CG  PRO B 155      33.595 -17.972  -5.558  1.00 20.29 LIG 0.02  C 
ATOM     42  CD  PRO B 155      33.647 -19.268  -6.357  1.00 20.15 LIG 0.13  C 
ATOM     43  N   PRO B 155      32.657 -19.027  -7.422  1.00 20.34 LIG-0.34  N 
ATOM     44  C   SER B 154      32.426 -19.804  -8.494  1.00 23.17 LIG 0.24  C 
ATOM     45 O    SER B 154      31.521 -19.565  -9.294  1.00 21.43 LIG-0.27  OA
BRANCH 44 46
ATOM     46  CA  SER B 154      33.339 -21.012  -8.690  1.00 26.04 LIG 0.20  C 
BRANCH 46 47
ATOM     47  N   SER B 154      32.664 -22.087  -9.409  1.00 29.08 LIG-0.34  N 
ATOM     48 H    SER B 154      32.966 -22.227 -10.202  1.00 29.08 LIG 0.16  HD
ATOM     49  C   VAL B 153      31.669 -22.778  -8.862  1.00 31.74 LIG 0.26  C 
ATOM     50 O    VAL B 153      31.246 -22.560  -7.729  1.00 31.76 LIG-0.27  OA
BRANCH 49 51
ATOM     51  CA  VAL B 153      31.054 -23.877  -9.723  1.00 34.29 LIG 0.40  C 
ATOM     52  N   VAL B 153      31.142 -25.192  -9.030  1.00 34.52 LIG 0.61  N 
BRANCH 51 53
ATOM     53  CB  VAL B 153      29.583 -23.501 -10.027  1.00 36.17 LIG 0.03  C 
ATOM     54  CG2 VAL B 153      29.205 -23.961 -11.422  1.00 38.03 LIG 0.01  C 
ATOM     55  CG1 VAL B 153      29.390 -21.999  -9.892  1.00 38.39 LIG 0.01  C 
ENDBRANCH 51 53
ENDBRANCH 49 51
ENDBRANCH 46 47
BRANCH 46 56
ATOM     56  CB  SER B 154      34.599 -20.577  -9.442  1.00 27.48 LIG 0.20  C 
BRANCH 56 57
ATOM     57 OG   SER B 154      35.697 -21.414  -9.122  1.00 30.72 LIG-0.40  OA
ATOM     58 HG   SER B 154      35.576 -22.175  -9.455  1.00 30.72 LIG 0.21  HD
ENDBRANCH 56 57
ENDBRANCH 46 56
ENDBRANCH 44 46
ENDBRANCH 37 39
ENDBRANCH 34 35
BRANCH 34 59
ATOM     59  CB  SER B 156      31.077 -13.142  -7.937  1.00 16.81 LIG 0.20  C 
BRANCH 59 60
ATOM     60 OG   SER B 156      30.517 -12.541  -9.095  1.00 16.65 LIG-0.40  OA
ATOM     61 HG   SER B 156      31.043 -12.635  -9.743  1.00 16.65 LIG 0.21  HD
ENDBRANCH 59 60
ENDBRANCH 34 59
ENDBRANCH 1 34
TORSDOF 24
ENDMDL
MODEL 45
USER: ADFR SOLUTION from run 151
USER: SCORE 17.384831 LL:  -4.643 LR: -13.527 RR:   0.000 FEB:  -6.368
USER: RMSD 12.122842
USER: SEED 150
USER: STATUS no improvement in best in 3 clusters for 5 generations
USER: GENES 26
USER: genes 0 Translation |==|  0.21343 0.63698 0.66021
USER: genes 1 Rotation |==|  0.61161 0.93351 0.69545 0.60681
USER: genes 2 Torsion [C]-N--CA-[C] |==|  0.78580
USER: genes 3 Torsion [N]-CA--C-[N] |==|  0.41795
USER: genes 4 Torsion [C]-N--CA-[C] |==|  0.18268
USER: genes 5 Torsion [N]-CA--C-[N] |==|  0.07536
USER: genes 6 Torsion [C]-N--CA-[CB] |==|  0.44295
USER: genes 7 Torsion [N]-CA--C-[O] |==|  0.33256
USER: genes 8 Torsion [N]-CA--CB-[CG] |==|  0.58358
USER: genes 9 Torsion [CA]-CB--CG-[CD2] |==|  0.38536
USER: genes 10 Torsion [CE2]-CZ--OH-[HH] |==|  0.83186
USER: genes 11 Torsion [N]-CA--CB-[OG] |==|  0.26737
USER: genes 12 Torsion [CA]-CB--OG-[HG] |==|  0.73397
USER: genes 13 Torsion [N]-CA--CB-[CG2] |==|  0.65390
USER: genes 14 Torsion [CA]-CB--OG1-[HG1] |==|  0.64262
USER: genes 15 Torsion [N]-C--CA-[N] |==|  0.47642
USER: genes 16 Torsion [C]-CA--N-[C] |==|  0.56662
USER: genes 17 Torsion [N]-C--CA-[CB] |==|  0.81278
USER: genes 18 Torsion [N]-C--CA-[N] |==|  0.87349
USER: genes 19 Torsion [C]-CA--N-[C] |==|  0.65017
USER: genes 20 Torsion [N]-C--CA-[N] |==|  0.49500
USER: genes 21 Torsion [C]-CA--CB-[CG2] |==|  0.88683
USER: genes 22 Torsion [C]-CA--CB-[OG] |==|  0.43759
USER: genes 23 Torsion [CA]-CB--OG-[HG] |==|  0.05661
USER: genes 24 Torsion [C]-CA--CB-[OG] |==|  0.34346
USER: genes 25 Torsion [CA]-CB--OG-[HG] |==|  0.17872
ROOT
ATOM      1  C   SER B 156      31.014 -13.185  -6.465  1.00 15.87 LIG 0.24  C 
ATOM      2 O    SER B 156      31.267 -14.103  -5.682  1.00 15.60 LIG-0.27  OA
ATOM      3  N   THR B 157      30.102 -12.249  -6.219  1.00 16.26 LIG-0.34  N 
ATOM      4 H    THR B 157      29.942 -11.581  -6.736  1.00 16.26 LIG 0.16  HD
ENDROOT
BRANCH 3 5
ATOM      5  CA  THR B 157      29.286 -12.294  -5.017  1.00 15.91 LIG 0.20  C 
BRANCH 5 6
ATOM      6  C   THR B 157      28.243 -13.364  -5.324  1.00 16.14 LIG 0.24  C 
ATOM      7 O    THR B 157      27.882 -13.564  -6.488  1.00 15.69 LIG-0.27  OA
ATOM      8  N   SER B 158      27.761 -14.049  -4.295  1.00 15.14 LIG-0.34  N 
ATOM      9 H    SER B 158      27.997 -13.926  -3.478  1.00 15.14 LIG 0.16  HD
BRANCH 8 10
ATOM     10  CA  SER B 158      26.762 -15.095  -4.490  1.00 18.36 LIG 0.20  C 
BRANCH 10 11
ATOM     11  C   SER B 158      27.341 -16.264  -5.281  1.00 20.96 LIG 0.24  C 
ATOM     12 O    SER B 158      26.613 -16.983  -5.968  1.00 20.92 LIG-0.27  OA
ATOM     13  N   TYR B 159      28.653 -16.449  -5.180  1.00 23.40 LIG-0.35  N 
ATOM     14 H    TYR B 159      29.173 -15.955  -4.702  1.00 23.40 LIG 0.16  HD
BRANCH 13 15
ATOM     15  CA  TYR B 159      29.331 -17.530  -5.889  1.00 28.83 LIG 0.17  C 
BRANCH 15 16
ATOM     16  C   TYR B 159      29.147 -18.858  -5.163  1.00 30.09 LIG 0.22  C 
ATOM     17 O    TYR B 159      28.575 -19.771  -5.795  1.00 33.46 LIG-0.29  OA
ENDBRANCH 15 16
BRANCH 15 18
ATOM     18  CB  TYR B 159      30.826 -17.223  -6.018  1.00 32.38 LIG 0.07  C 
BRANCH 18 19
ATOM     19  CG  TYR B 159      31.461 -17.814  -7.257  1.00 36.58 LIG-0.06  A 
ATOM     20  CD2 TYR B 159      32.385 -17.086  -8.007  1.00 38.67 LIG 0.01  A 
ATOM     21  CE2 TYR B 159      32.982 -17.632  -9.142  1.00 40.79 LIG 0.04  A 
ATOM     22  CZ  TYR B 159      32.651 -18.918  -9.537  1.00 41.05 LIG 0.07  A 
ATOM     23  CE1 TYR B 159      31.735 -19.661  -8.810  1.00 40.09 LIG 0.04  A 
ATOM     24  CD1 TYR B 159      31.147 -19.107  -7.675  1.00 38.09 LIG 0.01  A 
BRANCH 22 25
ATOM     25 OH   TYR B 159      33.236 -19.463 -10.658  1.00 43.66 LIG-0.36  OA
ATOM     26 HH   TYR B 159      33.046 -18.994 -11.329  1.00 43.66 LIG 0.22  HD
ENDBRANCH 22 25
ENDBRANCH 18 19
ENDBRANCH 15 18
ENDBRANCH 13 15
ENDBRANCH 10 11
BRANCH 10 27
ATOM     27  CB  SER B 158      25.546 -14.531  -5.229  1.00 15.79 LIG 0.20  C 
BRANCH 27 28
ATOM     28 OG   SER B 158      25.635 -14.789  -6.619  1.00 17.90 LIG-0.40  OA
ATOM     29 HG   SER B 158      25.962 -14.119  -7.008  1.00 17.90 LIG 0.21  HD
ENDBRANCH 27 28
ENDBRANCH 10 27
ENDBRANCH 8 10
ENDBRANCH 5 6
BRANCH 5 30
ATOM     30  CB  THR B 157      28.560 -10.956  -4.757  1.00 18.18 LIG 0.15  C 
ATOM     31  CG2 THR B 157      28.884 -10.430  -3.369  1.00 16.96 LIG 0.04  C 
BRANCH 30 32
ATOM     32 OG1  THR B 157      28.960  -9.995  -5.744  1.00 15.90 LIG-0.39  OA
ATOM     33 HG1  THR B 157      29.208  -9.289  -5.363  1.00 15.90 LIG 0.21  HD
ENDBRANCH 30 32
ENDBRANCH 5 30
ENDBRANCH 3 5
BRANCH 1 34
ATOM     34  CA  SER B 156      31.754 -13.066  -7.785  1.00 16.58 LIG 0.20  C 
BRANCH 34 35
ATOM     35  N   SER B 156      32.838 -14.041  -7.790  1.00 15.80 LIG-0.34  N 
ATOM     36 H    SER B 156      32.712 -14.710  -7.265  1.00 15.80 LIG 0.16  HD
ATOM     37  C   PRO B 155      33.921 -13.894  -8.547  1.00 18.36 LIG 0.24  C 
ATOM     38 O    PRO B 155      34.100 -12.927  -9.289  1.00 18.57 LIG-0.27  OA
BRANCH 37 39
ATOM     39  CA  PRO B 155      34.965 -14.998  -8.442  1.00 19.30 LIG 0.18  C 
ATOM     40  CB  PRO B 155      35.635 -15.025  -7.074  1.00 17.99 LIG 0.04  C 
ATOM     41  CG  PRO B 155      36.724 -14.008  -7.241  1.00 20.29 LIG 0.02  C 
ATOM     42  CD  PRO B 155      37.290 -14.345  -8.613  1.00 20.15 LIG 0.13  C 
ATOM     43  N   PRO B 155      36.093 -14.783  -9.355  1.00 20.34 LIG-0.34  N 
ATOM     44  C   SER B 154      36.016 -15.047 -10.671  1.00 23.17 LIG 0.24  C 
ATOM     45 O    SER B 154      34.990 -15.485 -11.192  1.00 21.43 LIG-0.27  OA
BRANCH 44 46
ATOM     46  CA  SER B 154      37.262 -14.779 -11.510  1.00 26.04 LIG 0.20  C 
BRANCH 46 47
ATOM     47  N   SER B 154      37.859 -13.485 -11.193  1.00 29.08 LIG-0.34  N 
ATOM     48 H    SER B 154      38.033 -13.370 -10.358  1.00 29.08 LIG 0.16  HD
ATOM     49  C   VAL B 153      38.102 -12.578 -12.133  1.00 31.74 LIG 0.26  C 
ATOM     50 O    VAL B 153      37.841 -12.758 -13.321  1.00 31.76 LIG-0.27  OA
BRANCH 49 51
ATOM     51  CA  VAL B 153      38.730 -11.270 -11.664  1.00 34.29 LIG 0.40  C 
ATOM     52  N   VAL B 153      38.985 -10.370 -12.824  1.00 34.52 LIG 0.61  N 
BRANCH 51 53
ATOM     53  CB  VAL B 153      37.780 -10.605 -10.638  1.00 36.17 LIG 0.03  C 
ATOM     54  CG2 VAL B 153      36.340 -10.750 -11.092  1.00 38.03 LIG 0.01  C 
ATOM     55  CG1 VAL B 153      38.139  -9.137 -10.469  1.00 38.39 LIG 0.01  C 
ENDBRANCH 51 53
ENDBRANCH 49 51
ENDBRANCH 46 47
BRANCH 46 56
ATOM     56  CB  SER B 154      38.276 -15.903 -11.282  1.00 27.48 LIG 0.20  C 
BRANCH 56 57
ATOM     57 OG   SER B 154      39.185 -15.995 -12.366  1.00 30.72 LIG-0.40  OA
ATOM     58 HG   SER B 154      39.190 -15.271 -12.790  1.00 30.72 LIG 0.21  HD
ENDBRANCH 56 57
ENDBRANCH 46 56
ENDBRANCH 44 46
ENDBRANCH 37 39
ENDBRANCH 34 35
BRANCH 34 59
ATOM     59  CB  SER B 156      30.767 -13.363  -8.914  1.00 16.81 LIG 0.20  C 
BRANCH 59 60
ATOM     60 OG   SER B 156      30.716 -12.278  -9.829  1.00 16.65 LIG-0.40  OA
ATOM     61 HG   SER B 156      31.464 -12.191 -10.203  1.00 16.65 LIG 0.21  HD
ENDBRANCH 59 60
ENDBRANCH 34 59
ENDBRANCH 1 34
TORSDOF 24
ENDMDL
MODEL 46
USER: ADFR SOLUTION from run 136
USER: SCORE 16.517234 LL:  -4.106 LR: -13.516 RR:   0.000 FEB:  -6.356
USER: RMSD 11.898531
USER: SEED 135
USER: STATUS no improvement in best in 3 clusters for 5 generations
USER: GENES 26
USER: genes 0 Translation |==|  0.31357 0.39706 0.49991
USER: genes 1 Rotation |==|  0.79614 0.54992 0.82525 0.73242
USER: genes 2 Torsion [C]-N--CA-[C] |==|  0.60774
USER: genes 3 Torsion [N]-CA--C-[N] |==|  0.46639
USER: genes 4 Torsion [C]-N--CA-[C] |==|  0.53416
USER: genes 5 Torsion [N]-CA--C-[N] |==|  0.49399
USER: genes 6 Torsion [C]-N--CA-[CB] |==|  0.38445
USER: genes 7 Torsion [N]-CA--C-[O] |==|  0.88412
USER: genes 8 Torsion [N]-CA--CB-[CG] |==|  0.10783
USER: genes 9 Torsion [CA]-CB--CG-[CD2] |==|  0.75109
USER: genes 10 Torsion [CE2]-CZ--OH-[HH] |==|  0.51062
USER: genes 11 Torsion [N]-CA--CB-[OG] |==|  0.19247
USER: genes 12 Torsion [CA]-CB--OG-[HG] |==|  0.63398
USER: genes 13 Torsion [N]-CA--CB-[CG2] |==|  0.74212
USER: genes 14 Torsion [CA]-CB--OG1-[HG1] |==|  0.79204
USER: genes 15 Torsion [N]-C--CA-[N] |==|  0.89239
USER: genes 16 Torsion [C]-CA--N-[C] |==|  0.85075
USER: genes 17 Torsion [N]-C--CA-[CB] |==|  0.68795
USER: genes 18 Torsion [N]-C--CA-[N] |==|  0.15387
USER: genes 19 Torsion [C]-CA--N-[C] |==|  0.57322
USER: genes 20 Torsion [N]-C--CA-[N] |==|  0.46150
USER: genes 21 Torsion [C]-CA--CB-[CG2] |==|  0.23989
USER: genes 22 Torsion [C]-CA--CB-[OG] |==|  0.37285
USER: genes 23 Torsion [CA]-CB--OG-[HG] |==|  0.20768
USER: genes 24 Torsion [C]-CA--CB-[OG] |==|  0.40691
USER: genes 25 Torsion [CA]-CB--OG-[HG] |==|  0.63752
ROOT
ATOM      1  C   SER B 156      33.793 -18.763  -9.831  1.00 15.87 LIG 0.24  C 
ATOM      2 O    SER B 156      32.871 -19.088 -10.582  1.00 15.60 LIG-0.27  OA
ATOM      3  N   THR B 157      33.602 -18.147  -8.668  1.00 16.26 LIG-0.34  N 
ATOM      4 H    THR B 157      34.231 -17.950  -8.116  1.00 16.26 LIG 0.16  HD
ENDROOT
BRANCH 3 5
ATOM      5  CA  THR B 157      32.272 -17.751  -8.238  1.00 15.91 LIG 0.20  C 
BRANCH 5 6
ATOM      6  C   THR B 157      32.492 -16.395  -7.575  1.00 16.14 LIG 0.24  C 
ATOM      7 O    THR B 157      33.636 -16.008  -7.316  1.00 15.69 LIG-0.27  OA
ATOM      8  N   SER B 158      31.411 -15.675  -7.301  1.00 15.14 LIG-0.34  N 
ATOM      9 H    SER B 158      30.607 -15.925  -7.472  1.00 15.14 LIG 0.16  HD
BRANCH 8 10
ATOM     10  CA  SER B 158      31.522 -14.364  -6.670  1.00 18.36 LIG 0.20  C 
BRANCH 10 11
ATOM     11  C   SER B 158      30.161 -13.873  -6.187  1.00 20.96 LIG 0.24  C 
ATOM     12 O    SER B 158      29.144 -14.541  -6.384  1.00 20.92 LIG-0.27  OA
ATOM     13  N   TYR B 159      30.148 -12.704  -5.554  1.00 23.40 LIG-0.35  N 
ATOM     14 H    TYR B 159      30.850 -12.227  -5.412  1.00 23.40 LIG 0.16  HD
BRANCH 13 15
ATOM     15  CA  TYR B 159      28.910 -12.126  -5.039  1.00 28.83 LIG 0.17  C 
BRANCH 15 16
ATOM     16  C   TYR B 159      28.377 -11.052  -5.981  1.00 30.09 LIG 0.22  C 
ATOM     17 O    TYR B 159      29.216 -10.270  -6.477  1.00 33.46 LIG-0.29  OA
ENDBRANCH 15 16
BRANCH 15 18
ATOM     18  CB  TYR B 159      29.146 -11.517  -3.654  1.00 32.38 LIG 0.07  C 
BRANCH 18 19
ATOM     19  CG  TYR B 159      30.479 -10.814  -3.520  1.00 36.58 LIG-0.06  A 
ATOM     20  CD2 TYR B 159      31.616 -11.505  -3.101  1.00 38.67 LIG 0.01  A 
ATOM     21  CE2 TYR B 159      32.848 -10.863  -2.988  1.00 40.79 LIG 0.04  A 
ATOM     22  CZ  TYR B 159      32.947  -9.515  -3.294  1.00 41.05 LIG 0.07  A 
ATOM     23  CE1 TYR B 159      31.832  -8.806  -3.711  1.00 40.09 LIG 0.04  A 
ATOM     24  CD1 TYR B 159      30.606  -9.459  -3.823  1.00 38.09 LIG 0.01  A 
BRANCH 22 25
ATOM     25 OH   TYR B 159      34.161  -8.874  -3.183  1.00 43.66 LIG-0.36  OA
ATOM     26 HH   TYR B 159      34.062  -8.056  -3.347  1.00 43.66 LIG 0.22  HD
ENDBRANCH 22 25
ENDBRANCH 18 19
ENDBRANCH 15 18
ENDBRANCH 13 15
ENDBRANCH 10 11
BRANCH 10 27
ATOM     27  CB  SER B 158      32.110 -13.352  -7.656  1.00 15.79 LIG 0.20  C 
BRANCH 27 28
ATOM     28 OG   SER B 158      31.192 -13.068  -8.697  1.00 17.90 LIG-0.40  OA
ATOM     29 HG   SER B 158      31.584 -13.121  -9.438  1.00 17.90 LIG 0.21  HD
ENDBRANCH 27 28
ENDBRANCH 10 27
ENDBRANCH 8 10
ENDBRANCH 5 6
BRANCH 5 30
ATOM     30  CB  THR B 157      31.686 -18.724  -7.192  1.00 18.18 LIG 0.15  C 
ATOM     31  CG2 THR B 157      30.854 -19.801  -7.867  1.00 16.96 LIG 0.04  C 
BRANCH 30 32
ATOM     32 OG1  THR B 157      32.753 -19.330  -6.451  1.00 15.90 LIG-0.39  OA
ATOM     33 HG1  THR B 157      33.132 -19.909  -6.927  1.00 15.90 LIG 0.21  HD
ENDBRANCH 30 32
ENDBRANCH 5 30
ENDBRANCH 3 5
BRANCH 1 34
ATOM     34  CA  SER B 156      35.234 -19.065 -10.199  1.00 16.58 LIG 0.20  C 
BRANCH 34 35
ATOM     35  N   SER B 156      36.058 -17.936  -9.785  1.00 15.80 LIG-0.34  N 
ATOM     36 H    SER B 156      36.721 -18.151  -9.282  1.00 15.80 LIG 0.16  HD
ATOM     37  C   PRO B 155      35.792 -16.689 -10.160  1.00 18.36 LIG 0.24  C 
ATOM     38 O    PRO B 155      34.833 -16.387 -10.871  1.00 18.57 LIG-0.27  OA
BRANCH 37 39
ATOM     39  CA  PRO B 155      36.746 -15.618  -9.645  1.00 19.30 LIG 0.18  C 
ATOM     40  CB  PRO B 155      36.072 -14.681  -8.650  1.00 17.99 LIG 0.04  C 
ATOM     41  CG  PRO B 155      35.429 -13.676  -9.557  1.00 20.29 LIG 0.02  C 
ATOM     42  CD  PRO B 155      36.525 -13.395 -10.576  1.00 20.15 LIG 0.13  C 
ATOM     43  N   PRO B 155      37.184 -14.707 -10.707  1.00 20.34 LIG-0.34  N 
ATOM     44  C   SER B 154      38.125 -15.047 -11.605  1.00 23.17 LIG 0.24  C 
ATOM     45 O    SER B 154      38.678 -16.146 -11.590  1.00 21.43 LIG-0.27  OA
BRANCH 44 46
ATOM     46  CA  SER B 154      38.490 -14.006 -12.660  1.00 26.04 LIG 0.20  C 
BRANCH 46 47
ATOM     47  N   SER B 154      38.898 -12.743 -12.054  1.00 29.08 LIG-0.34  N 
ATOM     48 H    SER B 154      39.224 -12.819 -11.261  1.00 29.08 LIG 0.16  HD
ATOM     49  C   VAL B 153      38.765 -11.585 -12.693  1.00 31.74 LIG 0.26  C 
ATOM     50 O    VAL B 153      38.290 -11.495 -13.823  1.00 31.76 LIG-0.27  OA
BRANCH 49 51
ATOM     51  CA  VAL B 153      39.233 -10.341 -11.945  1.00 34.29 LIG 0.40  C 
ATOM     52  N   VAL B 153      39.341  -9.184 -12.876  1.00 34.52 LIG 0.61  N 
BRANCH 51 53
ATOM     53  CB  VAL B 153      38.232 -10.047 -10.801  1.00 36.17 LIG 0.03  C 
ATOM     54  CG2 VAL B 153      38.610 -10.837  -9.562  1.00 38.03 LIG 0.01  C 
ATOM     55  CG1 VAL B 153      36.819 -10.396 -11.241  1.00 38.39 LIG 0.01  C 
ENDBRANCH 51 53
ENDBRANCH 49 51
ENDBRANCH 46 47
BRANCH 46 56
ATOM     56  CB  SER B 154      39.610 -14.556 -13.547  1.00 27.48 LIG 0.20  C 
BRANCH 56 57
ATOM     57 OG   SER B 154      39.333 -14.325 -14.918  1.00 30.72 LIG-0.40  OA
ATOM     58 HG   SER B 154      39.461 -13.515 -15.097  1.00 30.72 LIG 0.21  HD
ENDBRANCH 56 57
ENDBRANCH 46 56
ENDBRANCH 44 46
ENDBRANCH 37 39
ENDBRANCH 34 35
BRANCH 34 59
ATOM     59  CB  SER B 156      35.660 -20.334  -9.460  1.00 16.81 LIG 0.20  C 
BRANCH 59 60
ATOM     60 OG   SER B 156      36.576 -21.084 -10.245  1.00 16.65 LIG-0.40  OA
ATOM     61 HG   SER B 156      36.326 -21.886 -10.277  1.00 16.65 LIG 0.21  HD
ENDBRANCH 59 60
ENDBRANCH 34 59
ENDBRANCH 1 34
TORSDOF 24
ENDMDL
MODEL 47
USER: ADFR SOLUTION from run 120
USER: SCORE 15.848050 LL:  -4.073 LR: -13.516 RR:   0.000 FEB:  -6.357
USER: RMSD 13.168327
USER: SEED 119
USER: STATUS no improvement in best in 24 clusters for 5 generations
USER: GENES 26
USER: genes 0 Translation |==|  0.38061 0.57864 0.55209
USER: genes 1 Rotation |==|  0.34642 0.88324 0.77004 0.58136
USER: genes 2 Torsion [C]-N--CA-[C] |==|  0.72981
USER: genes 3 Torsion [N]-CA--C-[N] |==|  0.46111
USER: genes 4 Torsion [C]-N--CA-[C] |==|  0.73063
USER: genes 5 Torsion [N]-CA--C-[N] |==|  0.71224
USER: genes 6 Torsion [C]-N--CA-[CB] |==|  0.40522
USER: genes 7 Torsion [N]-CA--C-[O] |==|  0.68502
USER: genes 8 Torsion [N]-CA--CB-[CG] |==|  0.54352
USER: genes 9 Torsion [CA]-CB--CG-[CD2] |==|  0.71503
USER: genes 10 Torsion [CE2]-CZ--OH-[HH] |==|  0.26186
USER: genes 11 Torsion [N]-CA--CB-[OG] |==|  0.91096
USER: genes 12 Torsion [CA]-CB--OG-[HG] |==|  0.87631
USER: genes 13 Torsion [N]-CA--CB-[CG2] |==|  0.61412
USER: genes 14 Torsion [CA]-CB--OG1-[HG1] |==|  0.23347
USER: genes 15 Torsion [N]-C--CA-[N] |==|  0.65614
USER: genes 16 Torsion [C]-CA--N-[C] |==|  0.16541
USER: genes 17 Torsion [N]-C--CA-[CB] |==|  0.17423
USER: genes 18 Torsion [N]-C--CA-[N] |==|  0.85717
USER: genes 19 Torsion [C]-CA--N-[C] |==|  0.84810
USER: genes 20 Torsion [N]-C--CA-[N] |==|  0.27139
USER: genes 21 Torsion [C]-CA--CB-[CG2] |==|  0.56564
USER: genes 22 Torsion [C]-CA--CB-[OG] |==|  0.67888
USER: genes 23 Torsion [CA]-CB--OG-[HG] |==|  0.05985
USER: genes 24 Torsion [C]-CA--CB-[OG] |==|  0.22444
USER: genes 25 Torsion [CA]-CB--OG-[HG] |==|  0.72554
ROOT
ATOM      1  C   SER B 156      35.653 -14.542  -8.735  1.00 15.87 LIG 0.24  C 
ATOM      2 O    SER B 156      36.308 -15.065  -7.832  1.00 15.60 LIG-0.27  OA
ATOM      3  N   THR B 157      34.392 -14.866  -9.003  1.00 16.26 LIG-0.34  N 
ATOM      4 H    THR B 157      33.910 -14.483  -9.604  1.00 16.26 LIG 0.16  HD
ENDROOT
BRANCH 3 5
ATOM      5  CA  THR B 157      33.720 -15.928  -8.275  1.00 15.91 LIG 0.20  C 
BRANCH 5 6
ATOM      6  C   THR B 157      33.859 -17.142  -9.189  1.00 16.14 LIG 0.24  C 
ATOM      7 O    THR B 157      34.211 -16.999 -10.364  1.00 15.69 LIG-0.27  OA
ATOM      8  N   SER B 158      33.588 -18.329  -8.661  1.00 15.14 LIG-0.34  N 
ATOM      9 H    SER B 158      33.341 -18.452  -7.847  1.00 15.14 LIG 0.16  HD
BRANCH 8 10
ATOM     10  CA  SER B 158      33.696 -19.548  -9.456  1.00 18.36 LIG 0.20  C 
BRANCH 10 11
ATOM     11  C   SER B 158      32.335 -19.963 -10.008  1.00 20.96 LIG 0.24  C 
ATOM     12 O    SER B 158      31.839 -19.373 -10.969  1.00 20.92 LIG-0.27  OA
ATOM     13  N   TYR B 159      31.739 -20.981  -9.396  1.00 23.40 LIG-0.35  N 
ATOM     14 H    TYR B 159      32.074 -21.400  -8.723  1.00 23.40 LIG 0.16  HD
BRANCH 13 15
ATOM     15  CA  TYR B 159      30.436 -21.478  -9.829  1.00 28.83 LIG 0.17  C 
BRANCH 15 16
ATOM     16  C   TYR B 159      29.310 -20.801  -9.056  1.00 30.09 LIG 0.22  C 
ATOM     17 O    TYR B 159      28.640 -21.524  -8.287  1.00 33.46 LIG-0.29  OA
ENDBRANCH 15 16
BRANCH 15 18
ATOM     18  CB  TYR B 159      30.354 -22.993  -9.628  1.00 32.38 LIG 0.07  C 
BRANCH 18 19
ATOM     19  CG  TYR B 159      29.214 -23.644 -10.379  1.00 36.58 LIG-0.06  A 
ATOM     20  CD2 TYR B 159      28.045 -24.025  -9.721  1.00 38.67 LIG 0.01  A 
ATOM     21  CE2 TYR B 159      26.988 -24.614 -10.412  1.00 40.79 LIG 0.04  A 
ATOM     22  CZ  TYR B 159      27.099 -24.829 -11.777  1.00 41.05 LIG 0.07  A 
ATOM     23  CE1 TYR B 159      28.250 -24.461 -12.454  1.00 40.09 LIG 0.04  A 
ATOM     24  CD1 TYR B 159      29.299 -23.870 -11.753  1.00 38.09 LIG 0.01  A 
BRANCH 22 25
ATOM     25 OH   TYR B 159      26.058 -25.411 -12.465  1.00 43.66 LIG-0.36  OA
ATOM     26 HH   TYR B 159      25.569 -24.812 -12.793  1.00 43.66 LIG 0.22  HD
ENDBRANCH 22 25
ENDBRANCH 18 19
ENDBRANCH 15 18
ENDBRANCH 13 15
ENDBRANCH 10 11
BRANCH 10 27
ATOM     27  CB  SER B 158      34.271 -20.683  -8.607  1.00 15.79 LIG 0.20  C 
BRANCH 27 28
ATOM     28 OG   SER B 158      35.177 -20.183  -7.639  1.00 17.90 LIG-0.40  OA
ATOM     29 HG   SER B 158      35.685 -19.617  -7.997  1.00 17.90 LIG 0.21  HD
ENDBRANCH 27 28
ENDBRANCH 10 27
ENDBRANCH 8 10
ENDBRANCH 5 6
BRANCH 5 30
ATOM     30  CB  THR B 157      32.218 -15.633  -8.071  1.00 18.18 LIG 0.15  C 
ATOM     31  CG2 THR B 157      31.778 -16.030  -6.671  1.00 16.96 LIG 0.04  C 
BRANCH 30 32
ATOM     32 OG1  THR B 157      31.973 -14.236  -8.277  1.00 15.90 LIG-0.39  OA
ATOM     33 HG1  THR B 157      31.874 -14.087  -9.098  1.00 15.90 LIG 0.21  HD
ENDBRANCH 30 32
ENDBRANCH 5 30
ENDBRANCH 3 5
BRANCH 1 34
ATOM     34  CA  SER B 156      36.266 -13.462  -9.610  1.00 16.58 LIG 0.20  C 
BRANCH 34 35
ATOM     35  N   SER B 156      37.475 -14.000 -10.220  1.00 15.80 LIG-0.34  N 
ATOM     36 H    SER B 156      38.190 -13.564 -10.027  1.00 15.80 LIG 0.16  HD
ATOM     37  C   PRO B 155      37.457 -15.074 -11.004  1.00 18.36 LIG 0.24  C 
ATOM     38 O    PRO B 155      36.426 -15.688 -11.285  1.00 18.57 LIG-0.27  OA
BRANCH 37 39
ATOM     39  CA  PRO B 155      38.802 -15.514 -11.567  1.00 19.30 LIG 0.18  C 
ATOM     40  CB  PRO B 155      39.776 -15.924 -10.469  1.00 17.99 LIG 0.04  C 
ATOM     41  CG  PRO B 155      40.370 -14.607 -10.071  1.00 20.29 LIG 0.02  C 
ATOM     42  CD  PRO B 155      40.636 -13.941 -11.415  1.00 20.15 LIG 0.13  C 
ATOM     43  N   PRO B 155      39.509 -14.417 -12.238  1.00 20.34 LIG-0.34  N 
ATOM     44  C   SER B 154      39.183 -13.999 -13.472  1.00 23.17 LIG 0.24  C 
ATOM     45 O    SER B 154      38.269 -14.511 -14.118  1.00 21.43 LIG-0.27  OA
BRANCH 44 46
ATOM     46  CA  SER B 154      39.998 -12.848 -14.056  1.00 26.04 LIG 0.20  C 
BRANCH 46 47
ATOM     47  N   SER B 154      40.064 -11.714 -13.139  1.00 29.08 LIG-0.34  N 
ATOM     48 H    SER B 154      40.863 -11.454 -12.954  1.00 29.08 LIG 0.16  HD
ATOM     49  C   VAL B 153      38.967 -11.149 -12.645  1.00 31.74 LIG 0.26  C 
ATOM     50 O    VAL B 153      37.833 -11.538 -12.916  1.00 31.76 LIG-0.27  OA
BRANCH 49 51
ATOM     51  CA  VAL B 153      39.180  -9.971 -11.700  1.00 34.29 LIG 0.40  C 
ATOM     52  N   VAL B 153      39.031  -8.683 -12.432  1.00 34.52 LIG 0.61  N 
BRANCH 51 53
ATOM     53  CB  VAL B 153      38.160 -10.077 -10.540  1.00 36.17 LIG 0.03  C 
ATOM     54  CG2 VAL B 153      37.924  -8.711  -9.926  1.00 38.03 LIG 0.01  C 
ATOM     55  CG1 VAL B 153      38.666 -11.052  -9.488  1.00 38.39 LIG 0.01  C 
ENDBRANCH 51 53
ENDBRANCH 49 51
ENDBRANCH 46 47
BRANCH 46 56
ATOM     56  CB  SER B 154      41.407 -13.344 -14.392  1.00 27.48 LIG 0.20  C 
BRANCH 56 57
ATOM     57 OG   SER B 154      42.379 -12.691 -13.595  1.00 30.72 LIG-0.40  OA
ATOM     58 HG   SER B 154      42.015 -12.383 -12.904  1.00 30.72 LIG 0.21  HD
ENDBRANCH 56 57
ENDBRANCH 46 56
ENDBRANCH 44 46
ENDBRANCH 37 39
ENDBRANCH 34 35
BRANCH 34 59
ATOM     59  CB  SER B 156      35.248 -13.087 -10.688  1.00 16.81 LIG 0.20  C 
BRANCH 59 60
ATOM     60 OG   SER B 156      34.283 -12.183 -10.168  1.00 16.65 LIG-0.40  OA
ATOM     61 HG   SER B 156      33.588 -12.606  -9.959  1.00 16.65 LIG 0.21  HD
ENDBRANCH 59 60
ENDBRANCH 34 59
ENDBRANCH 1 34
TORSDOF 24
ENDMDL
MODEL 48
USER: ADFR SOLUTION from run 8
USER: SCORE 16.338217 LL:  -3.974 LR: -13.521 RR:   0.000 FEB:  -6.361
USER: RMSD 3.543824
USER: SEED 94578
USER: STATUS no improvement in best in 33 clusters for 5 generations
USER: GENES 26
USER: genes 0 Translation |==|  0.37889 0.64096 0.47703
USER: genes 1 Rotation |==|  0.60682 0.60284 0.42346 0.97133
USER: genes 2 Torsion [C]-N--CA-[C] |==|  0.59407
USER: genes 3 Torsion [N]-CA--C-[N] |==|  0.42313
USER: genes 4 Torsion [C]-N--CA-[C] |==|  0.55972
USER: genes 5 Torsion [N]-CA--C-[N] |==|  0.23554
USER: genes 6 Torsion [C]-N--CA-[CB] |==|  0.46227
USER: genes 7 Torsion [N]-CA--C-[O] |==|  0.96226
USER: genes 8 Torsion [N]-CA--CB-[CG] |==|  0.94366
USER: genes 9 Torsion [CA]-CB--CG-[CD2] |==|  0.78326
USER: genes 10 Torsion [CE2]-CZ--OH-[HH] |==|  0.75138
USER: genes 11 Torsion [N]-CA--CB-[OG] |==|  0.82226
USER: genes 12 Torsion [CA]-CB--OG-[HG] |==|  0.08746
USER: genes 13 Torsion [N]-CA--CB-[CG2] |==|  0.05121
USER: genes 14 Torsion [CA]-CB--OG1-[HG1] |==|  0.14975
USER: genes 15 Torsion [N]-C--CA-[N] |==|  0.50910
USER: genes 16 Torsion [C]-CA--N-[C] |==|  0.76435
USER: genes 17 Torsion [N]-C--CA-[CB] |==|  0.56331
USER: genes 18 Torsion [N]-C--CA-[N] |==|  0.47222
USER: genes 19 Torsion [C]-CA--N-[C] |==|  0.76082
USER: genes 20 Torsion [N]-C--CA-[N] |==|  0.36547
USER: genes 21 Torsion [C]-CA--CB-[CG2] |==|  0.14380
USER: genes 22 Torsion [C]-CA--CB-[OG] |==|  0.55881
USER: genes 23 Torsion [CA]-CB--OG-[HG] |==|  0.43711
USER: genes 24 Torsion [C]-CA--CB-[OG] |==|  0.74114
USER: genes 25 Torsion [CA]-CB--OG-[HG] |==|  0.05264
ROOT
ATOM      1  C   SER B 156      35.605 -13.093 -10.311  1.00 15.87 LIG 0.24  C 
ATOM      2 O    SER B 156      34.616 -12.415 -10.595  1.00 15.60 LIG-0.27  OA
ATOM      3  N   THR B 157      36.828 -12.818 -10.756  1.00 16.26 LIG-0.34  N 
ATOM      4 H    THR B 157      37.533 -13.257 -10.535  1.00 16.26 LIG 0.16  HD
ENDROOT
BRANCH 3 5
ATOM      5  CA  THR B 157      37.062 -11.719 -11.676  1.00 15.91 LIG 0.20  C 
BRANCH 5 6
ATOM      6  C   THR B 157      38.204 -12.217 -12.556  1.00 16.14 LIG 0.24  C 
ATOM      7 O    THR B 157      39.015 -13.038 -12.116  1.00 15.69 LIG-0.27  OA
ATOM      8  N   SER B 158      38.274 -11.729 -13.789  1.00 15.14 LIG-0.34  N 
ATOM      9 H    SER B 158      37.721 -11.157 -14.115  1.00 15.14 LIG 0.16  HD
BRANCH 8 10
ATOM     10  CA  SER B 158      39.329 -12.149 -14.704  1.00 18.36 LIG 0.20  C 
BRANCH 10 11
ATOM     11  C   SER B 158      39.532 -11.120 -15.813  1.00 20.96 LIG 0.24  C 
ATOM     12 O    SER B 158      38.970 -11.249 -16.902  1.00 20.92 LIG-0.27  OA
ATOM     13  N   TYR B 159      40.336 -10.100 -15.528  1.00 23.40 LIG-0.35  N 
ATOM     14 H    TYR B 159      40.735  -9.999 -14.772  1.00 23.40 LIG 0.16  HD
BRANCH 13 15
ATOM     15  CA  TYR B 159      40.609  -9.046 -16.501  1.00 28.83 LIG 0.17  C 
BRANCH 15 16
ATOM     16  C   TYR B 159      41.512  -9.557 -17.618  1.00 30.09 LIG 0.22  C 
ATOM     17 O    TYR B 159      42.086 -10.651 -17.425  1.00 33.46 LIG-0.29  OA
ENDBRANCH 15 16
BRANCH 15 18
ATOM     18  CB  TYR B 159      41.275  -7.851 -15.814  1.00 32.38 LIG 0.07  C 
BRANCH 18 19
ATOM     19  CG  TYR B 159      41.055  -7.813 -14.318  1.00 36.58 LIG-0.06  A 
ATOM     20  CD2 TYR B 159      39.846  -7.370 -13.782  1.00 38.67 LIG 0.01  A 
ATOM     21  CE2 TYR B 159      39.635  -7.344 -12.404  1.00 40.79 LIG 0.04  A 
ATOM     22  CZ  TYR B 159      40.644  -7.762 -11.550  1.00 41.05 LIG 0.07  A 
ATOM     23  CE1 TYR B 159      41.854  -8.204 -12.058  1.00 40.09 LIG 0.04  A 
ATOM     24  CD1 TYR B 159      42.053  -8.229 -13.437  1.00 38.09 LIG 0.01  A 
BRANCH 22 25
ATOM     25 OH   TYR B 159      40.442  -7.738 -10.189  1.00 43.66 LIG-0.36  OA
ATOM     26 HH   TYR B 159      40.677  -6.991  -9.883  1.00 43.66 LIG 0.22  HD
ENDBRANCH 22 25
ENDBRANCH 18 19
ENDBRANCH 15 18
ENDBRANCH 13 15
ENDBRANCH 10 11
BRANCH 10 27
ATOM     27  CB  SER B 158      38.983 -13.504 -15.323  1.00 15.79 LIG 0.20  C 
BRANCH 27 28
ATOM     28 OG   SER B 158      38.930 -14.515 -14.331  1.00 17.90 LIG-0.40  OA
ATOM     29 HG   SER B 158      38.671 -14.181 -13.605  1.00 17.90 LIG 0.21  HD
ENDBRANCH 27 28
ENDBRANCH 10 27
ENDBRANCH 8 10
ENDBRANCH 5 6
BRANCH 5 30
ATOM     30  CB  THR B 157      37.522 -10.437 -10.947  1.00 18.18 LIG 0.15  C 
ATOM     31  CG2 THR B 157      38.039 -10.766  -9.557  1.00 16.96 LIG 0.04  C 
BRANCH 30 32
ATOM     32 OG1  THR B 157      38.555  -9.799 -11.709  1.00 15.90 LIG-0.39  OA
ATOM     33 HG1  THR B 157      38.287  -9.672 -12.495  1.00 15.90 LIG 0.21  HD
ENDBRANCH 30 32
ENDBRANCH 5 30
ENDBRANCH 3 5
BRANCH 1 34
ATOM     34  CA  SER B 156      35.479 -14.307  -9.408  1.00 16.58 LIG 0.20  C 
BRANCH 34 35
ATOM     35  N   SER B 156      34.070 -14.494  -9.088  1.00 15.80 LIG-0.34  N 
ATOM     36 H    SER B 156      33.665 -15.054  -9.600  1.00 15.80 LIG 0.16  HD
ATOM     37  C   PRO B 155      33.477 -13.848  -8.089  1.00 18.36 LIG 0.24  C 
ATOM     38 O    PRO B 155      34.061 -13.038  -7.367  1.00 18.57 LIG-0.27  OA
BRANCH 37 39
ATOM     39  CA  PRO B 155      31.999 -14.151  -7.881  1.00 19.30 LIG 0.18  C 
ATOM     40  CB  PRO B 155      31.282 -13.028  -7.142  1.00 17.99 LIG 0.04  C 
ATOM     41  CG  PRO B 155      31.558 -13.372  -5.709  1.00 20.29 LIG 0.02  C 
ATOM     42  CD  PRO B 155      31.316 -14.875  -5.674  1.00 20.15 LIG 0.13  C 
ATOM     43  N   PRO B 155      31.788 -15.307  -7.002  1.00 20.34 LIG-0.34  N 
ATOM     44  C   SER B 154      31.939 -16.573  -7.428  1.00 23.17 LIG 0.24  C 
ATOM     45 O    SER B 154      32.265 -16.840  -8.585  1.00 21.43 LIG-0.27  OA
BRANCH 44 46
ATOM     46  CA  SER B 154      31.689 -17.684  -6.413  1.00 26.04 LIG 0.20  C 
BRANCH 46 47
ATOM     47  N   SER B 154      31.655 -18.998  -7.049  1.00 29.08 LIG-0.34  N 
ATOM     48 H    SER B 154      32.408 -19.412  -7.047  1.00 29.08 LIG 0.16  HD
ATOM     49  C   VAL B 153      30.539 -19.489  -7.579  1.00 31.74 LIG 0.26  C 
ATOM     50 O    VAL B 153      29.472 -18.879  -7.578  1.00 31.76 LIG-0.27  OA
BRANCH 49 51
ATOM     51  CA  VAL B 153      30.643 -20.874  -8.210  1.00 34.29 LIG 0.40  C 
ATOM     52  N   VAL B 153      29.536 -21.748  -7.731  1.00 34.52 LIG 0.61  N 
BRANCH 51 53
ATOM     53  CB  VAL B 153      30.608 -20.720  -9.749  1.00 36.17 LIG 0.03  C 
ATOM     54  CG2 VAL B 153      31.641 -19.703 -10.195  1.00 38.03 LIG 0.01  C 
ATOM     55  CG1 VAL B 153      29.219 -20.297 -10.200  1.00 38.39 LIG 0.01  C 
ENDBRANCH 51 53
ENDBRANCH 49 51
ENDBRANCH 46 47
BRANCH 46 56
ATOM     56  CB  SER B 154      32.778 -17.642  -5.338  1.00 27.48 LIG 0.20  C 
BRANCH 56 57
ATOM     57 OG   SER B 154      32.888 -18.889  -4.675  1.00 30.72 LIG-0.40  OA
ATOM     58 HG   SER B 154      33.650 -18.958  -4.331  1.00 30.72 LIG 0.21  HD
ENDBRANCH 56 57
ENDBRANCH 46 56
ENDBRANCH 44 46
ENDBRANCH 37 39
ENDBRANCH 34 35
BRANCH 34 59
ATOM     59  CB  SER B 156      36.019 -15.522 -10.164  1.00 16.81 LIG 0.20  C 
BRANCH 59 60
ATOM     60 OG   SER B 156      34.967 -16.196 -10.839  1.00 16.65 LIG-0.40  OA
ATOM     61 HG   SER B 156      34.308 -15.681 -10.918  1.00 16.65 LIG 0.21  HD
ENDBRANCH 59 60
ENDBRANCH 34 59
ENDBRANCH 1 34
TORSDOF 24
ENDMDL
MODEL 49
USER: ADFR SOLUTION from run 153
USER: SCORE 17.283086 LL:  -4.248 LR: -13.487 RR:   0.000 FEB:  -6.328
USER: RMSD 13.628935
USER: SEED 152
USER: STATUS no improvement in best in 19 clusters for 5 generations
USER: GENES 26
USER: genes 0 Translation |==|  0.32886 0.60173 0.58613
USER: genes 1 Rotation |==|  0.41341 0.98880 0.53387 0.54926
USER: genes 2 Torsion [C]-N--CA-[C] |==|  0.78257
USER: genes 3 Torsion [N]-CA--C-[N] |==|  0.42150
USER: genes 4 Torsion [C]-N--CA-[C] |==|  0.73238
USER: genes 5 Torsion [N]-CA--C-[N] |==|  0.05379
USER: genes 6 Torsion [C]-N--CA-[CB] |==|  0.29761
USER: genes 7 Torsion [N]-CA--C-[O] |==|  0.16780
USER: genes 8 Torsion [N]-CA--CB-[CG] |==|  0.10534
USER: genes 9 Torsion [CA]-CB--CG-[CD2] |==|  0.73704
USER: genes 10 Torsion [CE2]-CZ--OH-[HH] |==|  0.98028
USER: genes 11 Torsion [N]-CA--CB-[OG] |==|  0.50441
USER: genes 12 Torsion [CA]-CB--OG-[HG] |==|  0.81219
USER: genes 13 Torsion [N]-CA--CB-[CG2] |==|  0.97247
USER: genes 14 Torsion [CA]-CB--OG1-[HG1] |==|  0.23485
USER: genes 15 Torsion [N]-C--CA-[N] |==|  0.44867
USER: genes 16 Torsion [C]-CA--N-[C] |==|  0.76162
USER: genes 17 Torsion [N]-C--CA-[CB] |==|  0.81877
USER: genes 18 Torsion [N]-C--CA-[N] |==|  0.47563
USER: genes 19 Torsion [C]-CA--N-[C] |==|  0.69322
USER: genes 20 Torsion [N]-C--CA-[N] |==|  0.93706
USER: genes 21 Torsion [C]-CA--CB-[CG2] |==|  0.92660
USER: genes 22 Torsion [C]-CA--CB-[OG] |==|  0.58058
USER: genes 23 Torsion [CA]-CB--OG-[HG] |==|  0.39489
USER: genes 24 Torsion [C]-CA--CB-[OG] |==|  0.32462
USER: genes 25 Torsion [CA]-CB--OG-[HG] |==|  0.93945
ROOT
ATOM      1  C   SER B 156      34.217 -14.005  -8.020  1.00 15.87 LIG 0.24  C 
ATOM      2 O    SER B 156      34.828 -13.760  -6.978  1.00 15.60 LIG-0.27  OA
ATOM      3  N   THR B 157      32.896 -13.906  -8.130  1.00 16.26 LIG-0.34  N 
ATOM      4 H    THR B 157      32.460 -14.035  -8.860  1.00 16.26 LIG 0.16  HD
ENDROOT
BRANCH 3 5
ATOM      5  CA  THR B 157      32.071 -13.562  -6.985  1.00 15.91 LIG 0.20  C 
BRANCH 5 6
ATOM      6  C   THR B 157      31.978 -14.866  -6.198  1.00 16.14 LIG 0.24  C 
ATOM      7 O    THR B 157      32.062 -15.952  -6.781  1.00 15.69 LIG-0.27  OA
ATOM      8  N   SER B 158      31.806 -14.768  -4.886  1.00 15.14 LIG-0.34  N 
ATOM      9 H    SER B 158      31.744 -14.024  -4.460  1.00 15.14 LIG 0.16  HD
BRANCH 8 10
ATOM     10  CA  SER B 158      31.709 -15.960  -4.049  1.00 18.36 LIG 0.20  C 
BRANCH 10 11
ATOM     11  C   SER B 158      30.251 -16.329  -3.791  1.00 20.96 LIG 0.24  C 
ATOM     12 O    SER B 158      29.945 -17.060  -2.847  1.00 20.92 LIG-0.27  OA
ATOM     13  N   TYR B 159      29.358 -15.818  -4.632  1.00 23.40 LIG-0.35  N 
ATOM     14 H    TYR B 159      29.559 -15.308  -5.295  1.00 23.40 LIG 0.16  HD
BRANCH 13 15
ATOM     15  CA  TYR B 159      27.930 -16.092  -4.491  1.00 28.83 LIG 0.17  C 
BRANCH 15 16
ATOM     16  C   TYR B 159      27.323 -16.517  -5.823  1.00 30.09 LIG 0.22  C 
ATOM     17 O    TYR B 159      27.789 -17.549  -6.352  1.00 33.46 LIG-0.29  OA
ENDBRANCH 15 16
BRANCH 15 18
ATOM     18  CB  TYR B 159      27.202 -14.850  -3.972  1.00 32.38 LIG 0.07  C 
BRANCH 18 19
ATOM     19  CG  TYR B 159      27.732 -13.553  -4.543  1.00 36.58 LIG-0.06  A 
ATOM     20  CD2 TYR B 159      28.695 -12.810  -3.861  1.00 38.67 LIG 0.01  A 
ATOM     21  CE2 TYR B 159      29.195 -11.621  -4.389  1.00 40.79 LIG 0.04  A 
ATOM     22  CZ  TYR B 159      28.726 -11.166  -5.611  1.00 41.05 LIG 0.07  A 
ATOM     23  CE1 TYR B 159      27.769 -11.885  -6.308  1.00 40.09 LIG 0.04  A 
ATOM     24  CD1 TYR B 159      27.279 -13.074  -5.771  1.00 38.09 LIG 0.01  A 
BRANCH 22 25
ATOM     25 OH   TYR B 159      29.215  -9.991  -6.138  1.00 43.66 LIG-0.36  OA
ATOM     26 HH   TYR B 159      29.710  -9.615  -5.573  1.00 43.66 LIG 0.22  HD
ENDBRANCH 22 25
ENDBRANCH 18 19
ENDBRANCH 15 18
ENDBRANCH 13 15
ENDBRANCH 10 11
BRANCH 10 27
ATOM     27  CB  SER B 158      32.422 -15.727  -2.716  1.00 15.79 LIG 0.20  C 
BRANCH 27 28
ATOM     28 OG   SER B 158      32.369 -16.887  -1.904  1.00 17.90 LIG-0.40  OA
ATOM     29 HG   SER B 158      31.575 -17.026  -1.665  1.00 17.90 LIG 0.21  HD
ENDBRANCH 27 28
ENDBRANCH 10 27
ENDBRANCH 8 10
ENDBRANCH 5 6
BRANCH 5 30
ATOM     30  CB  THR B 157      30.647 -13.133  -7.401  1.00 18.18 LIG 0.15  C 
ATOM     31  CG2 THR B 157      30.559 -12.951  -8.907  1.00 16.96 LIG 0.04  C 
BRANCH 30 32
ATOM     32 OG1  THR B 157      29.705 -14.128  -6.978  1.00 15.90 LIG-0.39  OA
ATOM     33 HG1  THR B 157      29.489 -13.988  -6.178  1.00 15.90 LIG 0.21  HD
ENDBRANCH 30 32
ENDBRANCH 5 30
ENDBRANCH 3 5
BRANCH 1 34
ATOM     34  CA  SER B 156      34.962 -14.436  -9.271  1.00 16.58 LIG 0.20  C 
BRANCH 34 35
ATOM     35  N   SER B 156      36.364 -14.072  -9.116  1.00 15.80 LIG-0.34  N 
ATOM     36 H    SER B 156      36.859 -14.702  -8.804  1.00 15.80 LIG 0.16  HD
ATOM     37  C   PRO B 155      36.823 -12.866  -9.435  1.00 18.36 LIG 0.24  C 
ATOM     38 O    PRO B 155      36.106 -11.964  -9.872  1.00 18.57 LIG-0.27  OA
BRANCH 37 39
ATOM     39  CA  PRO B 155      38.313 -12.638  -9.217  1.00 19.30 LIG 0.18  C 
ATOM     40  CB  PRO B 155      38.693 -12.701  -7.743  1.00 17.99 LIG 0.04  C 
ATOM     41  CG  PRO B 155      38.410 -11.301  -7.288  1.00 20.29 LIG 0.02  C 
ATOM     42  CD  PRO B 155      38.997 -10.459  -8.414  1.00 20.15 LIG 0.13  C 
ATOM     43  N   PRO B 155      38.731 -11.287  -9.605  1.00 20.34 LIG-0.34  N 
ATOM     44  C   SER B 154      38.913 -10.929 -10.888  1.00 23.17 LIG 0.24  C 
ATOM     45 O    SER B 154      38.738 -11.716 -11.818  1.00 21.43 LIG-0.27  OA
BRANCH 44 46
ATOM     46  CA  SER B 154      39.348  -9.491 -11.156  1.00 26.04 LIG 0.20  C 
BRANCH 46 47
ATOM     47  N   SER B 154      39.707  -9.288 -12.556  1.00 29.08 LIG-0.34  N 
ATOM     48 H    SER B 154      39.042  -9.319 -13.100  1.00 29.08 LIG 0.16  HD
ATOM     49  C   VAL B 153      40.965  -9.075 -12.931  1.00 31.74 LIG 0.26  C 
ATOM     50 O    VAL B 153      41.904  -9.040 -12.139  1.00 31.76 LIG-0.27  OA
BRANCH 49 51
ATOM     51  CA  VAL B 153      41.200  -8.876 -14.425  1.00 34.29 LIG 0.40  C 
ATOM     52  N   VAL B 153      40.091  -9.484 -15.212  1.00 34.52 LIG 0.61  N 
BRANCH 51 53
ATOM     53  CB  VAL B 153      41.320  -7.359 -14.708  1.00 36.17 LIG 0.03  C 
ATOM     54  CG2 VAL B 153      40.560  -6.570 -13.658  1.00 38.03 LIG 0.01  C 
ATOM     55  CG1 VAL B 153      40.787  -7.043 -16.097  1.00 38.39 LIG 0.01  C 
ENDBRANCH 51 53
ENDBRANCH 49 51
ENDBRANCH 46 47
BRANCH 46 56
ATOM     56  CB  SER B 154      38.221  -8.537 -10.752  1.00 27.48 LIG 0.20  C 
BRANCH 56 57
ATOM     57 OG   SER B 154      38.251  -7.354 -11.532  1.00 30.72 LIG-0.40  OA
ATOM     58 HG   SER B 154      37.466  -7.112 -11.704  1.00 30.72 LIG 0.21  HD
ENDBRANCH 56 57
ENDBRANCH 46 56
ENDBRANCH 44 46
ENDBRANCH 37 39
ENDBRANCH 34 35
BRANCH 34 59
ATOM     59  CB  SER B 156      34.818 -15.953  -9.412  1.00 16.81 LIG 0.20  C 
BRANCH 59 60
ATOM     60 OG   SER B 156      34.114 -16.278 -10.601  1.00 16.65 LIG-0.40  OA
ATOM     61 HG   SER B 156      33.657 -15.617 -10.846  1.00 16.65 LIG 0.21  HD
ENDBRANCH 59 60
ENDBRANCH 34 59
ENDBRANCH 1 34
TORSDOF 24
ENDMDL
MODEL 50
USER: ADFR SOLUTION from run 135
USER: SCORE 17.149555 LL:  -4.614 LR: -13.484 RR:   0.000 FEB:  -6.324
USER: RMSD 12.167628
USER: SEED 134
USER: STATUS searching
USER: GENES 26
USER: genes 0 Translation |==|  0.47594 0.59830 0.35337
USER: genes 1 Rotation |==|  0.36386 0.23910 0.12297 0.64577
USER: genes 2 Torsion [C]-N--CA-[C] |==|  0.64907
USER: genes 3 Torsion [N]-CA--C-[N] |==|  0.62487
USER: genes 4 Torsion [C]-N--CA-[C] |==|  0.84984
USER: genes 5 Torsion [N]-CA--C-[N] |==|  0.89343
USER: genes 6 Torsion [C]-N--CA-[CB] |==|  0.26814
USER: genes 7 Torsion [N]-CA--C-[O] |==|  0.27229
USER: genes 8 Torsion [N]-CA--CB-[CG] |==|  0.61804
USER: genes 9 Torsion [CA]-CB--CG-[CD2] |==|  0.49308
USER: genes 10 Torsion [CE2]-CZ--OH-[HH] |==|  0.63528
USER: genes 11 Torsion [N]-CA--CB-[OG] |==|  0.88844
USER: genes 12 Torsion [CA]-CB--OG-[HG] |==|  0.57258
USER: genes 13 Torsion [N]-CA--CB-[CG2] |==|  0.76187
USER: genes 14 Torsion [CA]-CB--OG1-[HG1] |==|  0.48182
USER: genes 15 Torsion [N]-C--CA-[N] |==|  0.09168
USER: genes 16 Torsion [C]-CA--N-[C] |==|  0.16119
USER: genes 17 Torsion [N]-C--CA-[CB] |==|  0.99364
USER: genes 18 Torsion [N]-C--CA-[N] |==|  0.87222
USER: genes 19 Torsion [C]-CA--N-[C] |==|  0.84959
USER: genes 20 Torsion [N]-C--CA-[N] |==|  0.56814
USER: genes 21 Torsion [C]-CA--CB-[CG2] |==|  0.74213
USER: genes 22 Torsion [C]-CA--CB-[OG] |==|  0.50952
USER: genes 23 Torsion [CA]-CB--OG-[HG] |==|  0.14478
USER: genes 24 Torsion [C]-CA--CB-[OG] |==|  0.57639
USER: genes 25 Torsion [CA]-CB--OG-[HG] |==|  0.87707
ROOT
ATOM      1  C   SER B 156      38.298 -14.085 -12.908  1.00 15.87 LIG 0.24  C 
ATOM      2 O    SER B 156      38.880 -14.803 -13.722  1.00 15.60 LIG-0.27  OA
ATOM      3  N   THR B 157      37.859 -14.523 -11.732  1.00 16.26 LIG-0.34  N 
ATOM      4 H    THR B 157      37.488 -14.025 -11.138  1.00 16.26 LIG 0.16  HD
ENDROOT
BRANCH 3 5
ATOM      5  CA  THR B 157      37.983 -15.922 -11.359  1.00 15.91 LIG 0.20  C 
BRANCH 5 6
ATOM      6  C   THR B 157      36.562 -16.324 -10.977  1.00 16.14 LIG 0.24  C 
ATOM      7 O    THR B 157      35.609 -15.991 -11.689  1.00 15.69 LIG-0.27  OA
ATOM      8  N   SER B 158      36.414 -17.034  -9.866  1.00 15.14 LIG-0.34  N 
ATOM      9 H    SER B 158      37.062 -17.276  -9.356  1.00 15.14 LIG 0.16  HD
BRANCH 8 10
ATOM     10  CA  SER B 158      35.093 -17.468  -9.421  1.00 18.36 LIG 0.20  C 
BRANCH 10 11
ATOM     11  C   SER B 158      34.138 -16.283  -9.311  1.00 20.96 LIG 0.24  C 
ATOM     12 O    SER B 158      32.956 -16.395  -9.642  1.00 20.92 LIG-0.27  OA
ATOM     13  N   TYR B 159      34.655 -15.152  -8.844  1.00 23.40 LIG-0.35  N 
ATOM     14 H    TYR B 159      35.478 -15.060  -8.611  1.00 23.40 LIG 0.16  HD
BRANCH 13 15
ATOM     15  CA  TYR B 159      33.845 -13.947  -8.687  1.00 28.83 LIG 0.17  C 
BRANCH 15 16
ATOM     16  C   TYR B 159      34.644 -12.702  -9.055  1.00 30.09 LIG 0.22  C 
ATOM     17 O    TYR B 159      34.476 -12.244 -10.205  1.00 33.46 LIG-0.29  OA
ENDBRANCH 15 16
BRANCH 15 18
ATOM     18  CB  TYR B 159      33.350 -13.827  -7.243  1.00 32.38 LIG 0.07  C 
BRANCH 18 19
ATOM     19  CG  TYR B 159      31.904 -13.397  -7.132  1.00 36.58 LIG-0.06  A 
ATOM     20  CD2 TYR B 159      31.281 -13.290  -5.889  1.00 38.67 LIG 0.01  A 
ATOM     21  CE2 TYR B 159      29.952 -12.883  -5.781  1.00 40.79 LIG 0.04  A 
ATOM     22  CZ  TYR B 159      29.234 -12.582  -6.928  1.00 41.05 LIG 0.07  A 
ATOM     23  CE1 TYR B 159      29.830 -12.683  -8.175  1.00 40.09 LIG 0.04  A 
ATOM     24  CD1 TYR B 159      31.160 -13.088  -8.270  1.00 38.09 LIG 0.01  A 
BRANCH 22 25
ATOM     25 OH   TYR B 159      27.921 -12.181  -6.829  1.00 43.66 LIG-0.36  OA
ATOM     26 HH   TYR B 159      27.451 -12.623  -7.367  1.00 43.66 LIG 0.22  HD
ENDBRANCH 22 25
ENDBRANCH 18 19
ENDBRANCH 15 18
ENDBRANCH 13 15
ENDBRANCH 10 11
BRANCH 10 27
ATOM     27  CB  SER B 158      35.197 -18.168  -8.065  1.00 15.79 LIG 0.20  C 
BRANCH 27 28
ATOM     28 OG   SER B 158      36.344 -18.998  -8.010  1.00 17.90 LIG-0.40  OA
ATOM     29 HG   SER B 158      36.215 -19.618  -7.458  1.00 17.90 LIG 0.21  HD
ENDBRANCH 27 28
ENDBRANCH 10 27
ENDBRANCH 8 10
ENDBRANCH 5 6
BRANCH 5 30
ATOM     30  CB  THR B 157      38.899 -16.118 -10.132  1.00 18.18 LIG 0.15  C 
ATOM     31  CG2 THR B 157      40.355 -16.211 -10.558  1.00 16.96 LIG 0.04  C 
BRANCH 30 32
ATOM     32 OG1  THR B 157      38.729 -15.018  -9.228  1.00 15.90 LIG-0.39  OA
ATOM     33 HG1  THR B 157      39.158 -15.167  -8.521  1.00 15.90 LIG 0.21  HD
ENDBRANCH 30 32
ENDBRANCH 5 30
ENDBRANCH 3 5
BRANCH 1 34
ATOM     34  CA  SER B 156      38.051 -12.617 -13.209  1.00 16.58 LIG 0.20  C 
BRANCH 34 35
ATOM     35  N   SER B 156      38.120 -11.875 -11.957  1.00 15.80 LIG-0.34  N 
ATOM     36 H    SER B 156      37.406 -11.435 -11.769  1.00 15.80 LIG 0.16  HD
ATOM     37  C   PRO B 155      39.201 -11.889 -11.183  1.00 18.36 LIG 0.24  C 
ATOM     38 O    PRO B 155      40.225 -12.514 -11.463  1.00 18.57 LIG-0.27  OA
BRANCH 37 39
ATOM     39  CA  PRO B 155      39.119 -11.064  -9.905  1.00 19.30 LIG 0.18  C 
ATOM     40  CB  PRO B 155      37.795 -10.319  -9.788  1.00 17.99 LIG 0.04  C 
ATOM     41  CG  PRO B 155      38.067  -9.074 -10.578  1.00 20.29 LIG 0.02  C 
ATOM     42  CD  PRO B 155      39.459  -8.675 -10.104  1.00 20.15 LIG 0.13  C 
ATOM     43  N   PRO B 155      40.108  -9.980  -9.880  1.00 20.34 LIG-0.34  N 
ATOM     44  C   SER B 154      41.405 -10.195  -9.602  1.00 23.17 LIG 0.24  C 
ATOM     45 O    SER B 154      41.844 -11.317  -9.351  1.00 21.43 LIG-0.27  OA
BRANCH 44 46
ATOM     46  CA  SER B 154      42.329  -8.980  -9.608  1.00 26.04 LIG 0.20  C 
BRANCH 46 47
ATOM     47  N   SER B 154      42.107  -8.139 -10.780  1.00 29.08 LIG-0.34  N 
ATOM     48 H    SER B 154      41.945  -7.314 -10.599  1.00 29.08 LIG 0.16  HD
ATOM     49  C   VAL B 153      42.156  -8.632 -12.014  1.00 31.74 LIG 0.26  C 
ATOM     50 O    VAL B 153      42.383  -9.815 -12.254  1.00 31.76 LIG-0.27  OA
BRANCH 49 51
ATOM     51  CA  VAL B 153      41.907  -7.642 -13.148  1.00 34.29 LIG 0.40  C 
ATOM     52  N   VAL B 153      41.410  -8.352 -14.359  1.00 34.52 LIG 0.61  N 
BRANCH 51 53
ATOM     53  CB  VAL B 153      40.889  -6.581 -12.663  1.00 36.17 LIG 0.03  C 
ATOM     54  CG2 VAL B 153      39.480  -7.003 -13.035  1.00 38.03 LIG 0.01  C 
ATOM     55  CG1 VAL B 153      41.216  -5.227 -13.271  1.00 38.39 LIG 0.01  C 
ENDBRANCH 51 53
ENDBRANCH 49 51
ENDBRANCH 46 47
BRANCH 46 56
ATOM     56  CB  SER B 154      42.114  -8.173  -8.325  1.00 27.48 LIG 0.20  C 
BRANCH 56 57
ATOM     57 OG   SER B 154      42.899  -6.993  -8.329  1.00 30.72 LIG-0.40  OA
ATOM     58 HG   SER B 154      42.763  -6.568  -9.040  1.00 30.72 LIG 0.21  HD
ENDBRANCH 56 57
ENDBRANCH 46 56
ENDBRANCH 44 46
ENDBRANCH 37 39
ENDBRANCH 34 35
BRANCH 34 59
ATOM     59  CB  SER B 156      39.139 -12.138 -14.172  1.00 16.81 LIG 0.20  C 
BRANCH 59 60
ATOM     60 OG   SER B 156      39.369 -10.746 -14.010  1.00 16.65 LIG-0.40  OA
ATOM     61 HG   SER B 156      38.633 -10.345 -13.955  1.00 16.65 LIG 0.21  HD
ENDBRANCH 59 60
ENDBRANCH 34 59
ENDBRANCH 1 34
TORSDOF 24
ENDMDL
MODEL 51
USER: ADFR SOLUTION from run 8
USER: SCORE 16.078135 LL:  -4.338 LR: -13.478 RR:   0.000 FEB:  -6.319
USER: RMSD 6.374553
USER: SEED 94578
USER: STATUS no improvement in best in 33 clusters for 5 generations
USER: GENES 26
USER: genes 0 Translation |==|  0.36568 0.65207 0.48038
USER: genes 1 Rotation |==|  0.64771 0.61693 0.35841 0.94098
USER: genes 2 Torsion [C]-N--CA-[C] |==|  0.56133
USER: genes 3 Torsion [N]-CA--C-[N] |==|  0.42317
USER: genes 4 Torsion [C]-N--CA-[C] |==|  0.52657
USER: genes 5 Torsion [N]-CA--C-[N] |==|  0.23610
USER: genes 6 Torsion [C]-N--CA-[CB] |==|  0.44268
USER: genes 7 Torsion [N]-CA--C-[O] |==|  0.95591
USER: genes 8 Torsion [N]-CA--CB-[CG] |==|  0.95542
USER: genes 9 Torsion [CA]-CB--CG-[CD2] |==|  0.75305
USER: genes 10 Torsion [CE2]-CZ--OH-[HH] |==|  0.74130
USER: genes 11 Torsion [N]-CA--CB-[OG] |==|  0.74633
USER: genes 12 Torsion [CA]-CB--OG-[HG] |==|  0.11398
USER: genes 13 Torsion [N]-CA--CB-[CG2] |==|  0.10558
USER: genes 14 Torsion [CA]-CB--OG1-[HG1] |==|  0.11976
USER: genes 15 Torsion [N]-C--CA-[N] |==|  0.03682
USER: genes 16 Torsion [C]-CA--N-[C] |==|  0.70287
USER: genes 17 Torsion [N]-C--CA-[CB] |==|  0.77574
USER: genes 18 Torsion [N]-C--CA-[N] |==|  0.13717
USER: genes 19 Torsion [C]-CA--N-[C] |==|  0.57376
USER: genes 20 Torsion [N]-C--CA-[N] |==|  0.27041
USER: genes 21 Torsion [C]-CA--CB-[CG2] |==|  0.09346
USER: genes 22 Torsion [C]-CA--CB-[OG] |==|  0.55237
USER: genes 23 Torsion [CA]-CB--OG-[HG] |==|  0.77154
USER: genes 24 Torsion [C]-CA--CB-[OG] |==|  0.21798
USER: genes 25 Torsion [CA]-CB--OG-[HG] |==|  0.94065
ROOT
ATOM      1  C   SER B 156      35.239 -12.834 -10.241  1.00 15.87 LIG 0.24  C 
ATOM      2 O    SER B 156      34.466 -11.877 -10.315  1.00 15.60 LIG-0.27  OA
ATOM      3  N   THR B 157      36.444 -12.842 -10.801  1.00 16.26 LIG-0.34  N 
ATOM      4 H    THR B 157      37.010 -13.486 -10.725  1.00 16.26 LIG 0.16  HD
ENDROOT
BRANCH 3 5
ATOM      5  CA  THR B 157      36.905 -11.725 -11.608  1.00 15.91 LIG 0.20  C 
BRANCH 5 6
ATOM      6  C   THR B 157      37.999 -12.332 -12.480  1.00 16.14 LIG 0.24  C 
ATOM      7 O    THR B 157      38.640 -13.310 -12.083  1.00 15.69 LIG-0.27  OA
ATOM      8  N   SER B 158      38.215 -11.763 -13.660  1.00 15.14 LIG-0.34  N 
ATOM      9 H    SER B 158      37.782 -11.082 -13.955  1.00 15.14 LIG 0.16  HD
BRANCH 8 10
ATOM     10  CA  SER B 158      39.239 -12.275 -14.565  1.00 18.36 LIG 0.20  C 
BRANCH 10 11
ATOM     11  C   SER B 158      39.457 -11.323 -15.738  1.00 20.96 LIG 0.24  C 
ATOM     12 O    SER B 158      38.869 -11.496 -16.807  1.00 20.92 LIG-0.27  OA
ATOM     13  N   TYR B 159      40.303 -10.320 -15.531  1.00 23.40 LIG-0.35  N 
ATOM     14 H    TYR B 159      40.722 -10.188 -14.790  1.00 23.40 LIG 0.16  HD
BRANCH 13 15
ATOM     15  CA  TYR B 159      40.596  -9.338 -16.572  1.00 28.83 LIG 0.17  C 
BRANCH 15 16
ATOM     16  C   TYR B 159      41.595  -9.894 -17.580  1.00 30.09 LIG 0.22  C 
ATOM     17 O    TYR B 159      42.233 -10.912 -17.239  1.00 33.46 LIG-0.29  OA
ENDBRANCH 15 16
BRANCH 15 18
ATOM     18  CB  TYR B 159      41.159  -8.058 -15.949  1.00 32.38 LIG 0.07  C 
BRANCH 18 19
ATOM     19  CG  TYR B 159      40.924  -7.955 -14.458  1.00 36.58 LIG-0.06  A 
ATOM     20  CD2 TYR B 159      39.762  -7.370 -13.954  1.00 38.67 LIG 0.01  A 
ATOM     21  CE2 TYR B 159      39.536  -7.284 -12.581  1.00 40.79 LIG 0.04  A 
ATOM     22  CZ  TYR B 159      40.481  -7.784 -11.700  1.00 41.05 LIG 0.07  A 
ATOM     23  CE1 TYR B 159      41.644  -8.368 -12.176  1.00 40.09 LIG 0.04  A 
ATOM     24  CD1 TYR B 159      41.858  -8.452 -13.550  1.00 38.09 LIG 0.01  A 
BRANCH 22 25
ATOM     25 OH   TYR B 159      40.265  -7.701 -10.343  1.00 43.66 LIG-0.36  OA
ATOM     26 HH   TYR B 159      40.618  -6.999 -10.045  1.00 43.66 LIG 0.22  HD
ENDBRANCH 22 25
ENDBRANCH 18 19
ENDBRANCH 15 18
ENDBRANCH 13 15
ENDBRANCH 10 11
BRANCH 10 27
ATOM     27  CB  SER B 158      38.835 -13.652 -15.092  1.00 15.79 LIG 0.20  C 
BRANCH 27 28
ATOM     28 OG   SER B 158      39.344 -14.682 -14.263  1.00 17.90 LIG-0.40  OA
ATOM     29 HG   SER B 158      39.262 -14.458 -13.457  1.00 17.90 LIG 0.21  HD
ENDBRANCH 27 28
ENDBRANCH 10 27
ENDBRANCH 8 10
ENDBRANCH 5 6
BRANCH 5 30
ATOM     30  CB  THR B 157      37.524 -10.602 -10.747  1.00 18.18 LIG 0.15  C 
ATOM     31  CG2 THR B 157      38.325 -11.187  -9.597  1.00 16.96 LIG 0.04  C 
BRANCH 30 32
ATOM     32 OG1  THR B 157      38.375  -9.788 -11.565  1.00 15.90 LIG-0.39  OA
ATOM     33 HG1  THR B 157      37.997  -9.637 -12.300  1.00 15.90 LIG 0.21  HD
ENDBRANCH 30 32
ENDBRANCH 5 30
ENDBRANCH 3 5
BRANCH 1 34
ATOM     34  CA  SER B 156      34.847 -14.088  -9.479  1.00 16.58 LIG 0.20  C 
BRANCH 34 35
ATOM     35  N   SER B 156      36.043 -14.897  -9.284  1.00 15.80 LIG-0.34  N 
ATOM     36 H    SER B 156      36.590 -14.582  -8.700  1.00 15.80 LIG 0.16  HD
ATOM     37  C   PRO B 155      36.257 -16.022  -9.960  1.00 18.36 LIG 0.24  C 
ATOM     38 O    PRO B 155      35.475 -16.461 -10.805  1.00 18.57 LIG-0.27  OA
BRANCH 37 39
ATOM     39  CA  PRO B 155      37.554 -16.755  -9.645  1.00 19.30 LIG 0.18  C 
ATOM     40  CB  PRO B 155      38.747 -16.148 -10.372  1.00 17.99 LIG 0.04  C 
ATOM     41  CG  PRO B 155      38.681 -16.832 -11.704  1.00 20.29 LIG 0.02  C 
ATOM     42  CD  PRO B 155      38.402 -18.280 -11.323  1.00 20.15 LIG 0.13  C 
ATOM     43  N   PRO B 155      37.542 -18.139 -10.134  1.00 20.34 LIG-0.34  N 
ATOM     44  C   SER B 154      36.886 -19.123  -9.496  1.00 23.17 LIG 0.24  C 
ATOM     45 O    SER B 154      36.252 -18.923  -8.460  1.00 21.43 LIG-0.27  OA
BRANCH 44 46
ATOM     46  CA  SER B 154      36.954 -20.518 -10.110  1.00 26.04 LIG 0.20  C 
BRANCH 46 47
ATOM     47  N   SER B 154      38.326 -20.902 -10.427  1.00 29.08 LIG-0.34  N 
ATOM     48 H    SER B 154      38.923 -20.518  -9.941  1.00 29.08 LIG 0.16  HD
ATOM     49  C   VAL B 153      38.603 -21.775 -11.390  1.00 31.74 LIG 0.26  C 
ATOM     50 O    VAL B 153      37.737 -22.310 -12.079  1.00 31.76 LIG-0.27  OA
BRANCH 49 51
ATOM     51  CA  VAL B 153      40.079 -22.089 -11.614  1.00 34.29 LIG 0.40  C 
ATOM     52  N   VAL B 153      40.457 -23.344 -10.907  1.00 34.52 LIG 0.61  N 
BRANCH 51 53
ATOM     53  CB  VAL B 153      40.334 -22.205 -13.137  1.00 36.17 LIG 0.03  C 
ATOM     54  CG2 VAL B 153      39.434 -21.245 -13.891  1.00 38.03 LIG 0.01  C 
ATOM     55  CG1 VAL B 153      40.091 -23.634 -13.599  1.00 38.39 LIG 0.01  C 
ENDBRANCH 51 53
ENDBRANCH 49 51
ENDBRANCH 46 47
BRANCH 46 56
ATOM     56  CB  SER B 154      36.328 -21.527  -9.144  1.00 27.48 LIG 0.20  C 
BRANCH 56 57
ATOM     57 OG   SER B 154      36.739 -22.848  -9.451  1.00 30.72 LIG-0.40  OA
ATOM     58 HG   SER B 154      36.266 -23.152 -10.074  1.00 30.72 LIG 0.21  HD
ENDBRANCH 56 57
ENDBRANCH 46 56
ENDBRANCH 44 46
ENDBRANCH 37 39
ENDBRANCH 34 35
BRANCH 34 59
ATOM     59  CB  SER B 156      34.267 -13.664  -8.129  1.00 16.81 LIG 0.20  C 
BRANCH 59 60
ATOM     60 OG   SER B 156      32.926 -13.219  -8.280  1.00 16.65 LIG-0.40  OA
ATOM     61 HG   SER B 156      32.794 -12.995  -9.079  1.00 16.65 LIG 0.21  HD
ENDBRANCH 59 60
ENDBRANCH 34 59
ENDBRANCH 1 34
TORSDOF 24
ENDMDL
MODEL 52
USER: ADFR SOLUTION from run 190
USER: SCORE 16.226601 LL:  -3.912 LR: -13.469 RR:   0.000 FEB:  -6.309
USER: RMSD 12.090633
USER: SEED 189
USER: STATUS no improvement in best in 7 clusters for 5 generations
USER: GENES 26
USER: genes 0 Translation |==|  0.32591 0.61893 0.57315
USER: genes 1 Rotation |==|  0.37019 0.97979 0.52968 0.54550
USER: genes 2 Torsion [C]-N--CA-[C] |==|  0.79355
USER: genes 3 Torsion [N]-CA--C-[N] |==|  0.87222
USER: genes 4 Torsion [C]-N--CA-[C] |==|  0.62247
USER: genes 5 Torsion [N]-CA--C-[N] |==|  0.83546
USER: genes 6 Torsion [C]-N--CA-[CB] |==|  0.47101
USER: genes 7 Torsion [N]-CA--C-[O] |==|  0.72205
USER: genes 8 Torsion [N]-CA--CB-[CG] |==|  0.85251
USER: genes 9 Torsion [CA]-CB--CG-[CD2] |==|  0.29945
USER: genes 10 Torsion [CE2]-CZ--OH-[HH] |==|  0.64651
USER: genes 11 Torsion [N]-CA--CB-[OG] |==|  0.93081
USER: genes 12 Torsion [CA]-CB--OG-[HG] |==|  0.53222
USER: genes 13 Torsion [N]-CA--CB-[CG2] |==|  0.58477
USER: genes 14 Torsion [CA]-CB--OG1-[HG1] |==|  0.05019
USER: genes 15 Torsion [N]-C--CA-[N] |==|  0.44147
USER: genes 16 Torsion [C]-CA--N-[C] |==|  0.72544
USER: genes 17 Torsion [N]-C--CA-[CB] |==|  0.60722
USER: genes 18 Torsion [N]-C--CA-[N] |==|  0.85567
USER: genes 19 Torsion [C]-CA--N-[C] |==|  0.73970
USER: genes 20 Torsion [N]-C--CA-[N] |==|  0.86962
USER: genes 21 Torsion [C]-CA--CB-[CG2] |==|  0.09764
USER: genes 22 Torsion [C]-CA--CB-[OG] |==|  0.58868
USER: genes 23 Torsion [CA]-CB--OG-[HG] |==|  0.63456
USER: genes 24 Torsion [C]-CA--CB-[OG] |==|  0.25685
USER: genes 25 Torsion [CA]-CB--OG-[HG] |==|  0.91307
ROOT
ATOM      1  C   SER B 156      34.135 -13.605  -8.293  1.00 15.87 LIG 0.24  C 
ATOM      2 O    SER B 156      34.687 -13.224  -7.260  1.00 15.60 LIG-0.27  OA
ATOM      3  N   THR B 157      32.818 -13.741  -8.407  1.00 16.26 LIG-0.34  N 
ATOM      4 H    THR B 157      32.415 -13.968  -9.133  1.00 16.26 LIG 0.16  HD
ENDROOT
BRANCH 3 5
ATOM      5  CA  THR B 157      31.938 -13.509  -7.274  1.00 15.91 LIG 0.20  C 
BRANCH 5 6
ATOM      6  C   THR B 157      32.145 -14.737  -6.394  1.00 16.14 LIG 0.24  C 
ATOM      7 O    THR B 157      32.311 -14.609  -5.176  1.00 15.69 LIG-0.27  OA
ATOM      8  N   SER B 158      32.135 -15.920  -6.995  1.00 15.14 LIG-0.34  N 
ATOM      9 H    SER B 158      32.022 -16.032  -7.840  1.00 15.14 LIG 0.16  HD
BRANCH 8 10
ATOM     10  CA  SER B 158      32.321 -17.151  -6.235  1.00 18.36 LIG 0.20  C 
BRANCH 10 11
ATOM     11  C   SER B 158      33.283 -18.095  -6.951  1.00 20.96 LIG 0.24  C 
ATOM     12 O    SER B 158      34.323 -18.469  -6.404  1.00 20.92 LIG-0.27  OA
ATOM     13  N   TYR B 159      32.930 -18.478  -8.174  1.00 23.40 LIG-0.35  N 
ATOM     14 H    TYR B 159      32.208 -18.224  -8.567  1.00 23.40 LIG 0.16  HD
BRANCH 13 15
ATOM     15  CA  TYR B 159      33.762 -19.383  -8.963  1.00 28.83 LIG 0.17  C 
BRANCH 15 16
ATOM     16  C   TYR B 159      35.056 -18.700  -9.390  1.00 30.09 LIG 0.22  C 
ATOM     17 O    TYR B 159      35.102 -18.258 -10.558  1.00 33.46 LIG-0.29  OA
ENDBRANCH 15 16
BRANCH 15 18
ATOM     18  CB  TYR B 159      33.000 -19.854 -10.205  1.00 32.38 LIG 0.07  C 
BRANCH 18 19
ATOM     19  CG  TYR B 159      31.644 -20.448  -9.895  1.00 36.58 LIG-0.06  A 
ATOM     20  CD2 TYR B 159      30.471 -19.759 -10.205  1.00 38.67 LIG 0.01  A 
ATOM     21  CE2 TYR B 159      29.220 -20.309  -9.932  1.00 40.79 LIG 0.04  A 
ATOM     22  CZ  TYR B 159      29.136 -21.559  -9.340  1.00 41.05 LIG 0.07  A 
ATOM     23  CE1 TYR B 159      30.287 -22.263  -9.022  1.00 40.09 LIG 0.04  A 
ATOM     24  CD1 TYR B 159      31.532 -21.705  -9.302  1.00 38.09 LIG 0.01  A 
BRANCH 22 25
ATOM     25 OH   TYR B 159      27.903 -22.107  -9.067  1.00 43.66 LIG-0.36  OA
ATOM     26 HH   TYR B 159      27.871 -22.339  -8.260  1.00 43.66 LIG 0.22  HD
ENDBRANCH 22 25
ENDBRANCH 18 19
ENDBRANCH 15 18
ENDBRANCH 13 15
ENDBRANCH 10 11
BRANCH 10 27
ATOM     27  CB  SER B 158      30.977 -17.852  -6.029  1.00 15.79 LIG 0.20  C 
BRANCH 27 28
ATOM     28 OG   SER B 158      29.908 -16.925  -6.092  1.00 17.90 LIG-0.40  OA
ATOM     29 HG   SER B 158      29.202 -17.292  -5.822  1.00 17.90 LIG 0.21  HD
ENDBRANCH 27 28
ENDBRANCH 10 27
ENDBRANCH 8 10
ENDBRANCH 5 6
BRANCH 5 30
ATOM     30  CB  THR B 157      30.453 -13.445  -7.694  1.00 18.18 LIG 0.15  C 
ATOM     31  CG2 THR B 157      29.675 -12.519  -6.774  1.00 16.96 LIG 0.04  C 
BRANCH 30 32
ATOM     32 OG1  THR B 157      30.358 -12.977  -9.046  1.00 15.90 LIG-0.39  OA
ATOM     33 HG1  THR B 157      31.103 -13.063  -9.425  1.00 15.90 LIG 0.21  HD
ENDBRANCH 30 32
ENDBRANCH 5 30
ENDBRANCH 3 5
BRANCH 1 34
ATOM     34  CA  SER B 156      34.952 -13.942  -9.528  1.00 16.58 LIG 0.20  C 
BRANCH 34 35
ATOM     35  N   SER B 156      36.246 -13.283  -9.413  1.00 15.80 LIG-0.34  N 
ATOM     36 H    SER B 156      36.812 -13.702  -8.920  1.00 15.80 LIG 0.16  HD
ATOM     37  C   PRO B 155      36.514 -12.133 -10.025  1.00 18.36 LIG 0.24  C 
ATOM     38 O    PRO B 155      35.695 -11.532 -10.722  1.00 18.57 LIG-0.27  OA
BRANCH 37 39
ATOM     39  CA  PRO B 155      37.913 -11.570  -9.809  1.00 19.30 LIG 0.18  C 
ATOM     40  CB  PRO B 155      37.904 -10.054  -9.664  1.00 17.99 LIG 0.04  C 
ATOM     41  CG  PRO B 155      37.942  -9.604 -11.093  1.00 20.29 LIG 0.02  C 
ATOM     42  CD  PRO B 155      38.992 -10.522 -11.705  1.00 20.15 LIG 0.13  C 
ATOM     43  N   PRO B 155      38.783 -11.783 -10.970  1.00 20.34 LIG-0.34  N 
ATOM     44  C   SER B 154      39.353 -12.971 -11.236  1.00 23.17 LIG 0.24  C 
ATOM     45 O    SER B 154      39.180 -13.956 -10.518  1.00 21.43 LIG-0.27  OA
BRANCH 44 46
ATOM     46  CA  SER B 154      40.237 -13.058 -12.477  1.00 26.04 LIG 0.20  C 
BRANCH 46 47
ATOM     47  N   SER B 154      39.550 -12.561 -13.665  1.00 29.08 LIG-0.34  N 
ATOM     48 H    SER B 154      39.614 -11.711 -13.781  1.00 29.08 LIG 0.16  HD
ATOM     49  C   VAL B 153      38.887 -13.374 -14.481  1.00 31.74 LIG 0.26  C 
ATOM     50 O    VAL B 153      38.800 -14.585 -14.295  1.00 31.76 LIG-0.27  OA
BRANCH 49 51
ATOM     51  CA  VAL B 153      38.216 -12.722 -15.687  1.00 34.29 LIG 0.40  C 
ATOM     52  N   VAL B 153      37.463 -11.507 -15.269  1.00 34.52 LIG 0.61  N 
BRANCH 51 53
ATOM     53  CB  VAL B 153      39.306 -12.374 -16.729  1.00 36.17 LIG 0.03  C 
ATOM     54  CG2 VAL B 153      40.394 -13.432 -16.719  1.00 38.03 LIG 0.01  C 
ATOM     55  CG1 VAL B 153      39.895 -11.004 -16.432  1.00 38.39 LIG 0.01  C 
ENDBRANCH 51 53
ENDBRANCH 49 51
ENDBRANCH 46 47
BRANCH 46 56
ATOM     56  CB  SER B 154      41.526 -12.267 -12.237  1.00 27.48 LIG 0.20  C 
BRANCH 56 57
ATOM     57 OG   SER B 154      42.007 -11.701 -13.444  1.00 30.72 LIG-0.40  OA
ATOM     58 HG   SER B 154      42.826 -11.868 -13.525  1.00 30.72 LIG 0.21  HD
ENDBRANCH 56 57
ENDBRANCH 46 56
ENDBRANCH 44 46
ENDBRANCH 37 39
ENDBRANCH 34 35
BRANCH 34 59
ATOM     59  CB  SER B 156      35.130 -15.460  -9.582  1.00 16.81 LIG 0.20  C 
BRANCH 59 60
ATOM     60 OG   SER B 156      34.101 -16.055 -10.359  1.00 16.65 LIG-0.40  OA
ATOM     61 HG   SER B 156      33.397 -15.601 -10.287  1.00 16.65 LIG 0.21  HD
ENDBRANCH 59 60
ENDBRANCH 34 59
ENDBRANCH 1 34
TORSDOF 24
ENDMDL
MODEL 53
USER: ADFR SOLUTION from run 106
USER: SCORE 16.623416 LL:  -4.036 LR: -13.464 RR:   0.000 FEB:  -6.304
USER: RMSD 13.145284
USER: SEED 105
USER: STATUS no improvement in best in 12 clusters for 5 generations
USER: GENES 26
USER: genes 0 Translation |==|  0.38705 0.60558 0.54796
USER: genes 1 Rotation |==|  0.32995 0.86934 0.78963 0.52792
USER: genes 2 Torsion [C]-N--CA-[C] |==|  0.75106
USER: genes 3 Torsion [N]-CA--C-[N] |==|  0.36299
USER: genes 4 Torsion [C]-N--CA-[C] |==|  0.83537
USER: genes 5 Torsion [N]-CA--C-[N] |==|  0.87224
USER: genes 6 Torsion [C]-N--CA-[CB] |==|  0.45776
USER: genes 7 Torsion [N]-CA--C-[O] |==|  0.08671
USER: genes 8 Torsion [N]-CA--CB-[CG] |==|  0.48522
USER: genes 9 Torsion [CA]-CB--CG-[CD2] |==|  0.63091
USER: genes 10 Torsion [CE2]-CZ--OH-[HH] |==|  0.87048
USER: genes 11 Torsion [N]-CA--CB-[OG] |==|  0.17773
USER: genes 12 Torsion [CA]-CB--OG-[HG] |==|  0.22291
USER: genes 13 Torsion [N]-CA--CB-[CG2] |==|  0.75861
USER: genes 14 Torsion [CA]-CB--OG1-[HG1] |==|  0.12045
USER: genes 15 Torsion [N]-C--CA-[N] |==|  0.66644
USER: genes 16 Torsion [C]-CA--N-[C] |==|  0.15000
USER: genes 17 Torsion [N]-C--CA-[CB] |==|  0.27851
USER: genes 18 Torsion [N]-C--CA-[N] |==|  0.42141
USER: genes 19 Torsion [C]-CA--N-[C] |==|  0.66077
USER: genes 20 Torsion [N]-C--CA-[N] |==|  0.85674
USER: genes 21 Torsion [C]-CA--CB-[CG2] |==|  0.47103
USER: genes 22 Torsion [C]-CA--CB-[OG] |==|  0.94653
USER: genes 23 Torsion [CA]-CB--OG-[HG] |==|  0.79226
USER: genes 24 Torsion [C]-CA--CB-[OG] |==|  0.16933
USER: genes 25 Torsion [CA]-CB--OG-[HG] |==|  0.70449
ROOT
ATOM      1  C   SER B 156      35.832 -13.915  -8.822  1.00 15.87 LIG 0.24  C 
ATOM      2 O    SER B 156      36.698 -14.300  -8.035  1.00 15.60 LIG-0.27  OA
ATOM      3  N   THR B 157      34.632 -14.480  -8.919  1.00 16.26 LIG-0.34  N 
ATOM      4 H    THR B 157      34.004 -14.198  -9.434  1.00 16.26 LIG 0.16  HD
ENDROOT
BRANCH 3 5
ATOM      5  CA  THR B 157      34.289 -15.653  -8.133  1.00 15.91 LIG 0.20  C 
BRANCH 5 6
ATOM      6  C   THR B 157      34.712 -16.822  -9.017  1.00 16.14 LIG 0.24  C 
ATOM      7 O    THR B 157      34.366 -16.861 -10.202  1.00 15.69 LIG-0.27  OA
ATOM      8  N   SER B 158      35.454 -17.767  -8.455  1.00 15.14 LIG-0.34  N 
ATOM      9 H    SER B 158      35.706 -17.760  -7.633  1.00 15.14 LIG 0.16  HD
BRANCH 8 10
ATOM     10  CA  SER B 158      35.909 -18.922  -9.223  1.00 18.36 LIG 0.20  C 
BRANCH 10 11
ATOM     11  C   SER B 158      34.726 -19.705  -9.785  1.00 20.96 LIG 0.24  C 
ATOM     12 O    SER B 158      34.721 -20.081 -10.958  1.00 20.92 LIG-0.27  OA
ATOM     13  N   TYR B 159      33.728 -19.947  -8.942  1.00 23.40 LIG-0.35  N 
ATOM     14 H    TYR B 159      33.718 -19.689  -8.121  1.00 23.40 LIG 0.16  HD
BRANCH 13 15
ATOM     15  CA  TYR B 159      32.540 -20.690  -9.355  1.00 28.83 LIG 0.17  C 
BRANCH 15 16
ATOM     16  C   TYR B 159      31.647 -19.836 -10.249  1.00 30.09 LIG 0.22  C 
ATOM     17 O    TYR B 159      32.216 -18.990 -10.971  1.00 33.46 LIG-0.29  OA
ENDBRANCH 15 16
BRANCH 15 18
ATOM     18  CB  TYR B 159      31.747 -21.144  -8.127  1.00 32.38 LIG 0.07  C 
BRANCH 18 19
ATOM     19  CG  TYR B 159      30.432 -21.812  -8.467  1.00 36.58 LIG-0.06  A 
ATOM     20  CD2 TYR B 159      29.256 -21.456  -7.808  1.00 38.67 LIG 0.01  A 
ATOM     21  CE2 TYR B 159      28.041 -22.060  -8.126  1.00 40.79 LIG 0.04  A 
ATOM     22  CZ  TYR B 159      27.999 -23.033  -9.113  1.00 41.05 LIG 0.07  A 
ATOM     23  CE1 TYR B 159      29.155 -23.405  -9.781  1.00 40.09 LIG 0.04  A 
ATOM     24  CD1 TYR B 159      30.363 -22.792  -9.456  1.00 38.09 LIG 0.01  A 
BRANCH 22 25
ATOM     25 OH   TYR B 159      26.802 -23.635  -9.431  1.00 43.66 LIG-0.36  OA
ATOM     26 HH   TYR B 159      26.405 -23.859  -8.726  1.00 43.66 LIG 0.22  HD
ENDBRANCH 22 25
ENDBRANCH 18 19
ENDBRANCH 15 18
ENDBRANCH 13 15
ENDBRANCH 10 11
BRANCH 10 27
ATOM     27  CB  SER B 158      36.757 -19.840  -8.341  1.00 15.79 LIG 0.20  C 
BRANCH 27 28
ATOM     28 OG   SER B 158      35.985 -20.380  -7.282  1.00 17.90 LIG-0.40  OA
ATOM     29 HG   SER B 158      35.533 -21.028  -7.567  1.00 17.90 LIG 0.21  HD
ENDBRANCH 27 28
ENDBRANCH 10 27
ENDBRANCH 8 10
ENDBRANCH 5 6
BRANCH 5 30
ATOM     30  CB  THR B 157      32.771 -15.755  -7.871  1.00 18.18 LIG 0.15  C 
ATOM     31  CG2 THR B 157      32.386 -14.971  -6.627  1.00 16.96 LIG 0.04  C 
BRANCH 30 32
ATOM     32 OG1  THR B 157      32.055 -15.245  -9.004  1.00 15.90 LIG-0.39  OA
ATOM     33 HG1  THR B 157      32.410 -15.530  -9.711  1.00 15.90 LIG 0.21  HD
ENDBRANCH 30 32
ENDBRANCH 5 30
ENDBRANCH 3 5
BRANCH 1 34
ATOM     34  CA  SER B 156      36.092 -12.737  -9.744  1.00 16.58 LIG 0.20  C 
BRANCH 34 35
ATOM     35  N   SER B 156      37.229 -13.066 -10.595  1.00 15.80 LIG-0.34  N 
ATOM     36 H    SER B 156      37.862 -12.484 -10.576  1.00 15.80 LIG 0.16  HD
ATOM     37  C   PRO B 155      37.268 -14.173 -11.331  1.00 18.36 LIG 0.24  C 
ATOM     38 O    PRO B 155      36.352 -14.996 -11.361  1.00 18.57 LIG-0.27  OA
BRANCH 37 39
ATOM     39  CA  PRO B 155      38.525 -14.375 -12.167  1.00 19.30 LIG 0.18  C 
ATOM     40  CB  PRO B 155      39.498 -15.349 -11.514  1.00 17.99 LIG 0.04  C 
ATOM     41  CG  PRO B 155      40.258 -14.452 -10.584  1.00 20.29 LIG 0.02  C 
ATOM     42  CD  PRO B 155      40.532 -13.229 -11.449  1.00 20.15 LIG 0.13  C 
ATOM     43  N   PRO B 155      39.318 -13.147 -12.283  1.00 20.34 LIG-0.34  N 
ATOM     44  C   SER B 154      38.982 -12.147 -13.115  1.00 23.17 LIG 0.24  C 
ATOM     45 O    SER B 154      37.984 -12.201 -13.834  1.00 21.43 LIG-0.27  OA
BRANCH 44 46
ATOM     46  CA  SER B 154      39.894 -10.923 -13.139  1.00 26.04 LIG 0.20  C 
BRANCH 46 47
ATOM     47  N   SER B 154      39.865 -10.254 -14.436  1.00 29.08 LIG-0.34  N 
ATOM     48 H    SER B 154      39.082  -9.996 -14.684  1.00 29.08 LIG 0.16  HD
ATOM     49  C   VAL B 153      40.968 -10.071 -15.154  1.00 31.74 LIG 0.26  C 
ATOM     50 O    VAL B 153      42.077 -10.452 -14.786  1.00 31.76 LIG-0.27  OA
BRANCH 49 51
ATOM     51  CA  VAL B 153      40.796  -9.354 -16.489  1.00 34.29 LIG 0.40  C 
ATOM     52  N   VAL B 153      39.722 -10.003 -17.292  1.00 34.52 LIG 0.61  N 
BRANCH 51 53
ATOM     53  CB  VAL B 153      40.467  -7.867 -16.213  1.00 36.17 LIG 0.03  C 
ATOM     54  CG2 VAL B 153      40.540  -7.069 -17.500  1.00 38.03 LIG 0.01  C 
ATOM     55  CG1 VAL B 153      41.432  -7.302 -15.182  1.00 38.39 LIG 0.01  C 
ENDBRANCH 51 53
ENDBRANCH 49 51
ENDBRANCH 46 47
BRANCH 46 56
ATOM     56  CB  SER B 154      39.471  -9.955 -12.031  1.00 27.48 LIG 0.20  C 
BRANCH 56 57
ATOM     57 OG   SER B 154      38.146 -10.221 -11.602  1.00 30.72 LIG-0.40  OA
ATOM     58 HG   SER B 154      37.604  -9.944 -12.180  1.00 30.72 LIG 0.21  HD
ENDBRANCH 56 57
ENDBRANCH 46 56
ENDBRANCH 44 46
ENDBRANCH 37 39
ENDBRANCH 34 35
BRANCH 34 59
ATOM     59  CB  SER B 156      34.841 -12.510 -10.593  1.00 16.81 LIG 0.20  C 
BRANCH 59 60
ATOM     60 OG   SER B 156      33.727 -12.207  -9.766  1.00 16.65 LIG-0.40  OA
ATOM     61 HG   SER B 156      33.211 -12.869  -9.737  1.00 16.65 LIG 0.21  HD
ENDBRANCH 59 60
ENDBRANCH 34 59
ENDBRANCH 1 34
TORSDOF 24
ENDMDL
MODEL 54
USER: ADFR SOLUTION from run 106
USER: SCORE 16.019525 LL:  -3.829 LR: -13.453 RR:   0.000 FEB:  -6.294
USER: RMSD 12.941468
USER: SEED 105
USER: STATUS no improvement in best in 12 clusters for 5 generations
USER: GENES 26
USER: genes 0 Translation |==|  0.39180 0.60406 0.54112
USER: genes 1 Rotation |==|  0.35366 0.86392 0.80856 0.53066
USER: genes 2 Torsion [C]-N--CA-[C] |==|  0.69819
USER: genes 3 Torsion [N]-CA--C-[N] |==|  0.46360
USER: genes 4 Torsion [C]-N--CA-[C] |==|  0.69910
USER: genes 5 Torsion [N]-CA--C-[N] |==|  0.86828
USER: genes 6 Torsion [C]-N--CA-[CB] |==|  0.37790
USER: genes 7 Torsion [N]-CA--C-[O] |==|  0.38012
USER: genes 8 Torsion [N]-CA--CB-[CG] |==|  0.85290
USER: genes 9 Torsion [CA]-CB--CG-[CD2] |==|  0.85128
USER: genes 10 Torsion [CE2]-CZ--OH-[HH] |==|  0.00641
USER: genes 11 Torsion [N]-CA--CB-[OG] |==|  0.26772
USER: genes 12 Torsion [CA]-CB--OG-[HG] |==|  0.26913
USER: genes 13 Torsion [N]-CA--CB-[CG2] |==|  0.77550
USER: genes 14 Torsion [CA]-CB--OG1-[HG1] |==|  0.07726
USER: genes 15 Torsion [N]-C--CA-[N] |==|  0.65127
USER: genes 16 Torsion [C]-CA--N-[C] |==|  0.13466
USER: genes 17 Torsion [N]-C--CA-[CB] |==|  0.28391
USER: genes 18 Torsion [N]-C--CA-[N] |==|  0.41790
USER: genes 19 Torsion [C]-CA--N-[C] |==|  0.65344
USER: genes 20 Torsion [N]-C--CA-[N] |==|  0.86351
USER: genes 21 Torsion [C]-CA--CB-[CG2] |==|  0.44455
USER: genes 22 Torsion [C]-CA--CB-[OG] |==|  0.94371
USER: genes 23 Torsion [CA]-CB--OG-[HG] |==|  0.83045
USER: genes 24 Torsion [C]-CA--CB-[OG] |==|  0.18316
USER: genes 25 Torsion [CA]-CB--OG-[HG] |==|  0.68456
ROOT
ATOM      1  C   SER B 156      35.963 -13.951  -8.966  1.00 15.87 LIG 0.24  C 
ATOM      2 O    SER B 156      36.854 -14.450  -8.275  1.00 15.60 LIG-0.27  OA
ATOM      3  N   THR B 157      34.725 -14.431  -9.016  1.00 16.26 LIG-0.34  N 
ATOM      4 H    THR B 157      34.083 -14.070  -9.461  1.00 16.26 LIG 0.16  HD
ENDROOT
BRANCH 3 5
ATOM      5  CA  THR B 157      34.359 -15.639  -8.297  1.00 15.91 LIG 0.20  C 
BRANCH 5 6
ATOM      6  C   THR B 157      34.168 -16.676  -9.399  1.00 16.14 LIG 0.24  C 
ATOM      7 O    THR B 157      34.095 -16.322 -10.580  1.00 15.69 LIG-0.27  OA
ATOM      8  N   SER B 158      34.087 -17.947  -9.025  1.00 15.14 LIG-0.34  N 
ATOM      9 H    SER B 158      34.135 -18.215  -8.210  1.00 15.14 LIG 0.16  HD
BRANCH 8 10
ATOM     10  CA  SER B 158      33.908 -19.010 -10.008  1.00 18.36 LIG 0.20  C 
BRANCH 10 11
ATOM     11  C   SER B 158      32.500 -19.593  -9.932  1.00 20.96 LIG 0.24  C 
ATOM     12 O    SER B 158      31.833 -19.765 -10.954  1.00 20.92 LIG-0.27  OA
ATOM     13  N   TYR B 159      32.055 -19.897  -8.717  1.00 23.40 LIG-0.35  N 
ATOM     14 H    TYR B 159      32.510 -19.781  -7.996  1.00 23.40 LIG 0.16  HD
BRANCH 13 15
ATOM     15  CA  TYR B 159      30.727 -20.466  -8.508  1.00 28.83 LIG 0.17  C 
BRANCH 15 16
ATOM     16  C   TYR B 159      29.755 -19.408  -7.998  1.00 30.09 LIG 0.22  C 
ATOM     17 O    TYR B 159      28.614 -19.398  -8.508  1.00 33.46 LIG-0.29  OA
ENDBRANCH 15 16
BRANCH 15 18
ATOM     18  CB  TYR B 159      30.797 -21.620  -7.505  1.00 32.38 LIG 0.07  C 
BRANCH 18 19
ATOM     19  CG  TYR B 159      31.822 -22.673  -7.862  1.00 36.58 LIG-0.06  A 
ATOM     20  CD2 TYR B 159      31.817 -23.282  -9.117  1.00 38.67 LIG 0.01  A 
ATOM     21  CE2 TYR B 159      32.768 -24.245  -9.454  1.00 40.79 LIG 0.04  A 
ATOM     22  CZ  TYR B 159      33.733 -24.606  -8.528  1.00 41.05 LIG 0.07  A 
ATOM     23  CE1 TYR B 159      33.758 -24.017  -7.274  1.00 40.09 LIG 0.04  A 
ATOM     24  CD1 TYR B 159      32.805 -23.054  -6.949  1.00 38.09 LIG 0.01  A 
BRANCH 22 25
ATOM     25 OH   TYR B 159      34.674 -25.557  -8.854  1.00 43.66 LIG-0.36  OA
ATOM     26 HH   TYR B 159      34.559 -25.803  -9.649  1.00 43.66 LIG 0.22  HD
ENDBRANCH 22 25
ENDBRANCH 18 19
ENDBRANCH 15 18
ENDBRANCH 13 15
ENDBRANCH 10 11
BRANCH 10 27
ATOM     27  CB  SER B 158      34.934 -20.120  -9.778  1.00 15.79 LIG 0.20  C 
BRANCH 27 28
ATOM     28 OG   SER B 158      34.380 -21.170  -9.005  1.00 17.90 LIG-0.40  OA
ATOM     29 HG   SER B 158      34.113 -21.782  -9.515  1.00 17.90 LIG 0.21  HD
ENDBRANCH 27 28
ENDBRANCH 10 27
ENDBRANCH 8 10
ENDBRANCH 5 6
BRANCH 5 30
ATOM     30  CB  THR B 157      33.027 -15.479  -7.532  1.00 18.18 LIG 0.15  C 
ATOM     31  CG2 THR B 157      33.246 -14.753  -6.215  1.00 16.96 LIG 0.04  C 
BRANCH 30 32
ATOM     32 OG1  THR B 157      32.096 -14.746  -8.340  1.00 15.90 LIG-0.39  OA
ATOM     33 HG1  THR B 157      32.272 -14.869  -9.152  1.00 15.90 LIG 0.21  HD
ENDBRANCH 30 32
ENDBRANCH 5 30
ENDBRANCH 3 5
BRANCH 1 34
ATOM     34  CA  SER B 156      36.239 -12.721  -9.813  1.00 16.58 LIG 0.20  C 
BRANCH 34 35
ATOM     35  N   SER B 156      37.376 -13.008 -10.678  1.00 15.80 LIG-0.34  N 
ATOM     36 H    SER B 156      37.981 -12.397 -10.678  1.00 15.80 LIG 0.16  HD
ATOM     37  C   PRO B 155      37.456 -14.123 -11.399  1.00 18.36 LIG 0.24  C 
ATOM     38 O    PRO B 155      36.581 -14.989 -11.403  1.00 18.57 LIG-0.27  OA
BRANCH 37 39
ATOM     39  CA  PRO B 155      38.708 -14.278 -12.253  1.00 19.30 LIG 0.18  C 
ATOM     40  CB  PRO B 155      39.716 -15.231 -11.625  1.00 17.99 LIG 0.04  C 
ATOM     41  CG  PRO B 155      40.462 -14.326 -10.692  1.00 20.29 LIG 0.02  C 
ATOM     42  CD  PRO B 155      40.691 -13.084 -11.543  1.00 20.15 LIG 0.13  C 
ATOM     43  N   PRO B 155      39.465 -13.026 -12.361  1.00 20.34 LIG-0.34  N 
ATOM     44  C   SER B 154      39.090 -12.025 -13.176  1.00 23.17 LIG 0.24  C 
ATOM     45 O    SER B 154      38.085 -12.098 -13.883  1.00 21.43 LIG-0.27  OA
BRANCH 44 46
ATOM     46  CA  SER B 154      39.966 -10.775 -13.194  1.00 26.04 LIG 0.20  C 
BRANCH 46 47
ATOM     47  N   SER B 154      39.924 -10.106 -14.491  1.00 29.08 LIG-0.34  N 
ATOM     48 H    SER B 154      39.133  -9.903 -14.760  1.00 29.08 LIG 0.16  HD
ATOM     49  C   VAL B 153      41.032  -9.845 -15.179  1.00 31.74 LIG 0.26  C 
ATOM     50 O    VAL B 153      42.154 -10.148 -14.781  1.00 31.76 LIG-0.27  OA
BRANCH 49 51
ATOM     51  CA  VAL B 153      40.845  -9.139 -16.518  1.00 34.29 LIG 0.40  C 
ATOM     52  N   VAL B 153      39.799  -9.824 -17.326  1.00 34.52 LIG 0.61  N 
BRANCH 51 53
ATOM     53  CB  VAL B 153      40.466  -7.662 -16.249  1.00 36.17 LIG 0.03  C 
ATOM     54  CG2 VAL B 153      40.747  -6.819 -17.478  1.00 38.03 LIG 0.01  C 
ATOM     55  CG1 VAL B 153      41.244  -7.133 -15.054  1.00 38.39 LIG 0.01  C 
ENDBRANCH 51 53
ENDBRANCH 49 51
ENDBRANCH 46 47
BRANCH 46 56
ATOM     56  CB  SER B 154      39.509  -9.821 -12.088  1.00 27.48 LIG 0.20  C 
BRANCH 56 57
ATOM     57 OG   SER B 154      38.182 -10.110 -11.683  1.00 30.72 LIG-0.40  OA
ATOM     58 HG   SER B 154      37.662 -10.014 -12.336  1.00 30.72 LIG 0.21  HD
ENDBRANCH 56 57
ENDBRANCH 46 56
ENDBRANCH 44 46
ENDBRANCH 37 39
ENDBRANCH 34 35
BRANCH 34 59
ATOM     59  CB  SER B 156      34.993 -12.431 -10.652  1.00 16.81 LIG 0.20  C 
BRANCH 59 60
ATOM     60 OG   SER B 156      33.907 -12.056  -9.817  1.00 16.65 LIG-0.40  OA
ATOM     61 HG   SER B 156      33.310 -12.645  -9.853  1.00 16.65 LIG 0.21  HD
ENDBRANCH 59 60
ENDBRANCH 34 59
ENDBRANCH 1 34
TORSDOF 24
ENDMDL
MODEL 55
USER: ADFR SOLUTION from run 39
USER: SCORE 17.717426 LL:  -4.887 LR: -13.442 RR:   0.000 FEB:  -6.283
USER: RMSD 6.043210
USER: SEED 38
USER: STATUS no improvement in best in 13 clusters for 5 generations
USER: GENES 26
USER: genes 0 Translation |==|  0.47151 0.67335 0.39052
USER: genes 1 Rotation |==|  0.17717 0.34783 0.80289 0.67573
USER: genes 2 Torsion [C]-N--CA-[C] |==|  0.71140
USER: genes 3 Torsion [N]-CA--C-[N] |==|  0.91590
USER: genes 4 Torsion [C]-N--CA-[C] |==|  0.81897
USER: genes 5 Torsion [N]-CA--C-[N] |==|  0.93934
USER: genes 6 Torsion [C]-N--CA-[CB] |==|  0.20842
USER: genes 7 Torsion [N]-CA--C-[O] |==|  0.95638
USER: genes 8 Torsion [N]-CA--CB-[CG] |==|  0.66142
USER: genes 9 Torsion [CA]-CB--CG-[CD2] |==|  0.09601
USER: genes 10 Torsion [CE2]-CZ--OH-[HH] |==|  0.36352
USER: genes 11 Torsion [N]-CA--CB-[OG] |==|  0.15523
USER: genes 12 Torsion [CA]-CB--OG-[HG] |==|  0.87787
USER: genes 13 Torsion [N]-CA--CB-[CG2] |==|  0.68453
USER: genes 14 Torsion [CA]-CB--OG1-[HG1] |==|  0.22166
USER: genes 15 Torsion [N]-C--CA-[N] |==|  0.45060
USER: genes 16 Torsion [C]-CA--N-[C] |==|  0.55956
USER: genes 17 Torsion [N]-C--CA-[CB] |==|  0.82854
USER: genes 18 Torsion [N]-C--CA-[N] |==|  0.48333
USER: genes 19 Torsion [C]-CA--N-[C] |==|  0.55358
USER: genes 20 Torsion [N]-C--CA-[N] |==|  0.79649
USER: genes 21 Torsion [C]-CA--CB-[CG2] |==|  0.49975
USER: genes 22 Torsion [C]-CA--CB-[OG] |==|  0.87450
USER: genes 23 Torsion [CA]-CB--OG-[HG] |==|  0.19308
USER: genes 24 Torsion [C]-CA--CB-[OG] |==|  0.10422
USER: genes 25 Torsion [CA]-CB--OG-[HG] |==|  0.11378
ROOT
ATOM      1  C   SER B 156      38.175 -12.340 -12.128  1.00 15.87 LIG 0.24  C 
ATOM      2 O    SER B 156      38.966 -13.189 -11.713  1.00 15.60 LIG-0.27  OA
ATOM      3  N   THR B 157      38.355 -11.669 -13.262  1.00 16.26 LIG-0.34  N 
ATOM      4 H    THR B 157      37.793 -11.103 -13.584  1.00 16.26 LIG 0.16  HD
ENDROOT
BRANCH 3 5
ATOM      5  CA  THR B 157      39.554 -11.853 -14.061  1.00 15.91 LIG 0.20  C 
BRANCH 5 6
ATOM      6  C   THR B 157      40.382 -10.606 -13.770  1.00 16.14 LIG 0.24  C 
ATOM      7 O    THR B 157      41.615 -10.656 -13.806  1.00 15.69 LIG-0.27  OA
ATOM      8  N   SER B 158      39.717  -9.493 -13.485  1.00 15.14 LIG-0.34  N 
ATOM      9 H    SER B 158      38.860  -9.436 -13.454  1.00 15.14 LIG 0.16  HD
BRANCH 8 10
ATOM     10  CA  SER B 158      40.423  -8.249 -13.196  1.00 18.36 LIG 0.20  C 
BRANCH 10 11
ATOM     11  C   SER B 158      41.236  -8.368 -11.911  1.00 20.96 LIG 0.24  C 
ATOM     12 O    SER B 158      42.189  -7.616 -11.696  1.00 20.92 LIG-0.27  OA
ATOM     13  N   TYR B 159      40.854  -9.313 -11.059  1.00 23.40 LIG-0.35  N 
ATOM     14 H    TYR B 159      40.192  -9.846 -11.197  1.00 23.40 LIG 0.16  HD
BRANCH 13 15
ATOM     15  CA  TYR B 159      41.546  -9.527  -9.791  1.00 28.83 LIG 0.17  C 
BRANCH 15 16
ATOM     16  C   TYR B 159      41.193 -10.887  -9.200  1.00 30.09 LIG 0.22  C 
ATOM     17 O    TYR B 159      40.189 -11.464  -9.672  1.00 33.46 LIG-0.29  OA
ENDBRANCH 15 16
BRANCH 15 18
ATOM     18  CB  TYR B 159      41.177  -8.426  -8.794  1.00 32.38 LIG 0.07  C 
BRANCH 18 19
ATOM     19  CG  TYR B 159      42.369  -7.648  -8.281  1.00 36.58 LIG-0.06  A 
ATOM     20  CD2 TYR B 159      43.465  -7.391  -9.103  1.00 38.67 LIG 0.01  A 
ATOM     21  CE2 TYR B 159      44.560  -6.664  -8.638  1.00 40.79 LIG 0.04  A 
ATOM     22  CZ  TYR B 159      44.562  -6.191  -7.335  1.00 41.05 LIG 0.07  A 
ATOM     23  CE1 TYR B 159      43.486  -6.436  -6.498  1.00 40.09 LIG 0.04  A 
ATOM     24  CD1 TYR B 159      42.396  -7.160  -6.975  1.00 38.09 LIG 0.01  A 
BRANCH 22 25
ATOM     25 OH   TYR B 159      45.641  -5.474  -6.869  1.00 43.66 LIG-0.36  OA
ATOM     26 HH   TYR B 159      45.371  -4.771  -6.497  1.00 43.66 LIG 0.22  HD
ENDBRANCH 22 25
ENDBRANCH 18 19
ENDBRANCH 15 18
ENDBRANCH 13 15
ENDBRANCH 10 11
BRANCH 10 27
ATOM     27  CB  SER B 158      39.426  -7.096 -13.066  1.00 15.79 LIG 0.20  C 
BRANCH 27 28
ATOM     28 OG   SER B 158      38.447  -7.381 -12.083  1.00 17.90 LIG-0.40  OA
ATOM     29 HG   SER B 158      38.182  -8.173 -12.173  1.00 17.90 LIG 0.21  HD
ENDBRANCH 27 28
ENDBRANCH 10 27
ENDBRANCH 8 10
ENDBRANCH 5 6
BRANCH 5 30
ATOM     30  CB  THR B 157      39.244 -11.900 -15.573  1.00 18.18 LIG 0.15  C 
ATOM     31  CG2 THR B 157      39.537 -13.278 -16.140  1.00 16.96 LIG 0.04  C 
BRANCH 30 32
ATOM     32 OG1  THR B 157      37.865 -11.571 -15.789  1.00 15.90 LIG-0.39  OA
ATOM     33 HG1  THR B 157      37.767 -10.737 -15.755  1.00 15.90 LIG 0.21  HD
ENDBRANCH 30 32
ENDBRANCH 5 30
ENDBRANCH 3 5
BRANCH 1 34
ATOM     34  CA  SER B 156      36.915 -12.010 -11.349  1.00 16.58 LIG 0.20  C 
BRANCH 34 35
ATOM     35  N   SER B 156      36.665 -13.092 -10.405  1.00 15.80 LIG-0.34  N 
ATOM     36 H    SER B 156      37.359 -13.563 -10.219  1.00 15.80 LIG 0.16  HD
ATOM     37  C   PRO B 155      35.461 -13.317  -9.887  1.00 18.36 LIG 0.24  C 
ATOM     38 O    PRO B 155      34.468 -12.644 -10.167  1.00 18.57 LIG-0.27  OA
BRANCH 37 39
ATOM     39  CA  PRO B 155      35.360 -14.486  -8.915  1.00 19.30 LIG 0.18  C 
ATOM     40  CB  PRO B 155      35.710 -15.813  -9.576  1.00 17.99 LIG 0.04  C 
ATOM     41  CG  PRO B 155      34.401 -16.209 -10.191  1.00 20.29 LIG 0.02  C 
ATOM     42  CD  PRO B 155      33.404 -15.902  -9.082  1.00 20.15 LIG 0.13  C 
ATOM     43  N   PRO B 155      33.986 -14.704  -8.450  1.00 20.34 LIG-0.34  N 
ATOM     44  C   SER B 154      33.413 -13.934  -7.509  1.00 23.17 LIG 0.24  C 
ATOM     45 O    SER B 154      34.008 -12.995  -6.979  1.00 21.43 LIG-0.27  OA
BRANCH 44 46
ATOM     46  CA  SER B 154      31.977 -14.267  -7.115  1.00 26.04 LIG 0.20  C 
BRANCH 46 47
ATOM     47  N   SER B 154      31.522 -13.452  -5.993  1.00 29.08 LIG-0.34  N 
ATOM     48 H    SER B 154      31.982 -12.737  -5.865  1.00 29.08 LIG 0.16  HD
ATOM     49  C   VAL B 153      30.481 -13.808  -5.247  1.00 31.74 LIG 0.26  C 
ATOM     50 O    VAL B 153      29.839 -14.837  -5.441  1.00 31.76 LIG-0.27  OA
BRANCH 49 51
ATOM     51  CA  VAL B 153      30.111 -12.863  -4.107  1.00 34.29 LIG 0.40  C 
ATOM     52  N   VAL B 153      31.105 -12.967  -3.002  1.00 34.52 LIG 0.61  N 
BRANCH 51 53
ATOM     53  CB  VAL B 153      30.043 -11.421  -4.664  1.00 36.17 LIG 0.03  C 
ATOM     54  CG2 VAL B 153      29.675 -10.451  -3.558  1.00 38.03 LIG 0.01  C 
ATOM     55  CG1 VAL B 153      29.029 -11.346  -5.795  1.00 38.39 LIG 0.01  C 
ENDBRANCH 51 53
ENDBRANCH 49 51
ENDBRANCH 46 47
BRANCH 46 56
ATOM     56  CB  SER B 154      31.060 -14.066  -8.325  1.00 27.48 LIG 0.20  C 
BRANCH 56 57
ATOM     57 OG   SER B 154      31.352 -12.847  -8.987  1.00 30.72 LIG-0.40  OA
ATOM     58 HG   SER B 154      32.100 -12.905  -9.363  1.00 30.72 LIG 0.21  HD
ENDBRANCH 56 57
ENDBRANCH 46 56
ENDBRANCH 44 46
ENDBRANCH 37 39
ENDBRANCH 34 35
BRANCH 34 59
ATOM     59  CB  SER B 156      37.146 -10.696 -10.601  1.00 16.81 LIG 0.20  C 
BRANCH 59 60
ATOM     60 OG   SER B 156      37.909  -9.799 -11.395  1.00 16.65 LIG-0.40  OA
ATOM     61 HG   SER B 156      37.647  -9.837 -12.192  1.00 16.65 LIG 0.21  HD
ENDBRANCH 59 60
ENDBRANCH 34 59
ENDBRANCH 1 34
TORSDOF 24
ENDMDL
MODEL 56
USER: ADFR SOLUTION from run 56
USER: SCORE 16.570027 LL:  -3.770 LR: -13.441 RR:   0.000 FEB:  -6.282
USER: RMSD 10.824413
USER: SEED 55
USER: STATUS no improvement in best in 8 clusters for 5 generations
USER: GENES 26
USER: genes 0 Translation |==|  0.35134 0.63590 0.55374
USER: genes 1 Rotation |==|  0.39341 0.94652 0.68847 0.56116
USER: genes 2 Torsion [C]-N--CA-[C] |==|  0.81138
USER: genes 3 Torsion [N]-CA--C-[N] |==|  0.88992
USER: genes 4 Torsion [C]-N--CA-[C] |==|  0.68968
USER: genes 5 Torsion [N]-CA--C-[N] |==|  0.30300
USER: genes 6 Torsion [C]-N--CA-[CB] |==|  0.84900
USER: genes 7 Torsion [N]-CA--C-[O] |==|  0.73138
USER: genes 8 Torsion [N]-CA--CB-[CG] |==|  0.76338
USER: genes 9 Torsion [CA]-CB--CG-[CD2] |==|  0.16485
USER: genes 10 Torsion [CE2]-CZ--OH-[HH] |==|  0.46682
USER: genes 11 Torsion [N]-CA--CB-[OG] |==|  0.37897
USER: genes 12 Torsion [CA]-CB--OG-[HG] |==|  0.18220
USER: genes 13 Torsion [N]-CA--CB-[CG2] |==|  0.63007
USER: genes 14 Torsion [CA]-CB--OG1-[HG1] |==|  0.10045
USER: genes 15 Torsion [N]-C--CA-[N] |==|  0.40575
USER: genes 16 Torsion [C]-CA--N-[C] |==|  0.59800
USER: genes 17 Torsion [N]-C--CA-[CB] |==|  0.63558
USER: genes 18 Torsion [N]-C--CA-[N] |==|  0.86139
USER: genes 19 Torsion [C]-CA--N-[C] |==|  0.85267
USER: genes 20 Torsion [N]-C--CA-[N] |==|  0.04080
USER: genes 21 Torsion [C]-CA--CB-[CG2] |==|  0.22045
USER: genes 22 Torsion [C]-CA--CB-[OG] |==|  0.63399
USER: genes 23 Torsion [CA]-CB--OG-[HG] |==|  0.56520
USER: genes 24 Torsion [C]-CA--CB-[OG] |==|  0.13733
USER: genes 25 Torsion [CA]-CB--OG-[HG] |==|  0.99509
ROOT
ATOM      1  C   SER B 156      34.841 -13.210  -8.700  1.00 15.87 LIG 0.24  C 
ATOM      2 O    SER B 156      35.499 -13.518  -7.705  1.00 15.60 LIG-0.27  OA
ATOM      3  N   THR B 157      33.515 -13.290  -8.751  1.00 16.26 LIG-0.34  N 
ATOM      4 H    THR B 157      33.040 -13.042  -9.423  1.00 16.26 LIG 0.16  HD
ENDROOT
BRANCH 3 5
ATOM      5  CA  THR B 157      32.752 -13.821  -7.634  1.00 15.91 LIG 0.20  C 
BRANCH 5 6
ATOM      6  C   THR B 157      33.129 -15.299  -7.603  1.00 16.14 LIG 0.24  C 
ATOM      7 O    THR B 157      33.305 -15.874  -6.524  1.00 15.69 LIG-0.27  OA
ATOM      8  N   SER B 158      33.254 -15.914  -8.773  1.00 15.14 LIG-0.34  N 
ATOM      9 H    SER B 158      33.137 -15.534  -9.535  1.00 15.14 LIG 0.16  HD
BRANCH 8 10
ATOM     10  CA  SER B 158      33.609 -17.327  -8.844  1.00 18.36 LIG 0.20  C 
BRANCH 10 11
ATOM     11  C   SER B 158      35.005 -17.512  -9.431  1.00 20.96 LIG 0.24  C 
ATOM     12 O    SER B 158      35.220 -17.295 -10.626  1.00 20.92 LIG-0.27  OA
ATOM     13  N   TYR B 159      35.950 -17.910  -8.586  1.00 23.40 LIG-0.35  N 
ATOM     14 H    TYR B 159      35.813 -18.066  -7.751  1.00 23.40 LIG 0.16  HD
BRANCH 13 15
ATOM     15  CA  TYR B 159      37.328 -18.119  -9.022  1.00 28.83 LIG 0.17  C 
BRANCH 15 16
ATOM     16  C   TYR B 159      37.979 -16.800  -9.422  1.00 30.09 LIG 0.22  C 
ATOM     17 O    TYR B 159      37.980 -16.519 -10.640  1.00 33.46 LIG-0.29  OA
ENDBRANCH 15 16
BRANCH 15 18
ATOM     18  CB  TYR B 159      37.367 -19.088 -10.206  1.00 32.38 LIG 0.07  C 
BRANCH 18 19
ATOM     19  CG  TYR B 159      37.381 -20.545  -9.798  1.00 36.58 LIG-0.06  A 
ATOM     20  CD2 TYR B 159      36.345 -21.087  -9.039  1.00 38.67 LIG 0.01  A 
ATOM     21  CE2 TYR B 159      36.348 -22.431  -8.671  1.00 40.79 LIG 0.04  A 
ATOM     22  CZ  TYR B 159      37.400 -23.244  -9.063  1.00 41.05 LIG 0.07  A 
ATOM     23  CE1 TYR B 159      38.442 -22.729  -9.816  1.00 40.09 LIG 0.04  A 
ATOM     24  CD1 TYR B 159      38.427 -21.384 -10.181  1.00 38.09 LIG 0.01  A 
BRANCH 22 25
ATOM     25 OH   TYR B 159      37.410 -24.573  -8.702  1.00 43.66 LIG-0.36  OA
ATOM     26 HH   TYR B 159      38.006 -24.977  -9.135  1.00 43.66 LIG 0.22  HD
ENDBRANCH 22 25
ENDBRANCH 18 19
ENDBRANCH 15 18
ENDBRANCH 13 15
ENDBRANCH 10 11
BRANCH 10 27
ATOM     27  CB  SER B 158      32.591 -18.084  -9.700  1.00 15.79 LIG 0.20  C 
BRANCH 27 28
ATOM     28 OG   SER B 158      33.239 -18.986 -10.579  1.00 17.90 LIG-0.40  OA
ATOM     29 HG   SER B 158      33.620 -19.587 -10.133  1.00 17.90 LIG 0.21  HD
ENDBRANCH 27 28
ENDBRANCH 10 27
ENDBRANCH 8 10
ENDBRANCH 5 6
BRANCH 5 30
ATOM     30  CB  THR B 157      31.229 -13.704  -7.861  1.00 18.18 LIG 0.15  C 
ATOM     31  CG2 THR B 157      30.543 -13.142  -6.628  1.00 16.96 LIG 0.04  C 
BRANCH 30 32
ATOM     32 OG1  THR B 157      30.978 -12.851  -8.986  1.00 15.90 LIG-0.39  OA
ATOM     33 HG1  THR B 157      31.572 -12.971  -9.568  1.00 15.90 LIG 0.21  HD
ENDBRANCH 30 32
ENDBRANCH 5 30
ENDBRANCH 3 5
BRANCH 1 34
ATOM     34  CA  SER B 156      35.528 -12.702  -9.955  1.00 16.58 LIG 0.20  C 
BRANCH 34 35
ATOM     35  N   SER B 156      36.702 -11.937  -9.556  1.00 15.80 LIG-0.34  N 
ATOM     36 H    SER B 156      37.101 -12.244  -8.859  1.00 15.80 LIG 0.16  HD
ATOM     37  C   PRO B 155      37.107 -10.860 -10.222  1.00 18.36 LIG 0.24  C 
ATOM     38 O    PRO B 155      36.524 -10.419 -11.213  1.00 18.57 LIG-0.27  OA
BRANCH 37 39
ATOM     39  CA  PRO B 155      38.352 -10.168  -9.680  1.00 19.30 LIG 0.18  C 
ATOM     40  CB  PRO B 155      38.155  -8.664  -9.537  1.00 17.99 LIG 0.04  C 
ATOM     41  CG  PRO B 155      38.480  -8.175 -10.916  1.00 20.29 LIG 0.02  C 
ATOM     42  CD  PRO B 155      39.732  -8.968 -11.266  1.00 20.15 LIG 0.13  C 
ATOM     43  N   PRO B 155      39.487 -10.263 -10.605  1.00 20.34 LIG-0.34  N 
ATOM     44  C   SER B 154      40.221 -11.382 -10.731  1.00 23.17 LIG 0.24  C 
ATOM     45 O    SER B 154      39.985 -12.398 -10.078  1.00 21.43 LIG-0.27  OA
BRANCH 44 46
ATOM     46  CA  SER B 154      41.375 -11.349 -11.730  1.00 26.04 LIG 0.20  C 
BRANCH 46 47
ATOM     47  N   SER B 154      40.948 -10.844 -13.031  1.00 29.08 LIG-0.34  N 
ATOM     48 H    SER B 154      41.422 -10.192 -13.331  1.00 29.08 LIG 0.16  HD
ATOM     49  C   VAL B 153      39.910 -11.366 -13.678  1.00 31.74 LIG 0.26  C 
ATOM     50 O    VAL B 153      39.240 -12.294 -13.230  1.00 31.76 LIG-0.27  OA
BRANCH 49 51
ATOM     51  CA  VAL B 153      39.574 -10.745 -15.030  1.00 34.29 LIG 0.40  C 
ATOM     52  N   VAL B 153      40.703  -9.901 -15.510  1.00 34.52 LIG 0.61  N 
BRANCH 51 53
ATOM     53  CB  VAL B 153      39.260 -11.883 -16.031  1.00 36.17 LIG 0.03  C 
ATOM     54  CG2 VAL B 153      37.846 -12.389 -15.819  1.00 38.03 LIG 0.01  C 
ATOM     55  CG1 VAL B 153      40.260 -13.016 -15.864  1.00 38.39 LIG 0.01  C 
ENDBRANCH 51 53
ENDBRANCH 49 51
ENDBRANCH 46 47
BRANCH 46 56
ATOM     56  CB  SER B 154      42.506 -10.483 -11.168  1.00 27.48 LIG 0.20  C 
BRANCH 56 57
ATOM     57 OG   SER B 154      42.964  -9.555 -12.136  1.00 30.72 LIG-0.40  OA
ATOM     58 HG   SER B 154      43.750  -9.324 -11.953  1.00 30.72 LIG 0.21  HD
ENDBRANCH 56 57
ENDBRANCH 46 56
ENDBRANCH 44 46
ENDBRANCH 37 39
ENDBRANCH 34 35
BRANCH 34 59
ATOM     59  CB  SER B 156      35.942 -13.912 -10.795  1.00 16.81 LIG 0.20  C 
BRANCH 59 60
ATOM     60 OG   SER B 156      34.852 -14.808 -10.949  1.00 16.65 LIG-0.40  OA
ATOM     61 HG   SER B 156      34.186 -14.516 -10.527  1.00 16.65 LIG 0.21  HD
ENDBRANCH 59 60
ENDBRANCH 34 59
ENDBRANCH 1 34
TORSDOF 24
ENDMDL
MODEL 57
USER: ADFR SOLUTION from run 153
USER: SCORE 16.242013 LL:  -4.433 LR: -13.420 RR:   0.000 FEB:  -6.261
USER: RMSD 11.952734
USER: SEED 152
USER: STATUS no improvement in best in 19 clusters for 5 generations
USER: GENES 26
USER: genes 0 Translation |==|  0.33831 0.61878 0.53890
USER: genes 1 Rotation |==|  0.73720 0.06366 0.52526 0.55201
USER: genes 2 Torsion [C]-N--CA-[C] |==|  0.66508
USER: genes 3 Torsion [N]-CA--C-[N] |==|  0.78961
USER: genes 4 Torsion [C]-N--CA-[C] |==|  0.81600
USER: genes 5 Torsion [N]-CA--C-[N] |==|  0.96581
USER: genes 6 Torsion [C]-N--CA-[CB] |==|  0.28901
USER: genes 7 Torsion [N]-CA--C-[O] |==|  0.08105
USER: genes 8 Torsion [N]-CA--CB-[CG] |==|  0.92329
USER: genes 9 Torsion [CA]-CB--CG-[CD2] |==|  0.74614
USER: genes 10 Torsion [CE2]-CZ--OH-[HH] |==|  0.85360
USER: genes 11 Torsion [N]-CA--CB-[OG] |==|  0.78125
USER: genes 12 Torsion [CA]-CB--OG-[HG] |==|  0.00515
USER: genes 13 Torsion [N]-CA--CB-[CG2] |==|  0.55947
USER: genes 14 Torsion [CA]-CB--OG1-[HG1] |==|  0.08345
USER: genes 15 Torsion [N]-C--CA-[N] |==|  0.50200
USER: genes 16 Torsion [C]-CA--N-[C] |==|  0.18029
USER: genes 17 Torsion [N]-C--CA-[CB] |==|  0.26159
USER: genes 18 Torsion [N]-C--CA-[N] |==|  0.12149
USER: genes 19 Torsion [C]-CA--N-[C] |==|  0.16920
USER: genes 20 Torsion [N]-C--CA-[N] |==|  0.85232
USER: genes 21 Torsion [C]-CA--CB-[CG2] |==|  0.54550
USER: genes 22 Torsion [C]-CA--CB-[OG] |==|  0.13045
USER: genes 23 Torsion [CA]-CB--OG-[HG] |==|  0.34391
USER: genes 24 Torsion [C]-CA--CB-[OG] |==|  0.24517
USER: genes 25 Torsion [CA]-CB--OG-[HG] |==|  0.96037
ROOT
ATOM      1  C   SER B 156      34.479 -13.608  -9.012  1.00 15.87 LIG 0.24  C 
ATOM      2 O    SER B 156      34.957 -12.675  -8.365  1.00 15.60 LIG-0.27  OA
ATOM      3  N   THR B 157      33.397 -14.280  -8.632  1.00 16.26 LIG-0.34  N 
ATOM      4 H    THR B 157      33.029 -14.906  -9.092  1.00 16.26 LIG 0.16  HD
ENDROOT
BRANCH 3 5
ATOM      5  CA  THR B 157      32.739 -13.989  -7.369  1.00 15.91 LIG 0.20  C 
BRANCH 5 6
ATOM      6  C   THR B 157      32.802 -15.313  -6.613  1.00 16.14 LIG 0.24  C 
ATOM      7 O    THR B 157      33.610 -15.464  -5.691  1.00 15.69 LIG-0.27  OA
ATOM      8  N   SER B 158      31.959 -16.266  -6.992  1.00 15.14 LIG-0.34  N 
ATOM      9 H    SER B 158      31.390 -16.182  -7.630  1.00 15.14 LIG 0.16  HD
BRANCH 8 10
ATOM     10  CA  SER B 158      31.943 -17.564  -6.326  1.00 18.36 LIG 0.20  C 
BRANCH 10 11
ATOM     11  C   SER B 158      33.244 -18.322  -6.574  1.00 20.96 LIG 0.24  C 
ATOM     12 O    SER B 158      33.519 -19.331  -5.922  1.00 20.92 LIG-0.27  OA
ATOM     13  N   TYR B 159      34.038 -17.832  -7.520  1.00 23.40 LIG-0.35  N 
ATOM     14 H    TYR B 159      33.858 -17.128  -7.982  1.00 23.40 LIG 0.16  HD
BRANCH 13 15
ATOM     15  CA  TYR B 159      35.309 -18.466  -7.857  1.00 28.83 LIG 0.17  C 
BRANCH 15 16
ATOM     16  C   TYR B 159      36.419 -17.429  -7.984  1.00 30.09 LIG 0.22  C 
ATOM     17 O    TYR B 159      36.307 -16.395  -7.292  1.00 33.46 LIG-0.29  OA
ENDBRANCH 15 16
BRANCH 15 18
ATOM     18  CB  TYR B 159      35.182 -19.240  -9.172  1.00 32.38 LIG 0.07  C 
BRANCH 18 19
ATOM     19  CG  TYR B 159      33.779 -19.732  -9.453  1.00 36.58 LIG-0.06  A 
ATOM     20  CD2 TYR B 159      33.365 -20.996  -9.034  1.00 38.67 LIG 0.01  A 
ATOM     21  CE2 TYR B 159      32.070 -21.448  -9.281  1.00 40.79 LIG 0.04  A 
ATOM     22  CZ  TYR B 159      31.177 -20.630  -9.956  1.00 41.05 LIG 0.07  A 
ATOM     23  CE1 TYR B 159      31.565 -19.370 -10.384  1.00 40.09 LIG 0.04  A 
ATOM     24  CD1 TYR B 159      32.862 -18.928 -10.129  1.00 38.09 LIG 0.01  A 
BRANCH 22 25
ATOM     25 OH   TYR B 159      29.897 -21.071 -10.204  1.00 43.66 LIG-0.36  OA
ATOM     26 HH   TYR B 159      29.926 -21.820 -10.583  1.00 43.66 LIG 0.22  HD
ENDBRANCH 22 25
ENDBRANCH 18 19
ENDBRANCH 15 18
ENDBRANCH 13 15
ENDBRANCH 10 11
BRANCH 10 27
ATOM     27  CB  SER B 158      30.762 -18.398  -6.825  1.00 15.79 LIG 0.20  C 
BRANCH 27 28
ATOM     28 OG   SER B 158      29.556 -17.989  -6.205  1.00 17.90 LIG-0.40  OA
ATOM     29 HG   SER B 158      29.709 -17.342  -5.692  1.00 17.90 LIG 0.21  HD
ENDBRANCH 27 28
ENDBRANCH 10 27
ENDBRANCH 8 10
ENDBRANCH 5 6
BRANCH 5 30
ATOM     30  CB  THR B 157      31.257 -13.600  -7.561  1.00 18.18 LIG 0.15  C 
ATOM     31  CG2 THR B 157      30.748 -12.816  -6.363  1.00 16.96 LIG 0.04  C 
BRANCH 30 32
ATOM     32 OG1  THR B 157      31.121 -12.809  -8.750  1.00 15.90 LIG-0.39  OA
ATOM     33 HG1  THR B 157      31.710 -13.034  -9.305  1.00 15.90 LIG 0.21  HD
ENDBRANCH 30 32
ENDBRANCH 5 30
ENDBRANCH 3 5
BRANCH 1 34
ATOM     34  CA  SER B 156      35.115 -14.049 -10.319  1.00 16.58 LIG 0.20  C 
BRANCH 34 35
ATOM     35  N   SER B 156      36.287 -13.218 -10.560  1.00 15.80 LIG-0.34  N 
ATOM     36 H    SER B 156      36.225 -12.716 -11.255  1.00 15.80 LIG 0.16  HD
ATOM     37  C   PRO B 155      37.352 -13.245  -9.765  1.00 18.36 LIG 0.24  C 
ATOM     38 O    PRO B 155      37.439 -13.975  -8.776  1.00 18.57 LIG-0.27  OA
BRANCH 37 39
ATOM     39  CA  PRO B 155      38.498 -12.318 -10.150  1.00 19.30 LIG 0.18  C 
ATOM     40  CB  PRO B 155      38.420 -10.980  -9.425  1.00 17.99 LIG 0.04  C 
ATOM     41  CG  PRO B 155      37.490 -10.202 -10.307  1.00 20.29 LIG 0.02  C 
ATOM     42  CD  PRO B 155      38.002 -10.529 -11.703  1.00 20.15 LIG 0.13  C 
ATOM     43  N   PRO B 155      38.445 -11.928 -11.563  1.00 20.34 LIG-0.34  N 
ATOM     44  C   SER B 154      38.840 -12.748 -12.552  1.00 23.17 LIG 0.24  C 
ATOM     45 O    SER B 154      39.270 -13.880 -12.332  1.00 21.43 LIG-0.27  OA
BRANCH 44 46
ATOM     46  CA  SER B 154      38.734 -12.220 -13.980  1.00 26.04 LIG 0.20  C 
BRANCH 46 47
ATOM     47  N   SER B 154      39.208 -10.844 -14.083  1.00 29.08 LIG-0.34  N 
ATOM     48 H    SER B 154      38.613 -10.283 -14.350  1.00 29.08 LIG 0.16  HD
ATOM     49  C   VAL B 153      40.460 -10.511 -13.784  1.00 31.74 LIG 0.26  C 
ATOM     50 O    VAL B 153      41.298 -11.327 -13.409  1.00 31.76 LIG-0.27  OA
BRANCH 49 51
ATOM     51  CA  VAL B 153      40.822  -9.036 -13.933  1.00 34.29 LIG 0.40  C 
ATOM     52  N   VAL B 153      40.466  -8.549 -15.294  1.00 34.52 LIG 0.61  N 
BRANCH 51 53
ATOM     53  CB  VAL B 153      40.078  -8.232 -12.838  1.00 36.17 LIG 0.03  C 
ATOM     54  CG2 VAL B 153      40.080  -6.756 -13.185  1.00 38.03 LIG 0.01  C 
ATOM     55  CG1 VAL B 153      40.735  -8.461 -11.486  1.00 38.39 LIG 0.01  C 
ENDBRANCH 51 53
ENDBRANCH 49 51
ENDBRANCH 46 47
BRANCH 46 56
ATOM     56  CB  SER B 154      39.533 -13.130 -14.917  1.00 27.48 LIG 0.20  C 
BRANCH 56 57
ATOM     57 OG   SER B 154      39.243 -14.495 -14.669  1.00 30.72 LIG-0.40  OA
ATOM     58 HG   SER B 154      38.979 -14.859 -15.378  1.00 30.72 LIG 0.21  HD
ENDBRANCH 56 57
ENDBRANCH 46 56
ENDBRANCH 44 46
ENDBRANCH 37 39
ENDBRANCH 34 35
BRANCH 34 59
ATOM     59  CB  SER B 156      35.523 -15.517 -10.179  1.00 16.81 LIG 0.20  C 
BRANCH 59 60
ATOM     60 OG   SER B 156      34.450 -16.370 -10.549  1.00 16.65 LIG-0.40  OA
ATOM     61 HG   SER B 156      33.738 -15.925 -10.587  1.00 16.65 LIG 0.21  HD
ENDBRANCH 59 60
ENDBRANCH 34 59
ENDBRANCH 1 34
TORSDOF 24
ENDMDL
MODEL 58
USER: ADFR SOLUTION from run 74
USER: SCORE 17.979502 LL:  -5.154 LR: -13.417 RR:   0.000 FEB:  -6.258
USER: RMSD 11.232350
USER: SEED 73
USER: STATUS searching
USER: GENES 26
USER: genes 0 Translation |==|  0.34228 0.64532 0.55304
USER: genes 1 Rotation |==|  0.39550 0.95837 0.66355 0.54722
USER: genes 2 Torsion [C]-N--CA-[C] |==|  0.81443
USER: genes 3 Torsion [N]-CA--C-[N] |==|  0.88740
USER: genes 4 Torsion [C]-N--CA-[C] |==|  0.83143
USER: genes 5 Torsion [N]-CA--C-[N] |==|  0.93856
USER: genes 6 Torsion [C]-N--CA-[CB] |==|  0.46491
USER: genes 7 Torsion [N]-CA--C-[O] |==|  0.70730
USER: genes 8 Torsion [N]-CA--CB-[CG] |==|  0.79204
USER: genes 9 Torsion [CA]-CB--CG-[CD2] |==|  0.02498
USER: genes 10 Torsion [CE2]-CZ--OH-[HH] |==|  0.76278
USER: genes 11 Torsion [N]-CA--CB-[OG] |==|  0.23384
USER: genes 12 Torsion [CA]-CB--OG-[HG] |==|  0.87418
USER: genes 13 Torsion [N]-CA--CB-[CG2] |==|  0.63488
USER: genes 14 Torsion [CA]-CB--OG1-[HG1] |==|  0.13404
USER: genes 15 Torsion [N]-C--CA-[N] |==|  0.45306
USER: genes 16 Torsion [C]-CA--N-[C] |==|  0.61309
USER: genes 17 Torsion [N]-C--CA-[CB] |==|  0.82264
USER: genes 18 Torsion [N]-C--CA-[N] |==|  0.52776
USER: genes 19 Torsion [C]-CA--N-[C] |==|  0.59512
USER: genes 20 Torsion [N]-C--CA-[N] |==|  0.95257
USER: genes 21 Torsion [C]-CA--CB-[CG2] |==|  0.57993
USER: genes 22 Torsion [C]-CA--CB-[OG] |==|  0.54293
USER: genes 23 Torsion [CA]-CB--OG-[HG] |==|  0.22486
USER: genes 24 Torsion [C]-CA--CB-[OG] |==|  0.97444
USER: genes 25 Torsion [CA]-CB--OG-[HG] |==|  0.23657
ROOT
ATOM      1  C   SER B 156      34.589 -12.991  -8.715  1.00 15.87 LIG 0.24  C 
ATOM      2 O    SER B 156      35.282 -13.187  -7.715  1.00 15.60 LIG-0.27  OA
ATOM      3  N   THR B 157      33.262 -13.062  -8.707  1.00 16.26 LIG-0.34  N 
ATOM      4 H    THR B 157      32.763 -12.889  -9.386  1.00 16.26 LIG 0.16  HD
ENDROOT
BRANCH 3 5
ATOM      5  CA  THR B 157      32.539 -13.449  -7.508  1.00 15.91 LIG 0.20  C 
BRANCH 5 6
ATOM      6  C   THR B 157      32.930 -14.910  -7.302  1.00 16.14 LIG 0.24  C 
ATOM      7 O    THR B 157      33.159 -15.337  -6.166  1.00 15.69 LIG-0.27  OA
ATOM      8  N   SER B 158      33.005 -15.673  -8.385  1.00 15.14 LIG-0.34  N 
ATOM      9 H    SER B 158      32.850 -15.396  -9.184  1.00 15.14 LIG 0.16  HD
BRANCH 8 10
ATOM     10  CA  SER B 158      33.368 -17.083  -8.287  1.00 18.36 LIG 0.20  C 
BRANCH 10 11
ATOM     11  C   SER B 158      34.761 -17.248  -7.686  1.00 20.96 LIG 0.24  C 
ATOM     12 O    SER B 158      35.095 -18.307  -7.152  1.00 20.92 LIG-0.27  OA
ATOM     13  N   TYR B 159      35.569 -16.197  -7.778  1.00 23.40 LIG-0.35  N 
ATOM     14 H    TYR B 159      35.348 -15.452  -8.147  1.00 23.40 LIG 0.16  HD
BRANCH 13 15
ATOM     15  CA  TYR B 159      36.929 -16.228  -7.247  1.00 28.83 LIG 0.17  C 
BRANCH 15 16
ATOM     16  C   TYR B 159      36.918 -16.218  -5.722  1.00 30.09 LIG 0.22  C 
ATOM     17 O    TYR B 159      37.237 -15.147  -5.163  1.00 33.46 LIG-0.29  OA
ENDBRANCH 15 16
BRANCH 15 18
ATOM     18  CB  TYR B 159      37.725 -15.025  -7.759  1.00 32.38 LIG 0.07  C 
BRANCH 18 19
ATOM     19  CG  TYR B 159      38.148 -15.149  -9.206  1.00 36.58 LIG-0.06  A 
ATOM     20  CD2 TYR B 159      37.664 -16.182 -10.008  1.00 38.67 LIG 0.01  A 
ATOM     21  CE2 TYR B 159      38.043 -16.293 -11.345  1.00 40.79 LIG 0.04  A 
ATOM     22  CZ  TYR B 159      38.917 -15.365 -11.887  1.00 41.05 LIG 0.07  A 
ATOM     23  CE1 TYR B 159      39.413 -14.330 -11.110  1.00 40.09 LIG 0.04  A 
ATOM     24  CD1 TYR B 159      39.025 -14.228  -9.776  1.00 38.09 LIG 0.01  A 
BRANCH 22 25
ATOM     25 OH   TYR B 159      39.296 -15.469 -13.207  1.00 43.66 LIG-0.36  OA
ATOM     26 HH   TYR B 159      39.949 -15.995 -13.271  1.00 43.66 LIG 0.22  HD
ENDBRANCH 22 25
ENDBRANCH 18 19
ENDBRANCH 15 18
ENDBRANCH 13 15
ENDBRANCH 10 11
BRANCH 10 27
ATOM     27  CB  SER B 158      33.328 -17.735  -9.670  1.00 15.79 LIG 0.20  C 
BRANCH 27 28
ATOM     28 OG   SER B 158      34.542 -17.521 -10.367  1.00 17.90 LIG-0.40  OA
ATOM     29 HG   SER B 158      34.773 -16.716 -10.288  1.00 17.90 LIG 0.21  HD
ENDBRANCH 27 28
ENDBRANCH 10 27
ENDBRANCH 8 10
ENDBRANCH 5 6
BRANCH 5 30
ATOM     30  CB  THR B 157      31.009 -13.369  -7.700  1.00 18.18 LIG 0.15  C 
ATOM     31  CG2 THR B 157      30.361 -12.620  -6.547  1.00 16.96 LIG 0.04  C 
BRANCH 30 32
ATOM     32 OG1  THR B 157      30.716 -12.703  -8.935  1.00 15.90 LIG-0.39  OA
ATOM     33 HG1  THR B 157      31.183 -13.034  -9.550  1.00 15.90 LIG 0.21  HD
ENDBRANCH 30 32
ENDBRANCH 5 30
ENDBRANCH 3 5
BRANCH 1 34
ATOM     34  CA  SER B 156      35.232 -12.642 -10.046  1.00 16.58 LIG 0.20  C 
BRANCH 34 35
ATOM     35  N   SER B 156      36.603 -12.217  -9.794  1.00 15.80 LIG-0.34  N 
ATOM     36 H    SER B 156      37.012 -12.685  -9.200  1.00 15.80 LIG 0.16  HD
ATOM     37  C   PRO B 155      37.157 -11.192 -10.434  1.00 18.36 LIG 0.24  C 
ATOM     38 O    PRO B 155      36.560 -10.518 -11.275  1.00 18.57 LIG-0.27  OA
BRANCH 37 39
ATOM     39  CA  PRO B 155      38.598 -10.870 -10.060  1.00 19.30 LIG 0.18  C 
ATOM     40  CB  PRO B 155      38.730 -10.432  -8.607  1.00 17.99 LIG 0.04  C 
ATOM     41  CG  PRO B 155      38.423  -8.967  -8.695  1.00 20.29 LIG 0.02  C 
ATOM     42  CD  PRO B 155      39.213  -8.533  -9.922  1.00 20.15 LIG 0.13  C 
ATOM     43  N   PRO B 155      39.119  -9.715 -10.799  1.00 20.34 LIG-0.34  N 
ATOM     44  C   SER B 154      39.520  -9.799 -12.079  1.00 23.17 LIG 0.24  C 
ATOM     45 O    SER B 154      39.474 -10.853 -12.712  1.00 21.43 LIG-0.27  OA
BRANCH 44 46
ATOM     46  CA  SER B 154      40.041  -8.521 -12.732  1.00 26.04 LIG 0.20  C 
BRANCH 46 47
ATOM     47  N   SER B 154      40.220  -8.685 -14.171  1.00 29.08 LIG-0.34  N 
ATOM     48 H    SER B 154      39.643  -9.203 -14.543  1.00 29.08 LIG 0.16  HD
ATOM     49  C   VAL B 153      41.202  -8.075 -14.827  1.00 31.74 LIG 0.26  C 
ATOM     50 O    VAL B 153      42.022  -7.343 -14.277  1.00 31.76 LIG-0.27  OA
BRANCH 49 51
ATOM     51  CA  VAL B 153      41.273  -8.331 -16.329  1.00 34.29 LIG 0.40  C 
ATOM     52  N   VAL B 153      40.474  -9.535 -16.690  1.00 34.52 LIG 0.61  N 
BRANCH 51 53
ATOM     53  CB  VAL B 153      40.757  -7.073 -17.070  1.00 36.17 LIG 0.03  C 
ATOM     54  CG2 VAL B 153      40.147  -7.466 -18.402  1.00 38.03 LIG 0.01  C 
ATOM     55  CG1 VAL B 153      41.894  -6.086 -17.277  1.00 38.39 LIG 0.01  C 
ENDBRANCH 51 53
ENDBRANCH 49 51
ENDBRANCH 46 47
BRANCH 46 56
ATOM     56  CB  SER B 154      39.070  -7.373 -12.444  1.00 27.48 LIG 0.20  C 
BRANCH 56 57
ATOM     57 OG   SER B 154      39.313  -6.273 -13.304  1.00 30.72 LIG-0.40  OA
ATOM     58 HG   SER B 154      38.951  -6.414 -14.048  1.00 30.72 LIG 0.21  HD
ENDBRANCH 56 57
ENDBRANCH 46 56
ENDBRANCH 44 46
ENDBRANCH 37 39
ENDBRANCH 34 35
BRANCH 34 59
ATOM     59  CB  SER B 156      35.216 -13.892 -10.926  1.00 16.81 LIG 0.20  C 
BRANCH 59 60
ATOM     60 OG   SER B 156      34.812 -15.026 -10.174  1.00 16.65 LIG-0.40  OA
ATOM     61 HG   SER B 156      33.973 -15.069 -10.160  1.00 16.65 LIG 0.21  HD
ENDBRANCH 59 60
ENDBRANCH 34 59
ENDBRANCH 1 34
TORSDOF 24
ENDMDL
MODEL 59
USER: ADFR SOLUTION from run 62
USER: SCORE 16.791357 LL:  -4.125 LR: -13.405 RR:   0.000 FEB:  -6.245
USER: RMSD 10.802829
USER: SEED 61
USER: STATUS no improvement in best in 17 clusters for 5 generations
USER: GENES 26
USER: genes 0 Translation |==|  0.34773 0.60613 0.55430
USER: genes 1 Rotation |==|  0.35382 0.97134 0.57443 0.53043
USER: genes 2 Torsion [C]-N--CA-[C] |==|  0.75000
USER: genes 3 Torsion [N]-CA--C-[N] |==|  0.21425
USER: genes 4 Torsion [C]-N--CA-[C] |==|  0.17073
USER: genes 5 Torsion [N]-CA--C-[N] |==|  0.09609
USER: genes 6 Torsion [C]-N--CA-[CB] |==|  0.81975
USER: genes 7 Torsion [N]-CA--C-[O] |==|  0.34865
USER: genes 8 Torsion [N]-CA--CB-[CG] |==|  0.71366
USER: genes 9 Torsion [CA]-CB--CG-[CD2] |==|  0.61154
USER: genes 10 Torsion [CE2]-CZ--OH-[HH] |==|  0.86072
USER: genes 11 Torsion [N]-CA--CB-[OG] |==|  0.87785
USER: genes 12 Torsion [CA]-CB--OG-[HG] |==|  0.83741
USER: genes 13 Torsion [N]-CA--CB-[CG2] |==|  0.58213
USER: genes 14 Torsion [CA]-CB--OG1-[HG1] |==|  0.05856
USER: genes 15 Torsion [N]-C--CA-[N] |==|  0.44982
USER: genes 16 Torsion [C]-CA--N-[C] |==|  0.74588
USER: genes 17 Torsion [N]-C--CA-[CB] |==|  0.55424
USER: genes 18 Torsion [N]-C--CA-[N] |==|  0.85353
USER: genes 19 Torsion [C]-CA--N-[C] |==|  0.75306
USER: genes 20 Torsion [N]-C--CA-[N] |==|  0.84740
USER: genes 21 Torsion [C]-CA--CB-[CG2] |==|  0.11175
USER: genes 22 Torsion [C]-CA--CB-[OG] |==|  0.65720
USER: genes 23 Torsion [CA]-CB--OG-[HG] |==|  0.33223
USER: genes 24 Torsion [C]-CA--CB-[OG] |==|  0.18388
USER: genes 25 Torsion [CA]-CB--OG-[HG] |==|  0.00175
ROOT
ATOM      1  C   SER B 156      34.740 -13.902  -8.689  1.00 15.87 LIG 0.24  C 
ATOM      2 O    SER B 156      35.363 -13.624  -7.663  1.00 15.60 LIG-0.27  OA
ATOM      3  N   THR B 157      33.434 -14.150  -8.704  1.00 16.26 LIG-0.34  N 
ATOM      4 H    THR B 157      32.979 -14.306  -9.417  1.00 16.26 LIG 0.16  HD
ENDROOT
BRANCH 3 5
ATOM      5  CA  THR B 157      32.661 -14.173  -7.474  1.00 15.91 LIG 0.20  C 
BRANCH 5 6
ATOM      6  C   THR B 157      32.739 -15.628  -7.022  1.00 16.14 LIG 0.24  C 
ATOM      7 O    THR B 157      31.779 -16.386  -7.194  1.00 15.69 LIG-0.27  OA
ATOM      8  N   SER B 158      33.870 -16.023  -6.450  1.00 15.14 LIG-0.34  N 
ATOM      9 H    SER B 158      34.550 -15.513  -6.320  1.00 15.14 LIG 0.16  HD
BRANCH 8 10
ATOM     10  CA  SER B 158      34.039 -17.396  -5.988  1.00 18.36 LIG 0.20  C 
BRANCH 10 11
ATOM     11  C   SER B 158      33.929 -18.381  -7.148  1.00 20.96 LIG 0.24  C 
ATOM     12 O    SER B 158      33.422 -19.492  -6.985  1.00 20.92 LIG-0.27  OA
ATOM     13  N   TYR B 159      34.404 -17.966  -8.318  1.00 23.40 LIG-0.35  N 
ATOM     14 H    TYR B 159      34.762 -17.194  -8.445  1.00 23.40 LIG 0.16  HD
BRANCH 13 15
ATOM     15  CA  TYR B 159      34.355 -18.812  -9.508  1.00 28.83 LIG 0.17  C 
BRANCH 15 16
ATOM     16  C   TYR B 159      32.926 -19.248  -9.808  1.00 30.09 LIG 0.22  C 
ATOM     17 O    TYR B 159      32.490 -19.004 -10.954  1.00 33.46 LIG-0.29  OA
ENDBRANCH 15 16
BRANCH 15 18
ATOM     18  CB  TYR B 159      35.235 -20.049  -9.314  1.00 32.38 LIG 0.07  C 
BRANCH 18 19
ATOM     19  CG  TYR B 159      36.559 -19.972 -10.043  1.00 36.58 LIG-0.06  A 
ATOM     20  CD2 TYR B 159      37.088 -21.089 -10.690  1.00 38.67 LIG 0.01  A 
ATOM     21  CE2 TYR B 159      38.301 -21.018 -11.372  1.00 40.79 LIG 0.04  A 
ATOM     22  CZ  TYR B 159      38.997 -19.820 -11.407  1.00 41.05 LIG 0.07  A 
ATOM     23  CE1 TYR B 159      38.494 -18.697 -10.771  1.00 40.09 LIG 0.04  A 
ATOM     24  CD1 TYR B 159      37.278 -18.779 -10.095  1.00 38.09 LIG 0.01  A 
BRANCH 22 25
ATOM     25 OH   TYR B 159      40.197 -19.744 -12.078  1.00 43.66 LIG-0.36  OA
ATOM     26 HH   TYR B 159      40.696 -20.375 -11.834  1.00 43.66 LIG 0.22  HD
ENDBRANCH 22 25
ENDBRANCH 18 19
ENDBRANCH 15 18
ENDBRANCH 13 15
ENDBRANCH 10 11
BRANCH 10 27
ATOM     27  CB  SER B 158      32.985 -17.731  -4.932  1.00 15.79 LIG 0.20  C 
BRANCH 27 28
ATOM     28 OG   SER B 158      32.845 -16.672  -4.002  1.00 17.90 LIG-0.40  OA
ATOM     29 HG   SER B 158      33.585 -16.525  -3.631  1.00 17.90 LIG 0.21  HD
ENDBRANCH 27 28
ENDBRANCH 10 27
ENDBRANCH 8 10
ENDBRANCH 5 6
BRANCH 5 30
ATOM     30  CB  THR B 157      31.179 -13.809  -7.711  1.00 18.18 LIG 0.15  C 
ATOM     31  CG2 THR B 157      30.586 -13.146  -6.480  1.00 16.96 LIG 0.04  C 
BRANCH 30 32
ATOM     32 OG1  THR B 157      31.079 -12.922  -8.834  1.00 15.90 LIG-0.39  OA
ATOM     33 HG1  THR B 157      31.766 -12.996  -9.312  1.00 15.90 LIG 0.21  HD
ENDBRANCH 30 32
ENDBRANCH 5 30
ENDBRANCH 3 5
BRANCH 1 34
ATOM     34  CA  SER B 156      35.450 -13.972 -10.030  1.00 16.58 LIG 0.20  C 
BRANCH 34 35
ATOM     35  N   SER B 156      36.723 -13.274  -9.910  1.00 15.80 LIG-0.34  N 
ATOM     36 H    SER B 156      37.372 -13.770  -9.643  1.00 15.80 LIG 0.16  HD
ATOM     37  C   PRO B 155      36.853 -11.981 -10.192  1.00 18.36 LIG 0.24  C 
ATOM     38 O    PRO B 155      35.915 -11.273 -10.562  1.00 18.57 LIG-0.27  OA
BRANCH 37 39
ATOM     39  CA  PRO B 155      38.248 -11.395 -10.018  1.00 19.30 LIG 0.18  C 
ATOM     40  CB  PRO B 155      38.221  -9.877  -9.892  1.00 17.99 LIG 0.04  C 
ATOM     41  CG  PRO B 155      38.216  -9.447 -11.328  1.00 20.29 LIG 0.02  C 
ATOM     42  CD  PRO B 155      39.265 -10.357 -11.954  1.00 20.15 LIG 0.13  C 
ATOM     43  N   PRO B 155      39.092 -11.611 -11.198  1.00 20.34 LIG-0.34  N 
ATOM     44  C   SER B 154      39.673 -12.794 -11.462  1.00 23.17 LIG 0.24  C 
ATOM     45 O    SER B 154      39.531 -13.772 -10.727  1.00 21.43 LIG-0.27  OA
BRANCH 44 46
ATOM     46  CA  SER B 154      40.526 -12.886 -12.724  1.00 26.04 LIG 0.20  C 
BRANCH 46 47
ATOM     47  N   SER B 154      39.797 -12.431 -13.903  1.00 29.08 LIG-0.34  N 
ATOM     48 H    SER B 154      39.889 -11.594 -14.076  1.00 29.08 LIG 0.16  HD
ATOM     49  C   VAL B 153      39.057 -13.262 -14.631  1.00 31.74 LIG 0.26  C 
ATOM     50 O    VAL B 153      38.932 -14.455 -14.365  1.00 31.76 LIG-0.27  OA
BRANCH 49 51
ATOM     51  CA  VAL B 153      38.350 -12.656 -15.839  1.00 34.29 LIG 0.40  C 
ATOM     52  N   VAL B 153      37.514 -11.495 -15.424  1.00 34.52 LIG 0.61  N 
BRANCH 51 53
ATOM     53  CB  VAL B 153      39.418 -12.233 -16.877  1.00 36.17 LIG 0.03  C 
ATOM     54  CG2 VAL B 153      40.514 -13.280 -16.952  1.00 38.03 LIG 0.01  C 
ATOM     55  CG1 VAL B 153      40.002 -10.880 -16.504  1.00 38.39 LIG 0.01  C 
ENDBRANCH 51 53
ENDBRANCH 49 51
ENDBRANCH 46 47
BRANCH 46 56
ATOM     56  CB  SER B 154      41.800 -12.058 -12.534  1.00 27.48 LIG 0.20  C 
BRANCH 56 57
ATOM     57 OG   SER B 154      41.928 -11.081 -13.553  1.00 30.72 LIG-0.40  OA
ATOM     58 HG   SER B 154      41.939 -10.316 -13.208  1.00 30.72 LIG 0.21  HD
ENDBRANCH 56 57
ENDBRANCH 46 56
ENDBRANCH 44 46
ENDBRANCH 37 39
ENDBRANCH 34 35
BRANCH 34 59
ATOM     59  CB  SER B 156      35.681 -15.445 -10.371  1.00 16.81 LIG 0.20  C 
BRANCH 59 60
ATOM     60 OG   SER B 156      34.443 -16.105 -10.590  1.00 16.65 LIG-0.40  OA
ATOM     61 HG   SER B 156      33.812 -15.558 -10.499  1.00 16.65 LIG 0.21  HD
ENDBRANCH 59 60
ENDBRANCH 34 59
ENDBRANCH 1 34
TORSDOF 24
ENDMDL
MODEL 60
USER: ADFR SOLUTION from run 157
USER: SCORE 15.892607 LL:  -3.998 LR: -13.391 RR:   0.000 FEB:  -6.231
USER: RMSD 5.242636
USER: SEED 156
USER: STATUS no improvement in best in 13 clusters for 5 generations
USER: GENES 26
USER: genes 0 Translation |==|  0.42852 0.63257 0.44818
USER: genes 1 Rotation |==|  0.79421 0.52222 0.16952 0.73179
USER: genes 2 Torsion [C]-N--CA-[C] |==|  0.67821
USER: genes 3 Torsion [N]-CA--C-[N] |==|  0.31667
USER: genes 4 Torsion [C]-N--CA-[C] |==|  0.58434
USER: genes 5 Torsion [N]-CA--C-[N] |==|  0.68094
USER: genes 6 Torsion [C]-N--CA-[CB] |==|  0.79923
USER: genes 7 Torsion [N]-CA--C-[O] |==|  0.13386
USER: genes 8 Torsion [N]-CA--CB-[CG] |==|  0.87301
USER: genes 9 Torsion [CA]-CB--CG-[CD2] |==|  0.22907
USER: genes 10 Torsion [CE2]-CZ--OH-[HH] |==|  0.85064
USER: genes 11 Torsion [N]-CA--CB-[OG] |==|  0.02243
USER: genes 12 Torsion [CA]-CB--OG-[HG] |==|  0.24215
USER: genes 13 Torsion [N]-CA--CB-[CG2] |==|  0.00827
USER: genes 14 Torsion [CA]-CB--OG1-[HG1] |==|  0.55714
USER: genes 15 Torsion [N]-C--CA-[N] |==|  0.22657
USER: genes 16 Torsion [C]-CA--N-[C] |==|  0.75789
USER: genes 17 Torsion [N]-C--CA-[CB] |==|  0.92237
USER: genes 18 Torsion [N]-C--CA-[N] |==|  0.34423
USER: genes 19 Torsion [C]-CA--N-[C] |==|  0.74758
USER: genes 20 Torsion [N]-C--CA-[N] |==|  0.81504
USER: genes 21 Torsion [C]-CA--CB-[CG2] |==|  0.46561
USER: genes 22 Torsion [C]-CA--CB-[OG] |==|  0.54276
USER: genes 23 Torsion [CA]-CB--OG-[HG] |==|  0.19461
USER: genes 24 Torsion [C]-CA--CB-[OG] |==|  0.57872
USER: genes 25 Torsion [CA]-CB--OG-[HG] |==|  0.87095
ROOT
ATOM      1  C   SER B 156      36.982 -13.288 -10.917  1.00 15.87 LIG 0.24  C 
ATOM      2 O    SER B 156      37.592 -12.342 -10.415  1.00 15.60 LIG-0.27  OA
ATOM      3  N   THR B 157      37.567 -14.214 -11.671  1.00 16.26 LIG-0.34  N 
ATOM      4 H    THR B 157      37.163 -14.900 -11.995  1.00 16.26 LIG 0.16  HD
ENDROOT
BRANCH 3 5
ATOM      5  CA  THR B 157      38.977 -14.125 -12.010  1.00 15.91 LIG 0.20  C 
BRANCH 5 6
ATOM      6  C   THR B 157      38.978 -13.954 -13.526  1.00 16.14 LIG 0.24  C 
ATOM      7 O    THR B 157      38.579 -14.868 -14.255  1.00 15.69 LIG-0.27  OA
ATOM      8  N   SER B 158      39.421 -12.797 -14.002  1.00 15.14 LIG-0.34  N 
ATOM      9 H    SER B 158      39.704 -12.149 -13.514  1.00 15.14 LIG 0.16  HD
BRANCH 8 10
ATOM     10  CA  SER B 158      39.457 -12.540 -15.438  1.00 18.36 LIG 0.20  C 
BRANCH 10 11
ATOM     11  C   SER B 158      40.598 -11.593 -15.796  1.00 20.96 LIG 0.24  C 
ATOM     12 O    SER B 158      41.772 -11.931 -15.635  1.00 20.92 LIG-0.27  OA
ATOM     13  N   TYR B 159      40.246 -10.407 -16.282  1.00 23.40 LIG-0.35  N 
ATOM     14 H    TYR B 159      39.430 -10.157 -16.398  1.00 23.40 LIG 0.16  HD
BRANCH 13 15
ATOM     15  CA  TYR B 159      41.242  -9.411 -16.666  1.00 28.83 LIG 0.17  C 
BRANCH 15 16
ATOM     16  C   TYR B 159      42.313 -10.027 -17.558  1.00 30.09 LIG 0.22  C 
ATOM     17 O    TYR B 159      41.917 -10.723 -18.518  1.00 33.46 LIG-0.29  OA
ENDBRANCH 15 16
BRANCH 15 18
ATOM     18  CB  TYR B 159      41.899  -8.811 -15.420  1.00 32.38 LIG 0.07  C 
BRANCH 18 19
ATOM     19  CG  TYR B 159      40.913  -8.431 -14.338  1.00 36.58 LIG-0.06  A 
ATOM     20  CD2 TYR B 159      40.425  -9.385 -13.445  1.00 38.67 LIG 0.01  A 
ATOM     21  CE2 TYR B 159      39.526  -9.036 -12.439  1.00 40.79 LIG 0.04  A 
ATOM     22  CZ  TYR B 159      39.105  -7.721 -12.324  1.00 41.05 LIG 0.07  A 
ATOM     23  CE1 TYR B 159      39.574  -6.755 -13.200  1.00 40.09 LIG 0.04  A 
ATOM     24  CD1 TYR B 159      40.475  -7.115 -14.200  1.00 38.09 LIG 0.01  A 
BRANCH 22 25
ATOM     25 OH   TYR B 159      38.216  -7.370 -11.333  1.00 43.66 LIG-0.36  OA
ATOM     26 HH   TYR B 159      37.538  -7.864 -11.378  1.00 43.66 LIG 0.22  HD
ENDBRANCH 22 25
ENDBRANCH 18 19
ENDBRANCH 15 18
ENDBRANCH 13 15
ENDBRANCH 10 11
BRANCH 10 27
ATOM     27  CB  SER B 158      38.129 -11.938 -15.899  1.00 15.79 LIG 0.20  C 
BRANCH 27 28
ATOM     28 OG   SER B 158      37.303 -11.624 -14.792  1.00 17.90 LIG-0.40  OA
ATOM     29 HG   SER B 158      37.485 -10.851 -14.517  1.00 17.90 LIG 0.21  HD
ENDBRANCH 27 28
ENDBRANCH 10 27
ENDBRANCH 8 10
ENDBRANCH 5 6
BRANCH 5 30
ATOM     30  CB  THR B 157      39.742 -15.419 -11.657  1.00 18.18 LIG 0.15  C 
ATOM     31  CG2 THR B 157      38.793 -16.473 -11.113  1.00 16.96 LIG 0.04  C 
BRANCH 30 32
ATOM     32 OG1  THR B 157      40.401 -15.919 -12.829  1.00 15.90 LIG-0.39  OA
ATOM     33 HG1  THR B 157      40.574 -16.735 -12.727  1.00 15.90 LIG 0.21  HD
ENDBRANCH 30 32
ENDBRANCH 5 30
ENDBRANCH 3 5
BRANCH 1 34
ATOM     34  CA  SER B 156      35.490 -13.455 -10.690  1.00 16.58 LIG 0.20  C 
BRANCH 34 35
ATOM     35  N   SER B 156      35.297 -14.423  -9.618  1.00 15.80 LIG-0.34  N 
ATOM     36 H    SER B 156      35.227 -14.072  -8.836  1.00 15.80 LIG 0.16  HD
ATOM     37  C   PRO B 155      35.236 -15.731  -9.846  1.00 18.36 LIG 0.24  C 
ATOM     38 O    PRO B 155      35.348 -16.228 -10.967  1.00 18.57 LIG-0.27  OA
BRANCH 37 39
ATOM     39  CA  PRO B 155      35.030 -16.614  -8.621  1.00 19.30 LIG 0.18  C 
ATOM     40  CB  PRO B 155      35.589 -15.978  -7.355  1.00 17.99 LIG 0.04  C 
ATOM     41  CG  PRO B 155      37.030 -16.387  -7.411  1.00 20.29 LIG 0.02  C 
ATOM     42  CD  PRO B 155      36.946 -17.853  -7.812  1.00 20.15 LIG 0.13  C 
ATOM     43  N   PRO B 155      35.778 -17.873  -8.713  1.00 20.34 LIG-0.34  N 
ATOM     44  C   SER B 154      35.363 -18.904  -9.468  1.00 23.17 LIG 0.24  C 
ATOM     45 O    SER B 154      34.328 -18.856 -10.131  1.00 21.43 LIG-0.27  OA
BRANCH 44 46
ATOM     46  CA  SER B 154      36.234 -20.157  -9.475  1.00 26.04 LIG 0.20  C 
BRANCH 46 47
ATOM     47  N   SER B 154      35.479 -21.342  -9.079  1.00 29.08 LIG-0.34  N 
ATOM     48 H    SER B 154      35.094 -21.751  -9.731  1.00 29.08 LIG 0.16  HD
ATOM     49  C   VAL B 153      35.407 -21.734  -7.811  1.00 31.74 LIG 0.26  C 
ATOM     50 O    VAL B 153      35.959 -21.133  -6.892  1.00 31.76 LIG-0.27  OA
BRANCH 49 51
ATOM     51  CA  VAL B 153      34.586 -22.990  -7.537  1.00 34.29 LIG 0.40  C 
ATOM     52  N   VAL B 153      33.146 -22.743  -7.821  1.00 34.52 LIG 0.61  N 
BRANCH 51 53
ATOM     53  CB  VAL B 153      35.140 -24.142  -8.411  1.00 36.17 LIG 0.03  C 
ATOM     54  CG2 VAL B 153      34.562 -25.468  -7.953  1.00 38.03 LIG 0.01  C 
ATOM     55  CG1 VAL B 153      36.658 -24.170  -8.335  1.00 38.39 LIG 0.01  C 
ENDBRANCH 51 53
ENDBRANCH 49 51
ENDBRANCH 46 47
BRANCH 46 56
ATOM     56  CB  SER B 154      36.833 -20.350 -10.871  1.00 27.48 LIG 0.20  C 
BRANCH 56 57
ATOM     57 OG   SER B 154      37.350 -21.660 -11.027  1.00 30.72 LIG-0.40  OA
ATOM     58 HG   SER B 154      36.716 -22.210 -11.057  1.00 30.72 LIG 0.21  HD
ENDBRANCH 56 57
ENDBRANCH 46 56
ENDBRANCH 44 46
ENDBRANCH 37 39
ENDBRANCH 34 35
BRANCH 34 59
ATOM     59  CB  SER B 156      34.914 -12.096 -10.290  1.00 16.81 LIG 0.20  C 
BRANCH 59 60
ATOM     60 OG   SER B 156      33.768 -12.264  -9.468  1.00 16.65 LIG-0.40  OA
ATOM     61 HG   SER B 156      33.262 -12.843  -9.807  1.00 16.65 LIG 0.21  HD
ENDBRANCH 59 60
ENDBRANCH 34 59
ENDBRANCH 1 34
TORSDOF 24
ENDMDL
MODEL 61
USER: ADFR SOLUTION from run 196
USER: SCORE 16.697981 LL:  -4.780 LR: -13.379 RR:   0.000 FEB:  -6.220
USER: RMSD 12.178633
USER: SEED 195
USER: STATUS no improvement in best in 13 clusters for 5 generations
USER: GENES 26
USER: genes 0 Translation |==|  0.36918 0.63913 0.55570
USER: genes 1 Rotation |==|  0.36389 0.92214 0.71246 0.59017
USER: genes 2 Torsion [C]-N--CA-[C] |==|  0.79100
USER: genes 3 Torsion [N]-CA--C-[N] |==|  0.88949
USER: genes 4 Torsion [C]-N--CA-[C] |==|  0.20567
USER: genes 5 Torsion [N]-CA--C-[N] |==|  0.82319
USER: genes 6 Torsion [C]-N--CA-[CB] |==|  0.21661
USER: genes 7 Torsion [N]-CA--C-[O] |==|  0.39428
USER: genes 8 Torsion [N]-CA--CB-[CG] |==|  0.63475
USER: genes 9 Torsion [CA]-CB--CG-[CD2] |==|  0.44636
USER: genes 10 Torsion [CE2]-CZ--OH-[HH] |==|  0.02735
USER: genes 11 Torsion [N]-CA--CB-[OG] |==|  0.70040
USER: genes 12 Torsion [CA]-CB--OG-[HG] |==|  0.77483
USER: genes 13 Torsion [N]-CA--CB-[CG2] |==|  0.59373
USER: genes 14 Torsion [CA]-CB--OG1-[HG1] |==|  0.13675
USER: genes 15 Torsion [N]-C--CA-[N] |==|  0.64671
USER: genes 16 Torsion [C]-CA--N-[C] |==|  0.15855
USER: genes 17 Torsion [N]-C--CA-[CB] |==|  0.16993
USER: genes 18 Torsion [N]-C--CA-[N] |==|  0.87032
USER: genes 19 Torsion [C]-CA--N-[C] |==|  0.85254
USER: genes 20 Torsion [N]-C--CA-[N] |==|  0.25960
USER: genes 21 Torsion [C]-CA--CB-[CG2] |==|  0.55214
USER: genes 22 Torsion [C]-CA--CB-[OG] |==|  0.03128
USER: genes 23 Torsion [CA]-CB--OG-[HG] |==|  0.12281
USER: genes 24 Torsion [C]-CA--CB-[OG] |==|  0.43549
USER: genes 25 Torsion [CA]-CB--OG-[HG] |==|  0.20164
ROOT
ATOM      1  C   SER B 156      35.336 -13.135  -8.659  1.00 15.87 LIG 0.24  C 
ATOM      2 O    SER B 156      35.884 -13.521  -7.625  1.00 15.60 LIG-0.27  OA
ATOM      3  N   THR B 157      34.043 -13.319  -8.911  1.00 16.26 LIG-0.34  N 
ATOM      4 H    THR B 157      33.639 -13.021  -9.609  1.00 16.26 LIG 0.16  HD
ENDROOT
BRANCH 3 5
ATOM      5  CA  THR B 157      33.198 -14.061  -7.992  1.00 15.91 LIG 0.20  C 
BRANCH 5 6
ATOM      6  C   THR B 157      33.590 -15.516  -8.230  1.00 16.14 LIG 0.24  C 
ATOM      7 O    THR B 157      33.686 -16.299  -7.279  1.00 15.69 LIG-0.27  OA
ATOM      8  N   SER B 158      33.815 -15.883  -9.486  1.00 15.14 LIG-0.34  N 
ATOM      9 H    SER B 158      33.754 -15.356 -10.162  1.00 15.14 LIG 0.16  HD
BRANCH 8 10
ATOM     10  CA  SER B 158      34.192 -17.254  -9.812  1.00 18.36 LIG 0.20  C 
BRANCH 10 11
ATOM     11  C   SER B 158      32.995 -18.193  -9.695  1.00 20.96 LIG 0.24  C 
ATOM     12 O    SER B 158      32.560 -18.786 -10.684  1.00 20.92 LIG-0.27  OA
ATOM     13  N   TYR B 159      32.468 -18.325  -8.482  1.00 23.40 LIG-0.35  N 
ATOM     14 H    TYR B 159      32.761 -17.917  -7.784  1.00 23.40 LIG 0.16  HD
BRANCH 13 15
ATOM     15  CA  TYR B 159      31.322 -19.197  -8.235  1.00 28.83 LIG 0.17  C 
BRANCH 15 16
ATOM     16  C   TYR B 159      30.626 -18.825  -6.931  1.00 30.09 LIG 0.22  C 
ATOM     17 O    TYR B 159      29.378 -18.893  -6.919  1.00 33.46 LIG-0.29  OA
ENDBRANCH 15 16
BRANCH 15 18
ATOM     18  CB  TYR B 159      31.772 -20.658  -8.174  1.00 32.38 LIG 0.07  C 
BRANCH 18 19
ATOM     19  CG  TYR B 159      30.932 -21.588  -9.021  1.00 36.58 LIG-0.06  A 
ATOM     20  CD2 TYR B 159      31.411 -22.840  -9.404  1.00 38.67 LIG 0.01  A 
ATOM     21  CE2 TYR B 159      30.635 -23.704 -10.174  1.00 40.79 LIG 0.04  A 
ATOM     22  CZ  TYR B 159      29.366 -23.314 -10.570  1.00 41.05 LIG 0.07  A 
ATOM     23  CE1 TYR B 159      28.867 -22.074 -10.204  1.00 40.09 LIG 0.04  A 
ATOM     24  CD1 TYR B 159      29.651 -21.220  -9.431  1.00 38.09 LIG 0.01  A 
BRANCH 22 25
ATOM     25 OH   TYR B 159      28.594 -24.162 -11.332  1.00 43.66 LIG-0.36  OA
ATOM     26 HH   TYR B 159      28.959 -24.919 -11.365  1.00 43.66 LIG 0.22  HD
ENDBRANCH 22 25
ENDBRANCH 18 19
ENDBRANCH 15 18
ENDBRANCH 13 15
ENDBRANCH 10 11
BRANCH 10 27
ATOM     27  CB  SER B 158      35.307 -17.731  -8.881  1.00 15.79 LIG 0.20  C 
BRANCH 27 28
ATOM     28 OG   SER B 158      36.541 -17.818  -9.571  1.00 17.90 LIG-0.40  OA
ATOM     29 HG   SER B 158      36.572 -18.540 -10.000  1.00 17.90 LIG 0.21  HD
ENDBRANCH 27 28
ENDBRANCH 10 27
ENDBRANCH 8 10
ENDBRANCH 5 6
BRANCH 5 30
ATOM     30  CB  THR B 157      31.698 -13.894  -8.317  1.00 18.18 LIG 0.15  C 
ATOM     31  CG2 THR B 157      30.867 -13.912  -7.044  1.00 16.96 LIG 0.04  C 
BRANCH 30 32
ATOM     32 OG1  THR B 157      31.494 -12.656  -9.010  1.00 15.90 LIG-0.39  OA
ATOM     33 HG1  THR B 157      32.043 -12.595  -9.643  1.00 15.90 LIG 0.21  HD
ENDBRANCH 30 32
ENDBRANCH 5 30
ENDBRANCH 3 5
BRANCH 1 34
ATOM     34  CA  SER B 156      36.127 -12.402  -9.728  1.00 16.58 LIG 0.20  C 
BRANCH 34 35
ATOM     35  N   SER B 156      37.289 -13.212 -10.072  1.00 15.80 LIG-0.34  N 
ATOM     36 H    SER B 156      38.041 -12.808  -9.970  1.00 15.80 LIG 0.16  HD
ATOM     37  C   PRO B 155      37.178 -14.464 -10.505  1.00 18.36 LIG 0.24  C 
ATOM     38 O    PRO B 155      36.096 -15.032 -10.660  1.00 18.57 LIG-0.27  OA
BRANCH 37 39
ATOM     39  CA  PRO B 155      38.484 -15.179 -10.824  1.00 19.30 LIG 0.18  C 
ATOM     40  CB  PRO B 155      39.385 -15.300  -9.601  1.00 17.99 LIG 0.04  C 
ATOM     41  CG  PRO B 155      40.101 -13.983  -9.611  1.00 20.29 LIG 0.02  C 
ATOM     42  CD  PRO B 155      40.465 -13.810 -11.079  1.00 20.15 LIG 0.13  C 
ATOM     43  N   PRO B 155      39.314 -14.424 -11.769  1.00 20.34 LIG-0.34  N 
ATOM     44  C   SER B 154      39.062 -14.397 -13.089  1.00 23.17 LIG 0.24  C 
ATOM     45 O    SER B 154      38.115 -15.007 -13.587  1.00 21.43 LIG-0.27  OA
BRANCH 44 46
ATOM     46  CA  SER B 154      40.003 -13.572 -13.962  1.00 26.04 LIG 0.20  C 
BRANCH 46 47
ATOM     47  N   SER B 154      40.251 -12.252 -13.391  1.00 29.08 LIG-0.34  N 
ATOM     48 H    SER B 154      41.083 -12.055 -13.301  1.00 29.08 LIG 0.16  HD
ATOM     49  C   VAL B 153      39.255 -11.441 -13.047  1.00 31.74 LIG 0.26  C 
ATOM     50 O    VAL B 153      38.071 -11.742 -13.178  1.00 31.76 LIG-0.27  OA
BRANCH 49 51
ATOM     51  CA  VAL B 153      39.655 -10.089 -12.464  1.00 34.29 LIG 0.40  C 
ATOM     52  N   VAL B 153      39.716  -9.058 -13.537  1.00 34.52 LIG 0.61  N 
BRANCH 51 53
ATOM     53  CB  VAL B 153      38.630  -9.700 -11.371  1.00 36.17 LIG 0.03  C 
ATOM     54  CG2 VAL B 153      38.702  -8.210 -11.095  1.00 38.03 LIG 0.01  C 
ATOM     55  CG1 VAL B 153      38.899 -10.489 -10.099  1.00 38.39 LIG 0.01  C 
ENDBRANCH 51 53
ENDBRANCH 49 51
ENDBRANCH 46 47
BRANCH 46 56
ATOM     56  CB  SER B 154      41.321 -14.330 -14.142  1.00 27.48 LIG 0.20  C 
BRANCH 56 57
ATOM     57 OG   SER B 154      41.207 -15.665 -13.679  1.00 30.72 LIG-0.40  OA
ATOM     58 HG   SER B 154      40.483 -15.994 -13.948  1.00 30.72 LIG 0.21  HD
ENDBRANCH 56 57
ENDBRANCH 46 56
ENDBRANCH 44 46
ENDBRANCH 37 39
ENDBRANCH 34 35
BRANCH 34 59
ATOM     59  CB  SER B 156      35.225 -12.220 -10.949  1.00 16.81 LIG 0.20  C 
BRANCH 59 60
ATOM     60 OG   SER B 156      35.672 -11.128 -11.740  1.00 16.65 LIG-0.40  OA
ATOM     61 HG   SER B 156      36.379 -11.342 -12.139  1.00 16.65 LIG 0.21  HD
ENDBRANCH 59 60
ENDBRANCH 34 59
ENDBRANCH 1 34
TORSDOF 24
ENDMDL
MODEL 62
USER: ADFR SOLUTION from run 53
USER: SCORE 17.085419 LL:  -4.118 LR: -13.384 RR:   0.000 FEB:  -6.225
USER: RMSD 12.674201
USER: SEED 52
USER: STATUS no improvement in best in 8 clusters for 5 generations
USER: GENES 26
USER: genes 0 Translation |==|  0.39191 0.67013 0.47606
USER: genes 1 Rotation |==|  0.14219 0.66285 0.26684 0.70271
USER: genes 2 Torsion [C]-N--CA-[C] |==|  0.74146
USER: genes 3 Torsion [N]-CA--C-[N] |==|  0.36224
USER: genes 4 Torsion [C]-N--CA-[C] |==|  0.77612
USER: genes 5 Torsion [N]-CA--C-[N] |==|  0.96722
USER: genes 6 Torsion [C]-N--CA-[CB] |==|  0.15911
USER: genes 7 Torsion [N]-CA--C-[O] |==|  0.93519
USER: genes 8 Torsion [N]-CA--CB-[CG] |==|  0.34823
USER: genes 9 Torsion [CA]-CB--CG-[CD2] |==|  0.22152
USER: genes 10 Torsion [CE2]-CZ--OH-[HH] |==|  0.66534
USER: genes 11 Torsion [N]-CA--CB-[OG] |==|  0.94605
USER: genes 12 Torsion [CA]-CB--OG-[HG] |==|  0.10190
USER: genes 13 Torsion [N]-CA--CB-[CG2] |==|  0.05859
USER: genes 14 Torsion [CA]-CB--OG1-[HG1] |==|  0.77419
USER: genes 15 Torsion [N]-C--CA-[N] |==|  0.06353
USER: genes 16 Torsion [C]-CA--N-[C] |==|  0.17355
USER: genes 17 Torsion [N]-C--CA-[CB] |==|  0.86817
USER: genes 18 Torsion [N]-C--CA-[N] |==|  0.86963
USER: genes 19 Torsion [C]-CA--N-[C] |==|  0.81003
USER: genes 20 Torsion [N]-C--CA-[N] |==|  0.79471
USER: genes 21 Torsion [C]-CA--CB-[CG2] |==|  0.49635
USER: genes 22 Torsion [C]-CA--CB-[OG] |==|  0.64575
USER: genes 23 Torsion [CA]-CB--OG-[HG] |==|  0.50886
USER: genes 24 Torsion [C]-CA--CB-[OG] |==|  0.46446
USER: genes 25 Torsion [CA]-CB--OG-[HG] |==|  0.60433
ROOT
ATOM      1  C   SER B 156      35.967 -12.414 -10.332  1.00 15.87 LIG 0.24  C 
ATOM      2 O    SER B 156      34.842 -11.975 -10.578  1.00 15.60 LIG-0.27  OA
ATOM      3  N   THR B 157      36.252 -13.713 -10.304  1.00 16.26 LIG-0.34  N 
ATOM      4 H    THR B 157      37.039 -14.033 -10.173  1.00 16.26 LIG 0.16  HD
ENDROOT
BRANCH 3 5
ATOM      5  CA  THR B 157      35.216 -14.713 -10.499  1.00 15.91 LIG 0.20  C 
BRANCH 5 6
ATOM      6  C   THR B 157      34.758 -15.045  -9.082  1.00 16.14 LIG 0.24  C 
ATOM      7 O    THR B 157      35.588 -15.314  -8.207  1.00 15.69 LIG-0.27  OA
ATOM      8  N   SER B 158      33.451 -15.027  -8.851  1.00 15.14 LIG-0.34  N 
ATOM      9 H    SER B 158      32.857 -14.844  -9.444  1.00 15.14 LIG 0.16  HD
BRANCH 8 10
ATOM     10  CA  SER B 158      32.919 -15.329  -7.526  1.00 18.36 LIG 0.20  C 
BRANCH 10 11
ATOM     11  C   SER B 158      32.857 -16.835  -7.291  1.00 20.96 LIG 0.24  C 
ATOM     12 O    SER B 158      32.641 -17.289  -6.166  1.00 20.92 LIG-0.27  OA
ATOM     13  N   TYR B 159      33.045 -17.605  -8.359  1.00 23.40 LIG-0.35  N 
ATOM     14 H    TYR B 159      33.198 -17.301  -9.149  1.00 23.40 LIG 0.16  HD
BRANCH 13 15
ATOM     15  CA  TYR B 159      33.006 -19.062  -8.269  1.00 28.83 LIG 0.17  C 
BRANCH 15 16
ATOM     16  C   TYR B 159      33.220 -19.698  -9.638  1.00 30.09 LIG 0.22  C 
ATOM     17 O    TYR B 159      32.947 -18.995 -10.635  1.00 33.46 LIG-0.29  OA
ENDBRANCH 15 16
BRANCH 15 18
ATOM     18  CB  TYR B 159      31.663 -19.521  -7.697  1.00 32.38 LIG 0.07  C 
BRANCH 18 19
ATOM     19  CG  TYR B 159      30.941 -20.520  -8.574  1.00 36.58 LIG-0.06  A 
ATOM     20  CD2 TYR B 159      31.298 -21.868  -8.569  1.00 38.67 LIG 0.01  A 
ATOM     21  CE2 TYR B 159      30.627 -22.794  -9.367  1.00 40.79 LIG 0.04  A 
ATOM     22  CZ  TYR B 159      29.589 -22.370 -10.181  1.00 41.05 LIG 0.07  A 
ATOM     23  CE1 TYR B 159      29.216 -21.036 -10.204  1.00 40.09 LIG 0.04  A 
ATOM     24  CD1 TYR B 159      29.892 -20.120  -9.401  1.00 38.09 LIG 0.01  A 
BRANCH 22 25
ATOM     25 OH   TYR B 159      28.923 -23.279 -10.972  1.00 43.66 LIG-0.36  OA
ATOM     26 HH   TYR B 159      28.996 -23.055 -11.778  1.00 43.66 LIG 0.22  HD
ENDBRANCH 22 25
ENDBRANCH 18 19
ENDBRANCH 15 18
ENDBRANCH 13 15
ENDBRANCH 10 11
BRANCH 10 27
ATOM     27  CB  SER B 158      31.520 -14.730  -7.371  1.00 15.79 LIG 0.20  C 
BRANCH 27 28
ATOM     28 OG   SER B 158      31.299 -13.706  -8.325  1.00 17.90 LIG-0.40  OA
ATOM     29 HG   SER B 158      31.669 -13.914  -9.050  1.00 17.90 LIG 0.21  HD
ENDBRANCH 27 28
ENDBRANCH 10 27
ENDBRANCH 8 10
ENDBRANCH 5 6
BRANCH 5 30
ATOM     30  CB  THR B 157      35.765 -15.998 -11.155  1.00 18.18 LIG 0.15  C 
ATOM     31  CG2 THR B 157      37.268 -16.103 -10.958  1.00 16.96 LIG 0.04  C 
BRANCH 30 32
ATOM     32 OG1  THR B 157      35.120 -17.142 -10.579  1.00 15.90 LIG-0.39  OA
ATOM     33 HG1  THR B 157      35.489 -17.334  -9.849  1.00 15.90 LIG 0.21  HD
ENDBRANCH 30 32
ENDBRANCH 5 30
ENDBRANCH 3 5
BRANCH 1 34
ATOM     34  CA  SER B 156      37.121 -11.470 -10.047  1.00 16.58 LIG 0.20  C 
BRANCH 34 35
ATOM     35  N   SER B 156      38.366 -12.169 -10.338  1.00 15.80 LIG-0.34  N 
ATOM     36 H    SER B 156      38.879 -12.271  -9.656  1.00 15.80 LIG 0.16  HD
ATOM     37  C   PRO B 155      38.666 -12.604 -11.558  1.00 18.36 LIG 0.24  C 
ATOM     38 O    PRO B 155      37.931 -12.444 -12.533  1.00 18.57 LIG-0.27  OA
BRANCH 37 39
ATOM     39  CA  PRO B 155      40.005 -13.317 -11.703  1.00 19.30 LIG 0.18  C 
ATOM     40  CB  PRO B 155      41.139 -12.547 -11.037  1.00 17.99 LIG 0.04  C 
ATOM     41  CG  PRO B 155      41.534 -11.582 -12.114  1.00 20.29 LIG 0.02  C 
ATOM     42  CD  PRO B 155      41.546 -12.457 -13.360  1.00 20.15 LIG 0.13  C 
ATOM     43  N   PRO B 155      40.442 -13.399 -13.101  1.00 20.34 LIG-0.34  N 
ATOM     44  C   SER B 154      39.928 -14.291 -13.965  1.00 23.17 LIG 0.24  C 
ATOM     45 O    SER B 154      39.056 -15.095 -13.636  1.00 21.43 LIG-0.27  OA
BRANCH 44 46
ATOM     46  CA  SER B 154      40.470 -14.271 -15.392  1.00 26.04 LIG 0.20  C 
BRANCH 46 47
ATOM     47  N   SER B 154      40.529 -12.915 -15.928  1.00 29.08 LIG-0.34  N 
ATOM     48 H    SER B 154      41.326 -12.616 -16.048  1.00 29.08 LIG 0.16  HD
ATOM     49  C   VAL B 153      39.428 -12.222 -16.200  1.00 31.74 LIG 0.26  C 
ATOM     50 O    VAL B 153      38.296 -12.664 -16.016  1.00 31.76 LIG-0.27  OA
BRANCH 49 51
ATOM     51  CA  VAL B 153      39.633 -10.817 -16.758  1.00 34.29 LIG 0.40  C 
ATOM     52  N   VAL B 153      40.091  -9.892 -15.685  1.00 34.52 LIG 0.61  N 
BRANCH 51 53
ATOM     53  CB  VAL B 153      40.664 -10.891 -17.911  1.00 36.17 LIG 0.03  C 
ATOM     54  CG2 VAL B 153      40.871  -9.514 -18.514  1.00 38.03 LIG 0.01  C 
ATOM     55  CG1 VAL B 153      40.190 -11.870 -18.973  1.00 38.39 LIG 0.01  C 
ENDBRANCH 51 53
ENDBRANCH 49 51
ENDBRANCH 46 47
BRANCH 46 56
ATOM     56  CB  SER B 154      41.859 -14.914 -15.414  1.00 27.48 LIG 0.20  C 
BRANCH 56 57
ATOM     57 OG   SER B 154      42.804 -14.061 -16.037  1.00 30.72 LIG-0.40  OA
ATOM     58 HG   SER B 154      43.547 -14.448 -16.078  1.00 30.72 LIG 0.21  HD
ENDBRANCH 56 57
ENDBRANCH 46 56
ENDBRANCH 44 46
ENDBRANCH 37 39
ENDBRANCH 34 35
BRANCH 34 59
ATOM     59  CB  SER B 156      36.972 -10.248 -10.954  1.00 16.81 LIG 0.20  C 
BRANCH 59 60
ATOM     60 OG   SER B 156      37.842  -9.207 -10.534  1.00 16.65 LIG-0.40  OA
ATOM     61 HG   SER B 156      37.459  -8.465 -10.629  1.00 16.65 LIG 0.21  HD
ENDBRANCH 59 60
ENDBRANCH 34 59
ENDBRANCH 1 34
TORSDOF 24
ENDMDL
MODEL 63
USER: ADFR SOLUTION from run 130
USER: SCORE 16.391209 LL:  -4.336 LR: -13.354 RR:   0.000 FEB:  -6.195
USER: RMSD 6.193458
USER: SEED 129
USER: STATUS no improvement in best in 8 clusters for 5 generations
USER: GENES 26
USER: genes 0 Translation |==|  0.43670 0.62008 0.45322
USER: genes 1 Rotation |==|  0.88457 0.66549 0.22668 0.50383
USER: genes 2 Torsion [C]-N--CA-[C] |==|  0.60773
USER: genes 3 Torsion [N]-CA--C-[N] |==|  0.50556
USER: genes 4 Torsion [C]-N--CA-[C] |==|  0.21958
USER: genes 5 Torsion [N]-CA--C-[N] |==|  0.80580
USER: genes 6 Torsion [C]-N--CA-[CB] |==|  0.80466
USER: genes 7 Torsion [N]-CA--C-[O] |==|  0.60027
USER: genes 8 Torsion [N]-CA--CB-[CG] |==|  0.84526
USER: genes 9 Torsion [CA]-CB--CG-[CD2] |==|  0.92212
USER: genes 10 Torsion [CE2]-CZ--OH-[HH] |==|  0.91606
USER: genes 11 Torsion [N]-CA--CB-[OG] |==|  0.47830
USER: genes 12 Torsion [CA]-CB--OG-[HG] |==|  0.68348
USER: genes 13 Torsion [N]-CA--CB-[CG2] |==|  0.83119
USER: genes 14 Torsion [CA]-CB--OG1-[HG1] |==|  0.17185
USER: genes 15 Torsion [N]-C--CA-[N] |==|  0.44294
USER: genes 16 Torsion [C]-CA--N-[C] |==|  0.75365
USER: genes 17 Torsion [N]-C--CA-[CB] |==|  0.50520
USER: genes 18 Torsion [N]-C--CA-[N] |==|  0.43224
USER: genes 19 Torsion [C]-CA--N-[C] |==|  0.59415
USER: genes 20 Torsion [N]-C--CA-[N] |==|  0.87097
USER: genes 21 Torsion [C]-CA--CB-[CG2] |==|  0.45744
USER: genes 22 Torsion [C]-CA--CB-[OG] |==|  0.63989
USER: genes 23 Torsion [CA]-CB--OG-[HG] |==|  0.90277
USER: genes 24 Torsion [C]-CA--CB-[OG] |==|  0.61977
USER: genes 25 Torsion [CA]-CB--OG-[HG] |==|  0.91417
ROOT
ATOM      1  C   SER B 156      37.209 -13.578 -10.811  1.00 15.87 LIG 0.24  C 
ATOM      2 O    SER B 156      37.835 -13.778  -9.769  1.00 15.60 LIG-0.27  OA
ATOM      3  N   THR B 157      37.797 -13.362 -11.984  1.00 16.26 LIG-0.34  N 
ATOM      4 H    THR B 157      37.374 -13.261 -12.726  1.00 16.26 LIG 0.16  HD
ENDROOT
BRANCH 3 5
ATOM      5  CA  THR B 157      39.243 -13.280 -12.095  1.00 15.91 LIG 0.20  C 
BRANCH 5 6
ATOM      6  C   THR B 157      39.468 -12.164 -13.111  1.00 16.14 LIG 0.24  C 
ATOM      7 O    THR B 157      38.506 -11.554 -13.588  1.00 15.69 LIG-0.27  OA
ATOM      8  N   SER B 158      40.725 -11.895 -13.443  1.00 15.14 LIG-0.34  N 
ATOM      9 H    SER B 158      41.409 -12.306 -13.124  1.00 15.14 LIG 0.16  HD
BRANCH 8 10
ATOM     10  CA  SER B 158      41.039 -10.843 -14.404  1.00 18.36 LIG 0.20  C 
BRANCH 10 11
ATOM     11  C   SER B 158      40.968  -9.466 -13.751  1.00 20.96 LIG 0.24  C 
ATOM     12 O    SER B 158      41.992  -8.808 -13.556  1.00 20.92 LIG-0.27  OA
ATOM     13  N   TYR B 159      39.756  -9.036 -13.416  1.00 23.40 LIG-0.35  N 
ATOM     14 H    TYR B 159      39.034  -9.486 -13.545  1.00 23.40 LIG 0.16  HD
BRANCH 13 15
ATOM     15  CA  TYR B 159      39.552  -7.734 -12.788  1.00 28.83 LIG 0.17  C 
BRANCH 15 16
ATOM     16  C   TYR B 159      40.246  -6.631 -13.580  1.00 30.09 LIG 0.22  C 
ATOM     17 O    TYR B 159      40.756  -5.699 -12.922  1.00 33.46 LIG-0.29  OA
ENDBRANCH 15 16
BRANCH 15 18
ATOM     18  CB  TYR B 159      40.090  -7.748 -11.355  1.00 32.38 LIG 0.07  C 
BRANCH 18 19
ATOM     19  CG  TYR B 159      39.497  -8.842 -10.495  1.00 36.58 LIG-0.06  A 
ATOM     20  CD2 TYR B 159      38.217  -9.337 -10.745  1.00 38.67 LIG 0.01  A 
ATOM     21  CE2 TYR B 159      37.673 -10.353  -9.963  1.00 40.79 LIG 0.04  A 
ATOM     22  CZ  TYR B 159      38.411 -10.881  -8.916  1.00 41.05 LIG 0.07  A 
ATOM     23  CE1 TYR B 159      39.684 -10.405  -8.646  1.00 40.09 LIG 0.04  A 
ATOM     24  CD1 TYR B 159      40.220  -9.391  -9.436  1.00 38.09 LIG 0.01  A 
BRANCH 22 25
ATOM     25 OH   TYR B 159      37.878 -11.884  -8.138  1.00 43.66 LIG-0.36  OA
ATOM     26 HH   TYR B 159      37.043 -11.802  -8.108  1.00 43.66 LIG 0.22  HD
ENDBRANCH 22 25
ENDBRANCH 18 19
ENDBRANCH 15 18
ENDBRANCH 13 15
ENDBRANCH 10 11
BRANCH 10 27
ATOM     27  CB  SER B 158      40.067 -10.899 -15.584  1.00 15.79 LIG 0.20  C 
BRANCH 27 28
ATOM     28 OG   SER B 158      40.240  -9.782 -16.437  1.00 17.90 LIG-0.40  OA
ATOM     29 HG   SER B 158      39.552  -9.300 -16.412  1.00 17.90 LIG 0.21  HD
ENDBRANCH 27 28
ENDBRANCH 10 27
ENDBRANCH 8 10
ENDBRANCH 5 6
BRANCH 5 30
ATOM     30  CB  THR B 157      39.860 -14.584 -12.647  1.00 18.18 LIG 0.15  C 
ATOM     31  CG2 THR B 157      39.554 -15.754 -11.727  1.00 16.96 LIG 0.04  C 
BRANCH 30 32
ATOM     32 OG1  THR B 157      39.332 -14.845 -13.955  1.00 15.90 LIG-0.39  OA
ATOM     33 HG1  THR B 157      39.545 -14.219 -14.473  1.00 15.90 LIG 0.21  HD
ENDBRANCH 30 32
ENDBRANCH 5 30
ENDBRANCH 3 5
BRANCH 1 34
ATOM     34  CA  SER B 156      35.691 -13.576 -10.814  1.00 16.58 LIG 0.20  C 
BRANCH 34 35
ATOM     35  N   SER B 156      35.231 -14.288  -9.628  1.00 15.80 LIG-0.34  N 
ATOM     36 H    SER B 156      35.104 -13.784  -8.943  1.00 15.80 LIG 0.16  HD
ATOM     37  C   PRO B 155      35.031 -15.602  -9.624  1.00 18.36 LIG 0.24  C 
ATOM     38 O    PRO B 155      35.226 -16.319 -10.606  1.00 18.57 LIG-0.27  OA
BRANCH 37 39
ATOM     39  CA  PRO B 155      34.549 -16.200  -8.308  1.00 19.30 LIG 0.18  C 
ATOM     40  CB  PRO B 155      34.393 -17.714  -8.389  1.00 17.99 LIG 0.04  C 
ATOM     41  CG  PRO B 155      33.014 -17.854  -8.961  1.00 20.29 LIG 0.02  C 
ATOM     42  CD  PRO B 155      32.216 -16.830  -8.165  1.00 20.15 LIG 0.13  C 
ATOM     43  N   PRO B 155      33.198 -15.750  -7.956  1.00 20.34 LIG-0.34  N 
ATOM     44  C   SER B 154      32.956 -14.534  -7.437  1.00 23.17 LIG 0.24  C 
ATOM     45 O    SER B 154      33.855 -13.721  -7.226  1.00 21.43 LIG-0.27  OA
BRANCH 44 46
ATOM     46  CA  SER B 154      31.504 -14.190  -7.115  1.00 26.04 LIG 0.20  C 
BRANCH 46 47
ATOM     47  N   SER B 154      31.409 -13.163  -6.083  1.00 29.08 LIG-0.34  N 
ATOM     48 H    SER B 154      32.041 -12.579  -6.105  1.00 29.08 LIG 0.16  HD
ATOM     49  C   VAL B 153      30.421 -13.153  -5.194  1.00 31.74 LIG 0.26  C 
ATOM     50 O    VAL B 153      29.530 -13.999  -5.174  1.00 31.76 LIG-0.27  OA
BRANCH 49 51
ATOM     51  CA  VAL B 153      30.441 -12.020  -4.172  1.00 34.29 LIG 0.40  C 
ATOM     52  N   VAL B 153      31.807 -11.862  -3.599  1.00 34.52 LIG 0.61  N 
BRANCH 51 53
ATOM     53  CB  VAL B 153      29.971 -10.719  -4.867  1.00 36.17 LIG 0.03  C 
ATOM     54  CG2 VAL B 153      29.617  -9.672  -3.829  1.00 38.03 LIG 0.01  C 
ATOM     55  CG1 VAL B 153      28.775 -11.007  -5.760  1.00 38.39 LIG 0.01  C 
ENDBRANCH 51 53
ENDBRANCH 49 51
ENDBRANCH 46 47
BRANCH 46 56
ATOM     56  CB  SER B 154      30.798 -13.729  -8.392  1.00 27.48 LIG 0.20  C 
BRANCH 56 57
ATOM     57 OG   SER B 154      30.121 -12.501  -8.183  1.00 30.72 LIG-0.40  OA
ATOM     58 HG   SER B 154      29.815 -12.479  -7.402  1.00 30.72 LIG 0.21  HD
ENDBRANCH 56 57
ENDBRANCH 46 56
ENDBRANCH 44 46
ENDBRANCH 37 39
ENDBRANCH 34 35
BRANCH 34 59
ATOM     59  CB  SER B 156      35.216 -12.122 -10.778  1.00 16.81 LIG 0.20  C 
BRANCH 59 60
ATOM     60 OG   SER B 156      34.138 -11.972  -9.867  1.00 16.65 LIG-0.40  OA
ATOM     61 HG   SER B 156      33.693 -12.684  -9.840  1.00 16.65 LIG 0.21  HD
ENDBRANCH 59 60
ENDBRANCH 34 59
ENDBRANCH 1 34
TORSDOF 24
ENDMDL
MODEL 64
USER: ADFR SOLUTION from run 47
USER: SCORE 16.246470 LL:  -4.256 LR: -13.350 RR:   0.000 FEB:  -6.191
USER: RMSD 4.742464
USER: SEED 46
USER: STATUS searching
USER: GENES 26
USER: genes 0 Translation |==|  0.37208 0.63861 0.48692
USER: genes 1 Rotation |==|  0.64286 0.61768 0.41185 0.95604
USER: genes 2 Torsion [C]-N--CA-[C] |==|  0.54843
USER: genes 3 Torsion [N]-CA--C-[N] |==|  0.40078
USER: genes 4 Torsion [C]-N--CA-[C] |==|  0.74512
USER: genes 5 Torsion [N]-CA--C-[N] |==|  0.91164
USER: genes 6 Torsion [C]-N--CA-[CB] |==|  0.14433
USER: genes 7 Torsion [N]-CA--C-[O] |==|  0.11337
USER: genes 8 Torsion [N]-CA--CB-[CG] |==|  0.17953
USER: genes 9 Torsion [CA]-CB--CG-[CD2] |==|  0.75470
USER: genes 10 Torsion [CE2]-CZ--OH-[HH] |==|  0.33577
USER: genes 11 Torsion [N]-CA--CB-[OG] |==|  0.01536
USER: genes 12 Torsion [CA]-CB--OG-[HG] |==|  0.25632
USER: genes 13 Torsion [N]-CA--CB-[CG2] |==|  0.10332
USER: genes 14 Torsion [CA]-CB--OG1-[HG1] |==|  0.14538
USER: genes 15 Torsion [N]-C--CA-[N] |==|  0.51665
USER: genes 16 Torsion [C]-CA--N-[C] |==|  0.77448
USER: genes 17 Torsion [N]-C--CA-[CB] |==|  0.63605
USER: genes 18 Torsion [N]-C--CA-[N] |==|  0.22163
USER: genes 19 Torsion [C]-CA--N-[C] |==|  0.68115
USER: genes 20 Torsion [N]-C--CA-[N] |==|  0.46685
USER: genes 21 Torsion [C]-CA--CB-[CG2] |==|  0.24727
USER: genes 22 Torsion [C]-CA--CB-[OG] |==|  0.82001
USER: genes 23 Torsion [CA]-CB--OG-[HG] |==|  0.13388
USER: genes 24 Torsion [C]-CA--CB-[OG] |==|  0.71889
USER: genes 25 Torsion [CA]-CB--OG-[HG] |==|  0.08729
ROOT
ATOM      1  C   SER B 156      35.416 -13.147 -10.104  1.00 15.87 LIG 0.24  C 
ATOM      2 O    SER B 156      34.466 -12.372 -10.224  1.00 15.60 LIG-0.27  OA
ATOM      3  N   THR B 157      36.632 -12.890 -10.577  1.00 16.26 LIG-0.34  N 
ATOM      4 H    THR B 157      37.313 -13.403 -10.467  1.00 16.26 LIG 0.16  HD
ENDROOT
BRANCH 3 5
ATOM      5  CA  THR B 157      36.899 -11.683 -11.340  1.00 15.91 LIG 0.20  C 
BRANCH 5 6
ATOM      6  C   THR B 157      38.217 -11.983 -12.047  1.00 16.14 LIG 0.24  C 
ATOM      7 O    THR B 157      39.087 -12.654 -11.482  1.00 15.69 LIG-0.27  OA
ATOM      8  N   SER B 158      38.370 -11.496 -13.272  1.00 15.14 LIG-0.34  N 
ATOM      9 H    SER B 158      37.779 -11.027 -13.684  1.00 15.14 LIG 0.16  HD
BRANCH 8 10
ATOM     10  CA  SER B 158      39.595 -11.733 -14.029  1.00 18.36 LIG 0.20  C 
BRANCH 10 11
ATOM     11  C   SER B 158      40.603 -10.611 -13.802  1.00 20.96 LIG 0.24  C 
ATOM     12 O    SER B 158      41.815 -10.838 -13.828  1.00 20.92 LIG-0.27  OA
ATOM     13  N   TYR B 159      40.098  -9.402 -13.583  1.00 23.40 LIG-0.35  N 
ATOM     14 H    TYR B 159      39.255  -9.230 -13.561  1.00 23.40 LIG 0.16  HD
BRANCH 13 15
ATOM     15  CA  TYR B 159      40.956  -8.242 -13.356  1.00 28.83 LIG 0.17  C 
BRANCH 15 16
ATOM     16  C   TYR B 159      40.134  -6.960 -13.295  1.00 30.09 LIG 0.22  C 
ATOM     17 O    TYR B 159      39.048  -7.015 -12.679  1.00 33.46 LIG-0.29  OA
ENDBRANCH 15 16
BRANCH 15 18
ATOM     18  CB  TYR B 159      41.997  -8.128 -14.473  1.00 32.38 LIG 0.07  C 
BRANCH 18 19
ATOM     19  CG  TYR B 159      41.398  -7.856 -15.835  1.00 36.58 LIG-0.06  A 
ATOM     20  CD2 TYR B 159      40.998  -8.903 -16.665  1.00 38.67 LIG 0.01  A 
ATOM     21  CE2 TYR B 159      40.435  -8.655 -17.916  1.00 40.79 LIG 0.04  A 
ATOM     22  CZ  TYR B 159      40.271  -7.348 -18.345  1.00 41.05 LIG 0.07  A 
ATOM     23  CE1 TYR B 159      40.662  -6.291 -17.540  1.00 40.09 LIG 0.04  A 
ATOM     24  CD1 TYR B 159      41.221  -6.550 -16.290  1.00 38.09 LIG 0.01  A 
BRANCH 22 25
ATOM     25 OH   TYR B 159      39.716  -7.097 -19.580  1.00 43.66 LIG-0.36  OA
ATOM     26 HH   TYR B 159      39.023  -6.632 -19.487  1.00 43.66 LIG 0.22  HD
ENDBRANCH 22 25
ENDBRANCH 18 19
ENDBRANCH 15 18
ENDBRANCH 13 15
ENDBRANCH 10 11
BRANCH 10 27
ATOM     27  CB  SER B 158      39.280 -11.844 -15.521  1.00 15.79 LIG 0.20  C 
BRANCH 27 28
ATOM     28 OG   SER B 158      37.915 -11.561 -15.773  1.00 17.90 LIG-0.40  OA
ATOM     29 HG   SER B 158      37.825 -10.744 -15.947  1.00 17.90 LIG 0.21  HD
ENDBRANCH 27 28
ENDBRANCH 10 27
ENDBRANCH 8 10
ENDBRANCH 5 6
BRANCH 5 30
ATOM     30  CB  THR B 157      37.096 -10.451 -10.430  1.00 18.18 LIG 0.15  C 
ATOM     31  CG2 THR B 157      37.841 -10.834  -9.162  1.00 16.96 LIG 0.04  C 
BRANCH 30 32
ATOM     32 OG1  THR B 157      37.833  -9.445 -11.139  1.00 15.90 LIG-0.39  OA
ATOM     33 HG1  THR B 157      37.462  -9.295 -11.877  1.00 15.90 LIG 0.21  HD
ENDBRANCH 30 32
ENDBRANCH 5 30
ENDBRANCH 3 5
BRANCH 1 34
ATOM     34  CA  SER B 156      35.247 -14.472  -9.381  1.00 16.58 LIG 0.20  C 
BRANCH 34 35
ATOM     35  N   SER B 156      33.835 -14.642  -9.064  1.00 15.80 LIG-0.34  N 
ATOM     36 H    SER B 156      33.409 -15.146  -9.616  1.00 15.80 LIG 0.16  HD
ATOM     37  C   PRO B 155      33.270 -14.063  -8.009  1.00 18.36 LIG 0.24  C 
ATOM     38 O    PRO B 155      33.885 -13.334  -7.229  1.00 18.57 LIG-0.27  OA
BRANCH 37 39
ATOM     39  CA  PRO B 155      31.785 -14.337  -7.811  1.00 19.30 LIG 0.18  C 
ATOM     40  CB  PRO B 155      30.993 -13.058  -7.572  1.00 17.99 LIG 0.04  C 
ATOM     41  CG  PRO B 155      31.156 -12.862  -6.094  1.00 20.29 LIG 0.02  C 
ATOM     42  CD  PRO B 155      30.936 -14.265  -5.545  1.00 20.15 LIG 0.13  C 
ATOM     43  N   PRO B 155      31.521 -15.117  -6.597  1.00 20.34 LIG-0.34  N 
ATOM     44  C   SER B 154      31.726 -16.444  -6.534  1.00 23.17 LIG 0.24  C 
ATOM     45 O    SER B 154      32.149 -17.087  -7.494  1.00 21.43 LIG-0.27  OA
BRANCH 44 46
ATOM     46  CA  SER B 154      31.413 -17.136  -5.211  1.00 26.04 LIG 0.20  C 
BRANCH 46 47
ATOM     47  N   SER B 154      29.983 -17.383  -5.056  1.00 29.08 LIG-0.34  N 
ATOM     48 H    SER B 154      29.655 -17.938  -5.626  1.00 29.08 LIG 0.16  HD
ATOM     49  C   VAL B 153      29.268 -16.786  -4.107  1.00 31.74 LIG 0.26  C 
ATOM     50 O    VAL B 153      29.752 -15.990  -3.306  1.00 31.76 LIG-0.27  OA
BRANCH 49 51
ATOM     51  CA  VAL B 153      27.784 -17.136  -4.057  1.00 34.29 LIG 0.40  C 
ATOM     52  N   VAL B 153      27.174 -16.634  -2.795  1.00 34.52 LIG 0.61  N 
BRANCH 51 53
ATOM     53  CB  VAL B 153      27.090 -16.522  -5.297  1.00 36.17 LIG 0.03  C 
ATOM     54  CG2 VAL B 153      27.134 -17.499  -6.456  1.00 38.03 LIG 0.01  C 
ATOM     55  CG1 VAL B 153      27.765 -15.214  -5.679  1.00 38.39 LIG 0.01  C 
ENDBRANCH 51 53
ENDBRANCH 49 51
ENDBRANCH 46 47
BRANCH 46 56
ATOM     56  CB  SER B 154      32.192 -18.452  -5.130  1.00 27.48 LIG 0.20  C 
BRANCH 56 57
ATOM     57 OG   SER B 154      31.758 -19.361  -6.128  1.00 30.72 LIG-0.40  OA
ATOM     58 HG   SER B 154      31.726 -18.969  -6.869  1.00 30.72 LIG 0.21  HD
ENDBRANCH 56 57
ENDBRANCH 46 56
ENDBRANCH 44 46
ENDBRANCH 37 39
ENDBRANCH 34 35
BRANCH 34 59
ATOM     59  CB  SER B 156      35.720 -15.588 -10.314  1.00 16.81 LIG 0.20  C 
BRANCH 59 60
ATOM     60 OG   SER B 156      34.611 -16.235 -10.920  1.00 16.65 LIG-0.40  OA
ATOM     61 HG   SER B 156      33.985 -15.684 -11.021  1.00 16.65 LIG 0.21  HD
ENDBRANCH 59 60
ENDBRANCH 34 59
ENDBRANCH 1 34
TORSDOF 24
ENDMDL
MODEL 65
USER: ADFR SOLUTION from run 91
USER: SCORE 17.088153 LL:  -4.247 LR: -13.341 RR:   0.000 FEB:  -6.182
USER: RMSD 5.378198
USER: SEED 90
USER: STATUS no improvement in best in 12 clusters for 5 generations
USER: GENES 26
USER: genes 0 Translation |==|  0.29450 0.61168 0.59096
USER: genes 1 Rotation |==|  0.88466 0.69843 0.28014 0.61969
USER: genes 2 Torsion [C]-N--CA-[C] |==|  0.56990
USER: genes 3 Torsion [N]-CA--C-[N] |==|  0.48744
USER: genes 4 Torsion [C]-N--CA-[C] |==|  0.72747
USER: genes 5 Torsion [N]-CA--C-[N] |==|  0.42074
USER: genes 6 Torsion [C]-N--CA-[CB] |==|  0.78465
USER: genes 7 Torsion [N]-CA--C-[O] |==|  0.26767
USER: genes 8 Torsion [N]-CA--CB-[CG] |==|  0.92961
USER: genes 9 Torsion [CA]-CB--CG-[CD2] |==|  0.77673
USER: genes 10 Torsion [CE2]-CZ--OH-[HH] |==|  0.49800
USER: genes 11 Torsion [N]-CA--CB-[OG] |==|  0.89116
USER: genes 12 Torsion [CA]-CB--OG-[HG] |==|  0.76873
USER: genes 13 Torsion [N]-CA--CB-[CG2] |==|  0.52875
USER: genes 14 Torsion [CA]-CB--OG1-[HG1] |==|  0.99176
USER: genes 15 Torsion [N]-C--CA-[N] |==|  0.33694
USER: genes 16 Torsion [C]-CA--N-[C] |==|  0.77453
USER: genes 17 Torsion [N]-C--CA-[CB] |==|  0.81923
USER: genes 18 Torsion [N]-C--CA-[N] |==|  0.88577
USER: genes 19 Torsion [C]-CA--N-[C] |==|  0.84444
USER: genes 20 Torsion [N]-C--CA-[N] |==|  0.22921
USER: genes 21 Torsion [C]-CA--CB-[CG2] |==|  0.50701
USER: genes 22 Torsion [C]-CA--CB-[OG] |==|  0.45296
USER: genes 23 Torsion [CA]-CB--OG-[HG] |==|  0.15079
USER: genes 24 Torsion [C]-CA--CB-[OG] |==|  0.28496
USER: genes 25 Torsion [CA]-CB--OG-[HG] |==|  0.95009
ROOT
ATOM      1  C   SER B 156      33.263 -13.773  -7.919  1.00 15.87 LIG 0.24  C 
ATOM      2 O    SER B 156      33.521 -13.563  -6.732  1.00 15.60 LIG-0.27  OA
ATOM      3  N   THR B 157      34.121 -13.530  -8.905  1.00 16.26 LIG-0.34  N 
ATOM      4 H    THR B 157      33.970 -13.708  -9.733  1.00 16.26 LIG 0.16  HD
ENDROOT
BRANCH 3 5
ATOM      5  CA  THR B 157      35.415 -12.925  -8.642  1.00 15.91 LIG 0.20  C 
BRANCH 5 6
ATOM      6  C   THR B 157      35.778 -12.251  -9.962  1.00 16.14 LIG 0.24  C 
ATOM      7 O    THR B 157      35.049 -12.386 -10.950  1.00 15.69 LIG-0.27  OA
ATOM      8  N   SER B 158      36.891 -11.529  -9.985  1.00 15.14 LIG-0.34  N 
ATOM      9 H    SER B 158      37.413 -11.422  -9.310  1.00 15.14 LIG 0.16  HD
BRANCH 8 10
ATOM     10  CA  SER B 158      37.318 -10.844 -11.200  1.00 18.36 LIG 0.20  C 
BRANCH 10 11
ATOM     11  C   SER B 158      38.372 -11.659 -11.945  1.00 20.96 LIG 0.24  C 
ATOM     12 O    SER B 158      39.126 -12.420 -11.336  1.00 20.92 LIG-0.27  OA
ATOM     13  N   TYR B 159      38.417 -11.495 -13.263  1.00 23.40 LIG-0.35  N 
ATOM     14 H    TYR B 159      37.898 -10.966 -13.700  1.00 23.40 LIG 0.16  HD
BRANCH 13 15
ATOM     15  CA  TYR B 159      39.377 -12.219 -14.092  1.00 28.83 LIG 0.17  C 
BRANCH 15 16
ATOM     16  C   TYR B 159      39.459 -13.684 -13.678  1.00 30.09 LIG 0.22  C 
ATOM     17 O    TYR B 159      38.766 -14.494 -14.331  1.00 33.46 LIG-0.29  OA
ENDBRANCH 15 16
BRANCH 15 18
ATOM     18  CB  TYR B 159      40.763 -11.579 -13.978  1.00 32.38 LIG 0.07  C 
BRANCH 18 19
ATOM     19  CG  TYR B 159      40.726 -10.115 -13.599  1.00 36.58 LIG-0.06  A 
ATOM     20  CD2 TYR B 159      40.466  -9.133 -14.554  1.00 38.67 LIG 0.01  A 
ATOM     21  CE2 TYR B 159      40.419  -7.784 -14.206  1.00 40.79 LIG 0.04  A 
ATOM     22  CZ  TYR B 159      40.637  -7.410 -12.890  1.00 41.05 LIG 0.07  A 
ATOM     23  CE1 TYR B 159      40.899  -8.366 -11.923  1.00 40.09 LIG 0.04  A 
ATOM     24  CD1 TYR B 159      40.940  -9.712 -12.281  1.00 38.09 LIG 0.01  A 
BRANCH 22 25
ATOM     25 OH   TYR B 159      40.593  -6.079 -12.540  1.00 43.66 LIG-0.36  OA
ATOM     26 HH   TYR B 159      40.732  -6.001 -11.715  1.00 43.66 LIG 0.22  HD
ENDBRANCH 22 25
ENDBRANCH 18 19
ENDBRANCH 15 18
ENDBRANCH 13 15
ENDBRANCH 10 11
BRANCH 10 27
ATOM     27  CB  SER B 158      37.886  -9.466 -10.857  1.00 15.79 LIG 0.20  C 
BRANCH 27 28
ATOM     28 OG   SER B 158      37.132  -8.849  -9.829  1.00 17.90 LIG-0.40  OA
ATOM     29 HG   SER B 158      36.458  -8.473 -10.162  1.00 17.90 LIG 0.21  HD
ENDBRANCH 27 28
ENDBRANCH 10 27
ENDBRANCH 8 10
ENDBRANCH 5 6
BRANCH 5 30
ATOM     30  CB  THR B 157      36.494 -13.980  -8.313  1.00 18.18 LIG 0.15  C 
ATOM     31  CG2 THR B 157      37.758 -13.312  -7.798  1.00 16.96 LIG 0.04  C 
BRANCH 30 32
ATOM     32 OG1  THR B 157      35.989 -14.888  -7.324  1.00 15.90 LIG-0.39  OA
ATOM     33 HG1  THR B 157      35.221 -14.645  -7.087  1.00 15.90 LIG 0.21  HD
ENDBRANCH 30 32
ENDBRANCH 5 30
ENDBRANCH 3 5
BRANCH 1 34
ATOM     34  CA  SER B 156      31.918 -14.345  -8.329  1.00 16.58 LIG 0.20  C 
BRANCH 34 35
ATOM     35  N   SER B 156      31.741 -15.626  -7.657  1.00 15.80 LIG-0.34  N 
ATOM     36 H    SER B 156      31.256 -15.588  -6.948  1.00 15.80 LIG 0.16  HD
ATOM     37  C   PRO B 155      32.290 -16.748  -8.114  1.00 18.36 LIG 0.24  C 
ATOM     38 O    PRO B 155      32.994 -16.793  -9.124  1.00 18.57 LIG-0.27  OA
BRANCH 37 39
ATOM     39  CA  PRO B 155      32.014 -18.006  -7.301  1.00 19.30 LIG 0.18  C 
ATOM     40  CB  PRO B 155      32.629 -17.936  -5.909  1.00 17.99 LIG 0.04  C 
ATOM     41  CG  PRO B 155      34.030 -18.405  -6.163  1.00 20.29 LIG 0.02  C 
ATOM     42  CD  PRO B 155      33.820 -19.603  -7.080  1.00 20.15 LIG 0.13  C 
ATOM     43  N   PRO B 155      32.652 -19.193  -7.881  1.00 20.34 LIG-0.34  N 
ATOM     44  C   SER B 154      32.149 -19.831  -8.952  1.00 23.17 LIG 0.24  C 
ATOM     45 O    SER B 154      31.119 -19.457  -9.513  1.00 21.43 LIG-0.27  OA
BRANCH 44 46
ATOM     46  CA  SER B 154      32.910 -21.053  -9.456  1.00 26.04 LIG 0.20  C 
BRANCH 46 47
ATOM     47  N   SER B 154      34.353 -20.838  -9.432  1.00 29.08 LIG-0.34  N 
ATOM     48 H    SER B 154      34.791 -21.424  -8.979  1.00 29.08 LIG 0.16  HD
ATOM     49  C   VAL B 153      34.919 -19.815 -10.064  1.00 31.74 LIG 0.26  C 
ATOM     50 O    VAL B 153      34.276 -18.984 -10.702  1.00 31.76 LIG-0.27  OA
BRANCH 49 51
ATOM     51  CA  VAL B 153      36.437 -19.710  -9.958  1.00 34.29 LIG 0.40  C 
ATOM     52  N   VAL B 153      37.091 -20.600 -10.958  1.00 34.52 LIG 0.61  N 
BRANCH 51 53
ATOM     53  CB  VAL B 153      36.846 -18.232 -10.173  1.00 36.17 LIG 0.03  C 
ATOM     54  CG2 VAL B 153      38.356 -18.098 -10.137  1.00 38.03 LIG 0.01  C 
ATOM     55  CG1 VAL B 153      36.209 -17.355  -9.107  1.00 38.39 LIG 0.01  C 
ENDBRANCH 51 53
ENDBRANCH 49 51
ENDBRANCH 46 47
BRANCH 46 56
ATOM     56  CB  SER B 154      32.538 -22.269  -8.603  1.00 27.48 LIG 0.20  C 
BRANCH 56 57
ATOM     57 OG   SER B 154      32.902 -23.476  -9.251  1.00 30.72 LIG-0.40  OA
ATOM     58 HG   SER B 154      33.716 -23.451  -9.454  1.00 30.72 LIG 0.21  HD
ENDBRANCH 56 57
ENDBRANCH 46 56
ENDBRANCH 44 46
ENDBRANCH 37 39
ENDBRANCH 34 35
BRANCH 34 59
ATOM     59  CB  SER B 156      30.830 -13.362  -7.893  1.00 16.81 LIG 0.20  C 
BRANCH 59 60
ATOM     60 OG   SER B 156      30.363 -12.611  -9.004  1.00 16.65 LIG-0.40  OA
ATOM     61 HG   SER B 156      30.921 -12.661  -9.631  1.00 16.65 LIG 0.21  HD
ENDBRANCH 59 60
ENDBRANCH 34 59
ENDBRANCH 1 34
TORSDOF 24
ENDMDL
MODEL 66
USER: ADFR SOLUTION from run 130
USER: SCORE 16.043308 LL:  -3.886 LR: -13.335 RR:   0.000 FEB:  -6.176
USER: RMSD 6.339417
USER: SEED 129
USER: STATUS no improvement in best in 8 clusters for 5 generations
USER: GENES 26
USER: genes 0 Translation |==|  0.43916 0.63666 0.44102
USER: genes 1 Rotation |==|  0.13530 0.28574 0.76099 0.55453
USER: genes 2 Torsion [C]-N--CA-[C] |==|  0.75170
USER: genes 3 Torsion [N]-CA--C-[N] |==|  0.92248
USER: genes 4 Torsion [C]-N--CA-[C] |==|  0.22495
USER: genes 5 Torsion [N]-CA--C-[N] |==|  0.83568
USER: genes 6 Torsion [C]-N--CA-[CB] |==|  0.83723
USER: genes 7 Torsion [N]-CA--C-[O] |==|  0.72268
USER: genes 8 Torsion [N]-CA--CB-[CG] |==|  0.75282
USER: genes 9 Torsion [CA]-CB--CG-[CD2] |==|  0.10762
USER: genes 10 Torsion [CE2]-CZ--OH-[HH] |==|  0.95713
USER: genes 11 Torsion [N]-CA--CB-[OG] |==|  0.40104
USER: genes 12 Torsion [CA]-CB--OG-[HG] |==|  0.69117
USER: genes 13 Torsion [N]-CA--CB-[CG2] |==|  0.78619
USER: genes 14 Torsion [CA]-CB--OG1-[HG1] |==|  0.15633
USER: genes 15 Torsion [N]-C--CA-[N] |==|  0.48025
USER: genes 16 Torsion [C]-CA--N-[C] |==|  0.73357
USER: genes 17 Torsion [N]-C--CA-[CB] |==|  0.51716
USER: genes 18 Torsion [N]-C--CA-[N] |==|  0.44868
USER: genes 19 Torsion [C]-CA--N-[C] |==|  0.58889
USER: genes 20 Torsion [N]-C--CA-[N] |==|  0.86725
USER: genes 21 Torsion [C]-CA--CB-[CG2] |==|  0.45152
USER: genes 22 Torsion [C]-CA--CB-[OG] |==|  0.60064
USER: genes 23 Torsion [CA]-CB--OG-[HG] |==|  0.85978
USER: genes 24 Torsion [C]-CA--CB-[OG] |==|  0.59936
USER: genes 25 Torsion [CA]-CB--OG-[HG] |==|  0.92378
ROOT
ATOM      1  C   SER B 156      37.278 -13.193 -11.068  1.00 15.87 LIG 0.24  C 
ATOM      2 O    SER B 156      38.002 -13.653 -10.184  1.00 15.60 LIG-0.27  OA
ATOM      3  N   THR B 157      37.748 -12.604 -12.163  1.00 16.26 LIG-0.34  N 
ATOM      4 H    THR B 157      37.257 -12.313 -12.806  1.00 16.26 LIG 0.16  HD
ENDROOT
BRANCH 3 5
ATOM      5  CA  THR B 157      39.175 -12.404 -12.353  1.00 15.91 LIG 0.20  C 
BRANCH 5 6
ATOM      6  C   THR B 157      39.440 -11.042 -11.718  1.00 16.14 LIG 0.24  C 
ATOM      7 O    THR B 157      40.551 -10.782 -11.246  1.00 15.69 LIG-0.27  OA
ATOM      8  N   SER B 158      38.435 -10.176 -11.705  1.00 15.14 LIG-0.34  N 
ATOM      9 H    SER B 158      37.654 -10.336 -12.027  1.00 15.14 LIG 0.16  HD
BRANCH 8 10
ATOM     10  CA  SER B 158      38.594  -8.848 -11.123  1.00 18.36 LIG 0.20  C 
BRANCH 10 11
ATOM     11  C   SER B 158      39.279  -7.899 -12.103  1.00 20.96 LIG 0.24  C 
ATOM     12 O    SER B 158      38.721  -6.864 -12.472  1.00 20.92 LIG-0.27  OA
ATOM     13  N   TYR B 159      40.489  -8.258 -12.519  1.00 23.40 LIG-0.35  N 
ATOM     14 H    TYR B 159      40.889  -8.978 -12.270  1.00 23.40 LIG 0.16  HD
BRANCH 13 15
ATOM     15  CA  TYR B 159      41.252  -7.436 -13.455  1.00 28.83 LIG 0.17  C 
BRANCH 15 16
ATOM     16  C   TYR B 159      41.569  -6.073 -12.849  1.00 30.09 LIG 0.22  C 
ATOM     17 O    TYR B 159      40.841  -5.119 -13.196  1.00 33.46 LIG-0.29  OA
ENDBRANCH 15 16
BRANCH 15 18
ATOM     18  CB  TYR B 159      40.466  -7.246 -14.754  1.00 32.38 LIG 0.07  C 
BRANCH 18 19
ATOM     19  CG  TYR B 159      40.725  -8.324 -15.783  1.00 36.58 LIG-0.06  A 
ATOM     20  CD2 TYR B 159      40.876  -9.657 -15.402  1.00 38.67 LIG 0.01  A 
ATOM     21  CE2 TYR B 159      41.103 -10.656 -16.347  1.00 40.79 LIG 0.04  A 
ATOM     22  CZ  TYR B 159      41.183 -10.320 -17.690  1.00 41.05 LIG 0.07  A 
ATOM     23  CE1 TYR B 159      41.037  -9.003 -18.094  1.00 40.09 LIG 0.04  A 
ATOM     24  CD1 TYR B 159      40.808  -8.014 -17.140  1.00 38.09 LIG 0.01  A 
BRANCH 22 25
ATOM     25 OH   TYR B 159      41.407 -11.302 -18.629  1.00 43.66 LIG-0.36  OA
ATOM     26 HH   TYR B 159      41.682 -11.998 -18.247  1.00 43.66 LIG 0.22  HD
ENDBRANCH 22 25
ENDBRANCH 18 19
ENDBRANCH 15 18
ENDBRANCH 13 15
ENDBRANCH 10 11
BRANCH 10 27
ATOM     27  CB  SER B 158      39.416  -8.932  -9.835  1.00 15.79 LIG 0.20  C 
BRANCH 27 28
ATOM     28 OG   SER B 158      40.248  -7.795  -9.690  1.00 17.90 LIG-0.40  OA
ATOM     29 HG   SER B 158      41.052  -8.022  -9.781  1.00 17.90 LIG 0.21  HD
ENDBRANCH 27 28
ENDBRANCH 10 27
ENDBRANCH 8 10
ENDBRANCH 5 6
BRANCH 5 30
ATOM     30  CB  THR B 157      39.559 -12.336 -13.847  1.00 18.18 LIG 0.15  C 
ATOM     31  CG2 THR B 157      39.576 -13.726 -14.461  1.00 16.96 LIG 0.04  C 
BRANCH 30 32
ATOM     32 OG1  THR B 157      38.618 -11.510 -14.546  1.00 15.90 LIG-0.39  OA
ATOM     33 HG1  THR B 157      38.590 -10.751 -14.187  1.00 15.90 LIG 0.21  HD
ENDBRANCH 30 32
ENDBRANCH 5 30
ENDBRANCH 3 5
BRANCH 1 34
ATOM     34  CA  SER B 156      35.766 -13.282 -10.954  1.00 16.58 LIG 0.20  C 
BRANCH 34 35
ATOM     35  N   SER B 156      35.443 -14.098  -9.791  1.00 15.80 LIG-0.34  N 
ATOM     36 H    SER B 156      35.440 -13.666  -9.048  1.00 15.80 LIG 0.16  HD
ATOM     37  C   PRO B 155      35.179 -15.398  -9.887  1.00 18.36 LIG 0.24  C 
ATOM     38 O    PRO B 155      35.196 -16.014 -10.954  1.00 18.57 LIG-0.27  OA
BRANCH 37 39
ATOM     39  CA  PRO B 155      34.858 -16.114  -8.581  1.00 19.30 LIG 0.18  C 
ATOM     40  CB  PRO B 155      34.719 -17.619  -8.771  1.00 17.99 LIG 0.04  C 
ATOM     41  CG  PRO B 155      33.287 -17.747  -9.196  1.00 20.29 LIG 0.02  C 
ATOM     42  CD  PRO B 155      32.567 -16.814  -8.233  1.00 20.15 LIG 0.13  C 
ATOM     43  N   PRO B 155      33.548 -15.729  -8.044  1.00 20.34 LIG-0.34  N 
ATOM     44  C   SER B 154      33.346 -14.566  -7.402  1.00 23.17 LIG 0.24  C 
ATOM     45 O    SER B 154      34.251 -13.750  -7.224  1.00 21.43 LIG-0.27  OA
BRANCH 44 46
ATOM     46  CA  SER B 154      31.935 -14.287  -6.892  1.00 26.04 LIG 0.20  C 
BRANCH 46 47
ATOM     47  N   SER B 154      31.926 -13.248  -5.868  1.00 29.08 LIG-0.34  N 
ATOM     48 H    SER B 154      32.536 -12.648  -5.966  1.00 29.08 LIG 0.16  HD
ATOM     49  C   VAL B 153      31.041 -13.250  -4.876  1.00 31.74 LIG 0.26  C 
ATOM     50 O    VAL B 153      30.181 -14.118  -4.749  1.00 31.76 LIG-0.27  OA
BRANCH 49 51
ATOM     51  CA  VAL B 153      31.143 -12.103  -3.876  1.00 34.29 LIG 0.40  C 
ATOM     52  N   VAL B 153      32.554 -11.923  -3.433  1.00 34.52 LIG 0.61  N 
BRANCH 51 53
ATOM     53  CB  VAL B 153      30.597 -10.817  -4.542  1.00 36.17 LIG 0.03  C 
ATOM     54  CG2 VAL B 153      30.279  -9.776  -3.485  1.00 38.03 LIG 0.01  C 
ATOM     55  CG1 VAL B 153      29.356 -11.139  -5.360  1.00 38.39 LIG 0.01  C 
ENDBRANCH 51 53
ENDBRANCH 49 51
ENDBRANCH 46 47
BRANCH 46 56
ATOM     56  CB  SER B 154      31.043 -13.882  -8.069  1.00 27.48 LIG 0.20  C 
BRANCH 56 57
ATOM     57 OG   SER B 154      30.108 -12.890  -7.681  1.00 30.72 LIG-0.40  OA
ATOM     58 HG   SER B 154      29.711 -13.137  -6.984  1.00 30.72 LIG 0.21  HD
ENDBRANCH 56 57
ENDBRANCH 46 56
ENDBRANCH 44 46
ENDBRANCH 37 39
ENDBRANCH 34 35
BRANCH 34 59
ATOM     59  CB  SER B 156      35.216 -11.866 -10.779  1.00 16.81 LIG 0.20  C 
BRANCH 59 60
ATOM     60 OG   SER B 156      34.096 -11.871  -9.906  1.00 16.65 LIG-0.40  OA
ATOM     61 HG   SER B 156      33.715 -12.619  -9.943  1.00 16.65 LIG 0.21  HD
ENDBRANCH 59 60
ENDBRANCH 34 59
ENDBRANCH 1 34
TORSDOF 24
ENDMDL
MODEL 67
USER: ADFR SOLUTION from run 106
USER: SCORE 16.271154 LL:  -3.503 LR: -13.328 RR:   0.000 FEB:  -6.169
USER: RMSD 13.385465
USER: SEED 105
USER: STATUS no improvement in best in 12 clusters for 5 generations
USER: GENES 26
USER: genes 0 Translation |==|  0.40061 0.62608 0.55520
USER: genes 1 Rotation |==|  0.42308 0.84005 0.85838 0.50280
USER: genes 2 Torsion [C]-N--CA-[C] |==|  0.79563
USER: genes 3 Torsion [N]-CA--C-[N] |==|  0.36534
USER: genes 4 Torsion [C]-N--CA-[C] |==|  0.76136
USER: genes 5 Torsion [N]-CA--C-[N] |==|  0.99175
USER: genes 6 Torsion [C]-N--CA-[CB] |==|  0.48176
USER: genes 7 Torsion [N]-CA--C-[O] |==|  0.98074
USER: genes 8 Torsion [N]-CA--CB-[CG] |==|  0.44742
USER: genes 9 Torsion [CA]-CB--CG-[CD2] |==|  0.63725
USER: genes 10 Torsion [CE2]-CZ--OH-[HH] |==|  0.79991
USER: genes 11 Torsion [N]-CA--CB-[OG] |==|  0.86367
USER: genes 12 Torsion [CA]-CB--OG-[HG] |==|  0.13577
USER: genes 13 Torsion [N]-CA--CB-[CG2] |==|  0.76773
USER: genes 14 Torsion [CA]-CB--OG1-[HG1] |==|  0.14960
USER: genes 15 Torsion [N]-C--CA-[N] |==|  0.52366
USER: genes 16 Torsion [C]-CA--N-[C] |==|  0.59217
USER: genes 17 Torsion [N]-C--CA-[CB] |==|  0.70730
USER: genes 18 Torsion [N]-C--CA-[N] |==|  0.45551
USER: genes 19 Torsion [C]-CA--N-[C] |==|  0.62653
USER: genes 20 Torsion [N]-C--CA-[N] |==|  0.92384
USER: genes 21 Torsion [C]-CA--CB-[CG2] |==|  0.49288
USER: genes 22 Torsion [C]-CA--CB-[OG] |==|  0.97018
USER: genes 23 Torsion [CA]-CB--OG-[HG] |==|  0.78123
USER: genes 24 Torsion [C]-CA--CB-[OG] |==|  0.20176
USER: genes 25 Torsion [CA]-CB--OG-[HG] |==|  0.76920
ROOT
ATOM      1  C   SER B 156      36.208 -13.439  -8.670  1.00 15.87 LIG 0.24  C 
ATOM      2 O    SER B 156      37.194 -14.121  -8.384  1.00 15.60 LIG-0.27  OA
ATOM      3  N   THR B 157      34.960 -13.820  -8.417  1.00 16.26 LIG-0.34  N 
ATOM      4 H    THR B 157      34.265 -13.339  -8.574  1.00 16.26 LIG 0.16  HD
ENDROOT
BRANCH 3 5
ATOM      5  CA  THR B 157      34.676 -15.122  -7.837  1.00 15.91 LIG 0.20  C 
BRANCH 5 6
ATOM      6  C   THR B 157      34.922 -16.094  -8.987  1.00 16.14 LIG 0.24  C 
ATOM      7 O    THR B 157      34.428 -15.880 -10.099  1.00 15.69 LIG-0.27  OA
ATOM      8  N   SER B 158      35.677 -17.155  -8.730  1.00 15.14 LIG-0.34  N 
ATOM      9 H    SER B 158      36.030 -17.324  -7.964  1.00 15.14 LIG 0.16  HD
BRANCH 8 10
ATOM     10  CA  SER B 158      35.970 -18.138  -9.767  1.00 18.36 LIG 0.20  C 
BRANCH 10 11
ATOM     11  C   SER B 158      34.867 -19.189  -9.852  1.00 20.96 LIG 0.24  C 
ATOM     12 O    SER B 158      34.907 -20.077 -10.705  1.00 20.92 LIG-0.27  OA
ATOM     13  N   TYR B 159      33.885 -19.083  -8.962  1.00 23.40 LIG-0.35  N 
ATOM     14 H    TYR B 159      33.845 -18.467  -8.362  1.00 23.40 LIG 0.16  HD
BRANCH 13 15
ATOM     15  CA  TYR B 159      32.772 -20.027  -8.934  1.00 28.83 LIG 0.17  C 
BRANCH 15 16
ATOM     16  C   TYR B 159      31.935 -19.921 -10.204  1.00 30.09 LIG 0.22  C 
ATOM     17 O    TYR B 159      32.219 -18.992 -10.990  1.00 33.46 LIG-0.29  OA
ENDBRANCH 15 16
BRANCH 15 18
ATOM     18  CB  TYR B 159      31.884 -19.764  -7.715  1.00 32.38 LIG 0.07  C 
BRANCH 18 19
ATOM     19  CG  TYR B 159      30.499 -20.360  -7.833  1.00 36.58 LIG-0.06  A 
ATOM     20  CD2 TYR B 159      29.364 -19.595  -7.568  1.00 38.67 LIG 0.01  A 
ATOM     21  CE2 TYR B 159      28.086 -20.137  -7.687  1.00 40.79 LIG 0.04  A 
ATOM     22  CZ  TYR B 159      27.938 -21.461  -8.071  1.00 41.05 LIG 0.07  A 
ATOM     23  CE1 TYR B 159      29.050 -22.242  -8.338  1.00 40.09 LIG 0.04  A 
ATOM     24  CD1 TYR B 159      30.323 -21.688  -8.219  1.00 38.09 LIG 0.01  A 
BRANCH 22 25
ATOM     25 OH   TYR B 159      26.678 -22.003  -8.189  1.00 43.66 LIG-0.36  OA
ATOM     26 HH   TYR B 159      26.346 -22.112  -7.425  1.00 43.66 LIG 0.22  HD
ENDBRANCH 22 25
ENDBRANCH 18 19
ENDBRANCH 15 18
ENDBRANCH 13 15
ENDBRANCH 10 11
BRANCH 10 27
ATOM     27  CB  SER B 158      37.307 -18.824  -9.481  1.00 15.79 LIG 0.20  C 
BRANCH 27 28
ATOM     28 OG   SER B 158      38.316 -17.870  -9.202  1.00 17.90 LIG-0.40  OA
ATOM     29 HG   SER B 158      38.034 -17.322  -8.632  1.00 17.90 LIG 0.21  HD
ENDBRANCH 27 28
ENDBRANCH 10 27
ENDBRANCH 8 10
ENDBRANCH 5 6
BRANCH 5 30
ATOM     30  CB  THR B 157      33.205 -15.250  -7.387  1.00 18.18 LIG 0.15  C 
ATOM     31  CG2 THR B 157      33.012 -14.655  -6.003  1.00 16.96 LIG 0.04  C 
BRANCH 30 32
ATOM     32 OG1  THR B 157      32.357 -14.575  -8.326  1.00 15.90 LIG-0.39  OA
ATOM     33 HG1  THR B 157      32.509 -14.865  -9.100  1.00 15.90 LIG 0.21  HD
ENDBRANCH 30 32
ENDBRANCH 5 30
ENDBRANCH 3 5
BRANCH 1 34
ATOM     34  CA  SER B 156      36.371 -12.085  -9.338  1.00 16.58 LIG 0.20  C 
BRANCH 34 35
ATOM     35  N   SER B 156      37.769 -11.928  -9.718  1.00 15.80 LIG-0.34  N 
ATOM     36 H    SER B 156      38.156 -12.662  -9.943  1.00 15.80 LIG 0.16  HD
ATOM     37  C   PRO B 155      38.377 -10.746  -9.711  1.00 18.36 LIG 0.24  C 
ATOM     38 O    PRO B 155      37.819  -9.700  -9.376  1.00 18.57 LIG-0.27  OA
BRANCH 37 39
ATOM     39  CA  PRO B 155      39.841 -10.745 -10.134  1.00 19.30 LIG 0.18  C 
ATOM     40  CB  PRO B 155      40.781 -10.574  -8.947  1.00 17.99 LIG 0.04  C 
ATOM     41  CG  PRO B 155      40.821  -9.084  -8.794  1.00 20.29 LIG 0.02  C 
ATOM     42  CD  PRO B 155      40.966  -8.604 -10.232  1.00 20.15 LIG 0.13  C 
ATOM     43  N   PRO B 155      40.173  -9.595 -10.982  1.00 20.34 LIG-0.34  N 
ATOM     44  C   SER B 154      39.845  -9.541 -12.285  1.00 23.17 LIG 0.24  C 
ATOM     45 O    SER B 154      39.244 -10.457 -12.847  1.00 21.43 LIG-0.27  OA
BRANCH 44 46
ATOM     46  CA  SER B 154      40.249  -8.287 -13.054  1.00 26.04 LIG 0.20  C 
BRANCH 46 47
ATOM     47  N   SER B 154      40.184  -8.495 -14.497  1.00 29.08 LIG-0.34  N 
ATOM     48 H    SER B 154      39.470  -8.891 -14.767  1.00 29.08 LIG 0.16  HD
ATOM     49  C   VAL B 153      41.161  -8.096 -15.306  1.00 31.74 LIG 0.26  C 
ATOM     50 O    VAL B 153      42.178  -7.536 -14.903  1.00 31.76 LIG-0.27  OA
BRANCH 49 51
ATOM     51  CA  VAL B 153      40.964  -8.374 -16.793  1.00 34.29 LIG 0.40  C 
ATOM     52  N   VAL B 153      40.091  -9.565 -16.988  1.00 34.52 LIG 0.61  N 
BRANCH 51 53
ATOM     53  CB  VAL B 153      40.350  -7.115 -17.453  1.00 36.17 LIG 0.03  C 
ATOM     54  CG2 VAL B 153      40.197  -7.331 -18.947  1.00 38.03 LIG 0.01  C 
ATOM     55  CG1 VAL B 153      41.225  -5.903 -17.179  1.00 38.39 LIG 0.01  C 
ENDBRANCH 51 53
ENDBRANCH 49 51
ENDBRANCH 46 47
BRANCH 46 56
ATOM     56  CB  SER B 154      39.340  -7.126 -12.642  1.00 27.48 LIG 0.20  C 
BRANCH 56 57
ATOM     57 OG   SER B 154      38.246  -7.587 -11.869  1.00 30.72 LIG-0.40  OA
ATOM     58 HG   SER B 154      37.665  -7.919 -12.375  1.00 30.72 LIG 0.21  HD
ENDBRANCH 56 57
ENDBRANCH 46 56
ENDBRANCH 44 46
ENDBRANCH 37 39
ENDBRANCH 34 35
BRANCH 34 59
ATOM     59  CB  SER B 156      35.476 -12.054 -10.578  1.00 16.81 LIG 0.20  C 
BRANCH 59 60
ATOM     60 OG   SER B 156      34.110 -11.954 -10.204  1.00 16.65 LIG-0.40  OA
ATOM     61 HG   SER B 156      33.813 -12.718 -10.020  1.00 16.65 LIG 0.21  HD
ENDBRANCH 59 60
ENDBRANCH 34 59
ENDBRANCH 1 34
TORSDOF 24
ENDMDL
MODEL 68
USER: ADFR SOLUTION from run 171
USER: SCORE 16.620468 LL:  -4.304 LR: -13.321 RR:   0.000 FEB:  -6.161
USER: RMSD 12.472343
USER: SEED 170
USER: STATUS no improvement in best in 8 clusters for 5 generations
USER: GENES 26
USER: genes 0 Translation |==|  0.27459 0.52375 0.57663
USER: genes 1 Rotation |==|  0.11848 0.70275 0.41049 0.73522
USER: genes 2 Torsion [C]-N--CA-[C] |==|  0.82492
USER: genes 3 Torsion [N]-CA--C-[N] |==|  0.34199
USER: genes 4 Torsion [C]-N--CA-[C] |==|  0.17460
USER: genes 5 Torsion [N]-CA--C-[N] |==|  0.03470
USER: genes 6 Torsion [C]-N--CA-[CB] |==|  0.79584
USER: genes 7 Torsion [N]-CA--C-[O] |==|  0.62547
USER: genes 8 Torsion [N]-CA--CB-[CG] |==|  0.72284
USER: genes 9 Torsion [CA]-CB--CG-[CD2] |==|  0.18356
USER: genes 10 Torsion [CE2]-CZ--OH-[HH] |==|  0.46664
USER: genes 11 Torsion [N]-CA--CB-[OG] |==|  0.87636
USER: genes 12 Torsion [CA]-CB--OG-[HG] |==|  0.83837
USER: genes 13 Torsion [N]-CA--CB-[CG2] |==|  0.44789
USER: genes 14 Torsion [CA]-CB--OG1-[HG1] |==|  0.39577
USER: genes 15 Torsion [N]-C--CA-[N] |==|  0.11197
USER: genes 16 Torsion [C]-CA--N-[C] |==|  0.70870
USER: genes 17 Torsion [N]-C--CA-[CB] |==|  0.60105
USER: genes 18 Torsion [N]-C--CA-[N] |==|  0.28674
USER: genes 19 Torsion [C]-CA--N-[C] |==|  0.73895
USER: genes 20 Torsion [N]-C--CA-[N] |==|  0.26402
USER: genes 21 Torsion [C]-CA--CB-[CG2] |==|  0.49007
USER: genes 22 Torsion [C]-CA--CB-[OG] |==|  0.61071
USER: genes 23 Torsion [CA]-CB--OG-[HG] |==|  0.15158
USER: genes 24 Torsion [C]-CA--CB-[OG] |==|  0.66951
USER: genes 25 Torsion [CA]-CB--OG-[HG] |==|  0.10390
ROOT
ATOM      1  C   SER B 156      32.711 -15.818  -8.220  1.00 15.87 LIG 0.24  C 
ATOM      2 O    SER B 156      31.565 -15.659  -7.797  1.00 15.60 LIG-0.27  OA
ATOM      3  N   THR B 157      33.133 -16.951  -8.773  1.00 16.26 LIG-0.34  N 
ATOM      4 H    THR B 157      33.917 -17.064  -9.108  1.00 16.26 LIG 0.16  HD
ENDROOT
BRANCH 3 5
ATOM      5  CA  THR B 157      32.268 -18.115  -8.850  1.00 15.91 LIG 0.20  C 
BRANCH 5 6
ATOM      6  C   THR B 157      32.004 -18.472  -7.391  1.00 16.14 LIG 0.24  C 
ATOM      7 O    THR B 157      32.946 -18.701  -6.626  1.00 15.69 LIG-0.27  OA
ATOM      8  N   SER B 158      30.736 -18.518  -7.001  1.00 15.14 LIG-0.34  N 
ATOM      9 H    SER B 158      30.065 -18.363  -7.515  1.00 15.14 LIG 0.16  HD
BRANCH 8 10
ATOM     10  CA  SER B 158      30.385 -18.847  -5.623  1.00 18.36 LIG 0.20  C 
BRANCH 10 11
ATOM     11  C   SER B 158      30.933 -17.803  -4.655  1.00 20.96 LIG 0.24  C 
ATOM     12 O    SER B 158      30.945 -18.015  -3.441  1.00 20.92 LIG-0.27  OA
ATOM     13  N   TYR B 159      31.386 -16.678  -5.198  1.00 23.40 LIG-0.35  N 
ATOM     14 H    TYR B 159      31.382 -16.517  -6.044  1.00 23.40 LIG 0.16  HD
BRANCH 13 15
ATOM     15  CA  TYR B 159      31.940 -15.602  -4.382  1.00 28.83 LIG 0.17  C 
BRANCH 15 16
ATOM     16  C   TYR B 159      32.948 -16.144  -3.376  1.00 30.09 LIG 0.22  C 
ATOM     17 O    TYR B 159      32.861 -15.719  -2.204  1.00 33.46 LIG-0.29  OA
ENDBRANCH 15 16
BRANCH 15 18
ATOM     18  CB  TYR B 159      30.818 -14.873  -3.637  1.00 32.38 LIG 0.07  C 
BRANCH 18 19
ATOM     19  CG  TYR B 159      30.398 -13.576  -4.292  1.00 36.58 LIG-0.06  A 
ATOM     20  CD2 TYR B 159      29.784 -13.571  -5.544  1.00 38.67 LIG 0.01  A 
ATOM     21  CE2 TYR B 159      29.384 -12.379  -6.146  1.00 40.79 LIG 0.04  A 
ATOM     22  CZ  TYR B 159      29.603 -11.176  -5.493  1.00 41.05 LIG 0.07  A 
ATOM     23  CE1 TYR B 159      30.214 -11.154  -4.249  1.00 40.09 LIG 0.04  A 
ATOM     24  CD1 TYR B 159      30.606 -12.353  -3.656  1.00 38.09 LIG 0.01  A 
BRANCH 22 25
ATOM     25 OH   TYR B 159      29.212  -9.995  -6.082  1.00 43.66 LIG-0.36  OA
ATOM     26 HH   TYR B 159      29.253  -9.373  -5.519  1.00 43.66 LIG 0.22  HD
ENDBRANCH 22 25
ENDBRANCH 18 19
ENDBRANCH 15 18
ENDBRANCH 13 15
ENDBRANCH 10 11
BRANCH 10 27
ATOM     27  CB  SER B 158      30.936 -20.226  -5.253  1.00 15.79 LIG 0.20  C 
BRANCH 27 28
ATOM     28 OG   SER B 158      30.699 -21.161  -6.290  1.00 17.90 LIG-0.40  OA
ATOM     29 HG   SER B 158      29.874 -21.210  -6.440  1.00 17.90 LIG 0.21  HD
ENDBRANCH 27 28
ENDBRANCH 10 27
ENDBRANCH 8 10
ENDBRANCH 5 6
BRANCH 5 30
ATOM     30  CB  THR B 157      32.964 -19.313  -9.533  1.00 18.18 LIG 0.15  C 
ATOM     31  CG2 THR B 157      32.248 -20.611  -9.201  1.00 16.96 LIG 0.04  C 
BRANCH 30 32
ATOM     32 OG1  THR B 157      32.971 -19.115 -10.954  1.00 15.90 LIG-0.39  OA
ATOM     33 HG1  THR B 157      33.696 -19.396 -11.272  1.00 15.90 LIG 0.21  HD
ENDBRANCH 30 32
ENDBRANCH 5 30
ENDBRANCH 3 5
BRANCH 1 34
ATOM     34  CA  SER B 156      33.729 -14.695  -8.137  1.00 16.58 LIG 0.20  C 
BRANCH 34 35
ATOM     35  N   SER B 156      34.496 -14.680  -9.376  1.00 15.80 LIG-0.34  N 
ATOM     36 H    SER B 156      34.070 -14.354 -10.048  1.00 15.80 LIG 0.16  HD
ATOM     37  C   PRO B 155      35.743 -15.135  -9.444  1.00 18.36 LIG 0.24  C 
ATOM     38 O    PRO B 155      36.343 -15.611  -8.479  1.00 18.57 LIG-0.27  OA
BRANCH 37 39
ATOM     39  CA  PRO B 155      36.412 -15.052 -10.810  1.00 19.30 LIG 0.18  C 
ATOM     40  CB  PRO B 155      37.318 -16.247 -11.079  1.00 17.99 LIG 0.04  C 
ATOM     41  CG  PRO B 155      38.597 -15.820 -10.424  1.00 20.29 LIG 0.02  C 
ATOM     42  CD  PRO B 155      38.734 -14.371 -10.870  1.00 20.15 LIG 0.13  C 
ATOM     43  N   PRO B 155      37.332 -13.914 -10.910  1.00 20.34 LIG-0.34  N 
ATOM     44  C   SER B 154      36.903 -12.654 -11.095  1.00 23.17 LIG 0.24  C 
ATOM     45 O    SER B 154      35.708 -12.377 -11.193  1.00 21.43 LIG-0.27  OA
BRANCH 44 46
ATOM     46  CA  SER B 154      37.965 -11.561 -11.181  1.00 26.04 LIG 0.20  C 
BRANCH 46 47
ATOM     47  N   SER B 154      38.187 -11.131 -12.558  1.00 29.08 LIG-0.34  N 
ATOM     48 H    SER B 154      37.649 -10.517 -12.829  1.00 29.08 LIG 0.16  HD
ATOM     49  C   VAL B 153      39.147 -11.661 -13.310  1.00 31.74 LIG 0.26  C 
ATOM     50 O    VAL B 153      39.903 -12.542 -12.908  1.00 31.76 LIG-0.27  OA
BRANCH 49 51
ATOM     51  CA  VAL B 153      39.271 -11.118 -14.730  1.00 34.29 LIG 0.40  C 
ATOM     52  N   VAL B 153      40.294 -10.037 -14.787  1.00 34.52 LIG 0.61  N 
BRANCH 51 53
ATOM     53  CB  VAL B 153      39.639 -12.287 -15.676  1.00 36.17 LIG 0.03  C 
ATOM     54  CG2 VAL B 153      39.684 -11.802 -17.112  1.00 38.03 LIG 0.01  C 
ATOM     55  CG1 VAL B 153      38.630 -13.415 -15.528  1.00 38.39 LIG 0.01  C 
ENDBRANCH 51 53
ENDBRANCH 49 51
ENDBRANCH 46 47
BRANCH 46 56
ATOM     56  CB  SER B 154      37.540 -10.373 -10.315  1.00 27.48 LIG 0.20  C 
BRANCH 56 57
ATOM     57 OG   SER B 154      37.843  -9.144 -10.952  1.00 30.72 LIG-0.40  OA
ATOM     58 HG   SER B 154      37.497  -9.132 -11.717  1.00 30.72 LIG 0.21  HD
ENDBRANCH 56 57
ENDBRANCH 46 56
ENDBRANCH 44 46
ENDBRANCH 37 39
ENDBRANCH 34 35
BRANCH 34 59
ATOM     59  CB  SER B 156      32.973 -13.377  -7.964  1.00 16.81 LIG 0.20  C 
BRANCH 59 60
ATOM     60 OG   SER B 156      33.241 -12.502  -9.050  1.00 16.65 LIG-0.40  OA
ATOM     61 HG   SER B 156      33.297 -12.946  -9.761  1.00 16.65 LIG 0.21  HD
ENDBRANCH 59 60
ENDBRANCH 34 59
ENDBRANCH 1 34
TORSDOF 24
ENDMDL
MODEL 69
USER: ADFR SOLUTION from run 178
USER: SCORE 16.726423 LL:  -4.356 LR: -13.301 RR:   0.000 FEB:  -6.142
USER: RMSD 4.803758
USER: SEED 177
USER: STATUS no improvement in best in 5 clusters for 5 generations
USER: GENES 26
USER: genes 0 Translation |==|  0.41942 0.60035 0.47805
USER: genes 1 Rotation |==|  0.91888 0.59988 0.24784 0.53125
USER: genes 2 Torsion [C]-N--CA-[C] |==|  0.59446
USER: genes 3 Torsion [N]-CA--C-[N] |==|  0.00998
USER: genes 4 Torsion [C]-N--CA-[C] |==|  0.80394
USER: genes 5 Torsion [N]-CA--C-[N] |==|  0.85406
USER: genes 6 Torsion [C]-N--CA-[CB] |==|  0.52053
USER: genes 7 Torsion [N]-CA--C-[O] |==|  0.57316
USER: genes 8 Torsion [N]-CA--CB-[CG] |==|  0.16889
USER: genes 9 Torsion [CA]-CB--CG-[CD2] |==|  0.80066
USER: genes 10 Torsion [CE2]-CZ--OH-[HH] |==|  0.55894
USER: genes 11 Torsion [N]-CA--CB-[OG] |==|  0.53729
USER: genes 12 Torsion [CA]-CB--OG-[HG] |==|  0.73730
USER: genes 13 Torsion [N]-CA--CB-[CG2] |==|  0.01147
USER: genes 14 Torsion [CA]-CB--OG1-[HG1] |==|  0.22272
USER: genes 15 Torsion [N]-C--CA-[N] |==|  0.36701
USER: genes 16 Torsion [C]-CA--N-[C] |==|  0.81389
USER: genes 17 Torsion [N]-C--CA-[CB] |==|  0.91938
USER: genes 18 Torsion [N]-C--CA-[N] |==|  0.34904
USER: genes 19 Torsion [C]-CA--N-[C] |==|  0.79788
USER: genes 20 Torsion [N]-C--CA-[N] |==|  0.36880
USER: genes 21 Torsion [C]-CA--CB-[CG2] |==|  0.37869
USER: genes 22 Torsion [C]-CA--CB-[OG] |==|  0.53001
USER: genes 23 Torsion [CA]-CB--OG-[HG] |==|  0.16125
USER: genes 24 Torsion [C]-CA--CB-[OG] |==|  0.62920
USER: genes 25 Torsion [CA]-CB--OG-[HG] |==|  0.87838
ROOT
ATOM      1  C   SER B 156      36.730 -14.037 -10.290  1.00 15.87 LIG 0.24  C 
ATOM      2 O    SER B 156      37.131 -14.112  -9.127  1.00 15.60 LIG-0.27  OA
ATOM      3  N   THR B 157      37.526 -14.176 -11.345  1.00 16.26 LIG-0.34  N 
ATOM      4 H    THR B 157      37.255 -14.166 -12.161  1.00 16.26 LIG 0.16  HD
ENDROOT
BRANCH 3 5
ATOM      5  CA  THR B 157      38.958 -14.361 -11.186  1.00 15.91 LIG 0.20  C 
BRANCH 5 6
ATOM      6  C   THR B 157      39.556 -13.643 -12.392  1.00 16.14 LIG 0.24  C 
ATOM      7 O    THR B 157      40.774 -13.671 -12.591  1.00 15.69 LIG-0.27  OA
ATOM      8  N   SER B 158      38.712 -13.005 -13.193  1.00 15.14 LIG-0.34  N 
ATOM      9 H    SER B 158      37.862 -12.971 -13.073  1.00 15.14 LIG 0.16  HD
BRANCH 8 10
ATOM     10  CA  SER B 158      39.190 -12.291 -14.373  1.00 18.36 LIG 0.20  C 
BRANCH 10 11
ATOM     11  C   SER B 158      39.961 -11.035 -13.978  1.00 20.96 LIG 0.24  C 
ATOM     12 O    SER B 158      41.093 -10.827 -14.417  1.00 20.92 LIG-0.27  OA
ATOM     13  N   TYR B 159      39.341 -10.202 -13.149  1.00 23.40 LIG-0.35  N 
ATOM     14 H    TYR B 159      38.551 -10.336 -12.833  1.00 23.40 LIG 0.16  HD
BRANCH 13 15
ATOM     15  CA  TYR B 159      39.969  -8.963 -12.697  1.00 28.83 LIG 0.17  C 
BRANCH 15 16
ATOM     16  C   TYR B 159      41.365  -9.229 -12.146  1.00 30.09 LIG 0.22  C 
ATOM     17 O    TYR B 159      41.800  -8.420 -11.298  1.00 33.46 LIG-0.29  OA
ENDBRANCH 15 16
BRANCH 15 18
ATOM     18  CB  TYR B 159      39.112  -8.299 -11.617  1.00 32.38 LIG 0.07  C 
BRANCH 18 19
ATOM     19  CG  TYR B 159      38.922  -9.153 -10.383  1.00 36.58 LIG-0.06  A 
ATOM     20  CD2 TYR B 159      38.107 -10.284 -10.412  1.00 38.67 LIG 0.01  A 
ATOM     21  CE2 TYR B 159      37.940 -11.081  -9.280  1.00 40.79 LIG 0.04  A 
ATOM     22  CZ  TYR B 159      38.590 -10.743  -8.104  1.00 41.05 LIG 0.07  A 
ATOM     23  CE1 TYR B 159      39.404  -9.623  -8.049  1.00 40.09 LIG 0.04  A 
ATOM     24  CD1 TYR B 159      39.566  -8.836  -9.187  1.00 38.09 LIG 0.01  A 
BRANCH 22 25
ATOM     25 OH   TYR B 159      38.428 -11.524  -6.982  1.00 43.66 LIG-0.36  OA
ATOM     26 HH   TYR B 159      38.620 -11.076  -6.298  1.00 43.66 LIG 0.22  HD
ENDBRANCH 22 25
ENDBRANCH 18 19
ENDBRANCH 15 18
ENDBRANCH 13 15
ENDBRANCH 10 11
BRANCH 10 27
ATOM     27  CB  SER B 158      38.012 -11.907 -15.269  1.00 15.79 LIG 0.20  C 
BRANCH 27 28
ATOM     28 OG   SER B 158      38.462 -11.495 -16.548  1.00 17.90 LIG-0.40  OA
ATOM     29 HG   SER B 158      38.539 -10.658 -16.562  1.00 17.90 LIG 0.21  HD
ENDBRANCH 27 28
ENDBRANCH 10 27
ENDBRANCH 8 10
ENDBRANCH 5 6
BRANCH 5 30
ATOM     30  CB  THR B 157      39.363 -15.850 -11.247  1.00 18.18 LIG 0.15  C 
ATOM     31  CG2 THR B 157      38.159 -16.722 -11.560  1.00 16.96 LIG 0.04  C 
BRANCH 30 32
ATOM     32 OG1  THR B 157      40.367 -16.032 -12.254  1.00 15.90 LIG-0.39  OA
ATOM     33 HG1  THR B 157      41.116 -15.806 -11.947  1.00 15.90 LIG 0.21  HD
ENDBRANCH 30 32
ENDBRANCH 5 30
ENDBRANCH 3 5
BRANCH 1 34
ATOM     34  CA  SER B 156      35.263 -13.782 -10.588  1.00 16.58 LIG 0.20  C 
BRANCH 34 35
ATOM     35  N   SER B 156      34.466 -14.685  -9.767  1.00 15.80 LIG-0.34  N 
ATOM     36 H    SER B 156      33.997 -14.290  -9.164  1.00 15.80 LIG 0.16  HD
ATOM     37  C   PRO B 155      34.475 -16.002  -9.947  1.00 18.36 LIG 0.24  C 
ATOM     38 O    PRO B 155      35.159 -16.562 -10.805  1.00 18.57 LIG-0.27  OA
BRANCH 37 39
ATOM     39  CA  PRO B 155      33.589 -16.811  -9.009  1.00 19.30 LIG 0.18  C 
ATOM     40  CB  PRO B 155      33.415 -16.131  -7.656  1.00 17.99 LIG 0.04  C 
ATOM     41  CG  PRO B 155      34.631 -16.598  -6.914  1.00 20.29 LIG 0.02  C 
ATOM     42  CD  PRO B 155      34.687 -18.079  -7.263  1.00 20.15 LIG 0.13  C 
ATOM     43  N   PRO B 155      34.190 -18.101  -8.652  1.00 20.34 LIG-0.34  N 
ATOM     44  C   SER B 154      34.185 -19.153  -9.487  1.00 23.17 LIG 0.24  C 
ATOM     45 O    SER B 154      33.676 -19.100 -10.606  1.00 21.43 LIG-0.27  OA
BRANCH 44 46
ATOM     46  CA  SER B 154      34.845 -20.438  -8.993  1.00 26.04 LIG 0.20  C 
BRANCH 46 47
ATOM     47  N   SER B 154      33.938 -21.578  -9.079  1.00 29.08 LIG-0.34  N 
ATOM     48 H    SER B 154      34.127 -22.135  -9.707  1.00 29.08 LIG 0.16  HD
ATOM     49  C   VAL B 153      32.913 -21.721  -8.245  1.00 31.74 LIG 0.26  C 
ATOM     50 O    VAL B 153      32.655 -20.912  -7.356  1.00 31.76 LIG-0.27  OA
BRANCH 49 51
ATOM     51  CA  VAL B 153      32.046 -22.960  -8.445  1.00 34.29 LIG 0.40  C 
ATOM     52  N   VAL B 153      31.800 -23.639  -7.142  1.00 34.52 LIG 0.61  N 
BRANCH 51 53
ATOM     53  CB  VAL B 153      30.717 -22.530  -9.111  1.00 36.17 LIG 0.03  C 
ATOM     54  CG2 VAL B 153      30.349 -23.502 -10.217  1.00 38.03 LIG 0.01  C 
ATOM     55  CG1 VAL B 153      30.843 -21.119  -9.665  1.00 38.39 LIG 0.01  C 
ENDBRANCH 51 53
ENDBRANCH 49 51
ENDBRANCH 46 47
BRANCH 46 56
ATOM     56  CB  SER B 154      36.112 -20.703  -9.810  1.00 27.48 LIG 0.20  C 
BRANCH 56 57
ATOM     57 OG   SER B 154      36.619 -22.002  -9.557  1.00 30.72 LIG-0.40  OA
ATOM     58 HG   SER B 154      36.031 -22.573  -9.739  1.00 30.72 LIG 0.21  HD
ENDBRANCH 56 57
ENDBRANCH 46 56
ENDBRANCH 44 46
ENDBRANCH 37 39
ENDBRANCH 34 35
BRANCH 34 59
ATOM     59  CB  SER B 156      34.950 -12.327 -10.236  1.00 16.81 LIG 0.20  C 
BRANCH 59 60
ATOM     60 OG   SER B 156      33.750 -12.244  -9.481  1.00 16.65 LIG-0.40  OA
ATOM     61 HG   SER B 156      33.169 -12.746  -9.822  1.00 16.65 LIG 0.21  HD
ENDBRANCH 59 60
ENDBRANCH 34 59
ENDBRANCH 1 34
TORSDOF 24
ENDMDL
MODEL 70
USER: ADFR SOLUTION from run 35
USER: SCORE 16.229937 LL:  -3.621 LR: -13.268 RR:   0.000 FEB:  -6.109
USER: RMSD 13.269364
USER: SEED 34
USER: STATUS no improvement in best in 10 clusters for 5 generations
USER: GENES 26
USER: genes 0 Translation |==|  0.40828 0.66468 0.50563
USER: genes 1 Rotation |==|  0.18802 0.28335 0.18955 0.59670
USER: genes 2 Torsion [C]-N--CA-[C] |==|  0.82363
USER: genes 3 Torsion [N]-CA--C-[N] |==|  0.39785
USER: genes 4 Torsion [C]-N--CA-[C] |==|  0.72115
USER: genes 5 Torsion [N]-CA--C-[N] |==|  0.41991
USER: genes 6 Torsion [C]-N--CA-[CB] |==|  0.46121
USER: genes 7 Torsion [N]-CA--C-[O] |==|  0.89614
USER: genes 8 Torsion [N]-CA--CB-[CG] |==|  0.85319
USER: genes 9 Torsion [CA]-CB--CG-[CD2] |==|  0.23399
USER: genes 10 Torsion [CE2]-CZ--OH-[HH] |==|  0.57666
USER: genes 11 Torsion [N]-CA--CB-[OG] |==|  0.87822
USER: genes 12 Torsion [CA]-CB--OG-[HG] |==|  0.85486
USER: genes 13 Torsion [N]-CA--CB-[CG2] |==|  0.63655
USER: genes 14 Torsion [CA]-CB--OG1-[HG1] |==|  0.69615
USER: genes 15 Torsion [N]-C--CA-[N] |==|  0.23216
USER: genes 16 Torsion [C]-CA--N-[C] |==|  0.75805
USER: genes 17 Torsion [N]-C--CA-[CB] |==|  0.53121
USER: genes 18 Torsion [N]-C--CA-[N] |==|  0.49232
USER: genes 19 Torsion [C]-CA--N-[C] |==|  0.53333
USER: genes 20 Torsion [N]-C--CA-[N] |==|  0.39364
USER: genes 21 Torsion [C]-CA--CB-[CG2] |==|  0.16434
USER: genes 22 Torsion [C]-CA--CB-[OG] |==|  0.92836
USER: genes 23 Torsion [CA]-CB--OG-[HG] |==|  0.82833
USER: genes 24 Torsion [C]-CA--CB-[OG] |==|  0.72348
USER: genes 25 Torsion [CA]-CB--OG-[HG] |==|  0.76715
ROOT
ATOM      1  C   SER B 156      36.421 -12.541  -9.711  1.00 15.87 LIG 0.24  C 
ATOM      2 O    SER B 156      36.111 -13.542 -10.360  1.00 15.60 LIG-0.27  OA
ATOM      3  N   THR B 157      36.609 -12.556  -8.395  1.00 16.26 LIG-0.34  N 
ATOM      4 H    THR B 157      36.865 -11.876  -7.934  1.00 16.26 LIG 0.16  HD
ENDROOT
BRANCH 3 5
ATOM      5  CA  THR B 157      36.390 -13.765  -7.619  1.00 15.91 LIG 0.20  C 
BRANCH 5 6
ATOM      6  C   THR B 157      34.899 -14.042  -7.790  1.00 16.14 LIG 0.24  C 
ATOM      7 O    THR B 157      34.094 -13.107  -7.838  1.00 15.69 LIG-0.27  OA
ATOM      8  N   SER B 158      34.529 -15.313  -7.884  1.00 15.14 LIG-0.34  N 
ATOM      9 H    SER B 158      35.071 -15.979  -7.852  1.00 15.14 LIG 0.16  HD
BRANCH 8 10
ATOM     10  CA  SER B 158      33.126 -15.677  -8.052  1.00 18.36 LIG 0.20  C 
BRANCH 10 11
ATOM     11  C   SER B 158      32.512 -16.119  -6.727  1.00 20.96 LIG 0.24  C 
ATOM     12 O    SER B 158      33.209 -16.638  -5.853  1.00 20.92 LIG-0.27  OA
ATOM     13  N   TYR B 159      31.208 -15.909  -6.584  1.00 23.40 LIG-0.35  N 
ATOM     14 H    TYR B 159      30.710 -15.548  -7.187  1.00 23.40 LIG 0.16  HD
BRANCH 13 15
ATOM     15  CA  TYR B 159      30.501 -16.283  -5.362  1.00 28.83 LIG 0.17  C 
BRANCH 15 16
ATOM     16  C   TYR B 159      30.347 -17.796  -5.263  1.00 30.09 LIG 0.22  C 
ATOM     17 O    TYR B 159      30.125 -18.411  -6.328  1.00 33.46 LIG-0.29  OA
ENDBRANCH 15 16
BRANCH 15 18
ATOM     18  CB  TYR B 159      29.119 -15.626  -5.328  1.00 32.38 LIG 0.07  C 
BRANCH 18 19
ATOM     19  CG  TYR B 159      29.153 -14.128  -5.537  1.00 36.58 LIG-0.06  A 
ATOM     20  CD2 TYR B 159      29.184 -13.584  -6.821  1.00 38.67 LIG 0.01  A 
ATOM     21  CE2 TYR B 159      29.204 -12.205  -7.018  1.00 40.79 LIG 0.04  A 
ATOM     22  CZ  TYR B 159      29.196 -11.357  -5.922  1.00 41.05 LIG 0.07  A 
ATOM     23  CE1 TYR B 159      29.168 -11.873  -4.636  1.00 40.09 LIG 0.04  A 
ATOM     24  CD1 TYR B 159      29.145 -13.254  -4.452  1.00 38.09 LIG 0.01  A 
BRANCH 22 25
ATOM     25 OH   TYR B 159      29.217  -9.993  -6.110  1.00 43.66 LIG-0.36  OA
ATOM     26 HH   TYR B 159      29.578  -9.624  -5.447  1.00 43.66 LIG 0.22  HD
ENDBRANCH 22 25
ENDBRANCH 18 19
ENDBRANCH 15 18
ENDBRANCH 13 15
ENDBRANCH 10 11
BRANCH 10 27
ATOM     27  CB  SER B 158      32.992 -16.804  -9.078  1.00 15.79 LIG 0.20  C 
BRANCH 27 28
ATOM     28 OG   SER B 158      33.815 -16.562 -10.205  1.00 17.90 LIG-0.40  OA
ATOM     29 HG   SER B 158      33.661 -15.792 -10.505  1.00 17.90 LIG 0.21  HD
ENDBRANCH 27 28
ENDBRANCH 10 27
ENDBRANCH 8 10
ENDBRANCH 5 6
BRANCH 5 30
ATOM     30  CB  THR B 157      36.684 -13.554  -6.118  1.00 18.18 LIG 0.15  C 
ATOM     31  CG2 THR B 157      37.586 -14.656  -5.588  1.00 16.96 LIG 0.04  C 
BRANCH 30 32
ATOM     32 OG1  THR B 157      37.314 -12.280  -5.928  1.00 15.90 LIG-0.39  OA
ATOM     33 HG1  THR B 157      38.120 -12.394  -5.719  1.00 15.90 LIG 0.21  HD
ENDBRANCH 30 32
ENDBRANCH 5 30
ENDBRANCH 3 5
BRANCH 1 34
ATOM     34  CA  SER B 156      36.617 -11.202 -10.399  1.00 16.58 LIG 0.20  C 
BRANCH 34 35
ATOM     35  N   SER B 156      38.040 -11.029 -10.664  1.00 15.80 LIG-0.34  N 
ATOM     36 H    SER B 156      38.288 -11.297 -11.442  1.00 15.80 LIG 0.16  HD
ATOM     37  C   PRO B 155      38.868 -10.499  -9.769  1.00 18.36 LIG 0.24  C 
ATOM     38 O    PRO B 155      38.508 -10.126  -8.652  1.00 18.57 LIG-0.27  OA
BRANCH 37 39
ATOM     39  CA  PRO B 155      40.326 -10.384 -10.195  1.00 19.30 LIG 0.18  C 
ATOM     40  CB  PRO B 155      41.238 -10.028  -9.027  1.00 17.99 LIG 0.04  C 
ATOM     41  CG  PRO B 155      41.128  -8.534  -8.990  1.00 20.29 LIG 0.02  C 
ATOM     42  CD  PRO B 155      41.231  -8.154 -10.461  1.00 20.15 LIG 0.13  C 
ATOM     43  N   PRO B 155      40.546  -9.275 -11.130  1.00 20.34 LIG-0.34  N 
ATOM     44  C   SER B 154      40.221  -9.356 -12.432  1.00 23.17 LIG 0.24  C 
ATOM     45 O    SER B 154      39.719 -10.368 -12.920  1.00 21.43 LIG-0.27  OA
BRANCH 44 46
ATOM     46  CA  SER B 154      40.501  -8.131 -13.298  1.00 26.04 LIG 0.20  C 
BRANCH 46 47
ATOM     47  N   SER B 154      40.165  -8.370 -14.697  1.00 29.08 LIG-0.34  N 
ATOM     48 H    SER B 154      39.711  -9.088 -14.835  1.00 29.08 LIG 0.16  HD
ATOM     49  C   VAL B 153      40.542  -7.535 -15.660  1.00 31.74 LIG 0.26  C 
ATOM     50 O    VAL B 153      41.197  -6.517 -15.446  1.00 31.76 LIG-0.27  OA
BRANCH 49 51
ATOM     51  CA  VAL B 153      40.121  -7.905 -17.079  1.00 34.29 LIG 0.40  C 
ATOM     52  N   VAL B 153      39.741  -6.684 -17.844  1.00 34.52 LIG 0.61  N 
BRANCH 51 53
ATOM     53  CB  VAL B 153      41.293  -8.651 -17.763  1.00 36.17 LIG 0.03  C 
ATOM     54  CG2 VAL B 153      41.646  -9.899 -16.978  1.00 38.03 LIG 0.01  C 
ATOM     55  CG1 VAL B 153      42.501  -7.734 -17.874  1.00 38.39 LIG 0.01  C 
ENDBRANCH 51 53
ENDBRANCH 49 51
ENDBRANCH 46 47
BRANCH 46 56
ATOM     56  CB  SER B 154      39.709  -6.937 -12.757  1.00 27.48 LIG 0.20  C 
BRANCH 56 57
ATOM     57 OG   SER B 154      38.556  -7.369 -12.055  1.00 30.72 LIG-0.40  OA
ATOM     58 HG   SER B 154      38.050  -7.787 -12.577  1.00 30.72 LIG 0.21  HD
ENDBRANCH 56 57
ENDBRANCH 46 56
ENDBRANCH 44 46
ENDBRANCH 37 39
ENDBRANCH 34 35
BRANCH 34 59
ATOM     59  CB  SER B 156      35.830 -11.220 -11.710  1.00 16.81 LIG 0.20  C 
BRANCH 59 60
ATOM     60 OG   SER B 156      36.692 -11.495 -12.805  1.00 16.65 LIG-0.40  OA
ATOM     61 HG   SER B 156      37.061 -10.784 -13.057  1.00 16.65 LIG 0.21  HD
ENDBRANCH 59 60
ENDBRANCH 34 59
ENDBRANCH 1 34
TORSDOF 24
ENDMDL
MODEL 71
USER: ADFR SOLUTION from run 121
USER: SCORE 16.341927 LL:  -3.980 LR: -13.206 RR:   0.000 FEB:  -6.047
USER: RMSD 11.585070
USER: SEED 120
USER: STATUS searching
USER: GENES 26
USER: genes 0 Translation |==|  0.35180 0.61659 0.56118
USER: genes 1 Rotation |==|  0.38155 0.97388 0.58641 0.56277
USER: genes 2 Torsion [C]-N--CA-[C] |==|  0.77793
USER: genes 3 Torsion [N]-CA--C-[N] |==|  0.20687
USER: genes 4 Torsion [C]-N--CA-[C] |==|  0.16301
USER: genes 5 Torsion [N]-CA--C-[N] |==|  0.10030
USER: genes 6 Torsion [C]-N--CA-[CB] |==|  0.81981
USER: genes 7 Torsion [N]-CA--C-[O] |==|  0.40491
USER: genes 8 Torsion [N]-CA--CB-[CG] |==|  0.70450
USER: genes 9 Torsion [CA]-CB--CG-[CD2] |==|  0.62367
USER: genes 10 Torsion [CE2]-CZ--OH-[HH] |==|  0.52110
USER: genes 11 Torsion [N]-CA--CB-[OG] |==|  0.84694
USER: genes 12 Torsion [CA]-CB--OG-[HG] |==|  0.95383
USER: genes 13 Torsion [N]-CA--CB-[CG2] |==|  0.58708
USER: genes 14 Torsion [CA]-CB--OG1-[HG1] |==|  0.04810
USER: genes 15 Torsion [N]-C--CA-[N] |==|  0.45203
USER: genes 16 Torsion [C]-CA--N-[C] |==|  0.70744
USER: genes 17 Torsion [N]-C--CA-[CB] |==|  0.86060
USER: genes 18 Torsion [N]-C--CA-[N] |==|  0.16509
USER: genes 19 Torsion [C]-CA--N-[C] |==|  0.11667
USER: genes 20 Torsion [N]-C--CA-[N] |==|  0.75283
USER: genes 21 Torsion [C]-CA--CB-[CG2] |==|  0.57113
USER: genes 22 Torsion [C]-CA--CB-[OG] |==|  0.55750
USER: genes 23 Torsion [CA]-CB--OG-[HG] |==|  0.09527
USER: genes 24 Torsion [C]-CA--CB-[OG] |==|  0.19228
USER: genes 25 Torsion [CA]-CB--OG-[HG] |==|  0.92622
ROOT
ATOM      1  C   SER B 156      34.854 -13.659  -8.544  1.00 15.87 LIG 0.24  C 
ATOM      2 O    SER B 156      35.404 -13.548  -7.447  1.00 15.60 LIG-0.27  OA
ATOM      3  N   THR B 157      33.535 -13.736  -8.693  1.00 16.26 LIG-0.34  N 
ATOM      4 H    THR B 157      33.135 -13.774  -9.454  1.00 16.26 LIG 0.16  HD
ENDROOT
BRANCH 3 5
ATOM      5  CA  THR B 157      32.650 -13.762  -7.541  1.00 15.91 LIG 0.20  C 
BRANCH 5 6
ATOM      6  C   THR B 157      32.713 -15.210  -7.065  1.00 16.14 LIG 0.24  C 
ATOM      7 O    THR B 157      31.767 -15.976  -7.274  1.00 15.69 LIG-0.27  OA
ATOM      8  N   SER B 158      33.816 -15.589  -6.432  1.00 15.14 LIG-0.34  N 
ATOM      9 H    SER B 158      34.486 -15.074  -6.275  1.00 15.14 LIG 0.16  HD
BRANCH 8 10
ATOM     10  CA  SER B 158      33.970 -16.955  -5.942  1.00 18.36 LIG 0.20  C 
BRANCH 10 11
ATOM     11  C   SER B 158      33.855 -17.961  -7.084  1.00 20.96 LIG 0.24  C 
ATOM     12 O    SER B 158      33.311 -19.053  -6.908  1.00 20.92 LIG-0.27  OA
ATOM     13  N   TYR B 159      34.367 -17.587  -8.251  1.00 23.40 LIG-0.35  N 
ATOM     14 H    TYR B 159      34.751 -16.828  -8.387  1.00 23.40 LIG 0.16  HD
BRANCH 13 15
ATOM     15  CA  TYR B 159      34.318 -18.456  -9.424  1.00 28.83 LIG 0.17  C 
BRANCH 15 16
ATOM     16  C   TYR B 159      32.883 -18.855  -9.746  1.00 30.09 LIG 0.22  C 
ATOM     17 O    TYR B 159      32.594 -18.995 -10.954  1.00 33.46 LIG-0.29  OA
ENDBRANCH 15 16
BRANCH 15 18
ATOM     18  CB  TYR B 159      35.156 -19.715  -9.184  1.00 32.38 LIG 0.07  C 
BRANCH 18 19
ATOM     19  CG  TYR B 159      36.462 -19.728  -9.947  1.00 36.58 LIG-0.06  A 
ATOM     20  CD2 TYR B 159      36.888 -20.872 -10.621  1.00 38.67 LIG 0.01  A 
ATOM     21  CE2 TYR B 159      38.085 -20.885 -11.335  1.00 40.79 LIG 0.04  A 
ATOM     22  CZ  TYR B 159      38.869 -19.743 -11.375  1.00 41.05 LIG 0.07  A 
ATOM     23  CE1 TYR B 159      38.468 -18.593 -10.713  1.00 40.09 LIG 0.04  A 
ATOM     24  CD1 TYR B 159      37.269 -18.592 -10.005  1.00 38.09 LIG 0.01  A 
BRANCH 22 25
ATOM     25 OH   TYR B 159      40.053 -19.749 -12.078  1.00 43.66 LIG-0.36  OA
ATOM     26 HH   TYR B 159      40.469 -19.034 -11.931  1.00 43.66 LIG 0.22  HD
ENDBRANCH 22 25
ENDBRANCH 18 19
ENDBRANCH 15 18
ENDBRANCH 13 15
ENDBRANCH 10 11
BRANCH 10 27
ATOM     27  CB  SER B 158      32.908 -17.259  -4.885  1.00 15.79 LIG 0.20  C 
BRANCH 27 28
ATOM     28 OG   SER B 158      32.949 -16.307  -3.837  1.00 17.90 LIG-0.40  OA
ATOM     29 HG   SER B 158      33.679 -15.891  -3.865  1.00 17.90 LIG 0.21  HD
ENDBRANCH 27 28
ENDBRANCH 10 27
ENDBRANCH 8 10
ENDBRANCH 5 6
BRANCH 5 30
ATOM     30  CB  THR B 157      31.190 -13.430  -7.921  1.00 18.18 LIG 0.15  C 
ATOM     31  CG2 THR B 157      30.483 -12.727  -6.775  1.00 16.96 LIG 0.04  C 
BRANCH 30 32
ATOM     32 OG1  THR B 157      31.178 -12.592  -9.085  1.00 15.90 LIG-0.39  OA
ATOM     33 HG1  THR B 157      31.923 -12.636  -9.470  1.00 15.90 LIG 0.21  HD
ENDBRANCH 30 32
ENDBRANCH 5 30
ENDBRANCH 3 5
BRANCH 1 34
ATOM     34  CA  SER B 156      35.675 -13.708  -9.820  1.00 16.58 LIG 0.20  C 
BRANCH 34 35
ATOM     35  N   SER B 156      37.011 -13.208  -9.524  1.00 15.80 LIG-0.34  N 
ATOM     36 H    SER B 156      37.502 -13.759  -9.083  1.00 15.80 LIG 0.16  HD
ATOM     37  C   PRO B 155      37.418 -12.002  -9.908  1.00 18.36 LIG 0.24  C 
ATOM     38 O    PRO B 155      36.705 -11.214 -10.530  1.00 18.57 LIG-0.27  OA
BRANCH 37 39
ATOM     39  CA  PRO B 155      38.843 -11.624  -9.522  1.00 19.30 LIG 0.18  C 
ATOM     40  CB  PRO B 155      39.119 -11.864  -8.043  1.00 17.99 LIG 0.04  C 
ATOM     41  CG  PRO B 155      38.612 -10.598  -7.422  1.00 20.29 LIG 0.02  C 
ATOM     42  CD  PRO B 155      39.156  -9.525  -8.356  1.00 20.15 LIG 0.13  C 
ATOM     43  N   PRO B 155      39.095 -10.187  -9.673  1.00 20.34 LIG-0.34  N 
ATOM     44  C   SER B 154      39.318  -9.616 -10.869  1.00 23.17 LIG 0.24  C 
ATOM     45 O    SER B 154      39.323 -10.266 -11.915  1.00 21.43 LIG-0.27  OA
BRANCH 44 46
ATOM     46  CA  SER B 154      39.567  -8.110 -10.888  1.00 26.04 LIG 0.20  C 
BRANCH 46 47
ATOM     47  N   SER B 154      40.731  -7.746 -10.085  1.00 29.08 LIG-0.34  N 
ATOM     48 H    SER B 154      40.623  -7.040  -9.604  1.00 29.08 LIG 0.16  HD
ATOM     49  C   VAL B 153      41.851  -8.461 -10.112  1.00 31.74 LIG 0.26  C 
ATOM     50 O    VAL B 153      41.989  -9.463 -10.810  1.00 31.76 LIG-0.27  OA
BRANCH 49 51
ATOM     51  CA  VAL B 153      42.989  -7.970  -9.223  1.00 34.29 LIG 0.40  C 
ATOM     52  N   VAL B 153      43.840  -6.994  -9.958  1.00 34.52 LIG 0.61  N 
BRANCH 51 53
ATOM     53  CB  VAL B 153      42.380  -7.333  -7.949  1.00 36.17 LIG 0.03  C 
ATOM     54  CG2 VAL B 153      43.339  -6.313  -7.367  1.00 38.03 LIG 0.01  C 
ATOM     55  CG1 VAL B 153      42.066  -8.413  -6.925  1.00 38.39 LIG 0.01  C 
ENDBRANCH 51 53
ENDBRANCH 49 51
ENDBRANCH 46 47
BRANCH 46 56
ATOM     56  CB  SER B 154      39.752  -7.645 -12.335  1.00 27.48 LIG 0.20  C 
BRANCH 56 57
ATOM     57 OG   SER B 154      40.436  -6.405 -12.387  1.00 30.72 LIG-0.40  OA
ATOM     58 HG   SER B 154      40.997  -6.368 -11.764  1.00 30.72 LIG 0.21  HD
ENDBRANCH 56 57
ENDBRANCH 46 56
ENDBRANCH 44 46
ENDBRANCH 37 39
ENDBRANCH 34 35
BRANCH 34 59
ATOM     59  CB  SER B 156      35.743 -15.163 -10.288  1.00 16.81 LIG 0.20  C 
BRANCH 59 60
ATOM     60 OG   SER B 156      34.470 -15.600 -10.742  1.00 16.65 LIG-0.40  OA
ATOM     61 HG   SER B 156      33.868 -15.158 -10.357  1.00 16.65 LIG 0.21  HD
ENDBRANCH 59 60
ENDBRANCH 34 59
ENDBRANCH 1 34
TORSDOF 24
ENDMDL
MODEL 72
USER: ADFR SOLUTION from run 149
USER: SCORE 15.282250 LL:  -3.772 LR: -13.201 RR:   0.000 FEB:  -6.042
USER: RMSD 13.359545
USER: SEED 148
USER: STATUS searching
USER: GENES 26
USER: genes 0 Translation |==|  0.50782 0.36827 0.43354
USER: genes 1 Rotation |==|  0.72626 0.62959 0.92601 0.52299
USER: genes 2 Torsion [C]-N--CA-[C] |==|  0.63067
USER: genes 3 Torsion [N]-CA--C-[N] |==|  0.41572
USER: genes 4 Torsion [C]-N--CA-[C] |==|  0.47386
USER: genes 5 Torsion [N]-CA--C-[N] |==|  0.26286
USER: genes 6 Torsion [C]-N--CA-[CB] |==|  0.39930
USER: genes 7 Torsion [N]-CA--C-[O] |==|  0.30165
USER: genes 8 Torsion [N]-CA--CB-[CG] |==|  0.50696
USER: genes 9 Torsion [CA]-CB--CG-[CD2] |==|  0.22460
USER: genes 10 Torsion [CE2]-CZ--OH-[HH] |==|  0.42878
USER: genes 11 Torsion [N]-CA--CB-[OG] |==|  0.10792
USER: genes 12 Torsion [CA]-CB--OG-[HG] |==|  0.77229
USER: genes 13 Torsion [N]-CA--CB-[CG2] |==|  0.51529
USER: genes 14 Torsion [CA]-CB--OG1-[HG1] |==|  0.64691
USER: genes 15 Torsion [N]-C--CA-[N] |==|  0.89142
USER: genes 16 Torsion [C]-CA--N-[C] |==|  0.76597
USER: genes 17 Torsion [N]-C--CA-[CB] |==|  0.78660
USER: genes 18 Torsion [N]-C--CA-[N] |==|  0.33094
USER: genes 19 Torsion [C]-CA--N-[C] |==|  0.81765
USER: genes 20 Torsion [N]-C--CA-[N] |==|  0.55639
USER: genes 21 Torsion [C]-CA--CB-[CG2] |==|  0.65432
USER: genes 22 Torsion [C]-CA--CB-[OG] |==|  0.70438
USER: genes 23 Torsion [CA]-CB--OG-[HG] |==|  0.81336
USER: genes 24 Torsion [C]-CA--CB-[OG] |==|  0.68221
USER: genes 25 Torsion [CA]-CB--OG-[HG] |==|  0.68058
ROOT
ATOM      1  C   SER B 156      39.183 -19.433 -11.225  1.00 15.87 LIG 0.24  C 
ATOM      2 O    SER B 156      39.019 -20.150 -12.213  1.00 15.60 LIG-0.27  OA
ATOM      3  N   THR B 157      38.481 -19.565 -10.104  1.00 16.26 LIG-0.34  N 
ATOM      4 H    THR B 157      38.610 -19.099  -9.393  1.00 16.26 LIG 0.16  HD
ENDROOT
BRANCH 3 5
ATOM      5  CA  THR B 157      37.409 -20.541 -10.000  1.00 15.91 LIG 0.20  C 
BRANCH 5 6
ATOM      6  C   THR B 157      36.258 -19.754  -9.380  1.00 16.14 LIG 0.24  C 
ATOM      7 O    THR B 157      36.490 -18.816  -8.611  1.00 15.69 LIG-0.27  OA
ATOM      8  N   SER B 158      35.027 -20.127  -9.707  1.00 15.14 LIG-0.34  N 
ATOM      9 H    SER B 158      34.843 -20.776 -10.239  1.00 15.14 LIG 0.16  HD
BRANCH 8 10
ATOM     10  CA  SER B 158      33.863 -19.433  -9.166  1.00 18.36 LIG 0.20  C 
BRANCH 10 11
ATOM     11  C   SER B 158      32.583 -19.888  -9.862  1.00 20.96 LIG 0.24  C 
ATOM     12 O    SER B 158      32.221 -19.367 -10.918  1.00 20.92 LIG-0.27  OA
ATOM     13  N   TYR B 159      31.904 -20.861  -9.264  1.00 23.40 LIG-0.35  N 
ATOM     14 H    TYR B 159      32.145 -21.232  -8.525  1.00 23.40 LIG 0.16  HD
BRANCH 13 15
ATOM     15  CA  TYR B 159      30.665 -21.389  -9.829  1.00 28.83 LIG 0.17  C 
BRANCH 15 16
ATOM     16  C   TYR B 159      29.451 -20.697  -9.220  1.00 30.09 LIG 0.22  C 
ATOM     17 O    TYR B 159      28.822 -19.909  -9.958  1.00 33.46 LIG-0.29  OA
ENDBRANCH 15 16
BRANCH 15 18
ATOM     18  CB  TYR B 159      30.571 -22.897  -9.581  1.00 32.38 LIG 0.07  C 
BRANCH 18 19
ATOM     19  CG  TYR B 159      29.342 -23.535 -10.189  1.00 36.58 LIG-0.06  A 
ATOM     20  CD2 TYR B 159      29.302 -23.870 -11.542  1.00 38.67 LIG 0.01  A 
ATOM     21  CE2 TYR B 159      28.176 -24.469 -12.103  1.00 40.79 LIG 0.04  A 
ATOM     22  CZ  TYR B 159      27.074 -24.735 -11.306  1.00 41.05 LIG 0.07  A 
ATOM     23  CE1 TYR B 159      27.088 -24.411  -9.959  1.00 40.09 LIG 0.04  A 
ATOM     24  CD1 TYR B 159      28.221 -23.815  -9.409  1.00 38.09 LIG 0.01  A 
BRANCH 22 25
ATOM     25 OH   TYR B 159      25.958 -25.326 -11.854  1.00 43.66 LIG-0.36  OA
ATOM     26 HH   TYR B 159      25.536 -25.738 -11.256  1.00 43.66 LIG 0.22  HD
ENDBRANCH 22 25
ENDBRANCH 18 19
ENDBRANCH 15 18
ENDBRANCH 13 15
ENDBRANCH 10 11
BRANCH 10 27
ATOM     27  CB  SER B 158      34.026 -17.921  -9.334  1.00 15.79 LIG 0.20  C 
BRANCH 27 28
ATOM     28 OG   SER B 158      34.626 -17.611 -10.579  1.00 17.90 LIG-0.40  OA
ATOM     29 HG   SER B 158      35.459 -17.697 -10.518  1.00 17.90 LIG 0.21  HD
ENDBRANCH 27 28
ENDBRANCH 10 27
ENDBRANCH 8 10
ENDBRANCH 5 6
BRANCH 5 30
ATOM     30  CB  THR B 157      37.774 -21.709  -9.058  1.00 18.18 LIG 0.15  C 
ATOM     31  CG2 THR B 157      36.691 -22.774  -9.079  1.00 16.96 LIG 0.04  C 
BRANCH 30 32
ATOM     32 OG1  THR B 157      39.024 -22.281  -9.468  1.00 15.90 LIG-0.39  OA
ATOM     33 HG1  THR B 157      38.933 -23.110  -9.569  1.00 15.90 LIG 0.21  HD
ENDBRANCH 30 32
ENDBRANCH 5 30
ENDBRANCH 3 5
BRANCH 1 34
ATOM     34  CA  SER B 156      40.230 -18.333 -11.232  1.00 16.58 LIG 0.20  C 
BRANCH 34 35
ATOM     35  N   SER B 156      39.684 -17.177 -10.533  1.00 15.80 LIG-0.34  N 
ATOM     36 H    SER B 156      39.907 -17.130  -9.704  1.00 15.80 LIG 0.16  HD
ATOM     37  C   PRO B 155      38.908 -16.283 -11.138  1.00 18.36 LIG 0.24  C 
ATOM     38 O    PRO B 155      38.583 -16.363 -12.324  1.00 18.57 LIG-0.27  OA
BRANCH 37 39
ATOM     39  CA  PRO B 155      38.415 -15.130 -10.273  1.00 19.30 LIG 0.18  C 
ATOM     40  CB  PRO B 155      37.276 -15.550  -9.353  1.00 17.99 LIG 0.04  C 
ATOM     41  CG  PRO B 155      36.082 -15.395 -10.245  1.00 20.29 LIG 0.02  C 
ATOM     42  CD  PRO B 155      36.345 -14.059 -10.927  1.00 20.15 LIG 0.13  C 
ATOM     43  N   PRO B 155      37.813 -14.056 -11.070  1.00 20.34 LIG-0.34  N 
ATOM     44  C   SER B 154      38.551 -13.165 -11.754  1.00 23.17 LIG 0.24  C 
ATOM     45 O    SER B 154      39.782 -13.196 -11.753  1.00 21.43 LIG-0.27  OA
BRANCH 44 46
ATOM     46  CA  SER B 154      37.800 -12.097 -12.544  1.00 26.04 LIG 0.20  C 
BRANCH 46 47
ATOM     47  N   SER B 154      38.126 -10.753 -12.079  1.00 29.08 LIG-0.34  N 
ATOM     48 H    SER B 154      38.543 -10.269 -12.655  1.00 29.08 LIG 0.16  HD
ATOM     49  C   VAL B 153      37.795 -10.334 -10.861  1.00 31.74 LIG 0.26  C 
ATOM     50 O    VAL B 153      37.203 -11.041 -10.048  1.00 31.76 LIG-0.27  OA
BRANCH 49 51
ATOM     51  CA  VAL B 153      38.194  -8.905 -10.505  1.00 34.29 LIG 0.40  C 
ATOM     52  N   VAL B 153      38.221  -8.726  -9.027  1.00 34.52 LIG 0.61  N 
BRANCH 51 53
ATOM     53  CB  VAL B 153      39.579  -8.610 -11.130  1.00 36.17 LIG 0.03  C 
ATOM     54  CG2 VAL B 153      40.549  -8.155 -10.057  1.00 38.03 LIG 0.01  C 
ATOM     55  CG1 VAL B 153      39.448  -7.548 -12.211  1.00 38.39 LIG 0.01  C 
ENDBRANCH 51 53
ENDBRANCH 49 51
ENDBRANCH 46 47
BRANCH 46 56
ATOM     56  CB  SER B 154      38.132 -12.241 -14.031  1.00 27.48 LIG 0.20  C 
BRANCH 56 57
ATOM     57 OG   SER B 154      38.998 -11.205 -14.461  1.00 30.72 LIG-0.40  OA
ATOM     58 HG   SER B 154      38.593 -10.470 -14.432  1.00 30.72 LIG 0.21  HD
ENDBRANCH 56 57
ENDBRANCH 46 56
ENDBRANCH 44 46
ENDBRANCH 37 39
ENDBRANCH 34 35
BRANCH 34 59
ATOM     59  CB  SER B 156      41.473 -18.853 -10.508  1.00 16.81 LIG 0.20  C 
BRANCH 59 60
ATOM     60 OG   SER B 156      41.695 -18.122  -9.311  1.00 16.65 LIG-0.40  OA
ATOM     61 HG   SER B 156      42.416 -17.696  -9.373  1.00 16.65 LIG 0.21  HD
ENDBRANCH 59 60
ENDBRANCH 34 59
ENDBRANCH 1 34
TORSDOF 24
ENDMDL
MODEL 73
USER: ADFR SOLUTION from run 82
USER: SCORE 16.165946 LL:  -4.400 LR: -13.195 RR:   0.000 FEB:  -6.036
USER: RMSD 12.574413
USER: SEED 81
USER: STATUS 1 or 2 clusters left
USER: GENES 26
USER: genes 0 Translation |==|  0.38397 0.57280 0.54648
USER: genes 1 Rotation |==|  0.39215 0.87371 0.80251 0.58484
USER: genes 2 Torsion [C]-N--CA-[C] |==|  0.75294
USER: genes 3 Torsion [N]-CA--C-[N] |==|  0.45207
USER: genes 4 Torsion [C]-N--CA-[C] |==|  0.68315
USER: genes 5 Torsion [N]-CA--C-[N] |==|  0.76861
USER: genes 6 Torsion [C]-N--CA-[CB] |==|  0.86218
USER: genes 7 Torsion [N]-CA--C-[O] |==|  0.47861
USER: genes 8 Torsion [N]-CA--CB-[CG] |==|  0.78259
USER: genes 9 Torsion [CA]-CB--CG-[CD2] |==|  0.09735
USER: genes 10 Torsion [CE2]-CZ--OH-[HH] |==|  0.52317
USER: genes 11 Torsion [N]-CA--CB-[OG] |==|  0.73090
USER: genes 12 Torsion [CA]-CB--OG-[HG] |==|  0.69670
USER: genes 13 Torsion [N]-CA--CB-[CG2] |==|  0.62552
USER: genes 14 Torsion [CA]-CB--OG1-[HG1] |==|  0.25420
USER: genes 15 Torsion [N]-C--CA-[N] |==|  0.63023
USER: genes 16 Torsion [C]-CA--N-[C] |==|  0.16236
USER: genes 17 Torsion [N]-C--CA-[CB] |==|  0.15878
USER: genes 18 Torsion [N]-C--CA-[N] |==|  0.86667
USER: genes 19 Torsion [C]-CA--N-[C] |==|  0.84936
USER: genes 20 Torsion [N]-C--CA-[N] |==|  0.24166
USER: genes 21 Torsion [C]-CA--CB-[CG2] |==|  0.55309
USER: genes 22 Torsion [C]-CA--CB-[OG] |==|  0.66221
USER: genes 23 Torsion [CA]-CB--OG-[HG] |==|  0.68807
USER: genes 24 Torsion [C]-CA--CB-[OG] |==|  0.21238
USER: genes 25 Torsion [CA]-CB--OG-[HG] |==|  0.74409
ROOT
ATOM      1  C   SER B 156      35.746 -14.677  -8.853  1.00 15.87 LIG 0.24  C 
ATOM      2 O    SER B 156      36.428 -15.404  -8.129  1.00 15.60 LIG-0.27  OA
ATOM      3  N   THR B 157      34.433 -14.821  -9.000  1.00 16.26 LIG-0.34  N 
ATOM      4 H    THR B 157      33.938 -14.298  -9.470  1.00 16.26 LIG 0.16  HD
ENDROOT
BRANCH 3 5
ATOM      5  CA  THR B 157      33.720 -15.910  -8.353  1.00 15.91 LIG 0.20  C 
BRANCH 5 6
ATOM      6  C   THR B 157      33.791 -17.046  -9.369  1.00 16.14 LIG 0.24  C 
ATOM      7 O    THR B 157      34.077 -16.810 -10.547  1.00 15.69 LIG-0.27  OA
ATOM      8  N   SER B 158      33.536 -18.270  -8.924  1.00 15.14 LIG-0.34  N 
ATOM      9 H    SER B 158      33.335 -18.457  -8.110  1.00 15.14 LIG 0.16  HD
BRANCH 8 10
ATOM     10  CA  SER B 158      33.583 -19.421  -9.820  1.00 18.36 LIG 0.20  C 
BRANCH 10 11
ATOM     11  C   SER B 158      32.198 -20.039  -9.990  1.00 20.96 LIG 0.24  C 
ATOM     12 O    SER B 158      31.492 -19.748 -10.957  1.00 20.92 LIG-0.27  OA
ATOM     13  N   TYR B 159      31.816 -20.892  -9.045  1.00 23.40 LIG-0.35  N 
ATOM     14 H    TYR B 159      32.298 -21.103  -8.364  1.00 23.40 LIG 0.16  HD
BRANCH 13 15
ATOM     15  CA  TYR B 159      30.516 -21.555  -9.092  1.00 28.83 LIG 0.17  C 
BRANCH 15 16
ATOM     16  C   TYR B 159      30.481 -22.610 -10.192  1.00 30.09 LIG 0.22  C 
ATOM     17 O    TYR B 159      29.473 -23.348 -10.234  1.00 33.46 LIG-0.29  OA
ENDBRANCH 15 16
BRANCH 15 18
ATOM     18  CB  TYR B 159      29.407 -20.528  -9.337  1.00 32.38 LIG 0.07  C 
BRANCH 18 19
ATOM     19  CG  TYR B 159      29.024 -19.743  -8.102  1.00 36.58 LIG-0.06  A 
ATOM     20  CD2 TYR B 159      29.981 -19.392  -7.150  1.00 38.67 LIG 0.01  A 
ATOM     21  CE2 TYR B 159      29.634 -18.659  -6.016  1.00 40.79 LIG 0.04  A 
ATOM     22  CZ  TYR B 159      28.316 -18.273  -5.828  1.00 41.05 LIG 0.07  A 
ATOM     23  CE1 TYR B 159      27.347 -18.611  -6.759  1.00 40.09 LIG 0.04  A 
ATOM     24  CD1 TYR B 159      27.706 -19.342  -7.889  1.00 38.09 LIG 0.01  A 
BRANCH 22 25
ATOM     25 OH   TYR B 159      27.967 -17.550  -4.710  1.00 43.66 LIG-0.36  OA
ATOM     26 HH   TYR B 159      27.130 -17.485  -4.668  1.00 43.66 LIG 0.22  HD
ENDBRANCH 22 25
ENDBRANCH 18 19
ENDBRANCH 15 18
ENDBRANCH 13 15
ENDBRANCH 10 11
BRANCH 10 27
ATOM     27  CB  SER B 158      34.549 -20.474  -9.276  1.00 15.79 LIG 0.20  C 
BRANCH 27 28
ATOM     28 OG   SER B 158      35.822 -20.357  -9.887  1.00 17.90 LIG-0.40  OA
ATOM     29 HG   SER B 158      35.946 -21.008 -10.403  1.00 17.90 LIG 0.21  HD
ENDBRANCH 27 28
ENDBRANCH 10 27
ENDBRANCH 8 10
ENDBRANCH 5 6
BRANCH 5 30
ATOM     30  CB  THR B 157      32.237 -15.565  -8.100  1.00 18.18 LIG 0.15  C 
ATOM     31  CG2 THR B 157      31.823 -15.969  -6.695  1.00 16.96 LIG 0.04  C 
BRANCH 30 32
ATOM     32 OG1  THR B 157      32.036 -14.156  -8.278  1.00 15.90 LIG-0.39  OA
ATOM     33 HG1  THR B 157      31.818 -14.003  -9.075  1.00 15.90 LIG 0.21  HD
ENDBRANCH 30 32
ENDBRANCH 5 30
ENDBRANCH 3 5
BRANCH 1 34
ATOM     34  CA  SER B 156      36.386 -13.542  -9.632  1.00 16.58 LIG 0.20  C 
BRANCH 34 35
ATOM     35  N   SER B 156      37.579 -14.056 -10.292  1.00 15.80 LIG-0.34  N 
ATOM     36 H    SER B 156      38.304 -13.647 -10.077  1.00 15.80 LIG 0.16  HD
ATOM     37  C   PRO B 155      37.534 -15.070 -11.151  1.00 18.36 LIG 0.24  C 
ATOM     38 O    PRO B 155      36.490 -15.644 -11.465  1.00 18.57 LIG-0.27  OA
BRANCH 37 39
ATOM     39  CA  PRO B 155      38.866 -15.492 -11.758  1.00 19.30 LIG 0.18  C 
ATOM     40  CB  PRO B 155      39.887 -15.869 -10.693  1.00 17.99 LIG 0.04  C 
ATOM     41  CG  PRO B 155      40.470 -14.535 -10.335  1.00 20.29 LIG 0.02  C 
ATOM     42  CD  PRO B 155      40.673 -13.883 -11.696  1.00 20.15 LIG 0.13  C 
ATOM     43  N   PRO B 155      39.525 -14.392 -12.470  1.00 20.34 LIG-0.34  N 
ATOM     44  C   SER B 154      39.145 -13.997 -13.697  1.00 23.17 LIG 0.24  C 
ATOM     45 O    SER B 154      38.218 -14.536 -14.300  1.00 21.43 LIG-0.27  OA
BRANCH 44 46
ATOM     46  CA  SER B 154      39.915 -12.839 -14.326  1.00 26.04 LIG 0.20  C 
BRANCH 46 47
ATOM     47  N   SER B 154      40.063 -11.722 -13.398  1.00 29.08 LIG-0.34  N 
ATOM     48 H    SER B 154      40.875 -11.464 -13.280  1.00 29.08 LIG 0.16  HD
ATOM     49  C   VAL B 153      39.014 -11.168 -12.799  1.00 31.74 LIG 0.26  C 
ATOM     50 O    VAL B 153      37.860 -11.553 -12.975  1.00 31.76 LIG-0.27  OA
BRANCH 49 51
ATOM     51  CA  VAL B 153      39.310 -10.006 -11.855  1.00 34.29 LIG 0.40  C 
ATOM     52  N   VAL B 153      39.350  -8.722 -12.608  1.00 34.52 LIG 0.61  N 
BRANCH 51 53
ATOM     53  CB  VAL B 153      38.224  -9.976 -10.753  1.00 36.17 LIG 0.03  C 
ATOM     54  CG2 VAL B 153      38.191  -8.612 -10.090  1.00 38.03 LIG 0.01  C 
ATOM     55  CG1 VAL B 153      38.496 -11.060  -9.722  1.00 38.39 LIG 0.01  C 
ENDBRANCH 51 53
ENDBRANCH 49 51
ENDBRANCH 46 47
BRANCH 46 56
ATOM     56  CB  SER B 154      41.289 -13.335 -14.785  1.00 27.48 LIG 0.20  C 
BRANCH 56 57
ATOM     57 OG   SER B 154      42.329 -12.603 -14.160  1.00 30.72 LIG-0.40  OA
ATOM     58 HG   SER B 154      42.729 -12.138 -14.734  1.00 30.72 LIG 0.21  HD
ENDBRANCH 56 57
ENDBRANCH 46 56
ENDBRANCH 44 46
ENDBRANCH 37 39
ENDBRANCH 34 35
BRANCH 34 59
ATOM     59  CB  SER B 156      35.376 -13.047 -10.669  1.00 16.81 LIG 0.20  C 
BRANCH 59 60
ATOM     60 OG   SER B 156      34.378 -12.248 -10.051  1.00 16.65 LIG-0.40  OA
ATOM     61 HG   SER B 156      33.727 -12.732  -9.833  1.00 16.65 LIG 0.21  HD
ENDBRANCH 59 60
ENDBRANCH 34 59
ENDBRANCH 1 34
TORSDOF 24
ENDMDL
MODEL 74
USER: ADFR SOLUTION from run 57
USER: SCORE 16.878791 LL:  -4.652 LR: -13.201 RR:   0.000 FEB:  -6.041
USER: RMSD 13.592620
USER: SEED 56
USER: STATUS no improvement in best in 11 clusters for 5 generations
USER: GENES 26
USER: genes 0 Translation |==|  0.33906 0.63747 0.54221
USER: genes 1 Rotation |==|  0.84464 0.28152 0.76975 0.60357
USER: genes 2 Torsion [C]-N--CA-[C] |==|  0.57269
USER: genes 3 Torsion [N]-CA--C-[N] |==|  0.44226
USER: genes 4 Torsion [C]-N--CA-[C] |==|  0.69907
USER: genes 5 Torsion [N]-CA--C-[N] |==|  0.04702
USER: genes 6 Torsion [C]-N--CA-[CB] |==|  0.30469
USER: genes 7 Torsion [N]-CA--C-[O] |==|  0.95316
USER: genes 8 Torsion [N]-CA--CB-[CG] |==|  0.00260
USER: genes 9 Torsion [CA]-CB--CG-[CD2] |==|  0.27224
USER: genes 10 Torsion [CE2]-CZ--OH-[HH] |==|  0.56473
USER: genes 11 Torsion [N]-CA--CB-[OG] |==|  0.99413
USER: genes 12 Torsion [CA]-CB--OG-[HG] |==|  0.76500
USER: genes 13 Torsion [N]-CA--CB-[CG2] |==|  0.69823
USER: genes 14 Torsion [CA]-CB--OG1-[HG1] |==|  0.81999
USER: genes 15 Torsion [N]-C--CA-[N] |==|  0.52068
USER: genes 16 Torsion [C]-CA--N-[C] |==|  0.56048
USER: genes 17 Torsion [N]-C--CA-[CB] |==|  0.58396
USER: genes 18 Torsion [N]-C--CA-[N] |==|  0.12885
USER: genes 19 Torsion [C]-CA--N-[C] |==|  0.18057
USER: genes 20 Torsion [N]-C--CA-[N] |==|  0.41818
USER: genes 21 Torsion [C]-CA--CB-[CG2] |==|  0.16851
USER: genes 22 Torsion [C]-CA--CB-[OG] |==|  0.45895
USER: genes 23 Torsion [CA]-CB--OG-[HG] |==|  0.24646
USER: genes 24 Torsion [C]-CA--CB-[OG] |==|  0.21523
USER: genes 25 Torsion [CA]-CB--OG-[HG] |==|  0.82091
ROOT
ATOM      1  C   SER B 156      34.500 -13.174  -8.943  1.00 15.87 LIG 0.24  C 
ATOM      2 O    SER B 156      33.885 -12.250  -9.478  1.00 15.60 LIG-0.27  OA
ATOM      3  N   THR B 157      34.036 -13.847  -7.894  1.00 16.26 LIG-0.34  N 
ATOM      4 H    THR B 157      34.435 -14.519  -7.535  1.00 16.26 LIG 0.16  HD
ENDROOT
BRANCH 3 5
ATOM      5  CA  THR B 157      32.781 -13.478  -7.262  1.00 15.91 LIG 0.20  C 
BRANCH 5 6
ATOM      6  C   THR B 157      32.938 -13.970  -5.826  1.00 16.14 LIG 0.24  C 
ATOM      7 O    THR B 157      33.767 -14.844  -5.555  1.00 15.69 LIG-0.27  OA
ATOM      8  N   SER B 158      32.152 -13.418  -4.910  1.00 15.14 LIG-0.34  N 
ATOM      9 H    SER B 158      31.568 -12.810  -5.076  1.00 15.14 LIG 0.16  HD
BRANCH 8 10
ATOM     10  CA  SER B 158      32.232 -13.822  -3.510  1.00 18.36 LIG 0.20  C 
BRANCH 10 11
ATOM     11  C   SER B 158      31.006 -14.637  -3.105  1.00 20.96 LIG 0.24  C 
ATOM     12 O    SER B 158      30.726 -14.805  -1.917  1.00 20.92 LIG-0.27  OA
ATOM     13  N   TYR B 159      30.280 -15.138  -4.099  1.00 23.40 LIG-0.35  N 
ATOM     14 H    TYR B 159      30.465 -15.029  -4.932  1.00 23.40 LIG 0.16  HD
BRANCH 13 15
ATOM     15  CA  TYR B 159      29.081 -15.932  -3.845  1.00 28.83 LIG 0.17  C 
BRANCH 15 16
ATOM     16  C   TYR B 159      29.125 -17.247  -4.616  1.00 30.09 LIG 0.22  C 
ATOM     17 O    TYR B 159      29.945 -17.322  -5.556  1.00 33.46 LIG-0.29  OA
ENDBRANCH 15 16
BRANCH 15 18
ATOM     18  CB  TYR B 159      27.830 -15.146  -4.249  1.00 32.38 LIG 0.07  C 
BRANCH 18 19
ATOM     19  CG  TYR B 159      28.132 -13.779  -4.821  1.00 36.58 LIG-0.06  A 
ATOM     20  CD2 TYR B 159      28.169 -13.570  -6.199  1.00 38.67 LIG 0.01  A 
ATOM     21  CE2 TYR B 159      28.435 -12.309  -6.730  1.00 40.79 LIG 0.04  A 
ATOM     22  CZ  TYR B 159      28.669 -11.243  -5.875  1.00 41.05 LIG 0.07  A 
ATOM     23  CE1 TYR B 159      28.639 -11.425  -4.502  1.00 40.09 LIG 0.04  A 
ATOM     24  CD1 TYR B 159      28.369 -12.690  -3.983  1.00 38.09 LIG 0.01  A 
BRANCH 22 25
ATOM     25 OH   TYR B 159      28.933  -9.995  -6.393  1.00 43.66 LIG-0.36  OA
ATOM     26 HH   TYR B 159      29.355  -9.540  -5.827  1.00 43.66 LIG 0.22  HD
ENDBRANCH 22 25
ENDBRANCH 18 19
ENDBRANCH 15 18
ENDBRANCH 13 15
ENDBRANCH 10 11
BRANCH 10 27
ATOM     27  CB  SER B 158      32.345 -12.590  -2.611  1.00 15.79 LIG 0.20  C 
BRANCH 27 28
ATOM     28 OG   SER B 158      32.391 -11.403  -3.383  1.00 17.90 LIG-0.40  OA
ATOM     29 HG   SER B 158      33.181 -11.258  -3.628  1.00 17.90 LIG 0.21  HD
ENDBRANCH 27 28
ENDBRANCH 10 27
ENDBRANCH 8 10
ENDBRANCH 5 6
BRANCH 5 30
ATOM     30  CB  THR B 157      31.574 -14.198  -7.902  1.00 18.18 LIG 0.15  C 
ATOM     31  CG2 THR B 157      30.733 -13.222  -8.708  1.00 16.96 LIG 0.04  C 
BRANCH 30 32
ATOM     32 OG1  THR B 157      32.042 -15.251  -8.754  1.00 15.90 LIG-0.39  OA
ATOM     33 HG1  THR B 157      32.473 -14.922  -9.396  1.00 15.90 LIG 0.21  HD
ENDBRANCH 30 32
ENDBRANCH 5 30
ENDBRANCH 3 5
BRANCH 1 34
ATOM     34  CA  SER B 156      35.854 -13.611  -9.472  1.00 16.58 LIG 0.20  C 
BRANCH 34 35
ATOM     35  N   SER B 156      36.275 -12.660 -10.492  1.00 15.80 LIG-0.34  N 
ATOM     36 H    SER B 156      35.893 -11.892 -10.435  1.00 15.80 LIG 0.16  HD
ATOM     37  C   PRO B 155      37.173 -12.969 -11.423  1.00 18.36 LIG 0.24  C 
ATOM     38 O    PRO B 155      37.707 -14.076 -11.505  1.00 18.57 LIG-0.27  OA
BRANCH 37 39
ATOM     39  CA  PRO B 155      37.509 -11.867 -12.419  1.00 19.30 LIG 0.18  C 
ATOM     40  CB  PRO B 155      37.899 -12.425 -13.782  1.00 17.99 LIG 0.04  C 
ATOM     41  CG  PRO B 155      39.360 -12.706 -13.596  1.00 20.29 LIG 0.02  C 
ATOM     42  CD  PRO B 155      39.851 -11.459 -12.874  1.00 20.15 LIG 0.13  C 
ATOM     43  N   PRO B 155      38.699 -11.105 -12.024  1.00 20.34 LIG-0.34  N 
ATOM     44  C   SER B 154      38.667 -10.164 -11.066  1.00 23.17 LIG 0.24  C 
ATOM     45 O    SER B 154      37.634  -9.882 -10.458  1.00 21.43 LIG-0.27  OA
BRANCH 44 46
ATOM     46  CA  SER B 154      39.976  -9.445 -10.750  1.00 26.04 LIG 0.20  C 
BRANCH 46 47
ATOM     47  N   SER B 154      40.665  -9.021 -11.965  1.00 29.08 LIG-0.34  N 
ATOM     48 H    SER B 154      41.422  -9.409 -12.097  1.00 29.08 LIG 0.16  HD
ATOM     49  C   VAL B 153      40.146  -8.110 -12.782  1.00 31.74 LIG 0.26  C 
ATOM     50 O    VAL B 153      39.065  -7.562 -12.573  1.00 31.76 LIG-0.27  OA
BRANCH 49 51
ATOM     51  CA  VAL B 153      40.970  -7.760 -14.017  1.00 34.29 LIG 0.40  C 
ATOM     52  N   VAL B 153      40.079  -7.346 -15.136  1.00 34.52 LIG 0.61  N 
BRANCH 51 53
ATOM     53  CB  VAL B 153      41.963  -6.633 -13.645  1.00 36.17 LIG 0.03  C 
ATOM     54  CG2 VAL B 153      42.896  -7.101 -12.544  1.00 38.03 LIG 0.01  C 
ATOM     55  CG1 VAL B 153      41.203  -5.392 -13.204  1.00 38.39 LIG 0.01  C 
ENDBRANCH 51 53
ENDBRANCH 49 51
ENDBRANCH 46 47
BRANCH 46 56
ATOM     56  CB  SER B 154      39.687  -8.239  -9.853  1.00 27.48 LIG 0.20  C 
BRANCH 56 57
ATOM     57 OG   SER B 154      40.879  -7.747  -9.264  1.00 30.72 LIG-0.40  OA
ATOM     58 HG   SER B 154      41.229  -7.178  -9.773  1.00 30.72 LIG 0.21  HD
ENDBRANCH 56 57
ENDBRANCH 46 56
ENDBRANCH 44 46
ENDBRANCH 37 39
ENDBRANCH 34 35
BRANCH 34 59
ATOM     59  CB  SER B 156      36.844 -13.614  -8.306  1.00 16.81 LIG 0.20  C 
BRANCH 59 60
ATOM     60 OG   SER B 156      36.656 -14.765  -7.496  1.00 16.65 LIG-0.40  OA
ATOM     61 HG   SER B 156      35.895 -14.737  -7.140  1.00 16.65 LIG 0.21  HD
ENDBRANCH 59 60
ENDBRANCH 34 59
ENDBRANCH 1 34
TORSDOF 24
ENDMDL
MODEL 75
USER: ADFR SOLUTION from run 152
USER: SCORE 16.929289 LL:  -4.630 LR: -13.190 RR:   0.000 FEB:  -6.030
USER: RMSD 3.124753
USER: SEED 151
USER: STATUS no improvement in best in 11 clusters for 5 generations
USER: GENES 26
USER: genes 0 Translation |==|  0.38108 0.67828 0.49156
USER: genes 1 Rotation |==|  0.48143 0.48981 0.52456 0.99895
USER: genes 2 Torsion [C]-N--CA-[C] |==|  0.78335
USER: genes 3 Torsion [N]-CA--C-[N] |==|  0.45284
USER: genes 4 Torsion [C]-N--CA-[C] |==|  0.81908
USER: genes 5 Torsion [N]-CA--C-[N] |==|  0.92012
USER: genes 6 Torsion [C]-N--CA-[CB] |==|  0.37263
USER: genes 7 Torsion [N]-CA--C-[O] |==|  0.19005
USER: genes 8 Torsion [N]-CA--CB-[CG] |==|  0.09313
USER: genes 9 Torsion [CA]-CB--CG-[CD2] |==|  0.25987
USER: genes 10 Torsion [CE2]-CZ--OH-[HH] |==|  0.46849
USER: genes 11 Torsion [N]-CA--CB-[OG] |==|  0.18872
USER: genes 12 Torsion [CA]-CB--OG-[HG] |==|  0.74524
USER: genes 13 Torsion [N]-CA--CB-[CG2] |==|  0.06271
USER: genes 14 Torsion [CA]-CB--OG1-[HG1] |==|  0.18625
USER: genes 15 Torsion [N]-C--CA-[N] |==|  0.51007
USER: genes 16 Torsion [C]-CA--N-[C] |==|  0.57856
USER: genes 17 Torsion [N]-C--CA-[CB] |==|  0.57259
USER: genes 18 Torsion [N]-C--CA-[N] |==|  0.17089
USER: genes 19 Torsion [C]-CA--N-[C] |==|  0.60556
USER: genes 20 Torsion [N]-C--CA-[N] |==|  0.83472
USER: genes 21 Torsion [C]-CA--CB-[CG2] |==|  0.10352
USER: genes 22 Torsion [C]-CA--CB-[OG] |==|  0.78150
USER: genes 23 Torsion [CA]-CB--OG-[HG] |==|  0.96257
USER: genes 24 Torsion [C]-CA--CB-[OG] |==|  0.43555
USER: genes 25 Torsion [CA]-CB--OG-[HG] |==|  0.06517
ROOT
ATOM      1  C   SER B 156      35.666 -12.225 -10.006  1.00 15.87 LIG 0.24  C 
ATOM      2 O    SER B 156      34.831 -12.260 -10.912  1.00 15.60 LIG-0.27  OA
ATOM      3  N   THR B 157      36.819 -11.570 -10.103  1.00 16.26 LIG-0.34  N 
ATOM      4 H    THR B 157      37.393 -11.504  -9.466  1.00 16.26 LIG 0.16  HD
ENDROOT
BRANCH 3 5
ATOM      5  CA  THR B 157      37.200 -10.899 -11.334  1.00 15.91 LIG 0.20  C 
BRANCH 5 6
ATOM      6  C   THR B 157      37.682 -12.033 -12.233  1.00 16.14 LIG 0.24  C 
ATOM      7 O    THR B 157      37.970 -13.132 -11.748  1.00 15.69 LIG-0.27  OA
ATOM      8  N   SER B 158      37.769 -11.777 -13.533  1.00 15.14 LIG-0.34  N 
ATOM      9 H    SER B 158      37.574 -11.021 -13.891  1.00 15.14 LIG 0.16  HD
BRANCH 8 10
ATOM     10  CA  SER B 158      38.217 -12.800 -14.472  1.00 18.36 LIG 0.20  C 
BRANCH 10 11
ATOM     11  C   SER B 158      39.671 -13.181 -14.212  1.00 20.96 LIG 0.24  C 
ATOM     12 O    SER B 158      40.085 -14.310 -14.484  1.00 20.92 LIG-0.27  OA
ATOM     13  N   TYR B 159      40.442 -12.234 -13.687  1.00 23.40 LIG-0.35  N 
ATOM     14 H    TYR B 159      40.166 -11.443 -13.491  1.00 23.40 LIG 0.16  HD
BRANCH 13 15
ATOM     15  CA  TYR B 159      41.853 -12.470 -13.395  1.00 28.83 LIG 0.17  C 
BRANCH 15 16
ATOM     16  C   TYR B 159      42.076 -12.656 -11.898  1.00 30.09 LIG 0.22  C 
ATOM     17 O    TYR B 159      41.608 -13.694 -11.383  1.00 33.46 LIG-0.29  OA
ENDBRANCH 15 16
BRANCH 15 18
ATOM     18  CB  TYR B 159      42.701 -11.298 -13.895  1.00 32.38 LIG 0.07  C 
BRANCH 18 19
ATOM     19  CG  TYR B 159      42.000  -9.960 -13.802  1.00 36.58 LIG-0.06  A 
ATOM     20  CD2 TYR B 159      42.166  -9.140 -12.686  1.00 38.67 LIG 0.01  A 
ATOM     21  CE2 TYR B 159      41.532  -7.902 -12.602  1.00 40.79 LIG 0.04  A 
ATOM     22  CZ  TYR B 159      40.720  -7.477 -13.641  1.00 41.05 LIG 0.07  A 
ATOM     23  CE1 TYR B 159      40.538  -8.274 -14.760  1.00 40.09 LIG 0.04  A 
ATOM     24  CD1 TYR B 159      41.180  -9.509 -14.834  1.00 38.09 LIG 0.01  A 
BRANCH 22 25
ATOM     25 OH   TYR B 159      40.090  -6.256 -13.564  1.00 43.66 LIG-0.36  OA
ATOM     26 HH   TYR B 159      39.764  -6.060 -14.313  1.00 43.66 LIG 0.22  HD
ENDBRANCH 22 25
ENDBRANCH 18 19
ENDBRANCH 15 18
ENDBRANCH 13 15
ENDBRANCH 10 11
BRANCH 10 27
ATOM     27  CB  SER B 158      38.069 -12.298 -15.909  1.00 15.79 LIG 0.20  C 
BRANCH 27 28
ATOM     28 OG   SER B 158      38.976 -11.242 -16.172  1.00 17.90 LIG-0.40  OA
ATOM     29 HG   SER B 158      38.606 -10.506 -16.007  1.00 17.90 LIG 0.21  HD
ENDBRANCH 27 28
ENDBRANCH 10 27
ENDBRANCH 8 10
ENDBRANCH 5 6
BRANCH 5 30
ATOM     30  CB  THR B 157      38.365  -9.908 -11.120  1.00 18.18 LIG 0.15  C 
ATOM     31  CG2 THR B 157      39.160 -10.274  -9.878  1.00 16.96 LIG 0.04  C 
BRANCH 30 32
ATOM     32 OG1  THR B 157      39.225  -9.927 -12.267  1.00 15.90 LIG-0.39  OA
ATOM     33 HG1  THR B 157      38.816  -9.611 -12.929  1.00 15.90 LIG 0.21  HD
ENDBRANCH 30 32
ENDBRANCH 5 30
ENDBRANCH 3 5
BRANCH 1 34
ATOM     34  CA  SER B 156      35.412 -12.942  -8.692  1.00 16.58 LIG 0.20  C 
BRANCH 34 35
ATOM     35  N   SER B 156      34.153 -13.667  -8.803  1.00 15.80 LIG-0.34  N 
ATOM     36 H    SER B 156      33.957 -13.910  -9.604  1.00 15.80 LIG 0.16  HD
ATOM     37  C   PRO B 155      33.387 -13.924  -7.747  1.00 18.36 LIG 0.24  C 
ATOM     38 O    PRO B 155      33.669 -13.563  -6.603  1.00 18.57 LIG-0.27  OA
BRANCH 37 39
ATOM     39  CA  PRO B 155      32.101 -14.692  -8.025  1.00 19.30 LIG 0.18  C 
ATOM     40  CB  PRO B 155      31.025 -14.404  -6.986  1.00 17.99 LIG 0.04  C 
ATOM     41  CG  PRO B 155      31.374 -15.376  -5.899  1.00 20.29 LIG 0.02  C 
ATOM     42  CD  PRO B 155      31.668 -16.654  -6.674  1.00 20.15 LIG 0.13  C 
ATOM     43  N   PRO B 155      32.286 -16.143  -7.912  1.00 20.34 LIG-0.34  N 
ATOM     44  C   SER B 154      32.875 -16.872  -8.875  1.00 23.17 LIG 0.24  C 
ATOM     45 O    SER B 154      33.296 -16.365  -9.915  1.00 21.43 LIG-0.27  OA
BRANCH 44 46
ATOM     46  CA  SER B 154      33.006 -18.373  -8.632  1.00 26.04 LIG 0.20  C 
BRANCH 46 47
ATOM     47  N   SER B 154      31.701 -19.012  -8.487  1.00 29.08 LIG-0.34  N 
ATOM     48 H    SER B 154      31.093 -18.699  -9.009  1.00 29.08 LIG 0.16  HD
ATOM     49  C   VAL B 153      31.496 -19.993  -7.613  1.00 31.74 LIG 0.26  C 
ATOM     50 O    VAL B 153      32.376 -20.423  -6.871  1.00 31.76 LIG-0.27  OA
BRANCH 49 51
ATOM     51  CA  VAL B 153      30.086 -20.573  -7.566  1.00 34.29 LIG 0.40  C 
ATOM     52  N   VAL B 153      29.099 -19.513  -7.222  1.00 34.52 LIG 0.61  N 
BRANCH 51 53
ATOM     53  CB  VAL B 153      29.769 -21.210  -8.941  1.00 36.17 LIG 0.03  C 
ATOM     54  CG2 VAL B 153      31.007 -21.879  -9.505  1.00 38.03 LIG 0.01  C 
ATOM     55  CG1 VAL B 153      29.255 -20.148  -9.901  1.00 38.39 LIG 0.01  C 
ENDBRANCH 51 53
ENDBRANCH 49 51
ENDBRANCH 46 47
BRANCH 46 56
ATOM     56  CB  SER B 154      33.783 -19.007  -9.789  1.00 27.48 LIG 0.20  C 
BRANCH 56 57
ATOM     57 OG   SER B 154      32.952 -19.185 -10.923  1.00 30.72 LIG-0.40  OA
ATOM     58 HG   SER B 154      32.149 -19.083 -10.701  1.00 30.72 LIG 0.21  HD
ENDBRANCH 56 57
ENDBRANCH 46 56
ENDBRANCH 44 46
ENDBRANCH 37 39
ENDBRANCH 34 35
BRANCH 34 59
ATOM     59  CB  SER B 156      36.567 -13.914  -8.448  1.00 16.81 LIG 0.20  C 
BRANCH 59 60
ATOM     60 OG   SER B 156      36.687 -14.208  -7.064  1.00 16.65 LIG-0.40  OA
ATOM     61 HG   SER B 156      35.951 -14.072  -6.684  1.00 16.65 LIG 0.21  HD
ENDBRANCH 59 60
ENDBRANCH 34 59
ENDBRANCH 1 34
TORSDOF 24
ENDMDL
MODEL 76
USER: ADFR SOLUTION from run 19
USER: SCORE 17.464600 LL:  -4.486 LR: -13.184 RR:   0.000 FEB:  -6.025
USER: RMSD 12.360789
USER: SEED 18
USER: STATUS searching
USER: GENES 26
USER: genes 0 Translation |==|  0.37691 0.66846 0.47527
USER: genes 1 Rotation |==|  0.11131 0.66754 0.35663 0.72426
USER: genes 2 Torsion [C]-N--CA-[C] |==|  0.79599
USER: genes 3 Torsion [N]-CA--C-[N] |==|  0.33492
USER: genes 4 Torsion [C]-N--CA-[C] |==|  0.76066
USER: genes 5 Torsion [N]-CA--C-[N] |==|  0.98262
USER: genes 6 Torsion [C]-N--CA-[CB] |==|  0.16136
USER: genes 7 Torsion [N]-CA--C-[O] |==|  0.94676
USER: genes 8 Torsion [N]-CA--CB-[CG] |==|  0.34796
USER: genes 9 Torsion [CA]-CB--CG-[CD2] |==|  0.22211
USER: genes 10 Torsion [CE2]-CZ--OH-[HH] |==|  0.70492
USER: genes 11 Torsion [N]-CA--CB-[OG] |==|  0.97246
USER: genes 12 Torsion [CA]-CB--OG-[HG] |==|  0.94904
USER: genes 13 Torsion [N]-CA--CB-[CG2] |==|  0.06803
USER: genes 14 Torsion [CA]-CB--OG1-[HG1] |==|  0.21803
USER: genes 15 Torsion [N]-C--CA-[N] |==|  0.89340
USER: genes 16 Torsion [C]-CA--N-[C] |==|  0.85000
USER: genes 17 Torsion [N]-C--CA-[CB] |==|  0.63477
USER: genes 18 Torsion [N]-C--CA-[N] |==|  0.44163
USER: genes 19 Torsion [C]-CA--N-[C] |==|  0.80735
USER: genes 20 Torsion [N]-C--CA-[N] |==|  0.52386
USER: genes 21 Torsion [C]-CA--CB-[CG2] |==|  0.82729
USER: genes 22 Torsion [C]-CA--CB-[OG] |==|  0.56402
USER: genes 23 Torsion [CA]-CB--OG-[HG] |==|  0.24116
USER: genes 24 Torsion [C]-CA--CB-[OG] |==|  0.59918
USER: genes 25 Torsion [CA]-CB--OG-[HG] |==|  0.53437
ROOT
ATOM      1  C   SER B 156      35.550 -12.453 -10.348  1.00 15.87 LIG 0.24  C 
ATOM      2 O    SER B 156      34.342 -12.260 -10.200  1.00 15.60 LIG-0.27  OA
ATOM      3  N   THR B 157      36.070 -13.648 -10.615  1.00 16.26 LIG-0.34  N 
ATOM      4 H    THR B 157      36.905 -13.791 -10.760  1.00 16.26 LIG 0.16  HD
ENDROOT
BRANCH 3 5
ATOM      5  CA  THR B 157      35.232 -14.832 -10.683  1.00 15.91 LIG 0.20  C 
BRANCH 5 6
ATOM      6  C   THR B 157      34.884 -15.117  -9.225  1.00 16.14 LIG 0.24  C 
ATOM      7 O    THR B 157      35.780 -15.332  -8.402  1.00 15.69 LIG-0.27  OA
ATOM      8  N   SER B 158      33.597 -15.117  -8.900  1.00 15.14 LIG-0.34  N 
ATOM      9 H    SER B 158      32.958 -14.971  -9.455  1.00 15.14 LIG 0.16  HD
BRANCH 8 10
ATOM     10  CA  SER B 158      33.168 -15.376  -7.529  1.00 18.36 LIG 0.20  C 
BRANCH 10 11
ATOM     11  C   SER B 158      33.027 -16.874  -7.274  1.00 20.96 LIG 0.24  C 
ATOM     12 O    SER B 158      32.784 -17.300  -6.144  1.00 20.92 LIG-0.27  OA
ATOM     13  N   TYR B 159      33.180 -17.667  -8.330  1.00 23.40 LIG-0.35  N 
ATOM     14 H    TYR B 159      33.352 -17.382  -9.124  1.00 23.40 LIG 0.16  HD
BRANCH 13 15
ATOM     15  CA  TYR B 159      33.066 -19.119  -8.220  1.00 28.83 LIG 0.17  C 
BRANCH 15 16
ATOM     16  C   TYR B 159      33.272 -19.785  -9.575  1.00 30.09 LIG 0.22  C 
ATOM     17 O    TYR B 159      33.131 -19.064 -10.586  1.00 33.46 LIG-0.29  OA
ENDBRANCH 15 16
BRANCH 15 18
ATOM     18  CB  TYR B 159      31.690 -19.501  -7.667  1.00 32.38 LIG 0.07  C 
BRANCH 18 19
ATOM     19  CG  TYR B 159      30.933 -20.474  -8.544  1.00 36.58 LIG-0.06  A 
ATOM     20  CD2 TYR B 159      31.218 -21.839  -8.513  1.00 38.67 LIG 0.01  A 
ATOM     21  CE2 TYR B 159      30.515 -22.740  -9.310  1.00 40.79 LIG 0.04  A 
ATOM     22  CZ  TYR B 159      29.517 -22.273 -10.152  1.00 41.05 LIG 0.07  A 
ATOM     23  CE1 TYR B 159      29.217 -20.922 -10.203  1.00 40.09 LIG 0.04  A 
ATOM     24  CD1 TYR B 159      29.924 -20.031  -9.399  1.00 38.09 LIG 0.01  A 
BRANCH 22 25
ATOM     25 OH   TYR B 159      28.820 -23.158 -10.944  1.00 43.66 LIG-0.36  OA
ATOM     26 HH   TYR B 159      29.070 -23.078 -11.742  1.00 43.66 LIG 0.22  HD
ENDBRANCH 22 25
ENDBRANCH 18 19
ENDBRANCH 15 18
ENDBRANCH 13 15
ENDBRANCH 10 11
BRANCH 10 27
ATOM     27  CB  SER B 158      31.832 -14.683  -7.256  1.00 15.79 LIG 0.20  C 
BRANCH 27 28
ATOM     28 OG   SER B 158      31.491 -13.805  -8.313  1.00 17.90 LIG-0.40  OA
ATOM     29 HG   SER B 158      32.177 -13.632  -8.766  1.00 17.90 LIG 0.21  HD
ENDBRANCH 27 28
ENDBRANCH 10 27
ENDBRANCH 8 10
ENDBRANCH 5 6
BRANCH 5 30
ATOM     30  CB  THR B 157      35.989 -16.049 -11.257  1.00 18.18 LIG 0.15  C 
ATOM     31  CG2 THR B 157      37.486 -15.900 -11.043  1.00 16.96 LIG 0.04  C 
BRANCH 30 32
ATOM     32 OG1  THR B 157      35.526 -17.246 -10.616  1.00 15.90 LIG-0.39  OA
ATOM     33 HG1  THR B 157      34.791 -17.476 -10.950  1.00 15.90 LIG 0.21  HD
ENDBRANCH 30 32
ENDBRANCH 5 30
ENDBRANCH 3 5
BRANCH 1 34
ATOM     34  CA  SER B 156      36.537 -11.305 -10.238  1.00 16.58 LIG 0.20  C 
BRANCH 34 35
ATOM     35  N   SER B 156      37.735 -11.794  -9.567  1.00 15.80 LIG-0.34  N 
ATOM     36 H    SER B 156      38.463 -11.653 -10.002  1.00 15.80 LIG 0.16  HD
ATOM     37  C   PRO B 155      37.688 -12.402  -8.386  1.00 18.36 LIG 0.24  C 
ATOM     38 O    PRO B 155      36.639 -12.610  -7.774  1.00 18.57 LIG-0.27  OA
BRANCH 37 39
ATOM     39  CA  PRO B 155      39.025 -12.856  -7.814  1.00 19.30 LIG 0.18  C 
ATOM     40  CB  PRO B 155      38.982 -14.301  -7.331  1.00 17.99 LIG 0.04  C 
ATOM     41  CG  PRO B 155      38.437 -14.148  -5.943  1.00 20.29 LIG 0.02  C 
ATOM     42  CD  PRO B 155      39.223 -12.961  -5.404  1.00 20.15 LIG 0.13  C 
ATOM     43  N   PRO B 155      39.390 -12.116  -6.601  1.00 20.34 LIG-0.34  N 
ATOM     44  C   SER B 154      39.884 -10.867  -6.640  1.00 23.17 LIG 0.24  C 
ATOM     45 O    SER B 154      40.061 -10.265  -7.700  1.00 21.43 LIG-0.27  OA
BRANCH 44 46
ATOM     46  CA  SER B 154      40.223 -10.209  -5.305  1.00 26.04 LIG 0.20  C 
BRANCH 46 47
ATOM     47  N   SER B 154      41.173  -9.114  -5.470  1.00 29.08 LIG-0.34  N 
ATOM     48 H    SER B 154      40.842  -8.333  -5.327  1.00 29.08 LIG 0.16  HD
ATOM     49  C   VAL B 153      42.439  -9.331  -5.812  1.00 31.74 LIG 0.26  C 
ATOM     50 O    VAL B 153      42.894 -10.454  -6.017  1.00 31.76 LIG-0.27  OA
BRANCH 49 51
ATOM     51  CA  VAL B 153      43.325  -8.096  -5.946  1.00 34.29 LIG 0.40  C 
ATOM     52  N   VAL B 153      44.645  -8.464  -6.530  1.00 34.52 LIG 0.61  N 
BRANCH 51 53
ATOM     53  CB  VAL B 153      42.592  -7.057  -6.830  1.00 36.17 LIG 0.03  C 
ATOM     54  CG2 VAL B 153      42.368  -7.621  -8.220  1.00 38.03 LIG 0.01  C 
ATOM     55  CG1 VAL B 153      43.401  -5.772  -6.902  1.00 38.39 LIG 0.01  C 
ENDBRANCH 51 53
ENDBRANCH 49 51
ENDBRANCH 46 47
BRANCH 46 56
ATOM     56  CB  SER B 154      38.936  -9.704  -4.649  1.00 27.48 LIG 0.20  C 
BRANCH 56 57
ATOM     57 OG   SER B 154      39.210  -8.665  -3.725  1.00 30.72 LIG-0.40  OA
ATOM     58 HG   SER B 154      39.223  -7.928  -4.127  1.00 30.72 LIG 0.21  HD
ENDBRANCH 56 57
ENDBRANCH 46 56
ENDBRANCH 44 46
ENDBRANCH 37 39
ENDBRANCH 34 35
BRANCH 34 59
ATOM     59  CB  SER B 156      36.876 -10.829 -11.651  1.00 16.81 LIG 0.20  C 
BRANCH 59 60
ATOM     60 OG   SER B 156      38.236 -10.429 -11.730  1.00 16.65 LIG-0.40  OA
ATOM     61 HG   SER B 156      38.366 -10.016 -12.450  1.00 16.65 LIG 0.21  HD
ENDBRANCH 59 60
ENDBRANCH 34 59
ENDBRANCH 1 34
TORSDOF 24
ENDMDL
MODEL 77
USER: ADFR SOLUTION from run 55
USER: SCORE 16.624657 LL:  -3.729 LR: -13.182 RR:   0.000 FEB:  -6.023
USER: RMSD 8.288683
USER: SEED 54
USER: STATUS no improvement in best in 5 clusters for 5 generations
USER: GENES 26
USER: genes 0 Translation |==|  0.27222 0.53290 0.61601
USER: genes 1 Rotation |==|  0.85597 0.39210 0.16614 0.51323
USER: genes 2 Torsion [C]-N--CA-[C] |==|  0.77290
USER: genes 3 Torsion [N]-CA--C-[N] |==|  0.97715
USER: genes 4 Torsion [C]-N--CA-[C] |==|  0.56830
USER: genes 5 Torsion [N]-CA--C-[N] |==|  0.41667
USER: genes 6 Torsion [C]-N--CA-[CB] |==|  0.47055
USER: genes 7 Torsion [N]-CA--C-[O] |==|  0.89774
USER: genes 8 Torsion [N]-CA--CB-[CG] |==|  0.35352
USER: genes 9 Torsion [CA]-CB--CG-[CD2] |==|  0.73037
USER: genes 10 Torsion [CE2]-CZ--OH-[HH] |==|  0.36136
USER: genes 11 Torsion [N]-CA--CB-[OG] |==|  0.63737
USER: genes 12 Torsion [CA]-CB--OG-[HG] |==|  0.04596
USER: genes 13 Torsion [N]-CA--CB-[CG2] |==|  0.83931
USER: genes 14 Torsion [CA]-CB--OG1-[HG1] |==|  0.85005
USER: genes 15 Torsion [N]-C--CA-[N] |==|  0.38625
USER: genes 16 Torsion [C]-CA--N-[C] |==|  0.82845
USER: genes 17 Torsion [N]-C--CA-[CB] |==|  0.45687
USER: genes 18 Torsion [N]-C--CA-[N] |==|  0.45407
USER: genes 19 Torsion [C]-CA--N-[C] |==|  0.80360
USER: genes 20 Torsion [N]-C--CA-[N] |==|  0.52226
USER: genes 21 Torsion [C]-CA--CB-[CG2] |==|  0.76265
USER: genes 22 Torsion [C]-CA--CB-[OG] |==|  0.73708
USER: genes 23 Torsion [CA]-CB--OG-[HG] |==|  0.89897
USER: genes 24 Torsion [C]-CA--CB-[OG] |==|  0.38391
USER: genes 25 Torsion [CA]-CB--OG-[HG] |==|  0.65585
ROOT
ATOM      1  C   SER B 156      32.645 -15.605  -7.393  1.00 15.87 LIG 0.24  C 
ATOM      2 O    SER B 156      33.436 -15.630  -6.448  1.00 15.60 LIG-0.27  OA
ATOM      3  N   THR B 157      32.611 -16.538  -8.339  1.00 16.26 LIG-0.34  N 
ATOM      4 H    THR B 157      32.040 -16.556  -8.981  1.00 16.26 LIG 0.16  HD
ENDROOT
BRANCH 3 5
ATOM      5  CA  THR B 157      33.570 -17.629  -8.351  1.00 15.91 LIG 0.20  C 
BRANCH 5 6
ATOM      6  C   THR B 157      34.807 -17.021  -9.005  1.00 16.14 LIG 0.24  C 
ATOM      7 O    THR B 157      35.869 -17.650  -9.034  1.00 15.69 LIG-0.27  OA
ATOM      8  N   SER B 158      34.678 -15.808  -9.529  1.00 15.14 LIG-0.34  N 
ATOM      9 H    SER B 158      33.949 -15.352  -9.520  1.00 15.14 LIG 0.16  HD
BRANCH 8 10
ATOM     10  CA  SER B 158      35.804 -15.146 -10.179  1.00 18.36 LIG 0.20  C 
BRANCH 10 11
ATOM     11  C   SER B 158      35.635 -13.629 -10.154  1.00 20.96 LIG 0.24  C 
ATOM     12 O    SER B 158      34.513 -13.120 -10.163  1.00 20.92 LIG-0.27  OA
ATOM     13  N   TYR B 159      36.754 -12.914 -10.121  1.00 23.40 LIG-0.35  N 
ATOM     14 H    TYR B 159      37.544 -13.257 -10.116  1.00 23.40 LIG 0.16  HD
BRANCH 13 15
ATOM     15  CA  TYR B 159      36.730 -11.454 -10.091  1.00 28.83 LIG 0.17  C 
BRANCH 15 16
ATOM     16  C   TYR B 159      36.236 -10.890 -11.418  1.00 30.09 LIG 0.22  C 
ATOM     17 O    TYR B 159      36.588 -11.495 -12.454  1.00 33.46 LIG-0.29  OA
ENDBRANCH 15 16
BRANCH 15 18
ATOM     18  CB  TYR B 159      38.128 -10.907  -9.793  1.00 32.38 LIG 0.07  C 
BRANCH 18 19
ATOM     19  CG  TYR B 159      38.605  -9.881 -10.797  1.00 36.58 LIG-0.06  A 
ATOM     20  CD2 TYR B 159      39.435 -10.246 -11.856  1.00 38.67 LIG 0.01  A 
ATOM     21  CE2 TYR B 159      39.867  -9.305 -12.789  1.00 40.79 LIG 0.04  A 
ATOM     22  CZ  TYR B 159      39.468  -7.984 -12.664  1.00 41.05 LIG 0.07  A 
ATOM     23  CE1 TYR B 159      38.644  -7.596 -11.620  1.00 40.09 LIG 0.04  A 
ATOM     24  CD1 TYR B 159      38.216  -8.546 -10.694  1.00 38.09 LIG 0.01  A 
BRANCH 22 25
ATOM     25 OH   TYR B 159      39.891  -7.050 -13.582  1.00 43.66 LIG-0.36  OA
ATOM     26 HH   TYR B 159      39.231  -6.613 -13.863  1.00 43.66 LIG 0.22  HD
ENDBRANCH 22 25
ENDBRANCH 18 19
ENDBRANCH 15 18
ENDBRANCH 13 15
ENDBRANCH 10 11
BRANCH 10 27
ATOM     27  CB  SER B 158      35.932 -15.622 -11.627  1.00 15.79 LIG 0.20  C 
BRANCH 27 28
ATOM     28 OG   SER B 158      37.264 -16.008 -11.917  1.00 17.90 LIG-0.40  OA
ATOM     29 HG   SER B 158      37.686 -16.121 -11.199  1.00 17.90 LIG 0.21  HD
ENDBRANCH 27 28
ENDBRANCH 10 27
ENDBRANCH 8 10
ENDBRANCH 5 6
BRANCH 5 30
ATOM     30  CB  THR B 157      33.090 -18.817  -9.213  1.00 18.18 LIG 0.15  C 
ATOM     31  CG2 THR B 157      31.752 -19.336  -8.714  1.00 16.96 LIG 0.04  C 
BRANCH 30 32
ATOM     32 OG1  THR B 157      32.967 -18.398 -10.579  1.00 15.90 LIG-0.39  OA
ATOM     33 HG1  THR B 157      32.475 -17.719 -10.621  1.00 15.90 LIG 0.21  HD
ENDBRANCH 30 32
ENDBRANCH 5 30
ENDBRANCH 3 5
BRANCH 1 34
ATOM     34  CA  SER B 156      31.634 -14.480  -7.527  1.00 16.58 LIG 0.20  C 
BRANCH 34 35
ATOM     35  N   SER B 156      31.106 -14.181  -6.202  1.00 15.80 LIG-0.34  N 
ATOM     36 H    SER B 156      31.266 -13.380  -5.932  1.00 15.80 LIG 0.16  HD
ATOM     37  C   PRO B 155      30.437 -15.079  -5.485  1.00 18.36 LIG 0.24  C 
ATOM     38 O    PRO B 155      30.220 -16.228  -5.873  1.00 18.57 LIG-0.27  OA
BRANCH 37 39
ATOM     39  CA  PRO B 155      29.948 -14.614  -4.119  1.00 19.30 LIG 0.18  C 
ATOM     40  CB  PRO B 155      28.892 -15.547  -3.540  1.00 17.99 LIG 0.04  C 
ATOM     41  CG  PRO B 155      27.636 -15.024  -4.171  1.00 20.29 LIG 0.02  C 
ATOM     42  CD  PRO B 155      27.792 -13.516  -4.027  1.00 20.15 LIG 0.13  C 
ATOM     43  N   PRO B 155      29.246 -13.328  -4.189  1.00 20.34 LIG-0.34  N 
ATOM     44  C   SER B 154      29.896 -12.157  -4.302  1.00 23.17 LIG 0.24  C 
ATOM     45 O    SER B 154      31.124 -12.092  -4.354  1.00 21.43 LIG-0.27  OA
BRANCH 44 46
ATOM     46  CA  SER B 154      29.046 -10.891  -4.365  1.00 26.04 LIG 0.20  C 
BRANCH 46 47
ATOM     47  N   SER B 154      29.839  -9.695  -4.098  1.00 29.08 LIG-0.34  N 
ATOM     48 H    SER B 154      29.969  -9.195  -4.786  1.00 29.08 LIG 0.16  HD
ATOM     49  C   VAL B 153      30.311  -9.425  -2.885  1.00 31.74 LIG 0.26  C 
ATOM     50 O    VAL B 153      30.121 -10.155  -1.914  1.00 31.76 LIG-0.27  OA
BRANCH 49 51
ATOM     51  CA  VAL B 153      31.122  -8.141  -2.745  1.00 34.29 LIG 0.40  C 
ATOM     52  N   VAL B 153      31.745  -8.063  -1.394  1.00 34.52 LIG 0.61  N 
BRANCH 51 53
ATOM     53  CB  VAL B 153      32.197  -8.112  -3.859  1.00 36.17 LIG 0.03  C 
ATOM     54  CG2 VAL B 153      33.432  -8.870  -3.413  1.00 38.03 LIG 0.01  C 
ATOM     55  CG1 VAL B 153      32.552  -6.674  -4.204  1.00 38.39 LIG 0.01  C 
ENDBRANCH 51 53
ENDBRANCH 49 51
ENDBRANCH 46 47
BRANCH 46 56
ATOM     56  CB  SER B 154      28.384 -10.794  -5.741  1.00 27.48 LIG 0.20  C 
BRANCH 56 57
ATOM     57 OG   SER B 154      29.155  -9.995  -6.622  1.00 30.72 LIG-0.40  OA
ATOM     58 HG   SER B 154      29.502  -9.361  -6.194  1.00 30.72 LIG 0.21  HD
ENDBRANCH 56 57
ENDBRANCH 46 56
ENDBRANCH 44 46
ENDBRANCH 37 39
ENDBRANCH 34 35
BRANCH 34 59
ATOM     59  CB  SER B 156      32.353 -13.259  -8.101  1.00 16.81 LIG 0.20  C 
BRANCH 59 60
ATOM     60 OG   SER B 156      31.545 -12.620  -9.079  1.00 16.65 LIG-0.40  OA
ATOM     61 HG   SER B 156      31.968 -12.569  -9.803  1.00 16.65 LIG 0.21  HD
ENDBRANCH 59 60
ENDBRANCH 34 59
ENDBRANCH 1 34
TORSDOF 24
ENDMDL
MODEL 78
USER: ADFR SOLUTION from run 133
USER: SCORE 17.123530 LL:  -4.196 LR: -13.179 RR:   0.000 FEB:  -6.020
USER: RMSD 4.743654
USER: SEED 132
USER: STATUS no improvement in best in 19 clusters for 5 generations
USER: GENES 26
USER: genes 0 Translation |==|  0.38159 0.53412 0.47405
USER: genes 1 Rotation |==|  0.58303 0.48088 0.64533 0.97076
USER: genes 2 Torsion [C]-N--CA-[C] |==|  0.65256
USER: genes 3 Torsion [N]-CA--C-[N] |==|  0.42498
USER: genes 4 Torsion [C]-N--CA-[C] |==|  0.78556
USER: genes 5 Torsion [N]-CA--C-[N] |==|  0.89132
USER: genes 6 Torsion [C]-N--CA-[CB] |==|  0.35466
USER: genes 7 Torsion [N]-CA--C-[O] |==|  0.77258
USER: genes 8 Torsion [N]-CA--CB-[CG] |==|  0.75904
USER: genes 9 Torsion [CA]-CB--CG-[CD2] |==|  0.71936
USER: genes 10 Torsion [CE2]-CZ--OH-[HH] |==|  0.72061
USER: genes 11 Torsion [N]-CA--CB-[OG] |==|  0.04303
USER: genes 12 Torsion [CA]-CB--OG-[HG] |==|  0.20494
USER: genes 13 Torsion [N]-CA--CB-[CG2] |==|  0.45368
USER: genes 14 Torsion [CA]-CB--OG1-[HG1] |==|  0.07022
USER: genes 15 Torsion [N]-C--CA-[N] |==|  0.38908
USER: genes 16 Torsion [C]-CA--N-[C] |==|  0.83888
USER: genes 17 Torsion [N]-C--CA-[CB] |==|  0.41132
USER: genes 18 Torsion [N]-C--CA-[N] |==|  0.36223
USER: genes 19 Torsion [C]-CA--N-[C] |==|  0.79806
USER: genes 20 Torsion [N]-C--CA-[N] |==|  0.23297
USER: genes 21 Torsion [C]-CA--CB-[CG2] |==|  0.78592
USER: genes 22 Torsion [C]-CA--CB-[OG] |==|  0.55498
USER: genes 23 Torsion [CA]-CB--OG-[HG] |==|  0.37091
USER: genes 24 Torsion [C]-CA--CB-[OG] |==|  0.63801
USER: genes 25 Torsion [CA]-CB--OG-[HG] |==|  0.81297
ROOT
ATOM      1  C   SER B 156      35.680 -15.577 -10.374  1.00 15.87 LIG 0.24  C 
ATOM      2 O    SER B 156      34.876 -15.660 -11.304  1.00 15.60 LIG-0.27  OA
ATOM      3  N   THR B 157      36.372 -14.474 -10.106  1.00 16.26 LIG-0.34  N 
ATOM      4 H    THR B 157      36.906 -14.387  -9.437  1.00 16.26 LIG 0.16  HD
ENDROOT
BRANCH 3 5
ATOM      5  CA  THR B 157      36.269 -13.299 -10.954  1.00 15.91 LIG 0.20  C 
BRANCH 5 6
ATOM      6  C   THR B 157      37.714 -13.004 -11.346  1.00 16.14 LIG 0.24  C 
ATOM      7 O    THR B 157      38.641 -13.347 -10.606  1.00 15.69 LIG-0.27  OA
ATOM      8  N   SER B 158      37.910 -12.376 -12.499  1.00 15.14 LIG-0.34  N 
ATOM      9 H    SER B 158      37.281 -12.128 -13.029  1.00 15.14 LIG 0.16  HD
BRANCH 8 10
ATOM     10  CA  SER B 158      39.257 -12.054 -12.959  1.00 18.36 LIG 0.20  C 
BRANCH 10 11
ATOM     11  C   SER B 158      39.814 -10.843 -12.217  1.00 20.96 LIG 0.24  C 
ATOM     12 O    SER B 158      40.997 -10.802 -11.876  1.00 20.92 LIG-0.27  OA
ATOM     13  N   TYR B 159      38.955  -9.859 -11.971  1.00 23.40 LIG-0.35  N 
ATOM     14 H    TYR B 159      38.126  -9.875 -12.203  1.00 23.40 LIG 0.16  HD
BRANCH 13 15
ATOM     15  CA  TYR B 159      39.363  -8.643 -11.272  1.00 28.83 LIG 0.17  C 
BRANCH 15 16
ATOM     16  C   TYR B 159      38.729  -8.572  -9.888  1.00 30.09 LIG 0.22  C 
ATOM     17 O    TYR B 159      37.555  -8.148  -9.827  1.00 33.46 LIG-0.29  OA
ENDBRANCH 15 16
BRANCH 15 18
ATOM     18  CB  TYR B 159      38.962  -7.407 -12.082  1.00 32.38 LIG 0.07  C 
BRANCH 18 19
ATOM     19  CG  TYR B 159      39.991  -6.997 -13.112  1.00 36.58 LIG-0.06  A 
ATOM     20  CD2 TYR B 159      40.866  -5.938 -12.869  1.00 38.67 LIG 0.01  A 
ATOM     21  CE2 TYR B 159      41.823  -5.564 -13.811  1.00 40.79 LIG 0.04  A 
ATOM     22  CZ  TYR B 159      41.906  -6.253 -15.011  1.00 41.05 LIG 0.07  A 
ATOM     23  CE1 TYR B 159      41.047  -7.307 -15.276  1.00 40.09 LIG 0.04  A 
ATOM     24  CD1 TYR B 159      40.097  -7.674 -14.326  1.00 38.09 LIG 0.01  A 
BRANCH 22 25
ATOM     25 OH   TYR B 159      42.849  -5.888 -15.946  1.00 43.66 LIG-0.36  OA
ATOM     26 HH   TYR B 159      42.485  -5.424 -16.545  1.00 43.66 LIG 0.22  HD
ENDBRANCH 22 25
ENDBRANCH 18 19
ENDBRANCH 15 18
ENDBRANCH 13 15
ENDBRANCH 10 11
BRANCH 10 27
ATOM     27  CB  SER B 158      39.247 -11.772 -14.463  1.00 15.79 LIG 0.20  C 
BRANCH 27 28
ATOM     28 OG   SER B 158      37.927 -11.549 -14.927  1.00 17.90 LIG-0.40  OA
ATOM     29 HG   SER B 158      37.665 -10.792 -14.675  1.00 17.90 LIG 0.21  HD
ENDBRANCH 27 28
ENDBRANCH 10 27
ENDBRANCH 8 10
ENDBRANCH 5 6
BRANCH 5 30
ATOM     30  CB  THR B 157      35.705 -12.079 -10.193  1.00 18.18 LIG 0.15  C 
ATOM     31  CG2 THR B 157      35.986 -10.794 -10.954  1.00 16.96 LIG 0.04  C 
BRANCH 30 32
ATOM     32 OG1  THR B 157      34.291 -12.238 -10.016  1.00 15.90 LIG-0.39  OA
ATOM     33 HG1  THR B 157      34.097 -13.055 -10.031  1.00 15.90 LIG 0.21  HD
ENDBRANCH 30 32
ENDBRANCH 5 30
ENDBRANCH 3 5
BRANCH 1 34
ATOM     34  CA  SER B 156      35.924 -16.759  -9.454  1.00 16.58 LIG 0.20  C 
BRANCH 34 35
ATOM     35  N   SER B 156      34.646 -17.410  -9.197  1.00 15.80 LIG-0.34  N 
ATOM     36 H    SER B 156      34.622 -18.240  -9.423  1.00 15.80 LIG 0.16  HD
ATOM     37  C   PRO B 155      33.616 -16.764  -8.660  1.00 18.36 LIG 0.24  C 
ATOM     38 O    PRO B 155      33.654 -15.573  -8.348  1.00 18.57 LIG-0.27  OA
BRANCH 37 39
ATOM     39  CA  PRO B 155      32.348 -17.582  -8.453  1.00 19.30 LIG 0.18  C 
ATOM     40  CB  PRO B 155      31.559 -17.120  -7.234  1.00 17.99 LIG 0.04  C 
ATOM     41  CG  PRO B 155      32.230 -17.875  -6.126  1.00 20.29 LIG 0.02  C 
ATOM     42  CD  PRO B 155      32.386 -19.269  -6.718  1.00 20.15 LIG 0.13  C 
ATOM     43  N   PRO B 155      32.637 -18.986  -8.143  1.00 20.34 LIG-0.34  N 
ATOM     44  C   SER B 154      32.999 -19.873  -9.086  1.00 23.17 LIG 0.24  C 
ATOM     45 O    SER B 154      33.110 -19.560 -10.271  1.00 21.43 LIG-0.27  OA
BRANCH 44 46
ATOM     46  CA  SER B 154      33.272 -21.304  -8.630  1.00 26.04 LIG 0.20  C 
BRANCH 46 47
ATOM     47  N   SER B 154      32.561 -22.277  -9.453  1.00 29.08 LIG-0.34  N 
ATOM     48 H    SER B 154      33.065 -22.723  -9.989  1.00 29.08 LIG 0.16  HD
ATOM     49  C   VAL B 153      31.245 -22.442  -9.362  1.00 31.74 LIG 0.26  C 
ATOM     50 O    VAL B 153      30.541 -21.792  -8.593  1.00 31.76 LIG-0.27  OA
BRANCH 49 51
ATOM     51  CA  VAL B 153      30.631 -23.496 -10.278  1.00 34.29 LIG 0.40  C 
ATOM     52  N   VAL B 153      30.745 -24.848  -9.665  1.00 34.52 LIG 0.61  N 
BRANCH 51 53
ATOM     53  CB  VAL B 153      29.151 -23.121 -10.538  1.00 36.17 LIG 0.03  C 
ATOM     54  CG2 VAL B 153      28.303 -23.479  -9.332  1.00 38.03 LIG 0.01  C 
ATOM     55  CG1 VAL B 153      28.641 -23.840 -11.777  1.00 38.39 LIG 0.01  C 
ENDBRANCH 51 53
ENDBRANCH 49 51
ENDBRANCH 46 47
BRANCH 46 56
ATOM     56  CB  SER B 154      34.779 -21.569  -8.673  1.00 27.48 LIG 0.20  C 
BRANCH 56 57
ATOM     57 OG   SER B 154      35.050 -22.960  -8.704  1.00 30.72 LIG-0.40  OA
ATOM     58 HG   SER B 154      35.623 -23.121  -9.295  1.00 30.72 LIG 0.21  HD
ENDBRANCH 56 57
ENDBRANCH 46 56
ENDBRANCH 44 46
ENDBRANCH 37 39
ENDBRANCH 34 35
BRANCH 34 59
ATOM     59  CB  SER B 156      36.880 -17.723 -10.158  1.00 16.81 LIG 0.20  C 
BRANCH 59 60
ATOM     60 OG   SER B 156      36.370 -19.048 -10.120  1.00 16.65 LIG-0.40  OA
ATOM     61 HG   SER B 156      36.373 -19.327  -9.328  1.00 16.65 LIG 0.21  HD
ENDBRANCH 59 60
ENDBRANCH 34 59
ENDBRANCH 1 34
TORSDOF 24
ENDMDL
