MODEL 1
USER: ADFR SOLUTION from run 2
USER: SCORE 15.644977 LL:  -0.488 LR: -16.028 RR:   0.000 FEB: -12.150
USER: RMSD 1.633230
USER: SEED 297532
USER: STATUS no improvement in best in 6 clusters for 5 generations
USER: GENES 15
USER: genes 0 Translation |==|  0.50904 0.41986 0.58555
USER: genes 1 Rotation |==|  0.52487 0.56139 0.52554 0.99493
USER: genes 2 Torsion [CB]-CA--N-[C] |==|  0.47827
USER: genes 3 Torsion [N]-C--CA-[N] |==|  0.48524
USER: genes 4 Torsion [C]-CA--N-[C] |==|  0.24094
USER: genes 5 Torsion [N]-C--CA-[N] |==|  0.84072
USER: genes 6 Torsion [C]-CA--CB-[OG] |==|  0.87290
USER: genes 7 Torsion [CA]-CB--OG-[HG] |==|  0.90327
USER: genes 8 Torsion [N]-CA--CB-[CG] |==|  0.88868
USER: genes 9 Torsion [CA]-CB--CG-[CD] |==|  0.73040
USER: genes 10 Torsion [CB]-CG--CD-[NE] |==|  0.88520
USER: genes 11 Torsion [CG]-CD--NE-[CZ] |==|  0.74744
USER: genes 12 Torsion [N]-CA--C-[N] |==|  0.44444
USER: genes 13 Torsion [C]-N--CA-[C] |==|  0.80978
USER: genes 14 Torsion [N]-CA--C-[O] |==|  0.27846
ROOT
ATOM      1  CA  ARG E   4       5.960   4.278  23.965  1.00 23.90 LIG 0.18  C 
ENDROOT
BRANCH 1 2
ATOM      2  N   ARG E   4       6.077   3.680  22.649  1.00 30.77 LIG-0.35  N 
ATOM      3 H    ARG E   4       5.539   3.028  22.492  1.00 30.77 LIG 0.16  HD
ATOM      4  C   GLY E   3       6.970   4.152  21.793  1.00 25.66 LIG 0.24  C 
ATOM      5 O    GLY E   3       8.031   4.658  22.155  1.00 29.19 LIG-0.27  OA
BRANCH 4 6
ATOM      6  CA  GLY E   3       6.667   3.967  20.327  1.00 22.47 LIG 0.23  C 
BRANCH 6 7
ATOM      7  N   GLY E   3       7.697   4.659  19.578  1.00 33.62 LIG-0.35  N 
ATOM      8  C   SER E   2       8.828   4.031  19.285  1.00 31.79 LIG 0.26  C 
ATOM      9 O    SER E   2       8.973   2.816  19.494  1.00 29.25 LIG-0.27  OA
ATOM     10 H    GLY E   3       7.510   5.469  19.356  1.00 33.62 LIG 0.16  HD
BRANCH 8 11
ATOM     11  CA  SER E   2       9.937   4.883  18.639  1.00 26.25 LIG 0.42  C 
ATOM     12  N   SER E   2       9.485   5.517  17.406  1.00 36.21 LIG 0.62  N 
BRANCH 11 13
ATOM     13  CB  SER E   2      10.483   5.941  19.615  1.00 32.03 LIG 0.21  C 
BRANCH 13 14
ATOM     14 OG   SER E   2       9.440   6.631  20.301  1.00 34.92 LIG-0.40  OA
ATOM     15 HG   SER E   2       8.780   6.722  19.790  1.00 34.92 LIG 0.21  HD
ENDBRANCH 13 14
ENDBRANCH 11 13
ENDBRANCH 8 11
ENDBRANCH 6 7
ENDBRANCH 4 6
ENDBRANCH 1 2
BRANCH 1 16
ATOM     16  CB  ARG E   4       4.733   3.656  24.625  1.00 27.29 LIG 0.04  C 
BRANCH 16 17
ATOM     17  CG  ARG E   4       3.581   3.483  23.652  1.00 23.54 LIG 0.02  C 
BRANCH 17 18
ATOM     18  CD  ARG E   4       2.576   4.624  23.737  1.00 24.92 LIG 0.14  C 
BRANCH 18 19
ATOM     19  NE  ARG E   4       2.293   5.049  25.114  1.00 26.33 LIG-0.23  N 
ATOM     20  CZ  ARG E   4       1.306   4.535  25.852  1.00 30.25 LIG 0.67  C 
ATOM     21  NH2 ARG E   4       1.095   4.953  27.102  1.00 27.06 LIG-0.23  N 
ATOM     22  NH1 ARG E   4       0.521   3.592  25.329  1.00 23.50 LIG-0.23  N 
ATOM     23 2HH2 ARG E   4       0.457   4.614  27.567  1.00 27.06 LIG 0.17  HD
ATOM     24 1HH2 ARG E   4       1.599   5.562  27.442  1.00 27.06 LIG 0.17  HD
ATOM     25 2HH1 ARG E   4      -0.118   3.255  25.797  1.00 23.50 LIG 0.17  HD
ATOM     26 1HH1 ARG E   4       0.652   3.321  24.524  1.00 23.50 LIG 0.17  HD
ATOM     27 HE   ARG E   4       2.788   5.660  25.462  1.00 26.33 LIG 0.18  HD
ENDBRANCH 18 19
ENDBRANCH 17 18
ENDBRANCH 16 17
ENDBRANCH 1 16
BRANCH 1 28
ATOM     28  C   ARG E   4       7.184   4.234  24.899  1.00 22.79 LIG 0.24  C 
ATOM     29 O    ARG E   4       8.087   3.410  24.753  1.00 23.55 LIG-0.27  OA
ATOM     30  N   GLY E   5       7.182   5.121  25.886  1.00 27.73 LIG-0.35  N 
ATOM     31 H    GLY E   5       6.521   5.644  26.056  1.00 27.73 LIG 0.16  HD
BRANCH 30 32
ATOM     32  CA  GLY E   5       8.316   5.282  26.777  1.00 23.99 LIG 0.21  C 
BRANCH 32 33
ATOM     33  C   GLY E   5       8.395   4.025  27.609  1.00 34.17 LIG 0.21  C 
ATOM     34 O    GLY E   5       9.215   3.151  27.304  1.00 39.09 LIG-0.29  OA
ENDBRANCH 32 33
ENDBRANCH 30 32
ENDBRANCH 1 28
TORSDOF 13
ENDMDL
MODEL 2
USER: ADFR SOLUTION from run 168
USER: SCORE 13.599424 LL:  -0.647 LR: -15.471 RR:   0.000 FEB: -11.593
USER: RMSD 7.089275
USER: SEED 167
USER: STATUS no improvement in best in 8 clusters for 5 generations
USER: GENES 15
USER: genes 0 Translation |==|  0.55789 0.46323 0.59901
USER: genes 1 Rotation |==|  0.24838 0.60104 0.15445 0.73889
USER: genes 2 Torsion [CB]-CA--N-[C] |==|  0.40018
USER: genes 3 Torsion [N]-C--CA-[N] |==|  0.92024
USER: genes 4 Torsion [C]-CA--N-[C] |==|  0.59143
USER: genes 5 Torsion [N]-C--CA-[N] |==|  0.71760
USER: genes 6 Torsion [C]-CA--CB-[OG] |==|  0.54400
USER: genes 7 Torsion [CA]-CB--OG-[HG] |==|  0.25122
USER: genes 8 Torsion [N]-CA--CB-[CG] |==|  0.70787
USER: genes 9 Torsion [CA]-CB--CG-[CD] |==|  0.91573
USER: genes 10 Torsion [CB]-CG--CD-[NE] |==|  0.38245
USER: genes 11 Torsion [CG]-CD--NE-[CZ] |==|  0.70094
USER: genes 12 Torsion [N]-CA--C-[N] |==|  0.73989
USER: genes 13 Torsion [C]-N--CA-[C] |==|  0.85305
USER: genes 14 Torsion [N]-CA--C-[O] |==|  0.34591
ROOT
ATOM      1  CA  ARG E   4       6.986   4.864  24.197  1.00 23.90 LIG 0.18  C 
ENDROOT
BRANCH 1 2
ATOM      2  N   ARG E   4       5.574   4.660  24.456  1.00 30.77 LIG-0.35  N 
ATOM      3 H    ARG E   4       5.189   5.282  24.907  1.00 30.77 LIG 0.16  HD
ATOM      4  C   GLY E   3       4.975   3.570  24.002  1.00 25.66 LIG 0.24  C 
ATOM      5 O    GLY E   3       5.568   2.500  23.860  1.00 29.19 LIG-0.27  OA
BRANCH 4 6
ATOM      6  CA  GLY E   3       3.494   3.668  23.739  1.00 22.47 LIG 0.23  C 
BRANCH 6 7
ATOM      7  N   GLY E   3       2.955   4.663  24.645  1.00 33.62 LIG-0.35  N 
ATOM      8  C   SER E   2       1.722   4.523  25.113  1.00 31.79 LIG 0.26  C 
ATOM      9 O    SER E   2       1.066   3.485  24.927  1.00 29.25 LIG-0.27  OA
ATOM     10 H    GLY E   3       3.484   5.314  24.836  1.00 33.62 LIG 0.16  HD
BRANCH 8 11
ATOM     11  CA  SER E   2       1.161   5.702  25.930  1.00 26.25 LIG 0.42  C 
ATOM     12  N   SER E   2       1.212   5.442  27.364  1.00 36.21 LIG 0.62  N 
BRANCH 11 13
ATOM     13  CB  SER E   2       1.887   7.020  25.600  1.00 32.03 LIG 0.21  C 
BRANCH 13 14
ATOM     14 OG   SER E   2       1.645   8.028  26.579  1.00 34.92 LIG-0.40  OA
ATOM     15 HG   SER E   2       2.233   7.985  27.178  1.00 34.92 LIG 0.21  HD
ENDBRANCH 13 14
ENDBRANCH 11 13
ENDBRANCH 8 11
ENDBRANCH 6 7
ENDBRANCH 4 6
ENDBRANCH 1 2
BRANCH 1 16
ATOM     16  CB  ARG E   4       7.183   6.360  23.976  1.00 27.29 LIG 0.04  C 
BRANCH 16 17
ATOM     17  CG  ARG E   4       7.398   6.704  22.513  1.00 23.54 LIG 0.02  C 
BRANCH 17 18
ATOM     18  CD  ARG E   4       8.082   5.577  21.750  1.00 24.92 LIG 0.14  C 
BRANCH 18 19
ATOM     19  NE  ARG E   4       7.502   5.338  20.423  1.00 26.33 LIG-0.23  N 
ATOM     20  CZ  ARG E   4       6.756   4.269  20.130  1.00 30.25 LIG 0.67  C 
ATOM     21  NH2 ARG E   4       6.247   4.103  18.907  1.00 27.06 LIG-0.23  N 
ATOM     22  NH1 ARG E   4       6.520   3.358  21.074  1.00 23.50 LIG-0.23  N 
ATOM     23 2HH2 ARG E   4       5.769   3.411  18.731  1.00 27.06 LIG 0.17  HD
ATOM     24 1HH2 ARG E   4       6.398   4.688  18.295  1.00 27.06 LIG 0.17  HD
ATOM     25 2HH1 ARG E   4       6.041   2.666  20.894  1.00 23.50 LIG 0.17  HD
ATOM     26 1HH1 ARG E   4       6.847   3.461  21.863  1.00 23.50 LIG 0.17  HD
ATOM     27 HE   ARG E   4       7.650   5.915  19.802  1.00 26.33 LIG 0.18  HD
ENDBRANCH 18 19
ENDBRANCH 17 18
ENDBRANCH 16 17
ENDBRANCH 1 16
BRANCH 1 28
ATOM     28  C   ARG E   4       8.003   4.306  25.211  1.00 22.79 LIG 0.24  C 
ATOM     29 O    ARG E   4       8.395   3.140  25.169  1.00 23.55 LIG-0.27  OA
ATOM     30  N   GLY E   5       8.399   5.157  26.149  1.00 27.73 LIG-0.35  N 
ATOM     31 H    GLY E   5       8.071   5.946  26.248  1.00 27.73 LIG 0.16  HD
BRANCH 30 32
ATOM     32  CA  GLY E   5       9.439   4.819  27.104  1.00 23.99 LIG 0.21  C 
BRANCH 32 33
ATOM     33  C   GLY E   5       9.033   3.510  27.739  1.00 34.17 LIG 0.21  C 
ATOM     34 O    GLY E   5       9.816   2.554  27.701  1.00 39.09 LIG-0.29  OA
ENDBRANCH 32 33
ENDBRANCH 30 32
ENDBRANCH 1 28
TORSDOF 13
ENDMDL
MODEL 3
USER: ADFR SOLUTION from run 23
USER: SCORE 14.677184 LL:  -0.665 LR: -15.339 RR:   0.000 FEB: -11.461
USER: RMSD 2.849736
USER: SEED 22
USER: STATUS no improvement in best in 6 clusters for 5 generations
USER: GENES 15
USER: genes 0 Translation |==|  0.50536 0.43546 0.55334
USER: genes 1 Rotation |==|  0.49474 0.58845 0.61597 0.97823
USER: genes 2 Torsion [CB]-CA--N-[C] |==|  0.46667
USER: genes 3 Torsion [N]-C--CA-[N] |==|  0.89203
USER: genes 4 Torsion [C]-CA--N-[C] |==|  0.83263
USER: genes 5 Torsion [N]-C--CA-[N] |==|  0.16003
USER: genes 6 Torsion [C]-CA--CB-[OG] |==|  0.59452
USER: genes 7 Torsion [CA]-CB--OG-[HG] |==|  0.43301
USER: genes 8 Torsion [N]-CA--CB-[CG] |==|  0.81057
USER: genes 9 Torsion [CA]-CB--CG-[CD] |==|  0.82214
USER: genes 10 Torsion [CB]-CG--CD-[NE] |==|  0.80743
USER: genes 11 Torsion [CG]-CD--NE-[CZ] |==|  0.77619
USER: genes 12 Torsion [N]-CA--C-[N] |==|  0.52908
USER: genes 13 Torsion [C]-N--CA-[C] |==|  0.75771
USER: genes 14 Torsion [N]-CA--C-[O] |==|  0.02781
ROOT
ATOM      1  CA  ARG E   4       5.883   4.489  23.409  1.00 23.90 LIG 0.18  C 
ENDROOT
BRANCH 1 2
ATOM      2  N   ARG E   4       6.118   3.857  22.126  1.00 30.77 LIG-0.35  N 
ATOM      3 H    ARG E   4       5.908   3.025  22.080  1.00 30.77 LIG 0.16  HD
ATOM      4  C   GLY E   3       6.624   4.568  21.129  1.00 25.66 LIG 0.24  C 
ATOM      5 O    GLY E   3       7.387   5.516  21.313  1.00 29.19 LIG-0.27  OA
BRANCH 4 6
ATOM      6  CA  GLY E   3       6.289   4.111  19.731  1.00 22.47 LIG 0.23  C 
BRANCH 6 7
ATOM      7  N   GLY E   3       6.315   2.662  19.728  1.00 33.62 LIG-0.35  N 
ATOM      8  C   SER E   2       7.435   2.026  20.042  1.00 31.79 LIG 0.26  C 
ATOM      9 O    SER E   2       8.423   2.627  20.494  1.00 29.25 LIG-0.27  OA
ATOM     10 H    GLY E   3       5.574   2.280  19.513  1.00 33.62 LIG 0.16  HD
BRANCH 8 11
ATOM     11  CA  SER E   2       7.432   0.497  19.851  1.00 26.25 LIG 0.42  C 
ATOM     12  N   SER E   2       7.124   0.123  18.476  1.00 36.21 LIG 0.62  N 
BRANCH 11 13
ATOM     13  CB  SER E   2       8.767  -0.133  20.290  1.00 32.03 LIG 0.21  C 
BRANCH 13 14
ATOM     14 OG   SER E   2       9.120  -1.259  19.489  1.00 34.92 LIG-0.40  OA
ATOM     15 HG   SER E   2       9.952  -1.373  19.516  1.00 34.92 LIG 0.21  HD
ENDBRANCH 13 14
ENDBRANCH 11 13
ENDBRANCH 8 11
ENDBRANCH 6 7
ENDBRANCH 4 6
ENDBRANCH 1 2
BRANCH 1 16
ATOM     16  CB  ARG E   4       5.034   3.521  24.228  1.00 27.29 LIG 0.04  C 
BRANCH 16 17
ATOM     17  CG  ARG E   4       3.631   3.370  23.670  1.00 23.54 LIG 0.02  C 
BRANCH 17 18
ATOM     18  CD  ARG E   4       2.841   4.671  23.734  1.00 24.92 LIG 0.14  C 
BRANCH 18 19
ATOM     19  NE  ARG E   4       2.491   5.073  25.102  1.00 26.33 LIG-0.23  N 
ATOM     20  CZ  ARG E   4       1.460   4.557  25.777  1.00 30.25 LIG 0.67  C 
ATOM     21  NH2 ARG E   4       1.189   4.954  27.022  1.00 27.06 LIG-0.23  N 
ATOM     22  NH1 ARG E   4       0.692   3.635  25.195  1.00 23.50 LIG-0.23  N 
ATOM     23 2HH2 ARG E   4       0.523   4.615  27.446  1.00 27.06 LIG 0.17  HD
ATOM     24 1HH2 ARG E   4       1.682   5.549  27.401  1.00 27.06 LIG 0.17  HD
ATOM     25 2HH1 ARG E   4       0.026   3.298  25.623  1.00 23.50 LIG 0.17  HD
ATOM     26 1HH1 ARG E   4       0.863   3.377  24.392  1.00 23.50 LIG 0.17  HD
ATOM     27 HE   ARG E   4       2.974   5.670  25.488  1.00 26.33 LIG 0.18  HD
ENDBRANCH 18 19
ENDBRANCH 17 18
ENDBRANCH 16 17
ENDBRANCH 1 16
BRANCH 1 28
ATOM     28  C   ARG E   4       7.099   4.988  24.212  1.00 22.79 LIG 0.24  C 
ATOM     29 O    ARG E   4       8.233   5.014  23.732  1.00 23.55 LIG-0.27  OA
ATOM     30  N   GLY E   5       6.847   5.357  25.461  1.00 27.73 LIG-0.35  N 
ATOM     31 H    GLY E   5       6.081   5.264  25.842  1.00 27.73 LIG 0.16  HD
BRANCH 30 32
ATOM     32  CA  GLY E   5       7.863   5.958  26.306  1.00 23.99 LIG 0.21  C 
BRANCH 32 33
ATOM     33  C   GLY E   5       8.602   4.821  26.970  1.00 34.17 LIG 0.21  C 
ATOM     34 O    GLY E   5       8.397   3.664  26.586  1.00 39.09 LIG-0.29  OA
ENDBRANCH 32 33
ENDBRANCH 30 32
ENDBRANCH 1 28
TORSDOF 13
ENDMDL
MODEL 4
USER: ADFR SOLUTION from run 14
USER: SCORE 14.841461 LL:  -0.454 LR: -15.288 RR:   0.000 FEB: -11.410
USER: RMSD 6.332075
USER: SEED 40872
USER: STATUS no improvement in best in 8 clusters for 5 generations
USER: GENES 15
USER: genes 0 Translation |==|  0.52556 0.38510 0.60273
USER: genes 1 Rotation |==|  0.02216 0.37499 0.55447 0.55542
USER: genes 2 Torsion [CB]-CA--N-[C] |==|  0.48333
USER: genes 3 Torsion [N]-C--CA-[N] |==|  0.49108
USER: genes 4 Torsion [C]-CA--N-[C] |==|  0.72563
USER: genes 5 Torsion [N]-C--CA-[N] |==|  0.05921
USER: genes 6 Torsion [C]-CA--CB-[OG] |==|  0.91998
USER: genes 7 Torsion [CA]-CB--OG-[HG] |==|  0.54581
USER: genes 8 Torsion [N]-CA--CB-[CG] |==|  0.29342
USER: genes 9 Torsion [CA]-CB--CG-[CD] |==|  0.55759
USER: genes 10 Torsion [CB]-CG--CD-[NE] |==|  0.14693
USER: genes 11 Torsion [CG]-CD--NE-[CZ] |==|  0.60246
USER: genes 12 Torsion [N]-CA--C-[N] |==|  0.48801
USER: genes 13 Torsion [C]-N--CA-[C] |==|  0.52020
USER: genes 14 Torsion [N]-CA--C-[O] |==|  0.30431
ROOT
ATOM      1  CA  ARG E   4       6.307   3.809  24.261  1.00 23.90 LIG 0.18  C 
ENDROOT
BRANCH 1 2
ATOM      2  N   ARG E   4       6.586   4.438  25.537  1.00 30.77 LIG-0.35  N 
ATOM      3 H    ARG E   4       5.896   4.624  26.015  1.00 30.77 LIG 0.16  HD
ATOM      4  C   GLY E   3       7.839   4.682  25.887  1.00 25.66 LIG 0.24  C 
ATOM      5 O    GLY E   3       8.721   4.921  25.063  1.00 29.19 LIG-0.27  OA
BRANCH 4 6
ATOM      6  CA  GLY E   3       8.133   4.739  27.365  1.00 22.47 LIG 0.23  C 
BRANCH 6 7
ATOM      7  N   GLY E   3       9.560   4.939  27.520  1.00 33.62 LIG-0.35  N 
ATOM      8  C   SER E   2      10.343   3.900  27.776  1.00 31.79 LIG 0.26  C 
ATOM      9 O    SER E   2       9.917   2.734  27.733  1.00 29.25 LIG-0.27  OA
ATOM     10 H    GLY E   3       9.830   5.751  27.433  1.00 33.62 LIG 0.16  HD
BRANCH 8 11
ATOM     11  CA  SER E   2      11.817   4.214  28.095  1.00 26.25 LIG 0.42  C 
ATOM     12  N   SER E   2      11.993   5.591  28.542  1.00 36.21 LIG 0.62  N 
BRANCH 11 13
ATOM     13  CB  SER E   2      12.396   3.236  29.133  1.00 32.03 LIG 0.21  C 
BRANCH 13 14
ATOM     14 OG   SER E   2      11.395   2.735  30.018  1.00 34.92 LIG-0.40  OA
ATOM     15 HG   SER E   2      11.762   2.396  30.693  1.00 34.92 LIG 0.21  HD
ENDBRANCH 13 14
ENDBRANCH 11 13
ENDBRANCH 8 11
ENDBRANCH 6 7
ENDBRANCH 4 6
ENDBRANCH 1 2
BRANCH 1 16
ATOM     16  CB  ARG E   4       4.807   3.529  24.225  1.00 27.29 LIG 0.04  C 
BRANCH 16 17
ATOM     17  CG  ARG E   4       4.064   4.489  23.313  1.00 23.54 LIG 0.02  C 
BRANCH 17 18
ATOM     18  CD  ARG E   4       2.579   4.563  23.641  1.00 24.92 LIG 0.14  C 
BRANCH 18 19
ATOM     19  NE  ARG E   4       2.308   4.855  25.054  1.00 26.33 LIG-0.23  N 
ATOM     20  CZ  ARG E   4       1.293   4.315  25.734  1.00 30.25 LIG 0.67  C 
ATOM     21  NH2 ARG E   4       1.095   4.610  27.020  1.00 27.06 LIG-0.23  N 
ATOM     22  NH1 ARG E   4       0.466   3.472  25.114  1.00 23.50 LIG-0.23  N 
ATOM     23 2HH2 ARG E   4       0.438   4.256  27.446  1.00 27.06 LIG 0.17  HD
ATOM     24 1HH2 ARG E   4       1.626   5.154  27.423  1.00 27.06 LIG 0.17  HD
ATOM     25 2HH1 ARG E   4      -0.191   3.120  25.544  1.00 23.50 LIG 0.17  HD
ATOM     26 1HH1 ARG E   4       0.589   3.280  24.284  1.00 23.50 LIG 0.17  HD
ATOM     27 HE   ARG E   4       2.830   5.401  25.465  1.00 26.33 LIG 0.18  HD
ENDBRANCH 18 19
ENDBRANCH 17 18
ENDBRANCH 16 17
ENDBRANCH 1 16
BRANCH 1 28
ATOM     28  C   ARG E   4       6.778   4.520  22.978  1.00 22.79 LIG 0.24  C 
ATOM     29 O    ARG E   4       7.282   5.643  23.001  1.00 23.55 LIG-0.27  OA
ATOM     30  N   GLY E   5       6.573   3.854  21.848  1.00 27.73 LIG-0.35  N 
ATOM     31 H    GLY E   5       6.145   3.109  21.803  1.00 27.73 LIG 0.16  HD
BRANCH 30 32
ATOM     32  CA  GLY E   5       7.066   4.337  20.571  1.00 23.99 LIG 0.21  C 
BRANCH 32 33
ATOM     33  C   GLY E   5       6.491   3.425  19.514  1.00 34.17 LIG 0.21  C 
ATOM     34 O    GLY E   5       5.620   3.860  18.752  1.00 39.09 LIG-0.29  OA
ENDBRANCH 32 33
ENDBRANCH 30 32
ENDBRANCH 1 28
TORSDOF 13
ENDMDL
MODEL 5
USER: ADFR SOLUTION from run 53
USER: SCORE 13.998503 LL:  -0.290 LR: -15.276 RR:   0.000 FEB: -11.398
USER: RMSD 6.411951
USER: SEED 52
USER: STATUS no improvement in best in 8 clusters for 5 generations
USER: GENES 15
USER: genes 0 Translation |==|  0.54262 0.36785 0.51270
USER: genes 1 Rotation |==|  0.97988 0.45267 0.38947 0.57254
USER: genes 2 Torsion [CB]-CA--N-[C] |==|  0.18268
USER: genes 3 Torsion [N]-C--CA-[N] |==|  0.31111
USER: genes 4 Torsion [C]-CA--N-[C] |==|  0.68814
USER: genes 5 Torsion [N]-C--CA-[N] |==|  0.80299
USER: genes 6 Torsion [C]-CA--CB-[OG] |==|  0.56118
USER: genes 7 Torsion [CA]-CB--OG-[HG] |==|  0.25325
USER: genes 8 Torsion [N]-CA--CB-[CG] |==|  0.71822
USER: genes 9 Torsion [CA]-CB--CG-[CD] |==|  0.52465
USER: genes 10 Torsion [CB]-CG--CD-[NE] |==|  0.64901
USER: genes 11 Torsion [CG]-CD--NE-[CZ] |==|  0.63601
USER: genes 12 Torsion [N]-CA--C-[N] |==|  0.21631
USER: genes 13 Torsion [C]-N--CA-[C] |==|  0.64344
USER: genes 14 Torsion [N]-CA--C-[O] |==|  0.62733
ROOT
ATOM      1  CA  ARG E   4       6.665   3.576  22.708  1.00 23.90 LIG 0.18  C 
ENDROOT
BRANCH 1 2
ATOM      2  N   ARG E   4       7.607   4.472  23.349  1.00 30.77 LIG-0.35  N 
ATOM      3 H    ARG E   4       8.198   4.818  22.830  1.00 30.77 LIG 0.16  HD
ATOM      4  C   GLY E   3       7.511   4.703  24.649  1.00 25.66 LIG 0.24  C 
ATOM      5 O    GLY E   3       7.074   3.866  25.439  1.00 29.19 LIG-0.27  OA
BRANCH 4 6
ATOM      6  CA  GLY E   3       8.043   6.024  25.146  1.00 22.47 LIG 0.23  C 
BRANCH 6 7
ATOM      7  N   GLY E   3       6.911   6.810  25.594  1.00 33.62 LIG-0.35  N 
ATOM      8  C   SER E   2       6.566   7.902  24.924  1.00 31.79 LIG 0.26  C 
ATOM      9 O    SER E   2       7.083   8.189  23.833  1.00 29.25 LIG-0.27  OA
ATOM     10 H    GLY E   3       6.510   6.514  26.295  1.00 33.62 LIG 0.16  HD
BRANCH 8 11
ATOM     11  CA  SER E   2       5.465   8.774  25.557  1.00 26.25 LIG 0.42  C 
ATOM     12  N   SER E   2       4.158   8.131  25.489  1.00 36.21 LIG 0.62  N 
BRANCH 11 13
ATOM     13  CB  SER E   2       5.802   9.149  27.012  1.00 32.03 LIG 0.21  C 
BRANCH 13 14
ATOM     14 OG   SER E   2       4.639   9.500  27.761  1.00 34.92 LIG-0.40  OA
ATOM     15 HG   SER E   2       4.330   8.815  28.137  1.00 34.92 LIG 0.21  HD
ENDBRANCH 13 14
ENDBRANCH 11 13
ENDBRANCH 8 11
ENDBRANCH 6 7
ENDBRANCH 4 6
ENDBRANCH 1 2
BRANCH 1 16
ATOM     16  CB  ARG E   4       5.294   4.239  22.797  1.00 27.29 LIG 0.04  C 
BRANCH 16 17
ATOM     17  CG  ARG E   4       4.438   3.646  23.902  1.00 23.54 LIG 0.02  C 
BRANCH 17 18
ATOM     18  CD  ARG E   4       3.002   4.151  23.855  1.00 24.92 LIG 0.14  C 
BRANCH 18 19
ATOM     19  NE  ARG E   4       2.545   4.725  25.127  1.00 26.33 LIG-0.23  N 
ATOM     20  CZ  ARG E   4       1.387   4.394  25.706  1.00 30.25 LIG 0.67  C 
ATOM     21  NH2 ARG E   4       1.022   4.942  26.868  1.00 27.06 LIG-0.23  N 
ATOM     22  NH1 ARG E   4       0.588   3.507  25.113  1.00 23.50 LIG-0.23  N 
ATOM     23 2HH2 ARG E   4       0.275   4.721  27.230  1.00 27.06 LIG 0.17  HD
ATOM     24 1HH2 ARG E   4       1.535   5.516  27.253  1.00 27.06 LIG 0.17  HD
ATOM     25 2HH1 ARG E   4      -0.159   3.289  25.479  1.00 23.50 LIG 0.17  HD
ATOM     26 1HH1 ARG E   4       0.820   3.153  24.364  1.00 23.50 LIG 0.17  HD
ATOM     27 HE   ARG E   4       3.048   5.302  25.518  1.00 26.33 LIG 0.18  HD
ENDBRANCH 18 19
ENDBRANCH 17 18
ENDBRANCH 16 17
ENDBRANCH 1 16
BRANCH 1 28
ATOM     28  C   ARG E   4       6.968   3.101  21.274  1.00 22.79 LIG 0.24  C 
ATOM     29 O    ARG E   4       6.382   3.564  20.295  1.00 23.55 LIG-0.27  OA
ATOM     30  N   GLY E   5       7.878   2.140  21.171  1.00 27.73 LIG-0.35  N 
ATOM     31 H    GLY E   5       8.233   1.744  21.846  1.00 27.73 LIG 0.16  HD
BRANCH 30 32
ATOM     32  CA  GLY E   5       8.356   1.670  19.883  1.00 23.99 LIG 0.21  C 
BRANCH 32 33
ATOM     33  C   GLY E   5       8.214   0.167  19.893  1.00 34.17 LIG 0.21  C 
ATOM     34 O    GLY E   5       9.152  -0.529  19.489  1.00 39.09 LIG-0.29  OA
ENDBRANCH 32 33
ENDBRANCH 30 32
ENDBRANCH 1 28
TORSDOF 13
ENDMDL
MODEL 6
USER: ADFR SOLUTION from run 23
USER: SCORE 14.019897 LL:  -0.639 LR: -14.998 RR:   0.000 FEB: -11.120
USER: RMSD 6.303171
USER: SEED 22
USER: STATUS no improvement in best in 6 clusters for 5 generations
USER: GENES 15
USER: genes 0 Translation |==|  0.54051 0.37709 0.50645
USER: genes 1 Rotation |==|  0.97825 0.44338 0.38769 0.57390
USER: genes 2 Torsion [CB]-CA--N-[C] |==|  0.23881
USER: genes 3 Torsion [N]-C--CA-[N] |==|  0.66514
USER: genes 4 Torsion [C]-CA--N-[C] |==|  0.76371
USER: genes 5 Torsion [N]-C--CA-[N] |==|  0.29348
USER: genes 6 Torsion [C]-CA--CB-[OG] |==|  0.05436
USER: genes 7 Torsion [CA]-CB--OG-[HG] |==|  0.82377
USER: genes 8 Torsion [N]-CA--CB-[CG] |==|  0.71604
USER: genes 9 Torsion [CA]-CB--CG-[CD] |==|  0.51431
USER: genes 10 Torsion [CB]-CG--CD-[NE] |==|  0.61268
USER: genes 11 Torsion [CG]-CD--NE-[CZ] |==|  0.64783
USER: genes 12 Torsion [N]-CA--C-[N] |==|  0.22244
USER: genes 13 Torsion [C]-N--CA-[C] |==|  0.61592
USER: genes 14 Torsion [N]-CA--C-[O] |==|  0.62569
ROOT
ATOM      1  CA  ARG E   4       6.621   3.701  22.600  1.00 23.90 LIG 0.18  C 
ENDROOT
BRANCH 1 2
ATOM      2  N   ARG E   4       7.597   4.571  23.226  1.00 30.77 LIG-0.35  N 
ATOM      3 H    ARG E   4       8.020   5.094  22.691  1.00 30.77 LIG 0.16  HD
ATOM      4  C   GLY E   3       7.777   4.517  24.536  1.00 25.66 LIG 0.24  C 
ATOM      5 O    GLY E   3       7.610   3.485  25.185  1.00 29.19 LIG-0.27  OA
BRANCH 4 6
ATOM      6  CA  GLY E   3       8.284   5.771  25.204  1.00 22.47 LIG 0.23  C 
BRANCH 6 7
ATOM      7  N   GLY E   3       9.540   5.445  25.849  1.00 33.62 LIG-0.35  N 
ATOM      8  C   SER E   2       9.534   4.923  27.068  1.00 31.79 LIG 0.26  C 
ATOM      9 O    SER E   2       8.482   4.556  27.616  1.00 29.25 LIG-0.27  OA
ATOM     10 H    GLY E   3      10.247   5.615  25.389  1.00 33.62 LIG 0.16  HD
BRANCH 8 11
ATOM     11  CA  SER E   2      10.905   4.763  27.752  1.00 26.25 LIG 0.42  C 
ATOM     12  N   SER E   2      11.108   5.758  28.798  1.00 36.21 LIG 0.62  N 
BRANCH 11 13
ATOM     13  CB  SER E   2      11.096   3.344  28.319  1.00 32.03 LIG 0.21  C 
BRANCH 13 14
ATOM     14 OG   SER E   2      10.209   2.401  27.720  1.00 34.92 LIG-0.40  OA
ATOM     15 HG   SER E   2       9.415   2.607  27.902  1.00 34.92 LIG 0.21  HD
ENDBRANCH 13 14
ENDBRANCH 11 13
ENDBRANCH 8 11
ENDBRANCH 6 7
ENDBRANCH 4 6
ENDBRANCH 1 2
BRANCH 1 16
ATOM     16  CB  ARG E   4       5.275   4.413  22.685  1.00 27.29 LIG 0.04  C 
BRANCH 16 17
ATOM     17  CG  ARG E   4       4.395   3.855  23.788  1.00 23.54 LIG 0.02  C 
BRANCH 17 18
ATOM     18  CD  ARG E   4       3.006   4.480  23.792  1.00 24.92 LIG 0.14  C 
BRANCH 18 19
ATOM     19  NE  ARG E   4       2.500   4.766  25.140  1.00 26.33 LIG-0.23  N 
ATOM     20  CZ  ARG E   4       1.316   4.336  25.586  1.00 30.25 LIG 0.67  C 
ATOM     21  NH2 ARG E   4       0.907   4.620  26.825  1.00 27.06 LIG-0.23  N 
ATOM     22  NH1 ARG E   4       0.535   3.616  24.780  1.00 23.50 LIG-0.23  N 
ATOM     23 2HH2 ARG E   4       0.143   4.338  27.100  1.00 27.06 LIG 0.17  HD
ATOM     24 1HH2 ARG E   4       1.408   5.085  27.347  1.00 27.06 LIG 0.17  HD
ATOM     25 2HH1 ARG E   4      -0.229   3.336  25.059  1.00 23.50 LIG 0.17  HD
ATOM     26 1HH1 ARG E   4       0.795   3.433  23.981  1.00 23.50 LIG 0.17  HD
ATOM     27 HE   ARG E   4       2.991   5.233  25.669  1.00 26.33 LIG 0.18  HD
ENDBRANCH 18 19
ENDBRANCH 17 18
ENDBRANCH 16 17
ENDBRANCH 1 16
BRANCH 1 28
ATOM     28  C   ARG E   4       6.901   3.196  21.172  1.00 22.79 LIG 0.24  C 
ATOM     29 O    ARG E   4       6.358   3.693  20.185  1.00 23.55 LIG-0.27  OA
ATOM     30  N   GLY E   5       7.740   2.171  21.083  1.00 27.73 LIG-0.35  N 
ATOM     31 H    GLY E   5       8.061   1.755  21.764  1.00 27.73 LIG 0.16  HD
BRANCH 30 32
ATOM     32  CA  GLY E   5       8.195   1.659  19.802  1.00 23.99 LIG 0.21  C 
BRANCH 32 33
ATOM     33  C   GLY E   5       8.178   0.153  19.909  1.00 34.17 LIG 0.21  C 
ATOM     34 O    GLY E   5       9.145  -0.491  19.490  1.00 39.09 LIG-0.29  OA
ENDBRANCH 32 33
ENDBRANCH 30 32
ENDBRANCH 1 28
TORSDOF 13
ENDMDL
MODEL 7
USER: ADFR SOLUTION from run 106
USER: SCORE 14.770881 LL:  -0.581 LR: -14.939 RR:   0.000 FEB: -11.061
USER: RMSD 5.082810
USER: SEED 105
USER: STATUS no improvement in best in 3 clusters for 5 generations
USER: GENES 15
USER: genes 0 Translation |==|  0.54616 0.36564 0.51217
USER: genes 1 Rotation |==|  0.97667 0.44331 0.38020 0.57225
USER: genes 2 Torsion [CB]-CA--N-[C] |==|  0.17997
USER: genes 3 Torsion [N]-C--CA-[N] |==|  0.99923
USER: genes 4 Torsion [C]-CA--N-[C] |==|  0.23333
USER: genes 5 Torsion [N]-C--CA-[N] |==|  0.25015
USER: genes 6 Torsion [C]-CA--CB-[OG] |==|  0.66077
USER: genes 7 Torsion [CA]-CB--OG-[HG] |==|  0.92695
USER: genes 8 Torsion [N]-CA--CB-[CG] |==|  0.70546
USER: genes 9 Torsion [CA]-CB--CG-[CD] |==|  0.53236
USER: genes 10 Torsion [CB]-CG--CD-[NE] |==|  0.65477
USER: genes 11 Torsion [CG]-CD--NE-[CZ] |==|  0.64317
USER: genes 12 Torsion [N]-CA--C-[N] |==|  0.20808
USER: genes 13 Torsion [C]-N--CA-[C] |==|  0.64216
USER: genes 14 Torsion [N]-CA--C-[O] |==|  0.64292
ROOT
ATOM      1  CA  ARG E   4       6.739   3.546  22.699  1.00 23.90 LIG 0.18  C 
ENDROOT
BRANCH 1 2
ATOM      2  N   ARG E   4       7.739   4.405  23.303  1.00 30.77 LIG-0.35  N 
ATOM      3 H    ARG E   4       8.335   4.711  22.765  1.00 30.77 LIG 0.16  HD
ATOM      4  C   GLY E   3       7.684   4.661  24.601  1.00 25.66 LIG 0.24  C 
ATOM      5 O    GLY E   3       7.225   3.860  25.415  1.00 29.19 LIG-0.27  OA
BRANCH 4 6
ATOM      6  CA  GLY E   3       8.293   5.961  25.063  1.00 22.47 LIG 0.23  C 
BRANCH 6 7
ATOM      7  N   GLY E   3       8.820   6.636  23.893  1.00 33.62 LIG-0.35  N 
ATOM      8  C   SER E   2       8.013   7.375  23.144  1.00 31.79 LIG 0.26  C 
ATOM      9 O    SER E   2       6.853   7.638  23.498  1.00 29.25 LIG-0.27  OA
ATOM     10 H    GLY E   3       9.659   6.515  23.744  1.00 33.62 LIG 0.16  HD
BRANCH 8 11
ATOM     11  CA  SER E   2       8.605   7.918  21.830  1.00 26.25 LIG 0.42  C 
ATOM     12  N   SER E   2       8.395   6.998  20.719  1.00 36.21 LIG 0.62  N 
BRANCH 11 13
ATOM     13  CB  SER E   2       8.043   9.310  21.485  1.00 32.03 LIG 0.21  C 
BRANCH 13 14
ATOM     14 OG   SER E   2       7.405   9.333  20.209  1.00 34.92 LIG-0.40  OA
ATOM     15 HG   SER E   2       7.735   8.735  19.720  1.00 34.92 LIG 0.21  HD
ENDBRANCH 13 14
ENDBRANCH 11 13
ENDBRANCH 8 11
ENDBRANCH 6 7
ENDBRANCH 4 6
ENDBRANCH 1 2
BRANCH 1 16
ATOM     16  CB  ARG E   4       5.401   4.267  22.829  1.00 27.29 LIG 0.04  C 
BRANCH 16 17
ATOM     17  CG  ARG E   4       4.512   3.646  23.891  1.00 23.54 LIG 0.02  C 
BRANCH 17 18
ATOM     18  CD  ARG E   4       3.085   4.173  23.830  1.00 24.92 LIG 0.14  C 
BRANCH 18 19
ATOM     19  NE  ARG E   4       2.623   4.749  25.100  1.00 26.33 LIG-0.23  N 
ATOM     20  CZ  ARG E   4       1.478   4.397  25.691  1.00 30.25 LIG 0.67  C 
ATOM     21  NH2 ARG E   4       1.107   4.948  26.849  1.00 27.06 LIG-0.23  N 
ATOM     22  NH1 ARG E   4       0.696   3.485  25.112  1.00 23.50 LIG-0.23  N 
ATOM     23 2HH2 ARG E   4       0.368   4.714  27.219  1.00 27.06 LIG 0.17  HD
ATOM     24 1HH2 ARG E   4       1.609   5.538  27.225  1.00 27.06 LIG 0.17  HD
ATOM     25 2HH1 ARG E   4      -0.043   3.253  25.486  1.00 23.50 LIG 0.17  HD
ATOM     26 1HH1 ARG E   4       0.931   3.129  24.365  1.00 23.50 LIG 0.17  HD
ATOM     27 HE   ARG E   4       3.114   5.342  25.481  1.00 26.33 LIG 0.18  HD
ENDBRANCH 18 19
ENDBRANCH 17 18
ENDBRANCH 16 17
ENDBRANCH 1 16
BRANCH 1 28
ATOM     28  C   ARG E   4       6.975   3.052  21.258  1.00 22.79 LIG 0.24  C 
ATOM     29 O    ARG E   4       6.338   3.497  20.303  1.00 23.55 LIG-0.27  OA
ATOM     30  N   GLY E   5       7.883   2.094  21.125  1.00 27.73 LIG-0.35  N 
ATOM     31 H    GLY E   5       8.274   1.710  21.788  1.00 27.73 LIG 0.16  HD
BRANCH 30 32
ATOM     32  CA  GLY E   5       8.301   1.608  19.822  1.00 23.99 LIG 0.21  C 
BRANCH 32 33
ATOM     33  C   GLY E   5       8.179   0.103  19.864  1.00 34.17 LIG 0.21  C 
ATOM     34 O    GLY E   5       9.144  -0.589  19.522  1.00 39.09 LIG-0.29  OA
ENDBRANCH 32 33
ENDBRANCH 30 32
ENDBRANCH 1 28
TORSDOF 13
ENDMDL
MODEL 8
USER: ADFR SOLUTION from run 131
USER: SCORE 14.357189 LL:  -0.195 LR: -14.835 RR:   0.000 FEB: -10.957
USER: RMSD 4.984492
USER: SEED 130
USER: STATUS no improvement in best in 9 clusters for 5 generations
USER: GENES 15
USER: genes 0 Translation |==|  0.55226 0.38899 0.51014
USER: genes 1 Rotation |==|  0.90759 0.64611 0.32107 0.67465
USER: genes 2 Torsion [CB]-CA--N-[C] |==|  0.57222
USER: genes 3 Torsion [N]-C--CA-[N] |==|  0.54415
USER: genes 4 Torsion [C]-CA--N-[C] |==|  0.50133
USER: genes 5 Torsion [N]-C--CA-[N] |==|  0.88413
USER: genes 6 Torsion [C]-CA--CB-[OG] |==|  0.89525
USER: genes 7 Torsion [CA]-CB--OG-[HG] |==|  0.85367
USER: genes 8 Torsion [N]-CA--CB-[CG] |==|  0.09694
USER: genes 9 Torsion [CA]-CB--CG-[CD] |==|  0.45740
USER: genes 10 Torsion [CB]-CG--CD-[NE] |==|  0.26963
USER: genes 11 Torsion [CG]-CD--NE-[CZ] |==|  0.46896
USER: genes 12 Torsion [N]-CA--C-[N] |==|  0.34887
USER: genes 13 Torsion [C]-N--CA-[C] |==|  0.60015
USER: genes 14 Torsion [N]-CA--C-[O] |==|  0.58372
ROOT
ATOM      1  CA  ARG E   4       6.867   3.861  22.664  1.00 23.90 LIG 0.18  C 
ENDROOT
BRANCH 1 2
ATOM      2  N   ARG E   4       6.980   5.306  22.707  1.00 30.77 LIG-0.35  N 
ATOM      3 H    ARG E   4       6.598   5.686  23.376  1.00 30.77 LIG 0.16  HD
ATOM      4  C   GLY E   3       7.640   5.940  21.750  1.00 25.66 LIG 0.24  C 
ATOM      5 O    GLY E   3       7.702   5.516  20.596  1.00 29.19 LIG-0.27  OA
BRANCH 4 6
ATOM      6  CA  GLY E   3       8.254   7.269  22.115  1.00 22.47 LIG 0.23  C 
BRANCH 6 7
ATOM      7  N   GLY E   3       8.582   7.952  20.879  1.00 33.62 LIG-0.35  N 
ATOM      8  C   SER E   2       9.149   9.150  20.924  1.00 31.79 LIG 0.26  C 
ATOM      9 O    SER E   2       9.554   9.641  21.990  1.00 29.25 LIG-0.27  OA
ATOM     10 H    GLY E   3       8.383   7.527  20.158  1.00 33.62 LIG 0.16  HD
BRANCH 8 11
ATOM     11  CA  SER E   2       9.310   9.882  19.578  1.00 26.25 LIG 0.42  C 
ATOM     12  N   SER E   2       9.746   8.981  18.519  1.00 36.21 LIG 0.62  N 
BRANCH 11 13
ATOM     13  CB  SER E   2       8.015  10.606  19.166  1.00 32.03 LIG 0.21  C 
BRANCH 13 14
ATOM     14 OG   SER E   2       6.848   9.856  19.502  1.00 34.92 LIG-0.40  OA
ATOM     15 HG   SER E   2       6.916   9.079  19.192  1.00 34.92 LIG 0.21  HD
ENDBRANCH 13 14
ENDBRANCH 11 13
ENDBRANCH 8 11
ENDBRANCH 6 7
ENDBRANCH 4 6
ENDBRANCH 1 2
BRANCH 1 16
ATOM     16  CB  ARG E   4       5.598   3.495  23.426  1.00 27.29 LIG 0.04  C 
BRANCH 16 17
ATOM     17  CG  ARG E   4       4.498   4.525  23.244  1.00 23.54 LIG 0.02  C 
BRANCH 17 18
ATOM     18  CD  ARG E   4       3.136   3.999  23.678  1.00 24.92 LIG 0.14  C 
BRANCH 18 19
ATOM     19  NE  ARG E   4       2.766   4.397  25.042  1.00 26.33 LIG-0.23  N 
ATOM     20  CZ  ARG E   4       1.540   4.235  25.547  1.00 30.25 LIG 0.67  C 
ATOM     21  NH2 ARG E   4       1.259   4.610  26.797  1.00 27.06 LIG-0.23  N 
ATOM     22  NH1 ARG E   4       0.587   3.692  24.788  1.00 23.50 LIG-0.23  N 
ATOM     23 2HH2 ARG E   4       0.466   4.500  27.110  1.00 27.06 LIG 0.17  HD
ATOM     24 1HH2 ARG E   4       1.871   4.961  27.288  1.00 27.06 LIG 0.17  HD
ATOM     25 2HH1 ARG E   4      -0.205   3.585  25.105  1.00 23.50 LIG 0.17  HD
ATOM     26 1HH1 ARG E   4       0.764   3.451  23.982  1.00 23.50 LIG 0.17  HD
ATOM     27 HE   ARG E   4       3.370   4.753  25.540  1.00 26.33 LIG 0.18  HD
ENDBRANCH 18 19
ENDBRANCH 17 18
ENDBRANCH 16 17
ENDBRANCH 1 16
BRANCH 1 28
ATOM     28  C   ARG E   4       6.920   3.165  21.291  1.00 22.79 LIG 0.24  C 
ATOM     29 O    ARG E   4       6.145   3.457  20.380  1.00 23.55 LIG-0.27  OA
ATOM     30  N   GLY E   5       7.833   2.209  21.170  1.00 27.73 LIG-0.35  N 
ATOM     31 H    GLY E   5       8.323   1.931  21.820  1.00 27.73 LIG 0.16  HD
BRANCH 30 32
ATOM     32  CA  GLY E   5       8.085   1.542  19.905  1.00 23.99 LIG 0.21  C 
BRANCH 32 33
ATOM     33  C   GLY E   5       8.394   0.101  20.231  1.00 34.17 LIG 0.21  C 
ATOM     34 O    GLY E   5       9.156  -0.533  19.493  1.00 39.09 LIG-0.29  OA
ENDBRANCH 32 33
ENDBRANCH 30 32
ENDBRANCH 1 28
TORSDOF 13
ENDMDL
MODEL 9
USER: ADFR SOLUTION from run 35
USER: SCORE 15.251611 LL:  -0.693 LR: -14.699 RR:   0.000 FEB: -10.821
USER: RMSD 3.175285
USER: SEED 34
USER: STATUS no improvement in best in 7 clusters for 5 generations
USER: GENES 15
USER: genes 0 Translation |==|  0.52683 0.47828 0.60605
USER: genes 1 Rotation |==|  0.67196 0.53107 0.56344 0.96416
USER: genes 2 Torsion [CB]-CA--N-[C] |==|  0.78109
USER: genes 3 Torsion [N]-C--CA-[N] |==|  0.00377
USER: genes 4 Torsion [C]-CA--N-[C] |==|  0.22222
USER: genes 5 Torsion [N]-C--CA-[N] |==|  0.45959
USER: genes 6 Torsion [C]-CA--CB-[OG] |==|  0.28748
USER: genes 7 Torsion [CA]-CB--OG-[HG] |==|  0.77222
USER: genes 8 Torsion [N]-CA--CB-[CG] |==|  0.92015
USER: genes 9 Torsion [CA]-CB--CG-[CD] |==|  0.60976
USER: genes 10 Torsion [CB]-CG--CD-[NE] |==|  0.09451
USER: genes 11 Torsion [CG]-CD--NE-[CZ] |==|  0.56021
USER: genes 12 Torsion [N]-CA--C-[N] |==|  0.32357
USER: genes 13 Torsion [C]-N--CA-[C] |==|  0.83101
USER: genes 14 Torsion [N]-CA--C-[O] |==|  0.31932
ROOT
ATOM      1  CA  ARG E   4       6.333   5.067  24.318  1.00 23.90 LIG 0.18  C 
ENDROOT
BRANCH 1 2
ATOM      2  N   ARG E   4       6.580   5.360  22.920  1.00 30.77 LIG-0.35  N 
ATOM      3 H    ARG E   4       6.286   6.119  22.645  1.00 30.77 LIG 0.16  HD
ATOM      4  C   GLY E   3       7.222   4.478  22.169  1.00 25.66 LIG 0.24  C 
ATOM      5 O    GLY E   3       7.158   3.266  22.373  1.00 29.19 LIG-0.27  OA
BRANCH 4 6
ATOM      6  CA  GLY E   3       7.980   5.020  20.984  1.00 22.47 LIG 0.23  C 
BRANCH 6 7
ATOM      7  N   GLY E   3       7.828   6.461  20.989  1.00 33.62 LIG-0.35  N 
ATOM      8  C   SER E   2       8.579   7.196  21.798  1.00 31.79 LIG 0.26  C 
ATOM      9 O    SER E   2       9.522   6.705  22.439  1.00 29.25 LIG-0.27  OA
ATOM     10 H    GLY E   3       7.236   6.771  20.447  1.00 33.62 LIG 0.16  HD
BRANCH 8 11
ATOM     11  CA  SER E   2       8.241   8.697  21.871  1.00 26.25 LIG 0.42  C 
ATOM     12  N   SER E   2       8.878   9.342  23.013  1.00 36.21 LIG 0.62  N 
BRANCH 11 13
ATOM     13  CB  SER E   2       8.614   9.428  20.567  1.00 32.03 LIG 0.21  C 
BRANCH 13 14
ATOM     14 OG   SER E   2       7.471   9.708  19.761  1.00 34.92 LIG-0.40  OA
ATOM     15 HG   SER E   2       7.268   9.025  19.315  1.00 34.92 LIG 0.21  HD
ENDBRANCH 13 14
ENDBRANCH 11 13
ENDBRANCH 8 11
ENDBRANCH 6 7
ENDBRANCH 4 6
ENDBRANCH 1 2
BRANCH 1 16
ATOM     16  CB  ARG E   4       5.140   4.117  24.366  1.00 27.29 LIG 0.04  C 
BRANCH 16 17
ATOM     17  CG  ARG E   4       4.199   4.315  23.193  1.00 23.54 LIG 0.02  C 
BRANCH 17 18
ATOM     18  CD  ARG E   4       2.735   4.205  23.601  1.00 24.92 LIG 0.14  C 
BRANCH 18 19
ATOM     19  NE  ARG E   4       2.469   4.715  24.952  1.00 26.33 LIG-0.23  N 
ATOM     20  CZ  ARG E   4       1.403   4.358  25.674  1.00 30.25 LIG 0.67  C 
ATOM     21  NH2 ARG E   4       1.212   4.847  26.901  1.00 27.06 LIG-0.23  N 
ATOM     22  NH1 ARG E   4       0.520   3.502  25.158  1.00 23.50 LIG-0.23  N 
ATOM     23 2HH2 ARG E   4       0.522   4.609  27.356  1.00 27.06 LIG 0.17  HD
ATOM     24 1HH2 ARG E   4       1.779   5.400  27.237  1.00 27.06 LIG 0.17  HD
ATOM     25 2HH1 ARG E   4      -0.169   3.267  25.616  1.00 23.50 LIG 0.17  HD
ATOM     26 1HH1 ARG E   4       0.640   3.186  24.367  1.00 23.50 LIG 0.17  HD
ATOM     27 HE   ARG E   4       3.028   5.271  25.296  1.00 26.33 LIG 0.18  HD
ENDBRANCH 18 19
ENDBRANCH 17 18
ENDBRANCH 16 17
ENDBRANCH 1 16
BRANCH 1 28
ATOM     28  C   ARG E   4       7.504   4.544  25.173  1.00 22.79 LIG 0.24  C 
ATOM     29 O    ARG E   4       8.033   3.453  24.958  1.00 23.55 LIG-0.27  OA
ATOM     30  N   GLY E   5       7.878   5.332  26.173  1.00 27.73 LIG-0.35  N 
ATOM     31 H    GLY E   5       7.465   6.054  26.393  1.00 27.73 LIG 0.16  HD
BRANCH 30 32
ATOM     32  CA  GLY E   5       9.038   5.035  26.994  1.00 23.99 LIG 0.21  C 
BRANCH 32 33
ATOM     33  C   GLY E   5       8.770   3.703  27.653  1.00 34.17 LIG 0.21  C 
ATOM     34 O    GLY E   5       9.485   2.736  27.369  1.00 39.09 LIG-0.29  OA
ENDBRANCH 32 33
ENDBRANCH 30 32
ENDBRANCH 1 28
TORSDOF 13
ENDMDL
MODEL 10
USER: ADFR SOLUTION from run 81
USER: SCORE 14.273395 LL:  -0.838 LR: -14.638 RR:   0.000 FEB: -10.760
USER: RMSD 6.732345
USER: SEED 80
USER: STATUS no improvement in best in 1 clusters for 5 generations
USER: GENES 15
USER: genes 0 Translation |==|  0.51319 0.42880 0.58039
USER: genes 1 Rotation |==|  0.90571 0.71145 0.35593 0.64118
USER: genes 2 Torsion [CB]-CA--N-[C] |==|  0.50556
USER: genes 3 Torsion [N]-C--CA-[N] |==|  0.92794
USER: genes 4 Torsion [C]-CA--N-[C] |==|  0.63742
USER: genes 5 Torsion [N]-C--CA-[N] |==|  0.39200
USER: genes 6 Torsion [C]-CA--CB-[OG] |==|  0.25059
USER: genes 7 Torsion [CA]-CB--OG-[HG] |==|  0.05898
USER: genes 8 Torsion [N]-CA--CB-[CG] |==|  0.25322
USER: genes 9 Torsion [CA]-CB--CG-[CD] |==|  0.76759
USER: genes 10 Torsion [CB]-CG--CD-[NE] |==|  0.86311
USER: genes 11 Torsion [CG]-CD--NE-[CZ] |==|  0.75318
USER: genes 12 Torsion [N]-CA--C-[N] |==|  0.38810
USER: genes 13 Torsion [C]-N--CA-[C] |==|  0.62478
USER: genes 14 Torsion [N]-CA--C-[O] |==|  0.38251
ROOT
ATOM      1  CA  ARG E   4       6.047   4.399  23.876  1.00 23.90 LIG 0.18  C 
ENDROOT
BRANCH 1 2
ATOM      2  N   ARG E   4       5.854   5.782  24.264  1.00 30.77 LIG-0.35  N 
ATOM      3 H    ARG E   4       5.190   5.928  24.790  1.00 30.77 LIG 0.16  HD
ATOM      4  C   GLY E   3       6.679   6.712  23.807  1.00 25.66 LIG 0.24  C 
ATOM      5 O    GLY E   3       7.235   6.623  22.713  1.00 29.19 LIG-0.27  OA
BRANCH 4 6
ATOM      6  CA  GLY E   3       6.850   7.945  24.659  1.00 22.47 LIG 0.23  C 
BRANCH 6 7
ATOM      7  N   GLY E   3       5.645   8.102  25.448  1.00 33.62 LIG-0.35  N 
ATOM      8  C   SER E   2       5.033   9.278  25.483  1.00 31.79 LIG 0.26  C 
ATOM      9 O    SER E   2       5.368  10.211  24.736  1.00 29.25 LIG-0.27  OA
ATOM     10 H    GLY E   3       5.383   7.396  25.865  1.00 33.62 LIG 0.16  HD
BRANCH 8 11
ATOM     11  CA  SER E   2       3.861   9.411  26.474  1.00 26.25 LIG 0.42  C 
ATOM     12  N   SER E   2       3.842  10.718  27.119  1.00 36.21 LIG 0.62  N 
BRANCH 11 13
ATOM     13  CB  SER E   2       2.508   9.130  25.795  1.00 32.03 LIG 0.21  C 
BRANCH 13 14
ATOM     14 OG   SER E   2       2.145   7.752  25.868  1.00 34.92 LIG-0.40  OA
ATOM     15 HG   SER E   2       2.562   7.385  26.497  1.00 34.92 LIG 0.21  HD
ENDBRANCH 13 14
ENDBRANCH 11 13
ENDBRANCH 8 11
ENDBRANCH 6 7
ENDBRANCH 4 6
ENDBRANCH 1 2
BRANCH 1 16
ATOM     16  CB  ARG E   4       4.919   3.598  24.519  1.00 27.29 LIG 0.04  C 
BRANCH 16 17
ATOM     17  CG  ARG E   4       3.706   3.480  23.614  1.00 23.54 LIG 0.02  C 
BRANCH 17 18
ATOM     18  CD  ARG E   4       2.795   4.697  23.708  1.00 24.92 LIG 0.14  C 
BRANCH 18 19
ATOM     19  NE  ARG E   4       2.469   5.074  25.090  1.00 26.33 LIG-0.23  N 
ATOM     20  CZ  ARG E   4       1.425   4.577  25.759  1.00 30.25 LIG 0.67  C 
ATOM     21  NH2 ARG E   4       1.178   4.950  27.017  1.00 27.06 LIG-0.23  N 
ATOM     22  NH1 ARG E   4       0.621   3.699  25.159  1.00 23.50 LIG-0.23  N 
ATOM     23 2HH2 ARG E   4       0.503   4.624  27.437  1.00 27.06 LIG 0.17  HD
ATOM     24 1HH2 ARG E   4       1.694   5.517  27.407  1.00 27.06 LIG 0.17  HD
ATOM     25 2HH1 ARG E   4      -0.054   3.375  25.583  1.00 23.50 LIG 0.17  HD
ATOM     26 1HH1 ARG E   4       0.776   3.457  24.348  1.00 23.50 LIG 0.17  HD
ATOM     27 HE   ARG E   4       2.976   5.643  25.487  1.00 26.33 LIG 0.18  HD
ENDBRANCH 18 19
ENDBRANCH 17 18
ENDBRANCH 16 17
ENDBRANCH 1 16
BRANCH 1 28
ATOM     28  C   ARG E   4       6.183   4.073  22.376  1.00 22.79 LIG 0.24  C 
ATOM     29 O    ARG E   4       5.471   4.605  21.525  1.00 23.55 LIG-0.27  OA
ATOM     30  N   GLY E   5       7.095   3.159  22.071  1.00 27.73 LIG-0.35  N 
ATOM     31 H    GLY E   5       7.541   2.714  22.656  1.00 27.73 LIG 0.16  HD
BRANCH 30 32
ATOM     32  CA  GLY E   5       7.424   2.830  20.695  1.00 23.99 LIG 0.21  C 
BRANCH 32 33
ATOM     33  C   GLY E   5       7.484   1.324  20.614  1.00 34.17 LIG 0.21  C 
ATOM     34 O    GLY E   5       6.979   0.752  19.641  1.00 39.09 LIG-0.29  OA
ENDBRANCH 32 33
ENDBRANCH 30 32
ENDBRANCH 1 28
TORSDOF 13
ENDMDL
MODEL 11
USER: ADFR SOLUTION from run 161
USER: SCORE 14.611482 LL:  -0.666 LR: -14.564 RR:   0.000 FEB: -10.686
USER: RMSD 7.504437
USER: SEED 160
USER: STATUS no improvement in best in 5 clusters for 5 generations
USER: GENES 15
USER: genes 0 Translation |==|  0.56511 0.38649 0.55022
USER: genes 1 Rotation |==|  0.24799 0.34385 0.12291 0.64111
USER: genes 2 Torsion [CB]-CA--N-[C] |==|  0.76111
USER: genes 3 Torsion [N]-C--CA-[N] |==|  0.41398
USER: genes 4 Torsion [C]-CA--N-[C] |==|  0.45605
USER: genes 5 Torsion [N]-C--CA-[N] |==|  0.73927
USER: genes 6 Torsion [C]-CA--CB-[OG] |==|  0.55575
USER: genes 7 Torsion [CA]-CB--OG-[HG] |==|  0.26708
USER: genes 8 Torsion [N]-CA--CB-[CG] |==|  0.91108
USER: genes 9 Torsion [CA]-CB--CG-[CD] |==|  0.70665
USER: genes 10 Torsion [CB]-CG--CD-[NE] |==|  0.40708
USER: genes 11 Torsion [CG]-CD--NE-[CZ] |==|  0.69246
USER: genes 12 Torsion [N]-CA--C-[N] |==|  0.28411
USER: genes 13 Torsion [C]-N--CA-[C] |==|  0.48763
USER: genes 14 Torsion [N]-CA--C-[O] |==|  0.05619
ROOT
ATOM      1  CA  ARG E   4       7.137   3.828  23.355  1.00 23.90 LIG 0.18  C 
ENDROOT
BRANCH 1 2
ATOM      2  N   ARG E   4       5.770   3.373  23.198  1.00 30.77 LIG-0.35  N 
ATOM      3 H    ARG E   4       5.680   2.569  22.906  1.00 30.77 LIG 0.16  HD
ATOM      4  C   GLY E   3       4.770   4.186  23.501  1.00 25.66 LIG 0.24  C 
ATOM      5 O    GLY E   3       4.855   5.409  23.390  1.00 29.19 LIG-0.27  OA
BRANCH 4 6
ATOM      6  CA  GLY E   3       3.472   3.540  23.916  1.00 22.47 LIG 0.23  C 
BRANCH 6 7
ATOM      7  N   GLY E   3       2.820   4.433  24.854  1.00 33.62 LIG-0.35  N 
ATOM      8  C   SER E   2       1.535   4.265  25.133  1.00 31.79 LIG 0.26  C 
ATOM      9 O    SER E   2       0.905   3.270  24.738  1.00 29.25 LIG-0.27  OA
ATOM     10 H    GLY E   3       3.322   5.045  25.190  1.00 33.62 LIG 0.16  HD
BRANCH 8 11
ATOM     11  CA  SER E   2       0.875   5.351  26.003  1.00 26.25 LIG 0.42  C 
ATOM     12  N   SER E   2       0.894   5.000  27.417  1.00 36.21 LIG 0.62  N 
BRANCH 11 13
ATOM     13  CB  SER E   2       1.527   6.729  25.784  1.00 32.03 LIG 0.21  C 
BRANCH 13 14
ATOM     14 OG   SER E   2       1.270   7.624  26.865  1.00 34.92 LIG-0.40  OA
ATOM     15 HG   SER E   2       1.916   7.610  27.401  1.00 34.92 LIG 0.21  HD
ENDBRANCH 13 14
ENDBRANCH 11 13
ENDBRANCH 8 11
ENDBRANCH 6 7
ENDBRANCH 4 6
ENDBRANCH 1 2
BRANCH 1 16
ATOM     16  CB  ARG E   4       7.511   4.555  22.068  1.00 27.29 LIG 0.04  C 
BRANCH 16 17
ATOM     17  CG  ARG E   4       6.814   3.972  20.852  1.00 23.54 LIG 0.02  C 
BRANCH 17 18
ATOM     18  CD  ARG E   4       7.757   3.148  19.985  1.00 24.92 LIG 0.14  C 
BRANCH 18 19
ATOM     19  NE  ARG E   4       7.101   2.007  19.334  1.00 26.33 LIG-0.23  N 
ATOM     20  CZ  ARG E   4       7.346   0.735  19.661  1.00 30.25 LIG 0.67  C 
ATOM     21  NH2 ARG E   4       6.717  -0.265  19.041  1.00 27.06 LIG-0.23  N 
ATOM     22  NH1 ARG E   4       8.232   0.465  20.620  1.00 23.50 LIG-0.23  N 
ATOM     23 2HH2 ARG E   4       6.883  -1.079  19.260  1.00 27.06 LIG 0.17  HD
ATOM     24 1HH2 ARG E   4       6.145  -0.095  18.421  1.00 27.06 LIG 0.17  HD
ATOM     25 2HH1 ARG E   4       8.396  -0.351  20.837  1.00 23.50 LIG 0.17  HD
ATOM     26 1HH1 ARG E   4       8.641   1.107  21.021  1.00 23.50 LIG 0.17  HD
ATOM     27 HE   ARG E   4       6.531   2.166  18.710  1.00 26.33 LIG 0.18  HD
ENDBRANCH 18 19
ENDBRANCH 17 18
ENDBRANCH 16 17
ENDBRANCH 1 16
BRANCH 1 28
ATOM     28  C   ARG E   4       7.490   4.667  24.598  1.00 22.79 LIG 0.24  C 
ATOM     29 O    ARG E   4       7.229   5.868  24.671  1.00 23.55 LIG-0.27  OA
ATOM     30  N   GLY E   5       8.120   4.015  25.567  1.00 27.73 LIG-0.35  N 
ATOM     31 H    GLY E   5       8.388   3.201  25.500  1.00 27.73 LIG 0.16  HD
BRANCH 30 32
ATOM     32  CA  GLY E   5       8.414   4.636  26.846  1.00 23.99 LIG 0.21  C 
BRANCH 32 33
ATOM     33  C   GLY E   5       9.028   3.565  27.715  1.00 34.17 LIG 0.21  C 
ATOM     34 O    GLY E   5       9.521   2.565  27.181  1.00 39.09 LIG-0.29  OA
ENDBRANCH 32 33
ENDBRANCH 30 32
ENDBRANCH 1 28
TORSDOF 13
ENDMDL
MODEL 12
USER: ADFR SOLUTION from run 26
USER: SCORE 14.077030 LL:  -0.601 LR: -14.372 RR:   0.000 FEB: -10.494
USER: RMSD 6.314615
USER: SEED 25
USER: STATUS no improvement in best in 1 clusters for 5 generations
USER: GENES 15
USER: genes 0 Translation |==|  0.51081 0.45013 0.63030
USER: genes 1 Rotation |==|  0.86733 0.49541 0.72859 0.75059
USER: genes 2 Torsion [CB]-CA--N-[C] |==|  0.75291
USER: genes 3 Torsion [N]-C--CA-[N] |==|  0.04560
USER: genes 4 Torsion [C]-CA--N-[C] |==|  0.59119
USER: genes 5 Torsion [N]-C--CA-[N] |==|  0.31808
USER: genes 6 Torsion [C]-CA--CB-[OG] |==|  0.38294
USER: genes 7 Torsion [CA]-CB--OG-[HG] |==|  0.89398
USER: genes 8 Torsion [N]-CA--CB-[CG] |==|  0.86761
USER: genes 9 Torsion [CA]-CB--CG-[CD] |==|  0.79062
USER: genes 10 Torsion [CB]-CG--CD-[NE] |==|  0.23239
USER: genes 11 Torsion [CG]-CD--NE-[CZ] |==|  0.45880
USER: genes 12 Torsion [N]-CA--C-[N] |==|  0.14444
USER: genes 13 Torsion [C]-N--CA-[C] |==|  0.77703
USER: genes 14 Torsion [N]-CA--C-[O] |==|  0.35701
ROOT
ATOM      1  CA  ARG E   4       5.997   4.687  24.737  1.00 23.90 LIG 0.18  C 
ENDROOT
BRANCH 1 2
ATOM      2  N   ARG E   4       5.770   6.104  24.530  1.00 30.77 LIG-0.35  N 
ATOM      3 H    ARG E   4       4.985   6.385  24.737  1.00 30.77 LIG 0.16  HD
ATOM      4  C   GLY E   3       6.746   6.860  24.053  1.00 25.66 LIG 0.24  C 
ATOM      5 O    GLY E   3       7.609   6.425  23.292  1.00 29.19 LIG-0.27  OA
BRANCH 4 6
ATOM      6  CA  GLY E   3       6.713   8.323  24.421  1.00 22.47 LIG 0.23  C 
BRANCH 6 7
ATOM      7  N   GLY E   3       5.808   8.470  25.544  1.00 33.62 LIG-0.35  N 
ATOM      8  C   SER E   2       5.092   9.580  25.666  1.00 31.79 LIG 0.26  C 
ATOM      9 O    SER E   2       5.051  10.434  24.766  1.00 29.25 LIG-0.27  OA
ATOM     10 H    GLY E   3       5.784   7.805  26.088  1.00 33.62 LIG 0.16  HD
BRANCH 8 11
ATOM     11  CA  SER E   2       4.284   9.734  26.969  1.00 26.25 LIG 0.42  C 
ATOM     12  N   SER E   2       4.768  10.846  27.778  1.00 36.21 LIG 0.62  N 
BRANCH 11 13
ATOM     13  CB  SER E   2       2.778   9.890  26.690  1.00 32.03 LIG 0.21  C 
BRANCH 13 14
ATOM     14 OG   SER E   2       1.981   9.131  27.597  1.00 34.92 LIG-0.40  OA
ATOM     15 HG   SER E   2       2.357   8.396  27.754  1.00 34.92 LIG 0.21  HD
ENDBRANCH 13 14
ENDBRANCH 11 13
ENDBRANCH 8 11
ENDBRANCH 6 7
ENDBRANCH 4 6
ENDBRANCH 1 2
BRANCH 1 16
ATOM     16  CB  ARG E   4       5.636   3.987  23.430  1.00 27.29 LIG 0.04  C 
BRANCH 16 17
ATOM     17  CG  ARG E   4       4.299   4.448  22.879  1.00 23.54 LIG 0.02  C 
BRANCH 17 18
ATOM     18  CD  ARG E   4       3.123   3.859  23.647  1.00 24.92 LIG 0.14  C 
BRANCH 18 19
ATOM     19  NE  ARG E   4       2.788   4.611  24.863  1.00 26.33 LIG-0.23  N 
ATOM     20  CZ  ARG E   4       1.639   4.456  25.528  1.00 30.25 LIG 0.67  C 
ATOM     21  NH2 ARG E   4       1.386   5.162  26.632  1.00 27.06 LIG-0.23  N 
ATOM     22  NH1 ARG E   4       0.735   3.586  25.077  1.00 23.50 LIG-0.23  N 
ATOM     23 2HH2 ARG E   4       0.644   5.053  27.051  1.00 27.06 LIG 0.17  HD
ATOM     24 1HH2 ARG E   4       1.967   5.724  26.925  1.00 27.06 LIG 0.17  HD
ATOM     25 2HH1 ARG E   4      -0.008   3.481  25.498  1.00 23.50 LIG 0.17  HD
ATOM     26 1HH1 ARG E   4       0.893   3.131  24.365  1.00 23.50 LIG 0.17  HD
ATOM     27 HE   ARG E   4       3.360   5.179  25.162  1.00 26.33 LIG 0.18  HD
ENDBRANCH 18 19
ENDBRANCH 17 18
ENDBRANCH 16 17
ENDBRANCH 1 16
BRANCH 1 28
ATOM     28  C   ARG E   4       7.376   4.235  25.254  1.00 22.79 LIG 0.24  C 
ATOM     29 O    ARG E   4       8.020   3.342  24.704  1.00 23.55 LIG-0.27  OA
ATOM     30  N   GLY E   5       7.804   4.850  26.349  1.00 27.73 LIG-0.35  N 
ATOM     31 H    GLY E   5       7.332   5.413  26.798  1.00 27.73 LIG 0.16  HD
BRANCH 30 32
ATOM     32  CA  GLY E   5       9.132   4.620  26.891  1.00 23.99 LIG 0.21  C 
BRANCH 32 33
ATOM     33  C   GLY E   5       9.062   3.328  27.670  1.00 34.17 LIG 0.21  C 
ATOM     34 O    GLY E   5       9.894   2.443  27.443  1.00 39.09 LIG-0.29  OA
ENDBRANCH 32 33
ENDBRANCH 30 32
ENDBRANCH 1 28
TORSDOF 13
ENDMDL
MODEL 13
USER: ADFR SOLUTION from run 148
USER: SCORE 13.870854 LL:  -0.932 LR: -14.330 RR:   0.000 FEB: -10.452
USER: RMSD 2.119155
USER: SEED 147
USER: STATUS 1 or 2 clusters left
USER: GENES 15
USER: genes 0 Translation |==|  0.46957 0.47007 0.50836
USER: genes 1 Rotation |==|  0.40367 0.44421 0.57523 0.98161
USER: genes 2 Torsion [CB]-CA--N-[C] |==|  0.40558
USER: genes 3 Torsion [N]-C--CA-[N] |==|  0.45149
USER: genes 4 Torsion [C]-CA--N-[C] |==|  0.27427
USER: genes 5 Torsion [N]-C--CA-[N] |==|  0.28567
USER: genes 6 Torsion [C]-CA--CB-[OG] |==|  0.42330
USER: genes 7 Torsion [CA]-CB--OG-[HG] |==|  0.83344
USER: genes 8 Torsion [N]-CA--CB-[CG] |==|  0.33090
USER: genes 9 Torsion [CA]-CB--CG-[CD] |==|  0.37153
USER: genes 10 Torsion [CB]-CG--CD-[NE] |==|  0.62414
USER: genes 11 Torsion [CG]-CD--NE-[CZ] |==|  0.54463
USER: genes 12 Torsion [N]-CA--C-[N] |==|  0.93889
USER: genes 13 Torsion [C]-N--CA-[C] |==|  0.53154
USER: genes 14 Torsion [N]-CA--C-[O] |==|  0.79597
ROOT
ATOM      1  CA  ARG E   4       5.131   4.956  22.633  1.00 23.90 LIG 0.18  C 
ENDROOT
BRANCH 1 2
ATOM      2  N   ARG E   4       5.973   4.015  21.921  1.00 30.77 LIG-0.35  N 
ATOM      3 H    ARG E   4       5.886   3.192  22.155  1.00 30.77 LIG 0.16  HD
ATOM      4  C   GLY E   3       6.800   4.455  20.985  1.00 25.66 LIG 0.24  C 
ATOM      5 O    GLY E   3       7.306   5.576  21.023  1.00 29.19 LIG-0.27  OA
BRANCH 4 6
ATOM      6  CA  GLY E   3       7.169   3.481  19.894  1.00 22.47 LIG 0.23  C 
BRANCH 6 7
ATOM      7  N   GLY E   3       7.712   4.247  18.790  1.00 33.62 LIG-0.35  N 
ATOM      8  C   SER E   2       9.026   4.344  18.644  1.00 31.79 LIG 0.26  C 
ATOM      9 O    SER E   2       9.811   3.671  19.330  1.00 29.25 LIG-0.27  OA
ATOM     10 H    GLY E   3       7.129   4.610  18.271  1.00 33.62 LIG 0.16  HD
BRANCH 8 11
ATOM     11  CA  SER E   2       9.525   5.311  17.553  1.00 26.25 LIG 0.42  C 
ATOM     12  N   SER E   2      10.010   6.564  18.120  1.00 36.21 LIG 0.62  N 
BRANCH 11 13
ATOM     13  CB  SER E   2      10.611   4.665  16.673  1.00 32.03 LIG 0.21  C 
BRANCH 13 14
ATOM     14 OG   SER E   2      10.638   5.218  15.359  1.00 34.92 LIG-0.40  OA
ATOM     15 HG   SER E   2       9.895   5.096  14.987  1.00 34.92 LIG 0.21  HD
ENDBRANCH 13 14
ENDBRANCH 11 13
ENDBRANCH 8 11
ENDBRANCH 6 7
ENDBRANCH 4 6
ENDBRANCH 1 2
BRANCH 1 16
ATOM     16  CB  ARG E   4       3.821   4.235  22.935  1.00 27.29 LIG 0.04  C 
BRANCH 16 17
ATOM     17  CG  ARG E   4       3.550   4.130  24.425  1.00 23.54 LIG 0.02  C 
BRANCH 17 18
ATOM     18  CD  ARG E   4       2.118   4.509  24.780  1.00 24.92 LIG 0.14  C 
BRANCH 18 19
ATOM     19  NE  ARG E   4       2.023   5.388  25.953  1.00 26.33 LIG-0.23  N 
ATOM     20  CZ  ARG E   4       0.887   5.593  26.625  1.00 30.25 LIG 0.67  C 
ATOM     21  NH2 ARG E   4       0.857   6.398  27.690  1.00 27.06 LIG-0.23  N 
ATOM     22  NH1 ARG E   4      -0.230   4.985  26.224  1.00 23.50 LIG-0.23  N 
ATOM     23 2HH2 ARG E   4       0.120   6.522  28.114  1.00 27.06 LIG 0.17  HD
ATOM     24 1HH2 ARG E   4       1.576   6.792  27.951  1.00 27.06 LIG 0.17  HD
ATOM     25 2HH1 ARG E   4      -0.966   5.112  26.651  1.00 23.50 LIG 0.17  HD
ATOM     26 1HH1 ARG E   4      -0.215   4.467  25.538  1.00 23.50 LIG 0.17  HD
ATOM     27 HE   ARG E   4       2.734   5.790  26.220  1.00 26.33 LIG 0.18  HD
ENDBRANCH 18 19
ENDBRANCH 17 18
ENDBRANCH 16 17
ENDBRANCH 1 16
BRANCH 1 28
ATOM     28  C   ARG E   4       5.700   5.638  23.892  1.00 22.79 LIG 0.24  C 
ATOM     29 O    ARG E   4       5.268   6.716  24.303  1.00 23.55 LIG-0.27  OA
ATOM     30  N   GLY E   5       6.706   5.003  24.481  1.00 27.73 LIG-0.35  N 
ATOM     31 H    GLY E   5       7.078   4.297  24.161  1.00 27.73 LIG 0.16  HD
BRANCH 30 32
ATOM     32  CA  GLY E   5       7.270   5.457  25.739  1.00 23.99 LIG 0.21  C 
BRANCH 32 33
ATOM     33  C   GLY E   5       8.546   4.677  25.946  1.00 34.17 LIG 0.21  C 
ATOM     34 O    GLY E   5       8.479   3.485  26.265  1.00 39.09 LIG-0.29  OA
ENDBRANCH 32 33
ENDBRANCH 30 32
ENDBRANCH 1 28
TORSDOF 13
ENDMDL
MODEL 14
USER: ADFR SOLUTION from run 167
USER: SCORE 13.901740 LL:  -0.633 LR: -14.306 RR:   0.000 FEB: -10.428
USER: RMSD 2.571069
USER: SEED 166
USER: STATUS no improvement in best in 3 clusters for 5 generations
USER: GENES 15
USER: genes 0 Translation |==|  0.53498 0.46246 0.61905
USER: genes 1 Rotation |==|  0.68250 0.50801 0.59465 0.95571
USER: genes 2 Torsion [CB]-CA--N-[C] |==|  0.48889
USER: genes 3 Torsion [N]-C--CA-[N] |==|  0.88220
USER: genes 4 Torsion [C]-CA--N-[C] |==|  0.82572
USER: genes 5 Torsion [N]-C--CA-[N] |==|  0.44388
USER: genes 6 Torsion [C]-CA--CB-[OG] |==|  0.16478
USER: genes 7 Torsion [CA]-CB--OG-[HG] |==|  0.63514
USER: genes 8 Torsion [N]-CA--CB-[CG] |==|  0.87877
USER: genes 9 Torsion [CA]-CB--CG-[CD] |==|  0.61791
USER: genes 10 Torsion [CB]-CG--CD-[NE] |==|  0.14144
USER: genes 11 Torsion [CG]-CD--NE-[CZ] |==|  0.51011
USER: genes 12 Torsion [N]-CA--C-[N] |==|  0.35551
USER: genes 13 Torsion [C]-N--CA-[C] |==|  0.85733
USER: genes 14 Torsion [N]-CA--C-[O] |==|  0.36042
ROOT
ATOM      1  CA  ARG E   4       6.504   4.853  24.543  1.00 23.90 LIG 0.18  C 
ENDROOT
BRANCH 1 2
ATOM      2  N   ARG E   4       6.887   5.270  23.208  1.00 30.77 LIG-0.35  N 
ATOM      3 H    ARG E   4       6.500   4.850  22.566  1.00 30.77 LIG 0.16  HD
ATOM      4  C   GLY E   3       7.778   6.237  23.054  1.00 25.66 LIG 0.24  C 
ATOM      5 O    GLY E   3       8.678   6.444  23.867  1.00 29.19 LIG-0.27  OA
BRANCH 4 6
ATOM      6  CA  GLY E   3       7.695   7.039  21.779  1.00 22.47 LIG 0.23  C 
BRANCH 6 7
ATOM      7  N   GLY E   3       7.454   6.110  20.693  1.00 33.62 LIG-0.35  N 
ATOM      8  C   SER E   2       8.358   5.182  20.413  1.00 31.79 LIG 0.26  C 
ATOM      9 O    SER E   2       9.337   4.979  21.150  1.00 29.25 LIG-0.27  OA
ATOM     10 H    GLY E   3       6.709   6.216  20.275  1.00 33.62 LIG 0.16  HD
BRANCH 8 11
ATOM     11  CA  SER E   2       8.110   4.345  19.143  1.00 26.25 LIG 0.42  C 
ATOM     12  N   SER E   2       9.333   3.711  18.664  1.00 36.21 LIG 0.62  N 
BRANCH 11 13
ATOM     13  CB  SER E   2       7.011   3.289  19.364  1.00 32.03 LIG 0.21  C 
BRANCH 13 14
ATOM     14 OG   SER E   2       5.767   3.877  19.738  1.00 34.92 LIG-0.40  OA
ATOM     15 HG   SER E   2       5.458   3.478  20.409  1.00 34.92 LIG 0.21  HD
ENDBRANCH 13 14
ENDBRANCH 11 13
ENDBRANCH 8 11
ENDBRANCH 6 7
ENDBRANCH 4 6
ENDBRANCH 1 2
BRANCH 1 16
ATOM     16  CB  ARG E   4       5.404   3.809  24.381  1.00 27.29 LIG 0.04  C 
BRANCH 16 17
ATOM     17  CG  ARG E   4       4.378   4.209  23.337  1.00 23.54 LIG 0.02  C 
BRANCH 17 18
ATOM     18  CD  ARG E   4       2.952   3.916  23.786  1.00 24.92 LIG 0.14  C 
BRANCH 18 19
ATOM     19  NE  ARG E   4       2.641   4.448  25.118  1.00 26.33 LIG-0.23  N 
ATOM     20  CZ  ARG E   4       1.474   4.245  25.735  1.00 30.25 LIG 0.67  C 
ATOM     21  NH2 ARG E   4       1.244   4.748  26.950  1.00 27.06 LIG-0.23  N 
ATOM     22  NH1 ARG E   4       0.526   3.533  25.124  1.00 23.50 LIG-0.23  N 
ATOM     23 2HH2 ARG E   4       0.489   4.610  27.336  1.00 27.06 LIG 0.17  HD
ATOM     24 1HH2 ARG E   4       1.853   5.209  27.347  1.00 27.06 LIG 0.17  HD
ATOM     25 2HH1 ARG E   4      -0.229   3.397  25.514  1.00 23.50 LIG 0.17  HD
ATOM     26 1HH1 ARG E   4       0.670   3.208  24.340  1.00 23.50 LIG 0.17  HD
ATOM     27 HE   ARG E   4       3.241   4.914  25.522  1.00 26.33 LIG 0.18  HD
ENDBRANCH 18 19
ENDBRANCH 17 18
ENDBRANCH 16 17
ENDBRANCH 1 16
BRANCH 1 28
ATOM     28  C   ARG E   4       7.608   4.364  25.500  1.00 22.79 LIG 0.24  C 
ATOM     29 O    ARG E   4       8.392   3.467  25.189  1.00 23.55 LIG-0.27  OA
ATOM     30  N   GLY E   5       7.634   4.952  26.690  1.00 27.73 LIG-0.35  N 
ATOM     31 H    GLY E   5       7.043   5.516  26.957  1.00 27.73 LIG 0.16  HD
BRANCH 30 32
ATOM     32  CA  GLY E   5       8.684   4.685  27.656  1.00 23.99 LIG 0.21  C 
BRANCH 32 33
ATOM     33  C   GLY E   5       8.771   3.184  27.796  1.00 34.17 LIG 0.21  C 
ATOM     34 O    GLY E   5       9.873   2.633  27.699  1.00 39.09 LIG-0.29  OA
ENDBRANCH 32 33
ENDBRANCH 30 32
ENDBRANCH 1 28
TORSDOF 13
ENDMDL
MODEL 15
USER: ADFR SOLUTION from run 126
USER: SCORE 13.846671 LL:  -0.572 LR: -14.267 RR:   0.000 FEB: -10.389
USER: RMSD 8.019919
USER: SEED 125
USER: STATUS no improvement in best in 9 clusters for 5 generations
USER: GENES 15
USER: genes 0 Translation |==|  0.55868 0.40476 0.45031
USER: genes 1 Rotation |==|  0.32855 0.90465 0.39481 0.71402
USER: genes 2 Torsion [CB]-CA--N-[C] |==|  0.17312
USER: genes 3 Torsion [N]-C--CA-[N] |==|  0.58222
USER: genes 4 Torsion [C]-CA--N-[C] |==|  0.15384
USER: genes 5 Torsion [N]-C--CA-[N] |==|  0.78093
USER: genes 6 Torsion [C]-CA--CB-[OG] |==|  0.63485
USER: genes 7 Torsion [CA]-CB--OG-[HG] |==|  0.40633
USER: genes 8 Torsion [N]-CA--CB-[CG] |==|  0.73435
USER: genes 9 Torsion [CA]-CB--CG-[CD] |==|  0.66800
USER: genes 10 Torsion [CB]-CG--CD-[NE] |==|  0.27775
USER: genes 11 Torsion [CG]-CD--NE-[CZ] |==|  0.32242
USER: genes 12 Torsion [N]-CA--C-[N] |==|  0.88294
USER: genes 13 Torsion [C]-N--CA-[C] |==|  0.56269
USER: genes 14 Torsion [N]-CA--C-[O] |==|  0.53762
ROOT
ATOM      1  CA  ARG E   4       7.002   4.074  21.632  1.00 23.90 LIG 0.18  C 
ENDROOT
BRANCH 1 2
ATOM      2  N   ARG E   4       6.145   3.361  22.558  1.00 30.77 LIG-0.35  N 
ATOM      3 H    ARG E   4       6.145   2.505  22.476  1.00 30.77 LIG 0.16  HD
ATOM      4  C   GLY E   3       5.434   4.038  23.446  1.00 25.66 LIG 0.24  C 
ATOM      5 O    GLY E   3       5.020   5.177  23.233  1.00 29.19 LIG-0.27  OA
BRANCH 4 6
ATOM      6  CA  GLY E   3       5.074   3.316  24.720  1.00 22.47 LIG 0.23  C 
BRANCH 6 7
ATOM      7  N   GLY E   3       3.815   3.860  25.190  1.00 33.62 LIG-0.35  N 
ATOM      8  C   SER E   2       2.761   3.860  24.387  1.00 31.79 LIG 0.26  C 
ATOM      9 O    SER E   2       2.770   3.266  23.297  1.00 29.25 LIG-0.27  OA
ATOM     10 H    GLY E   3       3.823   4.164  25.995  1.00 33.62 LIG 0.16  HD
BRANCH 8 11
ATOM     11  CA  SER E   2       1.512   4.607  24.894  1.00 26.25 LIG 0.42  C 
ATOM     12  N   SER E   2       0.764   3.816  25.864  1.00 36.21 LIG 0.62  N 
BRANCH 11 13
ATOM     13  CB  SER E   2       1.874   5.980  25.489  1.00 32.03 LIG 0.21  C 
BRANCH 13 14
ATOM     14 OG   SER E   2       1.270   6.191  26.764  1.00 34.92 LIG-0.40  OA
ATOM     15 HG   SER E   2       1.783   6.650  27.245  1.00 34.92 LIG 0.21  HD
ENDBRANCH 13 14
ENDBRANCH 11 13
ENDBRANCH 8 11
ENDBRANCH 6 7
ENDBRANCH 4 6
ENDBRANCH 1 2
BRANCH 1 16
ATOM     16  CB  ARG E   4       8.050   4.800  22.470  1.00 27.29 LIG 0.04  C 
BRANCH 16 17
ATOM     17  CG  ARG E   4       7.664   6.241  22.754  1.00 23.54 LIG 0.02  C 
BRANCH 17 18
ATOM     18  CD  ARG E   4       8.678   7.231  22.197  1.00 24.92 LIG 0.14  C 
BRANCH 18 19
ATOM     19  NE  ARG E   4       8.264   7.832  20.922  1.00 26.33 LIG-0.23  N 
ATOM     20  CZ  ARG E   4       8.020   9.137  20.772  1.00 30.25 LIG 0.67  C 
ATOM     21  NH2 ARG E   4       7.652   9.633  19.588  1.00 27.06 LIG-0.23  N 
ATOM     22  NH1 ARG E   4       8.145   9.951  21.820  1.00 23.50 LIG-0.23  N 
ATOM     23 2HH2 ARG E   4       7.498  10.474  19.504  1.00 27.06 LIG 0.17  HD
ATOM     24 1HH2 ARG E   4       7.570   9.110  18.910  1.00 27.06 LIG 0.17  HD
ATOM     25 2HH1 ARG E   4       7.990  10.793  21.732  1.00 23.50 LIG 0.17  HD
ATOM     26 1HH1 ARG E   4       8.381   9.635  22.585  1.00 23.50 LIG 0.17  HD
ATOM     27 HE   ARG E   4       8.175   7.318  20.239  1.00 26.33 LIG 0.18  HD
ENDBRANCH 18 19
ENDBRANCH 17 18
ENDBRANCH 16 17
ENDBRANCH 1 16
BRANCH 1 28
ATOM     28  C   ARG E   4       7.653   3.283  20.481  1.00 22.79 LIG 0.24  C 
ATOM     29 O    ARG E   4       7.694   3.719  19.330  1.00 23.55 LIG-0.27  OA
ATOM     30  N   GLY E   5       8.134   2.090  20.808  1.00 27.73 LIG-0.35  N 
ATOM     31 H    GLY E   5       8.037   1.732  21.584  1.00 27.73 LIG 0.16  HD
BRANCH 30 32
ATOM     32  CA  GLY E   5       8.878   1.276  19.864  1.00 23.99 LIG 0.21  C 
BRANCH 32 33
ATOM     33  C   GLY E   5       8.770  -0.151  20.345  1.00 34.17 LIG 0.21  C 
ATOM     34 O    GLY E   5       9.520  -1.007  19.864  1.00 39.09 LIG-0.29  OA
ENDBRANCH 32 33
ENDBRANCH 30 32
ENDBRANCH 1 28
TORSDOF 13
ENDMDL
MODEL 16
USER: ADFR SOLUTION from run 111
USER: SCORE 14.110159 LL:  -0.384 LR: -14.209 RR:   0.000 FEB: -10.331
USER: RMSD 5.589697
USER: SEED 110
USER: STATUS no improvement in best in 8 clusters for 5 generations
USER: GENES 15
USER: genes 0 Translation |==|  0.55155 0.39118 0.51038
USER: genes 1 Rotation |==|  0.89696 0.66116 0.31900 0.68354
USER: genes 2 Torsion [CB]-CA--N-[C] |==|  0.52778
USER: genes 3 Torsion [N]-C--CA-[N] |==|  0.04542
USER: genes 4 Torsion [C]-CA--N-[C] |==|  0.21600
USER: genes 5 Torsion [N]-C--CA-[N] |==|  0.98720
USER: genes 6 Torsion [C]-CA--CB-[OG] |==|  0.84594
USER: genes 7 Torsion [CA]-CB--OG-[HG] |==|  0.78222
USER: genes 8 Torsion [N]-CA--CB-[CG] |==|  0.08052
USER: genes 9 Torsion [CA]-CB--CG-[CD] |==|  0.44834
USER: genes 10 Torsion [CB]-CG--CD-[NE] |==|  0.30815
USER: genes 11 Torsion [CG]-CD--NE-[CZ] |==|  0.46023
USER: genes 12 Torsion [N]-CA--C-[N] |==|  0.37913
USER: genes 13 Torsion [C]-N--CA-[C] |==|  0.52558
USER: genes 14 Torsion [N]-CA--C-[O] |==|  0.50396
ROOT
ATOM      1  CA  ARG E   4       6.852   3.891  22.668  1.00 23.90 LIG 0.18  C 
ENDROOT
BRANCH 1 2
ATOM      2  N   ARG E   4       6.863   5.340  22.673  1.00 30.77 LIG-0.35  N 
ATOM      3 H    ARG E   4       6.306   5.711  23.212  1.00 30.77 LIG 0.16  HD
ATOM      4  C   GLY E   3       7.697   5.992  21.877  1.00 25.66 LIG 0.24  C 
ATOM      5 O    GLY E   3       8.066   5.541  20.794  1.00 29.19 LIG-0.27  OA
BRANCH 4 6
ATOM      6  CA  GLY E   3       8.121   7.370  22.321  1.00 22.47 LIG 0.23  C 
BRANCH 6 7
ATOM      7  N   GLY E   3       7.798   7.494  23.729  1.00 33.62 LIG-0.35  N 
ATOM      8  C   SER E   2       8.582   6.923  24.633  1.00 31.79 LIG 0.26  C 
ATOM      9 O    SER E   2       9.673   6.416  24.325  1.00 29.25 LIG-0.27  OA
ATOM     10 H    GLY E   3       7.090   7.949  23.906  1.00 33.62 LIG 0.16  HD
BRANCH 8 11
ATOM     11  CA  SER E   2       8.083   6.953  26.090  1.00 26.25 LIG 0.42  C 
ATOM     12  N   SER E   2       6.851   7.722  26.225  1.00 36.21 LIG 0.62  N 
BRANCH 11 13
ATOM     13  CB  SER E   2       7.894   5.534  26.657  1.00 32.03 LIG 0.21  C 
BRANCH 13 14
ATOM     14 OG   SER E   2       7.022   4.744  25.849  1.00 34.92 LIG-0.40  OA
ATOM     15 HG   SER E   2       6.225   4.957  26.005  1.00 34.92 LIG 0.21  HD
ENDBRANCH 13 14
ENDBRANCH 11 13
ENDBRANCH 8 11
ENDBRANCH 6 7
ENDBRANCH 4 6
ENDBRANCH 1 2
BRANCH 1 16
ATOM     16  CB  ARG E   4       5.637   3.455  23.481  1.00 27.29 LIG 0.04  C 
BRANCH 16 17
ATOM     17  CG  ARG E   4       4.512   4.472  23.425  1.00 23.54 LIG 0.02  C 
BRANCH 17 18
ATOM     18  CD  ARG E   4       3.172   3.873  23.831  1.00 24.92 LIG 0.14  C 
BRANCH 18 19
ATOM     19  NE  ARG E   4       2.671   4.384  25.114  1.00 26.33 LIG-0.23  N 
ATOM     20  CZ  ARG E   4       1.412   4.217  25.529  1.00 30.25 LIG 0.67  C 
ATOM     21  NH2 ARG E   4       1.010   4.697  26.708  1.00 27.06 LIG-0.23  N 
ATOM     22  NH1 ARG E   4       0.548   3.563  24.751  1.00 23.50 LIG-0.23  N 
ATOM     23 2HH2 ARG E   4       0.198   4.583  26.964  1.00 27.06 LIG 0.17  HD
ATOM     24 1HH2 ARG E   4       1.565   5.120  27.212  1.00 27.06 LIG 0.17  HD
ATOM     25 2HH1 ARG E   4      -0.264   3.452  25.011  1.00 23.50 LIG 0.17  HD
ATOM     26 1HH1 ARG E   4       0.803   3.254  23.990  1.00 23.50 LIG 0.17  HD
ATOM     27 HE   ARG E   4       3.216   4.811  25.623  1.00 26.33 LIG 0.18  HD
ENDBRANCH 18 19
ENDBRANCH 17 18
ENDBRANCH 16 17
ENDBRANCH 1 16
BRANCH 1 28
ATOM     28  C   ARG E   4       6.911   3.164  21.310  1.00 22.79 LIG 0.24  C 
ATOM     29 O    ARG E   4       6.219   3.511  20.354  1.00 23.55 LIG-0.27  OA
ATOM     30  N   GLY E   5       7.732   2.123  21.255  1.00 27.73 LIG-0.35  N 
ATOM     31 H    GLY E   5       8.157   1.813  21.936  1.00 27.73 LIG 0.16  HD
BRANCH 30 32
ATOM     32  CA  GLY E   5       7.986   1.409  20.017  1.00 23.99 LIG 0.21  C 
BRANCH 32 33
ATOM     33  C   GLY E   5       8.770   0.172  20.384  1.00 34.17 LIG 0.21  C 
ATOM     34 O    GLY E   5       9.135  -0.598  19.489  1.00 39.09 LIG-0.29  OA
ENDBRANCH 32 33
ENDBRANCH 30 32
ENDBRANCH 1 28
TORSDOF 13
ENDMDL
MODEL 17
USER: ADFR SOLUTION from run 61
USER: SCORE 14.127938 LL:  -0.931 LR: -14.128 RR:   0.000 FEB: -10.250
USER: RMSD 2.767971
USER: SEED 60
USER: STATUS no improvement in best in 4 clusters for 5 generations
USER: GENES 15
USER: genes 0 Translation |==|  0.50271 0.48796 0.50296
USER: genes 1 Rotation |==|  0.41985 0.69451 0.66516 0.92245
USER: genes 2 Torsion [CB]-CA--N-[C] |==|  0.72168
USER: genes 3 Torsion [N]-C--CA-[N] |==|  0.30000
USER: genes 4 Torsion [C]-CA--N-[C] |==|  0.25002
USER: genes 5 Torsion [N]-C--CA-[N] |==|  0.26732
USER: genes 6 Torsion [C]-CA--CB-[OG] |==|  0.23003
USER: genes 7 Torsion [CA]-CB--OG-[HG] |==|  0.24033
USER: genes 8 Torsion [N]-CA--CB-[CG] |==|  0.84744
USER: genes 9 Torsion [CA]-CB--CG-[CD] |==|  0.81525
USER: genes 10 Torsion [CB]-CG--CD-[NE] |==|  0.76929
USER: genes 11 Torsion [CG]-CD--NE-[CZ] |==|  0.68527
USER: genes 12 Torsion [N]-CA--C-[N] |==|  0.11527
USER: genes 13 Torsion [C]-N--CA-[C] |==|  0.73084
USER: genes 14 Torsion [N]-CA--C-[O] |==|  0.80919
ROOT
ATOM      1  CA  ARG E   4       5.827   5.198  22.540  1.00 23.90 LIG 0.18  C 
ENDROOT
BRANCH 1 2
ATOM      2  N   ARG E   4       5.854   4.179  21.509  1.00 30.77 LIG-0.35  N 
ATOM      3 H    ARG E   4       5.086   3.872  21.275  1.00 30.77 LIG 0.16  HD
ATOM      4  C   GLY E   3       7.013   3.789  21.003  1.00 25.66 LIG 0.24  C 
ATOM      5 O    GLY E   3       8.057   3.800  21.655  1.00 29.19 LIG-0.27  OA
BRANCH 4 6
ATOM      6  CA  GLY E   3       6.992   3.245  19.596  1.00 22.47 LIG 0.23  C 
BRANCH 6 7
ATOM      7  N   GLY E   3       7.608   4.235  18.736  1.00 33.62 LIG-0.35  N 
ATOM      8  C   SER E   2       8.916   4.192  18.520  1.00 31.79 LIG 0.26  C 
ATOM      9 O    SER E   2       9.610   3.238  18.905  1.00 29.25 LIG-0.27  OA
ATOM     10 H    GLY E   3       7.071   4.817  18.400  1.00 33.62 LIG 0.16  HD
BRANCH 8 11
ATOM     11  CA  SER E   2       9.520   5.373  17.736  1.00 26.25 LIG 0.42  C 
ATOM     12  N   SER E   2      10.078   6.385  18.625  1.00 36.21 LIG 0.62  N 
BRANCH 11 13
ATOM     13  CB  SER E   2      10.584   4.901  16.728  1.00 32.03 LIG 0.21  C 
BRANCH 13 14
ATOM     14 OG   SER E   2      10.004   4.445  15.507  1.00 34.92 LIG-0.40  OA
ATOM     15 HG   SER E   2       9.892   5.097  14.989  1.00 34.92 LIG 0.21  HD
ENDBRANCH 13 14
ENDBRANCH 11 13
ENDBRANCH 8 11
ENDBRANCH 6 7
ENDBRANCH 4 6
ENDBRANCH 1 2
BRANCH 1 16
ATOM     16  CB  ARG E   4       5.659   4.473  23.872  1.00 27.29 LIG 0.04  C 
BRANCH 16 17
ATOM     17  CG  ARG E   4       4.443   3.566  23.886  1.00 23.54 LIG 0.02  C 
BRANCH 17 18
ATOM     18  CD  ARG E   4       3.138   4.347  23.803  1.00 24.92 LIG 0.14  C 
BRANCH 18 19
ATOM     19  NE  ARG E   4       2.684   4.860  25.102  1.00 26.33 LIG-0.23  N 
ATOM     20  CZ  ARG E   4       1.576   4.432  25.713  1.00 30.25 LIG 0.67  C 
ATOM     21  NH2 ARG E   4       1.211   4.928  26.897  1.00 27.06 LIG-0.23  N 
ATOM     22  NH1 ARG E   4       0.826   3.497  25.128  1.00 23.50 LIG-0.23  N 
ATOM     23 2HH2 ARG E   4       0.495   4.644  27.280  1.00 27.06 LIG 0.17  HD
ATOM     24 1HH2 ARG E   4       1.691   5.532  27.277  1.00 27.06 LIG 0.17  HD
ATOM     25 2HH1 ARG E   4       0.110   3.215  25.514  1.00 23.50 LIG 0.17  HD
ATOM     26 1HH1 ARG E   4       1.057   3.176  24.364  1.00 23.50 LIG 0.17  HD
ATOM     27 HE   ARG E   4       3.155   5.467  25.489  1.00 26.33 LIG 0.18  HD
ENDBRANCH 18 19
ENDBRANCH 17 18
ENDBRANCH 16 17
ENDBRANCH 1 16
BRANCH 1 28
ATOM     28  C   ARG E   4       6.984   6.213  22.594  1.00 22.79 LIG 0.24  C 
ATOM     29 O    ARG E   4       7.472   6.592  23.658  1.00 23.55 LIG-0.27  OA
ATOM     30  N   GLY E   5       7.394   6.674  21.419  1.00 27.73 LIG-0.35  N 
ATOM     31 H    GLY E   5       7.009   6.490  20.672  1.00 27.73 LIG 0.16  HD
BRANCH 30 32
ATOM     32  CA  GLY E   5       8.549   7.545  21.295  1.00 23.99 LIG 0.21  C 
BRANCH 32 33
ATOM     33  C   GLY E   5       8.020   8.959  21.240  1.00 34.17 LIG 0.21  C 
ATOM     34 O    GLY E   5       7.381   9.325  20.247  1.00 39.09 LIG-0.29  OA
ENDBRANCH 32 33
ENDBRANCH 30 32
ENDBRANCH 1 28
TORSDOF 13
ENDMDL
MODEL 18
USER: ADFR SOLUTION from run 161
USER: SCORE 14.030588 LL:  -0.576 LR: -14.126 RR:   0.000 FEB: -10.249
USER: RMSD 7.735533
USER: SEED 160
USER: STATUS no improvement in best in 5 clusters for 5 generations
USER: GENES 15
USER: genes 0 Translation |==|  0.56520 0.36771 0.55847
USER: genes 1 Rotation |==|  0.24522 0.33077 0.12014 0.61026
USER: genes 2 Torsion [CB]-CA--N-[C] |==|  0.76503
USER: genes 3 Torsion [N]-C--CA-[N] |==|  0.39218
USER: genes 4 Torsion [C]-CA--N-[C] |==|  0.46286
USER: genes 5 Torsion [N]-C--CA-[N] |==|  0.75926
USER: genes 6 Torsion [C]-CA--CB-[OG] |==|  0.56598
USER: genes 7 Torsion [CA]-CB--OG-[HG] |==|  0.15576
USER: genes 8 Torsion [N]-CA--CB-[CG] |==|  0.91914
USER: genes 9 Torsion [CA]-CB--CG-[CD] |==|  0.58973
USER: genes 10 Torsion [CB]-CG--CD-[NE] |==|  0.82952
USER: genes 11 Torsion [CG]-CD--NE-[CZ] |==|  0.38960
USER: genes 12 Torsion [N]-CA--C-[N] |==|  0.30287
USER: genes 13 Torsion [C]-N--CA-[C] |==|  0.51299
USER: genes 14 Torsion [N]-CA--C-[O] |==|  0.98720
ROOT
ATOM      1  CA  ARG E   4       7.139   3.574  23.498  1.00 23.90 LIG 0.18  C 
ENDROOT
BRANCH 1 2
ATOM      2  N   ARG E   4       5.750   3.203  23.312  1.00 30.77 LIG-0.35  N 
ATOM      3 H    ARG E   4       5.613   2.378  23.115  1.00 30.77 LIG 0.16  HD
ATOM      4  C   GLY E   3       4.804   4.118  23.451  1.00 25.66 LIG 0.24  C 
ATOM      5 O    GLY E   3       4.991   5.307  23.197  1.00 29.19 LIG-0.27  OA
BRANCH 4 6
ATOM      6  CA  GLY E   3       3.438   3.625  23.860  1.00 22.47 LIG 0.23  C 
BRANCH 6 7
ATOM      7  N   GLY E   3       2.887   4.590  24.791  1.00 33.62 LIG-0.35  N 
ATOM      8  C   SER E   2       1.598   4.539  25.100  1.00 31.79 LIG 0.26  C 
ATOM      9 O    SER E   2       0.877   3.595  24.741  1.00 29.25 LIG-0.27  OA
ATOM     10 H    GLY E   3       3.447   5.163  25.104  1.00 33.62 LIG 0.16  HD
BRANCH 8 11
ATOM     11  CA  SER E   2       1.054   5.697  25.959  1.00 26.25 LIG 0.42  C 
ATOM     12  N   SER E   2       1.230   5.444  27.384  1.00 36.21 LIG 0.62  N 
BRANCH 11 13
ATOM     13  CB  SER E   2       1.693   7.043  25.571  1.00 32.03 LIG 0.21  C 
BRANCH 13 14
ATOM     14 OG   SER E   2       1.645   7.989  26.638  1.00 34.92 LIG-0.40  OA
ATOM     15 HG   SER E   2       2.013   7.664  27.319  1.00 34.92 LIG 0.21  HD
ENDBRANCH 13 14
ENDBRANCH 11 13
ENDBRANCH 8 11
ENDBRANCH 6 7
ENDBRANCH 4 6
ENDBRANCH 1 2
BRANCH 1 16
ATOM     16  CB  ARG E   4       7.627   4.137  22.166  1.00 27.29 LIG 0.04  C 
BRANCH 16 17
ATOM     17  CG  ARG E   4       6.895   3.533  20.982  1.00 23.54 LIG 0.02  C 
BRANCH 17 18
ATOM     18  CD  ARG E   4       7.782   3.427  19.748  1.00 24.92 LIG 0.14  C 
BRANCH 18 19
ATOM     19  NE  ARG E   4       8.267   4.726  19.267  1.00 26.33 LIG-0.23  N 
ATOM     20  CZ  ARG E   4       9.507   4.923  18.809  1.00 30.25 LIG 0.67  C 
ATOM     21  NH2 ARG E   4       9.896   6.125  18.379  1.00 27.06 LIG-0.23  N 
ATOM     22  NH1 ARG E   4      10.365   3.902  18.785  1.00 23.50 LIG-0.23  N 
ATOM     23 2HH2 ARG E   4      10.696   6.238  18.086  1.00 27.06 LIG 0.17  HD
ATOM     24 1HH2 ARG E   4       9.345   6.786  18.394  1.00 27.06 LIG 0.17  HD
ATOM     25 2HH1 ARG E   4      11.165   4.020  18.492  1.00 23.50 LIG 0.17  HD
ATOM     26 1HH1 ARG E   4      10.118   3.126  19.063  1.00 23.50 LIG 0.17  HD
ATOM     27 HE   ARG E   4       7.727   5.395  19.282  1.00 26.33 LIG 0.18  HD
ENDBRANCH 18 19
ENDBRANCH 17 18
ENDBRANCH 16 17
ENDBRANCH 1 16
BRANCH 1 28
ATOM     28  C   ARG E   4       7.496   4.510  24.669  1.00 22.79 LIG 0.24  C 
ATOM     29 O    ARG E   4       7.213   5.708  24.657  1.00 23.55 LIG-0.27  OA
ATOM     30  N   GLY E   5       8.155   3.944  25.672  1.00 27.73 LIG-0.35  N 
ATOM     31 H    GLY E   5       8.438   3.132  25.660  1.00 27.73 LIG 0.16  HD
BRANCH 30 32
ATOM     32  CA  GLY E   5       8.458   4.663  26.896  1.00 23.99 LIG 0.21  C 
BRANCH 32 33
ATOM     33  C   GLY E   5       9.307   3.743  27.739  1.00 34.17 LIG 0.21  C 
ATOM     34 O    GLY E   5       9.520   2.590  27.345  1.00 39.09 LIG-0.29  OA
ENDBRANCH 32 33
ENDBRANCH 30 32
ENDBRANCH 1 28
TORSDOF 13
ENDMDL
MODEL 19
USER: ADFR SOLUTION from run 33
USER: SCORE 14.420819 LL:  -0.834 LR: -14.120 RR:   0.000 FEB: -10.242
USER: RMSD 4.275068
USER: SEED 32
USER: STATUS no improvement in best in 7 clusters for 5 generations
USER: GENES 15
USER: genes 0 Translation |==|  0.55456 0.37537 0.48764
USER: genes 1 Rotation |==|  0.94747 0.47181 0.33965 0.65252
USER: genes 2 Torsion [CB]-CA--N-[C] |==|  0.78323
USER: genes 3 Torsion [N]-C--CA-[N] |==|  0.40556
USER: genes 4 Torsion [C]-CA--N-[C] |==|  0.77048
USER: genes 5 Torsion [N]-C--CA-[N] |==|  0.22934
USER: genes 6 Torsion [C]-CA--CB-[OG] |==|  0.48794
USER: genes 7 Torsion [CA]-CB--OG-[HG] |==|  0.76655
USER: genes 8 Torsion [N]-CA--CB-[CG] |==|  0.66101
USER: genes 9 Torsion [CA]-CB--CG-[CD] |==|  0.54234
USER: genes 10 Torsion [CB]-CG--CD-[NE] |==|  0.67786
USER: genes 11 Torsion [CG]-CD--NE-[CZ] |==|  0.59124
USER: genes 12 Torsion [N]-CA--C-[N] |==|  0.25327
USER: genes 13 Torsion [C]-N--CA-[C] |==|  0.50975
USER: genes 14 Torsion [N]-CA--C-[O] |==|  0.49994
ROOT
ATOM      1  CA  ARG E   4       6.916   3.678  22.276  1.00 23.90 LIG 0.18  C 
ENDROOT
BRANCH 1 2
ATOM      2  N   ARG E   4       7.850   4.782  22.370  1.00 30.77 LIG-0.35  N 
ATOM      3 H    ARG E   4       8.299   4.823  23.102  1.00 30.77 LIG 0.16  HD
ATOM      4  C   GLY E   3       7.960   5.635  21.364  1.00 25.66 LIG 0.24  C 
ATOM      5 O    GLY E   3       7.019   5.902  20.617  1.00 29.19 LIG-0.27  OA
BRANCH 4 6
ATOM      6  CA  GLY E   3       9.284   6.342  21.215  1.00 22.47 LIG 0.23  C 
BRANCH 6 7
ATOM      7  N   GLY E   3       9.520   6.532  19.797  1.00 33.62 LIG-0.35  N 
ATOM      8  C   SER E   2      10.032   5.542  19.080  1.00 31.79 LIG 0.26  C 
ATOM      9 O    SER E   2      10.171   4.400  19.547  1.00 29.25 LIG-0.27  OA
ATOM     10 H    GLY E   3       9.307   7.306  19.489  1.00 33.62 LIG 0.16  HD
BRANCH 8 11
ATOM     11  CA  SER E   2      10.411   5.875  17.624  1.00 26.25 LIG 0.42  C 
ATOM     12  N   SER E   2      11.723   6.504  17.536  1.00 36.21 LIG 0.62  N 
BRANCH 11 13
ATOM     13  CB  SER E   2      10.353   4.629  16.722  1.00 32.03 LIG 0.21  C 
BRANCH 13 14
ATOM     14 OG   SER E   2      10.606   4.943  15.353  1.00 34.92 LIG-0.40  OA
ATOM     15 HG   SER E   2       9.895   5.202  14.989  1.00 34.92 LIG 0.21  HD
ENDBRANCH 13 14
ENDBRANCH 11 13
ENDBRANCH 8 11
ENDBRANCH 6 7
ENDBRANCH 4 6
ENDBRANCH 1 2
BRANCH 1 16
ATOM     16  CB  ARG E   4       5.528   4.249  22.550  1.00 27.29 LIG 0.04  C 
BRANCH 16 17
ATOM     17  CG  ARG E   4       4.847   3.570  23.725  1.00 23.54 LIG 0.02  C 
BRANCH 17 18
ATOM     18  CD  ARG E   4       3.353   3.862  23.774  1.00 24.92 LIG 0.14  C 
BRANCH 18 19
ATOM     19  NE  ARG E   4       2.947   4.617  24.966  1.00 26.33 LIG-0.23  N 
ATOM     20  CZ  ARG E   4       1.762   4.462  25.564  1.00 30.25 LIG 0.67  C 
ATOM     21  NH2 ARG E   4       1.446   5.170  26.650  1.00 27.06 LIG-0.23  N 
ATOM     22  NH1 ARG E   4       0.886   3.589  25.065  1.00 23.50 LIG-0.23  N 
ATOM     23 2HH2 ARG E   4       0.680   5.062  27.026  1.00 27.06 LIG 0.17  HD
ATOM     24 1HH2 ARG E   4       2.008   5.735  26.974  1.00 27.06 LIG 0.17  HD
ATOM     25 2HH1 ARG E   4       0.121   3.484  25.443  1.00 23.50 LIG 0.17  HD
ATOM     26 1HH1 ARG E   4       1.086   3.132  24.364  1.00 23.50 LIG 0.17  HD
ATOM     27 HE   ARG E   4       3.500   5.187  25.296  1.00 26.33 LIG 0.18  HD
ENDBRANCH 18 19
ENDBRANCH 17 18
ENDBRANCH 16 17
ENDBRANCH 1 16
BRANCH 1 28
ATOM     28  C   ARG E   4       6.927   2.818  20.997  1.00 22.79 LIG 0.24  C 
ATOM     29 O    ARG E   4       6.221   3.084  20.025  1.00 23.55 LIG-0.27  OA
ATOM     30  N   GLY E   5       7.724   1.757  21.030  1.00 27.73 LIG-0.35  N 
ATOM     31 H    GLY E   5       8.157   1.506  21.729  1.00 27.73 LIG 0.16  HD
BRANCH 30 32
ATOM     32  CA  GLY E   5       7.933   0.917  19.864  1.00 23.99 LIG 0.21  C 
BRANCH 32 33
ATOM     33  C   GLY E   5       8.818  -0.223  20.307  1.00 34.17 LIG 0.21  C 
ATOM     34 O    GLY E   5       9.145  -1.087  19.485  1.00 39.09 LIG-0.29  OA
ENDBRANCH 32 33
ENDBRANCH 30 32
ENDBRANCH 1 28
TORSDOF 13
ENDMDL
MODEL 20
USER: ADFR SOLUTION from run 141
USER: SCORE 14.145676 LL:  -0.897 LR: -14.039 RR:   0.000 FEB: -10.161
USER: RMSD 2.080342
USER: SEED 140
USER: STATUS no improvement in best in 4 clusters for 5 generations
USER: GENES 15
USER: genes 0 Translation |==|  0.48919 0.46712 0.52474
USER: genes 1 Rotation |==|  0.47879 0.64398 0.67879 0.94369
USER: genes 2 Torsion [CB]-CA--N-[C] |==|  0.75902
USER: genes 3 Torsion [N]-C--CA-[N] |==|  0.28522
USER: genes 4 Torsion [C]-CA--N-[C] |==|  0.28626
USER: genes 5 Torsion [N]-C--CA-[N] |==|  0.82419
USER: genes 6 Torsion [C]-CA--CB-[OG] |==|  0.76663
USER: genes 7 Torsion [CA]-CB--OG-[HG] |==|  0.15881
USER: genes 8 Torsion [N]-CA--CB-[CG] |==|  0.77542
USER: genes 9 Torsion [CA]-CB--CG-[CD] |==|  0.86913
USER: genes 10 Torsion [CB]-CG--CD-[NE] |==|  0.73394
USER: genes 11 Torsion [CG]-CD--NE-[CZ] |==|  0.75854
USER: genes 12 Torsion [N]-CA--C-[N] |==|  0.52214
USER: genes 13 Torsion [C]-N--CA-[C] |==|  0.34961
USER: genes 14 Torsion [N]-CA--C-[O] |==|  0.89670
ROOT
ATOM      1  CA  ARG E   4       5.543   4.916  22.916  1.00 23.90 LIG 0.18  C 
ENDROOT
BRANCH 1 2
ATOM      2  N   ARG E   4       5.672   4.246  21.637  1.00 30.77 LIG-0.35  N 
ATOM      3 H    ARG E   4       4.958   4.228  21.157  1.00 30.77 LIG 0.16  HD
ATOM      4  C   GLY E   3       6.835   3.718  21.288  1.00 25.66 LIG 0.24  C 
ATOM      5 O    GLY E   3       7.635   3.277  22.112  1.00 29.19 LIG-0.27  OA
BRANCH 4 6
ATOM      6  CA  GLY E   3       7.111   3.603  19.809  1.00 22.47 LIG 0.23  C 
BRANCH 6 7
ATOM      7  N   GLY E   3       8.021   4.672  19.450  1.00 33.62 LIG-0.35  N 
ATOM      8  C   SER E   2       9.305   4.403  19.257  1.00 31.79 LIG 0.26  C 
ATOM      9 O    SER E   2       9.729   3.237  19.218  1.00 29.25 LIG-0.27  OA
ATOM     10 H    GLY E   3       7.664   5.452  19.380  1.00 33.62 LIG 0.16  HD
BRANCH 8 11
ATOM     11  CA  SER E   2      10.235   5.613  19.047  1.00 26.25 LIG 0.42  C 
ATOM     12  N   SER E   2       9.895   6.355  17.839  1.00 36.21 LIG 0.62  N 
BRANCH 11 13
ATOM     13  CB  SER E   2      10.233   6.550  20.269  1.00 32.03 LIG 0.21  C 
BRANCH 13 14
ATOM     14 OG   SER E   2       9.145   7.472  20.239  1.00 34.92 LIG-0.40  OA
ATOM     15 HG   SER E   2       8.421   7.049  20.195  1.00 34.92 LIG 0.21  HD
ENDBRANCH 13 14
ENDBRANCH 11 13
ENDBRANCH 8 11
ENDBRANCH 6 7
ENDBRANCH 4 6
ENDBRANCH 1 2
BRANCH 1 16
ATOM     16  CB  ARG E   4       5.198   3.843  23.944  1.00 27.29 LIG 0.04  C 
BRANCH 16 17
ATOM     17  CG  ARG E   4       3.723   3.485  23.930  1.00 23.54 LIG 0.02  C 
BRANCH 17 18
ATOM     18  CD  ARG E   4       2.829   4.718  23.926  1.00 24.92 LIG 0.14  C 
BRANCH 18 19
ATOM     19  NE  ARG E   4       2.366   5.105  25.265  1.00 26.33 LIG-0.23  N 
ATOM     20  CZ  ARG E   4       1.268   4.602  25.835  1.00 30.25 LIG 0.67  C 
ATOM     21  NH2 ARG E   4       0.895   4.985  27.058  1.00 27.06 LIG-0.23  N 
ATOM     22  NH1 ARG E   4       0.537   3.707  25.170  1.00 23.50 LIG-0.23  N 
ATOM     23 2HH2 ARG E   4       0.186   4.654  27.415  1.00 27.06 LIG 0.17  HD
ATOM     24 1HH2 ARG E   4       1.364   5.563  27.490  1.00 27.06 LIG 0.17  HD
ATOM     25 2HH1 ARG E   4      -0.172   3.378  25.530  1.00 23.50 LIG 0.17  HD
ATOM     26 1HH1 ARG E   4       0.773   3.459  24.381  1.00 23.50 LIG 0.17  HD
ATOM     27 HE   ARG E   4       2.825   5.685  25.703  1.00 26.33 LIG 0.18  HD
ENDBRANCH 18 19
ENDBRANCH 17 18
ENDBRANCH 16 17
ENDBRANCH 1 16
BRANCH 1 28
ATOM     28  C   ARG E   4       6.708   5.802  23.397  1.00 22.79 LIG 0.24  C 
ATOM     29 O    ARG E   4       7.681   6.046  22.683  1.00 23.55 LIG-0.27  OA
ATOM     30  N   GLY E   5       6.606   6.254  24.640  1.00 27.73 LIG-0.35  N 
ATOM     31 H    GLY E   5       5.979   6.024  25.183  1.00 27.73 LIG 0.16  HD
BRANCH 30 32
ATOM     32  CA  GLY E   5       7.562   7.194  25.198  1.00 23.99 LIG 0.21  C 
BRANCH 32 33
ATOM     33  C   GLY E   5       6.764   8.366  25.717  1.00 34.17 LIG 0.21  C 
ATOM     34 O    GLY E   5       5.770   8.744  25.087  1.00 39.09 LIG-0.29  OA
ENDBRANCH 32 33
ENDBRANCH 30 32
ENDBRANCH 1 28
TORSDOF 13
ENDMDL
