MODEL 1
USER: ADFR SOLUTION from run 172
USER: SCORE 26.006341 LL:  -4.713 LR: -22.727 RR:   0.000 FEB: -16.164
USER: RMSD 5.015471
USER: SEED 171
USER: STATUS searching
USER: GENES 24
USER: genes 0 Translation |==|  0.46242 0.54184 0.54072
USER: genes 1 Rotation |==|  0.04468 0.60531 0.62956 0.62169
USER: genes 2 Torsion [CB]-CA--N-[C] |==|  0.84125
USER: genes 3 Torsion [N]-C--CA-[N] |==|  0.89392
USER: genes 4 Torsion [C]-CA--N-[C] |==|  0.77239
USER: genes 5 Torsion [N]-C--CA-[N] |==|  0.32542
USER: genes 6 Torsion [C]-CA--N-[C] |==|  0.80148
USER: genes 7 Torsion [C]-CA--CB-[CG1] |==|  0.09345
USER: genes 8 Torsion [C]-CA--CB-[CG] |==|  0.74696
USER: genes 9 Torsion [CA]-CB--CG-[CD2] |==|  0.27456
USER: genes 10 Torsion [N]-CA--C-[N] |==|  0.40048
USER: genes 11 Torsion [C]-N--CA-[CB] |==|  0.19376
USER: genes 12 Torsion [N]-CA--C-[N] |==|  0.61667
USER: genes 13 Torsion [C]-N--CA-[CB] |==|  0.77505
USER: genes 14 Torsion [N]-CA--C-[N] |==|  0.17430
USER: genes 15 Torsion [C]-N--CA-[C] |==|  0.78185
USER: genes 16 Torsion [N]-CA--C-[N] |==|  0.96654
USER: genes 17 Torsion [N]-CA--CB-[CG] |==|  0.86887
USER: genes 18 Torsion [CA]-CB--CG-[OD1] |==|  0.81344
USER: genes 19 Torsion [N]-CA--CB-[CG] |==|  0.02943
USER: genes 20 Torsion [CA]-CB--CG-[CD] |==|  0.31546
USER: genes 21 Torsion [CB]-CG--CD-[OE2] |==|  0.20323
USER: genes 22 Torsion [N]-CA--CB-[CG] |==|  0.75465
USER: genes 23 Torsion [CA]-CB--CG-[CD1] |==|  0.49970
ROOT
ATOM      1  CA  PHE B  20     -27.241   0.609   4.998  1.00 13.23 LIG 0.18  C 
ENDROOT
BRANCH 1 2
ATOM      2  N   PHE B  20     -27.710   1.891   5.545  1.00 12.51 LIG-0.35  N 
ATOM      3  C   PHE B  19     -28.133   2.878   4.762  1.00 15.18 LIG 0.24  C 
ATOM      4 O    PHE B  19     -28.364   2.711   3.533  1.00 16.84 LIG-0.27  OA
ATOM      5 H    PHE B  20     -27.684   1.939   6.403  1.00 12.51 LIG 0.16  HD
BRANCH 3 6
ATOM      6  CA  PHE B  19     -28.286   4.230   5.461  1.00 13.80 LIG 0.18  C 
BRANCH 6 7
ATOM      7  N   PHE B  19     -28.818   3.977   6.814  1.00 15.46 LIG-0.35  N 
ATOM      8 H    PHE B  19     -28.233   3.963   7.444  1.00 15.46 LIG 0.16  HD
ATOM      9  C   VAL B  18     -30.149   3.791   6.985  1.00 17.87 LIG 0.24  C 
ATOM     10 O    VAL B  18     -30.966   3.632   5.995  1.00 14.98 LIG-0.27  OA
BRANCH 9 11
ATOM     11  CA  VAL B  18     -30.692   3.776   8.395  1.00 19.74 LIG 0.18  C 
BRANCH 11 12
ATOM     12  N   VAL B  18     -31.613   4.891   8.535  1.00 21.15 LIG-0.35  N 
ATOM     13 H    VAL B  18     -32.433   4.637   8.583  1.00 21.15 LIG 0.16  HD
ATOM     14  C   ACE B  17     -31.249   6.267   8.592  1.00 26.64 LIG 0.21  C 
ATOM     15  CH3 ACE B  17     -32.313   7.363   8.735  1.00 30.92 LIG 0.12  C 
ATOM     16 O    ACE B  17     -30.067   6.489   8.358  1.00 27.10 LIG-0.27  OA
ENDBRANCH 11 12
BRANCH 11 17
ATOM     17  CB  VAL B  18     -31.433   2.475   8.722  1.00 20.98 LIG 0.01  C 
ATOM     18  CG1 VAL B  18     -30.776   1.312   7.990  1.00 20.40 LIG 0.01  C 
ATOM     19  CG2 VAL B  18     -31.294   2.209  10.211  1.00 23.95 LIG 0.01  C 
ENDBRANCH 11 17
ENDBRANCH 9 11
ENDBRANCH 6 7
BRANCH 6 20
ATOM     20  CB  PHE B  19     -26.967   5.028   5.543  1.00 13.70 LIG 0.07  C 
BRANCH 20 21
ATOM     21  CG  PHE B  19     -26.219   4.741   6.799  1.00 13.96 LIG-0.06  A 
ATOM     22  CD2 PHE B  19     -25.145   3.826   6.816  1.00 16.27 LIG 0.01  A 
ATOM     23  CE2 PHE B  19     -24.463   3.543   8.016  1.00 18.04 LIG 0.00  A 
ATOM     24  CZ  PHE B  19     -24.865   4.181   9.198  1.00 16.65 LIG 0.00  A 
ATOM     25  CE1 PHE B  19     -25.964   5.040   9.188  1.00 14.87 LIG 0.00  A 
ATOM     26  CD1 PHE B  19     -26.632   5.335   7.989  1.00 13.97 LIG 0.01  A 
ENDBRANCH 20 21
ENDBRANCH 6 20
ENDBRANCH 3 6
ENDBRANCH 1 2
BRANCH 1 27
ATOM     27  C   PHE B  20     -25.975   0.703   4.138  1.00 13.67 LIG 0.24  C 
ATOM     28  N   ALA B  21     -25.118  -0.305   4.221  1.00 11.86 LIG-0.35  N 
ATOM     29 H    ALA B  21     -25.218  -1.007   4.706  1.00 11.86 LIG 0.16  HD
ATOM     30 O    PHE B  20     -25.842   1.718   3.442  1.00 17.11 LIG-0.27  OA
BRANCH 28 31
ATOM     31  CA  ALA B  21     -23.870  -0.244   3.417  1.00 10.94 LIG 0.17  C 
ATOM     32  CB  ALA B  21     -22.954   0.866   4.016  1.00 11.33 LIG 0.04  C 
BRANCH 31 33
ATOM     33  C   ALA B  21     -23.164  -1.619   3.539  1.00  9.64 LIG 0.24  C 
ATOM     34  N   GLU B  22     -21.822  -1.594   3.702  1.00 10.05 LIG-0.35  N 
ATOM     35 H    GLU B  22     -21.339  -0.882   3.686  1.00 10.05 LIG 0.16  HD
ATOM     36 O    ALA B  21     -23.800  -2.686   3.431  1.00 10.80 LIG-0.27  OA
BRANCH 34 37
ATOM     37  CA  GLU B  22     -21.090  -2.834   3.926  1.00 10.43 LIG 0.18  C 
BRANCH 37 38
ATOM     38  C   GLU B  22     -21.483  -3.958   2.992  1.00 11.07 LIG 0.24  C 
ATOM     39  N   ASP B  23     -21.252  -3.746   1.677  1.00 12.14 LIG-0.34  N 
ATOM     40 H    ASP B  23     -20.918  -3.017   1.365  1.00 12.14 LIG 0.16  HD
ATOM     41 O    GLU B  22     -22.083  -4.946   3.479  1.00 12.27 LIG-0.27  OA
BRANCH 39 42
ATOM     42  CA  ASP B  23     -21.546  -4.732   0.672  1.00 13.57 LIG 0.19  C 
BRANCH 42 43
ATOM     43  C   ASP B  23     -20.484  -5.861   0.579  1.00 15.91 LIG 0.28  C 
ATOM     44  N   NH2 B  24     -19.326  -5.694   1.222  1.00 17.15 LIG-0.11  N 
ATOM     45 O    ASP B  23     -20.745  -6.922   0.040  1.00 19.42 LIG-0.27  OA
ENDBRANCH 42 43
BRANCH 42 46
ATOM     46  CB  ASP B  23     -21.623  -4.020  -0.702  1.00 14.94 LIG 0.15  C 
BRANCH 46 47
ATOM     47  CG  ASP B  23     -22.482  -2.742  -0.655  1.00 15.16 LIG 0.17  C 
ATOM     48 OD1  ASP B  23     -23.699  -2.843  -0.460  1.00 16.89 LIG-0.65  OA
ATOM     49 OD2  ASP B  23     -21.916  -1.707  -1.015  1.00 15.99 LIG-0.65  OA
ENDBRANCH 46 47
ENDBRANCH 42 46
ENDBRANCH 39 42
ENDBRANCH 37 38
BRANCH 37 50
ATOM     50  CB  GLU B  22     -21.187  -3.278   5.458  1.00 10.35 LIG 0.04  C 
BRANCH 50 51
ATOM     51  CG  GLU B  22     -22.216  -2.465   6.256  1.00 11.07 LIG 0.12  C 
BRANCH 51 52
ATOM     52  CD  GLU B  22     -23.372  -3.357   6.687  1.00 10.74 LIG 0.17  C 
ATOM     53 OE2  GLU B  22     -23.182  -4.192   7.610  1.00 11.81 LIG-0.65  OA
ATOM     54 OE1  GLU B  22     -24.450  -3.207   6.113  1.00 10.65 LIG-0.65  OA
ENDBRANCH 51 52
ENDBRANCH 50 51
ENDBRANCH 37 50
ENDBRANCH 34 37
ENDBRANCH 31 33
ENDBRANCH 28 31
ENDBRANCH 1 27
BRANCH 1 55
ATOM     55  CB  PHE B  20     -28.310  -0.039   4.143  1.00 13.46 LIG 0.07  C 
BRANCH 55 56
ATOM     56  CG  PHE B  20     -29.247  -0.916   4.929  1.00 12.78 LIG-0.06  A 
ATOM     57  CD2 PHE B  20     -29.109  -1.041   6.300  1.00 14.51 LIG 0.01  A 
ATOM     58  CE2 PHE B  20     -30.038  -1.776   7.085  1.00 14.84 LIG 0.00  A 
ATOM     59  CZ  PHE B  20     -31.080  -2.465   6.419  1.00 14.03 LIG 0.00  A 
ATOM     60  CE1 PHE B  20     -31.191  -2.347   5.053  1.00 13.64 LIG 0.00  A 
ATOM     61  CD1 PHE B  20     -30.287  -1.578   4.263  1.00 13.32 LIG 0.01  A 
ENDBRANCH 55 56
ENDBRANCH 1 55
TORSDOF 22
ENDMDL
MODEL 2
USER: ADFR SOLUTION from run 174
USER: SCORE 23.118570 LL:  -5.137 LR: -22.085 RR:   0.000 FEB: -15.522
USER: RMSD 2.205179
USER: SEED 173
USER: STATUS 1 or 2 clusters left
USER: GENES 24
USER: genes 0 Translation |==|  0.57486 0.68831 0.57728
USER: genes 1 Rotation |==|  0.59584 0.50710 0.49668 0.99067
USER: genes 2 Torsion [CB]-CA--N-[C] |==|  0.22436
USER: genes 3 Torsion [N]-C--CA-[N] |==|  0.29215
USER: genes 4 Torsion [C]-CA--N-[C] |==|  0.19142
USER: genes 5 Torsion [N]-C--CA-[N] |==|  0.47777
USER: genes 6 Torsion [C]-CA--N-[C] |==|  0.56537
USER: genes 7 Torsion [C]-CA--CB-[CG1] |==|  0.94727
USER: genes 8 Torsion [C]-CA--CB-[CG] |==|  0.47834
USER: genes 9 Torsion [CA]-CB--CG-[CD2] |==|  0.44127
USER: genes 10 Torsion [N]-CA--C-[N] |==|  0.00500
USER: genes 11 Torsion [C]-N--CA-[CB] |==|  0.28333
USER: genes 12 Torsion [N]-CA--C-[N] |==|  0.54635
USER: genes 13 Torsion [C]-N--CA-[CB] |==|  0.81914
USER: genes 14 Torsion [N]-CA--C-[N] |==|  0.54766
USER: genes 15 Torsion [C]-N--CA-[C] |==|  0.85326
USER: genes 16 Torsion [N]-CA--C-[N] |==|  0.92608
USER: genes 17 Torsion [N]-CA--CB-[CG] |==|  0.18578
USER: genes 18 Torsion [CA]-CB--CG-[OD1] |==|  0.19444
USER: genes 19 Torsion [N]-CA--CB-[CG] |==|  0.82684
USER: genes 20 Torsion [CA]-CB--CG-[CD] |==|  0.37045
USER: genes 21 Torsion [CB]-CG--CD-[OE2] |==|  0.02023
USER: genes 22 Torsion [N]-CA--CB-[CG] |==|  0.81280
USER: genes 23 Torsion [CA]-CB--CG-[CD1] |==|  0.83697
ROOT
ATOM      1  CA  PHE B  20     -24.796   3.465   5.684  1.00 13.23 LIG 0.18  C 
ENDROOT
BRANCH 1 2
ATOM      2  N   PHE B  20     -25.809   2.405   5.792  1.00 12.51 LIG-0.35  N 
ATOM      3  C   PHE B  19     -27.061   2.583   5.382  1.00 15.18 LIG 0.24  C 
ATOM      4 O    PHE B  19     -27.407   3.577   4.686  1.00 16.84 LIG-0.27  OA
ATOM      5 H    PHE B  20     -25.519   1.674   6.139  1.00 12.51 LIG 0.16  HD
BRANCH 3 6
ATOM      6  CA  PHE B  19     -28.045   1.509   5.846  1.00 13.80 LIG 0.18  C 
BRANCH 6 7
ATOM      7  N   PHE B  19     -28.870   2.090   6.924  1.00 15.46 LIG-0.35  N 
ATOM      8 H    PHE B  19     -28.734   1.766   7.709  1.00 15.46 LIG 0.16  HD
ATOM      9  C   VAL B  18     -29.763   3.066   6.629  1.00 17.87 LIG 0.24  C 
ATOM     10 O    VAL B  18     -30.070   3.390   5.416  1.00 14.98 LIG-0.27  OA
BRANCH 9 11
ATOM     11  CA  VAL B  18     -30.414   3.806   7.775  1.00 19.74 LIG 0.18  C 
BRANCH 11 12
ATOM     12  N   VAL B  18     -31.172   4.915   7.222  1.00 21.15 LIG-0.35  N 
ATOM     13 H    VAL B  18     -31.393   4.787   6.401  1.00 21.15 LIG 0.16  HD
ATOM     14  C   ACE B  17     -31.534   6.103   7.921  1.00 26.64 LIG 0.21  C 
ATOM     15  CH3 ACE B  17     -32.334   7.216   7.230  1.00 30.92 LIG 0.12  C 
ATOM     16 O    ACE B  17     -31.023   6.216   9.029  1.00 27.10 LIG-0.27  OA
ENDBRANCH 11 12
BRANCH 11 17
ATOM     17  CB  VAL B  18     -31.358   2.912   8.585  1.00 20.98 LIG 0.01  C 
ATOM     18  CG1 VAL B  18     -31.741   1.689   7.762  1.00 20.40 LIG 0.01  C 
ATOM     19  CG2 VAL B  18     -30.611   2.415   9.811  1.00 23.95 LIG 0.01  C 
ENDBRANCH 11 17
ENDBRANCH 9 11
ENDBRANCH 6 7
BRANCH 6 20
ATOM     20  CB  PHE B  19     -28.946   0.973   4.712  1.00 13.70 LIG 0.07  C 
BRANCH 20 21
ATOM     21  CG  PHE B  19     -29.759  -0.196   5.151  1.00 13.96 LIG-0.06  A 
ATOM     22  CD2 PHE B  19     -30.936  -0.565   4.466  1.00 16.27 LIG 0.01  A 
ATOM     23  CE2 PHE B  19     -31.710  -1.656   4.909  1.00 18.04 LIG 0.00  A 
ATOM     24  CZ  PHE B  19     -31.298  -2.374   6.041  1.00 16.65 LIG 0.00  A 
ATOM     25  CE1 PHE B  19     -30.165  -1.970   6.748  1.00 14.87 LIG 0.00  A 
ATOM     26  CD1 PHE B  19     -29.385  -0.893   6.297  1.00 13.97 LIG 0.01  A 
ENDBRANCH 20 21
ENDBRANCH 6 20
ENDBRANCH 3 6
ENDBRANCH 1 2
BRANCH 1 27
ATOM     27  C   PHE B  20     -23.345   2.967   5.687  1.00 13.67 LIG 0.24  C 
ATOM     28  N   ALA B  21     -23.161   1.656   5.748  1.00 11.86 LIG-0.35  N 
ATOM     29 H    ALA B  21     -23.785   1.065   5.776  1.00 11.86 LIG 0.16  HD
ATOM     30 O    PHE B  20     -22.456   3.827   5.646  1.00 17.11 LIG-0.27  OA
BRANCH 28 31
ATOM     31  CA  ALA B  21     -21.770   1.134   5.771  1.00 10.94 LIG 0.17  C 
ATOM     32  CB  ALA B  21     -21.418   0.741   7.237  1.00 11.33 LIG 0.04  C 
BRANCH 31 33
ATOM     33  C   ALA B  21     -21.727  -0.128   4.872  1.00  9.64 LIG 0.24  C 
ATOM     34  N   GLU B  22     -20.660  -0.944   5.031  1.00 10.05 LIG-0.35  N 
ATOM     35 H    GLU B  22     -19.991  -0.781   5.546  1.00 10.05 LIG 0.16  HD
ATOM     36 O    ALA B  21     -22.602  -0.341   4.010  1.00 10.80 LIG-0.27  OA
BRANCH 34 37
ATOM     37  CA  GLU B  22     -20.587  -2.203   4.300  1.00 10.43 LIG 0.18  C 
BRANCH 37 38
ATOM     38  C   GLU B  22     -20.564  -2.041   2.795  1.00 11.07 LIG 0.24  C 
ATOM     39  N   ASP B  23     -20.857  -3.145   2.074  1.00 12.14 LIG-0.34  N 
ATOM     40 H    ASP B  23     -21.032  -3.910   2.426  1.00 12.14 LIG 0.16  HD
ATOM     41 O    GLU B  22     -20.178  -0.942   2.328  1.00 12.27 LIG-0.27  OA
BRANCH 39 42
ATOM     42  CA  ASP B  23     -20.903  -3.139   0.636  1.00 13.57 LIG 0.19  C 
BRANCH 42 43
ATOM     43  C   ASP B  23     -21.821  -2.033   0.048  1.00 15.91 LIG 0.28  C 
ATOM     44  N   NH2 B  24     -22.837  -1.593   0.794  1.00 17.15 LIG-0.11  N 
ATOM     45 O    ASP B  23     -21.549  -1.492  -1.009  1.00 19.42 LIG-0.27  OA
ENDBRANCH 42 43
BRANCH 42 46
ATOM     46  CB  ASP B  23     -21.432  -4.515   0.159  1.00 14.94 LIG 0.15  C 
BRANCH 46 47
ATOM     47  CG  ASP B  23     -22.903  -4.747   0.551  1.00 15.16 LIG 0.17  C 
ATOM     48 OD1  ASP B  23     -23.786  -4.087  -0.011  1.00 16.89 LIG-0.65  OA
ATOM     49 OD2  ASP B  23     -23.084  -5.446   1.552  1.00 15.99 LIG-0.65  OA
ENDBRANCH 46 47
ENDBRANCH 42 46
ENDBRANCH 39 42
ENDBRANCH 37 38
BRANCH 37 50
ATOM     50  CB  GLU B  22     -21.747  -3.196   4.770  1.00 10.35 LIG 0.04  C 
BRANCH 50 51
ATOM     51  CG  GLU B  22     -21.643  -3.586   6.251  1.00 11.07 LIG 0.12  C 
BRANCH 51 52
ATOM     52  CD  GLU B  22     -23.002  -3.462   6.924  1.00 10.74 LIG 0.17  C 
ATOM     53 OE2  GLU B  22     -24.012  -3.217   6.212  1.00 11.81 LIG-0.65  OA
ATOM     54 OE1  GLU B  22     -23.049  -3.620   8.143  1.00 10.65 LIG-0.65  OA
ENDBRANCH 51 52
ENDBRANCH 50 51
ENDBRANCH 37 50
ENDBRANCH 34 37
ENDBRANCH 31 33
ENDBRANCH 28 31
ENDBRANCH 1 27
BRANCH 1 55
ATOM     55  CB  PHE B  20     -24.926   4.457   6.821  1.00 13.46 LIG 0.07  C 
BRANCH 55 56
ATOM     56  CG  PHE B  20     -26.192   5.268   6.758  1.00 12.78 LIG-0.06  A 
ATOM     57  CD2 PHE B  20     -27.078   5.270   7.822  1.00 14.51 LIG 0.01  A 
ATOM     58  CE2 PHE B  20     -28.229   6.103   7.839  1.00 14.84 LIG 0.00  A 
ATOM     59  CZ  PHE B  20     -28.508   6.884   6.693  1.00 14.03 LIG 0.00  A 
ATOM     60  CE1 PHE B  20     -27.628   6.855   5.636  1.00 13.64 LIG 0.00  A 
ATOM     61  CD1 PHE B  20     -26.449   6.052   5.627  1.00 13.32 LIG 0.01  A 
ENDBRANCH 55 56
ENDBRANCH 1 55
TORSDOF 22
ENDMDL
MODEL 3
USER: ADFR SOLUTION from run 99
USER: SCORE 21.792244 LL:  -4.594 LR: -21.538 RR:   0.000 FEB: -14.975
USER: RMSD 6.207524
USER: SEED 98
USER: STATUS no improvement in best in 2 clusters for 5 generations
USER: GENES 24
USER: genes 0 Translation |==|  0.41228 0.53887 0.44560
USER: genes 1 Rotation |==|  0.11695 0.69552 0.74094 0.58359
USER: genes 2 Torsion [CB]-CA--N-[C] |==|  0.28889
USER: genes 3 Torsion [N]-C--CA-[N] |==|  0.36101
USER: genes 4 Torsion [C]-CA--N-[C] |==|  0.74814
USER: genes 5 Torsion [N]-C--CA-[N] |==|  0.41678
USER: genes 6 Torsion [C]-CA--N-[C] |==|  0.70769
USER: genes 7 Torsion [C]-CA--CB-[CG1] |==|  0.50481
USER: genes 8 Torsion [C]-CA--CB-[CG] |==|  0.73070
USER: genes 9 Torsion [CA]-CB--CG-[CD2] |==|  0.79925
USER: genes 10 Torsion [N]-CA--C-[N] |==|  0.99395
USER: genes 11 Torsion [C]-N--CA-[CB] |==|  0.43916
USER: genes 12 Torsion [N]-CA--C-[N] |==|  0.83236
USER: genes 13 Torsion [C]-N--CA-[CB] |==|  0.44339
USER: genes 14 Torsion [N]-CA--C-[N] |==|  0.46964
USER: genes 15 Torsion [C]-N--CA-[C] |==|  0.66410
USER: genes 16 Torsion [N]-CA--C-[N] |==|  0.37716
USER: genes 17 Torsion [N]-CA--CB-[CG] |==|  0.67554
USER: genes 18 Torsion [CA]-CB--CG-[OD1] |==|  0.18248
USER: genes 19 Torsion [N]-CA--CB-[CG] |==|  0.58319
USER: genes 20 Torsion [CA]-CB--CG-[CD] |==|  0.48343
USER: genes 21 Torsion [CB]-CG--CD-[OE2] |==|  0.93973
USER: genes 22 Torsion [N]-CA--CB-[CG] |==|  0.72032
USER: genes 23 Torsion [CA]-CB--CG-[CD1] |==|  0.11856
ROOT
ATOM      1  CA  PHE B  20     -28.332   0.551   3.215  1.00 13.23 LIG 0.18  C 
ENDROOT
BRANCH 1 2
ATOM      2  N   PHE B  20     -28.121   1.905   3.748  1.00 12.51 LIG-0.35  N 
ATOM      3  C   PHE B  19     -27.660   2.114   4.977  1.00 15.18 LIG 0.24  C 
ATOM      4 O    PHE B  19     -27.175   1.187   5.682  1.00 16.84 LIG-0.27  OA
ATOM      5 H    PHE B  20     -28.320   2.535   3.199  1.00 12.51 LIG 0.16  HD
BRANCH 3 6
ATOM      6  CA  PHE B  19     -27.795   3.554   5.475  1.00 13.80 LIG 0.18  C 
BRANCH 6 7
ATOM      7  N   PHE B  19     -28.425   3.511   6.809  1.00 15.46 LIG-0.35  N 
ATOM      8 H    PHE B  19     -27.882   3.443   7.472  1.00 15.46 LIG 0.16  HD
ATOM      9  C   VAL B  18     -29.775   3.579   6.913  1.00 17.87 LIG 0.24  C 
ATOM     10 O    VAL B  18     -30.560   3.489   5.889  1.00 14.98 LIG-0.27  OA
BRANCH 9 11
ATOM     11  CA  VAL B  18     -30.376   3.776   8.285  1.00 19.74 LIG 0.18  C 
BRANCH 11 12
ATOM     12  N   VAL B  18     -31.624   4.504   8.131  1.00 21.15 LIG-0.35  N 
ATOM     13 H    VAL B  18     -32.256   4.011   7.819  1.00 21.15 LIG 0.16  HD
ATOM     14  C   ACE B  17     -31.829   5.877   8.446  1.00 26.64 LIG 0.21  C 
ATOM     15  CH3 ACE B  17     -33.195   6.544   8.235  1.00 30.92 LIG 0.12  C 
ATOM     16 O    ACE B  17     -30.808   6.490   8.735  1.00 27.10 LIG-0.27  OA
ENDBRANCH 11 12
BRANCH 11 17
ATOM     17  CB  VAL B  18     -30.658   2.448   8.995  1.00 20.98 LIG 0.01  C 
ATOM     18  CG1 VAL B  18     -31.300   2.716  10.350  1.00 20.40 LIG 0.01  C 
ATOM     19  CG2 VAL B  18     -31.664   1.668   8.165  1.00 23.95 LIG 0.01  C 
ENDBRANCH 11 17
ENDBRANCH 9 11
ENDBRANCH 6 7
BRANCH 6 20
ATOM     20  CB  PHE B  19     -26.448   4.306   5.543  1.00 13.70 LIG 0.07  C 
BRANCH 20 21
ATOM     21  CG  PHE B  19     -25.866   4.284   6.914  1.00 13.96 LIG-0.06  A 
ATOM     22  CD2 PHE B  19     -26.425   5.052   7.957  1.00 16.27 LIG 0.01  A 
ATOM     23  CE2 PHE B  19     -25.848   5.042   9.242  1.00 18.04 LIG 0.00  A 
ATOM     24  CZ  PHE B  19     -24.708   4.260   9.475  1.00 16.65 LIG 0.00  A 
ATOM     25  CE1 PHE B  19     -24.124   3.548   8.427  1.00 14.87 LIG 0.00  A 
ATOM     26  CD1 PHE B  19     -24.710   3.544   7.151  1.00 13.97 LIG 0.01  A 
ENDBRANCH 20 21
ENDBRANCH 6 20
ENDBRANCH 3 6
ENDBRANCH 1 2
BRANCH 1 27
ATOM     27  C   PHE B  20     -27.807   0.334   1.790  1.00 13.67 LIG 0.24  C 
ATOM     28  N   ALA B  21     -27.269   1.383   1.184  1.00 11.86 LIG-0.35  N 
ATOM     29 H    ALA B  21     -27.181   2.167   1.525  1.00 11.86 LIG 0.16  HD
ATOM     30 O    PHE B  20     -27.936  -0.799   1.310  1.00 17.11 LIG-0.27  OA
BRANCH 28 31
ATOM     31  CA  ALA B  21     -26.764   1.219  -0.204  1.00 10.94 LIG 0.17  C 
ATOM     32  CB  ALA B  21     -26.712   2.624  -0.876  1.00 11.33 LIG 0.04  C 
BRANCH 31 33
ATOM     33  C   ALA B  21     -25.331   0.634  -0.118  1.00  9.64 LIG 0.24  C 
ATOM     34  N   GLU B  22     -24.416   1.378   0.543  1.00 10.05 LIG-0.35  N 
ATOM     35 H    GLU B  22     -24.561   2.164   0.862  1.00 10.05 LIG 0.16  HD
ATOM     36 O    ALA B  21     -25.033  -0.437  -0.681  1.00 10.80 LIG-0.27  OA
BRANCH 34 37
ATOM     37  CA  GLU B  22     -23.070   0.860   0.760  1.00 10.43 LIG 0.18  C 
BRANCH 37 38
ATOM     38  C   GLU B  22     -22.992  -0.227   1.811  1.00 11.07 LIG 0.24  C 
ATOM     39  N   ASP B  23     -21.820  -0.896   1.887  1.00 12.14 LIG-0.34  N 
ATOM     40 H    ASP B  23     -21.151  -0.743   1.368  1.00 12.14 LIG 0.16  HD
ATOM     41 O    GLU B  22     -24.034  -0.500   2.453  1.00 12.27 LIG-0.27  OA
BRANCH 39 42
ATOM     42  CA  ASP B  23     -21.585  -1.936   2.853  1.00 13.57 LIG 0.19  C 
BRANCH 42 43
ATOM     43  C   ASP B  23     -20.386  -1.648   3.797  1.00 15.91 LIG 0.28  C 
ATOM     44  N   NH2 B  24     -20.537  -1.888   5.102  1.00 17.15 LIG-0.11  N 
ATOM     45 O    ASP B  23     -19.299  -1.332   3.347  1.00 19.42 LIG-0.27  OA
ENDBRANCH 42 43
BRANCH 42 46
ATOM     46  CB  ASP B  23     -21.301  -3.255   2.091  1.00 14.94 LIG 0.15  C 
BRANCH 46 47
ATOM     47  CG  ASP B  23     -22.363  -4.335   2.369  1.00 15.16 LIG 0.17  C 
ATOM     48 OD1  ASP B  23     -23.525  -4.150   1.985  1.00 16.89 LIG-0.65  OA
ATOM     49 OD2  ASP B  23     -22.018  -5.235   3.140  1.00 15.99 LIG-0.65  OA
ENDBRANCH 46 47
ENDBRANCH 42 46
ENDBRANCH 39 42
ENDBRANCH 37 38
BRANCH 37 50
ATOM     50  CB  GLU B  22     -22.049   2.051   1.065  1.00 10.35 LIG 0.04  C 
BRANCH 50 51
ATOM     51  CG  GLU B  22     -20.618   1.751   0.596  1.00 11.07 LIG 0.12  C 
BRANCH 51 52
ATOM     52  CD  GLU B  22     -19.736   2.977   0.783  1.00 10.74 LIG 0.17  C 
ATOM     53 OE2  GLU B  22     -20.281   4.110   0.861  1.00 11.81 LIG-0.65  OA
ATOM     54 OE1  GLU B  22     -18.521   2.797   0.860  1.00 10.65 LIG-0.65  OA
ENDBRANCH 51 52
ENDBRANCH 50 51
ENDBRANCH 37 50
ENDBRANCH 34 37
ENDBRANCH 31 33
ENDBRANCH 28 31
ENDBRANCH 1 27
BRANCH 1 55
ATOM     55  CB  PHE B  20     -29.804   0.196   3.202  1.00 13.46 LIG 0.07  C 
BRANCH 55 56
ATOM     56  CG  PHE B  20     -30.212  -0.684   4.353  1.00 12.78 LIG-0.06  A 
ATOM     57  CD2 PHE B  20     -31.035  -1.776   4.144  1.00 14.51 LIG 0.01  A 
ATOM     58  CE2 PHE B  20     -31.354  -2.687   5.188  1.00 14.84 LIG 0.00  A 
ATOM     59  CZ  PHE B  20     -30.877  -2.408   6.490  1.00 14.03 LIG 0.00  A 
ATOM     60  CE1 PHE B  20     -30.075  -1.306   6.684  1.00 13.64 LIG 0.00  A 
ATOM     61  CD1 PHE B  20     -29.717  -0.410   5.635  1.00 13.32 LIG 0.01  A 
ENDBRANCH 55 56
ENDBRANCH 1 55
TORSDOF 22
ENDMDL
MODEL 4
USER: ADFR SOLUTION from run 166
USER: SCORE 22.389293 LL:  -5.393 LR: -21.400 RR:   0.000 FEB: -14.838
USER: RMSD 4.614882
USER: SEED 165
USER: STATUS no improvement in best in 3 clusters for 5 generations
USER: GENES 24
USER: genes 0 Translation |==|  0.49114 0.60972 0.56736
USER: genes 1 Rotation |==|  0.04364 0.56590 0.62834 0.64465
USER: genes 2 Torsion [CB]-CA--N-[C] |==|  0.82778
USER: genes 3 Torsion [N]-C--CA-[N] |==|  0.86961
USER: genes 4 Torsion [C]-CA--N-[C] |==|  0.76544
USER: genes 5 Torsion [N]-C--CA-[N] |==|  0.41783
USER: genes 6 Torsion [C]-CA--N-[C] |==|  0.77633
USER: genes 7 Torsion [C]-CA--CB-[CG1] |==|  0.07433
USER: genes 8 Torsion [C]-CA--CB-[CG] |==|  0.82663
USER: genes 9 Torsion [CA]-CB--CG-[CD2] |==|  0.28118
USER: genes 10 Torsion [N]-CA--C-[N] |==|  0.27974
USER: genes 11 Torsion [C]-N--CA-[CB] |==|  0.30759
USER: genes 12 Torsion [N]-CA--C-[N] |==|  0.11641
USER: genes 13 Torsion [C]-N--CA-[CB] |==|  0.42859
USER: genes 14 Torsion [N]-CA--C-[N] |==|  0.73839
USER: genes 15 Torsion [C]-N--CA-[C] |==|  0.72451
USER: genes 16 Torsion [N]-CA--C-[N] |==|  0.05101
USER: genes 17 Torsion [N]-CA--CB-[CG] |==|  0.12954
USER: genes 18 Torsion [CA]-CB--CG-[OD1] |==|  0.67299
USER: genes 19 Torsion [N]-CA--CB-[CG] |==|  0.66607
USER: genes 20 Torsion [CA]-CB--CG-[CD] |==|  0.39837
USER: genes 21 Torsion [CB]-CG--CD-[OE2] |==|  0.49580
USER: genes 22 Torsion [N]-CA--CB-[CG] |==|  0.80126
USER: genes 23 Torsion [CA]-CB--CG-[CD1] |==|  0.78961
ROOT
ATOM      1  CA  PHE B  20     -26.617   1.933   5.498  1.00 13.23 LIG 0.18  C 
ENDROOT
BRANCH 1 2
ATOM      2  N   PHE B  20     -27.269   3.073   6.158  1.00 12.51 LIG-0.35  N 
ATOM      3  C   PHE B  19     -27.681   4.139   5.478  1.00 15.18 LIG 0.24  C 
ATOM      4 O    PHE B  19     -27.739   4.153   4.218  1.00 16.84 LIG-0.27  OA
ATOM      5 H    PHE B  20     -27.356   2.986   7.008  1.00 12.51 LIG 0.16  HD
BRANCH 3 6
ATOM      6  CA  PHE B  19     -28.047   5.347   6.342  1.00 13.80 LIG 0.18  C 
BRANCH 6 7
ATOM      7  N   PHE B  19     -28.901   4.867   7.446  1.00 15.46 LIG-0.35  N 
ATOM      8 H    PHE B  19     -28.492   4.698   8.183  1.00 15.46 LIG 0.16  HD
ATOM      9  C   VAL B  18     -30.234   4.726   7.246  1.00 17.87 LIG 0.24  C 
ATOM     10 O    VAL B  18     -30.779   4.808   6.076  1.00 14.98 LIG-0.27  OA
BRANCH 9 11
ATOM     11  CA  VAL B  18     -31.112   4.469   8.448  1.00 19.74 LIG 0.18  C 
BRANCH 11 12
ATOM     12  N   VAL B  18     -32.425   5.031   8.178  1.00 21.15 LIG-0.35  N 
ATOM     13 H    VAL B  18     -32.991   4.437   7.922  1.00 21.15 LIG 0.16  HD
ATOM     14  C   ACE B  17     -32.783   6.404   8.306  1.00 26.64 LIG 0.21  C 
ATOM     15  CH3 ACE B  17     -34.204   6.885   7.985  1.00 30.92 LIG 0.12  C 
ATOM     16 O    ACE B  17     -31.841   7.155   8.530  1.00 27.10 LIG-0.27  OA
ENDBRANCH 11 12
BRANCH 11 17
ATOM     17  CB  VAL B  18     -31.264   2.975   8.752  1.00 20.98 LIG 0.01  C 
ATOM     18  CG1 VAL B  18     -30.044   2.220   8.240  1.00 20.40 LIG 0.01  C 
ATOM     19  CG2 VAL B  18     -31.306   2.796  10.260  1.00 23.95 LIG 0.01  C 
ENDBRANCH 11 17
ENDBRANCH 9 11
ENDBRANCH 6 7
BRANCH 6 20
ATOM     20  CB  PHE B  19     -26.817   6.094   6.901  1.00 13.70 LIG 0.07  C 
BRANCH 20 21
ATOM     21  CG  PHE B  19     -26.004   5.231   7.803  1.00 13.96 LIG-0.06  A 
ATOM     22  CD2 PHE B  19     -24.813   4.623   7.353  1.00 16.27 LIG 0.01  A 
ATOM     23  CE2 PHE B  19     -24.068   3.788   8.209  1.00 18.04 LIG 0.00  A 
ATOM     24  CZ  PHE B  19     -24.523   3.566   9.517  1.00 16.65 LIG 0.00  A 
ATOM     25  CE1 PHE B  19     -25.731   4.123   9.938  1.00 14.87 LIG 0.00  A 
ATOM     26  CD1 PHE B  19     -26.464   4.969   9.091  1.00 13.97 LIG 0.01  A 
ENDBRANCH 20 21
ENDBRANCH 6 20
ENDBRANCH 3 6
ENDBRANCH 1 2
BRANCH 1 27
ATOM     27  C   PHE B  20     -25.325   2.279   4.746  1.00 13.67 LIG 0.24  C 
ATOM     28  N   ALA B  21     -24.183   1.999   5.357  1.00 11.86 LIG-0.35  N 
ATOM     29 H    ALA B  21     -24.106   1.633   6.131  1.00 11.86 LIG 0.16  HD
ATOM     30 O    PHE B  20     -25.447   2.805   3.633  1.00 17.11 LIG-0.27  OA
BRANCH 28 31
ATOM     31  CA  ALA B  21     -22.909   2.336   4.670  1.00 10.94 LIG 0.17  C 
ATOM     32  CB  ALA B  21     -22.230   3.506   5.442  1.00 11.33 LIG 0.04  C 
BRANCH 31 33
ATOM     33  C   ALA B  21     -21.999   1.082   4.725  1.00  9.64 LIG 0.24  C 
ATOM     34  N   GLU B  22     -22.599  -0.107   4.492  1.00 10.05 LIG-0.35  N 
ATOM     35 H    GLU B  22     -23.444  -0.215   4.374  1.00 10.05 LIG 0.16  HD
ATOM     36 O    ALA B  21     -20.793   1.169   5.027  1.00 10.80 LIG-0.27  OA
BRANCH 34 37
ATOM     37  CA  GLU B  22     -21.803  -1.327   4.424  1.00 10.43 LIG 0.18  C 
BRANCH 37 38
ATOM     38  C   GLU B  22     -21.083  -1.519   3.107  1.00 11.07 LIG 0.24  C 
ATOM     39  N   ASP B  23     -21.723  -2.271   2.184  1.00 12.14 LIG-0.34  N 
ATOM     40 H    ASP B  23     -22.487  -2.642   2.321  1.00 12.14 LIG 0.16  HD
ATOM     41 O    GLU B  22     -19.917  -1.067   3.003  1.00 12.27 LIG-0.27  OA
BRANCH 39 42
ATOM     42  CA  ASP B  23     -21.177  -2.519   0.876  1.00 13.57 LIG 0.19  C 
BRANCH 42 43
ATOM     43  C   ASP B  23     -21.769  -1.602  -0.228  1.00 15.91 LIG 0.28  C 
ATOM     44  N   NH2 B  24     -22.392  -0.482   0.147  1.00 17.15 LIG-0.11  N 
ATOM     45 O    ASP B  23     -21.564  -1.831  -1.407  1.00 19.42 LIG-0.27  OA
ENDBRANCH 42 43
BRANCH 42 46
ATOM     46  CB  ASP B  23     -21.470  -3.992   0.497  1.00 14.94 LIG 0.15  C 
BRANCH 46 47
ATOM     47  CG  ASP B  23     -22.930  -4.392   0.780  1.00 15.16 LIG 0.17  C 
ATOM     48 OD1  ASP B  23     -23.159  -5.289   1.602  1.00 16.89 LIG-0.65  OA
ATOM     49 OD2  ASP B  23     -23.771  -3.918   0.011  1.00 15.99 LIG-0.65  OA
ENDBRANCH 46 47
ENDBRANCH 42 46
ENDBRANCH 39 42
ENDBRANCH 37 38
BRANCH 37 50
ATOM     50  CB  GLU B  22     -22.690  -2.601   4.804  1.00 10.35 LIG 0.04  C 
BRANCH 50 51
ATOM     51  CG  GLU B  22     -22.153  -3.366   6.022  1.00 11.07 LIG 0.12  C 
BRANCH 51 52
ATOM     52  CD  GLU B  22     -23.307  -3.895   6.862  1.00 10.74 LIG 0.17  C 
ATOM     53 OE2  GLU B  22     -23.048  -4.575   7.890  1.00 11.81 LIG-0.65  OA
ATOM     54 OE1  GLU B  22     -24.449  -3.617   6.498  1.00 10.65 LIG-0.65  OA
ENDBRANCH 51 52
ENDBRANCH 50 51
ENDBRANCH 37 50
ENDBRANCH 34 37
ENDBRANCH 31 33
ENDBRANCH 28 31
ENDBRANCH 1 27
BRANCH 1 55
ATOM     55  CB  PHE B  20     -27.548   1.279   4.499  1.00 13.46 LIG 0.07  C 
BRANCH 55 56
ATOM     56  CG  PHE B  20     -28.671   0.515   5.147  1.00 12.78 LIG-0.06  A 
ATOM     57  CD2 PHE B  20     -29.960   1.019   5.140  1.00 14.51 LIG 0.01  A 
ATOM     58  CE2 PHE B  20     -31.060   0.278   5.649  1.00 14.84 LIG 0.00  A 
ATOM     59  CZ  PHE B  20     -30.800  -0.975   6.255  1.00 14.03 LIG 0.00  A 
ATOM     60  CE1 PHE B  20     -29.511  -1.452   6.273  1.00 13.64 LIG 0.00  A 
ATOM     61  CD1 PHE B  20     -28.407  -0.733   5.727  1.00 13.32 LIG 0.01  A 
ENDBRANCH 55 56
ENDBRANCH 1 55
TORSDOF 22
ENDMDL
MODEL 5
USER: ADFR SOLUTION from run 162
USER: SCORE 22.916570 LL:  -4.841 LR: -21.386 RR:   0.000 FEB: -14.824
USER: RMSD 4.978688
USER: SEED 161
USER: STATUS no improvement in best in 1 clusters for 5 generations
USER: GENES 24
USER: genes 0 Translation |==|  0.45141 0.53849 0.53672
USER: genes 1 Rotation |==|  0.08961 0.64023 0.67783 0.67403
USER: genes 2 Torsion [CB]-CA--N-[C] |==|  0.77066
USER: genes 3 Torsion [N]-C--CA-[N] |==|  0.89094
USER: genes 4 Torsion [C]-CA--N-[C] |==|  0.78859
USER: genes 5 Torsion [N]-C--CA-[N] |==|  0.44332
USER: genes 6 Torsion [C]-CA--N-[C] |==|  0.79572
USER: genes 7 Torsion [C]-CA--CB-[CG1] |==|  0.47248
USER: genes 8 Torsion [C]-CA--CB-[CG] |==|  0.17568
USER: genes 9 Torsion [CA]-CB--CG-[CD2] |==|  0.59395
USER: genes 10 Torsion [N]-CA--C-[N] |==|  0.22875
USER: genes 11 Torsion [C]-N--CA-[CB] |==|  0.28776
USER: genes 12 Torsion [N]-CA--C-[N] |==|  0.68994
USER: genes 13 Torsion [C]-N--CA-[CB] |==|  0.86725
USER: genes 14 Torsion [N]-CA--C-[N] |==|  0.73333
USER: genes 15 Torsion [C]-N--CA-[C] |==|  0.75778
USER: genes 16 Torsion [N]-CA--C-[N] |==|  0.96924
USER: genes 17 Torsion [N]-CA--CB-[CG] |==|  0.12287
USER: genes 18 Torsion [CA]-CB--CG-[OD1] |==|  0.79537
USER: genes 19 Torsion [N]-CA--CB-[CG] |==|  0.84180
USER: genes 20 Torsion [CA]-CB--CG-[CD] |==|  0.44798
USER: genes 21 Torsion [CB]-CG--CD-[OE2] |==|  0.29237
USER: genes 22 Torsion [N]-CA--CB-[CG] |==|  0.76936
USER: genes 23 Torsion [CA]-CB--CG-[CD1] |==|  0.85987
ROOT
ATOM      1  CA  PHE B  20     -27.481   0.543   4.924  1.00 13.23 LIG 0.18  C 
ENDROOT
BRANCH 1 2
ATOM      2  N   PHE B  20     -27.579   1.699   5.827  1.00 12.51 LIG-0.35  N 
ATOM      3  C   PHE B  19     -27.448   2.948   5.391  1.00 15.18 LIG 0.24  C 
ATOM      4 O    PHE B  19     -27.447   3.236   4.163  1.00 16.84 LIG-0.27  OA
ATOM      5 H    PHE B  20     -27.727   1.493   6.649  1.00 12.51 LIG 0.16  HD
BRANCH 3 6
ATOM      6  CA  PHE B  19     -27.268   3.995   6.491  1.00 13.80 LIG 0.18  C 
BRANCH 6 7
ATOM      7  N   PHE B  19     -28.157   3.627   7.611  1.00 15.46 LIG-0.35  N 
ATOM      8 H    PHE B  19     -27.768   3.271   8.290  1.00 15.46 LIG 0.16  HD
ATOM      9  C   VAL B  18     -29.488   3.863   7.512  1.00 17.87 LIG 0.24  C 
ATOM     10 O    VAL B  18     -30.054   4.222   6.407  1.00 14.98 LIG-0.27  OA
BRANCH 9 11
ATOM     11  CA  VAL B  18     -30.334   3.703   8.753  1.00 19.74 LIG 0.18  C 
BRANCH 11 12
ATOM     12  N   VAL B  18     -31.567   4.447   8.558  1.00 21.15 LIG-0.35  N 
ATOM     13 H    VAL B  18     -32.242   3.933   8.417  1.00 21.15 LIG 0.16  HD
ATOM     14  C   ACE B  17     -31.695   5.865   8.588  1.00 26.64 LIG 0.21  C 
ATOM     15  CH3 ACE B  17     -33.053   6.543   8.361  1.00 30.92 LIG 0.12  C 
ATOM     16 O    ACE B  17     -30.631   6.470   8.647  1.00 27.10 LIG-0.27  OA
ENDBRANCH 11 12
BRANCH 11 17
ATOM     17  CB  VAL B  18     -30.678   2.238   9.042  1.00 20.98 LIG 0.01  C 
ATOM     18  CG1 VAL B  18     -31.314   2.121  10.421  1.00 20.40 LIG 0.01  C 
ATOM     19  CG2 VAL B  18     -31.712   1.781   8.027  1.00 23.95 LIG 0.01  C 
ENDBRANCH 11 17
ENDBRANCH 9 11
ENDBRANCH 6 7
BRANCH 6 20
ATOM     20  CB  PHE B  19     -25.810   4.121   6.984  1.00 13.70 LIG 0.07  C 
BRANCH 20 21
ATOM     21  CG  PHE B  19     -24.896   4.587   5.904  1.00 13.96 LIG-0.06  A 
ATOM     22  CD2 PHE B  19     -23.559   4.139   5.835  1.00 16.27 LIG 0.01  A 
ATOM     23  CE2 PHE B  19     -22.698   4.609   4.823  1.00 18.04 LIG 0.00  A 
ATOM     24  CZ  PHE B  19     -23.183   5.530   3.883  1.00 16.65 LIG 0.00  A 
ATOM     25  CE1 PHE B  19     -24.487   6.013   3.990  1.00 14.87 LIG 0.00  A 
ATOM     26  CD1 PHE B  19     -25.350   5.532   4.987  1.00 13.97 LIG 0.01  A 
ENDBRANCH 20 21
ENDBRANCH 6 20
ENDBRANCH 3 6
ENDBRANCH 1 2
BRANCH 1 27
ATOM     27  C   PHE B  20     -26.405   0.669   3.837  1.00 13.67 LIG 0.24  C 
ATOM     28  N   ALA B  21     -25.163   0.365   4.186  1.00 11.86 LIG-0.35  N 
ATOM     29 H    ALA B  21     -24.914   0.096   4.964  1.00 11.86 LIG 0.16  HD
ATOM     30 O    PHE B  20     -26.775   1.056   2.722  1.00 17.11 LIG-0.27  OA
BRANCH 28 31
ATOM     31  CA  ALA B  21     -24.088   0.491   3.168  1.00 10.94 LIG 0.17  C 
ATOM     32  CB  ALA B  21     -23.279   1.789   3.466  1.00 11.33 LIG 0.04  C 
BRANCH 31 33
ATOM     33  C   ALA B  21     -23.160  -0.743   3.309  1.00  9.64 LIG 0.24  C 
ATOM     34  N   GLU B  22     -21.911  -0.506   3.770  1.00 10.05 LIG-0.35  N 
ATOM     35 H    GLU B  22     -21.588   0.274   3.932  1.00 10.05 LIG 0.16  HD
ATOM     36 O    ALA B  21     -23.533  -1.879   2.958  1.00 10.80 LIG-0.27  OA
BRANCH 34 37
ATOM     37  CA  GLU B  22     -21.004  -1.618   4.030  1.00 10.43 LIG 0.18  C 
BRANCH 37 38
ATOM     38  C   GLU B  22     -20.349  -2.181   2.786  1.00 11.07 LIG 0.24  C 
ATOM     39  N   ASP B  23     -20.946  -3.263   2.239  1.00 12.14 LIG-0.34  N 
ATOM     40 H    ASP B  23     -21.646  -3.638   2.570  1.00 12.14 LIG 0.16  HD
ATOM     41 O    GLU B  22     -19.260  -1.680   2.418  1.00 12.27 LIG-0.27  OA
BRANCH 39 42
ATOM     42  CA  ASP B  23     -20.456  -3.892   1.041  1.00 13.57 LIG 0.19  C 
BRANCH 42 43
ATOM     43  C   ASP B  23     -21.019  -3.265  -0.264  1.00 15.91 LIG 0.28  C 
ATOM     44  N   NH2 B  24     -22.032  -2.401  -0.164  1.00 17.15 LIG-0.11  N 
ATOM     45 O    ASP B  23     -20.472  -3.457  -1.335  1.00 19.42 LIG-0.27  OA
ENDBRANCH 42 43
BRANCH 42 46
ATOM     46  CB  ASP B  23     -20.857  -5.388   1.076  1.00 14.94 LIG 0.15  C 
BRANCH 46 47
ATOM     47  CG  ASP B  23     -22.315  -5.595   1.530  1.00 15.16 LIG 0.17  C 
ATOM     48 OD1  ASP B  23     -22.602  -5.436   2.723  1.00 16.89 LIG-0.65  OA
ATOM     49 OD2  ASP B  23     -23.066  -6.103   0.693  1.00 15.99 LIG-0.65  OA
ENDBRANCH 46 47
ENDBRANCH 42 46
ENDBRANCH 39 42
ENDBRANCH 37 38
BRANCH 37 50
ATOM     50  CB  GLU B  22     -21.736  -2.756   4.879  1.00 10.35 LIG 0.04  C 
BRANCH 50 51
ATOM     51  CG  GLU B  22     -22.305  -2.243   6.209  1.00 11.07 LIG 0.12  C 
BRANCH 51 52
ATOM     52  CD  GLU B  22     -23.356  -3.207   6.739  1.00 10.74 LIG 0.17  C 
ATOM     53 OE2  GLU B  22     -23.061  -3.954   7.710  1.00 11.81 LIG-0.65  OA
ATOM     54 OE1  GLU B  22     -24.459  -3.202   6.194  1.00 10.65 LIG-0.65  OA
ENDBRANCH 51 52
ENDBRANCH 50 51
ENDBRANCH 37 50
ENDBRANCH 34 37
ENDBRANCH 31 33
ENDBRANCH 28 31
ENDBRANCH 1 27
BRANCH 1 55
ATOM     55  CB  PHE B  20     -28.797   0.294   4.217  1.00 13.46 LIG 0.07  C 
BRANCH 55 56
ATOM     56  CG  PHE B  20     -29.771  -0.504   5.041  1.00 12.78 LIG-0.06  A 
ATOM     57  CD2 PHE B  20     -31.080  -0.081   5.185  1.00 14.51 LIG 0.01  A 
ATOM     58  CE2 PHE B  20     -32.051  -0.863   5.867  1.00 14.84 LIG 0.00  A 
ATOM     59  CZ  PHE B  20     -31.630  -2.065   6.485  1.00 14.03 LIG 0.00  A 
ATOM     60  CE1 PHE B  20     -30.320  -2.461   6.349  1.00 13.64 LIG 0.00  A 
ATOM     61  CD1 PHE B  20     -29.349  -1.702   5.631  1.00 13.32 LIG 0.01  A 
ENDBRANCH 55 56
ENDBRANCH 1 55
TORSDOF 22
ENDMDL
MODEL 6
USER: ADFR SOLUTION from run 172
USER: SCORE 24.582070 LL:  -5.067 LR: -20.817 RR:   0.000 FEB: -14.254
USER: RMSD 4.696640
USER: SEED 171
USER: STATUS searching
USER: GENES 24
USER: genes 0 Translation |==|  0.44190 0.50904 0.54517
USER: genes 1 Rotation |==|  0.08641 0.60220 0.64626 0.71703
USER: genes 2 Torsion [CB]-CA--N-[C] |==|  0.83909
USER: genes 3 Torsion [N]-C--CA-[N] |==|  0.48142
USER: genes 4 Torsion [C]-CA--N-[C] |==|  0.54516
USER: genes 5 Torsion [N]-C--CA-[N] |==|  0.89493
USER: genes 6 Torsion [C]-CA--N-[C] |==|  0.82703
USER: genes 7 Torsion [C]-CA--CB-[CG1] |==|  0.05470
USER: genes 8 Torsion [C]-CA--CB-[CG] |==|  0.89355
USER: genes 9 Torsion [CA]-CB--CG-[CD2] |==|  0.30088
USER: genes 10 Torsion [N]-CA--C-[N] |==|  0.35000
USER: genes 11 Torsion [C]-N--CA-[CB] |==|  0.17880
USER: genes 12 Torsion [N]-CA--C-[N] |==|  0.61553
USER: genes 13 Torsion [C]-N--CA-[CB] |==|  0.76196
USER: genes 14 Torsion [N]-CA--C-[N] |==|  0.17926
USER: genes 15 Torsion [C]-N--CA-[C] |==|  0.79155
USER: genes 16 Torsion [N]-CA--C-[N] |==|  0.96558
USER: genes 17 Torsion [N]-CA--CB-[CG] |==|  0.86715
USER: genes 18 Torsion [CA]-CB--CG-[OD1] |==|  0.80676
USER: genes 19 Torsion [N]-CA--CB-[CG] |==|  0.01944
USER: genes 20 Torsion [CA]-CB--CG-[CD] |==|  0.30676
USER: genes 21 Torsion [CB]-CG--CD-[OE2] |==|  0.20571
USER: genes 22 Torsion [N]-CA--CB-[CG] |==|  0.77267
USER: genes 23 Torsion [CA]-CB--CG-[CD1] |==|  0.49240
ROOT
ATOM      1  CA  PHE B  20     -27.688  -0.031   5.082  1.00 13.23 LIG 0.18  C 
ENDROOT
BRANCH 1 2
ATOM      2  N   PHE B  20     -28.016   0.968   6.109  1.00 12.51 LIG-0.35  N 
ATOM      3  C   PHE B  19     -28.314   2.226   5.799  1.00 15.18 LIG 0.24  C 
ATOM      4 O    PHE B  19     -28.545   2.591   4.614  1.00 16.84 LIG-0.27  OA
ATOM      5 H    PHE B  20     -27.996   0.666   6.914  1.00 12.51 LIG 0.16  HD
BRANCH 3 6
ATOM      6  CA  PHE B  19     -28.322   3.193   6.984  1.00 13.80 LIG 0.18  C 
BRANCH 6 7
ATOM      7  N   PHE B  19     -28.507   4.556   6.451  1.00 15.46 LIG-0.35  N 
ATOM      8 H    PHE B  19     -28.795   4.600   5.641  1.00 15.46 LIG 0.16  HD
ATOM      9  C   VAL B  18     -28.224   5.625   7.235  1.00 17.87 LIG 0.24  C 
ATOM     10 O    VAL B  18     -27.617   5.517   8.371  1.00 14.98 LIG-0.27  OA
BRANCH 9 11
ATOM     11  CA  VAL B  18     -28.648   6.993   6.755  1.00 19.74 LIG 0.18  C 
BRANCH 11 12
ATOM     12  N   VAL B  18     -28.451   7.048   5.316  1.00 21.15 LIG-0.35  N 
ATOM     13 H    VAL B  18     -29.187   7.171   4.888  1.00 21.15 LIG 0.16  HD
ATOM     14  C   ACE B  17     -27.203   6.918   4.643  1.00 26.64 LIG 0.21  C 
ATOM     15  CH3 ACE B  17     -27.117   6.985   3.112  1.00 30.92 LIG 0.12  C 
ATOM     16 O    ACE B  17     -26.267   6.595   5.366  1.00 27.10 LIG-0.27  OA
ENDBRANCH 11 12
BRANCH 11 17
ATOM     17  CB  VAL B  18     -30.117   7.294   7.068  1.00 20.98 LIG 0.01  C 
ATOM     18  CG1 VAL B  18     -30.606   6.370   8.176  1.00 20.40 LIG 0.01  C 
ATOM     19  CG2 VAL B  18     -30.213   8.717   7.591  1.00 23.95 LIG 0.01  C 
ENDBRANCH 11 17
ENDBRANCH 9 11
ENDBRANCH 6 7
BRANCH 6 20
ATOM     20  CB  PHE B  19     -29.414   2.873   8.028  1.00 13.70 LIG 0.07  C 
BRANCH 20 21
ATOM     21  CG  PHE B  19     -30.682   2.422   7.387  1.00 13.96 LIG-0.06  A 
ATOM     22  CD2 PHE B  19     -31.099   1.077   7.462  1.00 16.27 LIG 0.01  A 
ATOM     23  CE2 PHE B  19     -32.286   0.659   6.828  1.00 18.04 LIG 0.00  A 
ATOM     24  CZ  PHE B  19     -33.051   1.596   6.119  1.00 16.65 LIG 0.00  A 
ATOM     25  CE1 PHE B  19     -32.604   2.913   6.000  1.00 14.87 LIG 0.00  A 
ATOM     26  CD1 PHE B  19     -31.431   3.332   6.646  1.00 13.97 LIG 0.01  A 
ENDBRANCH 20 21
ENDBRANCH 6 20
ENDBRANCH 3 6
ENDBRANCH 1 2
BRANCH 1 27
ATOM     27  C   PHE B  20     -26.417   0.271   4.277  1.00 13.67 LIG 0.24  C 
ATOM     28  N   ALA B  21     -25.495  -0.680   4.234  1.00 11.86 LIG-0.35  N 
ATOM     29 H    ALA B  21     -25.554  -1.451   4.611  1.00 11.86 LIG 0.16  HD
ATOM     30 O    PHE B  20     -26.343   1.382   3.739  1.00 17.11 LIG-0.27  OA
BRANCH 28 31
ATOM     31  CA  ALA B  21     -24.241  -0.422   3.480  1.00 10.94 LIG 0.17  C 
ATOM     32  CB  ALA B  21     -23.479   0.743   4.180  1.00 11.33 LIG 0.04  C 
BRANCH 31 33
ATOM     33  C   ALA B  21     -23.383  -1.711   3.537  1.00  9.64 LIG 0.24  C 
ATOM     34  N   GLU B  22     -22.057  -1.543   3.739  1.00 10.05 LIG-0.35  N 
ATOM     35 H    GLU B  22     -21.660  -0.781   3.780  1.00 10.05 LIG 0.16  HD
ATOM     36 O    ALA B  21     -23.888  -2.835   3.345  1.00 10.80 LIG-0.27  OA
BRANCH 34 37
ATOM     37  CA  GLU B  22     -21.190  -2.703   3.907  1.00 10.43 LIG 0.18  C 
BRANCH 37 38
ATOM     38  C   GLU B  22     -21.504  -3.847   2.967  1.00 11.07 LIG 0.24  C 
ATOM     39  N   ASP B  23     -21.319  -3.603   1.651  1.00 12.14 LIG-0.34  N 
ATOM     40 H    ASP B  23     -21.056  -2.845   1.341  1.00 12.14 LIG 0.16  HD
ATOM     41 O    GLU B  22     -22.008  -4.887   3.455  1.00 12.27 LIG-0.27  OA
BRANCH 39 42
ATOM     42  CA  ASP B  23     -21.549  -4.601   0.640  1.00 13.57 LIG 0.19  C 
BRANCH 42 43
ATOM     43  C   ASP B  23     -20.437  -5.683   0.572  1.00 15.91 LIG 0.28  C 
ATOM     44  N   NH2 B  24     -19.299  -5.463   1.235  1.00 17.15 LIG-0.11  N 
ATOM     45 O    ASP B  23     -20.642  -6.757   0.034  1.00 19.42 LIG-0.27  OA
ENDBRANCH 42 43
BRANCH 42 46
ATOM     46  CB  ASP B  23     -21.625  -3.893  -0.736  1.00 14.94 LIG 0.15  C 
BRANCH 46 47
ATOM     47  CG  ASP B  23     -22.551  -2.662  -0.713  1.00 15.16 LIG 0.17  C 
ATOM     48 OD1  ASP B  23     -23.772  -2.830  -0.596  1.00 16.89 LIG-0.65  OA
ATOM     49 OD2  ASP B  23     -22.020  -1.590  -1.014  1.00 15.99 LIG-0.65  OA
ENDBRANCH 46 47
ENDBRANCH 42 46
ENDBRANCH 39 42
ENDBRANCH 37 38
BRANCH 37 50
ATOM     50  CB  GLU B  22     -21.173  -3.179   5.432  1.00 10.35 LIG 0.04  C 
BRANCH 50 51
ATOM     51  CG  GLU B  22     -22.185  -2.427   6.308  1.00 11.07 LIG 0.12  C 
BRANCH 51 52
ATOM     52  CD  GLU B  22     -23.313  -3.360   6.726  1.00 10.74 LIG 0.17  C 
ATOM     53 OE2  GLU B  22     -23.085  -4.232   7.606  1.00 11.81 LIG-0.65  OA
ATOM     54 OE1  GLU B  22     -24.407  -3.207   6.185  1.00 10.65 LIG-0.65  OA
ENDBRANCH 51 52
ENDBRANCH 50 51
ENDBRANCH 37 50
ENDBRANCH 34 37
ENDBRANCH 31 33
ENDBRANCH 28 31
ENDBRANCH 1 27
BRANCH 1 55
ATOM     55  CB  PHE B  20     -28.819  -0.175   4.086  1.00 13.46 LIG 0.07  C 
BRANCH 55 56
ATOM     56  CG  PHE B  20     -29.923  -1.077   4.569  1.00 12.78 LIG-0.06  A 
ATOM     57  CD2 PHE B  20     -29.835  -1.695   5.804  1.00 14.51 LIG 0.01  A 
ATOM     58  CE2 PHE B  20     -30.903  -2.467   6.335  1.00 14.84 LIG 0.00  A 
ATOM     59  CZ  PHE B  20     -32.049  -2.670   5.529  1.00 14.03 LIG 0.00  A 
ATOM     60  CE1 PHE B  20     -32.111  -2.065   4.295  1.00 13.64 LIG 0.00  A 
ATOM     61  CD1 PHE B  20     -31.061  -1.255   3.772  1.00 13.32 LIG 0.01  A 
ENDBRANCH 55 56
ENDBRANCH 1 55
TORSDOF 22
ENDMDL
MODEL 7
USER: ADFR SOLUTION from run 57
USER: SCORE 23.644264 LL:  -5.678 LR: -20.764 RR:   0.000 FEB: -14.202
USER: RMSD 6.703589
USER: SEED 56
USER: STATUS no improvement in best in 2 clusters for 5 generations
USER: GENES 24
USER: genes 0 Translation |==|  0.46161 0.51003 0.48538
USER: genes 1 Rotation |==|  0.19794 0.73790 0.76715 0.67550
USER: genes 2 Torsion [CB]-CA--N-[C] |==|  0.82164
USER: genes 3 Torsion [N]-C--CA-[N] |==|  0.74514
USER: genes 4 Torsion [C]-CA--N-[C] |==|  0.64895
USER: genes 5 Torsion [N]-C--CA-[N] |==|  0.88007
USER: genes 6 Torsion [C]-CA--N-[C] |==|  0.83239
USER: genes 7 Torsion [C]-CA--CB-[CG1] |==|  0.72414
USER: genes 8 Torsion [C]-CA--CB-[CG] |==|  0.36863
USER: genes 9 Torsion [CA]-CB--CG-[CD2] |==|  0.03226
USER: genes 10 Torsion [N]-CA--C-[N] |==|  0.02598
USER: genes 11 Torsion [C]-N--CA-[CB] |==|  0.27103
USER: genes 12 Torsion [N]-CA--C-[N] |==|  0.05985
USER: genes 13 Torsion [C]-N--CA-[CB] |==|  0.20556
USER: genes 14 Torsion [N]-CA--C-[N] |==|  0.04719
USER: genes 15 Torsion [C]-N--CA-[C] |==|  0.67664
USER: genes 16 Torsion [N]-CA--C-[N] |==|  0.05537
USER: genes 17 Torsion [N]-CA--CB-[CG] |==|  0.17313
USER: genes 18 Torsion [CA]-CB--CG-[OD1] |==|  0.40957
USER: genes 19 Torsion [N]-CA--CB-[CG] |==|  0.63071
USER: genes 20 Torsion [CA]-CB--CG-[CD] |==|  0.53095
USER: genes 21 Torsion [CB]-CG--CD-[OE2] |==|  0.83699
USER: genes 22 Torsion [N]-CA--CB-[CG] |==|  0.69186
USER: genes 23 Torsion [CA]-CB--CG-[CD1] |==|  0.67991
ROOT
ATOM      1  CA  PHE B  20     -27.259  -0.011   3.961  1.00 13.23 LIG 0.18  C 
ENDROOT
BRANCH 1 2
ATOM      2  N   PHE B  20     -26.470   0.920   4.781  1.00 12.51 LIG-0.35  N 
ATOM      3  C   PHE B  19     -26.474   2.230   4.559  1.00 15.18 LIG 0.24  C 
ATOM      4 O    PHE B  19     -27.305   2.780   3.786  1.00 16.84 LIG-0.27  OA
ATOM      5 H    PHE B  20     -26.016   0.542   5.405  1.00 12.51 LIG 0.16  HD
BRANCH 3 6
ATOM      6  CA  PHE B  19     -25.376   3.006   5.289  1.00 13.80 LIG 0.18  C 
BRANCH 6 7
ATOM      7  N   PHE B  19     -25.927   3.454   6.583  1.00 15.46 LIG-0.35  N 
ATOM      8 H    PHE B  19     -26.269   2.836   7.072  1.00 15.46 LIG 0.16  HD
ATOM      9  C   VAL B  18     -25.865   4.766   6.917  1.00 17.87 LIG 0.24  C 
ATOM     10 O    VAL B  18     -25.517   5.686   6.078  1.00 14.98 LIG-0.27  OA
BRANCH 9 11
ATOM     11  CA  VAL B  18     -26.212   5.158   8.334  1.00 19.74 LIG 0.18  C 
BRANCH 11 12
ATOM     12  N   VAL B  18     -27.397   4.415   8.731  1.00 21.15 LIG-0.35  N 
ATOM     13 H    VAL B  18     -27.256   3.910   9.412  1.00 21.15 LIG 0.16  HD
ATOM     14  C   ACE B  17     -28.669   4.482   8.095  1.00 26.64 LIG 0.21  C 
ATOM     15  CH3 ACE B  17     -29.852   3.644   8.599  1.00 30.92 LIG 0.12  C 
ATOM     16 O    ACE B  17     -28.682   5.123   7.050  1.00 27.10 LIG-0.27  OA
ENDBRANCH 11 12
BRANCH 11 17
ATOM     17  CB  VAL B  18     -25.079   4.850   9.320  1.00 20.98 LIG 0.01  C 
ATOM     18  CG1 VAL B  18     -25.372   3.543  10.046  1.00 20.40 LIG 0.01  C 
ATOM     19  CG2 VAL B  18     -23.799   4.649   8.527  1.00 23.95 LIG 0.01  C 
ENDBRANCH 11 17
ENDBRANCH 9 11
ENDBRANCH 6 7
BRANCH 6 20
ATOM     20  CB  PHE B  19     -24.089   2.183   5.510  1.00 13.70 LIG 0.07  C 
BRANCH 20 21
ATOM     21  CG  PHE B  19     -22.867   2.945   5.128  1.00 13.96 LIG-0.06  A 
ATOM     22  CD2 PHE B  19     -22.924   4.330   4.862  1.00 16.27 LIG 0.01  A 
ATOM     23  CE2 PHE B  19     -21.766   5.033   4.475  1.00 18.04 LIG 0.00  A 
ATOM     24  CZ  PHE B  19     -20.552   4.341   4.356  1.00 16.65 LIG 0.00  A 
ATOM     25  CE1 PHE B  19     -20.513   2.962   4.564  1.00 14.87 LIG 0.00  A 
ATOM     26  CD1 PHE B  19     -21.663   2.265   4.966  1.00 13.97 LIG 0.01  A 
ENDBRANCH 20 21
ENDBRANCH 6 20
ENDBRANCH 3 6
ENDBRANCH 1 2
BRANCH 1 27
ATOM     27  C   PHE B  20     -26.953   0.040   2.459  1.00 13.67 LIG 0.24  C 
ATOM     28  N   ALA B  21     -25.902   0.757   2.086  1.00 11.86 LIG-0.35  N 
ATOM     29 H    ALA B  21     -25.376   1.185   2.614  1.00 11.86 LIG 0.16  HD
ATOM     30 O    PHE B  20     -27.716  -0.581   1.708  1.00 17.11 LIG-0.27  OA
BRANCH 28 31
ATOM     31  CA  ALA B  21     -25.582   0.847   0.637  1.00 10.94 LIG 0.17  C 
ATOM     32  CB  ALA B  21     -26.174   2.178   0.086  1.00 11.33 LIG 0.04  C 
BRANCH 31 33
ATOM     33  C   ALA B  21     -24.038   0.870   0.498  1.00  9.64 LIG 0.24  C 
ATOM     34  N   GLU B  22     -23.333   0.369   1.537  1.00 10.05 LIG-0.35  N 
ATOM     35 H    GLU B  22     -23.676   0.097   2.277  1.00 10.05 LIG 0.16  HD
ATOM     36 O    ALA B  21     -23.484   1.380  -0.496  1.00 10.80 LIG-0.27  OA
BRANCH 34 37
ATOM     37  CA  GLU B  22     -21.881   0.258   1.450  1.00 10.43 LIG 0.18  C 
BRANCH 37 38
ATOM     38  C   GLU B  22     -21.281  -0.739   2.417  1.00 11.07 LIG 0.24  C 
ATOM     39  N   ASP B  23     -22.140  -1.631   2.960  1.00 12.14 LIG-0.34  N 
ATOM     40 H    ASP B  23     -22.984  -1.639   2.794  1.00 12.14 LIG 0.16  HD
ATOM     41 O    GLU B  22     -20.073  -0.605   2.725  1.00 12.27 LIG-0.27  OA
BRANCH 39 42
ATOM     42  CA  ASP B  23     -21.713  -2.657   3.873  1.00 13.57 LIG 0.19  C 
BRANCH 42 43
ATOM     43  C   ASP B  23     -21.924  -4.098   3.333  1.00 15.91 LIG 0.28  C 
ATOM     44  N   NH2 B  24     -22.067  -4.264   2.015  1.00 17.15 LIG-0.11  N 
ATOM     45 O    ASP B  23     -21.836  -5.062   4.072  1.00 19.42 LIG-0.27  OA
ENDBRANCH 42 43
BRANCH 42 46
ATOM     46  CB  ASP B  23     -22.519  -2.506   5.188  1.00 14.94 LIG 0.15  C 
BRANCH 46 47
ATOM     47  CG  ASP B  23     -24.032  -2.704   4.975  1.00 15.16 LIG 0.17  C 
ATOM     48 OD1  ASP B  23     -24.706  -3.207   5.883  1.00 16.89 LIG-0.65  OA
ATOM     49 OD2  ASP B  23     -24.436  -2.526   3.822  1.00 15.99 LIG-0.65  OA
ENDBRANCH 46 47
ENDBRANCH 42 46
ENDBRANCH 39 42
ENDBRANCH 37 38
BRANCH 37 50
ATOM     50  CB  GLU B  22     -21.197   1.696   1.583  1.00 10.35 LIG 0.04  C 
BRANCH 50 51
ATOM     51  CG  GLU B  22     -20.124   1.953   0.516  1.00 11.07 LIG 0.12  C 
BRANCH 51 52
ATOM     52  CD  GLU B  22     -19.329   3.205   0.860  1.00 10.74 LIG 0.17  C 
ATOM     53 OE2  GLU B  22     -19.942   4.299   0.980  1.00 11.81 LIG-0.65  OA
ATOM     54 OE1  GLU B  22     -18.115   3.082   1.017  1.00 10.65 LIG-0.65  OA
ENDBRANCH 51 52
ENDBRANCH 50 51
ENDBRANCH 37 50
ENDBRANCH 34 37
ENDBRANCH 31 33
ENDBRANCH 28 31
ENDBRANCH 1 27
BRANCH 1 55
ATOM     55  CB  PHE B  20     -28.742   0.249   4.119  1.00 13.46 LIG 0.07  C 
BRANCH 55 56
ATOM     56  CG  PHE B  20     -29.462  -0.851   4.852  1.00 12.78 LIG-0.06  A 
ATOM     57  CD2 PHE B  20     -29.200  -1.092   6.190  1.00 14.51 LIG 0.01  A 
ATOM     58  CE2 PHE B  20     -29.935  -2.051   6.938  1.00 14.84 LIG 0.00  A 
ATOM     59  CZ  PHE B  20     -30.901  -2.832   6.261  1.00 14.03 LIG 0.00  A 
ATOM     60  CE1 PHE B  20     -31.136  -2.593   4.927  1.00 13.64 LIG 0.00  A 
ATOM     61  CD1 PHE B  20     -30.431  -1.605   4.178  1.00 13.32 LIG 0.01  A 
ENDBRANCH 55 56
ENDBRANCH 1 55
TORSDOF 22
ENDMDL
