MODEL 1
USER: ADFR SOLUTION from run 200
USER: SCORE 19.429947 LL:  -1.578 LR: -20.120 RR:   0.000 FEB: -12.066
USER: RMSD 5.357446
USER: SEED 199
USER: STATUS searching
USER: GENES 29
USER: genes 0 Translation |==|  0.61377 0.45161 0.47806
USER: genes 1 Rotation |==|  0.45024 0.01327 0.60169 0.51662
USER: genes 2 Torsion [N]-C--CA-[N] |==|  0.37868
USER: genes 3 Torsion [C]-CA--CB-[CG] |==|  0.19961
USER: genes 4 Torsion [CA]-CB--CG-[CD] |==|  0.46272
USER: genes 5 Torsion [CB]-CG--CD-[NE] |==|  0.80580
USER: genes 6 Torsion [CG]-CD--NE-[HE] |==|  0.11289
USER: genes 7 Torsion [C]-CA--N-[C] |==|  0.26045
USER: genes 8 Torsion [N]-C--CA-[N] |==|  0.56870
USER: genes 9 Torsion [C]-CA--N-[C] |==|  0.64003
USER: genes 10 Torsion [N]-C--CA-[N] |==|  0.81154
USER: genes 11 Torsion [C]-CA--CB-[OG] |==|  0.69503
USER: genes 12 Torsion [CA]-CB--OG-[HG] |==|  0.31293
USER: genes 13 Torsion [C]-CA--CB-[CG] |==|  0.48775
USER: genes 14 Torsion [CA]-CB--CG-[CD] |==|  0.28535
USER: genes 15 Torsion [CB]-CG--CD-[CE] |==|  0.51511
USER: genes 16 Torsion [CG]-CD--CE-[NZ] |==|  0.46022
USER: genes 17 Torsion [CD]-CE--NZ-[HZ3] |==|  0.32129
USER: genes 18 Torsion [C]-N--CA-[CB] |==|  0.18839
USER: genes 19 Torsion [N]-CA--C-[N] |==|  0.01835
USER: genes 20 Torsion [C]-N--CA-[CB] |==|  0.85771
USER: genes 21 Torsion [N]-CA--C-[N] |==|  0.38585
USER: genes 22 Torsion [N]-CA--C-[N] |==|  0.30198
USER: genes 23 Torsion [C]-N--CA-[CB] |==|  0.53704
USER: genes 24 Torsion [N]-CA--C-[O] |==|  0.24647
USER: genes 25 Torsion [N]-CA--CB-[CG] |==|  0.68020
USER: genes 26 Torsion [CA]-CB--CG-[CD] |==|  0.06027
USER: genes 27 Torsion [CB]-CG--CD-[NE] |==|  0.74836
USER: genes 28 Torsion [CG]-CD--NE-[HE] |==|  0.01709
ROOT
ATOM      1  C   ARG A  15      42.266  58.799  41.369  1.00 45.62 LIG 0.24  C 
ATOM      2 O    ARG A  15      43.126  58.320  40.616  1.00 41.49 LIG-0.27  OA
ATOM      3  N   ALA A  16      41.515  59.852  41.029  1.00 45.00 LIG-0.35  N 
ATOM      4 H    ALA A  16      40.845  60.135  41.487  1.00 45.00 LIG 0.16  HD
ENDROOT
BRANCH 1 5
ATOM      5  CA  ARG A  15      42.052  58.207  42.762  1.00 46.83 LIG 0.18  C 
BRANCH 5 6
ATOM      6  CB  ARG A  15      43.189  58.696  43.688  1.00 49.57 LIG 0.04  C 
BRANCH 6 7
ATOM      7  CG  ARG A  15      43.125  60.184  44.095  1.00 52.69 LIG 0.02  C 
BRANCH 7 8
ATOM      8  CD  ARG A  15      44.071  60.514  45.251  1.00 53.59 LIG 0.14  C 
BRANCH 8 9
ATOM      9  NE  ARG A  15      43.629  59.923  46.513  1.00 54.25 LIG-0.23  N 
ATOM     10  CZ  ARG A  15      43.675  60.524  47.696  1.00 51.22 LIG 0.67  C 
ATOM     11  NH1 ARG A  15      44.167  61.751  47.824  1.00 49.54 LIG-0.23  N 
ATOM     12  NH2 ARG A  15      43.235  59.886  48.767  1.00 55.83 LIG-0.23  N 
ATOM     13 2HH1 ARG A  15      44.190  62.127  48.597  1.00 49.54 LIG 0.17  HD
ATOM     14 1HH1 ARG A  15      44.463  62.170  47.133  1.00 49.54 LIG 0.17  HD
ATOM     15 2HH2 ARG A  15      43.261  60.269  49.537  1.00 55.83 LIG 0.17  HD
ATOM     16 1HH2 ARG A  15      42.923  59.088  48.694  1.00 55.83 LIG 0.17  HD
ATOM     17 HE   ARG A  15      43.315  59.123  46.486  1.00 54.25 LIG 0.18  HD
ENDBRANCH 8 9
ENDBRANCH 7 8
ENDBRANCH 6 7
ENDBRANCH 5 6
BRANCH 5 18
ATOM     18  N   ARG A  15      42.015  56.738  42.725  1.00 49.13 LIG-0.35  N 
ATOM     19 H    ARG A  15      41.238  56.408  42.556  1.00 49.13 LIG 0.16  HD
ATOM     20  C   LYS A  14      43.104  55.996  42.938  1.00 54.29 LIG 0.24  C 
ATOM     21 O    LYS A  14      44.205  56.489  43.195  1.00 54.85 LIG-0.27  OA
BRANCH 20 22
ATOM     22  CA  LYS A  14      42.964  54.471  42.855  1.00 53.70 LIG 0.18  C 
BRANCH 22 23
ATOM     23  N   LYS A  14      44.036  53.884  43.670  1.00 51.97 LIG-0.35  N 
ATOM     24  C   SER A  13      44.831  52.930  43.179  1.00 54.08 LIG 0.26  C 
ATOM     25 O    SER A  13      44.614  52.354  42.096  1.00 52.27 LIG-0.27  OA
ATOM     26 H    LYS A  14      44.098  54.203  44.466  1.00 51.97 LIG 0.16  HD
BRANCH 24 27
ATOM     27  CA  SER A  13      46.070  52.575  44.007  1.00 61.00 LIG 0.42  C 
ATOM     28  N   SER A  13      47.080  53.642  44.067  1.00 64.04 LIG 0.62  N 
BRANCH 27 29
ATOM     29  CB  SER A  13      45.658  52.143  45.411  1.00 62.15 LIG 0.21  C 
BRANCH 29 30
ATOM     30 OG   SER A  13      46.036  53.123  46.355  1.00 63.97 LIG-0.40  OA
ATOM     31 HG   SER A  13      45.349  53.479  46.680  1.00 63.97 LIG 0.21  HD
ENDBRANCH 29 30
ENDBRANCH 27 29
ENDBRANCH 24 27
ENDBRANCH 22 23
BRANCH 22 32
ATOM     32  CB  LYS A  14      41.577  54.064  43.382  1.00 53.93 LIG 0.04  C 
BRANCH 32 33
ATOM     33  CG  LYS A  14      41.223  52.571  43.273  1.00 52.68 LIG 0.00  C 
BRANCH 33 34
ATOM     34  CD  LYS A  14      41.351  51.847  44.605  1.00 44.05 LIG 0.03  C 
BRANCH 34 35
ATOM     35  CE  LYS A  14      41.126  50.341  44.449  1.00 42.34 LIG 0.23  C 
BRANCH 35 36
ATOM     36  NZ  LYS A  14      41.596  49.595  45.692  1.00 42.55 LIG-0.08  N 
ATOM     37 HZ1  LYS A  14      42.190  48.974  45.459  1.00 42.55 LIG 0.27  HD
ATOM     38 HZ2  LYS A  14      41.974  50.168  46.257  1.00 42.55 LIG 0.27  HD
ATOM     39 HZ3  LYS A  14      40.899  49.206  46.086  1.00 42.55 LIG 0.27  HD
ENDBRANCH 35 36
ENDBRANCH 34 35
ENDBRANCH 33 34
ENDBRANCH 32 33
ENDBRANCH 22 32
ENDBRANCH 20 22
ENDBRANCH 5 18
ENDBRANCH 1 5
BRANCH 3 40
ATOM     40  CA  ALA A  16      41.790  60.616  39.819  1.00 45.18 LIG 0.17  C 
ATOM     41  CB  ALA A  16      41.506  59.788  38.573  1.00 49.83 LIG 0.04  C 
BRANCH 40 42
ATOM     42  C   ALA A  16      40.930  61.887  39.807  1.00 49.79 LIG 0.24  C 
ATOM     43 O    ALA A  16      40.891  62.630  38.818  1.00 50.51 LIG-0.27  OA
ATOM     44  N   ARG A  17      40.233  62.121  40.910  1.00 50.44 LIG-0.35  N 
ATOM     45 H    ARG A  17      40.180  61.563  41.562  1.00 50.44 LIG 0.16  HD
BRANCH 44 46
ATOM     46  CA  ARG A  17      39.488  63.347  41.126  1.00 55.17 LIG 0.18  C 
BRANCH 46 47
ATOM     47  C   ARG A  17      38.288  63.354  40.174  1.00 63.19 LIG 0.24  C 
ATOM     48  N   PRO A  18      37.123  63.796  40.668  1.00 71.41 LIG-0.34  N 
ATOM     49  CD  PRO A  18      36.877  63.876  42.116  1.00 72.83 LIG 0.13  C 
ATOM     50  CA  PRO A  18      35.882  63.979  39.889  1.00 77.88 LIG 0.18  C 
ATOM     51  CG  PRO A  18      35.389  63.688  42.202  1.00 77.48 LIG 0.02  C 
ATOM     52  CB  PRO A  18      34.858  64.363  40.962  1.00 79.41 LIG 0.04  C 
ATOM     53 O    ARG A  17      38.401  62.922  39.024  1.00 63.05 LIG-0.27  OA
BRANCH 50 54
ATOM     54  C   PRO A  18      35.972  65.093  38.842  1.00 78.56 LIG 0.24  C 
ATOM     55 O    PRO A  18      35.974  66.274  39.213  1.00 75.87 LIG-0.27  OA
ATOM     56  N   ALA A  19      36.015  64.703  37.563  1.00 80.14 LIG-0.35  N 
ATOM     57 H    ALA A  19      35.881  63.888  37.323  1.00 80.14 LIG 0.16  HD
BRANCH 56 58
ATOM     58  CA  ALA A  19      36.291  65.604  36.429  1.00 81.44 LIG 0.16  C 
ATOM     59  CB  ALA A  19      35.941  64.911  35.115  1.00 83.90 LIG 0.04  C 
BRANCH 58 60
ATOM     60  C   ALA A  19      35.661  67.000  36.473  1.00 82.06 LIG 0.22  C 
ATOM     61 O    ALA A  19      36.261  67.940  37.021  1.00 84.95 LIG-0.29  OA
ENDBRANCH 58 60
ENDBRANCH 56 58
ENDBRANCH 50 54
ENDBRANCH 46 47
BRANCH 46 62
ATOM     62  CB  ARG A  17      40.435  64.530  40.858  1.00 51.88 LIG 0.04  C 
BRANCH 62 63
ATOM     63  CG  ARG A  17      40.768  65.413  42.027  1.00 49.36 LIG 0.02  C 
BRANCH 63 64
ATOM     64  CD  ARG A  17      40.526  64.651  43.362  1.00 46.57 LIG 0.14  C 
BRANCH 64 65
ATOM     65  NE  ARG A  17      39.159  64.827  43.893  1.00 43.47 LIG-0.23  N 
ATOM     66 HE   ARG A  17      38.595  65.251  43.402  1.00 43.47 LIG 0.18  HD
ATOM     67  CZ  ARG A  17      38.730  64.376  45.078  1.00 44.86 LIG 0.67  C 
ATOM     68  NH2 ARG A  17      37.474  64.616  45.438  1.00 38.62 LIG-0.23  N 
ATOM     69  NH1 ARG A  17      39.548  63.707  45.914  1.00 40.09 LIG-0.23  N 
ATOM     70 1HH2 ARG A  17      36.953  65.053  44.913  1.00 38.62 LIG 0.17  HD
ATOM     71 2HH2 ARG A  17      37.183  64.333  46.196  1.00 38.62 LIG 0.17  HD
ATOM     72 2HH1 ARG A  17      39.253  63.426  46.671  1.00 40.09 LIG 0.17  HD
ATOM     73 1HH1 ARG A  17      40.366  63.560  45.690  1.00 40.09 LIG 0.17  HD
ENDBRANCH 64 65
ENDBRANCH 63 64
ENDBRANCH 62 63
ENDBRANCH 46 62
ENDBRANCH 44 46
ENDBRANCH 40 42
ENDBRANCH 3 40
TORSDOF 27
ENDMDL
MODEL 2
USER: ADFR SOLUTION from run 180
USER: SCORE 19.394533 LL:  -3.067 LR: -19.593 RR:   0.000 FEB: -11.539
USER: RMSD 6.618717
USER: SEED 179
USER: STATUS searching
USER: GENES 29
USER: genes 0 Translation |==|  0.61164 0.44851 0.50054
USER: genes 1 Rotation |==|  0.10909 0.56435 0.61180 0.78381
USER: genes 2 Torsion [N]-C--CA-[N] |==|  0.87808
USER: genes 3 Torsion [C]-CA--CB-[CG] |==|  0.43756
USER: genes 4 Torsion [CA]-CB--CG-[CD] |==|  0.72255
USER: genes 5 Torsion [CB]-CG--CD-[NE] |==|  0.34415
USER: genes 6 Torsion [CG]-CD--NE-[HE] |==|  0.97529
USER: genes 7 Torsion [C]-CA--N-[C] |==|  0.75713
USER: genes 8 Torsion [N]-C--CA-[N] |==|  0.22356
USER: genes 9 Torsion [C]-CA--N-[C] |==|  0.74503
USER: genes 10 Torsion [N]-C--CA-[N] |==|  0.76079
USER: genes 11 Torsion [C]-CA--CB-[OG] |==|  0.39506
USER: genes 12 Torsion [CA]-CB--OG-[HG] |==|  0.65905
USER: genes 13 Torsion [C]-CA--CB-[CG] |==|  0.74791
USER: genes 14 Torsion [CA]-CB--CG-[CD] |==|  0.69886
USER: genes 15 Torsion [CB]-CG--CD-[CE] |==|  0.58841
USER: genes 16 Torsion [CG]-CD--CE-[NZ] |==|  0.63257
USER: genes 17 Torsion [CD]-CE--NZ-[HZ3] |==|  0.51405
USER: genes 18 Torsion [C]-N--CA-[CB] |==|  0.85555
USER: genes 19 Torsion [N]-CA--C-[N] |==|  0.61953
USER: genes 20 Torsion [C]-N--CA-[CB] |==|  0.22282
USER: genes 21 Torsion [N]-CA--C-[N] |==|  0.34744
USER: genes 22 Torsion [N]-CA--C-[N] |==|  0.09255
USER: genes 23 Torsion [C]-N--CA-[CB] |==|  0.36585
USER: genes 24 Torsion [N]-CA--C-[O] |==|  0.53573
USER: genes 25 Torsion [N]-CA--CB-[CG] |==|  0.05358
USER: genes 26 Torsion [CA]-CB--CG-[CD] |==|  0.24736
USER: genes 27 Torsion [CB]-CG--CD-[NE] |==|  0.77766
USER: genes 28 Torsion [CG]-CD--NE-[HE] |==|  0.31730
ROOT
ATOM      1  C   ARG A  15      42.232  58.706  41.824  1.00 45.62 LIG 0.24  C 
ATOM      2 O    ARG A  15      41.228  59.389  42.075  1.00 41.49 LIG-0.27  OA
ATOM      3  N   ALA A  16      42.624  58.432  40.576  1.00 45.00 LIG-0.35  N 
ATOM      4 H    ALA A  16      43.369  58.053  40.376  1.00 45.00 LIG 0.16  HD
ENDROOT
BRANCH 1 5
ATOM      5  CA  ARG A  15      43.059  58.112  42.964  1.00 46.83 LIG 0.18  C 
BRANCH 5 6
ATOM      6  CB  ARG A  15      44.342  58.956  43.139  1.00 49.57 LIG 0.04  C 
BRANCH 6 7
ATOM      7  CG  ARG A  15      45.015  58.868  44.526  1.00 52.69 LIG 0.02  C 
BRANCH 7 8
ATOM      8  CD  ARG A  15      44.674  60.064  45.417  1.00 53.59 LIG 0.14  C 
BRANCH 8 9
ATOM      9  NE  ARG A  15      44.083  59.655  46.689  1.00 54.25 LIG-0.23  N 
ATOM     10  CZ  ARG A  15      43.846  60.463  47.716  1.00 51.22 LIG 0.67  C 
ATOM     11  NH1 ARG A  15      44.164  61.751  47.664  1.00 49.54 LIG-0.23  N 
ATOM     12  NH2 ARG A  15      43.297  59.974  48.815  1.00 55.83 LIG-0.23  N 
ATOM     13 2HH1 ARG A  15      44.004  62.261  48.338  1.00 49.54 LIG 0.17  HD
ATOM     14 1HH1 ARG A  15      44.529  62.075  46.956  1.00 49.54 LIG 0.17  HD
ATOM     15 2HH2 ARG A  15      43.140  60.490  49.484  1.00 55.83 LIG 0.17  HD
ATOM     16 1HH2 ARG A  15      43.096  59.139  48.860  1.00 55.83 LIG 0.17  HD
ATOM     17 HE   ARG A  15      43.872  58.827  46.779  1.00 54.25 LIG 0.18  HD
ENDBRANCH 8 9
ENDBRANCH 7 8
ENDBRANCH 6 7
ENDBRANCH 5 6
BRANCH 5 18
ATOM     18  N   ARG A  15      43.400  56.705  42.708  1.00 49.13 LIG-0.35  N 
ATOM     19 H    ARG A  15      44.158  56.591  42.316  1.00 49.13 LIG 0.16  HD
ATOM     20  C   LYS A  14      42.590  55.704  43.059  1.00 54.29 LIG 0.24  C 
ATOM     21 O    LYS A  14      41.499  55.891  43.605  1.00 54.85 LIG-0.27  OA
BRANCH 20 22
ATOM     22  CA  LYS A  14      43.048  54.270  42.767  1.00 53.70 LIG 0.18  C 
BRANCH 22 23
ATOM     23  N   LYS A  14      43.985  53.881  43.829  1.00 51.97 LIG-0.35  N 
ATOM     24  C   SER A  13      45.299  54.071  43.693  1.00 54.08 LIG 0.26  C 
ATOM     25 O    SER A  13      45.830  54.407  42.618  1.00 52.27 LIG-0.27  OA
ATOM     26 H    LYS A  14      43.617  53.530  44.523  1.00 51.97 LIG 0.16  HD
BRANCH 24 27
ATOM     27  CA  SER A  13      46.156  53.877  44.949  1.00 61.00 LIG 0.42  C 
ATOM     28  N   SER A  13      46.262  55.074  45.795  1.00 64.04 LIG 0.62  N 
BRANCH 27 29
ATOM     29  CB  SER A  13      45.643  52.688  45.756  1.00 62.15 LIG 0.21  C 
BRANCH 29 30
ATOM     30 OG   SER A  13      46.726  51.973  46.313  1.00 63.97 LIG-0.40  OA
ATOM     31 HG   SER A  13      46.694  51.173  46.058  1.00 63.97 LIG 0.21  HD
ENDBRANCH 29 30
ENDBRANCH 27 29
ENDBRANCH 24 27
ENDBRANCH 22 23
BRANCH 22 32
ATOM     32  CB  LYS A  14      41.819  53.345  42.742  1.00 53.93 LIG 0.04  C 
BRANCH 32 33
ATOM     33  CG  LYS A  14      41.435  52.694  44.082  1.00 52.68 LIG 0.00  C 
BRANCH 33 34
ATOM     34  CD  LYS A  14      41.738  51.203  44.110  1.00 44.05 LIG 0.03  C 
BRANCH 34 35
ATOM     35  CE  LYS A  14      40.737  50.444  44.983  1.00 42.34 LIG 0.23  C 
BRANCH 35 36
ATOM     36  NZ  LYS A  14      41.461  49.497  45.933  1.00 42.55 LIG-0.08  N 
ATOM     37 HZ1  LYS A  14      41.993  48.957  45.467  1.00 42.55 LIG 0.27  HD
ATOM     38 HZ2  LYS A  14      41.949  49.969  46.508  1.00 42.55 LIG 0.27  HD
ATOM     39 HZ3  LYS A  14      40.864  49.011  46.381  1.00 42.55 LIG 0.27  HD
ENDBRANCH 35 36
ENDBRANCH 34 35
ENDBRANCH 33 34
ENDBRANCH 32 33
ENDBRANCH 22 32
ENDBRANCH 20 22
ENDBRANCH 5 18
ENDBRANCH 1 5
BRANCH 3 40
ATOM     40  CA  ALA A  16      41.787  58.768  39.431  1.00 45.18 LIG 0.17  C 
ATOM     41  CB  ALA A  16      40.376  58.223  39.606  1.00 49.83 LIG 0.04  C 
BRANCH 40 42
ATOM     42  C   ALA A  16      41.739  60.292  39.259  1.00 49.79 LIG 0.24  C 
ATOM     43 O    ALA A  16      42.760  60.985  39.359  1.00 50.51 LIG-0.27  OA
ATOM     44  N   ARG A  17      40.546  60.805  38.989  1.00 50.44 LIG-0.35  N 
ATOM     45 H    ARG A  17      39.853  60.324  38.824  1.00 50.44 LIG 0.16  HD
BRANCH 44 46
ATOM     46  CA  ARG A  17      40.293  62.233  38.944  1.00 55.17 LIG 0.18  C 
BRANCH 46 47
ATOM     47  C   ARG A  17      38.791  62.459  39.141  1.00 63.19 LIG 0.24  C 
ATOM     48  N   PRO A  18      38.426  63.281  40.136  1.00 71.41 LIG-0.34  N 
ATOM     49  CD  PRO A  18      39.343  63.621  41.235  1.00 72.83 LIG 0.13  C 
ATOM     50  CA  PRO A  18      37.043  63.710  40.423  1.00 77.88 LIG 0.18  C 
ATOM     51  CG  PRO A  18      38.399  63.885  42.373  1.00 77.48 LIG 0.02  C 
ATOM     52  CB  PRO A  18      37.195  64.514  41.718  1.00 79.41 LIG 0.04  C 
ATOM     53 O    ARG A  17      37.971  61.864  38.438  1.00 63.05 LIG-0.27  OA
BRANCH 50 54
ATOM     54  C   PRO A  18      36.437  64.601  39.333  1.00 78.56 LIG 0.24  C 
ATOM     55 O    PRO A  18      35.618  65.473  39.651  1.00 75.87 LIG-0.27  OA
ATOM     56  N   ALA A  19      36.825  64.349  38.078  1.00 80.14 LIG-0.35  N 
ATOM     57 H    ALA A  19      37.291  63.658  37.867  1.00 80.14 LIG 0.16  HD
BRANCH 56 58
ATOM     58  CA  ALA A  19      36.505  65.207  36.922  1.00 81.44 LIG 0.16  C 
ATOM     59  CB  ALA A  19      37.767  65.472  36.105  1.00 83.90 LIG 0.04  C 
BRANCH 58 60
ATOM     60  C   ALA A  19      35.367  64.752  36.003  1.00 82.06 LIG 0.22  C 
ATOM     61 O    ALA A  19      35.204  65.290  34.896  1.00 84.95 LIG-0.29  OA
ENDBRANCH 58 60
ENDBRANCH 56 58
ENDBRANCH 50 54
ENDBRANCH 46 47
BRANCH 46 62
ATOM     62  CB  ARG A  17      40.774  62.756  37.580  1.00 51.88 LIG 0.04  C 
BRANCH 62 63
ATOM     63  CG  ARG A  17      40.945  61.742  36.485  1.00 49.36 LIG 0.02  C 
BRANCH 63 64
ATOM     64  CD  ARG A  17      39.613  61.570  35.699  1.00 46.57 LIG 0.14  C 
BRANCH 64 65
ATOM     65  NE  ARG A  17      38.642  60.694  36.386  1.00 43.47 LIG-0.23  N 
ATOM     66 HE   ARG A  17      37.912  61.053  36.665  1.00 43.47 LIG 0.18  HD
ATOM     67  CZ  ARG A  17      38.809  59.384  36.607  1.00 44.86 LIG 0.67  C 
ATOM     68  NH2 ARG A  17      37.857  58.716  37.250  1.00 38.62 LIG-0.23  N 
ATOM     69  NH1 ARG A  17      39.924  58.740  36.209  1.00 40.09 LIG-0.23  N 
ATOM     70 1HH2 ARG A  17      37.150  59.126  37.516  1.00 38.62 LIG 0.17  HD
ATOM     71 2HH2 ARG A  17      37.949  57.874  37.400  1.00 38.62 LIG 0.17  HD
ATOM     72 2HH1 ARG A  17      40.012  57.898  36.361  1.00 40.09 LIG 0.17  HD
ATOM     73 1HH1 ARG A  17      40.548  59.172  35.803  1.00 40.09 LIG 0.17  HD
ENDBRANCH 64 65
ENDBRANCH 63 64
ENDBRANCH 62 63
ENDBRANCH 46 62
ENDBRANCH 44 46
ENDBRANCH 40 42
ENDBRANCH 3 40
TORSDOF 27
ENDMDL
MODEL 3
USER: ADFR SOLUTION from run 30
USER: SCORE 21.463845 LL:  -3.750 LR: -19.574 RR:   0.000 FEB: -11.520
USER: RMSD 6.859216
USER: SEED 29
USER: STATUS 1 or 2 clusters left
USER: GENES 29
USER: genes 0 Translation |==|  0.64835 0.38854 0.47444
USER: genes 1 Rotation |==|  0.30069 0.93987 0.39292 0.57295
USER: genes 2 Torsion [N]-C--CA-[N] |==|  0.19888
USER: genes 3 Torsion [C]-CA--CB-[CG] |==|  0.60367
USER: genes 4 Torsion [CA]-CB--CG-[CD] |==|  0.55187
USER: genes 5 Torsion [CB]-CG--CD-[NE] |==|  0.35783
USER: genes 6 Torsion [CG]-CD--NE-[HE] |==|  0.16023
USER: genes 7 Torsion [C]-CA--N-[C] |==|  0.70597
USER: genes 8 Torsion [N]-C--CA-[N] |==|  0.20795
USER: genes 9 Torsion [C]-CA--N-[C] |==|  0.72864
USER: genes 10 Torsion [N]-C--CA-[N] |==|  0.34134
USER: genes 11 Torsion [C]-CA--CB-[OG] |==|  0.34941
USER: genes 12 Torsion [CA]-CB--OG-[HG] |==|  0.29794
USER: genes 13 Torsion [C]-CA--CB-[CG] |==|  0.64095
USER: genes 14 Torsion [CA]-CB--CG-[CD] |==|  0.69205
USER: genes 15 Torsion [CB]-CG--CD-[CE] |==|  0.21240
USER: genes 16 Torsion [CG]-CD--CE-[NZ] |==|  0.47867
USER: genes 17 Torsion [CD]-CE--NZ-[HZ3] |==|  0.93269
USER: genes 18 Torsion [C]-N--CA-[CB] |==|  0.49554
USER: genes 19 Torsion [N]-CA--C-[N] |==|  0.43337
USER: genes 20 Torsion [C]-N--CA-[CB] |==|  0.53391
USER: genes 21 Torsion [N]-CA--C-[N] |==|  0.32194
USER: genes 22 Torsion [N]-CA--C-[N] |==|  0.19890
USER: genes 23 Torsion [C]-N--CA-[CB] |==|  0.31801
USER: genes 24 Torsion [N]-CA--C-[O] |==|  0.17248
USER: genes 25 Torsion [N]-CA--CB-[CG] |==|  0.30954
USER: genes 26 Torsion [CA]-CB--CG-[CD] |==|  0.72088
USER: genes 27 Torsion [CB]-CG--CD-[NE] |==|  0.24094
USER: genes 28 Torsion [CG]-CD--NE-[HE] |==|  0.18231
ROOT
ATOM      1  C   ARG A  15      42.811  56.907  41.296  1.00 45.62 LIG 0.24  C 
ATOM      2 O    ARG A  15      43.742  57.452  40.685  1.00 41.49 LIG-0.27  OA
ATOM      3  N   ALA A  16      41.594  56.750  40.765  1.00 45.00 LIG-0.35  N 
ATOM      4 H    ALA A  16      40.966  56.286  41.125  1.00 45.00 LIG 0.16  HD
ENDROOT
BRANCH 1 5
ATOM      5  CA  ARG A  15      43.019  56.414  42.728  1.00 46.83 LIG 0.18  C 
BRANCH 5 6
ATOM      6  CB  ARG A  15      44.351  56.990  43.260  1.00 49.57 LIG 0.04  C 
BRANCH 6 7
ATOM      7  CG  ARG A  15      45.173  56.045  44.163  1.00 52.69 LIG 0.02  C 
BRANCH 7 8
ATOM      8  CD  ARG A  15      46.206  56.795  45.005  1.00 53.59 LIG 0.14  C 
BRANCH 8 9
ATOM      9  NE  ARG A  15      46.122  56.450  46.422  1.00 54.25 LIG-0.23  N 
ATOM     10  CZ  ARG A  15      45.914  57.314  47.409  1.00 51.22 LIG 0.67  C 
ATOM     11  NH1 ARG A  15      45.785  58.613  47.167  1.00 49.54 LIG-0.23  N 
ATOM     12  NH2 ARG A  15      45.849  56.876  48.654  1.00 55.83 LIG-0.23  N 
ATOM     13 2HH1 ARG A  15      45.651  59.161  47.817  1.00 49.54 LIG 0.17  HD
ATOM     14 1HH1 ARG A  15      45.835  58.908  46.361  1.00 49.54 LIG 0.17  HD
ATOM     15 2HH2 ARG A  15      45.714  57.430  49.299  1.00 55.83 LIG 0.17  HD
ATOM     16 1HH2 ARG A  15      45.940  56.037  48.821  1.00 55.83 LIG 0.17  HD
ATOM     17 HE   ARG A  15      46.214  55.622  46.634  1.00 54.25 LIG 0.18  HD
ENDBRANCH 8 9
ENDBRANCH 7 8
ENDBRANCH 6 7
ENDBRANCH 5 6
BRANCH 5 18
ATOM     18  N   ARG A  15      43.029  54.945  42.797  1.00 49.13 LIG-0.35  N 
ATOM     19 H    ARG A  15      43.748  54.582  42.493  1.00 49.13 LIG 0.16  HD
ATOM     20  C   LYS A  14      42.002  54.253  43.293  1.00 54.29 LIG 0.24  C 
ATOM     21 O    LYS A  14      40.974  54.794  43.709  1.00 54.85 LIG-0.27  OA
BRANCH 20 22
ATOM     22  CA  LYS A  14      42.120  52.725  43.342  1.00 53.70 LIG 0.18  C 
BRANCH 22 23
ATOM     23  N   LYS A  14      43.030  52.387  44.445  1.00 51.97 LIG-0.35  N 
ATOM     24  C   SER A  13      44.320  52.126  44.219  1.00 54.08 LIG 0.26  C 
ATOM     25 O    SER A  13      44.792  51.969  43.077  1.00 52.27 LIG-0.27  OA
ATOM     26 H    LYS A  14      42.664  52.375  45.223  1.00 51.97 LIG 0.16  HD
BRANCH 24 27
ATOM     27  CA  SER A  13      45.231  52.045  45.449  1.00 61.00 LIG 0.42  C 
ATOM     28  N   SER A  13      45.948  50.770  45.584  1.00 64.04 LIG 0.62  N 
BRANCH 27 29
ATOM     29  CB  SER A  13      46.206  53.218  45.458  1.00 62.15 LIG 0.21  C 
BRANCH 29 30
ATOM     30 OG   SER A  13      46.120  53.916  46.683  1.00 63.97 LIG-0.40  OA
ATOM     31 HG   SER A  13      46.804  53.756  47.145  1.00 63.97 LIG 0.21  HD
ENDBRANCH 29 30
ENDBRANCH 27 29
ENDBRANCH 24 27
ENDBRANCH 22 23
BRANCH 22 32
ATOM     32  CB  LYS A  14      40.724  52.119  43.568  1.00 53.93 LIG 0.04  C 
BRANCH 32 33
ATOM     33  CG  LYS A  14      40.607  51.096  44.711  1.00 52.68 LIG 0.00  C 
BRANCH 33 34
ATOM     34  CD  LYS A  14      40.360  49.684  44.201  1.00 44.05 LIG 0.03  C 
BRANCH 34 35
ATOM     35  CE  LYS A  14      41.640  49.057  43.643  1.00 42.34 LIG 0.23  C 
BRANCH 35 36
ATOM     36  NZ  LYS A  14      41.420  47.586  43.313  1.00 42.55 LIG-0.08  N 
ATOM     37 HZ1  LYS A  14      41.224  47.501  42.449  1.00 42.55 LIG 0.27  HD
ATOM     38 HZ2  LYS A  14      42.161  47.127  43.494  1.00 42.55 LIG 0.27  HD
ATOM     39 HZ3  LYS A  14      40.748  47.269  43.803  1.00 42.55 LIG 0.27  HD
ENDBRANCH 35 36
ENDBRANCH 34 35
ENDBRANCH 33 34
ENDBRANCH 32 33
ENDBRANCH 22 32
ENDBRANCH 20 22
ENDBRANCH 5 18
ENDBRANCH 1 5
BRANCH 3 40
ATOM     40  CA  ALA A  16      41.236  57.376  39.498  1.00 45.18 LIG 0.17  C 
ATOM     41  CB  ALA A  16      39.814  57.013  39.092  1.00 49.83 LIG 0.04  C 
BRANCH 40 42
ATOM     42  C   ALA A  16      41.370  58.899  39.621  1.00 49.79 LIG 0.24  C 
ATOM     43 O    ALA A  16      41.310  59.465  40.720  1.00 50.51 LIG-0.27  OA
ATOM     44  N   ARG A  17      41.565  59.555  38.485  1.00 50.44 LIG-0.35  N 
ATOM     45 H    ARG A  17      41.703  59.163  37.732  1.00 50.44 LIG 0.16  HD
BRANCH 44 46
ATOM     46  CA  ARG A  17      41.563  61.003  38.400  1.00 55.17 LIG 0.18  C 
BRANCH 46 47
ATOM     47  C   ARG A  17      40.345  61.527  39.166  1.00 63.19 LIG 0.24  C 
ATOM     48  N   PRO A  18      40.587  62.278  40.250  1.00 71.41 LIG-0.34  N 
ATOM     49  CD  PRO A  18      41.895  62.267  40.923  1.00 72.83 LIG 0.13  C 
ATOM     50  CA  PRO A  18      39.558  62.960  41.061  1.00 77.88 LIG 0.18  C 
ATOM     51  CG  PRO A  18      41.530  62.587  42.344  1.00 77.48 LIG 0.02  C 
ATOM     52  CB  PRO A  18      40.368  63.542  42.223  1.00 79.41 LIG 0.04  C 
ATOM     53 O    ARG A  17      39.204  61.219  38.813  1.00 63.05 LIG-0.27  OA
BRANCH 50 54
ATOM     54  C   PRO A  18      38.841  64.091  40.317  1.00 78.56 LIG 0.24  C 
ATOM     55 O    PRO A  18      39.052  65.264  40.651  1.00 75.87 LIG-0.27  OA
ATOM     56  N   ALA A  19      37.991  63.721  39.353  1.00 80.14 LIG-0.35  N 
ATOM     57 H    ALA A  19      37.762  62.902  39.226  1.00 80.14 LIG 0.16  HD
BRANCH 56 58
ATOM     58  CA  ALA A  19      37.354  64.654  38.405  1.00 81.44 LIG 0.16  C 
ATOM     59  CB  ALA A  19      37.848  64.376  36.988  1.00 83.90 LIG 0.04  C 
BRANCH 58 60
ATOM     60  C   ALA A  19      35.824  64.736  38.423  1.00 82.06 LIG 0.22  C 
ATOM     61 O    ALA A  19      35.230  65.117  39.445  1.00 84.95 LIG-0.29  OA
ENDBRANCH 58 60
ENDBRANCH 56 58
ENDBRANCH 50 54
ENDBRANCH 46 47
BRANCH 46 62
ATOM     62  CB  ARG A  17      41.509  61.389  36.911  1.00 51.88 LIG 0.04  C 
BRANCH 62 63
ATOM     63  CG  ARG A  17      40.244  62.035  36.422  1.00 49.36 LIG 0.02  C 
BRANCH 63 64
ATOM     64  CD  ARG A  17      39.356  60.989  35.687  1.00 46.57 LIG 0.14  C 
BRANCH 64 65
ATOM     65  NE  ARG A  17      38.469  60.238  36.596  1.00 43.47 LIG-0.23  N 
ATOM     66 HE   ARG A  17      37.850  60.678  37.000  1.00 43.47 LIG 0.18  HD
ATOM     67  CZ  ARG A  17      38.552  58.924  36.842  1.00 44.86 LIG 0.67  C 
ATOM     68  NH2 ARG A  17      37.694  58.376  37.696  1.00 38.62 LIG-0.23  N 
ATOM     69  NH1 ARG A  17      39.495  58.158  36.259  1.00 40.09 LIG-0.23  N 
ATOM     70 1HH2 ARG A  17      37.099  58.864  38.079  1.00 38.62 LIG 0.17  HD
ATOM     71 2HH2 ARG A  17      37.734  57.533  37.864  1.00 38.62 LIG 0.17  HD
ATOM     72 2HH1 ARG A  17      39.532  57.316  36.430  1.00 40.09 LIG 0.17  HD
ATOM     73 1HH1 ARG A  17      40.061  58.511  35.715  1.00 40.09 LIG 0.17  HD
ENDBRANCH 64 65
ENDBRANCH 63 64
ENDBRANCH 62 63
ENDBRANCH 46 62
ENDBRANCH 44 46
ENDBRANCH 40 42
ENDBRANCH 3 40
TORSDOF 27
ENDMDL
MODEL 4
USER: ADFR SOLUTION from run 74
USER: SCORE 20.568806 LL:  -2.307 LR: -19.388 RR:   0.000 FEB: -11.334
USER: RMSD 5.900550
USER: SEED 73
USER: STATUS searching
USER: GENES 29
USER: genes 0 Translation |==|  0.63659 0.53328 0.54124
USER: genes 1 Rotation |==|  0.52280 0.04392 0.43623 0.69341
USER: genes 2 Torsion [N]-C--CA-[N] |==|  0.42684
USER: genes 3 Torsion [C]-CA--CB-[CG] |==|  0.40501
USER: genes 4 Torsion [CA]-CB--CG-[CD] |==|  0.68424
USER: genes 5 Torsion [CB]-CG--CD-[NE] |==|  0.32936
USER: genes 6 Torsion [CG]-CD--NE-[HE] |==|  0.11304
USER: genes 7 Torsion [C]-CA--N-[C] |==|  0.78043
USER: genes 8 Torsion [N]-C--CA-[N] |==|  0.35583
USER: genes 9 Torsion [C]-CA--N-[C] |==|  0.74758
USER: genes 10 Torsion [N]-C--CA-[N] |==|  0.40589
USER: genes 11 Torsion [C]-CA--CB-[OG] |==|  0.40324
USER: genes 12 Torsion [CA]-CB--OG-[HG] |==|  0.44077
USER: genes 13 Torsion [C]-CA--CB-[CG] |==|  0.98877
USER: genes 14 Torsion [CA]-CB--CG-[CD] |==|  0.55666
USER: genes 15 Torsion [CB]-CG--CD-[CE] |==|  0.15783
USER: genes 16 Torsion [CG]-CD--CE-[NZ] |==|  0.38960
USER: genes 17 Torsion [CD]-CE--NZ-[HZ3] |==|  0.16990
USER: genes 18 Torsion [C]-N--CA-[CB] |==|  0.84088
USER: genes 19 Torsion [N]-CA--C-[N] |==|  0.29074
USER: genes 20 Torsion [C]-N--CA-[CB] |==|  0.55093
USER: genes 21 Torsion [N]-CA--C-[N] |==|  0.29930
USER: genes 22 Torsion [N]-CA--C-[N] |==|  0.76329
USER: genes 23 Torsion [C]-N--CA-[CB] |==|  0.10798
USER: genes 24 Torsion [N]-CA--C-[O] |==|  0.89297
USER: genes 25 Torsion [N]-CA--CB-[CG] |==|  0.17001
USER: genes 26 Torsion [CA]-CB--CG-[CD] |==|  0.79653
USER: genes 27 Torsion [CB]-CG--CD-[NE] |==|  0.82146
USER: genes 28 Torsion [CG]-CD--NE-[HE] |==|  0.94270
ROOT
ATOM      1  C   ARG A  15      42.625  61.250  42.648  1.00 45.62 LIG 0.24  C 
ATOM      2 O    ARG A  15      42.731  61.606  41.466  1.00 41.49 LIG-0.27  OA
ATOM      3  N   ALA A  16      41.997  61.985  43.570  1.00 45.00 LIG-0.35  N 
ATOM      4 H    ALA A  16      41.820  61.714  44.366  1.00 45.00 LIG 0.16  HD
ENDROOT
BRANCH 1 5
ATOM      5  CA  ARG A  15      43.257  59.936  43.111  1.00 46.83 LIG 0.18  C 
BRANCH 5 6
ATOM      6  CB  ARG A  15      44.660  60.238  43.687  1.00 49.57 LIG 0.04  C 
BRANCH 6 7
ATOM      7  CG  ARG A  15      45.101  59.348  44.869  1.00 52.69 LIG 0.02  C 
BRANCH 7 8
ATOM      8  CD  ARG A  15      45.239  60.136  46.172  1.00 53.59 LIG 0.14  C 
BRANCH 8 9
ATOM      9  NE  ARG A  15      44.328  59.656  47.208  1.00 54.25 LIG-0.23  N 
ATOM     10  CZ  ARG A  15      43.648  60.429  48.047  1.00 51.22 LIG 0.67  C 
ATOM     11  NH1 ARG A  15      43.771  61.751  48.014  1.00 49.54 LIG-0.23  N 
ATOM     12  NH2 ARG A  15      42.845  59.874  48.938  1.00 55.83 LIG-0.23  N 
ATOM     13 2HH1 ARG A  15      43.323  62.238  48.564  1.00 49.54 LIG 0.17  HD
ATOM     14 1HH1 ARG A  15      44.298  62.120  47.443  1.00 49.54 LIG 0.17  HD
ATOM     15 2HH2 ARG A  15      42.401  60.368  49.484  1.00 55.83 LIG 0.17  HD
ATOM     16 1HH2 ARG A  15      42.766  59.018  48.972  1.00 55.83 LIG 0.17  HD
ATOM     17 HE   ARG A  15      44.224  58.805  47.281  1.00 54.25 LIG 0.18  HD
ENDBRANCH 8 9
ENDBRANCH 7 8
ENDBRANCH 6 7
ENDBRANCH 5 6
BRANCH 5 18
ATOM     18  N   ARG A  15      43.350  58.964  42.012  1.00 49.13 LIG-0.35  N 
ATOM     19 H    ARG A  15      44.132  58.904  41.659  1.00 49.13 LIG 0.16  HD
ATOM     20  C   LYS A  14      42.298  58.246  41.611  1.00 54.29 LIG 0.24  C 
ATOM     21 O    LYS A  14      41.181  58.361  42.121  1.00 54.85 LIG-0.27  OA
BRANCH 20 22
ATOM     22  CA  LYS A  14      42.505  57.243  40.471  1.00 53.70 LIG 0.18  C 
BRANCH 22 23
ATOM     23  N   LYS A  14      41.985  55.945  40.924  1.00 51.97 LIG-0.35  N 
ATOM     24  C   SER A  13      42.776  55.064  41.542  1.00 54.08 LIG 0.26  C 
ATOM     25 O    SER A  13      44.013  55.191  41.611  1.00 52.27 LIG-0.27  OA
ATOM     26 H    LYS A  14      41.152  55.814  40.758  1.00 51.97 LIG 0.16  HD
BRANCH 24 27
ATOM     27  CA  SER A  13      42.084  53.867  42.203  1.00 61.00 LIG 0.42  C 
ATOM     28  N   SER A  13      42.865  52.623  42.162  1.00 64.04 LIG 0.62  N 
BRANCH 27 29
ATOM     29  CB  SER A  13      41.691  54.212  43.636  1.00 62.15 LIG 0.21  C 
BRANCH 29 30
ATOM     30 OG   SER A  13      40.475  53.579  43.975  1.00 63.97 LIG-0.40  OA
ATOM     31 HG   SER A  13      40.411  53.523  44.811  1.00 63.97 LIG 0.21  HD
ENDBRANCH 29 30
ENDBRANCH 27 29
ENDBRANCH 24 27
ENDBRANCH 22 23
BRANCH 22 32
ATOM     32  CB  LYS A  14      41.754  57.738  39.223  1.00 53.93 LIG 0.04  C 
BRANCH 32 33
ATOM     33  CG  LYS A  14      40.915  59.015  39.400  1.00 52.68 LIG 0.00  C 
BRANCH 33 34
ATOM     34  CD  LYS A  14      39.846  59.160  38.327  1.00 44.05 LIG 0.03  C 
BRANCH 34 35
ATOM     35  CE  LYS A  14      38.918  57.945  38.292  1.00 42.34 LIG 0.23  C 
BRANCH 35 36
ATOM     36  NZ  LYS A  14      37.474  58.376  38.062  1.00 42.55 LIG-0.08  N 
ATOM     37 HZ1  LYS A  14      36.946  57.659  38.063  1.00 42.55 LIG 0.27  HD
ATOM     38 HZ2  LYS A  14      37.222  58.929  38.712  1.00 42.55 LIG 0.27  HD
ATOM     39 HZ3  LYS A  14      37.410  58.792  37.278  1.00 42.55 LIG 0.27  HD
ENDBRANCH 35 36
ENDBRANCH 34 35
ENDBRANCH 33 34
ENDBRANCH 32 33
ENDBRANCH 22 32
ENDBRANCH 20 22
ENDBRANCH 5 18
ENDBRANCH 1 5
BRANCH 3 40
ATOM     40  CA  ALA A  16      41.553  63.343  43.279  1.00 45.18 LIG 0.17  C 
ATOM     41  CB  ALA A  16      42.719  64.215  42.835  1.00 49.83 LIG 0.04  C 
BRANCH 40 42
ATOM     42  C   ALA A  16      40.481  63.309  42.181  1.00 49.79 LIG 0.24  C 
ATOM     43 O    ALA A  16      40.777  63.102  40.998  1.00 50.51 LIG-0.27  OA
ATOM     44  N   ARG A  17      39.233  63.502  42.588  1.00 50.44 LIG-0.35  N 
ATOM     45 H    ARG A  17      39.010  63.550  43.416  1.00 50.44 LIG 0.16  HD
BRANCH 44 46
ATOM     46  CA  ARG A  17      38.120  63.650  41.670  1.00 55.17 LIG 0.18  C 
BRANCH 46 47
ATOM     47  C   ARG A  17      38.580  64.517  40.494  1.00 63.19 LIG 0.24  C 
ATOM     48  N   PRO A  18      38.766  63.898  39.320  1.00 71.41 LIG-0.34  N 
ATOM     49  CD  PRO A  18      38.937  62.439  39.232  1.00 72.83 LIG 0.13  C 
ATOM     50  CA  PRO A  18      39.105  64.567  38.048  1.00 77.88 LIG 0.18  C 
ATOM     51  CG  PRO A  18      39.793  62.286  38.008  1.00 77.48 LIG 0.02  C 
ATOM     52  CB  PRO A  18      39.330  63.392  37.091  1.00 79.41 LIG 0.04  C 
ATOM     53 O    ARG A  17      38.809  65.718  40.655  1.00 63.05 LIG-0.27  OA
BRANCH 50 54
ATOM     54  C   PRO A  18      37.986  65.463  37.508  1.00 78.56 LIG 0.24  C 
ATOM     55 O    PRO A  18      37.984  66.668  37.793  1.00 75.87 LIG-0.27  OA
ATOM     56  N   ALA A  19      37.047  64.859  36.771  1.00 80.14 LIG-0.35  N 
ATOM     57 H    ALA A  19      36.996  64.004  36.695  1.00 80.14 LIG 0.16  HD
BRANCH 56 58
ATOM     58  CA  ALA A  19      36.002  65.572  36.012  1.00 81.44 LIG 0.16  C 
ATOM     59  CB  ALA A  19      36.586  66.832  35.379  1.00 83.90 LIG 0.04  C 
BRANCH 58 60
ATOM     60  C   ALA A  19      35.224  64.768  34.965  1.00 82.06 LIG 0.22  C 
ATOM     61 O    ALA A  19      35.806  63.924  34.264  1.00 84.95 LIG-0.29  OA
ENDBRANCH 58 60
ENDBRANCH 56 58
ENDBRANCH 50 54
ENDBRANCH 46 47
BRANCH 46 62
ATOM     62  CB  ARG A  17      36.957  64.302  42.439  1.00 51.88 LIG 0.04  C 
BRANCH 62 63
ATOM     63  CG  ARG A  17      37.201  65.672  43.005  1.00 49.36 LIG 0.02  C 
BRANCH 63 64
ATOM     64  CD  ARG A  17      38.143  65.583  44.240  1.00 46.57 LIG 0.14  C 
BRANCH 64 65
ATOM     65  NE  ARG A  17      37.554  64.836  45.369  1.00 43.47 LIG-0.23  N 
ATOM     66 HE   ARG A  17      36.698  64.753  45.385  1.00 43.47 LIG 0.18  HD
ATOM     67  CZ  ARG A  17      38.247  64.277  46.368  1.00 44.86 LIG 0.67  C 
ATOM     68  NH2 ARG A  17      37.586  63.641  47.330  1.00 38.62 LIG-0.23  N 
ATOM     69  NH1 ARG A  17      39.591  64.362  46.426  1.00 40.09 LIG-0.23  N 
ATOM     70 1HH2 ARG A  17      36.729  63.595  47.303  1.00 38.62 LIG 0.17  HD
ATOM     71 2HH2 ARG A  17      38.017  63.276  47.979  1.00 38.62 LIG 0.17  HD
ATOM     72 2HH1 ARG A  17      40.018  63.996  47.076  1.00 40.09 LIG 0.17  HD
ATOM     73 1HH1 ARG A  17      40.022  64.784  45.812  1.00 40.09 LIG 0.17  HD
ENDBRANCH 64 65
ENDBRANCH 63 64
ENDBRANCH 62 63
ENDBRANCH 46 62
ENDBRANCH 44 46
ENDBRANCH 40 42
ENDBRANCH 3 40
TORSDOF 27
ENDMDL
MODEL 5
USER: ADFR SOLUTION from run 168
USER: SCORE 20.569864 LL:  -3.211 LR: -19.345 RR:   0.000 FEB: -11.290
USER: RMSD 9.056657
USER: SEED 167
USER: STATUS no improvement in best in 3 clusters for 5 generations
USER: GENES 29
USER: genes 0 Translation |==|  0.65685 0.38481 0.49827
USER: genes 1 Rotation |==|  0.61739 0.02126 0.57783 0.53112
USER: genes 2 Torsion [N]-C--CA-[N] |==|  0.25814
USER: genes 3 Torsion [C]-CA--CB-[CG] |==|  0.36678
USER: genes 4 Torsion [CA]-CB--CG-[CD] |==|  0.33769
USER: genes 5 Torsion [CB]-CG--CD-[NE] |==|  0.58940
USER: genes 6 Torsion [CG]-CD--NE-[HE] |==|  0.35431
USER: genes 7 Torsion [C]-CA--N-[C] |==|  0.74875
USER: genes 8 Torsion [N]-C--CA-[N] |==|  0.21045
USER: genes 9 Torsion [C]-CA--N-[C] |==|  0.65406
USER: genes 10 Torsion [N]-C--CA-[N] |==|  0.42350
USER: genes 11 Torsion [C]-CA--CB-[OG] |==|  0.31379
USER: genes 12 Torsion [CA]-CB--OG-[HG] |==|  0.71309
USER: genes 13 Torsion [C]-CA--CB-[CG] |==|  0.55875
USER: genes 14 Torsion [CA]-CB--CG-[CD] |==|  0.30499
USER: genes 15 Torsion [CB]-CG--CD-[CE] |==|  0.35695
USER: genes 16 Torsion [CG]-CD--CE-[NZ] |==|  0.31721
USER: genes 17 Torsion [CD]-CE--NZ-[HZ3] |==|  0.32671
USER: genes 18 Torsion [C]-N--CA-[CB] |==|  0.83296
USER: genes 19 Torsion [N]-CA--C-[N] |==|  0.14957
USER: genes 20 Torsion [C]-N--CA-[CB] |==|  0.83046
USER: genes 21 Torsion [N]-CA--C-[N] |==|  0.50480
USER: genes 22 Torsion [N]-CA--C-[N] |==|  0.01959
USER: genes 23 Torsion [C]-N--CA-[CB] |==|  0.14827
USER: genes 24 Torsion [N]-CA--C-[O] |==|  0.74855
USER: genes 25 Torsion [N]-CA--CB-[CG] |==|  0.82755
USER: genes 26 Torsion [CA]-CB--CG-[CD] |==|  0.24381
USER: genes 27 Torsion [CB]-CG--CD-[NE] |==|  0.26024
USER: genes 28 Torsion [CG]-CD--NE-[HE] |==|  0.20835
ROOT
ATOM      1  C   ARG A  15      42.944  56.795  41.778  1.00 45.62 LIG 0.24  C 
ATOM      2 O    ARG A  15      43.741  56.975  40.845  1.00 41.49 LIG-0.27  OA
ATOM      3  N   ALA A  16      41.669  57.192  41.724  1.00 45.00 LIG-0.35  N 
ATOM      4 H    ALA A  16      41.075  56.987  42.310  1.00 45.00 LIG 0.16  HD
ENDROOT
BRANCH 1 5
ATOM      5  CA  ARG A  15      43.416  56.127  43.070  1.00 46.83 LIG 0.18  C 
BRANCH 5 6
ATOM      6  CB  ARG A  15      44.885  56.530  43.328  1.00 49.57 LIG 0.04  C 
BRANCH 6 7
ATOM      7  CG  ARG A  15      45.203  57.012  44.760  1.00 52.69 LIG 0.02  C 
BRANCH 7 8
ATOM      8  CD  ARG A  15      46.285  56.165  45.434  1.00 53.59 LIG 0.14  C 
BRANCH 8 9
ATOM      9  NE  ARG A  15      46.090  56.066  46.878  1.00 54.25 LIG-0.23  N 
ATOM     10  CZ  ARG A  15      45.928  57.096  47.701  1.00 51.22 LIG 0.67  C 
ATOM     11  NH1 ARG A  15      45.955  58.345  47.250  1.00 49.54 LIG-0.23  N 
ATOM     12  NH2 ARG A  15      45.752  56.876  48.992  1.00 55.83 LIG-0.23  N 
ATOM     13 2HH1 ARG A  15      45.849  59.002  47.796  1.00 49.54 LIG 0.17  HD
ATOM     14 1HH1 ARG A  15      46.078  58.497  46.412  1.00 49.54 LIG 0.17  HD
ATOM     15 2HH2 ARG A  15      45.646  57.538  49.531  1.00 55.83 LIG 0.17  HD
ATOM     16 1HH2 ARG A  15      45.742  56.071  49.294  1.00 55.83 LIG 0.17  HD
ATOM     17 HE   ARG A  15      46.080  55.278  47.223  1.00 54.25 LIG 0.18  HD
ENDBRANCH 8 9
ENDBRANCH 7 8
ENDBRANCH 6 7
ENDBRANCH 5 6
BRANCH 5 18
ATOM     18  N   ARG A  15      43.289  54.664  42.998  1.00 49.13 LIG-0.35  N 
ATOM     19 H    ARG A  15      43.983  54.264  42.684  1.00 49.13 LIG 0.16  HD
ATOM     20  C   LYS A  14      42.183  54.029  43.392  1.00 54.29 LIG 0.24  C 
ATOM     21 O    LYS A  14      41.192  54.624  43.823  1.00 54.85 LIG-0.27  OA
BRANCH 20 22
ATOM     22  CA  LYS A  14      42.159  52.499  43.298  1.00 53.70 LIG 0.18  C 
BRANCH 22 23
ATOM     23  N   LYS A  14      42.970  51.975  44.405  1.00 51.97 LIG-0.35  N 
ATOM     24  C   SER A  13      43.992  51.146  44.179  1.00 54.08 LIG 0.26  C 
ATOM     25 O    SER A  13      44.211  50.623  43.071  1.00 52.27 LIG-0.27  OA
ATOM     26 H    LYS A  14      42.730  52.246  45.186  1.00 51.97 LIG 0.16  HD
BRANCH 24 27
ATOM     27  CA  SER A  13      44.927  50.871  45.362  1.00 61.00 LIG 0.42  C 
ATOM     28  N   SER A  13      45.595  49.563  45.309  1.00 64.04 LIG 0.62  N 
BRANCH 27 29
ATOM     29  CB  SER A  13      45.950  51.995  45.496  1.00 62.15 LIG 0.21  C 
BRANCH 29 30
ATOM     30 OG   SER A  13      45.727  52.718  46.688  1.00 63.97 LIG-0.40  OA
ATOM     31 HG   SER A  13      45.349  53.447  46.508  1.00 63.97 LIG 0.21  HD
ENDBRANCH 29 30
ENDBRANCH 27 29
ENDBRANCH 24 27
ENDBRANCH 22 23
BRANCH 22 32
ATOM     32  CB  LYS A  14      40.703  52.011  43.395  1.00 53.93 LIG 0.04  C 
BRANCH 32 33
ATOM     33  CG  LYS A  14      40.507  50.546  43.822  1.00 52.68 LIG 0.00  C 
BRANCH 33 34
ATOM     34  CD  LYS A  14      39.920  50.423  45.220  1.00 44.05 LIG 0.03  C 
BRANCH 34 35
ATOM     35  CE  LYS A  14      38.695  49.507  45.236  1.00 42.34 LIG 0.23  C 
BRANCH 35 36
ATOM     36  NZ  LYS A  14      38.974  48.249  46.049  1.00 42.55 LIG-0.08  N 
ATOM     37 HZ1  LYS A  14      38.849  47.531  45.538  1.00 42.55 LIG 0.27  HD
ATOM     38 HZ2  LYS A  14      39.815  48.263  46.339  1.00 42.55 LIG 0.27  HD
ATOM     39 HZ3  LYS A  14      38.421  48.217  46.746  1.00 42.55 LIG 0.27  HD
ENDBRANCH 35 36
ENDBRANCH 34 35
ENDBRANCH 33 34
ENDBRANCH 32 33
ENDBRANCH 22 32
ENDBRANCH 20 22
ENDBRANCH 5 18
ENDBRANCH 1 5
BRANCH 3 40
ATOM     40  CA  ALA A  16      41.183  58.025  40.631  1.00 45.18 LIG 0.17  C 
ATOM     41  CB  ALA A  16      41.935  59.348  40.578  1.00 49.83 LIG 0.04  C 
BRANCH 40 42
ATOM     42  C   ALA A  16      41.349  57.278  39.302  1.00 49.79 LIG 0.24  C 
ATOM     43 O    ALA A  16      41.963  57.780  38.352  1.00 50.51 LIG-0.27  OA
ATOM     44  N   ARG A  17      40.807  56.068  39.248  1.00 50.44 LIG-0.35  N 
ATOM     45 H    ARG A  17      40.464  55.675  39.932  1.00 50.44 LIG 0.16  HD
BRANCH 44 46
ATOM     46  CA  ARG A  17      40.740  55.287  38.028  1.00 55.17 LIG 0.18  C 
BRANCH 46 47
ATOM     47  C   ARG A  17      42.170  55.052  37.530  1.00 63.19 LIG 0.24  C 
ATOM     48  N   PRO A  18      42.309  54.373  36.382  1.00 71.41 LIG-0.34  N 
ATOM     49  CD  PRO A  18      41.224  53.539  35.840  1.00 72.83 LIG 0.13  C 
ATOM     50  CA  PRO A  18      43.587  54.133  35.684  1.00 77.88 LIG 0.18  C 
ATOM     51  CG  PRO A  18      41.977  52.484  35.081  1.00 77.48 LIG 0.02  C 
ATOM     52  CB  PRO A  18      43.180  53.209  34.531  1.00 79.41 LIG 0.04  C 
ATOM     53 O    ARG A  17      43.134  55.436  38.195  1.00 63.05 LIG-0.27  OA
BRANCH 50 54
ATOM     54  C   PRO A  18      44.228  55.405  35.121  1.00 78.56 LIG 0.24  C 
ATOM     55 O    PRO A  18      45.248  55.313  34.426  1.00 75.87 LIG-0.27  OA
ATOM     56  N   ALA A  19      43.642  56.561  35.454  1.00 80.14 LIG-0.35  N 
ATOM     57 H    ALA A  19      43.016  56.611  36.041  1.00 80.14 LIG 0.16  HD
BRANCH 56 58
ATOM     58  CA  ALA A  19      43.990  57.867  34.865  1.00 81.44 LIG 0.16  C 
ATOM     59  CB  ALA A  19      43.918  57.789  33.342  1.00 83.90 LIG 0.04  C 
BRANCH 58 60
ATOM     60  C   ALA A  19      43.218  59.092  35.367  1.00 82.06 LIG 0.22  C 
ATOM     61 O    ALA A  19      42.172  59.448  34.800  1.00 84.95 LIG-0.29  OA
ENDBRANCH 58 60
ENDBRANCH 56 58
ENDBRANCH 50 54
ENDBRANCH 46 47
BRANCH 46 62
ATOM     62  CB  ARG A  17      39.904  56.078  37.006  1.00 51.88 LIG 0.04  C 
BRANCH 62 63
ATOM     63  CG  ARG A  17      38.472  56.355  37.369  1.00 49.36 LIG 0.02  C 
BRANCH 63 64
ATOM     64  CD  ARG A  17      38.372  57.677  38.184  1.00 46.57 LIG 0.14  C 
BRANCH 64 65
ATOM     65  NE  ARG A  17      38.091  58.859  37.345  1.00 43.47 LIG-0.23  N 
ATOM     66 HE   ARG A  17      37.290  58.952  37.046  1.00 43.47 LIG 0.18  HD
ATOM     67  CZ  ARG A  17      38.987  59.797  37.012  1.00 44.86 LIG 0.67  C 
ATOM     68  NH2 ARG A  17      38.601  60.804  36.237  1.00 38.62 LIG-0.23  N 
ATOM     69  NH1 ARG A  17      40.266  59.727  37.430  1.00 40.09 LIG-0.23  N 
ATOM     70 1HH2 ARG A  17      37.789  60.846  35.958  1.00 38.62 LIG 0.17  HD
ATOM     71 2HH2 ARG A  17      39.165  61.415  36.014  1.00 38.62 LIG 0.17  HD
ATOM     72 2HH1 ARG A  17      40.826  60.340  37.205  1.00 40.09 LIG 0.17  HD
ATOM     73 1HH1 ARG A  17      40.523  59.070  37.922  1.00 40.09 LIG 0.17  HD
ENDBRANCH 64 65
ENDBRANCH 63 64
ENDBRANCH 62 63
ENDBRANCH 46 62
ENDBRANCH 44 46
ENDBRANCH 40 42
ENDBRANCH 3 40
TORSDOF 27
ENDMDL
MODEL 6
USER: ADFR SOLUTION from run 74
USER: SCORE 20.931879 LL:  -2.630 LR: -19.245 RR:   0.000 FEB: -11.191
USER: RMSD 5.667268
USER: SEED 73
USER: STATUS searching
USER: GENES 29
USER: genes 0 Translation |==|  0.63013 0.53065 0.53549
USER: genes 1 Rotation |==|  0.51477 0.04681 0.44002 0.70199
USER: genes 2 Torsion [N]-C--CA-[N] |==|  0.43678
USER: genes 3 Torsion [C]-CA--CB-[CG] |==|  0.40382
USER: genes 4 Torsion [CA]-CB--CG-[CD] |==|  0.67768
USER: genes 5 Torsion [CB]-CG--CD-[NE] |==|  0.33179
USER: genes 6 Torsion [CG]-CD--NE-[HE] |==|  0.10277
USER: genes 7 Torsion [C]-CA--N-[C] |==|  0.79042
USER: genes 8 Torsion [N]-C--CA-[N] |==|  0.33220
USER: genes 9 Torsion [C]-CA--N-[C] |==|  0.73659
USER: genes 10 Torsion [N]-C--CA-[N] |==|  0.40786
USER: genes 11 Torsion [C]-CA--CB-[OG] |==|  0.33034
USER: genes 12 Torsion [CA]-CB--OG-[HG] |==|  0.43771
USER: genes 13 Torsion [C]-CA--CB-[CG] |==|  0.02210
USER: genes 14 Torsion [CA]-CB--CG-[CD] |==|  0.54541
USER: genes 15 Torsion [CB]-CG--CD-[CE] |==|  0.13126
USER: genes 16 Torsion [CG]-CD--CE-[NZ] |==|  0.40628
USER: genes 17 Torsion [CD]-CE--NZ-[HZ3] |==|  0.17124
USER: genes 18 Torsion [C]-N--CA-[CB] |==|  0.86501
USER: genes 19 Torsion [N]-CA--C-[N] |==|  0.33077
USER: genes 20 Torsion [C]-N--CA-[CB] |==|  0.50000
USER: genes 21 Torsion [N]-CA--C-[N] |==|  0.49362
USER: genes 22 Torsion [N]-CA--C-[N] |==|  0.90767
USER: genes 23 Torsion [C]-N--CA-[CB] |==|  0.14946
USER: genes 24 Torsion [N]-CA--C-[O] |==|  0.90886
USER: genes 25 Torsion [N]-CA--CB-[CG] |==|  0.16660
USER: genes 26 Torsion [CA]-CB--CG-[CD] |==|  0.75087
USER: genes 27 Torsion [CB]-CG--CD-[NE] |==|  0.89258
USER: genes 28 Torsion [CG]-CD--NE-[HE] |==|  0.95955
ROOT
ATOM      1  C   ARG A  15      42.524  61.170  42.532  1.00 45.62 LIG 0.24  C 
ATOM      2 O    ARG A  15      42.589  61.494  41.337  1.00 41.49 LIG-0.27  OA
ATOM      3  N   ALA A  16      41.945  61.942  43.458  1.00 45.00 LIG-0.35  N 
ATOM      4 H    ALA A  16      41.795  61.694  44.267  1.00 45.00 LIG 0.16  HD
ENDROOT
BRANCH 1 5
ATOM      5  CA  ARG A  15      43.150  59.858  43.005  1.00 46.83 LIG 0.18  C 
BRANCH 5 6
ATOM      6  CB  ARG A  15      44.543  60.160  43.600  1.00 49.57 LIG 0.04  C 
BRANCH 6 7
ATOM      7  CG  ARG A  15      44.964  59.278  44.796  1.00 52.69 LIG 0.02  C 
BRANCH 7 8
ATOM      8  CD  ARG A  15      45.139  60.086  46.083  1.00 53.59 LIG 0.14  C 
BRANCH 8 9
ATOM      9  NE  ARG A  15      44.235  59.643  47.141  1.00 54.25 LIG-0.23  N 
ATOM     10  CZ  ARG A  15      43.638  60.440  48.021  1.00 51.22 LIG 0.67  C 
ATOM     11  NH1 ARG A  15      43.849  61.751  48.012  1.00 49.54 LIG-0.23  N 
ATOM     12  NH2 ARG A  15      42.832  59.918  48.928  1.00 55.83 LIG-0.23  N 
ATOM     13 2HH1 ARG A  15      43.456  62.254  48.589  1.00 49.54 LIG 0.17  HD
ATOM     14 1HH1 ARG A  15      44.380  62.097  47.430  1.00 49.54 LIG 0.17  HD
ATOM     15 2HH2 ARG A  15      42.441  60.428  49.501  1.00 55.83 LIG 0.17  HD
ATOM     16 1HH2 ARG A  15      42.696  59.069  48.947  1.00 55.83 LIG 0.17  HD
ATOM     17 HE   ARG A  15      44.076  58.800  47.199  1.00 54.25 LIG 0.18  HD
ENDBRANCH 8 9
ENDBRANCH 7 8
ENDBRANCH 6 7
ENDBRANCH 5 6
BRANCH 5 18
ATOM     18  N   ARG A  15      43.259  58.885  41.908  1.00 49.13 LIG-0.35  N 
ATOM     19 H    ARG A  15      44.056  58.790  41.599  1.00 49.13 LIG 0.16  HD
ATOM     20  C   LYS A  14      42.199  58.218  41.445  1.00 54.29 LIG 0.24  C 
ATOM     21 O    LYS A  14      41.062  58.383  41.893  1.00 54.85 LIG-0.27  OA
BRANCH 20 22
ATOM     22  CA  LYS A  14      42.423  57.208  40.313  1.00 53.70 LIG 0.18  C 
BRANCH 22 23
ATOM     23  N   LYS A  14      42.006  55.889  40.808  1.00 51.97 LIG-0.35  N 
ATOM     24  C   SER A  13      42.891  55.040  41.335  1.00 54.08 LIG 0.26  C 
ATOM     25 O    SER A  13      44.123  55.218  41.278  1.00 52.27 LIG-0.27  OA
ATOM     26 H    LYS A  14      41.166  55.724  40.728  1.00 51.97 LIG 0.16  HD
BRANCH 24 27
ATOM     27  CA  SER A  13      42.321  53.813  42.055  1.00 61.00 LIG 0.42  C 
ATOM     28  N   SER A  13      43.153  52.607  41.940  1.00 64.04 LIG 0.62  N 
BRANCH 27 29
ATOM     29  CB  SER A  13      42.048  54.143  43.520  1.00 62.15 LIG 0.21  C 
BRANCH 29 30
ATOM     30 OG   SER A  13      40.674  53.988  43.807  1.00 63.97 LIG-0.40  OA
ATOM     31 HG   SER A  13      40.572  53.866  44.632  1.00 63.97 LIG 0.21  HD
ENDBRANCH 29 30
ENDBRANCH 27 29
ENDBRANCH 24 27
ENDBRANCH 22 23
BRANCH 22 32
ATOM     32  CB  LYS A  14      41.591  57.632  39.090  1.00 53.93 LIG 0.04  C 
BRANCH 32 33
ATOM     33  CG  LYS A  14      40.905  59.006  39.181  1.00 52.68 LIG 0.00  C 
BRANCH 33 34
ATOM     34  CD  LYS A  14      39.809  59.177  38.140  1.00 44.05 LIG 0.03  C 
BRANCH 34 35
ATOM     35  CE  LYS A  14      38.885  57.957  38.094  1.00 42.34 LIG 0.23  C 
BRANCH 35 36
ATOM     36  NZ  LYS A  14      37.457  58.376  37.766  1.00 42.55 LIG-0.08  N 
ATOM     37 HZ1  LYS A  14      36.929  57.659  37.767  1.00 42.55 LIG 0.27  HD
ATOM     38 HZ2  LYS A  14      37.170  58.956  38.377  1.00 42.55 LIG 0.27  HD
ATOM     39 HZ3  LYS A  14      37.436  58.758  36.962  1.00 42.55 LIG 0.27  HD
ENDBRANCH 35 36
ENDBRANCH 34 35
ENDBRANCH 33 34
ENDBRANCH 32 33
ENDBRANCH 22 32
ENDBRANCH 20 22
ENDBRANCH 5 18
ENDBRANCH 1 5
BRANCH 3 40
ATOM     40  CA  ALA A  16      41.515  63.300  43.148  1.00 45.18 LIG 0.17  C 
ATOM     41  CB  ALA A  16      42.618  64.074  42.439  1.00 49.83 LIG 0.04  C 
BRANCH 40 42
ATOM     42  C   ALA A  16      40.262  63.252  42.264  1.00 49.79 LIG 0.24  C 
ATOM     43 O    ALA A  16      40.277  62.706  41.153  1.00 50.51 LIG-0.27  OA
ATOM     44  N   ARG A  17      39.176  63.819  42.772  1.00 50.44 LIG-0.35  N 
ATOM     45 H    ARG A  17      39.131  64.114  43.578  1.00 50.44 LIG 0.16  HD
BRANCH 44 46
ATOM     46  CA  ARG A  17      37.951  63.996  42.015  1.00 55.17 LIG 0.18  C 
BRANCH 46 47
ATOM     47  C   ARG A  17      38.269  64.847  40.781  1.00 63.19 LIG 0.24  C 
ATOM     48  N   PRO A  18      37.261  65.080  39.928  1.00 71.41 LIG-0.34  N 
ATOM     49  CD  PRO A  18      36.045  64.251  39.922  1.00 72.83 LIG 0.13  C 
ATOM     50  CA  PRO A  18      37.334  65.957  38.743  1.00 77.88 LIG 0.18  C 
ATOM     51  CG  PRO A  18      35.599  64.345  38.491  1.00 77.48 LIG 0.02  C 
ATOM     52  CB  PRO A  18      35.971  65.746  38.076  1.00 79.41 LIG 0.04  C 
ATOM     53 O    ARG A  17      39.417  65.248  40.578  1.00 63.05 LIG-0.27  OA
BRANCH 50 54
ATOM     54  C   PRO A  18      37.515  67.439  39.085  1.00 78.56 LIG 0.24  C 
ATOM     55 O    PRO A  18      38.199  68.153  38.340  1.00 75.87 LIG-0.27  OA
ATOM     56  N   ALA A  19      36.931  67.863  40.211  1.00 80.14 LIG-0.35  N 
ATOM     57 H    ALA A  19      36.573  67.325  40.779  1.00 80.14 LIG 0.16  HD
BRANCH 56 58
ATOM     58  CA  ALA A  19      36.831  69.279  40.612  1.00 81.44 LIG 0.16  C 
ATOM     59  CB  ALA A  19      36.192  70.094  39.491  1.00 83.90 LIG 0.04  C 
BRANCH 58 60
ATOM     60  C   ALA A  19      36.139  69.583  41.945  1.00 82.06 LIG 0.22  C 
ATOM     61 O    ALA A  19      35.205  68.868  42.343  1.00 84.95 LIG-0.29  OA
ENDBRANCH 58 60
ENDBRANCH 56 58
ENDBRANCH 50 54
ENDBRANCH 46 47
BRANCH 46 62
ATOM     62  CB  ARG A  17      36.923  64.683  42.931  1.00 51.88 LIG 0.04  C 
BRANCH 62 63
ATOM     63  CG  ARG A  17      37.293  66.035  43.473  1.00 49.36 LIG 0.02  C 
BRANCH 63 64
ATOM     64  CD  ARG A  17      38.046  65.883  44.827  1.00 46.57 LIG 0.14  C 
BRANCH 64 65
ATOM     65  NE  ARG A  17      37.500  64.809  45.679  1.00 43.47 LIG-0.23  N 
ATOM     66 HE   ARG A  17      36.727  64.493  45.473  1.00 43.47 LIG 0.18  HD
ATOM     67  CZ  ARG A  17      38.114  64.287  46.748  1.00 44.86 LIG 0.67  C 
ATOM     68  NH2 ARG A  17      37.501  63.329  47.435  1.00 38.62 LIG-0.23  N 
ATOM     69  NH1 ARG A  17      39.325  64.725  47.147  1.00 40.09 LIG-0.23  N 
ATOM     70 1HH2 ARG A  17      36.724  63.056  47.191  1.00 38.62 LIG 0.17  HD
ATOM     71 2HH2 ARG A  17      37.883  62.983  48.124  1.00 38.62 LIG 0.17  HD
ATOM     72 2HH1 ARG A  17      39.703  64.376  47.836  1.00 40.09 LIG 0.17  HD
ATOM     73 1HH1 ARG A  17      39.720  65.353  46.712  1.00 40.09 LIG 0.17  HD
ENDBRANCH 64 65
ENDBRANCH 63 64
ENDBRANCH 62 63
ENDBRANCH 46 62
ENDBRANCH 44 46
ENDBRANCH 40 42
ENDBRANCH 3 40
TORSDOF 27
ENDMDL
MODEL 7
USER: ADFR SOLUTION from run 101
USER: SCORE 18.987531 LL:  -2.269 LR: -19.235 RR:   0.000 FEB: -11.181
USER: RMSD 5.761272
USER: SEED 100
USER: STATUS no improvement in best in 4 clusters for 5 generations
USER: GENES 29
USER: genes 0 Translation |==|  0.70650 0.53902 0.49317
USER: genes 1 Rotation |==|  0.40418 0.96084 0.55753 0.65855
USER: genes 2 Torsion [N]-C--CA-[N] |==|  0.19498
USER: genes 3 Torsion [C]-CA--CB-[CG] |==|  0.37979
USER: genes 4 Torsion [CA]-CB--CG-[CD] |==|  0.70490
USER: genes 5 Torsion [CB]-CG--CD-[NE] |==|  0.43339
USER: genes 6 Torsion [CG]-CD--NE-[HE] |==|  0.07494
USER: genes 7 Torsion [C]-CA--N-[C] |==|  0.70556
USER: genes 8 Torsion [N]-C--CA-[N] |==|  0.29034
USER: genes 9 Torsion [C]-CA--N-[C] |==|  0.81630
USER: genes 10 Torsion [N]-C--CA-[N] |==|  0.81161
USER: genes 11 Torsion [C]-CA--CB-[OG] |==|  0.70456
USER: genes 12 Torsion [CA]-CB--OG-[HG] |==|  0.16933
USER: genes 13 Torsion [C]-CA--CB-[CG] |==|  0.60252
USER: genes 14 Torsion [CA]-CB--CG-[CD] |==|  0.62199
USER: genes 15 Torsion [CB]-CG--CD-[CE] |==|  0.86893
USER: genes 16 Torsion [CG]-CD--CE-[NZ] |==|  0.82751
USER: genes 17 Torsion [CD]-CE--NZ-[HZ3] |==|  0.47980
USER: genes 18 Torsion [C]-N--CA-[CB] |==|  0.23637
USER: genes 19 Torsion [N]-CA--C-[N] |==|  0.06844
USER: genes 20 Torsion [C]-N--CA-[CB] |==|  0.86535
USER: genes 21 Torsion [N]-CA--C-[N] |==|  0.48386
USER: genes 22 Torsion [N]-CA--C-[N] |==|  0.27680
USER: genes 23 Torsion [C]-N--CA-[CB] |==|  0.82834
USER: genes 24 Torsion [N]-CA--C-[O] |==|  0.94911
USER: genes 25 Torsion [N]-CA--CB-[CG] |==|  0.84544
USER: genes 26 Torsion [CA]-CB--CG-[CD] |==|  0.68415
USER: genes 27 Torsion [CB]-CG--CD-[NE] |==|  0.16825
USER: genes 28 Torsion [CG]-CD--NE-[HE] |==|  0.74620
ROOT
ATOM      1  C   ARG A  15      43.726  61.422  41.675  1.00 45.62 LIG 0.24  C 
ATOM      2 O    ARG A  15      44.834  61.978  41.674  1.00 41.49 LIG-0.27  OA
ATOM      3  N   ALA A  16      42.628  62.002  41.182  1.00 45.00 LIG-0.35  N 
ATOM      4 H    ALA A  16      41.875  61.600  41.077  1.00 45.00 LIG 0.16  HD
ENDROOT
BRANCH 1 5
ATOM      5  CA  ARG A  15      43.569  60.029  42.286  1.00 46.83 LIG 0.18  C 
BRANCH 5 6
ATOM      6  CB  ARG A  15      44.860  59.679  43.060  1.00 49.57 LIG 0.04  C 
BRANCH 6 7
ATOM      7  CG  ARG A  15      44.654  59.020  44.440  1.00 52.69 LIG 0.02  C 
BRANCH 7 8
ATOM      8  CD  ARG A  15      44.950  59.978  45.595  1.00 53.59 LIG 0.14  C 
BRANCH 8 9
ATOM      9  NE  ARG A  15      44.255  59.598  46.822  1.00 54.25 LIG-0.23  N 
ATOM     10  CZ  ARG A  15      43.898  60.435  47.790  1.00 51.22 LIG 0.67  C 
ATOM     11  NH1 ARG A  15      44.179  61.731  47.714  1.00 49.54 LIG-0.23  N 
ATOM     12  NH2 ARG A  15      43.263  59.969  48.851  1.00 55.83 LIG-0.23  N 
ATOM     13 2HH1 ARG A  15      43.941  62.260  48.350  1.00 49.54 LIG 0.17  HD
ATOM     14 1HH1 ARG A  15      44.600  62.040  47.031  1.00 49.54 LIG 0.17  HD
ATOM     15 2HH2 ARG A  15      43.028  60.505  49.482  1.00 55.83 LIG 0.17  HD
ATOM     16 1HH2 ARG A  15      43.085  59.130  48.912  1.00 55.83 LIG 0.17  HD
ATOM     17 HE   ARG A  15      44.062  58.767  46.927  1.00 54.25 LIG 0.18  HD
ENDBRANCH 8 9
ENDBRANCH 7 8
ENDBRANCH 6 7
ENDBRANCH 5 6
BRANCH 5 18
ATOM     18  N   ARG A  15      43.295  59.015  41.257  1.00 49.13 LIG-0.35  N 
ATOM     19 H    ARG A  15      43.977  58.806  40.777  1.00 49.13 LIG 0.16  HD
ATOM     20  C   LYS A  14      42.083  58.478  41.098  1.00 54.29 LIG 0.24  C 
ATOM     21 O    LYS A  14      41.114  58.805  41.788  1.00 54.85 LIG-0.27  OA
BRANCH 20 22
ATOM     22  CA  LYS A  14      41.907  57.411  40.011  1.00 53.70 LIG 0.18  C 
BRANCH 22 23
ATOM     23  N   LYS A  14      41.827  56.106  40.681  1.00 51.97 LIG-0.35  N 
ATOM     24  C   SER A  13      42.876  55.602  41.334  1.00 54.08 LIG 0.26  C 
ATOM     25 O    SER A  13      44.019  56.094  41.270  1.00 52.27 LIG-0.27  OA
ATOM     26 H    LYS A  14      41.065  55.712  40.612  1.00 51.97 LIG 0.16  HD
BRANCH 24 27
ATOM     27  CA  SER A  13      42.613  54.373  42.212  1.00 61.00 LIG 0.42  C 
ATOM     28  N   SER A  13      41.776  54.642  43.389  1.00 64.04 LIG 0.62  N 
BRANCH 27 29
ATOM     29  CB  SER A  13      42.019  53.246  41.373  1.00 62.15 LIG 0.21  C 
BRANCH 29 30
ATOM     30 OG   SER A  13      40.644  53.097  41.658  1.00 63.97 LIG-0.40  OA
ATOM     31 HG   SER A  13      40.240  53.808  41.468  1.00 63.97 LIG 0.21  HD
ENDBRANCH 29 30
ENDBRANCH 27 29
ENDBRANCH 24 27
ENDBRANCH 22 23
BRANCH 22 32
ATOM     32  CB  LYS A  14      40.622  57.709  39.218  1.00 53.93 LIG 0.04  C 
BRANCH 32 33
ATOM     33  CG  LYS A  14      39.806  56.485  38.767  1.00 52.68 LIG 0.00  C 
BRANCH 33 34
ATOM     34  CD  LYS A  14      39.327  56.607  37.328  1.00 44.05 LIG 0.03  C 
BRANCH 34 35
ATOM     35  CE  LYS A  14      38.703  57.978  37.059  1.00 42.34 LIG 0.23  C 
BRANCH 35 36
ATOM     36  NZ  LYS A  14      37.474  58.192  37.934  1.00 42.55 LIG-0.08  N 
ATOM     37 HZ1  LYS A  14      36.831  57.629  37.686  1.00 42.55 LIG 0.27  HD
ATOM     38 HZ2  LYS A  14      37.686  58.043  38.785  1.00 42.55 LIG 0.27  HD
ATOM     39 HZ3  LYS A  14      37.187  59.030  37.843  1.00 42.55 LIG 0.27  HD
ENDBRANCH 35 36
ENDBRANCH 34 35
ENDBRANCH 33 34
ENDBRANCH 32 33
ENDBRANCH 22 32
ENDBRANCH 20 22
ENDBRANCH 5 18
ENDBRANCH 1 5
BRANCH 3 40
ATOM     40  CA  ALA A  16      42.630  63.402  40.778  1.00 45.18 LIG 0.17  C 
ATOM     41  CB  ALA A  16      43.134  63.557  39.349  1.00 49.83 LIG 0.04  C 
BRANCH 40 42
ATOM     42  C   ALA A  16      41.210  63.973  40.894  1.00 49.79 LIG 0.24  C 
ATOM     43 O    ALA A  16      40.846  64.938  40.210  1.00 50.51 LIG-0.27  OA
ATOM     44  N   ARG A  17      40.411  63.360  41.756  1.00 50.44 LIG-0.35  N 
ATOM     45 H    ARG A  17      40.625  62.633  42.163  1.00 50.44 LIG 0.16  HD
BRANCH 44 46
ATOM     46  CA  ARG A  17      39.092  63.857  42.100  1.00 55.17 LIG 0.18  C 
BRANCH 46 47
ATOM     47  C   ARG A  17      38.163  63.616  40.906  1.00 63.19 LIG 0.24  C 
ATOM     48  N   PRO A  18      36.865  63.903  41.080  1.00 71.41 LIG-0.34  N 
ATOM     49  CD  PRO A  18      36.274  64.037  42.421  1.00 72.83 LIG 0.13  C 
ATOM     50  CA  PRO A  18      35.830  63.841  40.028  1.00 77.88 LIG 0.18  C 
ATOM     51  CG  PRO A  18      34.848  63.626  42.188  1.00 77.48 LIG 0.02  C 
ATOM     52  CB  PRO A  18      34.539  64.130  40.800  1.00 79.41 LIG 0.04  C 
ATOM     53 O    ARG A  17      38.602  63.134  39.860  1.00 63.05 LIG-0.27  OA
BRANCH 50 54
ATOM     54  C   PRO A  18      36.014  64.887  38.924  1.00 78.56 LIG 0.24  C 
ATOM     55 O    PRO A  18      35.610  66.042  39.110  1.00 75.87 LIG-0.27  OA
ATOM     56  N   ALA A  19      36.587  64.460  37.793  1.00 80.14 LIG-0.35  N 
ATOM     57 H    ALA A  19      36.740  63.628  37.636  1.00 80.14 LIG 0.16  HD
BRANCH 56 58
ATOM     58  CA  ALA A  19      37.019  65.345  36.696  1.00 81.44 LIG 0.16  C 
ATOM     59  CB  ALA A  19      35.816  66.089  36.122  1.00 83.90 LIG 0.04  C 
BRANCH 58 60
ATOM     60  C   ALA A  19      38.154  66.330  36.995  1.00 82.06 LIG 0.22  C 
ATOM     61 O    ALA A  19      38.445  66.612  38.170  1.00 84.95 LIG-0.29  OA
ENDBRANCH 58 60
ENDBRANCH 56 58
ENDBRANCH 50 54
ENDBRANCH 46 47
BRANCH 46 62
ATOM     62  CB  ARG A  17      39.222  65.355  42.428  1.00 51.88 LIG 0.04  C 
BRANCH 62 63
ATOM     63  CG  ARG A  17      40.206  65.733  43.499  1.00 49.36 LIG 0.02  C 
BRANCH 63 64
ATOM     64  CD  ARG A  17      39.458  66.316  44.733  1.00 46.57 LIG 0.14  C 
BRANCH 64 65
ATOM     65  NE  ARG A  17      38.512  65.361  45.344  1.00 43.47 LIG-0.23  N 
ATOM     66 HE   ARG A  17      37.699  65.375  45.063  1.00 43.47 LIG 0.18  HD
ATOM     67  CZ  ARG A  17      38.820  64.476  46.300  1.00 44.86 LIG 0.67  C 
ATOM     68  NH2 ARG A  17      37.865  63.682  46.770  1.00 38.62 LIG-0.23  N 
ATOM     69  NH1 ARG A  17      40.068  64.390  46.802  1.00 40.09 LIG-0.23  N 
ATOM     70 1HH2 ARG A  17      37.065  63.742  46.461  1.00 38.62 LIG 0.17  HD
ATOM     71 2HH2 ARG A  17      38.046  63.107  47.384  1.00 38.62 LIG 0.17  HD
ATOM     72 2HH1 ARG A  17      40.245  63.814  47.416  1.00 40.09 LIG 0.17  HD
ATOM     73 1HH1 ARG A  17      40.687  64.910  46.509  1.00 40.09 LIG 0.17  HD
ENDBRANCH 64 65
ENDBRANCH 63 64
ENDBRANCH 62 63
ENDBRANCH 46 62
ENDBRANCH 44 46
ENDBRANCH 40 42
ENDBRANCH 3 40
TORSDOF 27
ENDMDL
MODEL 8
USER: ADFR SOLUTION from run 188
USER: SCORE 17.777621 LL:  -2.536 LR: -19.069 RR:   0.000 FEB: -11.015
USER: RMSD 7.997958
USER: SEED 187
USER: STATUS no improvement in best in 11 clusters for 5 generations
USER: GENES 29
USER: genes 0 Translation |==|  0.54407 0.26961 0.30885
USER: genes 1 Rotation |==|  0.51671 0.08006 0.51815 0.77027
USER: genes 2 Torsion [N]-C--CA-[N] |==|  0.10921
USER: genes 3 Torsion [C]-CA--CB-[CG] |==|  0.79102
USER: genes 4 Torsion [CA]-CB--CG-[CD] |==|  0.61453
USER: genes 5 Torsion [CB]-CG--CD-[NE] |==|  0.40104
USER: genes 6 Torsion [CG]-CD--NE-[HE] |==|  0.76614
USER: genes 7 Torsion [C]-CA--N-[C] |==|  0.53348
USER: genes 8 Torsion [N]-C--CA-[N] |==|  0.42987
USER: genes 9 Torsion [C]-CA--N-[C] |==|  0.62380
USER: genes 10 Torsion [N]-C--CA-[N] |==|  0.27193
USER: genes 11 Torsion [C]-CA--CB-[OG] |==|  0.14138
USER: genes 12 Torsion [CA]-CB--OG-[HG] |==|  0.76501
USER: genes 13 Torsion [C]-CA--CB-[CG] |==|  0.49141
USER: genes 14 Torsion [CA]-CB--CG-[CD] |==|  0.85343
USER: genes 15 Torsion [CB]-CG--CD-[CE] |==|  0.40981
USER: genes 16 Torsion [CG]-CD--CE-[NZ] |==|  0.92200
USER: genes 17 Torsion [CD]-CE--NZ-[HZ3] |==|  0.84194
USER: genes 18 Torsion [C]-N--CA-[CB] |==|  0.35680
USER: genes 19 Torsion [N]-CA--C-[N] |==|  0.78634
USER: genes 20 Torsion [C]-N--CA-[CB] |==|  0.20132
USER: genes 21 Torsion [N]-CA--C-[N] |==|  0.29398
USER: genes 22 Torsion [N]-CA--C-[N] |==|  0.45943
USER: genes 23 Torsion [C]-N--CA-[CB] |==|  0.23842
USER: genes 24 Torsion [N]-CA--C-[O] |==|  0.84614
USER: genes 25 Torsion [N]-CA--CB-[CG] |==|  0.41780
USER: genes 26 Torsion [CA]-CB--CG-[CD] |==|  0.41566
USER: genes 27 Torsion [CB]-CG--CD-[NE] |==|  0.05290
USER: genes 28 Torsion [CG]-CD--NE-[HE] |==|  0.72395
ROOT
ATOM      1  C   ARG A  15      41.168  53.339  37.942  1.00 45.62 LIG 0.24  C 
ATOM      2 O    ARG A  15      40.851  53.307  36.744  1.00 41.49 LIG-0.27  OA
ATOM      3  N   ALA A  16      40.706  54.267  38.786  1.00 45.00 LIG-0.35  N 
ATOM      4 H    ALA A  16      40.827  54.248  39.637  1.00 45.00 LIG 0.16  HD
ENDROOT
BRANCH 1 5
ATOM      5  CA  ARG A  15      42.152  52.311  38.502  1.00 46.83 LIG 0.18  C 
BRANCH 5 6
ATOM      6  CB  ARG A  15      42.194  51.096  37.548  1.00 49.57 LIG 0.04  C 
BRANCH 6 7
ATOM      7  CG  ARG A  15      40.975  50.150  37.618  1.00 52.69 LIG 0.02  C 
BRANCH 7 8
ATOM      8  CD  ARG A  15      41.377  48.675  37.552  1.00 53.59 LIG 0.14  C 
BRANCH 8 9
ATOM      9  NE  ARG A  15      40.525  47.832  38.386  1.00 54.25 LIG-0.23  N 
ATOM     10  CZ  ARG A  15      39.465  47.156  37.959  1.00 51.22 LIG 0.67  C 
ATOM     11  NH1 ARG A  15      39.075  47.220  36.691  1.00 49.54 LIG-0.23  N 
ATOM     12  NH2 ARG A  15      38.777  46.417  38.813  1.00 55.83 LIG-0.23  N 
ATOM     13 2HH1 ARG A  15      38.386  46.776  36.430  1.00 49.54 LIG 0.17  HD
ATOM     14 1HH1 ARG A  15      39.512  47.705  36.131  1.00 49.54 LIG 0.17  HD
ATOM     15 2HH2 ARG A  15      38.090  45.976  38.544  1.00 55.83 LIG 0.17  HD
ATOM     16 1HH2 ARG A  15      39.018  46.377  39.638  1.00 55.83 LIG 0.17  HD
ATOM     17 HE   ARG A  15      40.727  47.768  39.220  1.00 54.25 LIG 0.18  HD
ENDBRANCH 8 9
ENDBRANCH 7 8
ENDBRANCH 6 7
ENDBRANCH 5 6
BRANCH 5 18
ATOM     18  N   ARG A  15      41.777  51.887  39.859  1.00 49.13 LIG-0.35  N 
ATOM     19 H    ARG A  15      40.988  52.132  40.100  1.00 49.13 LIG 0.16  HD
ATOM     20  C   LYS A  14      42.604  51.184  40.635  1.00 54.29 LIG 0.24  C 
ATOM     21 O    LYS A  14      43.738  50.857  40.275  1.00 54.85 LIG-0.27  OA
BRANCH 20 22
ATOM     22  CA  LYS A  14      42.109  50.772  42.026  1.00 53.70 LIG 0.18  C 
BRANCH 22 23
ATOM     23  N   LYS A  14      42.855  49.570  42.423  1.00 51.97 LIG-0.35  N 
ATOM     24  C   SER A  13      42.235  48.526  42.977  1.00 54.08 LIG 0.26  C 
ATOM     25 O    SER A  13      41.051  48.562  43.360  1.00 52.27 LIG-0.27  OA
ATOM     26 H    LYS A  14      43.701  49.604  42.268  1.00 51.97 LIG 0.16  HD
BRANCH 24 27
ATOM     27  CA  SER A  13      43.050  47.234  43.110  1.00 61.00 LIG 0.42  C 
ATOM     28  N   SER A  13      43.645  47.031  44.438  1.00 64.04 LIG 0.62  N 
BRANCH 27 29
ATOM     29  CB  SER A  13      42.199  46.032  42.709  1.00 62.15 LIG 0.21  C 
BRANCH 29 30
ATOM     30 OG   SER A  13      41.599  46.256  41.451  1.00 63.97 LIG-0.40  OA
ATOM     31 HG   SER A  13      40.888  46.692  41.553  1.00 63.97 LIG 0.21  HD
ENDBRANCH 29 30
ENDBRANCH 27 29
ENDBRANCH 24 27
ENDBRANCH 22 23
BRANCH 22 32
ATOM     32  CB  LYS A  14      42.354  51.929  43.010  1.00 53.93 LIG 0.04  C 
BRANCH 32 33
ATOM     33  CG  LYS A  14      41.847  51.714  44.447  1.00 52.68 LIG 0.00  C 
BRANCH 33 34
ATOM     34  CD  LYS A  14      40.381  51.310  44.490  1.00 44.05 LIG 0.03  C 
BRANCH 34 35
ATOM     35  CE  LYS A  14      40.091  50.375  45.666  1.00 42.34 LIG 0.23  C 
BRANCH 35 36
ATOM     36  NZ  LYS A  14      41.332  49.571  46.034  1.00 42.55 LIG-0.08  N 
ATOM     37 HZ1  LYS A  14      41.974  50.124  46.308  1.00 42.55 LIG 0.27  HD
ATOM     38 HZ2  LYS A  14      41.134  49.002  46.688  1.00 42.55 LIG 0.27  HD
ATOM     39 HZ3  LYS A  14      41.615  49.118  45.322  1.00 42.55 LIG 0.27  HD
ENDBRANCH 35 36
ENDBRANCH 34 35
ENDBRANCH 33 34
ENDBRANCH 32 33
ENDBRANCH 22 32
ENDBRANCH 20 22
ENDBRANCH 5 18
ENDBRANCH 1 5
BRANCH 3 40
ATOM     40  CA  ALA A  16      39.940  55.410  38.306  1.00 45.18 LIG 0.17  C 
ATOM     41  CB  ALA A  16      38.634  55.555  39.076  1.00 49.83 LIG 0.04  C 
BRANCH 40 42
ATOM     42  C   ALA A  16      40.777  56.688  38.454  1.00 49.79 LIG 0.24  C 
ATOM     43 O    ALA A  16      41.321  57.218  37.477  1.00 50.51 LIG-0.27  OA
ATOM     44  N   ARG A  17      40.862  57.182  39.681  1.00 50.44 LIG-0.35  N 
ATOM     45 H    ARG A  17      40.411  56.876  40.346  1.00 50.44 LIG 0.16  HD
BRANCH 44 46
ATOM     46  CA  ARG A  17      41.730  58.293  40.025  1.00 55.17 LIG 0.18  C 
BRANCH 46 47
ATOM     47  C   ARG A  17      41.830  58.368  41.552  1.00 63.19 LIG 0.24  C 
ATOM     48  N   PRO A  18      42.977  57.953  42.107  1.00 71.41 LIG-0.34  N 
ATOM     49  CD  PRO A  18      43.922  57.092  41.377  1.00 72.83 LIG 0.13  C 
ATOM     50  CA  PRO A  18      43.311  58.041  43.542  1.00 77.88 LIG 0.18  C 
ATOM     51  CG  PRO A  18      44.583  56.325  42.487  1.00 77.48 LIG 0.02  C 
ATOM     52  CB  PRO A  18      44.654  57.310  43.628  1.00 79.41 LIG 0.04  C 
ATOM     53 O    ARG A  17      40.868  58.751  42.223  1.00 63.05 LIG-0.27  OA
BRANCH 50 54
ATOM     54  C   PRO A  18      43.473  59.478  44.048  1.00 78.56 LIG 0.24  C 
ATOM     55 O    PRO A  18      43.621  60.394  43.229  1.00 75.87 LIG-0.27  OA
ATOM     56  N   ALA A  19      43.474  59.643  45.375  1.00 80.14 LIG-0.35  N 
ATOM     57 H    ALA A  19      43.502  58.981  45.924  1.00 80.14 LIG 0.16  HD
BRANCH 56 58
ATOM     58  CA  ALA A  19      43.428  60.954  46.049  1.00 81.44 LIG 0.16  C 
ATOM     59  CB  ALA A  19      41.980  61.412  46.201  1.00 83.90 LIG 0.04  C 
BRANCH 58 60
ATOM     60  C   ALA A  19      44.165  61.082  47.386  1.00 82.06 LIG 0.22  C 
ATOM     61 O    ALA A  19      43.906  60.306  48.320  1.00 84.95 LIG-0.29  OA
ENDBRANCH 58 60
ENDBRANCH 56 58
ENDBRANCH 50 54
ENDBRANCH 46 47
BRANCH 46 62
ATOM     62  CB  ARG A  17      41.118  59.573  39.430  1.00 51.88 LIG 0.04  C 
BRANCH 62 63
ATOM     63  CG  ARG A  17      41.387  60.858  40.160  1.00 49.36 LIG 0.02  C 
BRANCH 63 64
ATOM     64  CD  ARG A  17      41.416  62.049  39.159  1.00 46.57 LIG 0.14  C 
BRANCH 64 65
ATOM     65  NE  ARG A  17      40.756  61.745  37.874  1.00 43.47 LIG-0.23  N 
ATOM     66 HE   ARG A  17      41.259  61.529  37.211  1.00 43.47 LIG 0.18  HD
ATOM     67  CZ  ARG A  17      39.434  61.779  37.661  1.00 44.86 LIG 0.67  C 
ATOM     68  NH2 ARG A  17      38.974  61.494  36.448  1.00 38.62 LIG-0.23  N 
ATOM     69  NH1 ARG A  17      38.572  62.113  38.641  1.00 40.09 LIG-0.23  N 
ATOM     70 1HH2 ARG A  17      39.522  61.292  35.817  1.00 38.62 LIG 0.17  HD
ATOM     71 2HH2 ARG A  17      38.128  61.511  36.294  1.00 38.62 LIG 0.17  HD
ATOM     72 2HH1 ARG A  17      37.727  62.129  38.483  1.00 40.09 LIG 0.17  HD
ATOM     73 1HH1 ARG A  17      38.867  62.311  39.425  1.00 40.09 LIG 0.17  HD
ENDBRANCH 64 65
ENDBRANCH 63 64
ENDBRANCH 62 63
ENDBRANCH 46 62
ENDBRANCH 44 46
ENDBRANCH 40 42
ENDBRANCH 3 40
TORSDOF 27
ENDMDL
MODEL 9
USER: ADFR SOLUTION from run 162
USER: SCORE 19.705095 LL:  -3.020 LR: -19.035 RR:   0.000 FEB: -10.981
USER: RMSD 7.962153
USER: SEED 161
USER: STATUS no improvement in best in 7 clusters for 5 generations
USER: GENES 29
USER: genes 0 Translation |==|  0.61833 0.28154 0.53360
USER: genes 1 Rotation |==|  0.57068 0.90146 0.56121 0.78300
USER: genes 2 Torsion [N]-C--CA-[N] |==|  0.37994
USER: genes 3 Torsion [C]-CA--CB-[CG] |==|  0.82555
USER: genes 4 Torsion [CA]-CB--CG-[CD] |==|  0.62091
USER: genes 5 Torsion [CB]-CG--CD-[NE] |==|  0.99484
USER: genes 6 Torsion [CG]-CD--NE-[HE] |==|  0.92338
USER: genes 7 Torsion [C]-CA--N-[C] |==|  0.80223
USER: genes 8 Torsion [N]-C--CA-[N] |==|  0.00329
USER: genes 9 Torsion [C]-CA--N-[C] |==|  0.76393
USER: genes 10 Torsion [N]-C--CA-[N] |==|  0.22587
USER: genes 11 Torsion [C]-CA--CB-[OG] |==|  0.31978
USER: genes 12 Torsion [CA]-CB--OG-[HG] |==|  0.63019
USER: genes 13 Torsion [C]-CA--CB-[CG] |==|  0.54152
USER: genes 14 Torsion [CA]-CB--CG-[CD] |==|  0.44474
USER: genes 15 Torsion [CB]-CG--CD-[CE] |==|  0.04612
USER: genes 16 Torsion [CG]-CD--CE-[NZ] |==|  0.53907
USER: genes 17 Torsion [CD]-CE--NZ-[HZ3] |==|  0.23552
USER: genes 18 Torsion [C]-N--CA-[CB] |==|  0.21626
USER: genes 19 Torsion [N]-CA--C-[N] |==|  0.45705
USER: genes 20 Torsion [C]-N--CA-[CB] |==|  0.52229
USER: genes 21 Torsion [N]-CA--C-[N] |==|  0.86699
USER: genes 22 Torsion [N]-CA--C-[N] |==|  0.12500
USER: genes 23 Torsion [C]-N--CA-[CB] |==|  0.16107
USER: genes 24 Torsion [N]-CA--C-[O] |==|  0.82784
USER: genes 25 Torsion [N]-CA--CB-[CG] |==|  0.76289
USER: genes 26 Torsion [CA]-CB--CG-[CD] |==|  0.29681
USER: genes 27 Torsion [CB]-CG--CD-[NE] |==|  0.61449
USER: genes 28 Torsion [CG]-CD--NE-[HE] |==|  0.24203
ROOT
ATOM      1  C   ARG A  15      42.338  53.697  42.493  1.00 45.62 LIG 0.24  C 
ATOM      2 O    ARG A  15      43.387  53.401  43.083  1.00 41.49 LIG-0.27  OA
ATOM      3  N   ALA A  16      42.101  54.921  42.012  1.00 45.00 LIG-0.35  N 
ATOM      4 H    ALA A  16      41.432  55.122  41.511  1.00 45.00 LIG 0.16  HD
ENDROOT
BRANCH 1 5
ATOM      5  CA  ARG A  15      41.235  52.652  42.322  1.00 46.83 LIG 0.18  C 
BRANCH 5 6
ATOM      6  CB  ARG A  15      40.476  52.509  43.660  1.00 49.57 LIG 0.04  C 
BRANCH 6 7
ATOM      7  CG  ARG A  15      41.313  51.998  44.852  1.00 52.69 LIG 0.02  C 
BRANCH 7 8
ATOM      8  CD  ARG A  15      40.572  50.945  45.677  1.00 53.59 LIG 0.14  C 
BRANCH 8 9
ATOM      9  NE  ARG A  15      39.224  50.695  45.174  1.00 54.25 LIG-0.23  N 
ATOM     10  CZ  ARG A  15      38.556  49.555  45.307  1.00 51.22 LIG 0.67  C 
ATOM     11  NH1 ARG A  15      39.101  48.508  45.915  1.00 49.54 LIG-0.23  N 
ATOM     12  NH2 ARG A  15      37.334  49.456  44.813  1.00 55.83 LIG-0.23  N 
ATOM     13 2HH1 ARG A  15      38.656  47.776  45.993  1.00 49.54 LIG 0.17  HD
ATOM     14 1HH1 ARG A  15      39.899  48.562  46.231  1.00 49.54 LIG 0.17  HD
ATOM     15 2HH2 ARG A  15      36.895  48.720  44.896  1.00 55.83 LIG 0.17  HD
ATOM     16 1HH2 ARG A  15      36.977  50.126  44.410  1.00 55.83 LIG 0.17  HD
ATOM     17 HE   ARG A  15      38.831  51.338  44.758  1.00 54.25 LIG 0.18  HD
ENDBRANCH 8 9
ENDBRANCH 7 8
ENDBRANCH 6 7
ENDBRANCH 5 6
BRANCH 5 18
ATOM     18  N   ARG A  15      41.782  51.354  41.899  1.00 49.13 LIG-0.35  N 
ATOM     19 H    ARG A  15      41.758  50.746  42.508  1.00 49.13 LIG 0.16  HD
ATOM     20  C   LYS A  14      42.270  51.156  40.673  1.00 54.29 LIG 0.24  C 
ATOM     21 O    LYS A  14      42.309  52.048  39.821  1.00 54.85 LIG-0.27  OA
BRANCH 20 22
ATOM     22  CA  LYS A  14      42.796  49.759  40.324  1.00 53.70 LIG 0.18  C 
BRANCH 22 23
ATOM     23  N   LYS A  14      42.598  48.905  41.503  1.00 51.97 LIG-0.35  N 
ATOM     24  C   SER A  13      43.496  48.874  42.490  1.00 54.08 LIG 0.26  C 
ATOM     25 O    SER A  13      44.620  49.404  42.405  1.00 52.27 LIG-0.27  OA
ATOM     26 H    LYS A  14      41.872  48.443  41.494  1.00 51.97 LIG 0.16  HD
BRANCH 24 27
ATOM     27  CA  SER A  13      43.074  48.162  43.780  1.00 61.00 LIG 0.42  C 
ATOM     28  N   SER A  13      43.209  46.700  43.732  1.00 64.04 LIG 0.62  N 
BRANCH 27 29
ATOM     29  CB  SER A  13      43.836  48.736  44.971  1.00 62.15 LIG 0.21  C 
BRANCH 29 30
ATOM     30 OG   SER A  13      42.944  49.376  45.859  1.00 63.97 LIG-0.40  OA
ATOM     31 HG   SER A  13      43.254  50.126  46.075  1.00 63.97 LIG 0.21  HD
ENDBRANCH 29 30
ENDBRANCH 27 29
ENDBRANCH 24 27
ENDBRANCH 22 23
BRANCH 22 32
ATOM     32  CB  LYS A  14      42.022  49.219  39.108  1.00 53.93 LIG 0.04  C 
BRANCH 32 33
ATOM     33  CG  LYS A  14      42.158  47.711  38.836  1.00 52.68 LIG 0.00  C 
BRANCH 33 34
ATOM     34  CD  LYS A  14      41.032  47.176  37.964  1.00 44.05 LIG 0.03  C 
BRANCH 34 35
ATOM     35  CE  LYS A  14      40.290  48.308  37.249  1.00 42.34 LIG 0.23  C 
BRANCH 35 36
ATOM     36  NZ  LYS A  14      38.974  47.806  36.667  1.00 42.55 LIG-0.08  N 
ATOM     37 HZ1  LYS A  14      38.736  48.323  35.983  1.00 42.55 LIG 0.27  HD
ATOM     38 HZ2  LYS A  14      39.074  46.969  36.385  1.00 42.55 LIG 0.27  HD
ATOM     39 HZ3  LYS A  14      38.342  47.834  37.294  1.00 42.55 LIG 0.27  HD
ENDBRANCH 35 36
ENDBRANCH 34 35
ENDBRANCH 33 34
ENDBRANCH 32 33
ENDBRANCH 22 32
ENDBRANCH 20 22
ENDBRANCH 5 18
ENDBRANCH 1 5
BRANCH 3 40
ATOM     40  CA  ALA A  16      42.991  56.036  42.313  1.00 45.18 LIG 0.17  C 
ATOM     41  CB  ALA A  16      44.252  55.974  41.462  1.00 49.83 LIG 0.04  C 
BRANCH 40 42
ATOM     42  C   ALA A  16      42.258  57.361  42.063  1.00 49.79 LIG 0.24  C 
ATOM     43 O    ALA A  16      41.202  57.402  41.419  1.00 50.51 LIG-0.27  OA
ATOM     44  N   ARG A  17      42.821  58.440  42.590  1.00 50.44 LIG-0.35  N 
ATOM     45 H    ARG A  17      43.499  58.408  43.118  1.00 50.44 LIG 0.16  HD
BRANCH 44 46
ATOM     46  CA  ARG A  17      42.346  59.785  42.327  1.00 55.17 LIG 0.18  C 
BRANCH 46 47
ATOM     47  C   ARG A  17      42.225  59.962  40.810  1.00 63.19 LIG 0.24  C 
ATOM     48  N   PRO A  18      43.270  59.569  40.068  1.00 71.41 LIG-0.34  N 
ATOM     49  CD  PRO A  18      44.606  59.374  40.653  1.00 72.83 LIG 0.13  C 
ATOM     50  CA  PRO A  18      43.312  59.558  38.592  1.00 77.88 LIG 0.18  C 
ATOM     51  CG  PRO A  18      45.514  59.670  39.494  1.00 77.48 LIG 0.02  C 
ATOM     52  CB  PRO A  18      44.759  59.157  38.292  1.00 79.41 LIG 0.04  C 
ATOM     53 O    ARG A  17      41.224  60.489  40.320  1.00 63.05 LIG-0.27  OA
BRANCH 50 54
ATOM     54  C   PRO A  18      42.355  58.543  37.958  1.00 78.56 LIG 0.24  C 
ATOM     55 O    PRO A  18      42.750  57.846  37.015  1.00 75.87 LIG-0.27  OA
ATOM     56  N   ALA A  19      41.117  58.499  38.464  1.00 80.14 LIG-0.35  N 
ATOM     57 H    ALA A  19      40.826  59.079  39.028  1.00 80.14 LIG 0.16  HD
BRANCH 56 58
ATOM     58  CA  ALA A  19      40.118  57.470  38.122  1.00 81.44 LIG 0.16  C 
ATOM     59  CB  ALA A  19      40.663  56.083  38.452  1.00 83.90 LIG 0.04  C 
BRANCH 58 60
ATOM     60  C   ALA A  19      38.712  57.636  38.708  1.00 82.06 LIG 0.22  C 
ATOM     61 O    ALA A  19      38.541  57.625  39.939  1.00 84.95 LIG-0.29  OA
ENDBRANCH 58 60
ENDBRANCH 56 58
ENDBRANCH 50 54
ENDBRANCH 46 47
BRANCH 46 62
ATOM     62  CB  ARG A  17      43.358  60.772  42.937  1.00 51.88 LIG 0.04  C 
BRANCH 62 63
ATOM     63  CG  ARG A  17      43.186  61.109  44.390  1.00 49.36 LIG 0.02  C 
BRANCH 63 64
ATOM     64  CD  ARG A  17      44.293  60.418  45.237  1.00 46.57 LIG 0.14  C 
BRANCH 64 65
ATOM     65  NE  ARG A  17      43.789  59.855  46.506  1.00 43.47 LIG-0.23  N 
ATOM     66 HE   ARG A  17      43.474  59.055  46.487  1.00 43.47 LIG 0.18  HD
ATOM     67  CZ  ARG A  17      43.784  60.493  47.683  1.00 44.86 LIG 0.67  C 
ATOM     68  NH2 ARG A  17      43.288  59.872  48.747  1.00 38.62 LIG-0.23  N 
ATOM     69  NH1 ARG A  17      44.253  61.751  47.803  1.00 40.09 LIG-0.23  N 
ATOM     70 1HH2 ARG A  17      42.977  59.074  48.672  1.00 38.62 LIG 0.17  HD
ATOM     71 2HH2 ARG A  17      43.278  60.267  49.511  1.00 38.62 LIG 0.17  HD
ATOM     72 2HH1 ARG A  17      44.242  62.143  48.568  1.00 40.09 LIG 0.17  HD
ATOM     73 1HH1 ARG A  17      44.564  62.162  47.114  1.00 40.09 LIG 0.17  HD
ENDBRANCH 64 65
ENDBRANCH 63 64
ENDBRANCH 62 63
ENDBRANCH 46 62
ENDBRANCH 44 46
ENDBRANCH 40 42
ENDBRANCH 3 40
TORSDOF 27
ENDMDL
MODEL 10
USER: ADFR SOLUTION from run 162
USER: SCORE 20.345073 LL:  -2.308 LR: -18.790 RR:   0.000 FEB: -10.736
USER: RMSD 7.261003
USER: SEED 161
USER: STATUS no improvement in best in 7 clusters for 5 generations
USER: GENES 29
USER: genes 0 Translation |==|  0.63104 0.28017 0.52012
USER: genes 1 Rotation |==|  0.60981 0.90509 0.56391 0.76412
USER: genes 2 Torsion [N]-C--CA-[N] |==|  0.41013
USER: genes 3 Torsion [C]-CA--CB-[CG] |==|  0.84001
USER: genes 4 Torsion [CA]-CB--CG-[CD] |==|  0.69801
USER: genes 5 Torsion [CB]-CG--CD-[NE] |==|  0.91589
USER: genes 6 Torsion [CG]-CD--NE-[HE] |==|  0.00552
USER: genes 7 Torsion [C]-CA--N-[C] |==|  0.82511
USER: genes 8 Torsion [N]-C--CA-[N] |==|  0.95671
USER: genes 9 Torsion [C]-CA--N-[C] |==|  0.77277
USER: genes 10 Torsion [N]-C--CA-[N] |==|  0.24893
USER: genes 11 Torsion [C]-CA--CB-[OG] |==|  0.37402
USER: genes 12 Torsion [CA]-CB--OG-[HG] |==|  0.62515
USER: genes 13 Torsion [C]-CA--CB-[CG] |==|  0.12820
USER: genes 14 Torsion [CA]-CB--CG-[CD] |==|  0.51643
USER: genes 15 Torsion [CB]-CG--CD-[CE] |==|  0.02737
USER: genes 16 Torsion [CG]-CD--CE-[NZ] |==|  0.55468
USER: genes 17 Torsion [CD]-CE--NZ-[HZ3] |==|  0.24678
USER: genes 18 Torsion [C]-N--CA-[CB] |==|  0.14774
USER: genes 19 Torsion [N]-CA--C-[N] |==|  0.18599
USER: genes 20 Torsion [C]-N--CA-[CB] |==|  0.78333
USER: genes 21 Torsion [N]-CA--C-[N] |==|  0.21919
USER: genes 22 Torsion [N]-CA--C-[N] |==|  0.59568
USER: genes 23 Torsion [C]-N--CA-[CB] |==|  0.12574
USER: genes 24 Torsion [N]-CA--C-[O] |==|  0.77570
USER: genes 25 Torsion [N]-CA--CB-[CG] |==|  0.80414
USER: genes 26 Torsion [CA]-CB--CG-[CD] |==|  0.38164
USER: genes 27 Torsion [CB]-CG--CD-[NE] |==|  0.56767
USER: genes 28 Torsion [CG]-CD--NE-[HE] |==|  0.21663
ROOT
ATOM      1  C   ARG A  15      42.538  53.656  42.220  1.00 45.62 LIG 0.24  C 
ATOM      2 O    ARG A  15      43.591  53.190  42.678  1.00 41.49 LIG-0.27  OA
ATOM      3  N   ALA A  16      42.402  54.944  41.889  1.00 45.00 LIG-0.35  N 
ATOM      4 H    ALA A  16      41.722  55.267  41.475  1.00 45.00 LIG 0.16  HD
ENDROOT
BRANCH 1 5
ATOM      5  CA  ARG A  15      41.315  52.755  42.046  1.00 46.83 LIG 0.18  C 
BRANCH 5 6
ATOM      6  CB  ARG A  15      40.501  52.766  43.360  1.00 49.57 LIG 0.04  C 
BRANCH 6 7
ATOM      7  CG  ARG A  15      41.267  52.317  44.623  1.00 52.69 LIG 0.02  C 
BRANCH 7 8
ATOM      8  CD  ARG A  15      40.808  50.948  45.128  1.00 53.59 LIG 0.14  C 
BRANCH 8 9
ATOM      9  NE  ARG A  15      39.402  50.690  44.828  1.00 54.25 LIG-0.23  N 
ATOM     10  CZ  ARG A  15      38.732  49.599  45.181  1.00 51.22 LIG 0.67  C 
ATOM     11  NH1 ARG A  15      39.326  48.614  45.844  1.00 49.54 LIG-0.23  N 
ATOM     12  NH2 ARG A  15      37.455  49.486  44.857  1.00 55.83 LIG-0.23  N 
ATOM     13 2HH1 ARG A  15      38.878  47.913  46.065  1.00 49.54 LIG 0.17  HD
ATOM     14 1HH1 ARG A  15      40.159  48.676  46.051  1.00 49.54 LIG 0.17  HD
ATOM     15 2HH2 ARG A  15      37.015  48.783  45.083  1.00 55.83 LIG 0.17  HD
ATOM     16 1HH2 ARG A  15      37.065  50.116  44.420  1.00 55.83 LIG 0.17  HD
ATOM     17 HE   ARG A  15      38.975  51.292  44.387  1.00 54.25 LIG 0.18  HD
ENDBRANCH 8 9
ENDBRANCH 7 8
ENDBRANCH 6 7
ENDBRANCH 5 6
BRANCH 5 18
ATOM     18  N   ARG A  15      41.701  51.382  41.691  1.00 49.13 LIG-0.35  N 
ATOM     19 H    ARG A  15      41.477  50.790  42.274  1.00 49.13 LIG 0.16  HD
ATOM     20  C   LYS A  14      42.344  51.098  40.556  1.00 54.29 LIG 0.24  C 
ATOM     21 O    LYS A  14      42.670  51.965  39.742  1.00 54.85 LIG-0.27  OA
BRANCH 20 22
ATOM     22  CA  LYS A  14      42.682  49.631  40.268  1.00 53.70 LIG 0.18  C 
BRANCH 22 23
ATOM     23  N   LYS A  14      42.531  48.887  41.527  1.00 51.97 LIG-0.35  N 
ATOM     24  C   SER A  13      43.503  48.877  42.442  1.00 54.08 LIG 0.26  C 
ATOM     25 O    SER A  13      44.645  49.326  42.227  1.00 52.27 LIG-0.27  OA
ATOM     26 H    LYS A  14      41.782  48.474  41.612  1.00 51.97 LIG 0.16  HD
BRANCH 24 27
ATOM     27  CA  SER A  13      43.146  48.298  43.816  1.00 61.00 LIG 0.42  C 
ATOM     28  N   SER A  13      43.376  46.852  43.937  1.00 64.04 LIG 0.62  N 
BRANCH 27 29
ATOM     29  CB  SER A  13      43.885  49.057  44.914  1.00 62.15 LIG 0.21  C 
BRANCH 29 30
ATOM     30 OG   SER A  13      43.005  49.359  45.976  1.00 63.97 LIG-0.40  OA
ATOM     31 HG   SER A  13      43.116  50.158  46.214  1.00 63.97 LIG 0.21  HD
ENDBRANCH 29 30
ENDBRANCH 27 29
ENDBRANCH 24 27
ENDBRANCH 22 23
BRANCH 22 32
ATOM     32  CB  LYS A  14      41.725  49.097  39.188  1.00 53.93 LIG 0.04  C 
BRANCH 32 33
ATOM     33  CG  LYS A  14      41.515  50.003  37.962  1.00 52.68 LIG 0.00  C 
BRANCH 33 34
ATOM     34  CD  LYS A  14      40.450  49.465  37.020  1.00 44.05 LIG 0.03  C 
BRANCH 34 35
ATOM     35  CE  LYS A  14      39.689  48.293  37.644  1.00 42.34 LIG 0.23  C 
BRANCH 35 36
ATOM     36  NZ  LYS A  14      38.992  47.468  36.568  1.00 42.55 LIG-0.08  N 
ATOM     37 HZ1  LYS A  14      38.263  47.090  36.909  1.00 42.55 LIG 0.27  HD
ATOM     38 HZ2  LYS A  14      38.762  47.998  35.891  1.00 42.55 LIG 0.27  HD
ATOM     39 HZ3  LYS A  14      39.546  46.836  36.274  1.00 42.55 LIG 0.27  HD
ENDBRANCH 35 36
ENDBRANCH 34 35
ENDBRANCH 33 34
ENDBRANCH 32 33
ENDBRANCH 22 32
ENDBRANCH 20 22
ENDBRANCH 5 18
ENDBRANCH 1 5
BRANCH 3 40
ATOM     40  CA  ALA A  16      43.433  55.921  42.218  1.00 45.18 LIG 0.17  C 
ATOM     41  CB  ALA A  16      44.796  55.470  41.709  1.00 49.83 LIG 0.04  C 
BRANCH 40 42
ATOM     42  C   ALA A  16      43.070  57.278  41.603  1.00 49.79 LIG 0.24  C 
ATOM     43 O    ALA A  16      43.739  57.770  40.686  1.00 50.51 LIG-0.27  OA
ATOM     44  N   ARG A  17      41.996  57.872  42.108  1.00 50.44 LIG-0.35  N 
ATOM     45 H    ARG A  17      41.473  57.494  42.676  1.00 50.44 LIG 0.16  HD
BRANCH 44 46
ATOM     46  CA  ARG A  17      41.599  59.220  41.750  1.00 55.17 LIG 0.18  C 
BRANCH 46 47
ATOM     47  C   ARG A  17      41.755  59.379  40.234  1.00 63.19 LIG 0.24  C 
ATOM     48  N   PRO A  18      40.786  58.859  39.467  1.00 71.41 LIG-0.34  N 
ATOM     49  CD  PRO A  18      39.853  57.843  39.980  1.00 72.83 LIG 0.13  C 
ATOM     50  CA  PRO A  18      40.696  58.995  37.999  1.00 77.88 LIG 0.18  C 
ATOM     51  CG  PRO A  18      39.502  57.071  38.740  1.00 77.48 LIG 0.02  C 
ATOM     52  CB  PRO A  18      39.497  58.109  37.646  1.00 79.41 LIG 0.04  C 
ATOM     53 O    ARG A  17      42.757  59.920  39.762  1.00 63.05 LIG-0.27  OA
BRANCH 50 54
ATOM     54  C   PRO A  18      40.431  60.430  37.531  1.00 78.56 LIG 0.24  C 
ATOM     55 O    PRO A  18      40.898  61.374  38.181  1.00 75.87 LIG-0.27  OA
ATOM     56  N   ALA A  19      39.670  60.566  36.440  1.00 80.14 LIG-0.35  N 
ATOM     57 H    ALA A  19      39.250  59.906  36.082  1.00 80.14 LIG 0.16  HD
BRANCH 56 58
ATOM     58  CA  ALA A  19      39.459  61.841  35.729  1.00 81.44 LIG 0.16  C 
ATOM     59  CB  ALA A  19      40.791  62.566  35.553  1.00 83.90 LIG 0.04  C 
BRANCH 58 60
ATOM     60  C   ALA A  19      38.710  61.784  34.393  1.00 82.06 LIG 0.22  C 
ATOM     61 O    ALA A  19      39.307  61.457  33.354  1.00 84.95 LIG-0.29  OA
ENDBRANCH 58 60
ENDBRANCH 56 58
ENDBRANCH 50 54
ENDBRANCH 46 47
BRANCH 46 62
ATOM     62  CB  ARG A  17      42.501  60.200  42.521  1.00 51.88 LIG 0.04  C 
BRANCH 62 63
ATOM     63  CG  ARG A  17      42.286  60.297  44.005  1.00 49.36 LIG 0.02  C 
BRANCH 63 64
ATOM     64  CD  ARG A  17      43.655  60.342  44.744  1.00 46.57 LIG 0.14  C 
BRANCH 64 65
ATOM     65  NE  ARG A  17      43.576  59.873  46.142  1.00 43.47 LIG-0.23  N 
ATOM     66 HE   ARG A  17      43.545  59.024  46.273  1.00 43.47 LIG 0.18  HD
ATOM     67  CZ  ARG A  17      43.551  60.666  47.220  1.00 44.86 LIG 0.67  C 
ATOM     68  NH2 ARG A  17      43.466  60.109  48.423  1.00 38.62 LIG-0.23  N 
ATOM     69  NH1 ARG A  17      43.591  62.008  47.107  1.00 40.09 LIG-0.23  N 
ATOM     70 1HH2 ARG A  17      43.429  59.254  48.499  1.00 38.62 LIG 0.17  HD
ATOM     71 2HH2 ARG A  17      43.450  60.605  49.126  1.00 38.62 LIG 0.17  HD
ATOM     72 2HH1 ARG A  17      43.574  62.500  47.812  1.00 40.09 LIG 0.17  HD
ATOM     73 1HH1 ARG A  17      43.633  62.373  46.329  1.00 40.09 LIG 0.17  HD
ENDBRANCH 64 65
ENDBRANCH 63 64
ENDBRANCH 62 63
ENDBRANCH 46 62
ENDBRANCH 44 46
ENDBRANCH 40 42
ENDBRANCH 3 40
TORSDOF 27
ENDMDL
MODEL 11
USER: ADFR SOLUTION from run 178
USER: SCORE 19.866983 LL:  -3.596 LR: -18.754 RR:   0.000 FEB: -10.700
USER: RMSD 7.657173
USER: SEED 177
USER: STATUS 1 or 2 clusters left
USER: GENES 29
USER: genes 0 Translation |==|  0.61075 0.43638 0.45343
USER: genes 1 Rotation |==|  0.19937 0.44825 0.66117 0.86189
USER: genes 2 Torsion [N]-C--CA-[N] |==|  0.22778
USER: genes 3 Torsion [C]-CA--CB-[CG] |==|  0.52792
USER: genes 4 Torsion [CA]-CB--CG-[CD] |==|  0.64641
USER: genes 5 Torsion [CB]-CG--CD-[NE] |==|  0.86031
USER: genes 6 Torsion [CG]-CD--NE-[HE] |==|  0.16814
USER: genes 7 Torsion [C]-CA--N-[C] |==|  0.15244
USER: genes 8 Torsion [N]-C--CA-[N] |==|  0.57707
USER: genes 9 Torsion [C]-CA--N-[C] |==|  0.57410
USER: genes 10 Torsion [N]-C--CA-[N] |==|  0.75721
USER: genes 11 Torsion [C]-CA--CB-[OG] |==|  0.21527
USER: genes 12 Torsion [CA]-CB--OG-[HG] |==|  0.35913
USER: genes 13 Torsion [C]-CA--CB-[CG] |==|  0.71840
USER: genes 14 Torsion [CA]-CB--CG-[CD] |==|  0.24677
USER: genes 15 Torsion [CB]-CG--CD-[CE] |==|  0.45027
USER: genes 16 Torsion [CG]-CD--CE-[NZ] |==|  0.19329
USER: genes 17 Torsion [CD]-CE--NZ-[HZ3] |==|  0.77233
USER: genes 18 Torsion [C]-N--CA-[CB] |==|  0.87001
USER: genes 19 Torsion [N]-CA--C-[N] |==|  0.37290
USER: genes 20 Torsion [C]-N--CA-[CB] |==|  0.48366
USER: genes 21 Torsion [N]-CA--C-[N] |==|  0.38356
USER: genes 22 Torsion [N]-CA--C-[N] |==|  0.09550
USER: genes 23 Torsion [C]-N--CA-[CB] |==|  0.80975
USER: genes 24 Torsion [N]-CA--C-[O] |==|  0.15790
USER: genes 25 Torsion [N]-CA--CB-[CG] |==|  0.28118
USER: genes 26 Torsion [CA]-CB--CG-[CD] |==|  0.76376
USER: genes 27 Torsion [CB]-CG--CD-[NE] |==|  0.25772
USER: genes 28 Torsion [CG]-CD--NE-[HE] |==|  0.13694
ROOT
ATOM      1  C   ARG A  15      42.218  58.343  40.870  1.00 45.62 LIG 0.24  C 
ATOM      2 O    ARG A  15      41.048  58.409  41.272  1.00 41.49 LIG-0.27  OA
ATOM      3  N   ALA A  16      42.633  58.950  39.754  1.00 45.00 LIG-0.35  N 
ATOM      4 H    ALA A  16      43.456  59.006  39.512  1.00 45.00 LIG 0.16  HD
ENDROOT
BRANCH 1 5
ATOM      5  CA  ARG A  15      43.247  57.514  41.640  1.00 46.83 LIG 0.18  C 
BRANCH 5 6
ATOM      6  CB  ARG A  15      42.500  56.453  42.480  1.00 49.57 LIG 0.04  C 
BRANCH 6 7
ATOM      7  CG  ARG A  15      43.362  55.685  43.505  1.00 52.69 LIG 0.02  C 
BRANCH 7 8
ATOM      8  CD  ARG A  15      43.231  54.168  43.358  1.00 53.59 LIG 0.14  C 
BRANCH 8 9
ATOM      9  NE  ARG A  15      41.836  53.735  43.321  1.00 54.25 LIG-0.23  N 
ATOM     10  CZ  ARG A  15      41.268  52.909  44.192  1.00 51.22 LIG 0.67  C 
ATOM     11  NH1 ARG A  15      41.966  52.379  45.190  1.00 49.54 LIG-0.23  N 
ATOM     12  NH2 ARG A  15      39.991  52.598  44.056  1.00 55.83 LIG-0.23  N 
ATOM     13 2HH1 ARG A  15      41.584  51.845  45.746  1.00 49.54 LIG 0.17  HD
ATOM     14 1HH1 ARG A  15      42.800  52.569  45.280  1.00 49.54 LIG 0.17  HD
ATOM     15 2HH2 ARG A  15      39.616  52.064  44.617  1.00 55.83 LIG 0.17  HD
ATOM     16 1HH2 ARG A  15      39.534  52.930  43.408  1.00 55.83 LIG 0.17  HD
ATOM     17 HE   ARG A  15      41.344  54.039  42.684  1.00 54.25 LIG 0.18  HD
ENDBRANCH 8 9
ENDBRANCH 7 8
ENDBRANCH 6 7
ENDBRANCH 5 6
BRANCH 5 18
ATOM     18  N   ARG A  15      44.084  58.359  42.505  1.00 49.13 LIG-0.35  N 
ATOM     19 H    ARG A  15      44.930  58.271  42.372  1.00 49.13 LIG 0.16  HD
ATOM     20  C   LYS A  14      43.557  59.185  43.411  1.00 54.29 LIG 0.24  C 
ATOM     21 O    LYS A  14      42.341  59.282  43.596  1.00 54.85 LIG-0.27  OA
BRANCH 20 22
ATOM     22  CA  LYS A  14      44.516  60.041  44.248  1.00 53.70 LIG 0.18  C 
BRANCH 22 23
ATOM     23  N   LYS A  14      43.857  60.316  45.532  1.00 51.97 LIG-0.35  N 
ATOM     24  C   SER A  13      44.155  61.408  46.239  1.00 54.08 LIG 0.26  C 
ATOM     25 O    SER A  13      45.114  62.154  45.967  1.00 52.27 LIG-0.27  OA
ATOM     26 H    LYS A  14      43.281  59.725  45.775  1.00 51.97 LIG 0.16  HD
BRANCH 24 27
ATOM     27  CA  SER A  13      43.233  61.735  47.419  1.00 61.00 LIG 0.42  C 
ATOM     28  N   SER A  13      42.063  62.548  47.062  1.00 64.04 LIG 0.62  N 
BRANCH 27 29
ATOM     29  CB  SER A  13      42.803  60.450  48.122  1.00 62.15 LIG 0.21  C 
BRANCH 29 30
ATOM     30 OG   SER A  13      43.848  59.969  48.941  1.00 63.97 LIG-0.40  OA
ATOM     31 HG   SER A  13      43.552  59.816  49.712  1.00 63.97 LIG 0.21  HD
ENDBRANCH 29 30
ENDBRANCH 27 29
ENDBRANCH 24 27
ENDBRANCH 22 23
BRANCH 22 32
ATOM     32  CB  LYS A  14      45.831  59.269  44.452  1.00 53.93 LIG 0.04  C 
BRANCH 32 33
ATOM     33  CG  LYS A  14      46.011  58.588  45.819  1.00 52.68 LIG 0.00  C 
BRANCH 33 34
ATOM     34  CD  LYS A  14      45.447  57.175  45.842  1.00 44.05 LIG 0.03  C 
BRANCH 34 35
ATOM     35  CE  LYS A  14      46.005  56.367  47.015  1.00 42.34 LIG 0.23  C 
BRANCH 35 36
ATOM     36  NZ  LYS A  14      45.460  56.891  48.338  1.00 42.55 LIG-0.08  N 
ATOM     37 HZ1  LYS A  14      44.607  57.125  48.237  1.00 42.55 LIG 0.27  HD
ATOM     38 HZ2  LYS A  14      45.520  56.255  48.957  1.00 42.55 LIG 0.27  HD
ATOM     39 HZ3  LYS A  14      45.934  57.600  48.595  1.00 42.55 LIG 0.27  HD
ENDBRANCH 35 36
ENDBRANCH 34 35
ENDBRANCH 33 34
ENDBRANCH 32 33
ENDBRANCH 22 32
ENDBRANCH 20 22
ENDBRANCH 5 18
ENDBRANCH 1 5
BRANCH 3 40
ATOM     40  CA  ALA A  16      41.687  59.579  38.841  1.00 45.18 LIG 0.17  C 
ATOM     41  CB  ALA A  16      40.505  58.661  38.560  1.00 49.83 LIG 0.04  C 
BRANCH 40 42
ATOM     42  C   ALA A  16      41.189  60.899  39.445  1.00 49.79 LIG 0.24  C 
ATOM     43 O    ALA A  16      40.844  60.974  40.631  1.00 50.51 LIG-0.27  OA
ATOM     44  N   ARG A  17      41.168  61.938  38.623  1.00 50.44 LIG-0.35  N 
ATOM     45 H    ARG A  17      41.495  61.917  37.828  1.00 50.44 LIG 0.16  HD
BRANCH 44 46
ATOM     46  CA  ARG A  17      40.588  63.218  38.984  1.00 55.17 LIG 0.18  C 
BRANCH 46 47
ATOM     47  C   ARG A  17      39.083  63.021  39.192  1.00 63.19 LIG 0.24  C 
ATOM     48  N   PRO A  18      38.528  63.647  40.240  1.00 71.41 LIG-0.34  N 
ATOM     49  CD  PRO A  18      39.339  64.144  41.363  1.00 72.83 LIG 0.13  C 
ATOM     50  CA  PRO A  18      37.085  63.670  40.552  1.00 77.88 LIG 0.18  C 
ATOM     51  CG  PRO A  18      38.377  64.068  42.514  1.00 77.48 LIG 0.02  C 
ATOM     52  CB  PRO A  18      37.038  64.395  41.901  1.00 79.41 LIG 0.04  C 
ATOM     53 O    ARG A  17      38.441  62.278  38.447  1.00 63.05 LIG-0.27  OA
BRANCH 50 54
ATOM     54  C   PRO A  18      36.247  64.438  39.526  1.00 78.56 LIG 0.24  C 
ATOM     55 O    PRO A  18      35.241  65.052  39.904  1.00 75.87 LIG-0.27  OA
ATOM     56  N   ALA A  19      36.655  64.366  38.254  1.00 80.14 LIG-0.35  N 
ATOM     57 H    ALA A  19      37.277  63.830  37.996  1.00 80.14 LIG 0.16  HD
BRANCH 56 58
ATOM     58  CA  ALA A  19      36.100  65.180  37.157  1.00 81.44 LIG 0.16  C 
ATOM     59  CB  ALA A  19      34.663  64.756  36.868  1.00 83.90 LIG 0.04  C 
BRANCH 58 60
ATOM     60  C   ALA A  19      36.181  66.703  37.303  1.00 82.06 LIG 0.22  C 
ATOM     61 O    ALA A  19      37.279  67.258  37.475  1.00 84.95 LIG-0.29  OA
ENDBRANCH 58 60
ENDBRANCH 56 58
ENDBRANCH 50 54
ENDBRANCH 46 47
BRANCH 46 62
ATOM     62  CB  ARG A  17      40.881  64.209  37.844  1.00 51.88 LIG 0.04  C 
BRANCH 62 63
ATOM     63  CG  ARG A  17      39.760  64.491  36.884  1.00 49.36 LIG 0.02  C 
BRANCH 63 64
ATOM     64  CD  ARG A  17      39.729  63.412  35.763  1.00 46.57 LIG 0.14  C 
BRANCH 64 65
ATOM     65  NE  ARG A  17      38.831  62.281  36.069  1.00 43.47 LIG-0.23  N 
ATOM     66 HE   ARG A  17      38.033  62.467  36.329  1.00 43.47 LIG 0.18  HD
ATOM     67  CZ  ARG A  17      39.162  60.987  35.972  1.00 44.86 LIG 0.67  C 
ATOM     68  NH2 ARG A  17      38.257  60.068  36.291  1.00 38.62 LIG-0.23  N 
ATOM     69  NH1 ARG A  17      40.392  60.604  35.577  1.00 40.09 LIG-0.23  N 
ATOM     70 1HH2 ARG A  17      37.475  60.309  36.555  1.00 38.62 LIG 0.17  HD
ATOM     71 2HH2 ARG A  17      38.454  59.233  36.234  1.00 38.62 LIG 0.17  HD
ATOM     72 2HH1 ARG A  17      40.585  59.768  35.522  1.00 40.09 LIG 0.17  HD
ATOM     73 1HH1 ARG A  17      40.985  61.196  35.381  1.00 40.09 LIG 0.17  HD
ENDBRANCH 64 65
ENDBRANCH 63 64
ENDBRANCH 62 63
ENDBRANCH 46 62
ENDBRANCH 44 46
ENDBRANCH 40 42
ENDBRANCH 3 40
TORSDOF 27
ENDMDL
MODEL 12
USER: ADFR SOLUTION from run 162
USER: SCORE 19.986763 LL:  -2.250 LR: -18.725 RR:   0.000 FEB: -10.671
USER: RMSD 7.592473
USER: SEED 161
USER: STATUS no improvement in best in 7 clusters for 5 generations
USER: GENES 29
USER: genes 0 Translation |==|  0.61928 0.27935 0.52872
USER: genes 1 Rotation |==|  0.57669 0.90799 0.54835 0.77445
USER: genes 2 Torsion [N]-C--CA-[N] |==|  0.37485
USER: genes 3 Torsion [C]-CA--CB-[CG] |==|  0.81739
USER: genes 4 Torsion [CA]-CB--CG-[CD] |==|  0.63080
USER: genes 5 Torsion [CB]-CG--CD-[NE] |==|  0.00107
USER: genes 6 Torsion [CG]-CD--NE-[HE] |==|  0.93168
USER: genes 7 Torsion [C]-CA--N-[C] |==|  0.83171
USER: genes 8 Torsion [N]-C--CA-[N] |==|  0.96654
USER: genes 9 Torsion [C]-CA--N-[C] |==|  0.81129
USER: genes 10 Torsion [N]-C--CA-[N] |==|  0.18898
USER: genes 11 Torsion [C]-CA--CB-[OG] |==|  0.34599
USER: genes 12 Torsion [CA]-CB--OG-[HG] |==|  0.62611
USER: genes 13 Torsion [C]-CA--CB-[CG] |==|  0.19887
USER: genes 14 Torsion [CA]-CB--CG-[CD] |==|  0.49125
USER: genes 15 Torsion [CB]-CG--CD-[CE] |==|  0.96934
USER: genes 16 Torsion [CG]-CD--CE-[NZ] |==|  0.41399
USER: genes 17 Torsion [CD]-CE--NZ-[HZ3] |==|  0.24687
USER: genes 18 Torsion [C]-N--CA-[CB] |==|  0.16261
USER: genes 19 Torsion [N]-CA--C-[N] |==|  0.63329
USER: genes 20 Torsion [C]-N--CA-[CB] |==|  0.76508
USER: genes 21 Torsion [N]-CA--C-[N] |==|  0.22093
USER: genes 22 Torsion [N]-CA--C-[N] |==|  0.35559
USER: genes 23 Torsion [C]-N--CA-[CB] |==|  0.21409
USER: genes 24 Torsion [N]-CA--C-[O] |==|  0.89851
USER: genes 25 Torsion [N]-CA--CB-[CG] |==|  0.08420
USER: genes 26 Torsion [CA]-CB--CG-[CD] |==|  0.29585
USER: genes 27 Torsion [CB]-CG--CD-[NE] |==|  0.04507
USER: genes 28 Torsion [CG]-CD--NE-[HE] |==|  0.02318
ROOT
ATOM      1  C   ARG A  15      42.353  53.631  42.394  1.00 45.62 LIG 0.24  C 
ATOM      2 O    ARG A  15      43.419  53.307  42.937  1.00 41.49 LIG-0.27  OA
ATOM      3  N   ALA A  16      42.140  54.852  41.893  1.00 45.00 LIG-0.35  N 
ATOM      4 H    ALA A  16      41.454  55.068  41.422  1.00 45.00 LIG 0.16  HD
ENDROOT
BRANCH 1 5
ATOM      5  CA  ARG A  15      41.202  52.628  42.309  1.00 46.83 LIG 0.18  C 
BRANCH 5 6
ATOM      6  CB  ARG A  15      40.538  52.516  43.700  1.00 49.57 LIG 0.04  C 
BRANCH 6 7
ATOM      7  CG  ARG A  15      41.420  51.909  44.813  1.00 52.69 LIG 0.02  C 
BRANCH 7 8
ATOM      8  CD  ARG A  15      40.685  50.837  45.620  1.00 53.59 LIG 0.14  C 
BRANCH 8 9
ATOM      9  NE  ARG A  15      39.319  50.627  45.146  1.00 54.25 LIG-0.23  N 
ATOM     10  CZ  ARG A  15      38.617  49.512  45.306  1.00 51.22 LIG 0.67  C 
ATOM     11  NH1 ARG A  15      39.139  48.454  45.916  1.00 49.54 LIG-0.23  N 
ATOM     12  NH2 ARG A  15      37.382  49.447  44.838  1.00 55.83 LIG-0.23  N 
ATOM     13 2HH1 ARG A  15      38.671  47.738  46.011  1.00 49.54 LIG 0.17  HD
ATOM     14 1HH1 ARG A  15      39.945  48.485  46.215  1.00 49.54 LIG 0.17  HD
ATOM     15 2HH2 ARG A  15      36.921  48.728  44.938  1.00 55.83 LIG 0.17  HD
ATOM     16 1HH2 ARG A  15      37.039  50.125  44.434  1.00 55.83 LIG 0.17  HD
ATOM     17 HE   ARG A  15      38.940  51.278  44.731  1.00 54.25 LIG 0.18  HD
ENDBRANCH 8 9
ENDBRANCH 7 8
ENDBRANCH 6 7
ENDBRANCH 5 6
BRANCH 5 18
ATOM     18  N   ARG A  15      41.667  51.310  41.852  1.00 49.13 LIG-0.35  N 
ATOM     19 H    ARG A  15      41.531  50.674  42.415  1.00 49.13 LIG 0.16  HD
ATOM     20  C   LYS A  14      42.247  51.137  40.662  1.00 54.29 LIG 0.24  C 
ATOM     21 O    LYS A  14      42.446  52.068  39.878  1.00 54.85 LIG-0.27  OA
BRANCH 20 22
ATOM     22  CA  LYS A  14      42.676  49.718  40.271  1.00 53.70 LIG 0.18  C 
BRANCH 22 23
ATOM     23  N   LYS A  14      42.591  48.882  41.476  1.00 51.97 LIG-0.35  N 
ATOM     24  C   SER A  13      43.422  49.068  42.504  1.00 54.08 LIG 0.26  C 
ATOM     25 O    SER A  13      44.419  49.813  42.447  1.00 52.27 LIG-0.27  OA
ATOM     26 H    LYS A  14      41.975  48.282  41.455  1.00 51.97 LIG 0.16  HD
BRANCH 24 27
ATOM     27  CA  SER A  13      43.083  48.329  43.803  1.00 61.00 LIG 0.42  C 
ATOM     28  N   SER A  13      43.226  46.869  43.720  1.00 64.04 LIG 0.62  N 
BRANCH 27 29
ATOM     29  CB  SER A  13      43.911  48.888  44.957  1.00 62.15 LIG 0.21  C 
BRANCH 29 30
ATOM     30 OG   SER A  13      43.064  49.309  46.006  1.00 63.97 LIG-0.40  OA
ATOM     31 HG   SER A  13      43.312  50.063  46.281  1.00 63.97 LIG 0.21  HD
ENDBRANCH 29 30
ENDBRANCH 27 29
ENDBRANCH 24 27
ENDBRANCH 22 23
BRANCH 22 32
ATOM     32  CB  LYS A  14      41.741  49.198  39.165  1.00 53.93 LIG 0.04  C 
BRANCH 32 33
ATOM     33  CG  LYS A  14      41.912  49.839  37.777  1.00 52.68 LIG 0.00  C 
BRANCH 33 34
ATOM     34  CD  LYS A  14      41.002  49.211  36.732  1.00 44.05 LIG 0.03  C 
BRANCH 34 35
ATOM     35  CE  LYS A  14      40.349  47.930  37.255  1.00 42.34 LIG 0.23  C 
BRANCH 35 36
ATOM     36  NZ  LYS A  14      38.974  47.732  36.628  1.00 42.55 LIG-0.08  N 
ATOM     37 HZ1  LYS A  14      38.452  47.282  37.191  1.00 42.55 LIG 0.27  HD
ATOM     38 HZ2  LYS A  14      38.610  48.525  36.456  1.00 42.55 LIG 0.27  HD
ATOM     39 HZ3  LYS A  14      39.057  47.273  35.869  1.00 42.55 LIG 0.27  HD
ENDBRANCH 35 36
ENDBRANCH 34 35
ENDBRANCH 33 34
ENDBRANCH 32 33
ENDBRANCH 22 32
ENDBRANCH 20 22
ENDBRANCH 5 18
ENDBRANCH 1 5
BRANCH 3 40
ATOM     40  CA  ALA A  16      43.088  55.936  42.117  1.00 45.18 LIG 0.17  C 
ATOM     41  CB  ALA A  16      44.468  55.574  41.586  1.00 49.83 LIG 0.04  C 
BRANCH 40 42
ATOM     42  C   ALA A  16      42.583  57.211  41.429  1.00 49.79 LIG 0.24  C 
ATOM     43 O    ALA A  16      41.419  57.604  41.574  1.00 50.51 LIG-0.27  OA
ATOM     44  N   ARG A  17      43.474  57.858  40.689  1.00 50.44 LIG-0.35  N 
ATOM     45 H    ARG A  17      44.306  57.645  40.660  1.00 50.44 LIG 0.16  HD
BRANCH 44 46
ATOM     46  CA  ARG A  17      43.129  58.992  39.852  1.00 55.17 LIG 0.18  C 
BRANCH 46 47
ATOM     47  C   ARG A  17      42.059  59.814  40.576  1.00 63.19 LIG 0.24  C 
ATOM     48  N   PRO A  18      42.481  60.638  41.547  1.00 71.41 LIG-0.34  N 
ATOM     49  CD  PRO A  18      43.799  60.478  42.179  1.00 72.83 LIG 0.13  C 
ATOM     50  CA  PRO A  18      41.627  61.587  42.289  1.00 77.88 LIG 0.18  C 
ATOM     51  CG  PRO A  18      43.566  61.030  43.556  1.00 77.48 LIG 0.02  C 
ATOM     52  CB  PRO A  18      42.582  62.154  43.344  1.00 79.41 LIG 0.04  C 
ATOM     53 O    ARG A  17      40.867  59.673  40.297  1.00 63.05 LIG-0.27  OA
BRANCH 50 54
ATOM     54  C   PRO A  18      41.081  62.728  41.424  1.00 78.56 LIG 0.24  C 
ATOM     55 O    PRO A  18      41.868  63.415  40.761  1.00 75.87 LIG-0.27  OA
ATOM     56  N   ALA A  19      39.759  62.925  41.471  1.00 80.14 LIG-0.35  N 
ATOM     57 H    ALA A  19      39.249  62.523  42.035  1.00 80.14 LIG 0.16  HD
BRANCH 56 58
ATOM     58  CA  ALA A  19      39.024  63.839  40.576  1.00 81.44 LIG 0.16  C 
ATOM     59  CB  ALA A  19      38.852  63.197  39.202  1.00 83.90 LIG 0.04  C 
BRANCH 58 60
ATOM     60  C   ALA A  19      37.682  64.382  41.076  1.00 82.06 LIG 0.22  C 
ATOM     61 O    ALA A  19      36.927  63.662  41.750  1.00 84.95 LIG-0.29  OA
ENDBRANCH 58 60
ENDBRANCH 56 58
ENDBRANCH 50 54
ENDBRANCH 46 47
BRANCH 46 62
ATOM     62  CB  ARG A  17      42.616  58.448  38.507  1.00 51.88 LIG 0.04  C 
BRANCH 62 63
ATOM     63  CG  ARG A  17      41.923  57.115  38.532  1.00 49.36 LIG 0.02  C 
BRANCH 63 64
ATOM     64  CD  ARG A  17      40.390  57.302  38.340  1.00 46.57 LIG 0.14  C 
BRANCH 64 65
ATOM     65  NE  ARG A  17      40.029  58.632  37.809  1.00 43.47 LIG-0.23  N 
ATOM     66 HE   ARG A  17      40.670  59.143  37.549  1.00 43.47 LIG 0.18  HD
ATOM     67  CZ  ARG A  17      38.781  59.105  37.702  1.00 44.86 LIG 0.67  C 
ATOM     68  NH2 ARG A  17      38.599  60.329  37.217  1.00 38.62 LIG-0.23  N 
ATOM     69  NH1 ARG A  17      37.717  58.376  38.092  1.00 40.09 LIG-0.23  N 
ATOM     70 1HH2 ARG A  17      39.276  60.801  36.979  1.00 38.62 LIG 0.17  HD
ATOM     71 2HH2 ARG A  17      37.803  60.647  37.141  1.00 38.62 LIG 0.17  HD
ATOM     72 2HH1 ARG A  17      36.923  58.698  38.014  1.00 40.09 LIG 0.17  HD
ATOM     73 1HH1 ARG A  17      37.831  57.588  38.418  1.00 40.09 LIG 0.17  HD
ENDBRANCH 64 65
ENDBRANCH 63 64
ENDBRANCH 62 63
ENDBRANCH 46 62
ENDBRANCH 44 46
ENDBRANCH 40 42
ENDBRANCH 3 40
TORSDOF 27
ENDMDL
MODEL 13
USER: ADFR SOLUTION from run 191
USER: SCORE 18.616553 LL:  -2.373 LR: -18.657 RR:   0.000 FEB: -10.603
USER: RMSD 3.806407
USER: SEED 190
USER: STATUS no improvement in best in 1 clusters for 5 generations
USER: GENES 29
USER: genes 0 Translation |==|  0.54882 0.44564 0.43972
USER: genes 1 Rotation |==|  0.54723 0.69827 0.58425 0.94873
USER: genes 2 Torsion [N]-C--CA-[N] |==|  0.40787
USER: genes 3 Torsion [C]-CA--CB-[CG] |==|  0.52027
USER: genes 4 Torsion [CA]-CB--CG-[CD] |==|  0.71105
USER: genes 5 Torsion [CB]-CG--CD-[NE] |==|  0.92937
USER: genes 6 Torsion [CG]-CD--NE-[HE] |==|  0.79612
USER: genes 7 Torsion [C]-CA--N-[C] |==|  0.59038
USER: genes 8 Torsion [N]-C--CA-[N] |==|  0.02756
USER: genes 9 Torsion [C]-CA--N-[C] |==|  0.60166
USER: genes 10 Torsion [N]-C--CA-[N] |==|  0.89031
USER: genes 11 Torsion [C]-CA--CB-[OG] |==|  0.43354
USER: genes 12 Torsion [CA]-CB--OG-[HG] |==|  0.20036
USER: genes 13 Torsion [C]-CA--CB-[CG] |==|  0.32923
USER: genes 14 Torsion [CA]-CB--CG-[CD] |==|  0.31994
USER: genes 15 Torsion [CB]-CG--CD-[CE] |==|  0.76594
USER: genes 16 Torsion [CG]-CD--CE-[NZ] |==|  0.39557
USER: genes 17 Torsion [CD]-CE--NZ-[HZ3] |==|  0.45296
USER: genes 18 Torsion [C]-N--CA-[CB] |==|  0.30968
USER: genes 19 Torsion [N]-CA--C-[N] |==|  0.34151
USER: genes 20 Torsion [C]-N--CA-[CB] |==|  0.85979
USER: genes 21 Torsion [N]-CA--C-[N] |==|  0.35594
USER: genes 22 Torsion [N]-CA--C-[N] |==|  0.30868
USER: genes 23 Torsion [C]-N--CA-[CB] |==|  0.56791
USER: genes 24 Torsion [N]-CA--C-[O] |==|  0.37387
USER: genes 25 Torsion [N]-CA--CB-[CG] |==|  0.68442
USER: genes 26 Torsion [CA]-CB--CG-[CD] |==|  0.09781
USER: genes 27 Torsion [CB]-CG--CD-[NE] |==|  0.76088
USER: genes 28 Torsion [CG]-CD--NE-[HE] |==|  0.96364
ROOT
ATOM      1  C   ARG A  15      41.243  58.620  40.592  1.00 45.62 LIG 0.24  C 
ATOM      2 O    ARG A  15      41.217  58.256  41.777  1.00 41.49 LIG-0.27  OA
ATOM      3  N   ALA A  16      41.606  59.853  40.224  1.00 45.00 LIG-0.35  N 
ATOM      4 H    ALA A  16      41.732  60.095  39.409  1.00 45.00 LIG 0.16  HD
ENDROOT
BRANCH 1 5
ATOM      5  CA  ARG A  15      40.816  57.656  39.486  1.00 46.83 LIG 0.18  C 
BRANCH 5 6
ATOM      6  CB  ARG A  15      39.288  57.774  39.288  1.00 49.57 LIG 0.04  C 
BRANCH 6 7
ATOM      7  CG  ARG A  15      38.657  56.743  38.327  1.00 52.69 LIG 0.02  C 
BRANCH 7 8
ATOM      8  CD  ARG A  15      38.312  57.349  36.966  1.00 53.59 LIG 0.14  C 
BRANCH 8 9
ATOM      9  NE  ARG A  15      38.086  58.790  37.042  1.00 54.25 LIG-0.23  N 
ATOM     10  CZ  ARG A  15      38.922  59.720  36.596  1.00 51.22 LIG 0.67  C 
ATOM     11  NH1 ARG A  15      40.085  59.391  36.045  1.00 49.54 LIG-0.23  N 
ATOM     12  NH2 ARG A  15      38.599  60.996  36.716  1.00 55.83 LIG-0.23  N 
ATOM     13 2HH1 ARG A  15      40.616  60.005  35.762  1.00 49.54 LIG 0.17  HD
ATOM     14 1HH1 ARG A  15      40.306  58.563  35.972  1.00 49.54 LIG 0.17  HD
ATOM     15 2HH2 ARG A  15      39.135  61.605  36.429  1.00 55.83 LIG 0.17  HD
ATOM     16 1HH2 ARG A  15      37.852  61.219  37.080  1.00 55.83 LIG 0.17  HD
ATOM     17 HE   ARG A  15      37.353  59.056  37.404  1.00 54.25 LIG 0.18  HD
ENDBRANCH 8 9
ENDBRANCH 7 8
ENDBRANCH 6 7
ENDBRANCH 5 6
BRANCH 5 18
ATOM     18  N   ARG A  15      41.187  56.269  39.804  1.00 49.13 LIG-0.35  N 
ATOM     19 H    ARG A  15      41.170  56.083  40.644  1.00 49.13 LIG 0.16  HD
ATOM     20  C   LYS A  14      41.521  55.390  38.857  1.00 54.29 LIG 0.24  C 
ATOM     21 O    LYS A  14      41.555  55.683  37.659  1.00 54.85 LIG-0.27  OA
BRANCH 20 22
ATOM     22  CA  LYS A  14      41.871  53.962  39.291  1.00 53.70 LIG 0.18  C 
BRANCH 22 23
ATOM     23  N   LYS A  14      41.517  53.833  40.712  1.00 51.97 LIG-0.35  N 
ATOM     24  C   SER A  13      42.266  53.108  41.545  1.00 54.08 LIG 0.26  C 
ATOM     25 O    SER A  13      43.184  52.359  41.159  1.00 52.27 LIG-0.27  OA
ATOM     26 H    LYS A  14      40.805  54.255  40.945  1.00 51.97 LIG 0.16  HD
BRANCH 24 27
ATOM     27  CA  SER A  13      41.965  53.251  43.041  1.00 61.00 LIG 0.42  C 
ATOM     28  N   SER A  13      41.656  54.624  43.464  1.00 64.04 LIG 0.62  N 
BRANCH 27 29
ATOM     29  CB  SER A  13      40.846  52.296  43.445  1.00 62.15 LIG 0.21  C 
BRANCH 29 30
ATOM     30 OG   SER A  13      40.923  52.009  44.826  1.00 63.97 LIG-0.40  OA
ATOM     31 HG   SER A  13      40.686  52.684  45.266  1.00 63.97 LIG 0.21  HD
ENDBRANCH 29 30
ENDBRANCH 27 29
ENDBRANCH 24 27
ENDBRANCH 22 23
BRANCH 22 32
ATOM     32  CB  LYS A  14      41.078  52.965  38.428  1.00 53.93 LIG 0.04  C 
BRANCH 32 33
ATOM     33  CG  LYS A  14      41.914  52.001  37.568  1.00 52.68 LIG 0.00  C 
BRANCH 33 34
ATOM     34  CD  LYS A  14      41.742  50.550  37.990  1.00 44.05 LIG 0.03  C 
BRANCH 34 35
ATOM     35  CE  LYS A  14      42.671  50.189  39.151  1.00 42.34 LIG 0.23  C 
BRANCH 35 36
ATOM     36  NZ  LYS A  14      41.974  49.247  40.126  1.00 42.55 LIG-0.08  N 
ATOM     37 HZ1  LYS A  14      41.403  49.708  40.629  1.00 42.55 LIG 0.27  HD
ATOM     38 HZ2  LYS A  14      41.530  48.624  39.671  1.00 42.55 LIG 0.27  HD
ATOM     39 HZ3  LYS A  14      42.581  48.856  40.647  1.00 42.55 LIG 0.27  HD
ENDBRANCH 35 36
ENDBRANCH 34 35
ENDBRANCH 33 34
ENDBRANCH 32 33
ENDBRANCH 22 32
ENDBRANCH 20 22
ENDBRANCH 5 18
ENDBRANCH 1 5
BRANCH 3 40
ATOM     40  CA  ALA A  16      41.821  60.903  41.211  1.00 45.18 LIG 0.17  C 
ATOM     41  CB  ALA A  16      43.293  61.284  41.293  1.00 49.83 LIG 0.04  C 
BRANCH 40 42
ATOM     42  C   ALA A  16      40.984  62.135  40.841  1.00 49.79 LIG 0.24  C 
ATOM     43 O    ALA A  16      41.100  62.684  39.738  1.00 50.51 LIG-0.27  OA
ATOM     44  N   ARG A  17      40.134  62.555  41.768  1.00 50.44 LIG-0.35  N 
ATOM     45 H    ARG A  17      39.979  62.124  42.496  1.00 50.44 LIG 0.16  HD
BRANCH 44 46
ATOM     46  CA  ARG A  17      39.377  63.787  41.644  1.00 55.17 LIG 0.18  C 
BRANCH 46 47
ATOM     47  C   ARG A  17      38.320  63.592  40.553  1.00 63.19 LIG 0.24  C 
ATOM     48  N   PRO A  18      37.054  63.897  40.874  1.00 71.41 LIG-0.34  N 
ATOM     49  CD  PRO A  18      36.615  64.006  42.274  1.00 72.83 LIG 0.13  C 
ATOM     50  CA  PRO A  18      35.910  63.879  39.940  1.00 77.88 LIG 0.18  C 
ATOM     51  CG  PRO A  18      35.164  63.626  42.188  1.00 77.48 LIG 0.02  C 
ATOM     52  CB  PRO A  18      34.717  64.170  40.854  1.00 79.41 LIG 0.04  C 
ATOM     53 O    ARG A  17      38.633  63.129  39.454  1.00 63.05 LIG-0.27  OA
BRANCH 50 54
ATOM     54  C   PRO A  18      35.994  64.949  38.846  1.00 78.56 LIG 0.24  C 
ATOM     55 O    PRO A  18      35.843  66.139  39.151  1.00 75.87 LIG-0.27  OA
ATOM     56  N   ALA A  19      36.200  64.508  37.600  1.00 80.14 LIG-0.35  N 
ATOM     57 H    ALA A  19      36.171  63.674  37.393  1.00 80.14 LIG 0.16  HD
BRANCH 56 58
ATOM     58  CA  ALA A  19      36.497  65.381  36.449  1.00 81.44 LIG 0.16  C 
ATOM     59  CB  ALA A  19      36.086  64.691  35.152  1.00 83.90 LIG 0.04  C 
BRANCH 58 60
ATOM     60  C   ALA A  19      35.938  66.807  36.488  1.00 82.06 LIG 0.22  C 
ATOM     61 O    ALA A  19      36.658  67.770  36.180  1.00 84.95 LIG-0.29  OA
ENDBRANCH 58 60
ENDBRANCH 56 58
ENDBRANCH 50 54
ENDBRANCH 46 47
BRANCH 46 62
ATOM     62  CB  ARG A  17      40.363  64.913  41.287  1.00 51.88 LIG 0.04  C 
BRANCH 62 63
ATOM     63  CG  ARG A  17      40.567  65.989  42.316  1.00 49.36 LIG 0.02  C 
BRANCH 63 64
ATOM     64  CD  ARG A  17      40.495  65.383  43.748  1.00 46.57 LIG 0.14  C 
BRANCH 64 65
ATOM     65  NE  ARG A  17      39.118  65.299  44.275  1.00 43.47 LIG-0.23  N 
ATOM     66 HE   ARG A  17      38.505  65.731  43.854  1.00 43.47 LIG 0.18  HD
ATOM     67  CZ  ARG A  17      38.749  64.602  45.357  1.00 44.86 LIG 0.67  C 
ATOM     68  NH2 ARG A  17      37.474  64.623  45.729  1.00 38.62 LIG-0.23  N 
ATOM     69  NH1 ARG A  17      39.644  63.901  46.080  1.00 40.09 LIG-0.23  N 
ATOM     70 1HH2 ARG A  17      36.902  65.079  45.277  1.00 38.62 LIG 0.17  HD
ATOM     71 2HH2 ARG A  17      37.221  64.180  46.421  1.00 38.62 LIG 0.17  HD
ATOM     72 2HH1 ARG A  17      39.387  63.460  46.772  1.00 40.09 LIG 0.17  HD
ATOM     73 1HH1 ARG A  17      40.473  63.895  45.850  1.00 40.09 LIG 0.17  HD
ENDBRANCH 64 65
ENDBRANCH 63 64
ENDBRANCH 62 63
ENDBRANCH 46 62
ENDBRANCH 44 46
ENDBRANCH 40 42
ENDBRANCH 3 40
TORSDOF 27
ENDMDL
MODEL 14
USER: ADFR SOLUTION from run 81
USER: SCORE 19.072355 LL:  -2.439 LR: -18.572 RR:   0.000 FEB: -10.517
USER: RMSD 7.992516
USER: SEED 80
USER: STATUS no improvement in best in 5 clusters for 5 generations
USER: GENES 29
USER: genes 0 Translation |==|  0.52089 0.30517 0.32772
USER: genes 1 Rotation |==|  0.45229 0.12261 0.48302 0.82406
USER: genes 2 Torsion [N]-C--CA-[N] |==|  0.07880
USER: genes 3 Torsion [C]-CA--CB-[CG] |==|  0.47037
USER: genes 4 Torsion [CA]-CB--CG-[CD] |==|  0.51538
USER: genes 5 Torsion [CB]-CG--CD-[NE] |==|  0.68402
USER: genes 6 Torsion [CG]-CD--NE-[HE] |==|  0.96110
USER: genes 7 Torsion [C]-CA--N-[C] |==|  0.66969
USER: genes 8 Torsion [N]-C--CA-[N] |==|  0.15071
USER: genes 9 Torsion [C]-CA--N-[C] |==|  0.56474
USER: genes 10 Torsion [N]-C--CA-[N] |==|  0.17076
USER: genes 11 Torsion [C]-CA--CB-[OG] |==|  0.78553
USER: genes 12 Torsion [CA]-CB--OG-[HG] |==|  0.78788
USER: genes 13 Torsion [C]-CA--CB-[CG] |==|  0.38679
USER: genes 14 Torsion [CA]-CB--CG-[CD] |==|  0.34627
USER: genes 15 Torsion [CB]-CG--CD-[CE] |==|  0.37743
USER: genes 16 Torsion [CG]-CD--CE-[NZ] |==|  0.19403
USER: genes 17 Torsion [CD]-CE--NZ-[HZ3] |==|  0.49960
USER: genes 18 Torsion [C]-N--CA-[CB] |==|  0.23314
USER: genes 19 Torsion [N]-CA--C-[N] |==|  0.12752
USER: genes 20 Torsion [C]-N--CA-[CB] |==|  0.85461
USER: genes 21 Torsion [N]-CA--C-[N] |==|  0.32398
USER: genes 22 Torsion [N]-CA--C-[N] |==|  0.45256
USER: genes 23 Torsion [C]-N--CA-[CB] |==|  0.20924
USER: genes 24 Torsion [N]-CA--C-[O] |==|  0.03358
USER: genes 25 Torsion [N]-CA--CB-[CG] |==|  0.28674
USER: genes 26 Torsion [CA]-CB--CG-[CD] |==|  0.61537
USER: genes 27 Torsion [CB]-CG--CD-[NE] |==|  0.13505
USER: genes 28 Torsion [CG]-CD--NE-[HE] |==|  0.96119
ROOT
ATOM      1  C   ARG A  15      40.803  54.406  38.324  1.00 45.62 LIG 0.24  C 
ATOM      2 O    ARG A  15      40.181  54.475  37.254  1.00 41.49 LIG-0.27  OA
ATOM      3  N   ALA A  16      40.867  55.424  39.189  1.00 45.00 LIG-0.35  N 
ATOM      4 H    ALA A  16      41.200  55.366  39.979  1.00 45.00 LIG 0.16  HD
ENDROOT
BRANCH 1 5
ATOM      5  CA  ARG A  15      41.567  53.131  38.686  1.00 46.83 LIG 0.18  C 
BRANCH 5 6
ATOM      6  CB  ARG A  15      40.834  51.922  38.062  1.00 49.57 LIG 0.04  C 
BRANCH 6 7
ATOM      7  CG  ARG A  15      41.600  50.582  38.107  1.00 52.69 LIG 0.02  C 
BRANCH 7 8
ATOM      8  CD  ARG A  15      40.871  49.468  37.354  1.00 53.59 LIG 0.14  C 
BRANCH 8 9
ATOM      9  NE  ARG A  15      40.406  48.409  38.246  1.00 54.25 LIG-0.23  N 
ATOM     10  CZ  ARG A  15      39.530  47.465  37.922  1.00 51.22 LIG 0.67  C 
ATOM     11  NH1 ARG A  15      38.974  47.430  36.717  1.00 49.54 LIG-0.23  N 
ATOM     12  NH2 ARG A  15      39.195  46.553  38.818  1.00 55.83 LIG-0.23  N 
ATOM     13 2HH1 ARG A  15      38.408  46.812  36.522  1.00 49.54 LIG 0.17  HD
ATOM     14 1HH1 ARG A  15      39.180  48.025  36.131  1.00 49.54 LIG 0.17  HD
ATOM     15 2HH2 ARG A  15      38.628  45.938  38.615  1.00 55.83 LIG 0.17  HD
ATOM     16 1HH2 ARG A  15      39.543  46.574  39.604  1.00 55.83 LIG 0.17  HD
ATOM     17 HE   ARG A  15      40.726  48.396  39.045  1.00 54.25 LIG 0.18  HD
ENDBRANCH 8 9
ENDBRANCH 7 8
ENDBRANCH 6 7
ENDBRANCH 5 6
BRANCH 5 18
ATOM     18  N   ARG A  15      41.685  52.967  40.142  1.00 49.13 LIG-0.35  N 
ATOM     19 H    ARG A  15      40.931  52.900  40.552  1.00 49.13 LIG 0.16  HD
ATOM     20  C   LYS A  14      42.869  52.928  40.756  1.00 54.29 LIG 0.24  C 
ATOM     21 O    LYS A  14      43.937  53.043  40.150  1.00 54.85 LIG-0.27  OA
BRANCH 20 22
ATOM     22  CA  LYS A  14      42.885  52.730  42.276  1.00 53.70 LIG 0.18  C 
BRANCH 22 23
ATOM     23  N   LYS A  14      42.111  51.517  42.573  1.00 51.97 LIG-0.35  N 
ATOM     24  C   SER A  13      41.558  51.329  43.773  1.00 54.08 LIG 0.26  C 
ATOM     25 O    SER A  13      41.804  52.052  44.757  1.00 52.27 LIG-0.27  OA
ATOM     26 H    LYS A  14      42.051  50.960  41.920  1.00 51.97 LIG 0.16  HD
BRANCH 24 27
ATOM     27  CA  SER A  13      40.561  50.171  43.896  1.00 61.00 LIG 0.42  C 
ATOM     28  N   SER A  13      41.138  48.848  43.617  1.00 64.04 LIG 0.62  N 
BRANCH 27 29
ATOM     29  CB  SER A  13      39.897  50.192  45.269  1.00 62.15 LIG 0.21  C 
BRANCH 29 30
ATOM     30 OG   SER A  13      40.778  49.679  46.246  1.00 63.97 LIG-0.40  OA
ATOM     31 HG   SER A  13      40.806  48.841  46.186  1.00 63.97 LIG 0.21  HD
ENDBRANCH 29 30
ENDBRANCH 27 29
ENDBRANCH 24 27
ENDBRANCH 22 23
BRANCH 22 32
ATOM     32  CB  LYS A  14      44.343  52.590  42.750  1.00 53.93 LIG 0.04  C 
BRANCH 32 33
ATOM     33  CG  LYS A  14      44.700  53.312  44.061  1.00 52.68 LIG 0.00  C 
BRANCH 33 34
ATOM     34  CD  LYS A  14      45.301  52.371  45.095  1.00 44.05 LIG 0.03  C 
BRANCH 34 35
ATOM     35  CE  LYS A  14      46.520  52.995  45.779  1.00 42.34 LIG 0.23  C 
BRANCH 35 36
ATOM     36  NZ  LYS A  14      46.099  54.144  46.687  1.00 42.55 LIG-0.08  N 
ATOM     37 HZ1  LYS A  14      45.690  54.770  46.204  1.00 42.55 LIG 0.27  HD
ATOM     38 HZ2  LYS A  14      45.542  53.840  47.311  1.00 42.55 LIG 0.27  HD
ATOM     39 HZ3  LYS A  14      46.819  54.493  47.078  1.00 42.55 LIG 0.27  HD
ENDBRANCH 35 36
ENDBRANCH 34 35
ENDBRANCH 33 34
ENDBRANCH 32 33
ENDBRANCH 22 32
ENDBRANCH 20 22
ENDBRANCH 5 18
ENDBRANCH 1 5
BRANCH 3 40
ATOM     40  CA  ALA A  16      40.357  56.744  38.839  1.00 45.18 LIG 0.17  C 
ATOM     41  CB  ALA A  16      38.857  56.833  39.083  1.00 49.83 LIG 0.04  C 
BRANCH 40 42
ATOM     42  C   ALA A  16      41.084  57.811  39.668  1.00 49.79 LIG 0.24  C 
ATOM     43 O    ALA A  16      40.464  58.717  40.239  1.00 50.51 LIG-0.27  OA
ATOM     44  N   ARG A  17      42.403  57.687  39.739  1.00 50.44 LIG-0.35  N 
ATOM     45 H    ARG A  17      42.830  57.009  39.427  1.00 50.44 LIG 0.16  HD
BRANCH 44 46
ATOM     46  CA  ARG A  17      43.257  58.687  40.352  1.00 55.17 LIG 0.18  C 
BRANCH 46 47
ATOM     47  C   ARG A  17      42.992  58.683  41.861  1.00 63.19 LIG 0.24  C 
ATOM     48  N   PRO A  18      44.014  58.336  42.656  1.00 71.41 LIG-0.34  N 
ATOM     49  CD  PRO A  18      45.181  57.603  42.141  1.00 72.83 LIG 0.13  C 
ATOM     50  CA  PRO A  18      43.995  58.371  44.132  1.00 77.88 LIG 0.18  C 
ATOM     51  CG  PRO A  18      45.638  56.834  43.347  1.00 77.48 LIG 0.02  C 
ATOM     52  CB  PRO A  18      45.347  57.755  44.507  1.00 79.41 LIG 0.04  C 
ATOM     53 O    ARG A  17      41.869  58.943  42.299  1.00 63.05 LIG-0.27  OA
BRANCH 50 54
ATOM     54  C   PRO A  18      43.897  59.785  44.712  1.00 78.56 LIG 0.24  C 
ATOM     55 O    PRO A  18      44.185  60.754  43.998  1.00 75.87 LIG-0.27  OA
ATOM     56  N   ALA A  19      43.524  59.876  45.994  1.00 80.14 LIG-0.35  N 
ATOM     57 H    ALA A  19      43.455  59.189  46.506  1.00 80.14 LIG 0.16  HD
BRANCH 56 58
ATOM     58  CA  ALA A  19      43.190  61.141  46.673  1.00 81.44 LIG 0.16  C 
ATOM     59  CB  ALA A  19      41.811  61.623  46.230  1.00 83.90 LIG 0.04  C 
BRANCH 58 60
ATOM     60  C   ALA A  19      43.291  61.165  48.202  1.00 82.06 LIG 0.22  C 
ATOM     61 O    ALA A  19      43.849  60.234  48.807  1.00 84.95 LIG-0.29  OA
ENDBRANCH 58 60
ENDBRANCH 56 58
ENDBRANCH 50 54
ENDBRANCH 46 47
BRANCH 46 62
ATOM     62  CB  ARG A  17      42.922  60.048  39.718  1.00 51.88 LIG 0.04  C 
BRANCH 62 63
ATOM     63  CG  ARG A  17      42.084  60.990  40.534  1.00 49.36 LIG 0.02  C 
BRANCH 63 64
ATOM     64  CD  ARG A  17      41.024  61.686  39.631  1.00 46.57 LIG 0.14  C 
BRANCH 64 65
ATOM     65  NE  ARG A  17      40.279  60.741  38.776  1.00 43.47 LIG-0.23  N 
ATOM     66 HE   ARG A  17      40.593  59.945  38.697  1.00 43.47 LIG 0.18  HD
ATOM     67  CZ  ARG A  17      39.151  61.028  38.113  1.00 44.86 LIG 0.67  C 
ATOM     68  NH2 ARG A  17      38.589  60.083  37.367  1.00 38.62 LIG-0.23  N 
ATOM     69  NH1 ARG A  17      38.591  62.252  38.175  1.00 40.09 LIG-0.23  N 
ATOM     70 1HH2 ARG A  17      38.950  59.305  37.316  1.00 38.62 LIG 0.17  HD
ATOM     71 2HH2 ARG A  17      37.864  60.251  36.935  1.00 38.62 LIG 0.17  HD
ATOM     72 2HH1 ARG A  17      37.867  62.416  37.742  1.00 40.09 LIG 0.17  HD
ATOM     73 1HH1 ARG A  17      38.959  62.870  38.647  1.00 40.09 LIG 0.17  HD
ENDBRANCH 64 65
ENDBRANCH 63 64
ENDBRANCH 62 63
ENDBRANCH 46 62
ENDBRANCH 44 46
ENDBRANCH 40 42
ENDBRANCH 3 40
TORSDOF 27
ENDMDL
MODEL 15
USER: ADFR SOLUTION from run 159
USER: SCORE 19.919671 LL:  -3.605 LR: -18.321 RR:   0.000 FEB: -10.267
USER: RMSD 7.077057
USER: SEED 158
USER: STATUS searching
USER: GENES 29
USER: genes 0 Translation |==|  0.60500 0.40902 0.50626
USER: genes 1 Rotation |==|  0.20551 0.56032 0.58198 0.89104
USER: genes 2 Torsion [N]-C--CA-[N] |==|  0.80819
USER: genes 3 Torsion [C]-CA--CB-[CG] |==|  0.38567
USER: genes 4 Torsion [CA]-CB--CG-[CD] |==|  0.73096
USER: genes 5 Torsion [CB]-CG--CD-[NE] |==|  0.44543
USER: genes 6 Torsion [CG]-CD--NE-[HE] |==|  0.00787
USER: genes 7 Torsion [C]-CA--N-[C] |==|  0.64918
USER: genes 8 Torsion [N]-C--CA-[N] |==|  0.00038
USER: genes 9 Torsion [C]-CA--N-[C] |==|  0.73828
USER: genes 10 Torsion [N]-C--CA-[N] |==|  0.27889
USER: genes 11 Torsion [C]-CA--CB-[OG] |==|  0.76700
USER: genes 12 Torsion [CA]-CB--OG-[HG] |==|  0.81797
USER: genes 13 Torsion [C]-CA--CB-[CG] |==|  0.28759
USER: genes 14 Torsion [CA]-CB--CG-[CD] |==|  0.83010
USER: genes 15 Torsion [CB]-CG--CD-[CE] |==|  0.55923
USER: genes 16 Torsion [CG]-CD--CE-[NZ] |==|  0.17191
USER: genes 17 Torsion [CD]-CE--NZ-[HZ3] |==|  0.14939
USER: genes 18 Torsion [C]-N--CA-[CB] |==|  0.83752
USER: genes 19 Torsion [N]-CA--C-[N] |==|  0.01111
USER: genes 20 Torsion [C]-N--CA-[CB] |==|  0.20021
USER: genes 21 Torsion [N]-CA--C-[N] |==|  0.39310
USER: genes 22 Torsion [N]-CA--C-[N] |==|  0.12029
USER: genes 23 Torsion [C]-N--CA-[CB] |==|  0.29853
USER: genes 24 Torsion [N]-CA--C-[O] |==|  0.22455
USER: genes 25 Torsion [N]-CA--CB-[CG] |==|  0.43997
USER: genes 26 Torsion [CA]-CB--CG-[CD] |==|  0.42027
USER: genes 27 Torsion [CB]-CG--CD-[NE] |==|  0.32275
USER: genes 28 Torsion [CG]-CD--NE-[HE] |==|  0.06223
ROOT
ATOM      1  C   ARG A  15      42.128  57.522  41.940  1.00 45.62 LIG 0.24  C 
ATOM      2 O    ARG A  15      41.234  58.173  42.499  1.00 41.49 LIG-0.27  OA
ATOM      3  N   ALA A  16      42.617  57.849  40.740  1.00 45.00 LIG-0.35  N 
ATOM      4 H    ALA A  16      43.304  57.478  40.381  1.00 45.00 LIG 0.16  HD
ENDROOT
BRANCH 1 5
ATOM      5  CA  ARG A  15      42.693  56.268  42.608  1.00 46.83 LIG 0.18  C 
BRANCH 5 6
ATOM      6  CB  ARG A  15      44.234  56.380  42.647  1.00 49.57 LIG 0.04  C 
BRANCH 6 7
ATOM      7  CG  ARG A  15      44.905  55.907  43.955  1.00 52.69 LIG 0.02  C 
BRANCH 7 8
ATOM      8  CD  ARG A  15      45.202  57.065  44.909  1.00 53.59 LIG 0.14  C 
BRANCH 8 9
ATOM      9  NE  ARG A  15      45.397  56.613  46.285  1.00 54.25 LIG-0.23  N 
ATOM     10  CZ  ARG A  15      45.615  57.407  47.327  1.00 51.22 LIG 0.67  C 
ATOM     11  NH1 ARG A  15      45.697  58.724  47.181  1.00 49.54 LIG-0.23  N 
ATOM     12  NH2 ARG A  15      45.767  56.876  48.528  1.00 55.83 LIG-0.23  N 
ATOM     13 2HH1 ARG A  15      45.839  59.225  47.866  1.00 49.54 LIG 0.17  HD
ATOM     14 1HH1 ARG A  15      45.607  59.077  46.402  1.00 49.54 LIG 0.17  HD
ATOM     15 2HH2 ARG A  15      45.908  57.384  49.208  1.00 55.83 LIG 0.17  HD
ATOM     16 1HH2 ARG A  15      45.725  56.023  48.630  1.00 55.83 LIG 0.17  HD
ATOM     17 HE   ARG A  15      45.368  55.766  46.430  1.00 54.25 LIG 0.18  HD
ENDBRANCH 8 9
ENDBRANCH 7 8
ENDBRANCH 6 7
ENDBRANCH 5 6
BRANCH 5 18
ATOM     18  N   ARG A  15      42.283  55.046  41.899  1.00 49.13 LIG-0.35  N 
ATOM     19 H    ARG A  15      42.465  55.049  41.058  1.00 49.13 LIG 0.16  HD
ATOM     20  C   LYS A  14      41.683  54.032  42.525  1.00 54.29 LIG 0.24  C 
ATOM     21 O    LYS A  14      41.418  54.057  43.730  1.00 54.85 LIG-0.27  OA
BRANCH 20 22
ATOM     22  CA  LYS A  14      41.316  52.793  41.700  1.00 53.70 LIG 0.18  C 
BRANCH 22 23
ATOM     23  N   LYS A  14      41.749  53.039  40.318  1.00 51.97 LIG-0.35  N 
ATOM     24  C   SER A  13      40.906  53.537  39.410  1.00 54.08 LIG 0.26  C 
ATOM     25 O    SER A  13      39.682  53.652  39.608  1.00 52.27 LIG-0.27  OA
ATOM     26 H    LYS A  14      42.569  52.837  40.156  1.00 51.97 LIG 0.16  HD
BRANCH 24 27
ATOM     27  CA  SER A  13      41.520  53.999  38.084  1.00 61.00 LIG 0.42  C 
ATOM     28  N   SER A  13      41.367  53.037  36.983  1.00 64.04 LIG 0.62  N 
BRANCH 27 29
ATOM     29  CB  SER A  13      40.960  55.363  37.692  1.00 62.15 LIG 0.21  C 
BRANCH 29 30
ATOM     30 OG   SER A  13      39.724  55.210  37.025  1.00 63.97 LIG-0.40  OA
ATOM     31 HG   SER A  13      39.846  54.814  36.294  1.00 63.97 LIG 0.21  HD
ENDBRANCH 29 30
ENDBRANCH 27 29
ENDBRANCH 24 27
ENDBRANCH 22 23
BRANCH 22 32
ATOM     32  CB  LYS A  14      42.025  51.564  42.296  1.00 53.93 LIG 0.04  C 
BRANCH 32 33
ATOM     33  CG  LYS A  14      41.147  50.616  43.131  1.00 52.68 LIG 0.00  C 
BRANCH 33 34
ATOM     34  CD  LYS A  14      40.547  51.303  44.348  1.00 44.05 LIG 0.03  C 
BRANCH 34 35
ATOM     35  CE  LYS A  14      40.137  50.290  45.419  1.00 42.34 LIG 0.23  C 
BRANCH 35 36
ATOM     36  NZ  LYS A  14      41.350  49.516  45.921  1.00 42.55 LIG-0.08  N 
ATOM     37 HZ1  LYS A  14      41.110  48.996  46.603  1.00 42.55 LIG 0.27  HD
ATOM     38 HZ2  LYS A  14      41.672  49.010  45.263  1.00 42.55 LIG 0.27  HD
ATOM     39 HZ3  LYS A  14      41.978  50.087  46.189  1.00 42.55 LIG 0.27  HD
ENDBRANCH 35 36
ENDBRANCH 34 35
ENDBRANCH 33 34
ENDBRANCH 32 33
ENDBRANCH 22 32
ENDBRANCH 20 22
ENDBRANCH 5 18
ENDBRANCH 1 5
BRANCH 3 40
ATOM     40  CA  ALA A  16      41.997  58.892  39.931  1.00 45.18 LIG 0.17  C 
ATOM     41  CB  ALA A  16      40.539  58.564  39.640  1.00 49.83 LIG 0.04  C 
BRANCH 40 42
ATOM     42  C   ALA A  16      42.092  60.236  40.665  1.00 49.79 LIG 0.24  C 
ATOM     43 O    ALA A  16      41.560  61.257  40.213  1.00 50.51 LIG-0.27  OA
ATOM     44  N   ARG A  17      42.765  60.222  41.808  1.00 50.44 LIG-0.35  N 
ATOM     45 H    ARG A  17      43.055  59.501  42.176  1.00 50.44 LIG 0.16  HD
BRANCH 44 46
ATOM     46  CA  ARG A  17      43.079  61.427  42.553  1.00 55.17 LIG 0.18  C 
BRANCH 46 47
ATOM     47  C   ARG A  17      44.125  61.075  43.616  1.00 63.19 LIG 0.24  C 
ATOM     48  N   PRO A  18      45.086  61.981  43.846  1.00 71.41 LIG-0.34  N 
ATOM     49  CD  PRO A  18      45.391  63.048  42.880  1.00 72.83 LIG 0.13  C 
ATOM     50  CA  PRO A  18      46.119  61.879  44.896  1.00 77.88 LIG 0.18  C 
ATOM     51  CG  PRO A  18      46.849  63.305  43.133  1.00 77.48 LIG 0.02  C 
ATOM     52  CB  PRO A  18      47.011  63.093  44.618  1.00 79.41 LIG 0.04  C 
ATOM     53 O    ARG A  17      44.092  59.982  44.186  1.00 63.05 LIG-0.27  OA
BRANCH 50 54
ATOM     54  C   PRO A  18      45.559  61.967  46.319  1.00 78.56 LIG 0.24  C 
ATOM     55 O    PRO A  18      46.164  62.637  47.167  1.00 75.87 LIG-0.27  OA
ATOM     56  N   ALA A  19      44.442  61.272  46.561  1.00 80.14 LIG-0.35  N 
ATOM     57 H    ALA A  19      44.114  60.713  45.997  1.00 80.14 LIG 0.16  HD
BRANCH 56 58
ATOM     58  CA  ALA A  19      43.651  61.379  47.801  1.00 81.44 LIG 0.16  C 
ATOM     59  CB  ALA A  19      42.349  62.126  47.527  1.00 83.90 LIG 0.04  C 
BRANCH 58 60
ATOM     60  C   ALA A  19      43.364  60.081  48.563  1.00 82.06 LIG 0.22  C 
ATOM     61 O    ALA A  19      44.224  59.592  49.314  1.00 84.95 LIG-0.29  OA
ENDBRANCH 58 60
ENDBRANCH 56 58
ENDBRANCH 50 54
ENDBRANCH 46 47
BRANCH 46 62
ATOM     62  CB  ARG A  17      41.776  61.946  43.185  1.00 51.88 LIG 0.04  C 
BRANCH 62 63
ATOM     63  CG  ARG A  17      41.912  62.855  44.374  1.00 49.36 LIG 0.02  C 
BRANCH 63 64
ATOM     64  CD  ARG A  17      40.699  63.827  44.448  1.00 46.57 LIG 0.14  C 
BRANCH 64 65
ATOM     65  NE  ARG A  17      39.872  63.634  45.655  1.00 43.47 LIG-0.23  N 
ATOM     66 HE   ARG A  17      40.242  63.256  46.333  1.00 43.47 LIG 0.18  HD
ATOM     67  CZ  ARG A  17      38.590  64.001  45.777  1.00 44.86 LIG 0.67  C 
ATOM     68  NH2 ARG A  17      37.958  63.754  46.920  1.00 38.62 LIG-0.23  N 
ATOM     69  NH1 ARG A  17      37.929  64.594  44.763  1.00 40.09 LIG-0.23  N 
ATOM     70 1HH2 ARG A  17      38.373  63.365  47.564  1.00 38.62 LIG 0.17  HD
ATOM     71 2HH2 ARG A  17      37.135  63.985  47.014  1.00 38.62 LIG 0.17  HD
ATOM     72 2HH1 ARG A  17      37.106  64.823  44.862  1.00 40.09 LIG 0.17  HD
ATOM     73 1HH1 ARG A  17      38.331  64.744  44.018  1.00 40.09 LIG 0.17  HD
ENDBRANCH 64 65
ENDBRANCH 63 64
ENDBRANCH 62 63
ENDBRANCH 46 62
ENDBRANCH 44 46
ENDBRANCH 40 42
ENDBRANCH 3 40
TORSDOF 27
ENDMDL
MODEL 16
USER: ADFR SOLUTION from run 162
USER: SCORE 20.548275 LL:  -2.801 LR: -18.319 RR:   0.000 FEB: -10.265
USER: RMSD 7.740902
USER: SEED 161
USER: STATUS no improvement in best in 7 clusters for 5 generations
USER: GENES 29
USER: genes 0 Translation |==|  0.62113 0.27773 0.53339
USER: genes 1 Rotation |==|  0.58325 0.89653 0.54716 0.78915
USER: genes 2 Torsion [N]-C--CA-[N] |==|  0.37000
USER: genes 3 Torsion [C]-CA--CB-[CG] |==|  0.83350
USER: genes 4 Torsion [CA]-CB--CG-[CD] |==|  0.63265
USER: genes 5 Torsion [CB]-CG--CD-[NE] |==|  0.98924
USER: genes 6 Torsion [CG]-CD--NE-[HE] |==|  0.94098
USER: genes 7 Torsion [C]-CA--N-[C] |==|  0.83059
USER: genes 8 Torsion [N]-C--CA-[N] |==|  0.95742
USER: genes 9 Torsion [C]-CA--N-[C] |==|  0.81519
USER: genes 10 Torsion [N]-C--CA-[N] |==|  0.19116
USER: genes 11 Torsion [C]-CA--CB-[OG] |==|  0.33864
USER: genes 12 Torsion [CA]-CB--OG-[HG] |==|  0.62678
USER: genes 13 Torsion [C]-CA--CB-[CG] |==|  0.19801
USER: genes 14 Torsion [CA]-CB--CG-[CD] |==|  0.49039
USER: genes 15 Torsion [CB]-CG--CD-[CE] |==|  0.96351
USER: genes 16 Torsion [CG]-CD--CE-[NZ] |==|  0.41859
USER: genes 17 Torsion [CD]-CE--NZ-[HZ3] |==|  0.24768
USER: genes 18 Torsion [C]-N--CA-[CB] |==|  0.13237
USER: genes 19 Torsion [N]-CA--C-[N] |==|  0.11116
USER: genes 20 Torsion [C]-N--CA-[CB] |==|  0.87671
USER: genes 21 Torsion [N]-CA--C-[N] |==|  0.34054
USER: genes 22 Torsion [N]-CA--C-[N] |==|  0.64042
USER: genes 23 Torsion [C]-N--CA-[CB] |==|  0.17282
USER: genes 24 Torsion [N]-CA--C-[O] |==|  0.80517
USER: genes 25 Torsion [N]-CA--CB-[CG] |==|  0.63560
USER: genes 26 Torsion [CA]-CB--CG-[CD] |==|  0.74975
USER: genes 27 Torsion [CB]-CG--CD-[NE] |==|  0.26717
USER: genes 28 Torsion [CG]-CD--NE-[HE] |==|  0.09318
ROOT
ATOM      1  C   ARG A  15      42.382  53.583  42.489  1.00 45.62 LIG 0.24  C 
ATOM      2 O    ARG A  15      43.395  53.217  43.102  1.00 41.49 LIG-0.27  OA
ATOM      3  N   ALA A  16      42.249  54.813  41.983  1.00 45.00 LIG-0.35  N 
ATOM      4 H    ALA A  16      41.606  55.056  41.467  1.00 45.00 LIG 0.16  HD
ENDROOT
BRANCH 1 5
ATOM      5  CA  ARG A  15      41.204  52.623  42.316  1.00 46.83 LIG 0.18  C 
BRANCH 5 6
ATOM      6  CB  ARG A  15      40.467  52.495  43.668  1.00 49.57 LIG 0.04  C 
BRANCH 6 7
ATOM      7  CG  ARG A  15      41.314  51.955  44.841  1.00 52.69 LIG 0.02  C 
BRANCH 7 8
ATOM      8  CD  ARG A  15      40.600  50.845  45.614  1.00 53.59 LIG 0.14  C 
BRANCH 8 9
ATOM      9  NE  ARG A  15      39.244  50.612  45.122  1.00 54.25 LIG-0.23  N 
ATOM     10  CZ  ARG A  15      38.546  49.496  45.302  1.00 51.22 LIG 0.67  C 
ATOM     11  NH1 ARG A  15      39.064  48.461  45.952  1.00 49.54 LIG-0.23  N 
ATOM     12  NH2 ARG A  15      37.321  49.410  44.814  1.00 55.83 LIG-0.23  N 
ATOM     13 2HH1 ARG A  15      38.599  47.745  46.060  1.00 49.54 LIG 0.17  HD
ATOM     14 1HH1 ARG A  15      39.864  48.506  46.265  1.00 49.54 LIG 0.17  HD
ATOM     15 2HH2 ARG A  15      36.863  48.691  44.926  1.00 55.83 LIG 0.17  HD
ATOM     16 1HH2 ARG A  15      36.982  50.073  44.383  1.00 55.83 LIG 0.17  HD
ATOM     17 HE   ARG A  15      38.869  51.248  44.681  1.00 54.25 LIG 0.18  HD
ENDBRANCH 8 9
ENDBRANCH 7 8
ENDBRANCH 6 7
ENDBRANCH 5 6
BRANCH 5 18
ATOM     18  N   ARG A  15      41.647  51.303  41.844  1.00 49.13 LIG-0.35  N 
ATOM     19 H    ARG A  15      41.467  50.657  42.382  1.00 49.13 LIG 0.16  HD
ATOM     20  C   LYS A  14      42.274  51.143  40.676  1.00 54.29 LIG 0.24  C 
ATOM     21 O    LYS A  14      42.537  52.087  39.927  1.00 54.85 LIG-0.27  OA
BRANCH 20 22
ATOM     22  CA  LYS A  14      42.675  49.721  40.265  1.00 53.70 LIG 0.18  C 
BRANCH 22 23
ATOM     23  N   LYS A  14      42.586  48.873  41.461  1.00 51.97 LIG-0.35  N 
ATOM     24  C   SER A  13      43.412  49.051  42.495  1.00 54.08 LIG 0.26  C 
ATOM     25 O    SER A  13      44.407  49.799  42.450  1.00 52.27 LIG-0.27  OA
ATOM     26 H    LYS A  14      41.972  48.272  41.431  1.00 51.97 LIG 0.16  HD
BRANCH 24 27
ATOM     27  CA  SER A  13      43.069  48.299  43.785  1.00 61.00 LIG 0.42  C 
ATOM     28  N   SER A  13      43.234  46.841  43.694  1.00 64.04 LIG 0.62  N 
BRANCH 27 29
ATOM     29  CB  SER A  13      43.875  48.861  44.952  1.00 62.15 LIG 0.21  C 
BRANCH 29 30
ATOM     30 OG   SER A  13      43.008  49.318  45.969  1.00 63.97 LIG-0.40  OA
ATOM     31 HG   SER A  13      43.262  50.073  46.236  1.00 63.97 LIG 0.21  HD
ENDBRANCH 29 30
ENDBRANCH 27 29
ENDBRANCH 24 27
ENDBRANCH 22 23
BRANCH 22 32
ATOM     32  CB  LYS A  14      41.722  49.229  39.161  1.00 53.93 LIG 0.04  C 
BRANCH 32 33
ATOM     33  CG  LYS A  14      41.886  49.889  37.781  1.00 52.68 LIG 0.00  C 
BRANCH 33 34
ATOM     34  CD  LYS A  14      40.962  49.283  36.736  1.00 44.05 LIG 0.03  C 
BRANCH 34 35
ATOM     35  CE  LYS A  14      40.343  47.973  37.227  1.00 42.34 LIG 0.23  C 
BRANCH 35 36
ATOM     36  NZ  LYS A  14      38.974  47.754  36.593  1.00 42.55 LIG-0.08  N 
ATOM     37 HZ1  LYS A  14      38.462  47.281  37.147  1.00 42.55 LIG 0.27  HD
ATOM     38 HZ2  LYS A  14      38.590  48.541  36.436  1.00 42.55 LIG 0.27  HD
ATOM     39 HZ3  LYS A  14      39.069  47.312  35.826  1.00 42.55 LIG 0.27  HD
ENDBRANCH 35 36
ENDBRANCH 34 35
ENDBRANCH 33 34
ENDBRANCH 32 33
ENDBRANCH 22 32
ENDBRANCH 20 22
ENDBRANCH 5 18
ENDBRANCH 1 5
BRANCH 3 40
ATOM     40  CA  ALA A  16      43.218  55.860  42.281  1.00 45.18 LIG 0.17  C 
ATOM     41  CB  ALA A  16      44.643  55.355  42.096  1.00 49.83 LIG 0.04  C 
BRANCH 40 42
ATOM     42  C   ALA A  16      42.970  57.066  41.364  1.00 49.79 LIG 0.24  C 
ATOM     43 O    ALA A  16      43.908  57.694  40.857  1.00 50.51 LIG-0.27  OA
ATOM     44  N   ARG A  17      41.698  57.373  41.147  1.00 50.44 LIG-0.35  N 
ATOM     45 H    ARG A  17      41.043  56.886  41.417  1.00 50.44 LIG 0.16  HD
BRANCH 44 46
ATOM     46  CA  ARG A  17      41.286  58.566  40.432  1.00 55.17 LIG 0.18  C 
BRANCH 46 47
ATOM     47  C   ARG A  17      41.505  58.326  38.935  1.00 63.19 LIG 0.24  C 
ATOM     48  N   PRO A  18      40.435  58.453  38.137  1.00 71.41 LIG-0.34  N 
ATOM     49  CD  PRO A  18      39.064  58.407  38.668  1.00 72.83 LIG 0.13  C 
ATOM     50  CA  PRO A  18      40.456  58.367  36.663  1.00 77.88 LIG 0.18  C 
ATOM     51  CG  PRO A  18      38.285  57.863  37.505  1.00 77.48 LIG 0.02  C 
ATOM     52  CB  PRO A  18      38.971  58.446  36.294  1.00 79.41 LIG 0.04  C 
ATOM     53 O    ARG A  17      42.612  57.986  38.512  1.00 63.05 LIG-0.27  OA
BRANCH 50 54
ATOM     54  C   PRO A  18      41.215  59.516  35.991  1.00 78.56 LIG 0.24  C 
ATOM     55 O    PRO A  18      42.347  59.812  36.396  1.00 75.87 LIG-0.27  OA
ATOM     56  N   ALA A  19      40.572  60.155  35.008  1.00 80.14 LIG-0.35  N 
ATOM     57 H    ALA A  19      39.742  60.019  34.832  1.00 80.14 LIG 0.16  HD
BRANCH 56 58
ATOM     58  CA  ALA A  19      41.198  61.153  34.120  1.00 81.44 LIG 0.16  C 
ATOM     59  CB  ALA A  19      42.322  60.505  33.317  1.00 83.90 LIG 0.04  C 
BRANCH 58 60
ATOM     60  C   ALA A  19      40.271  61.941  33.188  1.00 82.06 LIG 0.22  C 
ATOM     61 O    ALA A  19      39.721  61.376  32.228  1.00 84.95 LIG-0.29  OA
ENDBRANCH 58 60
ENDBRANCH 56 58
ENDBRANCH 50 54
ENDBRANCH 46 47
BRANCH 46 62
ATOM     62  CB  ARG A  17      42.131  59.744  40.950  1.00 51.88 LIG 0.04  C 
BRANCH 62 63
ATOM     63  CG  ARG A  17      41.391  60.993  41.334  1.00 49.36 LIG 0.02  C 
BRANCH 63 64
ATOM     64  CD  ARG A  17      41.266  61.942  40.107  1.00 46.57 LIG 0.14  C 
BRANCH 64 65
ATOM     65  NE  ARG A  17      39.981  61.806  39.394  1.00 43.47 LIG-0.23  N 
ATOM     66 HE   ARG A  17      39.285  61.620  39.864  1.00 43.47 LIG 0.18  HD
ATOM     67  CZ  ARG A  17      39.813  61.950  38.073  1.00 44.86 LIG 0.67  C 
ATOM     68  NH2 ARG A  17      38.599  61.788  37.560  1.00 38.62 LIG-0.23  N 
ATOM     69  NH1 ARG A  17      40.849  62.237  37.261  1.00 40.09 LIG-0.23  N 
ATOM     70 1HH2 ARG A  17      37.938  61.593  38.074  1.00 38.62 LIG 0.17  HD
ATOM     71 2HH2 ARG A  17      38.475  61.877  36.713  1.00 38.62 LIG 0.17  HD
ATOM     72 2HH1 ARG A  17      40.721  62.325  36.415  1.00 40.09 LIG 0.17  HD
ATOM     73 1HH1 ARG A  17      41.640  62.331  37.588  1.00 40.09 LIG 0.17  HD
ENDBRANCH 64 65
ENDBRANCH 63 64
ENDBRANCH 62 63
ENDBRANCH 46 62
ENDBRANCH 44 46
ENDBRANCH 40 42
ENDBRANCH 3 40
TORSDOF 27
ENDMDL
MODEL 17
USER: ADFR SOLUTION from run 124
USER: SCORE 18.974115 LL:  -2.520 LR: -18.296 RR:   0.000 FEB: -10.242
USER: RMSD 6.522177
USER: SEED 123
USER: STATUS searching
USER: GENES 29
USER: genes 0 Translation |==|  0.53623 0.42326 0.44405
USER: genes 1 Rotation |==|  0.52666 0.31028 0.15814 0.81053
USER: genes 2 Torsion [N]-C--CA-[N] |==|  0.02980
USER: genes 3 Torsion [C]-CA--CB-[CG] |==|  0.44996
USER: genes 4 Torsion [CA]-CB--CG-[CD] |==|  0.76384
USER: genes 5 Torsion [CB]-CG--CD-[NE] |==|  0.83263
USER: genes 6 Torsion [CG]-CD--NE-[HE] |==|  0.79810
USER: genes 7 Torsion [C]-CA--N-[C] |==|  0.72484
USER: genes 8 Torsion [N]-C--CA-[N] |==|  0.40096
USER: genes 9 Torsion [C]-CA--N-[C] |==|  0.64667
USER: genes 10 Torsion [N]-C--CA-[N] |==|  0.10718
USER: genes 11 Torsion [C]-CA--CB-[OG] |==|  0.24512
USER: genes 12 Torsion [CA]-CB--OG-[HG] |==|  0.83267
USER: genes 13 Torsion [C]-CA--CB-[CG] |==|  0.32751
USER: genes 14 Torsion [CA]-CB--CG-[CD] |==|  0.67116
USER: genes 15 Torsion [CB]-CG--CD-[CE] |==|  0.54190
USER: genes 16 Torsion [CG]-CD--CE-[NZ] |==|  0.43171
USER: genes 17 Torsion [CD]-CE--NZ-[HZ3] |==|  0.97158
USER: genes 18 Torsion [C]-N--CA-[CB] |==|  0.57943
USER: genes 19 Torsion [N]-CA--C-[N] |==|  0.34784
USER: genes 20 Torsion [C]-N--CA-[CB] |==|  0.38841
USER: genes 21 Torsion [N]-CA--C-[N] |==|  0.86111
USER: genes 22 Torsion [N]-CA--C-[N] |==|  0.80263
USER: genes 23 Torsion [C]-N--CA-[CB] |==|  0.34701
USER: genes 24 Torsion [N]-CA--C-[O] |==|  0.06183
USER: genes 25 Torsion [N]-CA--CB-[CG] |==|  0.41342
USER: genes 26 Torsion [CA]-CB--CG-[CD] |==|  0.51816
USER: genes 27 Torsion [CB]-CG--CD-[NE] |==|  0.22529
USER: genes 28 Torsion [CG]-CD--NE-[HE] |==|  0.05490
ROOT
ATOM      1  C   ARG A  15      41.045  57.949  40.680  1.00 45.62 LIG 0.24  C 
ATOM      2 O    ARG A  15      40.854  59.159  40.869  1.00 41.49 LIG-0.27  OA
ATOM      3  N   ALA A  16      41.610  57.156  41.595  1.00 45.00 LIG-0.35  N 
ATOM      4 H    ALA A  16      41.657  56.300  41.530  1.00 45.00 LIG 0.16  HD
ENDROOT
BRANCH 1 5
ATOM      5  CA  ARG A  15      40.659  57.312  39.344  1.00 46.83 LIG 0.18  C 
BRANCH 5 6
ATOM      6  CB  ARG A  15      39.219  57.745  38.986  1.00 49.57 LIG 0.04  C 
BRANCH 6 7
ATOM      7  CG  ARG A  15      38.818  57.568  37.506  1.00 52.69 LIG 0.02  C 
BRANCH 7 8
ATOM      8  CD  ARG A  15      39.238  58.758  36.641  1.00 53.59 LIG 0.14  C 
BRANCH 8 9
ATOM      9  NE  ARG A  15      38.627  60.008  37.085  1.00 54.25 LIG-0.23  N 
ATOM     10  CZ  ARG A  15      39.264  60.993  37.708  1.00 51.22 LIG 0.67  C 
ATOM     11  NH1 ARG A  15      40.554  60.896  38.004  1.00 49.54 LIG-0.23  N 
ATOM     12  NH2 ARG A  15      38.599  62.083  38.052  1.00 55.83 LIG-0.23  N 
ATOM     13 2HH1 ARG A  15      40.953  61.542  38.408  1.00 49.54 LIG 0.17  HD
ATOM     14 1HH1 ARG A  15      40.992  60.186  37.791  1.00 49.54 LIG 0.17  HD
ATOM     15 2HH2 ARG A  15      39.005  62.725  38.455  1.00 55.83 LIG 0.17  HD
ATOM     16 1HH2 ARG A  15      37.761  62.150  37.872  1.00 55.83 LIG 0.17  HD
ATOM     17 HE   ARG A  15      37.787  60.115  36.930  1.00 54.25 LIG 0.18  HD
ENDBRANCH 8 9
ENDBRANCH 7 8
ENDBRANCH 6 7
ENDBRANCH 5 6
BRANCH 5 18
ATOM     18  N   ARG A  15      40.758  55.846  39.396  1.00 49.13 LIG-0.35  N 
ATOM     19 H    ARG A  15      40.081  55.459  39.759  1.00 49.13 LIG 0.16  HD
ATOM     20  C   LYS A  14      41.817  55.190  38.915  1.00 54.29 LIG 0.24  C 
ATOM     21 O    LYS A  14      42.785  55.767  38.414  1.00 54.85 LIG-0.27  OA
BRANCH 20 22
ATOM     22  CA  LYS A  14      41.813  53.660  38.997  1.00 53.70 LIG 0.18  C 
BRANCH 22 23
ATOM     23  N   LYS A  14      42.479  53.151  37.791  1.00 51.97 LIG-0.35  N 
ATOM     24  C   SER A  13      41.890  52.243  37.009  1.00 54.08 LIG 0.26  C 
ATOM     25 O    SER A  13      40.849  51.640  37.331  1.00 52.27 LIG-0.27  OA
ATOM     26 H    LYS A  14      43.258  53.483  37.643  1.00 51.97 LIG 0.16  HD
BRANCH 24 27
ATOM     27  CA  SER A  13      42.546  51.977  35.650  1.00 61.00 LIG 0.42  C 
ATOM     28  N   SER A  13      44.016  51.978  35.680  1.00 64.04 LIG 0.62  N 
BRANCH 27 29
ATOM     29  CB  SER A  13      42.020  50.674  35.057  1.00 62.15 LIG 0.21  C 
BRANCH 29 30
ATOM     30 OG   SER A  13      40.853  50.918  34.299  1.00 63.97 LIG-0.40  OA
ATOM     31 HG   SER A  13      40.262  51.250  34.795  1.00 63.97 LIG 0.21  HD
ENDBRANCH 29 30
ENDBRANCH 27 29
ENDBRANCH 24 27
ENDBRANCH 22 23
BRANCH 22 32
ATOM     32  CB  LYS A  14      42.557  53.222  40.271  1.00 53.93 LIG 0.04  C 
BRANCH 32 33
ATOM     33  CG  LYS A  14      41.726  52.446  41.307  1.00 52.68 LIG 0.00  C 
BRANCH 33 34
ATOM     34  CD  LYS A  14      41.639  53.172  42.641  1.00 44.05 LIG 0.03  C 
BRANCH 34 35
ATOM     35  CE  LYS A  14      41.142  52.245  43.753  1.00 42.34 LIG 0.23  C 
BRANCH 35 36
ATOM     36  NZ  LYS A  14      41.613  52.739  45.116  1.00 42.55 LIG-0.08  N 
ATOM     37 HZ1  LYS A  14      40.918  53.050  45.576  1.00 42.55 LIG 0.27  HD
ATOM     38 HZ2  LYS A  14      41.986  52.066  45.562  1.00 42.55 LIG 0.27  HD
ATOM     39 HZ3  LYS A  14      42.212  53.389  45.006  1.00 42.55 LIG 0.27  HD
ENDBRANCH 35 36
ENDBRANCH 34 35
ENDBRANCH 33 34
ENDBRANCH 32 33
ENDBRANCH 22 32
ENDBRANCH 20 22
ENDBRANCH 5 18
ENDBRANCH 1 5
BRANCH 3 40
ATOM     40  CA  ALA A  16      42.206  57.707  42.807  1.00 45.18 LIG 0.17  C 
ATOM     41  CB  ALA A  16      43.335  56.820  43.312  1.00 49.83 LIG 0.04  C 
BRANCH 40 42
ATOM     42  C   ALA A  16      42.739  59.117  42.522  1.00 49.79 LIG 0.24  C 
ATOM     43 O    ALA A  16      43.529  59.332  41.595  1.00 50.51 LIG-0.27  OA
ATOM     44  N   ARG A  17      42.289  60.076  43.321  1.00 50.44 LIG-0.35  N 
ATOM     45 H    ARG A  17      41.669  59.951  43.904  1.00 50.44 LIG 0.16  HD
BRANCH 44 46
ATOM     46  CA  ARG A  17      42.800  61.433  43.290  1.00 55.17 LIG 0.18  C 
BRANCH 46 47
ATOM     47  C   ARG A  17      43.815  61.589  44.427  1.00 63.19 LIG 0.24  C 
ATOM     48  N   PRO A  18      43.427  61.186  45.645  1.00 71.41 LIG-0.34  N 
ATOM     49  CD  PRO A  18      42.008  61.000  45.984  1.00 72.83 LIG 0.13  C 
ATOM     50  CA  PRO A  18      44.287  61.155  46.846  1.00 77.88 LIG 0.18  C 
ATOM     51  CG  PRO A  18      41.988  61.280  47.460  1.00 77.48 LIG 0.02  C 
ATOM     52  CB  PRO A  18      43.311  60.750  47.955  1.00 79.41 LIG 0.04  C 
ATOM     53 O    ARG A  17      44.913  62.109  44.218  1.00 63.05 LIG-0.27  OA
BRANCH 50 54
ATOM     54  C   PRO A  18      45.423  60.130  46.761  1.00 78.56 LIG 0.24  C 
ATOM     55 O    PRO A  18      46.585  60.527  46.604  1.00 75.87 LIG-0.27  OA
ATOM     56  N   ALA A  19      45.067  58.843  46.836  1.00 80.14 LIG-0.35  N 
ATOM     57 H    ALA A  19      44.246  58.587  46.813  1.00 80.14 LIG 0.16  HD
BRANCH 56 58
ATOM     58  CA  ALA A  19      46.020  57.725  46.963  1.00 81.44 LIG 0.16  C 
ATOM     59  CB  ALA A  19      45.673  56.881  48.187  1.00 83.90 LIG 0.04  C 
BRANCH 58 60
ATOM     60  C   ALA A  19      46.212  56.824  45.739  1.00 82.06 LIG 0.22  C 
ATOM     61 O    ALA A  19      45.933  57.243  44.604  1.00 84.95 LIG-0.29  OA
ENDBRANCH 58 60
ENDBRANCH 56 58
ENDBRANCH 50 54
ENDBRANCH 46 47
BRANCH 46 62
ATOM     62  CB  ARG A  17      41.608  62.392  43.454  1.00 51.88 LIG 0.04  C 
BRANCH 62 63
ATOM     63  CG  ARG A  17      41.876  63.696  44.150  1.00 49.36 LIG 0.02  C 
BRANCH 63 64
ATOM     64  CD  ARG A  17      40.544  64.467  44.378  1.00 46.57 LIG 0.14  C 
BRANCH 64 65
ATOM     65  NE  ARG A  17      39.794  63.996  45.559  1.00 43.47 LIG-0.23  N 
ATOM     66 HE   ARG A  17      40.230  63.555  46.155  1.00 43.47 LIG 0.18  HD
ATOM     67  CZ  ARG A  17      38.488  64.200  45.775  1.00 44.86 LIG 0.67  C 
ATOM     68  NH2 ARG A  17      37.936  63.708  46.878  1.00 38.62 LIG-0.23  N 
ATOM     69  NH1 ARG A  17      37.727  64.875  44.891  1.00 40.09 LIG-0.23  N 
ATOM     70 1HH2 ARG A  17      38.416  63.267  47.439  1.00 38.62 LIG 0.17  HD
ATOM     71 2HH2 ARG A  17      37.099  63.832  47.032  1.00 38.62 LIG 0.17  HD
ATOM     72 2HH1 ARG A  17      36.890  64.996  45.048  1.00 40.09 LIG 0.17  HD
ATOM     73 1HH1 ARG A  17      38.078  65.184  44.169  1.00 40.09 LIG 0.17  HD
ENDBRANCH 64 65
ENDBRANCH 63 64
ENDBRANCH 62 63
ENDBRANCH 46 62
ENDBRANCH 44 46
ENDBRANCH 40 42
ENDBRANCH 3 40
TORSDOF 27
ENDMDL
MODEL 18
USER: ADFR SOLUTION from run 175
USER: SCORE 20.216667 LL:  -2.632 LR: -18.259 RR:   0.000 FEB: -10.205
USER: RMSD 7.452397
USER: SEED 174
USER: STATUS no improvement in best in 5 clusters for 5 generations
USER: GENES 29
USER: genes 0 Translation |==|  0.62523 0.35970 0.49413
USER: genes 1 Rotation |==|  0.35320 0.90755 0.49259 0.74960
USER: genes 2 Torsion [N]-C--CA-[N] |==|  0.10550
USER: genes 3 Torsion [C]-CA--CB-[CG] |==|  0.52152
USER: genes 4 Torsion [CA]-CB--CG-[CD] |==|  0.91180
USER: genes 5 Torsion [CB]-CG--CD-[NE] |==|  0.51086
USER: genes 6 Torsion [CG]-CD--NE-[HE] |==|  0.11478
USER: genes 7 Torsion [C]-CA--N-[C] |==|  0.16263
USER: genes 8 Torsion [N]-C--CA-[N] |==|  0.37222
USER: genes 9 Torsion [C]-CA--N-[C] |==|  0.79619
USER: genes 10 Torsion [N]-C--CA-[N] |==|  0.78821
USER: genes 11 Torsion [C]-CA--CB-[OG] |==|  0.26580
USER: genes 12 Torsion [CA]-CB--OG-[HG] |==|  0.88360
USER: genes 13 Torsion [C]-CA--CB-[CG] |==|  0.19265
USER: genes 14 Torsion [CA]-CB--CG-[CD] |==|  0.49778
USER: genes 15 Torsion [CB]-CG--CD-[CE] |==|  0.46878
USER: genes 16 Torsion [CG]-CD--CE-[NZ] |==|  0.27353
USER: genes 17 Torsion [CD]-CE--NZ-[HZ3] |==|  0.33760
USER: genes 18 Torsion [C]-N--CA-[CB] |==|  0.54235
USER: genes 19 Torsion [N]-CA--C-[N] |==|  0.38396
USER: genes 20 Torsion [C]-N--CA-[CB] |==|  0.87196
USER: genes 21 Torsion [N]-CA--C-[N] |==|  0.33926
USER: genes 22 Torsion [N]-CA--C-[N] |==|  0.22527
USER: genes 23 Torsion [C]-N--CA-[CB] |==|  0.28905
USER: genes 24 Torsion [N]-CA--C-[O] |==|  0.12899
USER: genes 25 Torsion [N]-CA--CB-[CG] |==|  0.73696
USER: genes 26 Torsion [CA]-CB--CG-[CD] |==|  0.13435
USER: genes 27 Torsion [CB]-CG--CD-[NE] |==|  0.19980
USER: genes 28 Torsion [CG]-CD--NE-[HE] |==|  0.78107
ROOT
ATOM      1  C   ARG A  15      42.446  56.042  41.694  1.00 45.62 LIG 0.24  C 
ATOM      2 O    ARG A  15      43.395  56.749  42.064  1.00 41.49 LIG-0.27  OA
ATOM      3  N   ALA A  16      41.680  56.353  40.644  1.00 45.00 LIG-0.35  N 
ATOM      4 H    ALA A  16      41.088  55.830  40.307  1.00 45.00 LIG 0.16  HD
ENDROOT
BRANCH 1 5
ATOM      5  CA  ARG A  15      42.091  54.772  42.469  1.00 46.83 LIG 0.18  C 
BRANCH 5 6
ATOM      6  CB  ARG A  15      43.328  54.324  43.279  1.00 49.57 LIG 0.04  C 
BRANCH 6 7
ATOM      7  CG  ARG A  15      43.207  52.952  43.977  1.00 52.69 LIG 0.02  C 
BRANCH 7 8
ATOM      8  CD  ARG A  15      41.773  52.641  44.407  1.00 53.59 LIG 0.14  C 
BRANCH 8 9
ATOM      9  NE  ARG A  15      41.677  51.385  45.148  1.00 54.25 LIG-0.23  N 
ATOM     10  CZ  ARG A  15      40.715  50.481  45.000  1.00 51.22 LIG 0.67  C 
ATOM     11  NH1 ARG A  15      39.717  50.675  44.147  1.00 49.54 LIG-0.23  N 
ATOM     12  NH2 ARG A  15      40.744  49.376  45.725  1.00 55.83 LIG-0.23  N 
ATOM     13 2HH1 ARG A  15      39.101  50.081  44.063  1.00 49.54 LIG 0.17  HD
ATOM     14 1HH1 ARG A  15      39.686  51.396  43.678  1.00 49.54 LIG 0.17  HD
ATOM     15 2HH2 ARG A  15      40.125  48.786  45.635  1.00 55.83 LIG 0.17  HD
ATOM     16 1HH2 ARG A  15      41.383  49.246  46.286  1.00 55.83 LIG 0.17  HD
ATOM     17 HE   ARG A  15      42.293  51.218  45.724  1.00 54.25 LIG 0.18  HD
ENDBRANCH 8 9
ENDBRANCH 7 8
ENDBRANCH 6 7
ENDBRANCH 5 6
BRANCH 5 18
ATOM     18  N   ARG A  15      41.647  53.697  41.569  1.00 49.13 LIG-0.35  N 
ATOM     19 H    ARG A  15      40.855  53.404  41.733  1.00 49.13 LIG 0.16  HD
ATOM     20  C   LYS A  14      42.422  53.230  40.588  1.00 54.29 LIG 0.24  C 
ATOM     21 O    LYS A  14      43.562  53.654  40.381  1.00 54.85 LIG-0.27  OA
BRANCH 20 22
ATOM     22  CA  LYS A  14      41.857  52.122  39.691  1.00 53.70 LIG 0.18  C 
BRANCH 22 23
ATOM     23  N   LYS A  14      42.153  52.487  38.299  1.00 51.97 LIG-0.35  N 
ATOM     24  C   SER A  13      41.485  53.468  37.687  1.00 54.08 LIG 0.26  C 
ATOM     25 O    SER A  13      40.470  54.004  38.169  1.00 52.27 LIG-0.27  OA
ATOM     26 H    LYS A  14      42.776  52.023  37.930  1.00 51.97 LIG 0.16  HD
BRANCH 24 27
ATOM     27  CA  SER A  13      42.042  53.943  36.340  1.00 61.00 LIG 0.42  C 
ATOM     28  N   SER A  13      43.232  54.799  36.449  1.00 64.04 LIG 0.62  N 
BRANCH 27 29
ATOM     29  CB  SER A  13      42.319  52.746  35.435  1.00 62.15 LIG 0.21  C 
BRANCH 29 30
ATOM     30 OG   SER A  13      41.224  52.524  34.571  1.00 63.97 LIG-0.40  OA
ATOM     31 HG   SER A  13      40.507  52.616  34.999  1.00 63.97 LIG 0.21  HD
ENDBRANCH 29 30
ENDBRANCH 27 29
ENDBRANCH 24 27
ENDBRANCH 22 23
BRANCH 22 32
ATOM     32  CB  LYS A  14      42.517  50.784  40.067  1.00 53.93 LIG 0.04  C 
BRANCH 32 33
ATOM     33  CG  LYS A  14      42.131  50.202  41.438  1.00 52.68 LIG 0.00  C 
BRANCH 33 34
ATOM     34  CD  LYS A  14      42.815  48.872  41.716  1.00 44.05 LIG 0.03  C 
BRANCH 34 35
ATOM     35  CE  LYS A  14      42.643  48.446  43.175  1.00 42.34 LIG 0.23  C 
BRANCH 35 36
ATOM     36  NZ  LYS A  14      41.506  47.441  43.313  1.00 42.55 LIG-0.08  N 
ATOM     37 HZ1  LYS A  14      40.872  47.779  43.838  1.00 42.55 LIG 0.27  HD
ATOM     38 HZ2  LYS A  14      41.164  47.268  42.510  1.00 42.55 LIG 0.27  HD
ATOM     39 HZ3  LYS A  14      41.817  46.687  43.671  1.00 42.55 LIG 0.27  HD
ENDBRANCH 35 36
ENDBRANCH 34 35
ENDBRANCH 33 34
ENDBRANCH 32 33
ENDBRANCH 22 32
ENDBRANCH 20 22
ENDBRANCH 5 18
ENDBRANCH 1 5
BRANCH 3 40
ATOM     40  CA  ALA A  16      41.802  57.644  39.977  1.00 45.18 LIG 0.17  C 
ATOM     41  CB  ALA A  16      40.602  57.909  39.078  1.00 49.83 LIG 0.04  C 
BRANCH 40 42
ATOM     42  C   ALA A  16      41.921  58.756  41.028  1.00 49.79 LIG 0.24  C 
ATOM     43 O    ALA A  16      41.230  58.749  42.055  1.00 50.51 LIG-0.27  OA
ATOM     44  N   ARG A  17      42.811  59.703  40.767  1.00 50.44 LIG-0.35  N 
ATOM     45 H    ARG A  17      43.360  59.665  40.106  1.00 50.44 LIG 0.16  HD
BRANCH 44 46
ATOM     46  CA  ARG A  17      42.947  60.902  41.573  1.00 55.17 LIG 0.18  C 
BRANCH 46 47
ATOM     47  C   ARG A  17      43.650  60.522  42.880  1.00 63.19 LIG 0.24  C 
ATOM     48  N   PRO A  18      44.793  61.164  43.162  1.00 71.41 LIG-0.34  N 
ATOM     49  CD  PRO A  18      45.561  61.871  42.125  1.00 72.83 LIG 0.13  C 
ATOM     50  CA  PRO A  18      45.565  61.020  44.413  1.00 77.88 LIG 0.18  C 
ATOM     51  CG  PRO A  18      46.968  61.776  42.642  1.00 77.48 LIG 0.02  C 
ATOM     52  CB  PRO A  18      46.818  61.857  44.141  1.00 79.41 LIG 0.04  C 
ATOM     53 O    ARG A  17      43.194  59.631  43.599  1.00 63.05 LIG-0.27  OA
BRANCH 50 54
ATOM     54  C   PRO A  18      44.840  61.566  45.648  1.00 78.56 LIG 0.24  C 
ATOM     55 O    PRO A  18      45.145  62.683  46.084  1.00 75.87 LIG-0.27  OA
ATOM     56  N   ALA A  19      43.923  60.763  46.200  1.00 80.14 LIG-0.35  N 
ATOM     57 H    ALA A  19      43.821  59.943  45.961  1.00 80.14 LIG 0.16  HD
BRANCH 56 58
ATOM     58  CA  ALA A  19      42.993  61.176  47.268  1.00 81.44 LIG 0.16  C 
ATOM     59  CB  ALA A  19      41.599  61.399  46.688  1.00 83.90 LIG 0.04  C 
BRANCH 58 60
ATOM     60  C   ALA A  19      42.911  60.283  48.510  1.00 82.06 LIG 0.22  C 
ATOM     61 O    ALA A  19      43.948  59.877  49.059  1.00 84.95 LIG-0.29  OA
ENDBRANCH 58 60
ENDBRANCH 56 58
ENDBRANCH 50 54
ENDBRANCH 46 47
BRANCH 46 62
ATOM     62  CB  ARG A  17      41.537  61.464  41.827  1.00 51.88 LIG 0.04  C 
BRANCH 62 63
ATOM     63  CG  ARG A  17      41.051  62.530  40.887  1.00 49.36 LIG 0.02  C 
BRANCH 63 64
ATOM     64  CD  ARG A  17      41.293  62.097  39.412  1.00 46.57 LIG 0.14  C 
BRANCH 64 65
ATOM     65  NE  ARG A  17      40.387  61.019  38.967  1.00 43.47 LIG-0.23  N 
ATOM     66 HE   ARG A  17      40.576  60.217  39.212  1.00 43.47 LIG 0.18  HD
ATOM     67  CZ  ARG A  17      39.296  61.193  38.211  1.00 44.86 LIG 0.67  C 
ATOM     68  NH2 ARG A  17      38.575  60.130  37.872  1.00 38.62 LIG-0.23  N 
ATOM     69  NH1 ARG A  17      38.929  62.415  37.777  1.00 40.09 LIG-0.23  N 
ATOM     70 1HH2 ARG A  17      38.813  59.347  38.137  1.00 38.62 LIG 0.17  HD
ATOM     71 2HH2 ARG A  17      37.871  60.225  37.387  1.00 38.62 LIG 0.17  HD
ATOM     72 2HH1 ARG A  17      38.224  62.506  37.293  1.00 40.09 LIG 0.17  HD
ATOM     73 1HH1 ARG A  17      39.400  63.104  37.984  1.00 40.09 LIG 0.17  HD
ENDBRANCH 64 65
ENDBRANCH 63 64
ENDBRANCH 62 63
ENDBRANCH 46 62
ENDBRANCH 44 46
ENDBRANCH 40 42
ENDBRANCH 3 40
TORSDOF 27
ENDMDL
MODEL 19
USER: ADFR SOLUTION from run 193
USER: SCORE 18.924555 LL:  -2.190 LR: -18.244 RR:   0.000 FEB: -10.190
USER: RMSD 5.453982
USER: SEED 192
USER: STATUS no improvement in best in 6 clusters for 5 generations
USER: GENES 29
USER: genes 0 Translation |==|  0.62066 0.35266 0.39903
USER: genes 1 Rotation |==|  0.55289 0.93768 0.73586 0.50314
USER: genes 2 Torsion [N]-C--CA-[N] |==|  0.87454
USER: genes 3 Torsion [C]-CA--CB-[CG] |==|  0.18934
USER: genes 4 Torsion [CA]-CB--CG-[CD] |==|  0.18711
USER: genes 5 Torsion [CB]-CG--CD-[NE] |==|  0.25653
USER: genes 6 Torsion [CG]-CD--NE-[HE] |==|  0.96453
USER: genes 7 Torsion [C]-CA--N-[C] |==|  0.69203
USER: genes 8 Torsion [N]-C--CA-[N] |==|  0.46345
USER: genes 9 Torsion [C]-CA--N-[C] |==|  0.61915
USER: genes 10 Torsion [N]-C--CA-[N] |==|  0.44490
USER: genes 11 Torsion [C]-CA--CB-[OG] |==|  0.00737
USER: genes 12 Torsion [CA]-CB--OG-[HG] |==|  0.74496
USER: genes 13 Torsion [C]-CA--CB-[CG] |==|  0.49847
USER: genes 14 Torsion [CA]-CB--CG-[CD] |==|  0.87503
USER: genes 15 Torsion [CB]-CG--CD-[CE] |==|  0.42970
USER: genes 16 Torsion [CG]-CD--CE-[NZ] |==|  0.88936
USER: genes 17 Torsion [CD]-CE--NZ-[HZ3] |==|  0.17446
USER: genes 18 Torsion [C]-N--CA-[CB] |==|  0.86947
USER: genes 19 Torsion [N]-CA--C-[N] |==|  0.36899
USER: genes 20 Torsion [C]-N--CA-[CB] |==|  0.19644
USER: genes 21 Torsion [N]-CA--C-[N] |==|  0.48141
USER: genes 22 Torsion [N]-CA--C-[N] |==|  0.99607
USER: genes 23 Torsion [C]-N--CA-[CB] |==|  0.85813
USER: genes 24 Torsion [N]-CA--C-[O] |==|  0.72879
USER: genes 25 Torsion [N]-CA--CB-[CG] |==|  0.69693
USER: genes 26 Torsion [CA]-CB--CG-[CD] |==|  0.49876
USER: genes 27 Torsion [CB]-CG--CD-[NE] |==|  0.91911
USER: genes 28 Torsion [CG]-CD--NE-[HE] |==|  0.30255
ROOT
ATOM      1  C   ARG A  15      42.374  55.831  39.768  1.00 45.62 LIG 0.24  C 
ATOM      2 O    ARG A  15      43.404  56.310  39.271  1.00 41.49 LIG-0.27  OA
ATOM      3  N   ALA A  16      41.619  56.498  40.646  1.00 45.00 LIG-0.35  N 
ATOM      4 H    ALA A  16      40.850  56.231  40.923  1.00 45.00 LIG 0.16  HD
ENDROOT
BRANCH 1 5
ATOM      5  CA  ARG A  15      41.941  54.409  39.410  1.00 46.83 LIG 0.18  C 
BRANCH 5 6
ATOM      6  CB  ARG A  15      40.750  54.486  38.429  1.00 49.57 LIG 0.04  C 
BRANCH 6 7
ATOM      7  CG  ARG A  15      41.076  55.037  37.025  1.00 52.69 LIG 0.02  C 
BRANCH 7 8
ATOM      8  CD  ARG A  15      41.983  54.099  36.226  1.00 53.59 LIG 0.14  C 
BRANCH 8 9
ATOM      9  NE  ARG A  15      41.222  53.168  35.396  1.00 54.25 LIG-0.23  N 
ATOM     10  CZ  ARG A  15      41.731  52.413  34.429  1.00 51.22 LIG 0.67  C 
ATOM     11  NH1 ARG A  15      43.022  52.470  34.122  1.00 49.54 LIG-0.23  N 
ATOM     12  NH2 ARG A  15      40.938  51.601  33.752  1.00 55.83 LIG-0.23  N 
ATOM     13 2HH1 ARG A  15      43.336  51.975  33.493  1.00 49.54 LIG 0.17  HD
ATOM     14 1HH1 ARG A  15      43.543  53.002  34.552  1.00 49.54 LIG 0.17  HD
ATOM     15 2HH2 ARG A  15      41.261  51.109  33.125  1.00 55.83 LIG 0.17  HD
ATOM     16 1HH2 ARG A  15      40.099  51.565  33.938  1.00 55.83 LIG 0.17  HD
ATOM     17 HE   ARG A  15      40.377  53.105  35.545  1.00 54.25 LIG 0.18  HD
ENDBRANCH 8 9
ENDBRANCH 7 8
ENDBRANCH 6 7
ENDBRANCH 5 6
BRANCH 5 18
ATOM     18  N   ARG A  15      41.573  53.639  40.608  1.00 49.13 LIG-0.35  N 
ATOM     19 H    ARG A  15      40.848  53.904  40.989  1.00 49.13 LIG 0.16  HD
ATOM     20  C   LYS A  14      42.312  52.619  41.050  1.00 54.29 LIG 0.24  C 
ATOM     21 O    LYS A  14      43.357  52.267  40.496  1.00 54.85 LIG-0.27  OA
BRANCH 20 22
ATOM     22  CA  LYS A  14      41.829  51.866  42.295  1.00 53.70 LIG 0.18  C 
BRANCH 22 23
ATOM     23  N   LYS A  14      42.610  50.625  42.391  1.00 51.97 LIG-0.35  N 
ATOM     24  C   SER A  13      42.025  49.466  42.702  1.00 54.08 LIG 0.26  C 
ATOM     25 O    SER A  13      40.849  49.383  43.104  1.00 52.27 LIG-0.27  OA
ATOM     26 H    LYS A  14      43.450  50.715  42.233  1.00 51.97 LIG 0.16  HD
BRANCH 24 27
ATOM     27  CA  SER A  13      42.869  48.200  42.520  1.00 61.00 LIG 0.42  C 
ATOM     28  N   SER A  13      42.385  47.039  43.279  1.00 64.04 LIG 0.62  N 
BRANCH 27 29
ATOM     29  CB  SER A  13      42.995  47.861  41.037  1.00 62.15 LIG 0.21  C 
BRANCH 29 30
ATOM     30 OG   SER A  13      42.349  48.844  40.255  1.00 63.97 LIG-0.40  OA
ATOM     31 HG   SER A  13      41.553  48.613  40.116  1.00 63.97 LIG 0.21  HD
ENDBRANCH 29 30
ENDBRANCH 27 29
ENDBRANCH 24 27
ENDBRANCH 22 23
BRANCH 22 32
ATOM     32  CB  LYS A  14      42.041  52.754  43.533  1.00 53.93 LIG 0.04  C 
BRANCH 32 33
ATOM     33  CG  LYS A  14      41.596  52.156  44.879  1.00 52.68 LIG 0.00  C 
BRANCH 33 34
ATOM     34  CD  LYS A  14      40.229  51.494  44.794  1.00 44.05 LIG 0.03  C 
BRANCH 34 35
ATOM     35  CE  LYS A  14      40.063  50.411  45.863  1.00 42.34 LIG 0.23  C 
BRANCH 35 36
ATOM     36  NZ  LYS A  14      41.353  49.616  46.029  1.00 42.55 LIG-0.08  N 
ATOM     37 HZ1  LYS A  14      41.226  48.965  46.623  1.00 42.55 LIG 0.27  HD
ATOM     38 HZ2  LYS A  14      41.585  49.261  45.247  1.00 42.55 LIG 0.27  HD
ATOM     39 HZ3  LYS A  14      42.001  50.156  46.313  1.00 42.55 LIG 0.27  HD
ENDBRANCH 35 36
ENDBRANCH 34 35
ENDBRANCH 33 34
ENDBRANCH 32 33
ENDBRANCH 22 32
ENDBRANCH 20 22
ENDBRANCH 5 18
ENDBRANCH 1 5
BRANCH 3 40
ATOM     40  CA  ALA A  16      42.062  57.767  41.212  1.00 45.18 LIG 0.17  C 
ATOM     41  CB  ALA A  16      43.505  57.678  41.689  1.00 49.83 LIG 0.04  C 
BRANCH 40 42
ATOM     42  C   ALA A  16      41.929  58.874  40.157  1.00 49.79 LIG 0.24  C 
ATOM     43 O    ALA A  16      42.332  58.712  38.999  1.00 50.51 LIG-0.27  OA
ATOM     44  N   ARG A  17      41.350  59.994  40.567  1.00 50.44 LIG-0.35  N 
ATOM     45 H    ARG A  17      40.983  60.080  41.340  1.00 50.44 LIG 0.16  HD
BRANCH 44 46
ATOM     46  CA  ARG A  17      41.279  61.190  39.749  1.00 55.17 LIG 0.18  C 
BRANCH 46 47
ATOM     47  C   ARG A  17      40.819  62.351  40.637  1.00 63.19 LIG 0.24  C 
ATOM     48  N   PRO A  18      40.825  63.574  40.087  1.00 71.41 LIG-0.34  N 
ATOM     49  CD  PRO A  18      41.605  63.875  38.876  1.00 72.83 LIG 0.13  C 
ATOM     50  CA  PRO A  18      40.323  64.802  40.736  1.00 77.88 LIG 0.18  C 
ATOM     51  CG  PRO A  18      41.918  65.334  39.048  1.00 77.48 LIG 0.02  C 
ATOM     52  CB  PRO A  18      40.697  65.897  39.732  1.00 79.41 LIG 0.04  C 
ATOM     53 O    ARG A  17      40.508  62.154  41.813  1.00 63.05 LIG-0.27  OA
BRANCH 50 54
ATOM     54  C   PRO A  18      38.807  64.804  40.958  1.00 78.56 LIG 0.24  C 
ATOM     55 O    PRO A  18      38.283  65.760  41.543  1.00 75.87 LIG-0.27  OA
ATOM     56  N   ALA A  19      38.143  63.729  40.519  1.00 80.14 LIG-0.35  N 
ATOM     57 H    ALA A  19      38.541  63.022  40.235  1.00 80.14 LIG 0.16  HD
BRANCH 56 58
ATOM     58  CA  ALA A  19      36.673  63.626  40.469  1.00 81.44 LIG 0.16  C 
ATOM     59  CB  ALA A  19      36.077  64.004  41.822  1.00 83.90 LIG 0.04  C 
BRANCH 58 60
ATOM     60  C   ALA A  19      35.954  64.383  39.347  1.00 82.06 LIG 0.22  C 
ATOM     61 O    ALA A  19      35.454  65.499  39.565  1.00 84.95 LIG-0.29  OA
ENDBRANCH 58 60
ENDBRANCH 56 58
ENDBRANCH 50 54
ENDBRANCH 46 47
BRANCH 46 62
ATOM     62  CB  ARG A  17      40.288  60.921  38.603  1.00 51.88 LIG 0.04  C 
BRANCH 62 63
ATOM     63  CG  ARG A  17      40.867  60.772  37.225  1.00 49.36 LIG 0.02  C 
BRANCH 63 64
ATOM     64  CD  ARG A  17      39.735  60.495  36.194  1.00 46.57 LIG 0.14  C 
BRANCH 64 65
ATOM     65  NE  ARG A  17      38.577  59.790  36.777  1.00 43.47 LIG-0.23  N 
ATOM     66 HE   ARG A  17      37.849  60.237  36.877  1.00 43.47 LIG 0.18  HD
ATOM     67  CZ  ARG A  17      38.571  58.507  37.164  1.00 44.86 LIG 0.67  C 
ATOM     68  NH2 ARG A  17      37.459  58.001  37.686  1.00 38.62 LIG-0.23  N 
ATOM     69  NH1 ARG A  17      39.668  57.734  37.049  1.00 40.09 LIG-0.23  N 
ATOM     70 1HH2 ARG A  17      36.761  58.495  37.772  1.00 38.62 LIG 0.17  HD
ATOM     71 2HH2 ARG A  17      37.439  57.179  37.939  1.00 38.62 LIG 0.17  HD
ATOM     72 2HH1 ARG A  17      39.644  56.912  37.303  1.00 40.09 LIG 0.17  HD
ATOM     73 1HH1 ARG A  17      40.393  58.061  36.723  1.00 40.09 LIG 0.17  HD
ENDBRANCH 64 65
ENDBRANCH 63 64
ENDBRANCH 62 63
ENDBRANCH 46 62
ENDBRANCH 44 46
ENDBRANCH 40 42
ENDBRANCH 3 40
TORSDOF 27
ENDMDL
MODEL 20
USER: ADFR SOLUTION from run 150
USER: SCORE 18.966284 LL:  -3.149 LR: -18.186 RR:   0.000 FEB: -10.132
USER: RMSD 3.961174
USER: SEED 149
USER: STATUS no improvement in best in 10 clusters for 5 generations
USER: GENES 29
USER: genes 0 Translation |==|  0.57028 0.44839 0.37200
USER: genes 1 Rotation |==|  0.42093 0.05193 0.35434 0.64753
USER: genes 2 Torsion [N]-C--CA-[N] |==|  0.91250
USER: genes 3 Torsion [C]-CA--CB-[CG] |==|  0.18953
USER: genes 4 Torsion [CA]-CB--CG-[CD] |==|  0.60042
USER: genes 5 Torsion [CB]-CG--CD-[NE] |==|  0.23258
USER: genes 6 Torsion [CG]-CD--NE-[HE] |==|  0.64485
USER: genes 7 Torsion [C]-CA--N-[C] |==|  0.84218
USER: genes 8 Torsion [N]-C--CA-[N] |==|  0.21107
USER: genes 9 Torsion [C]-CA--N-[C] |==|  0.72366
USER: genes 10 Torsion [N]-C--CA-[N] |==|  0.27546
USER: genes 11 Torsion [C]-CA--CB-[OG] |==|  0.76235
USER: genes 12 Torsion [CA]-CB--OG-[HG] |==|  0.37899
USER: genes 13 Torsion [C]-CA--CB-[CG] |==|  0.59198
USER: genes 14 Torsion [CA]-CB--CG-[CD] |==|  0.61777
USER: genes 15 Torsion [CB]-CG--CD-[CE] |==|  0.49638
USER: genes 16 Torsion [CG]-CD--CE-[NZ] |==|  0.66955
USER: genes 17 Torsion [CD]-CE--NZ-[HZ3] |==|  0.41939
USER: genes 18 Torsion [C]-N--CA-[CB] |==|  0.19467
USER: genes 19 Torsion [N]-CA--C-[N] |==|  0.60080
USER: genes 20 Torsion [C]-N--CA-[CB] |==|  0.16839
USER: genes 21 Torsion [N]-CA--C-[N] |==|  0.30556
USER: genes 22 Torsion [N]-CA--C-[N] |==|  0.15612
USER: genes 23 Torsion [C]-N--CA-[CB] |==|  0.49396
USER: genes 24 Torsion [N]-CA--C-[O] |==|  0.22233
USER: genes 25 Torsion [N]-CA--CB-[CG] |==|  0.57869
USER: genes 26 Torsion [CA]-CB--CG-[CD] |==|  0.88956
USER: genes 27 Torsion [CB]-CG--CD-[NE] |==|  0.37596
USER: genes 28 Torsion [CG]-CD--NE-[HE] |==|  0.08589
ROOT
ATOM      1  C   ARG A  15      41.581  58.703  39.221  1.00 45.62 LIG 0.24  C 
ATOM      2 O    ARG A  15      41.995  59.101  38.123  1.00 41.49 LIG-0.27  OA
ATOM      3  N   ALA A  16      41.288  59.534  40.226  1.00 45.00 LIG-0.35  N 
ATOM      4 H    ALA A  16      40.903  59.292  40.956  1.00 45.00 LIG 0.16  HD
ENDROOT
BRANCH 1 5
ATOM      5  CA  ARG A  15      41.419  57.205  39.481  1.00 46.83 LIG 0.18  C 
BRANCH 5 6
ATOM      6  CB  ARG A  15      39.984  56.786  39.090  1.00 49.57 LIG 0.04  C 
BRANCH 6 7
ATOM      7  CG  ARG A  15      39.661  56.840  37.581  1.00 52.69 LIG 0.02  C 
BRANCH 7 8
ATOM      8  CD  ARG A  15      38.224  57.289  37.308  1.00 53.59 LIG 0.14  C 
BRANCH 8 9
ATOM      9  NE  ARG A  15      38.089  58.743  37.312  1.00 54.25 LIG-0.23  N 
ATOM     10  CZ  ARG A  15      38.834  59.584  36.603  1.00 51.22 LIG 0.67  C 
ATOM     11  NH1 ARG A  15      39.812  59.141  35.823  1.00 49.54 LIG-0.23  N 
ATOM     12  NH2 ARG A  15      38.607  60.883  36.687  1.00 55.83 LIG-0.23  N 
ATOM     13 2HH1 ARG A  15      40.287  59.698  35.370  1.00 49.54 LIG 0.17  HD
ATOM     14 1HH1 ARG A  15      39.972  58.298  35.770  1.00 49.54 LIG 0.17  HD
ATOM     15 2HH2 ARG A  15      39.085  61.433  36.230  1.00 55.83 LIG 0.17  HD
ATOM     16 1HH2 ARG A  15      37.981  61.179  37.197  1.00 55.83 LIG 0.17  HD
ATOM     17 HE   ARG A  15      37.478  59.082  37.814  1.00 54.25 LIG 0.18  HD
ENDBRANCH 8 9
ENDBRANCH 7 8
ENDBRANCH 6 7
ENDBRANCH 5 6
BRANCH 5 18
ATOM     18  N   ARG A  15      41.688  56.868  40.887  1.00 49.13 LIG-0.35  N 
ATOM     19 H    ARG A  15      41.038  56.468  41.285  1.00 49.13 LIG 0.16  HD
ATOM     20  C   LYS A  14      42.847  57.168  41.478  1.00 54.29 LIG 0.24  C 
ATOM     21 O    LYS A  14      43.759  57.758  40.893  1.00 54.85 LIG-0.27  OA
BRANCH 20 22
ATOM     22  CA  LYS A  14      43.036  56.754  42.942  1.00 53.70 LIG 0.18  C 
BRANCH 22 23
ATOM     23  N   LYS A  14      43.294  55.307  42.962  1.00 51.97 LIG-0.35  N 
ATOM     24  C   SER A  13      42.321  54.438  43.247  1.00 54.08 LIG 0.26  C 
ATOM     25 O    SER A  13      41.208  54.783  43.686  1.00 52.27 LIG-0.27  OA
ATOM     26 H    LYS A  14      44.104  55.083  42.779  1.00 51.97 LIG 0.16  HD
BRANCH 24 27
ATOM     27  CA  SER A  13      42.624  52.959  42.986  1.00 61.00 LIG 0.42  C 
ATOM     28  N   SER A  13      43.018  52.204  44.184  1.00 64.04 LIG 0.62  N 
BRANCH 27 29
ATOM     29  CB  SER A  13      41.438  52.294  42.294  1.00 62.15 LIG 0.21  C 
BRANCH 29 30
ATOM     30 OG   SER A  13      40.496  51.857  43.251  1.00 63.97 LIG-0.40  OA
ATOM     31 HG   SER A  13      39.721  52.052  42.991  1.00 63.97 LIG 0.21  HD
ENDBRANCH 29 30
ENDBRANCH 27 29
ENDBRANCH 24 27
ENDBRANCH 22 23
BRANCH 22 32
ATOM     32  CB  LYS A  14      44.219  57.538  43.537  1.00 53.93 LIG 0.04  C 
BRANCH 32 33
ATOM     33  CG  LYS A  14      45.055  56.800  44.597  1.00 52.68 LIG 0.00  C 
BRANCH 33 34
ATOM     34  CD  LYS A  14      45.415  57.693  45.775  1.00 44.05 LIG 0.03  C 
BRANCH 34 35
ATOM     35  CE  LYS A  14      46.219  56.931  46.832  1.00 42.34 LIG 0.23  C 
BRANCH 35 36
ATOM     36  NZ  LYS A  14      45.474  56.907  48.161  1.00 42.55 LIG-0.08  N 
ATOM     37 HZ1  LYS A  14      45.698  57.624  48.640  1.00 42.55 LIG 0.27  HD
ATOM     38 HZ2  LYS A  14      44.598  56.914  48.011  1.00 42.55 LIG 0.27  HD
ATOM     39 HZ3  LYS A  14      45.692  56.170  48.611  1.00 42.55 LIG 0.27  HD
ENDBRANCH 35 36
ENDBRANCH 34 35
ENDBRANCH 33 34
ENDBRANCH 32 33
ENDBRANCH 22 32
ENDBRANCH 20 22
ENDBRANCH 5 18
ENDBRANCH 1 5
BRANCH 3 40
ATOM     40  CA  ALA A  16      41.612  60.953  40.151  1.00 45.18 LIG 0.17  C 
ATOM     41  CB  ALA A  16      40.730  61.662  39.133  1.00 49.83 LIG 0.04  C 
BRANCH 40 42
ATOM     42  C   ALA A  16      41.432  61.595  41.533  1.00 49.79 LIG 0.24  C 
ATOM     43 O    ALA A  16      41.727  60.987  42.570  1.00 50.51 LIG-0.27  OA
ATOM     44  N   ARG A  17      40.958  62.834  41.536  1.00 50.44 LIG-0.35  N 
ATOM     45 H    ARG A  17      40.842  63.296  40.820  1.00 50.44 LIG 0.16  HD
BRANCH 44 46
ATOM     46  CA  ARG A  17      40.587  63.533  42.752  1.00 55.17 LIG 0.18  C 
BRANCH 46 47
ATOM     47  C   ARG A  17      40.046  64.913  42.365  1.00 63.19 LIG 0.24  C 
ATOM     48  N   PRO A  18      38.732  65.119  42.535  1.00 71.41 LIG-0.34  N 
ATOM     49  CD  PRO A  18      37.785  64.002  42.677  1.00 72.83 LIG 0.13  C 
ATOM     50  CA  PRO A  18      38.037  66.405  42.322  1.00 77.88 LIG 0.18  C 
ATOM     51  CG  PRO A  18      36.516  64.582  42.122  1.00 77.48 LIG 0.02  C 
ATOM     52  CB  PRO A  18      36.564  66.035  42.525  1.00 79.41 LIG 0.04  C 
ATOM     53 O    ARG A  17      40.793  65.762  41.875  1.00 63.05 LIG-0.27  OA
BRANCH 50 54
ATOM     54  C   PRO A  18      38.437  67.492  43.325  1.00 78.56 LIG 0.24  C 
ATOM     55 O    PRO A  18      37.557  68.060  43.985  1.00 75.87 LIG-0.27  OA
ATOM     56  N   ALA A  19      39.741  67.781  43.397  1.00 80.14 LIG-0.35  N 
ATOM     57 H    ALA A  19      40.316  67.469  42.840  1.00 80.14 LIG 0.16  HD
BRANCH 56 58
ATOM     58  CA  ALA A  19      40.342  68.653  44.424  1.00 81.44 LIG 0.16  C 
ATOM     59  CB  ALA A  19      41.855  68.715  44.234  1.00 83.90 LIG 0.04  C 
BRANCH 58 60
ATOM     60  C   ALA A  19      39.770  70.067  44.565  1.00 82.06 LIG 0.22  C 
ATOM     61 O    ALA A  19      38.716  70.256  45.195  1.00 84.95 LIG-0.29  OA
ENDBRANCH 58 60
ENDBRANCH 56 58
ENDBRANCH 50 54
ENDBRANCH 46 47
BRANCH 46 62
ATOM     62  CB  ARG A  17      41.841  63.640  43.637  1.00 51.88 LIG 0.04  C 
BRANCH 62 63
ATOM     63  CG  ARG A  17      41.621  63.704  45.122  1.00 49.36 LIG 0.02  C 
BRANCH 63 64
ATOM     64  CD  ARG A  17      40.386  64.595  45.444  1.00 46.57 LIG 0.14  C 
BRANCH 64 65
ATOM     65  NE  ARG A  17      39.489  64.002  46.457  1.00 43.47 LIG-0.23  N 
ATOM     66 HE   ARG A  17      39.846  63.501  47.058  1.00 43.47 LIG 0.18  HD
ATOM     67  CZ  ARG A  17      38.164  64.184  46.512  1.00 44.86 LIG 0.67  C 
ATOM     68  NH2 ARG A  17      37.474  63.578  47.473  1.00 38.62 LIG-0.23  N 
ATOM     69  NH1 ARG A  17      37.521  64.948  45.608  1.00 40.09 LIG-0.23  N 
ATOM     70 1HH2 ARG A  17      37.879  63.080  48.044  1.00 38.62 LIG 0.17  HD
ATOM     71 2HH2 ARG A  17      36.622  63.685  47.522  1.00 38.62 LIG 0.17  HD
ATOM     72 2HH1 ARG A  17      36.669  65.052  45.661  1.00 40.09 LIG 0.17  HD
ATOM     73 1HH1 ARG A  17      37.962  65.332  44.977  1.00 40.09 LIG 0.17  HD
ENDBRANCH 64 65
ENDBRANCH 63 64
ENDBRANCH 62 63
ENDBRANCH 46 62
ENDBRANCH 44 46
ENDBRANCH 40 42
ENDBRANCH 3 40
TORSDOF 27
ENDMDL
MODEL 21
USER: ADFR SOLUTION from run 200
USER: SCORE 19.675754 LL:  -3.509 LR: -18.149 RR:   0.000 FEB: -10.095
USER: RMSD 6.182465
USER: SEED 199
USER: STATUS searching
USER: GENES 29
USER: genes 0 Translation |==|  0.60771 0.43649 0.46445
USER: genes 1 Rotation |==|  0.42422 0.02650 0.63440 0.54465
USER: genes 2 Torsion [N]-C--CA-[N] |==|  0.39511
USER: genes 3 Torsion [C]-CA--CB-[CG] |==|  0.24991
USER: genes 4 Torsion [CA]-CB--CG-[CD] |==|  0.44102
USER: genes 5 Torsion [CB]-CG--CD-[NE] |==|  0.75182
USER: genes 6 Torsion [CG]-CD--NE-[HE] |==|  0.11592
USER: genes 7 Torsion [C]-CA--N-[C] |==|  0.22590
USER: genes 8 Torsion [N]-C--CA-[N] |==|  0.61356
USER: genes 9 Torsion [C]-CA--N-[C] |==|  0.67186
USER: genes 10 Torsion [N]-C--CA-[N] |==|  0.84145
USER: genes 11 Torsion [C]-CA--CB-[OG] |==|  0.69116
USER: genes 12 Torsion [CA]-CB--OG-[HG] |==|  0.28005
USER: genes 13 Torsion [C]-CA--CB-[CG] |==|  0.46615
USER: genes 14 Torsion [CA]-CB--CG-[CD] |==|  0.28283
USER: genes 15 Torsion [CB]-CG--CD-[CE] |==|  0.50930
USER: genes 16 Torsion [CG]-CD--CE-[NZ] |==|  0.42301
USER: genes 17 Torsion [CD]-CE--NZ-[HZ3] |==|  0.01207
USER: genes 18 Torsion [C]-N--CA-[CB] |==|  0.17682
USER: genes 19 Torsion [N]-CA--C-[N] |==|  0.06884
USER: genes 20 Torsion [C]-N--CA-[CB] |==|  0.85538
USER: genes 21 Torsion [N]-CA--C-[N] |==|  0.36595
USER: genes 22 Torsion [N]-CA--C-[N] |==|  0.16541
USER: genes 23 Torsion [C]-N--CA-[CB] |==|  0.79391
USER: genes 24 Torsion [N]-CA--C-[O] |==|  0.34781
USER: genes 25 Torsion [N]-CA--CB-[CG] |==|  0.41841
USER: genes 26 Torsion [CA]-CB--CG-[CD] |==|  0.69256
USER: genes 27 Torsion [CB]-CG--CD-[NE] |==|  0.14479
USER: genes 28 Torsion [CG]-CD--NE-[HE] |==|  0.95116
ROOT
ATOM      1  C   ARG A  15      42.170  58.346  41.093  1.00 45.62 LIG 0.24  C 
ATOM      2 O    ARG A  15      42.880  57.669  40.335  1.00 41.49 LIG-0.27  OA
ATOM      3  N   ALA A  16      41.516  59.437  40.685  1.00 45.00 LIG-0.35  N 
ATOM      4 H    ALA A  16      40.939  59.860  41.162  1.00 45.00 LIG 0.16  HD
ENDROOT
BRANCH 1 5
ATOM      5  CA  ARG A  15      42.044  57.963  42.568  1.00 46.83 LIG 0.18  C 
BRANCH 5 6
ATOM      6  CB  ARG A  15      43.255  58.540  43.335  1.00 49.57 LIG 0.04  C 
BRANCH 6 7
ATOM      7  CG  ARG A  15      43.066  59.961  43.909  1.00 52.69 LIG 0.02  C 
BRANCH 7 8
ATOM      8  CD  ARG A  15      44.037  60.262  45.052  1.00 53.59 LIG 0.14  C 
BRANCH 8 9
ATOM      9  NE  ARG A  15      43.496  59.878  46.354  1.00 54.25 LIG-0.23  N 
ATOM     10  CZ  ARG A  15      43.601  60.595  47.467  1.00 51.22 LIG 0.67  C 
ATOM     11  NH1 ARG A  15      44.253  61.751  47.480  1.00 49.54 LIG-0.23  N 
ATOM     12  NH2 ARG A  15      43.058  60.143  48.584  1.00 55.83 LIG-0.23  N 
ATOM     13 2HH1 ARG A  15      44.313  62.203  48.209  1.00 49.54 LIG 0.17  HD
ATOM     14 1HH1 ARG A  15      44.617  62.048  46.759  1.00 49.54 LIG 0.17  HD
ATOM     15 2HH2 ARG A  15      43.122  60.602  49.309  1.00 55.83 LIG 0.17  HD
ATOM     16 1HH2 ARG A  15      42.641  59.391  48.587  1.00 55.83 LIG 0.17  HD
ATOM     17 HE   ARG A  15      43.076  59.130  46.402  1.00 54.25 LIG 0.18  HD
ENDBRANCH 8 9
ENDBRANCH 7 8
ENDBRANCH 6 7
ENDBRANCH 5 6
BRANCH 5 18
ATOM     18  N   ARG A  15      41.970  56.505  42.744  1.00 49.13 LIG-0.35  N 
ATOM     19 H    ARG A  15      41.171  56.201  42.845  1.00 49.13 LIG 0.16  HD
ATOM     20  C   LYS A  14      43.061  55.735  42.743  1.00 54.29 LIG 0.24  C 
ATOM     21 O    LYS A  14      44.199  56.195  42.612  1.00 54.85 LIG-0.27  OA
BRANCH 20 22
ATOM     22  CA  LYS A  14      42.875  54.223  42.911  1.00 53.70 LIG 0.18  C 
BRANCH 22 23
ATOM     23  N   LYS A  14      43.936  53.744  43.807  1.00 51.97 LIG-0.35  N 
ATOM     24  C   SER A  13      44.840  52.855  43.390  1.00 54.08 LIG 0.26  C 
ATOM     25 O    SER A  13      44.746  52.244  42.309  1.00 52.27 LIG-0.27  OA
ATOM     26 H    LYS A  14      43.917  54.080  44.599  1.00 51.97 LIG 0.16  HD
BRANCH 24 27
ATOM     27  CA  SER A  13      46.047  52.622  44.306  1.00 61.00 LIG 0.42  C 
ATOM     28  N   SER A  13      46.817  53.837  44.607  1.00 64.04 LIG 0.62  N 
BRANCH 27 29
ATOM     29  CB  SER A  13      45.606  51.929  45.591  1.00 62.15 LIG 0.21  C 
BRANCH 29 30
ATOM     30 OG   SER A  13      45.729  52.811  46.688  1.00 63.97 LIG-0.40  OA
ATOM     31 HG   SER A  13      44.974  53.126  46.880  1.00 63.97 LIG 0.21  HD
ENDBRANCH 29 30
ENDBRANCH 27 29
ENDBRANCH 24 27
ENDBRANCH 22 23
BRANCH 22 32
ATOM     32  CB  LYS A  14      41.481  53.951  43.503  1.00 53.93 LIG 0.04  C 
BRANCH 32 33
ATOM     33  CG  LYS A  14      41.006  52.487  43.471  1.00 52.68 LIG 0.00  C 
BRANCH 33 34
ATOM     34  CD  LYS A  14      41.147  51.803  44.823  1.00 44.05 LIG 0.03  C 
BRANCH 34 35
ATOM     35  CE  LYS A  14      40.748  50.328  44.749  1.00 42.34 LIG 0.23  C 
BRANCH 35 36
ATOM     36  NZ  LYS A  14      41.489  49.516  45.804  1.00 42.55 LIG-0.08  N 
ATOM     37 HZ1  LYS A  14      40.901  49.080  46.311  1.00 42.55 LIG 0.27  HD
ATOM     38 HZ2  LYS A  14      42.026  48.929  45.405  1.00 42.55 LIG 0.27  HD
ATOM     39 HZ3  LYS A  14      41.973  50.062  46.314  1.00 42.55 LIG 0.27  HD
ENDBRANCH 35 36
ENDBRANCH 34 35
ENDBRANCH 33 34
ENDBRANCH 32 33
ENDBRANCH 22 32
ENDBRANCH 20 22
ENDBRANCH 5 18
ENDBRANCH 1 5
BRANCH 3 40
ATOM     40  CA  ALA A  16      41.744  60.004  39.362  1.00 45.18 LIG 0.17  C 
ATOM     41  CB  ALA A  16      41.322  59.029  38.270  1.00 49.83 LIG 0.04  C 
BRANCH 40 42
ATOM     42  C   ALA A  16      40.959  61.315  39.222  1.00 49.79 LIG 0.24  C 
ATOM     43 O    ALA A  16      40.605  61.739  38.114  1.00 50.51 LIG-0.27  OA
ATOM     44  N   ARG A  17      40.679  61.944  40.355  1.00 50.44 LIG-0.35  N 
ATOM     45 H    ARG A  17      40.837  61.609  41.131  1.00 50.44 LIG 0.16  HD
BRANCH 44 46
ATOM     46  CA  ARG A  17      40.078  63.263  40.398  1.00 55.17 LIG 0.18  C 
BRANCH 46 47
ATOM     47  C   ARG A  17      38.635  63.149  39.898  1.00 63.19 LIG 0.24  C 
ATOM     48  N   PRO A  18      37.686  63.733  40.644  1.00 71.41 LIG-0.34  N 
ATOM     49  CD  PRO A  18      37.922  64.096  42.051  1.00 72.83 LIG 0.13  C 
ATOM     50  CA  PRO A  18      36.257  63.826  40.286  1.00 77.88 LIG 0.18  C 
ATOM     51  CG  PRO A  18      36.546  64.001  42.644  1.00 77.48 LIG 0.02  C 
ATOM     52  CB  PRO A  18      35.631  64.455  41.534  1.00 79.41 LIG 0.04  C 
ATOM     53 O    ARG A  17      38.375  62.503  38.881  1.00 63.05 LIG-0.27  OA
BRANCH 50 54
ATOM     54  C   PRO A  18      35.986  64.717  39.069  1.00 78.56 LIG 0.24  C 
ATOM     55 O    PRO A  18      35.229  65.689  39.188  1.00 75.87 LIG-0.27  OA
ATOM     56  N   ALA A  19      36.579  64.356  37.926  1.00 80.14 LIG-0.35  N 
ATOM     57 H    ALA A  19      36.993  63.608  37.835  1.00 80.14 LIG 0.16  HD
BRANCH 56 58
ATOM     58  CA  ALA A  19      36.596  65.180  36.703  1.00 81.44 LIG 0.16  C 
ATOM     59  CB  ALA A  19      35.223  65.151  36.036  1.00 83.90 LIG 0.04  C 
BRANCH 58 60
ATOM     60  C   ALA A  19      37.085  66.626  36.839  1.00 82.06 LIG 0.22  C 
ATOM     61 O    ALA A  19      38.011  67.042  36.123  1.00 84.95 LIG-0.29  OA
ENDBRANCH 58 60
ENDBRANCH 56 58
ENDBRANCH 50 54
ENDBRANCH 46 47
BRANCH 46 62
ATOM     62  CB  ARG A  17      40.918  64.194  39.505  1.00 51.88 LIG 0.04  C 
BRANCH 62 63
ATOM     63  CG  ARG A  17      40.198  65.338  38.849  1.00 49.36 LIG 0.02  C 
BRANCH 63 64
ATOM     64  CD  ARG A  17      40.109  65.107  37.313  1.00 46.57 LIG 0.14  C 
BRANCH 64 65
ATOM     65  NE  ARG A  17      39.551  63.788  36.955  1.00 43.47 LIG-0.23  N 
ATOM     66 HE   ARG A  17      39.541  63.182  37.565  1.00 43.47 LIG 0.18  HD
ATOM     67  CZ  ARG A  17      39.059  63.460  35.753  1.00 44.86 LIG 0.67  C 
ATOM     68  NH2 ARG A  17      38.599  62.228  35.563  1.00 38.62 LIG-0.23  N 
ATOM     69  NH1 ARG A  17      39.041  64.344  34.736  1.00 40.09 LIG-0.23  N 
ATOM     70 1HH2 ARG A  17      38.620  61.658  36.206  1.00 38.62 LIG 0.17  HD
ATOM     71 2HH2 ARG A  17      38.279  62.002  34.797  1.00 38.62 LIG 0.17  HD
ATOM     72 2HH1 ARG A  17      38.721  64.114  33.972  1.00 40.09 LIG 0.17  HD
ATOM     73 1HH1 ARG A  17      39.350  65.139  34.851  1.00 40.09 LIG 0.17  HD
ENDBRANCH 64 65
ENDBRANCH 63 64
ENDBRANCH 62 63
ENDBRANCH 46 62
ENDBRANCH 44 46
ENDBRANCH 40 42
ENDBRANCH 3 40
TORSDOF 27
ENDMDL
MODEL 22
USER: ADFR SOLUTION from run 180
USER: SCORE 19.797845 LL:  -2.779 LR: -18.145 RR:   0.000 FEB: -10.091
USER: RMSD 6.674448
USER: SEED 179
USER: STATUS searching
USER: GENES 29
USER: genes 0 Translation |==|  0.60942 0.42941 0.50004
USER: genes 1 Rotation |==|  0.10161 0.54496 0.61134 0.77725
USER: genes 2 Torsion [N]-C--CA-[N] |==|  0.86739
USER: genes 3 Torsion [C]-CA--CB-[CG] |==|  0.44971
USER: genes 4 Torsion [CA]-CB--CG-[CD] |==|  0.69015
USER: genes 5 Torsion [CB]-CG--CD-[NE] |==|  0.33823
USER: genes 6 Torsion [CG]-CD--NE-[HE] |==|  0.97567
USER: genes 7 Torsion [C]-CA--N-[C] |==|  0.76398
USER: genes 8 Torsion [N]-C--CA-[N] |==|  0.21308
USER: genes 9 Torsion [C]-CA--N-[C] |==|  0.74589
USER: genes 10 Torsion [N]-C--CA-[N] |==|  0.77069
USER: genes 11 Torsion [C]-CA--CB-[OG] |==|  0.35426
USER: genes 12 Torsion [CA]-CB--OG-[HG] |==|  0.65968
USER: genes 13 Torsion [C]-CA--CB-[CG] |==|  0.70026
USER: genes 14 Torsion [CA]-CB--CG-[CD] |==|  0.52285
USER: genes 15 Torsion [CB]-CG--CD-[CE] |==|  0.57595
USER: genes 16 Torsion [CG]-CD--CE-[NZ] |==|  0.65211
USER: genes 17 Torsion [CD]-CE--NZ-[HZ3] |==|  0.64282
USER: genes 18 Torsion [C]-N--CA-[CB] |==|  0.82381
USER: genes 19 Torsion [N]-CA--C-[N] |==|  0.14343
USER: genes 20 Torsion [C]-N--CA-[CB] |==|  0.85000
USER: genes 21 Torsion [N]-CA--C-[N] |==|  0.38441
USER: genes 22 Torsion [N]-CA--C-[N] |==|  0.17122
USER: genes 23 Torsion [C]-N--CA-[CB] |==|  0.35826
USER: genes 24 Torsion [N]-CA--C-[O] |==|  0.44652
USER: genes 25 Torsion [N]-CA--CB-[CG] |==|  0.88350
USER: genes 26 Torsion [CA]-CB--CG-[CD] |==|  0.42628
USER: genes 27 Torsion [CB]-CG--CD-[NE] |==|  0.76770
USER: genes 28 Torsion [CG]-CD--NE-[HE] |==|  0.75368
ROOT
ATOM      1  C   ARG A  15      42.197  58.133  41.814  1.00 45.62 LIG 0.24  C 
ATOM      2 O    ARG A  15      41.138  58.749  42.002  1.00 41.49 LIG-0.27  OA
ATOM      3  N   ALA A  16      42.668  57.864  40.592  1.00 45.00 LIG-0.35  N 
ATOM      4 H    ALA A  16      43.447  57.534  40.437  1.00 45.00 LIG 0.16  HD
ENDROOT
BRANCH 1 5
ATOM      5  CA  ARG A  15      43.006  57.619  43.006  1.00 46.83 LIG 0.18  C 
BRANCH 5 6
ATOM      6  CB  ARG A  15      44.269  58.496  43.163  1.00 49.57 LIG 0.04  C 
BRANCH 6 7
ATOM      7  CG  ARG A  15      44.969  58.417  44.536  1.00 52.69 LIG 0.02  C 
BRANCH 7 8
ATOM      8  CD  ARG A  15      44.848  59.720  45.329  1.00 53.59 LIG 0.14  C 
BRANCH 8 9
ATOM      9  NE  ARG A  15      44.201  59.522  46.624  1.00 54.25 LIG-0.23  N 
ATOM     10  CZ  ARG A  15      44.113  60.437  47.582  1.00 51.22 LIG 0.67  C 
ATOM     11  NH1 ARG A  15      44.648  61.642  47.432  1.00 49.54 LIG-0.23  N 
ATOM     12  NH2 ARG A  15      43.492  60.138  48.711  1.00 55.83 LIG-0.23  N 
ATOM     13 2HH1 ARG A  15      44.583  62.224  48.062  1.00 49.54 LIG 0.17  HD
ATOM     14 1HH1 ARG A  15      45.061  61.841  46.704  1.00 49.54 LIG 0.17  HD
ATOM     15 2HH2 ARG A  15      43.431  60.726  49.336  1.00 55.83 LIG 0.17  HD
ATOM     16 1HH2 ARG A  15      43.151  59.357  48.820  1.00 55.83 LIG 0.17  HD
ATOM     17 HE   ARG A  15      43.851  58.752  46.777  1.00 54.25 LIG 0.18  HD
ENDBRANCH 8 9
ENDBRANCH 7 8
ENDBRANCH 6 7
ENDBRANCH 5 6
BRANCH 5 18
ATOM     18  N   ARG A  15      43.378  56.206  42.837  1.00 49.13 LIG-0.35  N 
ATOM     19 H    ARG A  15      44.161  56.085  42.502  1.00 49.13 LIG 0.16  HD
ATOM     20  C   LYS A  14      42.556  55.212  43.180  1.00 54.29 LIG 0.24  C 
ATOM     21 O    LYS A  14      41.430  55.409  43.644  1.00 54.85 LIG-0.27  OA
BRANCH 20 22
ATOM     22  CA  LYS A  14      43.048  53.773  42.986  1.00 53.70 LIG 0.18  C 
BRANCH 22 23
ATOM     23  N   LYS A  14      43.988  53.475  44.075  1.00 51.97 LIG-0.35  N 
ATOM     24  C   SER A  13      45.298  53.691  43.932  1.00 54.08 LIG 0.26  C 
ATOM     25 O    SER A  13      45.826  53.974  42.840  1.00 52.27 LIG-0.27  OA
ATOM     26 H    LYS A  14      43.625  53.160  44.787  1.00 51.97 LIG 0.16  HD
BRANCH 24 27
ATOM     27  CA  SER A  13      46.151  53.600  45.202  1.00 61.00 LIG 0.42  C 
ATOM     28  N   SER A  13      46.154  54.824  46.015  1.00 64.04 LIG 0.62  N 
BRANCH 27 29
ATOM     29  CB  SER A  13      45.722  52.397  46.038  1.00 62.15 LIG 0.21  C 
BRANCH 29 30
ATOM     30 OG   SER A  13      46.841  51.593  46.346  1.00 63.97 LIG-0.40  OA
ATOM     31 HG   SER A  13      46.711  50.812  46.063  1.00 63.97 LIG 0.21  HD
ENDBRANCH 29 30
ENDBRANCH 27 29
ENDBRANCH 24 27
ENDBRANCH 22 23
BRANCH 22 32
ATOM     32  CB  LYS A  14      41.840  52.820  43.018  1.00 53.93 LIG 0.04  C 
BRANCH 32 33
ATOM     33  CG  LYS A  14      41.705  51.941  44.273  1.00 52.68 LIG 0.00  C 
BRANCH 33 34
ATOM     34  CD  LYS A  14      40.607  50.896  44.133  1.00 44.05 LIG 0.03  C 
BRANCH 34 35
ATOM     35  CE  LYS A  14      40.025  50.509  45.494  1.00 42.34 LIG 0.23  C 
BRANCH 35 36
ATOM     36  NZ  LYS A  14      40.099  49.001  45.702  1.00 42.55 LIG-0.08  N 
ATOM     37 HZ1  LYS A  14      40.354  48.609  44.945  1.00 42.55 LIG 0.27  HD
ATOM     38 HZ2  LYS A  14      40.688  48.818  46.343  1.00 42.55 LIG 0.27  HD
ATOM     39 HZ3  LYS A  14      39.298  48.694  45.941  1.00 42.55 LIG 0.27  HD
ENDBRANCH 35 36
ENDBRANCH 34 35
ENDBRANCH 33 34
ENDBRANCH 32 33
ENDBRANCH 22 32
ENDBRANCH 20 22
ENDBRANCH 5 18
ENDBRANCH 1 5
BRANCH 3 40
ATOM     40  CA  ALA A  16      41.868  58.119  39.401  1.00 45.18 LIG 0.17  C 
ATOM     41  CB  ALA A  16      40.612  57.259  39.392  1.00 49.83 LIG 0.04  C 
BRANCH 40 42
ATOM     42  C   ALA A  16      41.483  59.604  39.349  1.00 49.79 LIG 0.24  C 
ATOM     43 O    ALA A  16      40.307  59.960  39.206  1.00 50.51 LIG-0.27  OA
ATOM     44  N   ARG A  17      42.484  60.464  39.480  1.00 50.44 LIG-0.35  N 
ATOM     45 H    ARG A  17      43.287  60.227  39.675  1.00 50.44 LIG 0.16  HD
BRANCH 44 46
ATOM     46  CA  ARG A  17      42.322  61.895  39.306  1.00 55.17 LIG 0.18  C 
BRANCH 46 47
ATOM     47  C   ARG A  17      41.438  62.419  40.442  1.00 63.19 LIG 0.24  C 
ATOM     48  N   PRO A  18      41.798  63.581  41.005  1.00 71.41 LIG-0.34  N 
ATOM     49  CD  PRO A  18      43.159  64.123  40.858  1.00 72.83 LIG 0.13  C 
ATOM     50  CA  PRO A  18      41.028  64.304  42.036  1.00 77.88 LIG 0.18  C 
ATOM     51  CG  PRO A  18      43.329  64.914  42.124  1.00 77.48 LIG 0.02  C 
ATOM     52  CB  PRO A  18      41.953  65.468  42.403  1.00 79.41 LIG 0.04  C 
ATOM     53 O    ARG A  17      40.473  61.761  40.838  1.00 63.05 LIG-0.27  OA
BRANCH 50 54
ATOM     54  C   PRO A  18      39.689  64.851  41.532  1.00 78.56 LIG 0.24  C 
ATOM     55 O    PRO A  18      39.479  66.070  41.572  1.00 75.87 LIG-0.27  OA
ATOM     56  N   ALA A  19      38.804  63.946  41.098  1.00 80.14 LIG-0.35  N 
ATOM     57 H    ALA A  19      38.919  63.100  41.200  1.00 80.14 LIG 0.16  HD
BRANCH 56 58
ATOM     58  CA  ALA A  19      37.547  64.281  40.404  1.00 81.44 LIG 0.16  C 
ATOM     59  CB  ALA A  19      37.433  63.475  39.113  1.00 83.90 LIG 0.04  C 
BRANCH 58 60
ATOM     60  C   ALA A  19      36.249  64.170  41.212  1.00 82.06 LIG 0.22  C 
ATOM     61 O    ALA A  19      35.223  64.758  40.832  1.00 84.95 LIG-0.29  OA
ENDBRANCH 58 60
ENDBRANCH 56 58
ENDBRANCH 50 54
ENDBRANCH 46 47
BRANCH 46 62
ATOM     62  CB  ARG A  17      41.679  62.134  37.928  1.00 51.88 LIG 0.04  C 
BRANCH 62 63
ATOM     63  CG  ARG A  17      42.192  61.303  36.786  1.00 49.36 LIG 0.02  C 
BRANCH 63 64
ATOM     64  CD  ARG A  17      41.089  61.144  35.700  1.00 46.57 LIG 0.14  C 
BRANCH 64 65
ATOM     65  NE  ARG A  17      40.140  60.051  35.990  1.00 43.47 LIG-0.23  N 
ATOM     66 HE   ARG A  17      40.340  59.266  35.702  1.00 43.47 LIG 0.18  HD
ATOM     67  CZ  ARG A  17      38.993  60.187  36.667  1.00 44.86 LIG 0.67  C 
ATOM     68  NH2 ARG A  17      38.224  59.119  36.847  1.00 38.62 LIG-0.23  N 
ATOM     69  NH1 ARG A  17      38.599  61.382  37.150  1.00 40.09 LIG-0.23  N 
ATOM     70 1HH2 ARG A  17      38.467  58.357  36.530  1.00 38.62 LIG 0.17  HD
ATOM     71 2HH2 ARG A  17      37.484  59.189  37.280  1.00 38.62 LIG 0.17  HD
ATOM     72 2HH1 ARG A  17      37.859  61.449  37.582  1.00 40.09 LIG 0.17  HD
ATOM     73 1HH1 ARG A  17      39.088  62.079  37.025  1.00 40.09 LIG 0.17  HD
ENDBRANCH 64 65
ENDBRANCH 63 64
ENDBRANCH 62 63
ENDBRANCH 46 62
ENDBRANCH 44 46
ENDBRANCH 40 42
ENDBRANCH 3 40
TORSDOF 27
ENDMDL
