MODEL 1
USER: ADFR SOLUTION from run 34
USER: SCORE 18.292210 LL:  -3.498 LR: -15.911 RR:   0.000 FEB:  -9.646
USER: RMSD 3.370485
USER: SEED 33
USER: STATUS 1 or 2 clusters left
USER: GENES 23
USER: genes 0 Translation |==|  0.43956 0.54535 0.52624
USER: genes 1 Rotation |==|  0.52765 0.56407 0.37893 0.98007
USER: genes 2 Torsion [N]-C--CA-[N] |==|  0.41211
USER: genes 3 Torsion [C]-CA--CB-[CG2] |==|  0.01453
USER: genes 4 Torsion [CA]-CB--OG1-[HG1] |==|  0.97363
USER: genes 5 Torsion [C]-CA--N-[C] |==|  0.62006
USER: genes 6 Torsion [N]-C--CA-[N] |==|  0.48967
USER: genes 7 Torsion [N]-C--CA-[N] |==|  0.36981
USER: genes 8 Torsion [C]-CA--CB-[CG] |==|  0.32581
USER: genes 9 Torsion [CA]-CB--CG-[CD1] |==|  0.60501
USER: genes 10 Torsion [CE2]-CZ--OH-[HH] |==|  0.61906
USER: genes 11 Torsion [C]-N--CA-[CB] |==|  0.19441
USER: genes 12 Torsion [N]-CA--C-[N] |==|  0.52291
USER: genes 13 Torsion [C]-N--CA-[CB] |==|  0.85556
USER: genes 14 Torsion [N]-CA--CB-[CG2] |==|  0.28396
USER: genes 15 Torsion [CA]-CB--CG1-[CD1] |==|  0.82859
USER: genes 16 Torsion [N]-CA--C-[N] |==|  0.40370
USER: genes 17 Torsion [C]-N--CA-[C] |==|  0.79085
USER: genes 18 Torsion [N]-CA--C-[O] |==|  0.39949
USER: genes 19 Torsion [N]-CA--CB-[CG2] |==|  0.74526
USER: genes 20 Torsion [CA]-CB--CG1-[CD1] |==|  0.59108
USER: genes 21 Torsion [N]-CA--CB-[OG] |==|  0.77050
USER: genes 22 Torsion [CA]-CB--OG-[HG] |==|  0.23966
ROOT
ATOM      1  C   THR C   7      13.636  49.141  63.423  1.00 18.08 LIG 0.24  C 
ATOM      2 O    THR C   7      12.782  49.883  63.925  1.00 21.38 LIG-0.27  OA
ATOM      3  N   SER C   8      14.257  49.417  62.284  1.00 10.50 LIG-0.34  N 
ATOM      4 H    SER C   8      14.854  48.909  61.928  1.00 10.50 LIG 0.16  HD
ENDROOT
BRANCH 1 5
ATOM      5  CA  THR C   7      14.041  47.840  64.093  1.00 13.33 LIG 0.20  C 
BRANCH 5 6
ATOM      6  CB  THR C   7      13.224  46.665  63.527  1.00 16.97 LIG 0.15  C 
ATOM      7  CG2 THR C   7      12.346  47.137  62.375  1.00 19.32 LIG 0.04  C 
BRANCH 6 8
ATOM      8 OG1  THR C   7      14.112  45.628  63.078  1.00 21.79 LIG-0.39  OA
ATOM      9 HG1  THR C   7      14.903  45.912  63.090  1.00 21.79 LIG 0.21  HD
ENDBRANCH 6 8
ENDBRANCH 5 6
BRANCH 5 10
ATOM     10  N   THR C   7      13.937  47.957  65.533  1.00 19.25 LIG-0.34  N 
ATOM     11 H    THR C   7      13.227  48.354  65.811  1.00 19.25 LIG 0.16  HD
ATOM     12  C   PRO C   6      14.884  47.476  66.326  1.00 35.57 LIG 0.24  C 
ATOM     13 O    PRO C   6      15.791  46.738  65.923  1.00 20.23 LIG-0.27  OA
BRANCH 12 14
ATOM     14  CA  PRO C   6      14.788  47.874  67.791  1.00 23.31 LIG 0.18  C 
ATOM     15  N   PRO C   6      15.820  47.229  68.604  1.00 34.44 LIG-0.34  N 
ATOM     16  CD  PRO C   6      16.796  48.200  69.127  1.00 34.96 LIG 0.13  C 
ATOM     17  C   TYR C   5      15.848  45.903  68.772  1.00 33.78 LIG 0.26  C 
ATOM     18  CG  PRO C   6      16.558  49.404  68.266  1.00 38.31 LIG 0.02  C 
ATOM     19  CB  PRO C   6      15.110  49.365  67.939  1.00 34.95 LIG 0.04  C 
ATOM     20 O    TYR C   5      15.016  45.148  68.267  1.00 45.70 LIG-0.27  OA
BRANCH 17 21
ATOM     21  CA  TYR C   5      16.977  45.349  69.630  1.00 58.74 LIG 0.40  C 
ATOM     22  N   TYR C   5      16.483  44.385  70.605  1.00 59.06 LIG 0.61  N 
BRANCH 21 23
ATOM     23  CB  TYR C   5      18.035  44.707  68.737  1.00 34.94 LIG 0.09  C 
BRANCH 23 24
ATOM     24  CG  TYR C   5      19.382  45.380  68.818  1.00 34.23 LIG-0.06  A 
ATOM     25  CD2 TYR C   5      19.862  45.885  70.019  1.00 27.31 LIG 0.01  A 
ATOM     26  CE2 TYR C   5      21.091  46.504  70.091  1.00 26.06 LIG 0.04  A 
ATOM     27  CZ  TYR C   5      21.853  46.632  68.944  1.00 36.51 LIG 0.07  A 
ATOM     28  CE1 TYR C   5      21.394  46.143  67.744  1.00 26.29 LIG 0.04  A 
ATOM     29  CD1 TYR C   5      20.168  45.525  67.684  1.00 43.81 LIG 0.01  A 
BRANCH 27 30
ATOM     30 OH   TYR C   5      23.078  47.250  68.989  1.00 29.24 LIG-0.36  OA
ATOM     31 HH   TYR C   5      23.160  47.759  68.325  1.00 29.24 LIG 0.22  HD
ENDBRANCH 27 30
ENDBRANCH 23 24
ENDBRANCH 21 23
ENDBRANCH 17 21
ENDBRANCH 12 14
ENDBRANCH 5 10
ENDBRANCH 1 5
BRANCH 3 32
ATOM     32  CA  SER C   8      13.973  50.625  61.530  1.00 11.88 LIG 0.20  C 
BRANCH 32 33
ATOM     33  C   SER C   8      14.598  50.557  60.143  1.00 17.35 LIG 0.24  C 
ATOM     34  N   ILE C   9      14.548  51.679  59.426  1.00 10.16 LIG-0.35  N 
ATOM     35 H    ILE C   9      14.177  52.403  59.703  1.00 10.16 LIG 0.16  HD
ATOM     36 O    SER C   8      15.104  49.515  59.736  1.00 14.22 LIG-0.27  OA
BRANCH 34 37
ATOM     37  CA  ILE C   9      15.125  51.781  58.091  1.00 13.20 LIG 0.18  C 
BRANCH 37 38
ATOM     38  CB  ILE C   9      16.601  51.303  58.096  1.00  8.93 LIG 0.01  C 
ATOM     39  CG2 ILE C   9      16.709  49.887  57.516  1.00 11.66 LIG 0.01  C 
BRANCH 38 40
ATOM     40  CG1 ILE C   9      17.485  52.308  57.339  1.00 12.22 LIG 0.00  C 
ATOM     41  CD1 ILE C   9      17.098  52.465  55.851  1.00 19.01 LIG 0.01  C 
ENDBRANCH 38 40
ENDBRANCH 37 38
BRANCH 37 42
ATOM     42  C   ILE C   9      14.323  50.939  57.103  1.00 14.83 LIG 0.24  C 
ATOM     43 O    ILE C   9      13.802  49.888  57.470  1.00 18.18 LIG-0.27  OA
ATOM     44  N   ILE C  10      14.207  51.404  55.861  1.00 11.92 LIG-0.34  N 
ATOM     45 H    ILE C  10      14.553  52.142  55.586  1.00 11.92 LIG 0.16  HD
BRANCH 44 46
ATOM     46  CA  ILE C  10      13.458  50.666  54.844  1.00 12.50 LIG 0.19  C 
BRANCH 46 47
ATOM     47  C   ILE C  10      14.222  49.453  54.325  1.00 15.06 LIG 0.20  C 
ATOM     48 O    ILE C  10      13.659  48.392  54.024  1.00 13.42 LIG-0.65  OA
ATOM     49 OXT  ILE C  10      15.440  49.518  54.194  1.00 18.96 LIG-0.65  OA
ENDBRANCH 46 47
BRANCH 46 50
ATOM     50  CB  ILE C  10      13.076  51.561  53.647  1.00 14.56 LIG 0.01  C 
ATOM     51  CG2 ILE C  10      11.703  52.185  53.863  1.00 21.35 LIG 0.01  C 
BRANCH 50 52
ATOM     52  CG1 ILE C  10      14.147  52.631  53.438  1.00 14.22 LIG 0.00  C 
ATOM     53  CD1 ILE C  10      13.598  53.936  52.915  1.00 24.35 LIG 0.01  C 
ENDBRANCH 50 52
ENDBRANCH 46 50
ENDBRANCH 44 46
ENDBRANCH 37 42
ENDBRANCH 34 37
ENDBRANCH 32 33
BRANCH 32 54
ATOM     54  CB  SER C   8      14.497  51.860  62.266  1.00 17.33 LIG 0.20  C 
BRANCH 54 55
ATOM     55 OG   SER C   8      13.575  52.282  63.253  1.00 18.52 LIG-0.40  OA
ATOM     56 HG   SER C   8      13.716  51.861  63.966  1.00 18.52 LIG 0.21  HD
ENDBRANCH 54 55
ENDBRANCH 32 54
ENDBRANCH 3 32
TORSDOF 21
ENDMDL
MODEL 2
USER: ADFR SOLUTION from run 34
USER: SCORE 16.746934 LL:  -2.791 LR: -15.080 RR:   0.000 FEB:  -8.815
USER: RMSD 3.782013
USER: SEED 33
USER: STATUS 1 or 2 clusters left
USER: GENES 23
USER: genes 0 Translation |==|  0.43932 0.51670 0.51459
USER: genes 1 Rotation |==|  0.55481 0.58311 0.36016 0.96961
USER: genes 2 Torsion [N]-C--CA-[N] |==|  0.40570
USER: genes 3 Torsion [C]-CA--CB-[CG2] |==|  0.04742
USER: genes 4 Torsion [CA]-CB--OG1-[HG1] |==|  0.11525
USER: genes 5 Torsion [C]-CA--N-[C] |==|  0.62830
USER: genes 6 Torsion [N]-C--CA-[N] |==|  0.53707
USER: genes 7 Torsion [N]-C--CA-[N] |==|  0.91043
USER: genes 8 Torsion [C]-CA--CB-[CG] |==|  0.80064
USER: genes 9 Torsion [CA]-CB--CG-[CD1] |==|  0.79442
USER: genes 10 Torsion [CE2]-CZ--OH-[HH] |==|  0.71961
USER: genes 11 Torsion [C]-N--CA-[CB] |==|  0.19487
USER: genes 12 Torsion [N]-CA--C-[N] |==|  0.51760
USER: genes 13 Torsion [C]-N--CA-[CB] |==|  0.84279
USER: genes 14 Torsion [N]-CA--CB-[CG2] |==|  0.27212
USER: genes 15 Torsion [CA]-CB--CG1-[CD1] |==|  0.75260
USER: genes 16 Torsion [N]-CA--C-[N] |==|  0.41601
USER: genes 17 Torsion [C]-N--CA-[C] |==|  0.78946
USER: genes 18 Torsion [N]-CA--C-[O] |==|  0.43939
USER: genes 19 Torsion [N]-CA--CB-[CG2] |==|  0.76622
USER: genes 20 Torsion [CA]-CB--CG1-[CD1] |==|  0.58797
USER: genes 21 Torsion [N]-CA--CB-[OG] |==|  0.71393
USER: genes 22 Torsion [CA]-CB--OG-[HG] |==|  0.34046
ROOT
ATOM      1  C   THR C   7      13.631  48.668  63.108  1.00 18.08 LIG 0.24  C 
ATOM      2 O    THR C   7      12.878  49.418  63.742  1.00 21.38 LIG-0.27  OA
ATOM      3  N   SER C   8      14.217  49.020  61.972  1.00 10.50 LIG-0.34  N 
ATOM      4 H    SER C   8      14.744  48.507  61.525  1.00 10.50 LIG 0.16  HD
ENDROOT
BRANCH 1 5
ATOM      5  CA  THR C   7      13.945  47.267  63.602  1.00 13.33 LIG 0.20  C 
BRANCH 5 6
ATOM      6  CB  THR C   7      12.955  46.251  63.003  1.00 16.97 LIG 0.15  C 
ATOM      7  CG2 THR C   7      12.243  46.853  61.798  1.00 19.32 LIG 0.04  C 
BRANCH 6 8
ATOM      8 OG1  THR C   7      13.659  45.059  62.616  1.00 21.79 LIG-0.39  OA
ATOM      9 HG1  THR C   7      14.224  44.864  63.206  1.00 21.79 LIG 0.21  HD
ENDBRANCH 6 8
ENDBRANCH 5 6
BRANCH 5 10
ATOM     10  N   THR C   7      13.979  47.234  65.049  1.00 19.25 LIG-0.34  N 
ATOM     11 H    THR C   7      13.322  47.634  65.434  1.00 19.25 LIG 0.16  HD
ATOM     12  C   PRO C   6      14.963  46.623  65.694  1.00 35.57 LIG 0.24  C 
ATOM     13 O    PRO C   6      15.783  45.889  65.133  1.00 20.23 LIG-0.27  OA
BRANCH 12 14
ATOM     14  CA  PRO C   6      15.024  46.867  67.195  1.00 23.31 LIG 0.18  C 
ATOM     15  N   PRO C   6      16.295  46.425  67.771  1.00 34.44 LIG-0.34  N 
ATOM     16  CD  PRO C   6      17.101  47.557  68.260  1.00 34.96 LIG 0.13  C 
ATOM     17  C   TYR C   5      16.647  45.136  67.776  1.00 33.78 LIG 0.26  C 
ATOM     18  CG  PRO C   6      16.460  48.734  67.589  1.00 38.31 LIG 0.02  C 
ATOM     19  CB  PRO C   6      15.023  48.375  67.469  1.00 34.95 LIG 0.04  C 
ATOM     20 O    TYR C   5      15.934  44.247  67.309  1.00 45.70 LIG-0.27  OA
BRANCH 17 21
ATOM     21  CA  TYR C   5      17.999  44.802  68.394  1.00 58.74 LIG 0.40  C 
ATOM     22  N   TYR C   5      18.959  45.880  68.192  1.00 59.06 LIG 0.61  N 
BRANCH 21 23
ATOM     23  CB  TYR C   5      17.827  44.514  69.882  1.00 34.94 LIG 0.09  C 
BRANCH 23 24
ATOM     24  CG  TYR C   5      17.526  45.743  70.703  1.00 34.23 LIG-0.06  A 
ATOM     25  CD2 TYR C   5      16.248  45.987  71.188  1.00 27.31 LIG 0.01  A 
ATOM     26  CE2 TYR C   5      15.972  47.113  71.934  1.00 26.06 LIG 0.04  A 
ATOM     27  CZ  TYR C   5      16.985  48.017  72.194  1.00 36.51 LIG 0.07  A 
ATOM     28  CE1 TYR C   5      18.256  47.797  71.719  1.00 26.29 LIG 0.04  A 
ATOM     29  CD1 TYR C   5      18.520  46.670  70.978  1.00 43.81 LIG 0.01  A 
BRANCH 27 30
ATOM     30 OH   TYR C   5      16.734  49.149  72.930  1.00 29.24 LIG-0.36  OA
ATOM     31 HH   TYR C   5      16.650  49.806  72.413  1.00 29.24 LIG 0.22  HD
ENDBRANCH 27 30
ENDBRANCH 23 24
ENDBRANCH 21 23
ENDBRANCH 17 21
ENDBRANCH 12 14
ENDBRANCH 5 10
ENDBRANCH 1 5
BRANCH 3 32
ATOM     32  CA  SER C   8      14.011  50.329  61.378  1.00 11.88 LIG 0.20  C 
BRANCH 32 33
ATOM     33  C   SER C   8      14.552  50.369  59.955  1.00 17.35 LIG 0.24  C 
ATOM     34  N   ILE C   9      14.535  51.559  59.358  1.00 10.16 LIG-0.35  N 
ATOM     35 H    ILE C   9      14.228  52.272  59.728  1.00 10.16 LIG 0.16  HD
ATOM     36 O    SER C   8      14.965  49.347  59.414  1.00 14.22 LIG-0.27  OA
BRANCH 34 37
ATOM     37  CA  ILE C   9      15.041  51.766  58.007  1.00 13.20 LIG 0.18  C 
BRANCH 37 38
ATOM     38  CB  ILE C   9      16.521  51.308  57.902  1.00  8.93 LIG 0.01  C 
ATOM     39  CG2 ILE C   9      16.606  49.895  57.313  1.00 11.66 LIG 0.01  C 
BRANCH 38 40
ATOM     40  CG1 ILE C   9      17.333  52.326  57.084  1.00 12.22 LIG 0.00  C 
ATOM     41  CD1 ILE C   9      17.333  52.034  55.567  1.00 19.01 LIG 0.01  C 
ENDBRANCH 38 40
ENDBRANCH 37 38
BRANCH 37 42
ATOM     42  C   ILE C   9      14.198  50.986  57.002  1.00 14.83 LIG 0.24  C 
ATOM     43 O    ILE C   9      13.640  49.946  57.341  1.00 18.18 LIG-0.27  OA
ATOM     44  N   ILE C  10      14.090  51.494  55.775  1.00 11.92 LIG-0.34  N 
ATOM     45 H    ILE C  10      14.462  52.226  55.520  1.00 11.92 LIG 0.16  HD
BRANCH 44 46
ATOM     46  CA  ILE C  10      13.303  50.818  54.744  1.00 12.50 LIG 0.19  C 
BRANCH 46 47
ATOM     47  C   ILE C  10      14.019  49.599  54.171  1.00 15.06 LIG 0.20  C 
ATOM     48 O    ILE C  10      13.416  48.679  53.605  1.00 13.42 LIG-0.65  OA
ATOM     49 OXT  ILE C  10      15.239  49.517  54.268  1.00 18.96 LIG-0.65  OA
ENDBRANCH 46 47
BRANCH 46 50
ATOM     50  CB  ILE C  10      12.936  51.767  53.585  1.00 14.56 LIG 0.01  C 
ATOM     51  CG2 ILE C  10      11.683  52.565  53.925  1.00 21.35 LIG 0.01  C 
BRANCH 50 52
ATOM     52  CG1 ILE C  10      14.116  52.687  53.275  1.00 14.22 LIG 0.00  C 
ATOM     53  CD1 ILE C  10      13.699  54.049  52.775  1.00 24.35 LIG 0.01  C 
ENDBRANCH 50 52
ENDBRANCH 46 50
ENDBRANCH 44 46
ENDBRANCH 37 42
ENDBRANCH 34 37
ENDBRANCH 32 33
BRANCH 32 54
ATOM     54  CB  SER C   8      14.690  51.417  62.211  1.00 17.33 LIG 0.20  C 
BRANCH 54 55
ATOM     55 OG   SER C   8      13.736  52.123  62.983  1.00 18.52 LIG-0.40  OA
ATOM     56 HG   SER C   8      13.941  52.072  63.796  1.00 18.52 LIG 0.21  HD
ENDBRANCH 54 55
ENDBRANCH 32 54
ENDBRANCH 3 32
TORSDOF 21
ENDMDL
MODEL 3
USER: ADFR SOLUTION from run 200
USER: SCORE 16.395652 LL:  -3.366 LR: -15.018 RR:   0.000 FEB:  -8.754
USER: RMSD 11.910111
USER: SEED 199
USER: STATUS no improvement in best in 5 clusters for 5 generations
USER: GENES 23
USER: genes 0 Translation |==|  0.49464 0.64059 0.32233
USER: genes 1 Rotation |==|  0.30078 0.89507 0.63203 0.69184
USER: genes 2 Torsion [N]-C--CA-[N] |==|  0.18713
USER: genes 3 Torsion [C]-CA--CB-[CG2] |==|  0.24611
USER: genes 4 Torsion [CA]-CB--OG1-[HG1] |==|  0.81522
USER: genes 5 Torsion [C]-CA--N-[C] |==|  0.63412
USER: genes 6 Torsion [N]-C--CA-[N] |==|  0.76634
USER: genes 7 Torsion [N]-C--CA-[N] |==|  0.14274
USER: genes 8 Torsion [C]-CA--CB-[CG] |==|  0.18756
USER: genes 9 Torsion [CA]-CB--CG-[CD1] |==|  0.63548
USER: genes 10 Torsion [CE2]-CZ--OH-[HH] |==|  0.81213
USER: genes 11 Torsion [C]-N--CA-[CB] |==|  0.49049
USER: genes 12 Torsion [N]-CA--C-[N] |==|  0.48655
USER: genes 13 Torsion [C]-N--CA-[CB] |==|  0.47222
USER: genes 14 Torsion [N]-CA--CB-[CG2] |==|  0.27827
USER: genes 15 Torsion [CA]-CB--CG1-[CD1] |==|  0.36894
USER: genes 16 Torsion [N]-CA--C-[N] |==|  0.47820
USER: genes 17 Torsion [C]-N--CA-[C] |==|  0.89567
USER: genes 18 Torsion [N]-CA--C-[O] |==|  0.86332
USER: genes 19 Torsion [N]-CA--CB-[CG2] |==|  0.49632
USER: genes 20 Torsion [CA]-CB--CG1-[CD1] |==|  0.56121
USER: genes 21 Torsion [N]-CA--CB-[OG] |==|  0.21144
USER: genes 22 Torsion [CA]-CB--OG-[HG] |==|  0.02434
ROOT
ATOM      1  C   THR C   7      14.751  50.713  57.917  1.00 18.08 LIG 0.24  C 
ATOM      2 O    THR C   7      15.065  51.490  58.827  1.00 21.38 LIG-0.27  OA
ATOM      3  N   SER C   8      13.670  49.948  57.957  1.00 10.50 LIG-0.34  N 
ATOM      4 H    SER C   8      13.442  49.406  57.328  1.00 10.50 LIG 0.16  HD
ENDROOT
BRANCH 1 5
ATOM      5  CA  THR C   7      15.601  50.584  56.665  1.00 13.33 LIG 0.20  C 
BRANCH 5 6
ATOM      6  CB  THR C   7      16.969  51.258  56.871  1.00 16.97 LIG 0.15  C 
ATOM      7  CG2 THR C   7      17.964  50.268  57.463  1.00 19.32 LIG 0.04  C 
BRANCH 6 8
ATOM      8 OG1  THR C   7      17.458  51.757  55.614  1.00 21.79 LIG-0.39  OA
ATOM      9 HG1  THR C   7      17.624  51.113  55.102  1.00 21.79 LIG 0.21  HD
ENDBRANCH 6 8
ENDBRANCH 5 6
BRANCH 5 10
ATOM     10  N   THR C   7      14.888  51.096  55.513  1.00 19.25 LIG-0.34  N 
ATOM     11 H    THR C   7      14.529  51.868  55.626  1.00 19.25 LIG 0.16  HD
ATOM     12  C   PRO C   6      14.819  50.397  54.388  1.00 35.57 LIG 0.24  C 
ATOM     13 O    PRO C   6      15.503  49.389  54.177  1.00 20.23 LIG-0.27  OA
BRANCH 12 14
ATOM     14  CA  PRO C   6      13.844  50.918  53.342  1.00 23.31 LIG 0.18  C 
ATOM     15  N   PRO C   6      12.479  50.450  53.584  1.00 34.44 LIG-0.34  N 
ATOM     16  CD  PRO C   6      11.578  51.552  53.961  1.00 34.96 LIG 0.13  C 
ATOM     17  C   TYR C   5      12.162  49.154  53.505  1.00 33.78 LIG 0.26  C 
ATOM     18  CG  PRO C   6      12.531  52.644  54.342  1.00 38.31 LIG 0.02  C 
ATOM     19  CB  PRO C   6      13.719  52.440  53.473  1.00 34.95 LIG 0.04  C 
ATOM     20 O    TYR C   5      12.984  48.281  53.223  1.00 45.70 LIG-0.27  OA
BRANCH 17 21
ATOM     21  CA  TYR C   5      10.711  48.789  53.789  1.00 58.74 LIG 0.40  C 
ATOM     22  N   TYR C   5       9.793  49.596  52.994  1.00 59.06 LIG 0.61  N 
BRANCH 21 23
ATOM     23  CB  TYR C   5      10.490  47.305  53.512  1.00 34.94 LIG 0.09  C 
BRANCH 23 24
ATOM     24  CG  TYR C   5      11.215  46.397  54.474  1.00 34.23 LIG-0.06  A 
ATOM     25  CD2 TYR C   5      11.151  46.606  55.845  1.00 27.31 LIG 0.01  A 
ATOM     26  CE2 TYR C   5      11.818  45.779  56.723  1.00 26.06 LIG 0.04  A 
ATOM     27  CZ  TYR C   5      12.570  44.731  56.227  1.00 36.51 LIG 0.07  A 
ATOM     28  CE1 TYR C   5      12.651  44.509  54.873  1.00 26.29 LIG 0.04  A 
ATOM     29  CD1 TYR C   5      11.980  45.339  54.007  1.00 43.81 LIG 0.01  A 
BRANCH 27 30
ATOM     30 OH   TYR C   5      13.248  43.897  57.082  1.00 29.24 LIG-0.36  OA
ATOM     31 HH   TYR C   5      13.869  44.323  57.455  1.00 29.24 LIG 0.22  HD
ENDBRANCH 27 30
ENDBRANCH 23 24
ENDBRANCH 21 23
ENDBRANCH 17 21
ENDBRANCH 12 14
ENDBRANCH 5 10
ENDBRANCH 1 5
BRANCH 3 32
ATOM     32  CA  SER C   8      12.762  49.963  59.090  1.00 11.88 LIG 0.20  C 
BRANCH 32 33
ATOM     33  C   SER C   8      13.475  49.520  60.361  1.00 17.35 LIG 0.24  C 
ATOM     34  N   ILE C   9      12.763  49.592  61.484  1.00 10.16 LIG-0.35  N 
ATOM     35 H    ILE C   9      11.954  49.883  61.516  1.00 10.16 LIG 0.16  HD
ATOM     36 O    SER C   8      14.639  49.132  60.322  1.00 14.22 LIG-0.27  OA
BRANCH 34 37
ATOM     37  CA  ILE C   9      13.295  49.181  62.777  1.00 13.20 LIG 0.18  C 
BRANCH 37 38
ATOM     38  CB  ILE C   9      12.339  49.610  63.923  1.00  8.93 LIG 0.01  C 
ATOM     39  CG2 ILE C   9      11.482  48.424  64.379  1.00 11.66 LIG 0.01  C 
BRANCH 38 40
ATOM     40  CG1 ILE C   9      13.144  50.223  65.081  1.00 12.22 LIG 0.00  C 
ATOM     41  CD1 ILE C   9      12.552  51.552  65.602  1.00 19.01 LIG 0.01  C 
ENDBRANCH 38 40
ENDBRANCH 37 38
BRANCH 37 42
ATOM     42  C   ILE C   9      13.481  47.667  62.814  1.00 14.83 LIG 0.24  C 
ATOM     43 O    ILE C   9      13.074  46.973  61.885  1.00 18.18 LIG-0.27  OA
ATOM     44  N   ILE C  10      14.110  47.157  63.872  1.00 11.92 LIG-0.34  N 
ATOM     45 H    ILE C  10      14.413  47.625  64.527  1.00 11.92 LIG 0.16  HD
BRANCH 44 46
ATOM     46  CA  ILE C  10      14.335  45.717  63.996  1.00 12.50 LIG 0.19  C 
BRANCH 46 47
ATOM     47  C   ILE C  10      13.160  44.897  63.473  1.00 15.06 LIG 0.20  C 
ATOM     48 O    ILE C  10      11.990  45.126  63.805  1.00 13.42 LIG-0.65  OA
ATOM     49 OXT  ILE C  10      13.369  43.975  62.691  1.00 18.96 LIG-0.65  OA
ENDBRANCH 46 47
BRANCH 46 50
ATOM     50  CB  ILE C  10      14.618  45.301  65.454  1.00 14.56 LIG 0.01  C 
ATOM     51  CG2 ILE C  10      14.815  43.793  65.550  1.00 21.35 LIG 0.01  C 
BRANCH 50 52
ATOM     52  CG1 ILE C  10      15.838  46.057  65.980  1.00 14.22 LIG 0.00  C 
ATOM     53  CD1 ILE C  10      16.508  45.375  67.149  1.00 24.35 LIG 0.01  C 
ENDBRANCH 50 52
ENDBRANCH 46 50
ENDBRANCH 44 46
ENDBRANCH 37 42
ENDBRANCH 34 37
ENDBRANCH 32 33
BRANCH 32 54
ATOM     54  CB  SER C   8      11.560  49.051  58.836  1.00 17.33 LIG 0.20  C 
BRANCH 54 55
ATOM     55 OG   SER C   8      11.922  47.692  58.991  1.00 18.52 LIG-0.40  OA
ATOM     56 HG   SER C   8      12.698  47.644  59.310  1.00 18.52 LIG 0.21  HD
ENDBRANCH 54 55
ENDBRANCH 32 54
ENDBRANCH 3 32
TORSDOF 21
ENDMDL
MODEL 4
USER: ADFR SOLUTION from run 106
USER: SCORE 17.825989 LL:  -3.781 LR: -14.921 RR:   0.000 FEB:  -8.657
USER: RMSD 2.312512
USER: SEED 105
USER: STATUS 1 or 2 clusters left
USER: GENES 23
USER: genes 0 Translation |==|  0.45092 0.50991 0.48109
USER: genes 1 Rotation |==|  0.62577 0.11720 0.79604 0.50039
USER: genes 2 Torsion [N]-C--CA-[N] |==|  0.83351
USER: genes 3 Torsion [C]-CA--CB-[CG2] |==|  0.66371
USER: genes 4 Torsion [CA]-CB--OG1-[HG1] |==|  0.33603
USER: genes 5 Torsion [C]-CA--N-[C] |==|  0.64773
USER: genes 6 Torsion [N]-C--CA-[N] |==|  0.50851
USER: genes 7 Torsion [N]-C--CA-[N] |==|  0.34650
USER: genes 8 Torsion [C]-CA--CB-[CG] |==|  0.31869
USER: genes 9 Torsion [CA]-CB--CG-[CD1] |==|  0.60325
USER: genes 10 Torsion [CE2]-CZ--OH-[HH] |==|  0.69348
USER: genes 11 Torsion [C]-N--CA-[CB] |==|  0.87643
USER: genes 12 Torsion [N]-CA--C-[N] |==|  0.87276
USER: genes 13 Torsion [C]-N--CA-[CB] |==|  0.86085
USER: genes 14 Torsion [N]-CA--CB-[CG2] |==|  0.37693
USER: genes 15 Torsion [CA]-CB--CG1-[CD1] |==|  0.80147
USER: genes 16 Torsion [N]-CA--C-[N] |==|  0.38295
USER: genes 17 Torsion [C]-N--CA-[C] |==|  0.66101
USER: genes 18 Torsion [N]-CA--C-[O] |==|  0.93242
USER: genes 19 Torsion [N]-CA--CB-[CG2] |==|  0.68564
USER: genes 20 Torsion [CA]-CB--CG1-[CD1] |==|  0.71408
USER: genes 21 Torsion [N]-CA--CB-[OG] |==|  0.77314
USER: genes 22 Torsion [CA]-CB--OG-[HG] |==|  0.22375
ROOT
ATOM      1  C   THR C   7      13.866  48.556  62.203  1.00 18.08 LIG 0.24  C 
ATOM      2 O    THR C   7      14.861  48.907  61.556  1.00 21.38 LIG-0.27  OA
ATOM      3  N   SER C   8      12.756  49.277  62.274  1.00 10.50 LIG-0.34  N 
ATOM      4 H    SER C   8      12.058  49.041  62.719  1.00 10.50 LIG 0.16  HD
ENDROOT
BRANCH 1 5
ATOM      5  CA  THR C   7      13.849  47.248  62.974  1.00 13.33 LIG 0.20  C 
BRANCH 5 6
ATOM      6  CB  THR C   7      12.821  46.278  62.364  1.00 16.97 LIG 0.15  C 
ATOM      7  CG2 THR C   7      11.780  45.887  63.404  1.00 19.32 LIG 0.04  C 
BRANCH 6 8
ATOM      8 OG1  THR C   7      12.183  46.895  61.234  1.00 21.79 LIG-0.39  OA
ATOM      9 HG1  THR C   7      12.315  46.428  60.548  1.00 21.79 LIG 0.21  HD
ENDBRANCH 6 8
ENDBRANCH 5 6
BRANCH 5 10
ATOM     10  N   THR C   7      13.627  47.491  64.384  1.00 19.25 LIG-0.34  N 
ATOM     11 H    THR C   7      12.934  47.967  64.562  1.00 19.25 LIG 0.16  HD
ATOM     12  C   PRO C   6      14.453  47.001  65.299  1.00 35.57 LIG 0.24  C 
ATOM     13 O    PRO C   6      15.322  46.161  65.041  1.00 20.23 LIG-0.27  OA
BRANCH 12 14
ATOM     14  CA  PRO C   6      14.261  47.526  66.714  1.00 23.31 LIG 0.18  C 
ATOM     15  N   PRO C   6      15.259  46.986  67.639  1.00 34.44 LIG-0.34  N 
ATOM     16  CD  PRO C   6      16.179  48.027  68.125  1.00 34.96 LIG 0.13  C 
ATOM     17  C   TYR C   5      15.308  45.682  67.927  1.00 33.78 LIG 0.26  C 
ATOM     18  CG  PRO C   6      15.964  49.143  67.146  1.00 38.31 LIG 0.02  C 
ATOM     19  CB  PRO C   6      14.539  49.033  66.743  1.00 34.95 LIG 0.04  C 
ATOM     20 O    TYR C   5      14.525  44.861  67.447  1.00 45.70 LIG-0.27  OA
BRANCH 17 21
ATOM     21  CA  TYR C   5      16.398  45.239  68.894  1.00 58.74 LIG 0.40  C 
ATOM     22  N   TYR C   5      15.841  44.516  70.031  1.00 59.06 LIG 0.61  N 
BRANCH 21 23
ATOM     23  CB  TYR C   5      17.416  44.372  68.160  1.00 34.94 LIG 0.09  C 
BRANCH 23 24
ATOM     24  CG  TYR C   5      18.788  44.992  68.076  1.00 34.23 LIG-0.06  A 
ATOM     25  CD2 TYR C   5      19.301  45.747  69.122  1.00 27.31 LIG 0.01  A 
ATOM     26  CE2 TYR C   5      20.552  46.318  69.042  1.00 26.06 LIG 0.04  A 
ATOM     27  CZ  TYR C   5      21.304  46.143  67.894  1.00 36.51 LIG 0.07  A 
ATOM     28  CE1 TYR C   5      20.813  45.404  66.845  1.00 26.29 LIG 0.04  A 
ATOM     29  CD1 TYR C   5      19.564  44.837  66.937  1.00 43.81 LIG 0.01  A 
BRANCH 27 30
ATOM     30 OH   TYR C   5      22.551  46.707  67.789  1.00 29.24 LIG-0.36  OA
ATOM     31 HH   TYR C   5      22.531  47.328  67.224  1.00 29.24 LIG 0.22  HD
ENDBRANCH 27 30
ENDBRANCH 23 24
ENDBRANCH 21 23
ENDBRANCH 17 21
ENDBRANCH 12 14
ENDBRANCH 5 10
ENDBRANCH 1 5
BRANCH 3 32
ATOM     32  CA  SER C   8      12.625  50.551  61.590  1.00 11.88 LIG 0.20  C 
BRANCH 32 33
ATOM     33  C   SER C   8      12.373  50.344  60.102  1.00 17.35 LIG 0.24  C 
ATOM     34  N   ILE C   9      13.151  49.447  59.499  1.00 10.16 LIG-0.35  N 
ATOM     35 H    ILE C   9      13.774  49.012  59.901  1.00 10.16 LIG 0.16  HD
ATOM     36 O    SER C   8      11.503  50.986  59.520  1.00 14.22 LIG-0.27  OA
BRANCH 34 37
ATOM     37  CA  ILE C   9      13.016  49.118  58.085  1.00 13.20 LIG 0.18  C 
BRANCH 37 38
ATOM     38  CB  ILE C   9      11.537  48.800  57.737  1.00  8.93 LIG 0.01  C 
ATOM     39  CG2 ILE C   9      11.134  49.489  56.428  1.00 11.66 LIG 0.01  C 
BRANCH 38 40
ATOM     40  CG1 ILE C   9      11.322  47.279  57.681  1.00 12.22 LIG 0.00  C 
ATOM     41  CD1 ILE C   9      11.978  46.611  56.451  1.00 19.01 LIG 0.01  C 
ENDBRANCH 38 40
ENDBRANCH 37 38
BRANCH 37 42
ATOM     42  C   ILE C   9      13.501  50.280  57.223  1.00 14.83 LIG 0.24  C 
ATOM     43 O    ILE C   9      13.223  51.436  57.534  1.00 18.18 LIG-0.27  OA
ATOM     44  N   ILE C  10      14.238  49.979  56.156  1.00 11.92 LIG-0.34  N 
ATOM     45 H    ILE C  10      14.455  49.179  55.927  1.00 11.92 LIG 0.16  HD
BRANCH 44 46
ATOM     46  CA  ILE C  10      14.747  51.027  55.270  1.00 12.50 LIG 0.19  C 
BRANCH 46 47
ATOM     47  C   ILE C  10      14.286  50.845  53.828  1.00 15.06 LIG 0.20  C 
ATOM     48 O    ILE C  10      13.955  49.744  53.370  1.00 13.42 LIG-0.65  OA
ATOM     49 OXT  ILE C  10      14.233  51.819  53.085  1.00 18.96 LIG-0.65  OA
ENDBRANCH 46 47
BRANCH 46 50
ATOM     50  CB  ILE C  10      16.289  51.099  55.291  1.00 14.56 LIG 0.01  C 
ATOM     51  CG2 ILE C  10      16.752  52.410  55.917  1.00 21.35 LIG 0.01  C 
BRANCH 50 52
ATOM     52  CG1 ILE C  10      16.854  49.894  56.040  1.00 14.22 LIG 0.00  C 
ATOM     53  CD1 ILE C  10      17.316  50.219  57.440  1.00 24.35 LIG 0.01  C 
ENDBRANCH 50 52
ENDBRANCH 46 50
ENDBRANCH 44 46
ENDBRANCH 37 42
ENDBRANCH 34 37
ENDBRANCH 32 33
BRANCH 32 54
ATOM     54  CB  SER C   8      13.882  51.402  61.781  1.00 17.33 LIG 0.20  C 
BRANCH 54 55
ATOM     55 OG   SER C   8      13.850  52.067  63.029  1.00 18.52 LIG-0.40  OA
ATOM     56 HG   SER C   8      14.089  51.537  63.635  1.00 18.52 LIG 0.21  HD
ENDBRANCH 54 55
ENDBRANCH 32 54
ENDBRANCH 3 32
TORSDOF 21
ENDMDL
MODEL 5
USER: ADFR SOLUTION from run 22
USER: SCORE 15.868381 LL:  -3.340 LR: -14.675 RR:   0.000 FEB:  -8.411
USER: RMSD 2.675100
USER: SEED 21
USER: STATUS no improvement in best in 3 clusters for 5 generations
USER: GENES 23
USER: genes 0 Translation |==|  0.40806 0.49310 0.54036
USER: genes 1 Rotation |==|  0.52117 0.48606 0.49767 0.99935
USER: genes 2 Torsion [N]-C--CA-[N] |==|  0.33462
USER: genes 3 Torsion [C]-CA--CB-[CG2] |==|  0.14953
USER: genes 4 Torsion [CA]-CB--OG1-[HG1] |==|  0.43202
USER: genes 5 Torsion [C]-CA--N-[C] |==|  0.61310
USER: genes 6 Torsion [N]-C--CA-[N] |==|  0.51866
USER: genes 7 Torsion [N]-C--CA-[N] |==|  0.28780
USER: genes 8 Torsion [C]-CA--CB-[CG] |==|  0.39228
USER: genes 9 Torsion [CA]-CB--CG-[CD1] |==|  0.10994
USER: genes 10 Torsion [CE2]-CZ--OH-[HH] |==|  0.66467
USER: genes 11 Torsion [C]-N--CA-[CB] |==|  0.27459
USER: genes 12 Torsion [N]-CA--C-[N] |==|  0.34566
USER: genes 13 Torsion [C]-N--CA-[CB] |==|  0.52470
USER: genes 14 Torsion [N]-CA--CB-[CG2] |==|  0.50404
USER: genes 15 Torsion [CA]-CB--CG1-[CD1] |==|  0.30307
USER: genes 16 Torsion [N]-CA--C-[N] |==|  0.29071
USER: genes 17 Torsion [C]-N--CA-[C] |==|  0.14594
USER: genes 18 Torsion [N]-CA--C-[O] |==|  0.57369
USER: genes 19 Torsion [N]-CA--CB-[CG2] |==|  0.57893
USER: genes 20 Torsion [CA]-CB--CG1-[CD1] |==|  0.36423
USER: genes 21 Torsion [N]-CA--CB-[OG] |==|  0.88748
USER: genes 22 Torsion [CA]-CB--OG-[HG] |==|  0.23956
ROOT
ATOM      1  C   THR C   7      12.998  48.279  63.804  1.00 18.08 LIG 0.24  C 
ATOM      2 O    THR C   7      11.795  48.541  63.930  1.00 21.38 LIG-0.27  OA
ATOM      3  N   SER C   8      13.771  48.843  62.886  1.00 10.50 LIG-0.34  N 
ATOM      4 H    SER C   8      14.608  48.669  62.792  1.00 10.50 LIG 0.16  HD
ENDROOT
BRANCH 1 5
ATOM      5  CA  THR C   7      13.685  47.277  64.714  1.00 13.33 LIG 0.20  C 
BRANCH 5 6
ATOM      6  CB  THR C   7      13.130  45.862  64.473  1.00 16.97 LIG 0.15  C 
ATOM      7  CG2 THR C   7      13.224  45.500  62.997  1.00 19.32 LIG 0.04  C 
BRANCH 6 8
ATOM      8 OG1  THR C   7      13.865  44.911  65.263  1.00 21.79 LIG-0.39  OA
ATOM      9 HG1  THR C   7      13.388  44.234  65.402  1.00 21.79 LIG 0.21  HD
ENDBRANCH 6 8
ENDBRANCH 5 6
BRANCH 5 10
ATOM     10  N   THR C   7      13.584  47.694  66.097  1.00 19.25 LIG-0.34  N 
ATOM     11 H    THR C   7      12.820  48.021  66.319  1.00 19.25 LIG 0.16  HD
ATOM     12  C   PRO C   6      14.611  47.566  66.926  1.00 35.57 LIG 0.24  C 
ATOM     13 O    PRO C   6      15.625  46.917  66.646  1.00 20.23 LIG-0.27  OA
BRANCH 12 14
ATOM     14  CA  PRO C   6      14.469  48.261  68.272  1.00 23.31 LIG 0.18  C 
ATOM     15  N   PRO C   6      15.704  48.199  69.054  1.00 34.44 LIG-0.34  N 
ATOM     16  CD  PRO C   6      16.317  49.528  69.219  1.00 34.96 LIG 0.13  C 
ATOM     17  C   TYR C   5      16.193  47.036  69.494  1.00 33.78 LIG 0.26  C 
ATOM     18  CG  PRO C   6      15.633  50.342  68.163  1.00 38.31 LIG 0.02  C 
ATOM     19  CB  PRO C   6      14.269  49.764  68.053  1.00 34.95 LIG 0.04  C 
ATOM     20 O    TYR C   5      15.642  45.955  69.280  1.00 45.70 LIG-0.27  OA
BRANCH 17 21
ATOM     21  CA  TYR C   5      17.492  47.100  70.288  1.00 58.74 LIG 0.40  C 
ATOM     22  N   TYR C   5      17.252  46.938  71.717  1.00 59.06 LIG 0.61  N 
BRANCH 21 23
ATOM     23  CB  TYR C   5      18.455  46.029  69.786  1.00 34.94 LIG 0.09  C 
BRANCH 23 24
ATOM     24  CG  TYR C   5      19.892  46.485  69.736  1.00 34.23 LIG-0.06  A 
ATOM     25  CD2 TYR C   5      20.729  46.105  68.695  1.00 27.31 LIG 0.01  A 
ATOM     26  CE2 TYR C   5      22.044  46.518  68.653  1.00 26.06 LIG 0.04  A 
ATOM     27  CZ  TYR C   5      22.536  47.314  69.671  1.00 36.51 LIG 0.07  A 
ATOM     28  CE1 TYR C   5      21.725  47.696  70.712  1.00 26.29 LIG 0.04  A 
ATOM     29  CD1 TYR C   5      20.416  47.281  70.743  1.00 43.81 LIG 0.01  A 
BRANCH 27 30
ATOM     30 OH   TYR C   5      23.844  47.733  69.654  1.00 29.24 LIG-0.36  OA
ATOM     31 HH   TYR C   5      24.235  47.459  70.345  1.00 29.24 LIG 0.22  HD
ENDBRANCH 27 30
ENDBRANCH 23 24
ENDBRANCH 21 23
ENDBRANCH 17 21
ENDBRANCH 12 14
ENDBRANCH 5 10
ENDBRANCH 1 5
BRANCH 3 32
ATOM     32  CA  SER C   8      13.253  49.820  61.944  1.00 11.88 LIG 0.20  C 
BRANCH 32 33
ATOM     33  C   SER C   8      13.833  49.593  60.555  1.00 17.35 LIG 0.24  C 
ATOM     34  N   ILE C   9      12.947  49.427  59.574  1.00 10.16 LIG-0.35  N 
ATOM     35 H    ILE C   9      12.096  49.429  59.697  1.00 10.16 LIG 0.16  HD
ATOM     36 O    SER C   8      15.048  49.562  60.381  1.00 14.22 LIG-0.27  OA
BRANCH 34 37
ATOM     37  CA  ILE C   9      13.344  49.226  58.186  1.00 13.20 LIG 0.18  C 
BRANCH 37 38
ATOM     38  CB  ILE C   9      12.107  49.288  57.249  1.00  8.93 LIG 0.01  C 
ATOM     39  CG2 ILE C   9      12.523  49.040  55.794  1.00 11.66 LIG 0.01  C 
BRANCH 38 40
ATOM     40  CG1 ILE C   9      11.035  48.293  57.723  1.00 12.22 LIG 0.00  C 
ATOM     41  CD1 ILE C   9       9.793  48.977  58.337  1.00 19.01 LIG 0.01  C 
ENDBRANCH 38 40
ENDBRANCH 37 38
BRANCH 37 42
ATOM     42  C   ILE C   9      14.351  50.293  57.764  1.00 14.83 LIG 0.24  C 
ATOM     43 O    ILE C   9      13.977  51.443  57.548  1.00 18.18 LIG-0.27  OA
ATOM     44  N   ILE C  10      15.626  49.920  57.666  1.00 11.92 LIG-0.34  N 
ATOM     45 H    ILE C  10      15.911  49.125  57.824  1.00 11.92 LIG 0.16  HD
BRANCH 44 46
ATOM     46  CA  ILE C  10      16.663  50.873  57.269  1.00 12.50 LIG 0.19  C 
BRANCH 46 47
ATOM     47  C   ILE C  10      16.645  52.140  58.117  1.00 15.06 LIG 0.20  C 
ATOM     48 O    ILE C  10      17.061  53.227  57.697  1.00 13.42 LIG-0.65  OA
ATOM     49 OXT  ILE C  10      16.203  52.094  59.261  1.00 18.96 LIG-0.65  OA
ENDBRANCH 46 47
BRANCH 46 50
ATOM     50  CB  ILE C  10      16.541  51.271  55.783  1.00 14.56 LIG 0.01  C 
ATOM     51  CG2 ILE C  10      17.906  51.644  55.217  1.00 21.35 LIG 0.01  C 
BRANCH 50 52
ATOM     52  CG1 ILE C  10      15.903  50.129  54.992  1.00 14.22 LIG 0.00  C 
ATOM     53  CD1 ILE C  10      14.768  50.576  54.104  1.00 24.35 LIG 0.01  C 
ENDBRANCH 50 52
ENDBRANCH 46 50
ENDBRANCH 44 46
ENDBRANCH 37 42
ENDBRANCH 34 37
ENDBRANCH 32 33
BRANCH 32 54
ATOM     54  CB  SER C   8      13.576  51.242  62.405  1.00 17.33 LIG 0.20  C 
BRANCH 54 55
ATOM     55 OG   SER C   8      13.404  51.365  63.804  1.00 18.52 LIG-0.40  OA
ATOM     56 HG   SER C   8      14.111  51.133  64.195  1.00 18.52 LIG 0.21  HD
ENDBRANCH 54 55
ENDBRANCH 32 54
ENDBRANCH 3 32
TORSDOF 21
ENDMDL
MODEL 6
USER: ADFR SOLUTION from run 96
USER: SCORE 15.398795 LL:  -3.389 LR: -14.602 RR:   0.000 FEB:  -8.338
USER: RMSD 5.207398
USER: SEED 95
USER: STATUS searching
USER: GENES 23
USER: genes 0 Translation |==|  0.45392 0.57286 0.41581
USER: genes 1 Rotation |==|  0.41853 0.61501 0.02187 0.53905
USER: genes 2 Torsion [N]-C--CA-[N] |==|  0.34118
USER: genes 3 Torsion [C]-CA--CB-[CG2] |==|  0.91304
USER: genes 4 Torsion [CA]-CB--OG1-[HG1] |==|  0.47118
USER: genes 5 Torsion [C]-CA--N-[C] |==|  0.73979
USER: genes 6 Torsion [N]-C--CA-[N] |==|  0.27723
USER: genes 7 Torsion [N]-C--CA-[N] |==|  0.82735
USER: genes 8 Torsion [C]-CA--CB-[CG] |==|  0.33595
USER: genes 9 Torsion [CA]-CB--CG-[CD1] |==|  0.04797
USER: genes 10 Torsion [CE2]-CZ--OH-[HH] |==|  0.85898
USER: genes 11 Torsion [C]-N--CA-[CB] |==|  0.47778
USER: genes 12 Torsion [N]-CA--C-[N] |==|  0.44637
USER: genes 13 Torsion [C]-N--CA-[CB] |==|  0.35413
USER: genes 14 Torsion [N]-CA--CB-[CG2] |==|  0.58523
USER: genes 15 Torsion [CA]-CB--CG1-[CD1] |==|  0.78531
USER: genes 16 Torsion [N]-CA--C-[N] |==|  0.29503
USER: genes 17 Torsion [C]-N--CA-[C] |==|  0.62656
USER: genes 18 Torsion [N]-CA--C-[O] |==|  0.10216
USER: genes 19 Torsion [N]-CA--CB-[CG2] |==|  0.82122
USER: genes 20 Torsion [CA]-CB--CG1-[CD1] |==|  0.69477
USER: genes 21 Torsion [N]-CA--CB-[OG] |==|  0.79970
USER: genes 22 Torsion [CA]-CB--OG-[HG] |==|  0.97183
ROOT
ATOM      1  C   THR C   7      13.927  49.595  60.441  1.00 18.08 LIG 0.24  C 
ATOM      2 O    THR C   7      15.125  49.561  60.132  1.00 21.38 LIG-0.27  OA
ATOM      3  N   SER C   8      12.947  49.420  59.566  1.00 10.50 LIG-0.34  N 
ATOM      4 H    SER C   8      12.112  49.440  59.771  1.00 10.50 LIG 0.16  HD
ENDROOT
BRANCH 1 5
ATOM      5  CA  THR C   7      13.490  49.842  61.875  1.00 13.33 LIG 0.20  C 
BRANCH 5 6
ATOM      6  CB  THR C   7      13.815  51.286  62.296  1.00 16.97 LIG 0.15  C 
ATOM      7  CG2 THR C   7      15.064  51.780  61.577  1.00 19.32 LIG 0.04  C 
BRANCH 6 8
ATOM      8 OG1  THR C   7      12.700  52.141  61.993  1.00 21.79 LIG-0.39  OA
ATOM      9 HG1  THR C   7      12.819  52.893  62.348  1.00 21.79 LIG 0.21  HD
ENDBRANCH 6 8
ENDBRANCH 5 6
BRANCH 5 10
ATOM     10  N   THR C   7      14.071  48.853  62.759  1.00 19.25 LIG-0.34  N 
ATOM     11 H    THR C   7      14.857  49.046  63.049  1.00 19.25 LIG 0.16  HD
ATOM     12  C   PRO C   6      13.410  47.747  63.073  1.00 35.57 LIG 0.24  C 
ATOM     13 O    PRO C   6      12.214  47.579  62.811  1.00 20.23 LIG-0.27  OA
BRANCH 12 14
ATOM     14  CA  PRO C   6      14.212  46.678  63.801  1.00 23.31 LIG 0.18  C 
ATOM     15  N   PRO C   6      13.969  46.698  65.244  1.00 34.44 LIG-0.34  N 
ATOM     16  CD  PRO C   6      13.264  45.488  65.699  1.00 34.96 LIG 0.13  C 
ATOM     17  C   TYR C   5      14.323  47.744  65.997  1.00 33.78 LIG 0.26  C 
ATOM     18  CG  PRO C   6      12.721  44.920  64.423  1.00 38.31 LIG 0.02  C 
ATOM     19  CB  PRO C   6      13.715  45.291  63.383  1.00 34.95 LIG 0.04  C 
ATOM     20 O    TYR C   5      14.876  48.743  65.535  1.00 45.70 LIG-0.27  OA
BRANCH 17 21
ATOM     21  CA  TYR C   5      14.007  47.651  67.484  1.00 58.74 LIG 0.40  C 
ATOM     22  N   TYR C   5      12.572  47.548  67.719  1.00 59.06 LIG 0.61  N 
BRANCH 21 23
ATOM     23  CB  TYR C   5      14.732  46.453  68.090  1.00 34.94 LIG 0.09  C 
BRANCH 23 24
ATOM     24  CG  TYR C   5      15.676  46.821  69.207  1.00 34.23 LIG-0.06  A 
ATOM     25  CD2 TYR C   5      16.653  45.935  69.642  1.00 27.31 LIG 0.01  A 
ATOM     26  CE2 TYR C   5      17.512  46.270  70.667  1.00 26.06 LIG 0.04  A 
ATOM     27  CZ  TYR C   5      17.389  47.505  71.277  1.00 36.51 LIG 0.07  A 
ATOM     28  CE1 TYR C   5      16.426  48.394  70.864  1.00 26.29 LIG 0.04  A 
ATOM     29  CD1 TYR C   5      15.577  48.051  69.840  1.00 43.81 LIG 0.01  A 
BRANCH 27 30
ATOM     30 OH   TYR C   5      18.230  47.859  72.303  1.00 29.24 LIG-0.36  OA
ATOM     31 HH   TYR C   5      18.238  47.249  72.881  1.00 29.24 LIG 0.22  HD
ENDBRANCH 27 30
ENDBRANCH 23 24
ENDBRANCH 21 23
ENDBRANCH 17 21
ENDBRANCH 12 14
ENDBRANCH 5 10
ENDBRANCH 1 5
BRANCH 3 32
ATOM     32  CA  SER C   8      13.211  49.175  58.159  1.00 11.88 LIG 0.20  C 
BRANCH 32 33
ATOM     33  C   SER C   8      13.848  50.396  57.507  1.00 17.35 LIG 0.24  C 
ATOM     34  N   ILE C   9      14.491  50.176  56.362  1.00 10.16 LIG-0.35  N 
ATOM     35 H    ILE C   9      14.569  49.398  56.002  1.00 10.16 LIG 0.16  HD
ATOM     36 O    SER C   8      13.762  51.502  58.033  1.00 14.22 LIG-0.27  OA
BRANCH 34 37
ATOM     37  CA  ILE C   9      15.129  51.245  55.604  1.00 13.20 LIG 0.18  C 
BRANCH 37 38
ATOM     38  CB  ILE C   9      16.608  50.887  55.294  1.00  8.93 LIG 0.01  C 
ATOM     39  CG2 ILE C   9      17.463  52.158  55.220  1.00 11.66 LIG 0.01  C 
BRANCH 38 40
ATOM     40  CG1 ILE C   9      17.141  49.890  56.337  1.00 12.22 LIG 0.00  C 
ATOM     41  CD1 ILE C   9      17.497  50.549  57.689  1.00 19.01 LIG 0.01  C 
ENDBRANCH 38 40
ENDBRANCH 37 38
BRANCH 37 42
ATOM     42  C   ILE C   9      14.382  51.484  54.295  1.00 14.83 LIG 0.24  C 
ATOM     43 O    ILE C   9      14.470  50.671  53.378  1.00 18.18 LIG-0.27  OA
ATOM     44  N   ILE C  10      13.634  52.583  54.214  1.00 11.92 LIG-0.34  N 
ATOM     45 H    ILE C  10      13.549  53.158  54.847  1.00 11.92 LIG 0.16  HD
BRANCH 44 46
ATOM     46  CA  ILE C  10      12.882  52.896  52.999  1.00 12.50 LIG 0.19  C 
BRANCH 46 47
ATOM     47  C   ILE C  10      13.031  54.355  52.582  1.00 15.06 LIG 0.20  C 
ATOM     48 O    ILE C  10      14.093  54.978  52.710  1.00 13.42 LIG-0.65  OA
ATOM     49 OXT  ILE C  10      12.071  54.945  52.098  1.00 18.96 LIG-0.65  OA
ENDBRANCH 46 47
BRANCH 46 50
ATOM     50  CB  ILE C  10      11.380  52.577  53.153  1.00 14.56 LIG 0.01  C 
ATOM     51  CG2 ILE C  10      11.170  51.080  53.348  1.00 21.35 LIG 0.01  C 
BRANCH 50 52
ATOM     52  CG1 ILE C  10      10.798  53.377  54.318  1.00 14.22 LIG 0.00  C 
ATOM     53  CD1 ILE C  10      10.437  52.524  55.510  1.00 24.35 LIG 0.01  C 
ENDBRANCH 50 52
ENDBRANCH 46 50
ENDBRANCH 44 46
ENDBRANCH 37 42
ENDBRANCH 34 37
ENDBRANCH 32 33
BRANCH 32 54
ATOM     54  CB  SER C   8      11.922  48.815  57.418  1.00 17.33 LIG 0.20  C 
BRANCH 54 55
ATOM     55 OG   SER C   8      11.489  47.516  57.772  1.00 18.52 LIG-0.40  OA
ATOM     56 HG   SER C   8      12.091  47.131  58.214  1.00 18.52 LIG 0.21  HD
ENDBRANCH 54 55
ENDBRANCH 32 54
ENDBRANCH 3 32
TORSDOF 21
ENDMDL
MODEL 7
USER: ADFR SOLUTION from run 11
USER: SCORE 15.836892 LL:  -2.856 LR: -14.593 RR:   0.000 FEB:  -8.328
USER: RMSD 11.853034
USER: SEED 65163
USER: STATUS no improvement in best in 3 clusters for 5 generations
USER: GENES 23
USER: genes 0 Translation |==|  0.54189 0.65791 0.32812
USER: genes 1 Rotation |==|  0.27000 0.93313 0.59308 0.52881
USER: genes 2 Torsion [N]-C--CA-[N] |==|  0.30281
USER: genes 3 Torsion [C]-CA--CB-[CG2] |==|  0.73438
USER: genes 4 Torsion [CA]-CB--OG1-[HG1] |==|  0.84562
USER: genes 5 Torsion [C]-CA--N-[C] |==|  0.57938
USER: genes 6 Torsion [N]-C--CA-[N] |==|  0.70868
USER: genes 7 Torsion [N]-C--CA-[N] |==|  0.17122
USER: genes 8 Torsion [C]-CA--CB-[CG] |==|  0.19540
USER: genes 9 Torsion [CA]-CB--CG-[CD1] |==|  0.60103
USER: genes 10 Torsion [CE2]-CZ--OH-[HH] |==|  0.08845
USER: genes 11 Torsion [C]-N--CA-[CB] |==|  0.23312
USER: genes 12 Torsion [N]-CA--C-[N] |==|  0.50462
USER: genes 13 Torsion [C]-N--CA-[CB] |==|  0.54444
USER: genes 14 Torsion [N]-CA--CB-[CG2] |==|  0.69301
USER: genes 15 Torsion [CA]-CB--CG1-[CD1] |==|  0.59858
USER: genes 16 Torsion [N]-CA--C-[N] |==|  0.44015
USER: genes 17 Torsion [C]-N--CA-[C] |==|  0.79291
USER: genes 18 Torsion [N]-CA--C-[O] |==|  0.91139
USER: genes 19 Torsion [N]-CA--CB-[CG2] |==|  0.38209
USER: genes 20 Torsion [CA]-CB--CG1-[CD1] |==|  0.62960
USER: genes 21 Torsion [N]-CA--CB-[OG] |==|  0.50683
USER: genes 22 Torsion [CA]-CB--OG-[HG] |==|  0.76174
ROOT
ATOM      1  C   THR C   7      15.708  50.999  58.073  1.00 18.08 LIG 0.24  C 
ATOM      2 O    THR C   7      16.163  52.125  58.311  1.00 21.38 LIG-0.27  OA
ATOM      3  N   SER C   8      14.973  50.316  58.939  1.00 10.50 LIG-0.34  N 
ATOM      4 H    SER C   8      14.650  49.534  58.783  1.00 10.50 LIG 0.16  HD
ENDROOT
BRANCH 1 5
ATOM      5  CA  THR C   7      15.964  50.311  56.744  1.00 13.33 LIG 0.20  C 
BRANCH 5 6
ATOM      6  CB  THR C   7      17.475  50.233  56.460  1.00 16.97 LIG 0.15  C 
ATOM      7  CG2 THR C   7      17.909  51.398  55.579  1.00 19.32 LIG 0.04  C 
BRANCH 6 8
ATOM      8 OG1  THR C   7      18.203  50.253  57.699  1.00 21.79 LIG-0.39  OA
ATOM      9 HG1  THR C   7      17.987  50.935  58.140  1.00 21.79 LIG 0.21  HD
ENDBRANCH 6 8
ENDBRANCH 5 6
BRANCH 5 10
ATOM     10  N   THR C   7      15.224  50.963  55.684  1.00 19.25 LIG-0.34  N 
ATOM     11 H    THR C   7      15.075  51.800  55.811  1.00 19.25 LIG 0.16  HD
ATOM     12  C   PRO C   6      14.825  50.287  54.615  1.00 35.57 LIG 0.24  C 
ATOM     13 O    PRO C   6      15.216  49.144  54.355  1.00 20.23 LIG-0.27  OA
BRANCH 12 14
ATOM     14  CA  PRO C   6      13.851  51.012  53.697  1.00 23.31 LIG 0.18  C 
ATOM     15  N   PRO C   6      12.484  50.509  53.841  1.00 34.44 LIG-0.34  N 
ATOM     16  CD  PRO C   6      11.587  51.515  54.434  1.00 34.96 LIG 0.13  C 
ATOM     17  C   TYR C   5      12.163  49.257  53.503  1.00 33.78 LIG 0.26  C 
ATOM     18  CG  PRO C   6      12.545  52.505  55.027  1.00 38.31 LIG 0.02  C 
ATOM     19  CB  PRO C   6      13.731  52.477  54.133  1.00 34.95 LIG 0.04  C 
ATOM     20 O    TYR C   5      12.982  48.456  53.049  1.00 45.70 LIG-0.27  OA
BRANCH 17 21
ATOM     21  CA  TYR C   5      10.711  48.847  53.709  1.00 58.74 LIG 0.40  C 
ATOM     22  N   TYR C   5       9.808  49.657  52.900  1.00 59.06 LIG 0.61  N 
BRANCH 21 23
ATOM     23  CB  TYR C   5      10.542  47.368  53.375  1.00 34.94 LIG 0.09  C 
BRANCH 23 24
ATOM     24  CG  TYR C   5      11.190  46.445  54.376  1.00 34.23 LIG-0.06  A 
ATOM     25  CD2 TYR C   5      11.212  46.755  55.729  1.00 27.31 LIG 0.01  A 
ATOM     26  CE2 TYR C   5      11.809  45.913  56.643  1.00 26.06 LIG 0.04  A 
ATOM     27  CZ  TYR C   5      12.404  44.746  56.200  1.00 36.51 LIG 0.07  A 
ATOM     28  CE1 TYR C   5      12.397  44.423  54.864  1.00 26.29 LIG 0.04  A 
ATOM     29  CD1 TYR C   5      11.797  45.269  53.962  1.00 43.81 LIG 0.01  A 
BRANCH 27 30
ATOM     30 OH   TYR C   5      13.010  43.895  57.091  1.00 29.24 LIG-0.36  OA
ATOM     31 HH   TYR C   5      12.610  43.931  57.829  1.00 29.24 LIG 0.22  HD
ENDBRANCH 27 30
ENDBRANCH 23 24
ENDBRANCH 21 23
ENDBRANCH 17 21
ENDBRANCH 12 14
ENDBRANCH 5 10
ENDBRANCH 1 5
BRANCH 3 32
ATOM     32  CA  SER C   8      14.646  50.846  60.251  1.00 11.88 LIG 0.20  C 
BRANCH 32 33
ATOM     33  C   SER C   8      14.376  49.718  61.239  1.00 17.35 LIG 0.24  C 
ATOM     34  N   ILE C   9      14.031  50.092  62.470  1.00 10.16 LIG-0.35  N 
ATOM     35 H    ILE C   9      13.974  50.914  62.718  1.00 10.16 LIG 0.16  HD
ATOM     36 O    SER C   8      14.485  48.545  60.893  1.00 14.22 LIG-0.27  OA
BRANCH 34 37
ATOM     37  CA  ILE C   9      13.716  49.132  63.520  1.00 13.20 LIG 0.18  C 
BRANCH 37 38
ATOM     38  CB  ILE C   9      12.977  49.830  64.694  1.00  8.93 LIG 0.01  C 
ATOM     39  CG2 ILE C   9      13.876  49.890  65.935  1.00 11.66 LIG 0.01  C 
BRANCH 38 40
ATOM     40  CG1 ILE C   9      12.493  51.223  64.261  1.00 12.22 LIG 0.00  C 
ATOM     41  CD1 ILE C   9      12.559  52.274  65.392  1.00 19.01 LIG 0.01  C 
ENDBRANCH 38 40
ENDBRANCH 37 38
BRANCH 37 42
ATOM     42  C   ILE C   9      12.841  48.011  62.967  1.00 14.83 LIG 0.24  C 
ATOM     43 O    ILE C   9      12.200  48.183  61.932  1.00 18.18 LIG-0.27  OA
ATOM     44  N   ILE C  10      12.829  46.862  63.639  1.00 11.92 LIG-0.34  N 
ATOM     45 H    ILE C  10      13.278  46.716  64.358  1.00 11.92 LIG 0.16  HD
BRANCH 44 46
ATOM     46  CA  ILE C  10      12.020  45.730  63.185  1.00 12.50 LIG 0.19  C 
BRANCH 46 47
ATOM     47  C   ILE C  10      10.533  45.930  63.458  1.00 15.06 LIG 0.20  C 
ATOM     48 O    ILE C  10      10.116  46.568  64.433  1.00 13.42 LIG-0.65  OA
ATOM     49 OXT  ILE C  10       9.709  45.448  62.688  1.00 18.96 LIG-0.65  OA
ENDBRANCH 46 47
BRANCH 46 50
ATOM     50  CB  ILE C  10      12.468  44.404  63.835  1.00 14.56 LIG 0.01  C 
ATOM     51  CG2 ILE C  10      11.257  43.580  64.255  1.00 21.35 LIG 0.01  C 
BRANCH 50 52
ATOM     52  CG1 ILE C  10      13.361  43.629  62.868  1.00 14.22 LIG 0.00  C 
ATOM     53  CD1 ILE C  10      12.994  42.170  62.751  1.00 24.35 LIG 0.01  C 
ENDBRANCH 50 52
ENDBRANCH 46 50
ENDBRANCH 44 46
ENDBRANCH 37 42
ENDBRANCH 34 37
ENDBRANCH 32 33
BRANCH 32 54
ATOM     54  CB  SER C   8      13.424  51.763  60.178  1.00 17.33 LIG 0.20  C 
BRANCH 54 55
ATOM     55 OG   SER C   8      13.142  52.321  61.447  1.00 18.52 LIG-0.40  OA
ATOM     56 HG   SER C   8      12.662  51.790  61.886  1.00 18.52 LIG 0.21  HD
ENDBRANCH 54 55
ENDBRANCH 32 54
ENDBRANCH 3 32
TORSDOF 21
ENDMDL
MODEL 8
USER: ADFR SOLUTION from run 96
USER: SCORE 14.875018 LL:  -3.866 LR: -14.226 RR:   0.000 FEB:  -7.962
USER: RMSD 4.155914
USER: SEED 95
USER: STATUS searching
USER: GENES 23
USER: genes 0 Translation |==|  0.43072 0.53153 0.40849
USER: genes 1 Rotation |==|  0.34453 0.60752 0.04390 0.57898
USER: genes 2 Torsion [N]-C--CA-[N] |==|  0.30245
USER: genes 3 Torsion [C]-CA--CB-[CG2] |==|  0.41886
USER: genes 4 Torsion [CA]-CB--OG1-[HG1] |==|  0.88281
USER: genes 5 Torsion [C]-CA--N-[C] |==|  0.62222
USER: genes 6 Torsion [N]-C--CA-[N] |==|  0.39465
USER: genes 7 Torsion [N]-C--CA-[N] |==|  0.82792
USER: genes 8 Torsion [C]-CA--CB-[CG] |==|  0.30882
USER: genes 9 Torsion [CA]-CB--CG-[CD1] |==|  0.19663
USER: genes 10 Torsion [CE2]-CZ--OH-[HH] |==|  0.56446
USER: genes 11 Torsion [C]-N--CA-[CB] |==|  0.44396
USER: genes 12 Torsion [N]-CA--C-[N] |==|  0.04684
USER: genes 13 Torsion [C]-N--CA-[CB] |==|  0.51140
USER: genes 14 Torsion [N]-CA--CB-[CG2] |==|  0.46213
USER: genes 15 Torsion [CA]-CB--CG1-[CD1] |==|  0.72261
USER: genes 16 Torsion [N]-CA--C-[N] |==|  0.91399
USER: genes 17 Torsion [C]-N--CA-[C] |==|  0.73001
USER: genes 18 Torsion [N]-CA--C-[O] |==|  0.22165
USER: genes 19 Torsion [N]-CA--CB-[CG2] |==|  0.81073
USER: genes 20 Torsion [CA]-CB--CG1-[CD1] |==|  0.71155
USER: genes 21 Torsion [N]-CA--CB-[OG] |==|  0.93234
USER: genes 22 Torsion [CA]-CB--OG-[HG] |==|  0.88489
ROOT
ATOM      1  C   THR C   7      13.457  48.913  60.243  1.00 18.08 LIG 0.24  C 
ATOM      2 O    THR C   7      14.512  49.142  59.639  1.00 21.38 LIG-0.27  OA
ATOM      3  N   SER C   8      12.355  48.488  59.643  1.00 10.50 LIG-0.34  N 
ATOM      4 H    SER C   8      11.617  48.324  60.055  1.00 10.50 LIG 0.16  HD
ENDROOT
BRANCH 1 5
ATOM      5  CA  THR C   7      13.354  49.104  61.746  1.00 13.33 LIG 0.20  C 
BRANCH 5 6
ATOM      6  CB  THR C   7      13.776  50.531  62.138  1.00 16.97 LIG 0.15  C 
ATOM      7  CG2 THR C   7      13.045  50.973  63.399  1.00 19.32 LIG 0.04  C 
BRANCH 6 8
ATOM      8 OG1  THR C   7      15.197  50.575  62.350  1.00 21.79 LIG-0.39  OA
ATOM      9 HG1  THR C   7      15.438  49.893  62.777  1.00 21.79 LIG 0.21  HD
ENDBRANCH 6 8
ENDBRANCH 5 6
BRANCH 5 10
ATOM     10  N   THR C   7      14.110  48.082  62.441  1.00 19.25 LIG-0.34  N 
ATOM     11 H    THR C   7      14.887  47.923  62.110  1.00 19.25 LIG 0.16  HD
ATOM     12  C   PRO C   6      13.607  47.464  63.500  1.00 35.57 LIG 0.24  C 
ATOM     13 O    PRO C   6      12.581  47.841  64.077  1.00 20.23 LIG-0.27  OA
BRANCH 12 14
ATOM     14  CA  PRO C   6      14.382  46.249  63.989  1.00 23.31 LIG 0.18  C 
ATOM     15  N   PRO C   6      14.398  46.160  65.450  1.00 34.44 LIG-0.34  N 
ATOM     16  CD  PRO C   6      13.635  44.999  65.939  1.00 34.96 LIG 0.13  C 
ATOM     17  C   TYR C   5      15.008  47.085  66.197  1.00 33.78 LIG 0.26  C 
ATOM     18  CG  PRO C   6      12.810  44.618  64.747  1.00 38.31 LIG 0.02  C 
ATOM     19  CB  PRO C   6      13.647  44.971  63.571  1.00 34.95 LIG 0.04  C 
ATOM     20 O    TYR C   5      15.594  48.055  65.714  1.00 45.70 LIG-0.27  OA
BRANCH 17 21
ATOM     21  CA  TYR C   5      14.947  46.889  67.707  1.00 58.74 LIG 0.40  C 
ATOM     22  N   TYR C   5      13.574  46.921  68.194  1.00 59.06 LIG 0.61  N 
BRANCH 21 23
ATOM     23  CB  TYR C   5      15.613  45.568  68.081  1.00 34.94 LIG 0.09  C 
BRANCH 23 24
ATOM     24  CG  TYR C   5      16.908  45.738  68.835  1.00 34.23 LIG-0.06  A 
ATOM     25  CD2 TYR C   5      18.127  45.421  68.249  1.00 27.31 LIG 0.01  A 
ATOM     26  CE2 TYR C   5      19.309  45.571  68.941  1.00 26.06 LIG 0.04  A 
ATOM     27  CZ  TYR C   5      19.278  46.035  70.243  1.00 36.51 LIG 0.07  A 
ATOM     28  CE1 TYR C   5      18.082  46.349  70.843  1.00 26.29 LIG 0.04  A 
ATOM     29  CD1 TYR C   5      16.909  46.198  70.143  1.00 43.81 LIG 0.01  A 
BRANCH 27 30
ATOM     30 OH   TYR C   5      20.443  46.188  70.955  1.00 29.24 LIG-0.36  OA
ATOM     31 HH   TYR C   5      20.274  46.161  71.777  1.00 29.24 LIG 0.22  HD
ENDBRANCH 27 30
ENDBRANCH 23 24
ENDBRANCH 21 23
ENDBRANCH 17 21
ENDBRANCH 12 14
ENDBRANCH 5 10
ENDBRANCH 1 5
BRANCH 3 32
ATOM     32  CA  SER C   8      12.302  48.260  58.210  1.00 11.88 LIG 0.20  C 
BRANCH 32 33
ATOM     33  C   SER C   8      12.152  49.576  57.457  1.00 17.35 LIG 0.24  C 
ATOM     34  N   ILE C   9      12.442  50.678  58.147  1.00 10.16 LIG-0.35  N 
ATOM     35 H    ILE C   9      12.686  50.672  58.972  1.00 10.16 LIG 0.16  HD
ATOM     36 O    SER C   8      11.778  49.588  56.288  1.00 14.22 LIG-0.27  OA
BRANCH 34 37
ATOM     37  CA  ILE C   9      12.373  52.010  57.561  1.00 13.20 LIG 0.18  C 
BRANCH 37 38
ATOM     38  CB  ILE C   9      12.865  53.080  58.573  1.00  8.93 LIG 0.01  C 
ATOM     39  CG2 ILE C   9      13.114  54.416  57.864  1.00 11.66 LIG 0.01  C 
BRANCH 38 40
ATOM     40  CG1 ILE C   9      11.860  53.215  59.729  1.00 12.22 LIG 0.00  C 
ATOM     41  CD1 ILE C   9      10.914  54.428  59.580  1.00 19.01 LIG 0.01  C 
ENDBRANCH 38 40
ENDBRANCH 37 38
BRANCH 37 42
ATOM     42  C   ILE C   9      13.230  52.077  56.299  1.00 14.83 LIG 0.24  C 
ATOM     43 O    ILE C   9      12.920  52.836  55.383  1.00 18.18 LIG-0.27  OA
ATOM     44  N   ILE C  10      14.312  51.302  56.257  1.00 11.92 LIG-0.34  N 
ATOM     45 H    ILE C  10      14.553  50.773  56.891  1.00 11.92 LIG 0.16  HD
BRANCH 44 46
ATOM     46  CA  ILE C  10      15.193  51.298  55.090  1.00 12.50 LIG 0.19  C 
BRANCH 46 47
ATOM     47  C   ILE C  10      14.889  50.148  54.135  1.00 15.06 LIG 0.20  C 
ATOM     48 O    ILE C  10      13.954  50.187  53.325  1.00 13.42 LIG-0.65  OA
ATOM     49 OXT  ILE C  10      15.592  49.143  54.159  1.00 18.96 LIG-0.65  OA
ENDBRANCH 46 47
BRANCH 46 50
ATOM     50  CB  ILE C  10      16.682  51.227  55.491  1.00 14.56 LIG 0.01  C 
ATOM     51  CG2 ILE C  10      17.110  52.518  56.179  1.00 21.35 LIG 0.01  C 
BRANCH 50 52
ATOM     52  CG1 ILE C  10      16.919  50.013  56.388  1.00 14.22 LIG 0.00  C 
ATOM     53  CD1 ILE C  10      17.076  50.367  57.847  1.00 24.35 LIG 0.01  C 
ENDBRANCH 50 52
ENDBRANCH 46 50
ENDBRANCH 44 46
ENDBRANCH 37 42
ENDBRANCH 34 37
ENDBRANCH 32 33
BRANCH 32 54
ATOM     54  CB  SER C   8      11.141  47.332  57.849  1.00 17.33 LIG 0.20  C 
BRANCH 54 55
ATOM     55 OG   SER C   8      10.789  46.520  58.953  1.00 18.52 LIG-0.40  OA
ATOM     56 HG   SER C   8      11.487  46.251  59.336  1.00 18.52 LIG 0.21  HD
ENDBRANCH 54 55
ENDBRANCH 32 54
ENDBRANCH 3 32
TORSDOF 21
ENDMDL
MODEL 9
USER: ADFR SOLUTION from run 198
USER: SCORE 15.086563 LL:  -3.172 LR: -14.124 RR:   0.000 FEB:  -7.859
USER: RMSD 11.998272
USER: SEED 197
USER: STATUS no improvement in best in 4 clusters for 5 generations
USER: GENES 23
USER: genes 0 Translation |==|  0.50750 0.68561 0.32794
USER: genes 1 Rotation |==|  0.83527 0.13681 0.42780 0.52189
USER: genes 2 Torsion [N]-C--CA-[N] |==|  0.36728
USER: genes 3 Torsion [C]-CA--CB-[CG2] |==|  0.21605
USER: genes 4 Torsion [CA]-CB--OG1-[HG1] |==|  0.69865
USER: genes 5 Torsion [C]-CA--N-[C] |==|  0.59077
USER: genes 6 Torsion [N]-C--CA-[N] |==|  0.73583
USER: genes 7 Torsion [N]-C--CA-[N] |==|  0.14168
USER: genes 8 Torsion [C]-CA--CB-[CG] |==|  0.19277
USER: genes 9 Torsion [CA]-CB--CG-[CD1] |==|  0.68606
USER: genes 10 Torsion [CE2]-CZ--OH-[HH] |==|  0.62469
USER: genes 11 Torsion [C]-N--CA-[CB] |==|  0.13940
USER: genes 12 Torsion [N]-CA--C-[N] |==|  0.52627
USER: genes 13 Torsion [C]-N--CA-[CB] |==|  0.15556
USER: genes 14 Torsion [N]-CA--CB-[CG2] |==|  0.33627
USER: genes 15 Torsion [CA]-CB--CG1-[CD1] |==|  0.55869
USER: genes 16 Torsion [N]-CA--C-[N] |==|  0.88556
USER: genes 17 Torsion [C]-N--CA-[C] |==|  0.62036
USER: genes 18 Torsion [N]-CA--C-[O] |==|  0.77832
USER: genes 19 Torsion [N]-CA--CB-[CG2] |==|  0.74663
USER: genes 20 Torsion [CA]-CB--CG1-[CD1] |==|  0.47366
USER: genes 21 Torsion [N]-CA--CB-[OG] |==|  0.53298
USER: genes 22 Torsion [CA]-CB--OG-[HG] |==|  0.48444
ROOT
ATOM      1  C   THR C   7      15.012  51.456  58.068  1.00 18.08 LIG 0.24  C 
ATOM      2 O    THR C   7      14.831  52.678  58.131  1.00 21.38 LIG-0.27  OA
ATOM      3  N   SER C   8      14.731  50.628  59.065  1.00 10.50 LIG-0.34  N 
ATOM      4 H    SER C   8      14.851  49.777  59.030  1.00 10.50 LIG 0.16  HD
ENDROOT
BRANCH 1 5
ATOM      5  CA  THR C   7      15.576  50.807  56.816  1.00 13.33 LIG 0.20  C 
BRANCH 5 6
ATOM      6  CB  THR C   7      17.100  51.012  56.744  1.00 16.97 LIG 0.15  C 
ATOM      7  CG2 THR C   7      17.809  50.045  57.683  1.00 19.32 LIG 0.04  C 
BRANCH 6 8
ATOM      8 OG1  THR C   7      17.552  50.811  55.394  1.00 21.79 LIG-0.39  OA
ATOM      9 HG1  THR C   7      17.981  50.090  55.347  1.00 21.79 LIG 0.21  HD
ENDBRANCH 6 8
ENDBRANCH 5 6
BRANCH 5 10
ATOM     10  N   THR C   7      14.886  51.291  55.639  1.00 19.25 LIG-0.34  N 
ATOM     11 H    THR C   7      14.617  52.106  55.689  1.00 19.25 LIG 0.16  HD
ATOM     12  C   PRO C   6      14.703  50.507  54.585  1.00 35.57 LIG 0.24  C 
ATOM     13 O    PRO C   6      15.265  49.415  54.452  1.00 20.23 LIG-0.27  OA
BRANCH 12 14
ATOM     14  CA  PRO C   6      13.757  51.040  53.519  1.00 23.31 LIG 0.18  C 
ATOM     15  N   PRO C   6      12.394  50.535  53.693  1.00 34.44 LIG-0.34  N 
ATOM     16  CD  PRO C   6      11.455  51.606  54.068  1.00 34.96 LIG 0.13  C 
ATOM     17  C   TYR C   5      12.110  49.236  53.564  1.00 33.78 LIG 0.26  C 
ATOM     18  CG  PRO C   6      12.369  52.706  54.518  1.00 38.31 LIG 0.02  C 
ATOM     19  CB  PRO C   6      13.593  52.554  53.690  1.00 34.95 LIG 0.04  C 
ATOM     20 O    TYR C   5      12.962  48.390  53.287  1.00 45.70 LIG-0.27  OA
BRANCH 17 21
ATOM     21  CA  TYR C   5      10.658  48.831  53.780  1.00 58.74 LIG 0.40  C 
ATOM     22  N   TYR C   5       9.752  49.649  52.982  1.00 59.06 LIG 0.61  N 
BRANCH 21 23
ATOM     23  CB  TYR C   5      10.479  47.354  53.442  1.00 34.94 LIG 0.09  C 
BRANCH 23 24
ATOM     24  CG  TYR C   5      11.151  46.425  54.422  1.00 34.23 LIG-0.06  A 
ATOM     25  CD2 TYR C   5      10.718  46.335  55.738  1.00 27.31 LIG 0.01  A 
ATOM     26  CE2 TYR C   5      11.335  45.490  56.634  1.00 26.06 LIG 0.04  A 
ATOM     27  CZ  TYR C   5      12.410  44.727  56.216  1.00 36.51 LIG 0.07  A 
ATOM     28  CE1 TYR C   5      12.857  44.805  54.918  1.00 26.29 LIG 0.04  A 
ATOM     29  CD1 TYR C   5      12.232  45.650  54.033  1.00 43.81 LIG 0.01  A 
BRANCH 27 30
ATOM     30 OH   TYR C   5      13.045  43.882  57.092  1.00 29.24 LIG-0.36  OA
ATOM     31 HH   TYR C   5      13.877  43.965  57.008  1.00 29.24 LIG 0.22  HD
ENDBRANCH 27 30
ENDBRANCH 23 24
ENDBRANCH 21 23
ENDBRANCH 17 21
ENDBRANCH 12 14
ENDBRANCH 5 10
ENDBRANCH 1 5
BRANCH 3 32
ATOM     32  CA  SER C   8      14.186  51.104  60.324  1.00 11.88 LIG 0.20  C 
BRANCH 32 33
ATOM     33  C   SER C   8      13.774  49.936  61.212  1.00 17.35 LIG 0.24  C 
ATOM     34  N   ILE C   9      13.084  50.252  62.306  1.00 10.16 LIG-0.35  N 
ATOM     35 H    ILE C   9      12.885  51.059  62.527  1.00 10.16 LIG 0.16  HD
ATOM     36 O    SER C   8      14.081  48.785  60.913  1.00 14.22 LIG-0.27  OA
BRANCH 34 37
ATOM     37  CA  ILE C   9      12.596  49.246  63.241  1.00 13.20 LIG 0.18  C 
BRANCH 37 38
ATOM     38  CB  ILE C   9      13.766  48.365  63.757  1.00  8.93 LIG 0.01  C 
ATOM     39  CG2 ILE C   9      13.873  48.454  65.284  1.00 11.66 LIG 0.01  C 
BRANCH 38 40
ATOM     40  CG1 ILE C   9      13.591  46.917  63.271  1.00 12.22 LIG 0.00  C 
ATOM     41  CD1 ILE C   9      14.371  45.887  64.121  1.00 19.01 LIG 0.01  C 
ENDBRANCH 38 40
ENDBRANCH 37 38
BRANCH 37 42
ATOM     42  C   ILE C   9      11.907  49.917  64.427  1.00 14.83 LIG 0.24  C 
ATOM     43 O    ILE C   9      10.876  49.438  64.892  1.00 18.18 LIG-0.27  OA
ATOM     44  N   ILE C  10      12.483  51.009  64.926  1.00 11.92 LIG-0.34  N 
ATOM     45 H    ILE C  10      13.211  51.353  64.624  1.00 11.92 LIG 0.16  HD
BRANCH 44 46
ATOM     46  CA  ILE C  10      11.897  51.720  66.062  1.00 12.50 LIG 0.19  C 
BRANCH 46 47
ATOM     47  C   ILE C  10      11.916  53.233  65.874  1.00 15.06 LIG 0.20  C 
ATOM     48 O    ILE C  10      12.928  53.915  66.077  1.00 13.42 LIG-0.65  OA
ATOM     49 OXT  ILE C  10      10.896  53.808  65.507  1.00 18.96 LIG-0.65  OA
ENDBRANCH 46 47
BRANCH 46 50
ATOM     50  CB  ILE C  10      12.609  51.377  67.387  1.00 14.56 LIG 0.01  C 
ATOM     51  CG2 ILE C  10      11.929  50.195  68.068  1.00 21.35 LIG 0.01  C 
BRANCH 50 52
ATOM     52  CG1 ILE C  10      14.087  51.091  67.122  1.00 14.22 LIG 0.00  C 
ATOM     53  CD1 ILE C  10      14.910  50.969  68.381  1.00 24.35 LIG 0.01  C 
ENDBRANCH 50 52
ENDBRANCH 46 50
ENDBRANCH 44 46
ENDBRANCH 37 42
ENDBRANCH 34 37
ENDBRANCH 32 33
BRANCH 32 54
ATOM     54  CB  SER C   8      12.979  52.013  60.086  1.00 17.33 LIG 0.20  C 
BRANCH 54 55
ATOM     55 OG   SER C   8      12.619  52.687  61.277  1.00 18.52 LIG-0.40  OA
ATOM     56 HG   SER C   8      12.007  53.238  61.113  1.00 18.52 LIG 0.21  HD
ENDBRANCH 54 55
ENDBRANCH 32 54
ENDBRANCH 3 32
TORSDOF 21
ENDMDL
MODEL 10
USER: ADFR SOLUTION from run 4
USER: SCORE 15.540780 LL:  -3.506 LR: -14.036 RR:   0.000 FEB:  -7.772
USER: RMSD 4.024076
USER: SEED 585934
USER: STATUS no improvement in best in 5 clusters for 5 generations
USER: GENES 23
USER: genes 0 Translation |==|  0.42141 0.53158 0.44834
USER: genes 1 Rotation |==|  0.55302 0.89527 0.19957 0.52633
USER: genes 2 Torsion [N]-C--CA-[N] |==|  0.75676
USER: genes 3 Torsion [C]-CA--CB-[CG2] |==|  0.16365
USER: genes 4 Torsion [CA]-CB--OG1-[HG1] |==|  0.25366
USER: genes 5 Torsion [C]-CA--N-[C] |==|  0.75292
USER: genes 6 Torsion [N]-C--CA-[N] |==|  0.61645
USER: genes 7 Torsion [N]-C--CA-[N] |==|  0.15772
USER: genes 8 Torsion [C]-CA--CB-[CG] |==|  0.54781
USER: genes 9 Torsion [CA]-CB--CG-[CD1] |==|  0.20289
USER: genes 10 Torsion [CE2]-CZ--OH-[HH] |==|  0.40938
USER: genes 11 Torsion [C]-N--CA-[CB] |==|  0.84359
USER: genes 12 Torsion [N]-CA--C-[N] |==|  0.42778
USER: genes 13 Torsion [C]-N--CA-[CB] |==|  0.87390
USER: genes 14 Torsion [N]-CA--CB-[CG2] |==|  0.47415
USER: genes 15 Torsion [CA]-CB--CG1-[CD1] |==|  0.94726
USER: genes 16 Torsion [N]-CA--C-[N] |==|  0.76384
USER: genes 17 Torsion [C]-N--CA-[C] |==|  0.17178
USER: genes 18 Torsion [N]-CA--C-[O] |==|  0.97284
USER: genes 19 Torsion [N]-CA--CB-[CG2] |==|  0.52657
USER: genes 20 Torsion [CA]-CB--CG1-[CD1] |==|  0.30994
USER: genes 21 Torsion [N]-CA--CB-[OG] |==|  0.80445
USER: genes 22 Torsion [CA]-CB--OG-[HG] |==|  0.36636
ROOT
ATOM      1  C   THR C   7      13.269  48.914  61.319  1.00 18.08 LIG 0.24  C 
ATOM      2 O    THR C   7      14.485  48.692  61.278  1.00 21.38 LIG-0.27  OA
ATOM      3  N   SER C   8      12.732  50.079  60.983  1.00 10.50 LIG-0.34  N 
ATOM      4 H    SER C   8      11.887  50.242  61.006  1.00 10.50 LIG 0.16  HD
ENDROOT
BRANCH 1 5
ATOM      5  CA  THR C   7      12.288  47.843  61.763  1.00 13.33 LIG 0.20  C 
BRANCH 5 6
ATOM      6  CB  THR C   7      11.003  47.906  60.919  1.00 16.97 LIG 0.15  C 
ATOM      7  CG2 THR C   7      11.328  47.713  59.443  1.00 19.32 LIG 0.04  C 
BRANCH 6 8
ATOM      8 OG1  THR C   7      10.083  46.893  61.359  1.00 21.79 LIG-0.39  OA
ATOM      9 HG1  THR C   7       9.577  47.211  61.949  1.00 21.79 LIG 0.21  HD
ENDBRANCH 6 8
ENDBRANCH 5 6
BRANCH 5 10
ATOM     10  N   THR C   7      12.034  47.945  63.185  1.00 19.25 LIG-0.34  N 
ATOM     11 H    THR C   7      11.367  48.445  63.396  1.00 19.25 LIG 0.16  HD
ATOM     12  C   PRO C   6      12.793  47.302  64.062  1.00 35.57 LIG 0.24  C 
ATOM     13 O    PRO C   6      13.614  46.438  63.736  1.00 20.23 LIG-0.27  OA
BRANCH 12 14
ATOM     14  CA  PRO C   6      12.587  47.681  65.521  1.00 23.31 LIG 0.18  C 
ATOM     15  N   PRO C   6      13.856  47.795  66.242  1.00 34.44 LIG-0.34  N 
ATOM     16  CD  PRO C   6      14.136  49.183  66.646  1.00 34.96 LIG 0.13  C 
ATOM     17  C   TYR C   5      14.647  46.735  66.433  1.00 33.78 LIG 0.26  C 
ATOM     18  CG  PRO C   6      13.195  49.975  65.789  1.00 38.31 LIG 0.02  C 
ATOM     19  CB  PRO C   6      12.010  49.098  65.606  1.00 34.95 LIG 0.04  C 
ATOM     20 O    TYR C   5      14.363  45.607  66.027  1.00 45.70 LIG-0.27  OA
BRANCH 17 21
ATOM     21  CA  TYR C   5      15.947  46.982  67.187  1.00 58.74 LIG 0.40  C 
ATOM     22  N   TYR C   5      15.699  47.571  68.498  1.00 59.06 LIG 0.61  N 
BRANCH 21 23
ATOM     23  CB  TYR C   5      16.716  45.672  67.330  1.00 34.94 LIG 0.09  C 
BRANCH 23 24
ATOM     24  CG  TYR C   5      17.787  45.713  68.391  1.00 34.23 LIG-0.06  A 
ATOM     25  CD2 TYR C   5      19.133  45.743  68.051  1.00 27.31 LIG 0.01  A 
ATOM     26  CE2 TYR C   5      20.111  45.775  69.021  1.00 26.06 LIG 0.04  A 
ATOM     27  CZ  TYR C   5      19.744  45.767  70.354  1.00 36.51 LIG 0.07  A 
ATOM     28  CE1 TYR C   5      18.417  45.733  70.712  1.00 26.29 LIG 0.04  A 
ATOM     29  CD1 TYR C   5      17.450  45.704  69.736  1.00 43.81 LIG 0.01  A 
BRANCH 27 30
ATOM     30 OH   TYR C   5      20.700  45.793  71.339  1.00 29.24 LIG-0.36  OA
ATOM     31 HH   TYR C   5      20.406  46.213  72.004  1.00 29.24 LIG 0.22  HD
ENDBRANCH 27 30
ENDBRANCH 23 24
ENDBRANCH 21 23
ENDBRANCH 17 21
ENDBRANCH 12 14
ENDBRANCH 5 10
ENDBRANCH 1 5
BRANCH 3 32
ATOM     32  CA  SER C   8      13.545  51.197  60.539  1.00 11.88 LIG 0.20  C 
BRANCH 32 33
ATOM     33  C   SER C   8      14.224  50.881  59.214  1.00 17.35 LIG 0.24  C 
ATOM     34  N   ILE C   9      14.534  51.929  58.453  1.00 10.16 LIG-0.35  N 
ATOM     35 H    ILE C   9      14.356  52.742  58.669  1.00 10.16 LIG 0.16  HD
ATOM     36 O    SER C   8      14.453  49.718  58.890  1.00 14.22 LIG-0.27  OA
BRANCH 34 37
ATOM     37  CA  ILE C   9      15.210  51.793  57.169  1.00 13.20 LIG 0.18  C 
BRANCH 37 38
ATOM     38  CB  ILE C   9      16.400  50.802  57.280  1.00  8.93 LIG 0.01  C 
ATOM     39  CG2 ILE C   9      16.964  50.482  55.890  1.00 11.66 LIG 0.01  C 
BRANCH 38 40
ATOM     40  CG1 ILE C   9      17.473  51.368  58.225  1.00 12.22 LIG 0.00  C 
ATOM     41  CD1 ILE C   9      17.354  52.893  58.444  1.00 19.01 LIG 0.01  C 
ENDBRANCH 38 40
ENDBRANCH 37 38
BRANCH 37 42
ATOM     42  C   ILE C   9      14.233  51.293  56.108  1.00 14.83 LIG 0.24  C 
ATOM     43 O    ILE C   9      13.667  52.092  55.366  1.00 18.18 LIG-0.27  OA
ATOM     44  N   ILE C  10      14.050  49.977  56.022  1.00 11.92 LIG-0.34  N 
ATOM     45 H    ILE C  10      14.445  49.399  56.523  1.00 11.92 LIG 0.16  HD
BRANCH 44 46
ATOM     46  CA  ILE C  10      13.133  49.404  55.036  1.00 12.50 LIG 0.19  C 
BRANCH 46 47
ATOM     47  C   ILE C  10      13.554  49.712  53.603  1.00 15.06 LIG 0.20  C 
ATOM     48 O    ILE C  10      14.455  50.516  53.333  1.00 13.42 LIG-0.65  OA
ATOM     49 OXT  ILE C  10      12.986  49.146  52.674  1.00 18.96 LIG-0.65  OA
ENDBRANCH 46 47
BRANCH 46 50
ATOM     50  CB  ILE C  10      11.685  49.895  55.243  1.00 14.56 LIG 0.01  C 
ATOM     51  CG2 ILE C  10      10.724  49.107  54.361  1.00 21.35 LIG 0.01  C 
BRANCH 50 52
ATOM     52  CG1 ILE C  10      11.306  49.782  56.719  1.00 14.22 LIG 0.00  C 
ATOM     53  CD1 ILE C  10      11.129  51.118  57.398  1.00 24.35 LIG 0.01  C 
ENDBRANCH 50 52
ENDBRANCH 46 50
ENDBRANCH 44 46
ENDBRANCH 37 42
ENDBRANCH 34 37
ENDBRANCH 32 33
BRANCH 32 54
ATOM     54  CB  SER C   8      14.605  51.547  61.585  1.00 17.33 LIG 0.20  C 
BRANCH 54 55
ATOM     55 OG   SER C   8      14.007  52.127  62.728  1.00 18.52 LIG-0.40  OA
ATOM     56 HG   SER C   8      14.305  51.754  63.420  1.00 18.52 LIG 0.21  HD
ENDBRANCH 54 55
ENDBRANCH 32 54
ENDBRANCH 3 32
TORSDOF 21
ENDMDL
