MODEL 1
USER: ADFR SOLUTION from run 53
USER: SCORE 17.326562 LL:  -4.828 LR: -14.957 RR:   0.000 FEB:  -9.587
USER: RMSD 3.549937
USER: SEED 52
USER: STATUS searching
USER: GENES 20
USER: genes 0 Translation |==|  0.40759 0.51582 0.47530
USER: genes 1 Rotation |==|  0.56366 0.49509 0.44736 0.99310
USER: genes 2 Torsion [C]-CA--CB-[CG] |==|  0.48337
USER: genes 3 Torsion [CA]-CB--CG-[CD1] |==|  0.27687
USER: genes 4 Torsion [CE2]-CZ--OH-[HH] |==|  0.53808
USER: genes 5 Torsion [N]-CA--C-[N] |==|  0.99413
USER: genes 6 Torsion [C]-N--CA-[CB] |==|  0.38267
USER: genes 7 Torsion [N]-CA--CB-[CG] |==|  0.77434
USER: genes 8 Torsion [CA]-CB--CG-[CD1] |==|  0.15557
USER: genes 9 Torsion [N]-CA--C-[N] |==|  0.03802
USER: genes 10 Torsion [C]-N--CA-[C] |==|  0.84099
USER: genes 11 Torsion [N]-CA--C-[O] |==|  0.30666
USER: genes 12 Torsion [N]-CA--CB-[CG] |==|  0.10964
USER: genes 13 Torsion [CA]-CB--CG-[CD2] |==|  0.72489
USER: genes 14 Torsion [CB]-CA--N-[C] |==|  0.84833
USER: genes 15 Torsion [N]-C--CA-[N] |==|  0.39325
USER: genes 16 Torsion [C]-CA--N-[C] |==|  0.83933
USER: genes 17 Torsion [N]-C--CA-[N] |==|  0.30571
USER: genes 18 Torsion [C]-CA--CB-[CG] |==|  0.49584
USER: genes 19 Torsion [CA]-CB--CG-[OD1] |==|  0.47473
ROOT
ATOM      1  CA  TYR C 307      14.197   6.617  13.141  1.00 19.42 LIG 0.18  C 
ENDROOT
BRANCH 1 2
ATOM      2  CB  TYR C 307      13.397   6.404  11.852  1.00 20.09 LIG 0.07  C 
BRANCH 2 3
ATOM      3  CG  TYR C 307      14.234   6.484  10.601  1.00 17.22 LIG-0.06  A 
ATOM      4  CD2 TYR C 307      14.592   7.712  10.061  1.00 23.64 LIG 0.01  A 
ATOM      5  CE2 TYR C 307      15.359   7.793   8.914  1.00 23.84 LIG 0.04  A 
ATOM      6  CZ  TYR C 307      15.781   6.637   8.293  1.00 20.80 LIG 0.07  A 
ATOM      7  CE1 TYR C 307      15.443   5.404   8.810  1.00 18.70 LIG 0.04  A 
ATOM      8  CD1 TYR C 307      14.674   5.332   9.960  1.00 26.65 LIG 0.01  A 
BRANCH 6 9
ATOM      9 OH   TYR C 307      16.546   6.720   7.153  1.00 27.63 LIG-0.36  OA
ATOM     10 HH   TYR C 307      16.574   5.969   6.779  1.00 27.63 LIG 0.22  HD
ENDBRANCH 6 9
ENDBRANCH 2 3
ENDBRANCH 1 2
BRANCH 1 11
ATOM     11  C   TYR C 307      13.247   6.665  14.334  1.00 24.68 LIG 0.24  C 
ATOM     12 O    TYR C 307      12.339   7.495  14.373  1.00 26.67 LIG-0.27  OA
ATOM     13  N   PHE C 308      13.459   5.793  15.311  1.00 19.41 LIG-0.35  N 
ATOM     14 H    PHE C 308      14.139   5.267  15.356  1.00 19.41 LIG 0.16  HD
BRANCH 13 15
ATOM     15  CA  PHE C 308      12.511   5.669  16.413  1.00 14.41 LIG 0.18  C 
BRANCH 15 16
ATOM     16  CB  PHE C 308      12.291   4.195  16.748  1.00 18.98 LIG 0.07  C 
BRANCH 16 17
ATOM     17  CG  PHE C 308      11.313   3.521  15.838  1.00 22.36 LIG-0.06  A 
ATOM     18  CD1 PHE C 308      11.507   3.527  14.468  1.00 16.86 LIG 0.01  A 
ATOM     19  CE1 PHE C 308      10.620   2.893  13.629  1.00 17.00 LIG 0.00  A 
ATOM     20  CZ  PHE C 308       9.530   2.242  14.154  1.00 20.65 LIG 0.00  A 
ATOM     21  CE2 PHE C 308       9.323   2.231  15.517  1.00 20.83 LIG 0.00  A 
ATOM     22  CD2 PHE C 308      10.213   2.859  16.353  1.00 21.63 LIG 0.01  A 
ENDBRANCH 16 17
ENDBRANCH 15 16
BRANCH 15 23
ATOM     23  C   PHE C 308      12.918   6.450  17.657  1.00 40.94 LIG 0.24  C 
ATOM     24  N   LEU C 309      13.890   7.340  17.495  1.00 39.04 LIG-0.34  N 
ATOM     25 H    LEU C 309      14.295   7.476  16.748  1.00 39.04 LIG 0.16  HD
ATOM     26 O    PHE C 308      12.354   6.258  18.734  1.00 37.89 LIG-0.27  OA
BRANCH 24 27
ATOM     27  CA  LEU C 309      14.357   8.178  18.591  1.00 41.86 LIG 0.18  C 
BRANCH 27 28
ATOM     28  C   LEU C 309      13.212   8.992  19.185  1.00 52.06 LIG 0.20  C 
ATOM     29 O    LEU C 309      12.779   8.752  20.312  1.00 44.07 LIG-0.65  OA
ATOM     30 OXT  LEU C 309      12.693   9.912  18.549  1.00 57.31 LIG-0.65  OA
ENDBRANCH 27 28
BRANCH 27 31
ATOM     31  CB  LEU C 309      15.470   9.107  18.106  1.00 45.69 LIG 0.04  C 
BRANCH 31 32
ATOM     32  CG  LEU C 309      15.269   9.698  16.709  1.00 42.90 LIG-0.02  C 
ATOM     33  CD2 LEU C 309      16.066   8.914  15.678  1.00 51.11 LIG 0.01  C 
ATOM     34  CD1 LEU C 309      15.655  11.168  16.687  1.00 45.19 LIG 0.01  C 
ENDBRANCH 31 32
ENDBRANCH 27 31
ENDBRANCH 24 27
ENDBRANCH 15 23
ENDBRANCH 13 15
ENDBRANCH 1 11
BRANCH 1 35
ATOM     35  N   TYR C 307      15.260   5.621  13.273  1.00 25.78 LIG-0.35  N 
ATOM     36 H    TYR C 307      16.049   5.944  13.386  1.00 25.78 LIG 0.16  HD
ATOM     37  C   ASP C 306      14.977   4.322  13.215  1.00 34.41 LIG 0.24  C 
ATOM     38 O    ASP C 306      13.834   3.909  13.023  1.00 33.93 LIG-0.27  OA
BRANCH 37 39
ATOM     39  CA  ASP C 306      16.132   3.328  13.378  1.00 28.99 LIG 0.19  C 
BRANCH 39 40
ATOM     40  N   ASP C 306      15.827   2.121  14.146  1.00 47.80 LIG-0.34  N 
ATOM     41  C   PRO C 305      15.386   2.195  15.401  1.00 55.24 LIG 0.25  C 
ATOM     42 O    PRO C 305      15.099   3.258  15.955  1.00 37.29 LIG-0.27  OA
ATOM     43 H    ASP C 306      15.956   1.385  13.723  1.00 47.80 LIG 0.16  HD
BRANCH 41 44
ATOM     44  CA  PRO C 305      15.217   0.884  16.165  1.00 46.84 LIG 0.35  C 
ATOM     45  N   PRO C 305      16.206   0.721  17.237  1.00 55.65 LIG 0.32  N 
ATOM     46  CD  PRO C 305      15.582   0.734  18.572  1.00 37.59 LIG 0.32  C 
ATOM     47  CG  PRO C 305      14.228   1.321  18.304  1.00 48.04 LIG 0.04  C 
ATOM     48  CB  PRO C 305      13.882   0.885  16.920  1.00 49.04 LIG 0.05  C 
ENDBRANCH 41 44
ENDBRANCH 39 40
BRANCH 39 49
ATOM     49  CB  ASP C 306      16.670   2.953  11.993  1.00 37.50 LIG 0.15  C 
BRANCH 49 50
ATOM     50  CG  ASP C 306      17.845   1.996  12.062  1.00 60.25 LIG 0.17  C 
ATOM     51 OD1  ASP C 306      18.261   1.482  11.002  1.00 61.15 LIG-0.65  OA
ATOM     52 OD2  ASP C 306      18.348   1.755  13.180  1.00 58.41 LIG-0.65  OA
ENDBRANCH 49 50
ENDBRANCH 39 49
ENDBRANCH 37 39
ENDBRANCH 1 35
TORSDOF 18
ENDMDL
MODEL 2
USER: ADFR SOLUTION from run 53
USER: SCORE 16.969737 LL:  -4.454 LR: -14.803 RR:   0.000 FEB:  -9.434
USER: RMSD 3.629960
USER: SEED 52
USER: STATUS searching
USER: GENES 20
USER: genes 0 Translation |==|  0.43227 0.55991 0.45500
USER: genes 1 Rotation |==|  0.71919 0.44824 0.39315 0.93343
USER: genes 2 Torsion [C]-CA--CB-[CG] |==|  0.60617
USER: genes 3 Torsion [CA]-CB--CG-[CD1] |==|  0.26017
USER: genes 4 Torsion [CE2]-CZ--OH-[HH] |==|  0.42879
USER: genes 5 Torsion [N]-CA--C-[N] |==|  0.14733
USER: genes 6 Torsion [C]-N--CA-[CB] |==|  0.36279
USER: genes 7 Torsion [N]-CA--CB-[CG] |==|  0.64227
USER: genes 8 Torsion [CA]-CB--CG-[CD1] |==|  0.20069
USER: genes 9 Torsion [N]-CA--C-[N] |==|  0.85342
USER: genes 10 Torsion [C]-N--CA-[C] |==|  0.75446
USER: genes 11 Torsion [N]-CA--C-[O] |==|  0.29110
USER: genes 12 Torsion [N]-CA--CB-[CG] |==|  0.74575
USER: genes 13 Torsion [CA]-CB--CG-[CD2] |==|  0.15409
USER: genes 14 Torsion [CB]-CA--N-[C] |==|  0.76541
USER: genes 15 Torsion [N]-C--CA-[N] |==|  0.82222
USER: genes 16 Torsion [C]-CA--N-[C] |==|  0.70423
USER: genes 17 Torsion [N]-C--CA-[N] |==|  0.99679
USER: genes 18 Torsion [C]-CA--CB-[CG] |==|  0.48030
USER: genes 19 Torsion [CA]-CB--CG-[OD1] |==|  0.56077
ROOT
ATOM      1  CA  TYR C 307      14.696   7.378  12.699  1.00 19.42 LIG 0.18  C 
ENDROOT
BRANCH 1 2
ATOM      2  CB  TYR C 307      14.282   8.178  11.461  1.00 20.09 LIG 0.07  C 
BRANCH 2 3
ATOM      3  CG  TYR C 307      15.055   7.814  10.219  1.00 17.22 LIG-0.06  A 
ATOM      4  CD2 TYR C 307      16.275   8.414   9.938  1.00 23.64 LIG 0.01  A 
ATOM      5  CE2 TYR C 307      16.988   8.084   8.801  1.00 23.84 LIG 0.04  A 
ATOM      6  CZ  TYR C 307      16.484   7.143   7.929  1.00 20.80 LIG 0.07  A 
ATOM      7  CE1 TYR C 307      15.277   6.530   8.185  1.00 18.70 LIG 0.04  A 
ATOM      8  CD1 TYR C 307      14.568   6.865   9.327  1.00 26.65 LIG 0.01  A 
BRANCH 6 9
ATOM      9 OH   TYR C 307      17.198   6.816   6.798  1.00 27.63 LIG-0.36  OA
ATOM     10 HH   TYR C 307      16.995   6.038   6.555  1.00 27.63 LIG 0.22  HD
ENDBRANCH 6 9
ENDBRANCH 2 3
ENDBRANCH 1 2
BRANCH 1 11
ATOM     11  C   TYR C 307      13.463   7.046  13.535  1.00 24.68 LIG 0.24  C 
ATOM     12 O    TYR C 307      12.354   7.456  13.196  1.00 26.67 LIG-0.27  OA
ATOM     13  N   PHE C 308      13.653   6.320  14.629  1.00 19.41 LIG-0.35  N 
ATOM     14 H    PHE C 308      14.424   6.102  14.942  1.00 19.41 LIG 0.16  HD
BRANCH 13 15
ATOM     15  CA  PHE C 308      12.515   5.832  15.401  1.00 14.41 LIG 0.18  C 
BRANCH 15 16
ATOM     16  CB  PHE C 308      12.677   4.339  15.680  1.00 18.98 LIG 0.07  C 
BRANCH 16 17
ATOM     17  CG  PHE C 308      11.474   3.532  15.306  1.00 22.36 LIG-0.06  A 
ATOM     18  CD1 PHE C 308      11.164   3.307  13.977  1.00 16.86 LIG 0.01  A 
ATOM     19  CE1 PHE C 308      10.068   2.551  13.628  1.00 17.00 LIG 0.00  A 
ATOM     20  CZ  PHE C 308       9.274   2.007  14.609  1.00 20.65 LIG 0.00  A 
ATOM     21  CE2 PHE C 308       9.571   2.227  15.938  1.00 20.83 LIG 0.00  A 
ATOM     22  CD2 PHE C 308      10.667   2.977  16.283  1.00 21.63 LIG 0.01  A 
ENDBRANCH 16 17
ENDBRANCH 15 16
BRANCH 15 23
ATOM     23  C   PHE C 308      12.281   6.601  16.696  1.00 40.94 LIG 0.24  C 
ATOM     24  N   LEU C 309      13.328   6.715  17.504  1.00 39.04 LIG-0.34  N 
ATOM     25 H    LEU C 309      14.099   6.370  17.340  1.00 39.04 LIG 0.16  HD
ATOM     26 O    PHE C 308      11.180   7.090  16.948  1.00 37.89 LIG-0.27  OA
BRANCH 24 27
ATOM     27  CA  LEU C 309      13.256   7.450  18.759  1.00 41.86 LIG 0.18  C 
BRANCH 27 28
ATOM     28  C   LEU C 309      13.581   8.926  18.549  1.00 52.06 LIG 0.20  C 
ATOM     29 O    LEU C 309      12.693   9.780  18.554  1.00 44.07 LIG-0.65  OA
ATOM     30 OXT  LEU C 309      14.742   9.299  18.370  1.00 57.31 LIG-0.65  OA
ENDBRANCH 27 28
BRANCH 27 31
ATOM     31  CB  LEU C 309      14.213   6.839  19.783  1.00 45.69 LIG 0.04  C 
BRANCH 31 32
ATOM     32  CG  LEU C 309      13.608   5.760  20.683  1.00 42.90 LIG-0.02  C 
ATOM     33  CD2 LEU C 309      12.995   4.649  19.844  1.00 51.11 LIG 0.01  C 
ATOM     34  CD1 LEU C 309      12.574   6.360  21.621  1.00 45.19 LIG 0.01  C 
ENDBRANCH 31 32
ENDBRANCH 27 31
ENDBRANCH 24 27
ENDBRANCH 15 23
ENDBRANCH 13 15
ENDBRANCH 1 11
BRANCH 1 35
ATOM     35  N   TYR C 307      15.491   6.206  12.329  1.00 25.78 LIG-0.35  N 
ATOM     36 H    TYR C 307      16.343   6.318  12.365  1.00 25.78 LIG 0.16  HD
ATOM     37  C   ASP C 306      14.892   5.074  11.969  1.00 34.41 LIG 0.24  C 
ATOM     38 O    ASP C 306      13.668   4.971  11.905  1.00 33.93 LIG-0.27  OA
BRANCH 37 39
ATOM     39  CA  ASP C 306      15.779   3.877  11.609  1.00 28.99 LIG 0.19  C 
BRANCH 39 40
ATOM     40  N   ASP C 306      16.633   4.050  10.434  1.00 47.80 LIG-0.34  N 
ATOM     41  C   PRO C 305      16.357   3.435   9.285  1.00 55.24 LIG 0.25  C 
ATOM     42 O    PRO C 305      15.327   2.785   9.096  1.00 37.29 LIG-0.27  OA
ATOM     43 H    ASP C 306      17.306   4.570  10.554  1.00 47.80 LIG 0.16  HD
BRANCH 41 44
ATOM     44  CA  PRO C 305      17.372   3.573   8.153  1.00 46.84 LIG 0.35  C 
ATOM     45  N   PRO C 305      18.519   4.414   8.518  1.00 55.65 LIG 0.32  N 
ATOM     46  CD  PRO C 305      19.774   3.643   8.570  1.00 37.59 LIG 0.32  C 
ATOM     47  CG  PRO C 305      19.295   2.224   8.626  1.00 48.04 LIG 0.04  C 
ATOM     48  CB  PRO C 305      18.017   2.213   7.857  1.00 49.04 LIG 0.05  C 
ENDBRANCH 41 44
ENDBRANCH 39 40
BRANCH 39 49
ATOM     49  CB  ASP C 306      16.626   3.495  12.828  1.00 37.50 LIG 0.15  C 
BRANCH 49 50
ATOM     50  CG  ASP C 306      17.409   2.212  12.617  1.00 60.25 LIG 0.17  C 
ATOM     51 OD1  ASP C 306      17.794   1.575  13.620  1.00 61.15 LIG-0.65  OA
ATOM     52 OD2  ASP C 306      17.642   1.846  11.445  1.00 58.41 LIG-0.65  OA
ENDBRANCH 49 50
ENDBRANCH 39 49
ENDBRANCH 37 39
ENDBRANCH 1 35
TORSDOF 18
ENDMDL
MODEL 3
USER: ADFR SOLUTION from run 185
USER: SCORE 17.388876 LL:  -4.884 LR: -14.498 RR:   0.000 FEB:  -9.128
USER: RMSD 3.901157
USER: SEED 184
USER: STATUS no improvement in best in 6 clusters for 5 generations
USER: GENES 20
USER: genes 0 Translation |==|  0.43053 0.55338 0.45981
USER: genes 1 Rotation |==|  0.69267 0.43270 0.41907 0.94922
USER: genes 2 Torsion [C]-CA--CB-[CG] |==|  0.59046
USER: genes 3 Torsion [CA]-CB--CG-[CD1] |==|  0.79089
USER: genes 4 Torsion [CE2]-CZ--OH-[HH] |==|  0.98528
USER: genes 5 Torsion [N]-CA--C-[N] |==|  0.10854
USER: genes 6 Torsion [C]-N--CA-[CB] |==|  0.38830
USER: genes 7 Torsion [N]-CA--CB-[CG] |==|  0.64266
USER: genes 8 Torsion [CA]-CB--CG-[CD1] |==|  0.71275
USER: genes 9 Torsion [N]-CA--C-[N] |==|  0.83816
USER: genes 10 Torsion [C]-N--CA-[C] |==|  0.72755
USER: genes 11 Torsion [N]-CA--C-[O] |==|  0.82138
USER: genes 12 Torsion [N]-CA--CB-[CG] |==|  0.84887
USER: genes 13 Torsion [CA]-CB--CG-[CD2] |==|  0.60068
USER: genes 14 Torsion [CB]-CA--N-[C] |==|  0.76667
USER: genes 15 Torsion [N]-C--CA-[N] |==|  0.36290
USER: genes 16 Torsion [C]-CA--N-[C] |==|  0.83122
USER: genes 17 Torsion [N]-C--CA-[N] |==|  0.39733
USER: genes 18 Torsion [C]-CA--CB-[CG] |==|  0.41356
USER: genes 19 Torsion [CA]-CB--CG-[OD1] |==|  0.16851
ROOT
ATOM      1  CA  TYR C 307      14.661   7.265  12.804  1.00 19.42 LIG 0.18  C 
ENDROOT
BRANCH 1 2
ATOM      2  CB  TYR C 307      14.293   7.852  11.438  1.00 20.09 LIG 0.07  C 
BRANCH 2 3
ATOM      3  CG  TYR C 307      15.256   7.479  10.340  1.00 17.22 LIG-0.06  A 
ATOM      4  CD2 TYR C 307      14.916   6.530   9.386  1.00 23.64 LIG 0.01  A 
ATOM      5  CE2 TYR C 307      15.794   6.184   8.377  1.00 23.84 LIG 0.04  A 
ATOM      6  CZ  TYR C 307      17.030   6.790   8.311  1.00 20.80 LIG 0.07  A 
ATOM      7  CE1 TYR C 307      17.393   7.739   9.243  1.00 18.70 LIG 0.04  A 
ATOM      8  CD1 TYR C 307      16.506   8.081  10.251  1.00 26.65 LIG 0.01  A 
BRANCH 6 9
ATOM      9 OH   TYR C 307      17.902   6.445   7.303  1.00 27.63 LIG-0.36  OA
ATOM     10 HH   TYR C 307      17.578   5.812   6.857  1.00 27.63 LIG 0.22  HD
ENDBRANCH 6 9
ENDBRANCH 2 3
ENDBRANCH 1 2
BRANCH 1 11
ATOM     11  C   TYR C 307      13.391   6.969  13.596  1.00 24.68 LIG 0.24  C 
ATOM     12 O    TYR C 307      12.318   7.469  13.261  1.00 26.67 LIG-0.27  OA
ATOM     13  N   PHE C 308      13.510   6.173  14.651  1.00 19.41 LIG-0.35  N 
ATOM     14 H    PHE C 308      14.258   5.887  14.965  1.00 19.41 LIG 0.16  HD
BRANCH 13 15
ATOM     15  CA  PHE C 308      12.326   5.718  15.373  1.00 14.41 LIG 0.18  C 
BRANCH 15 16
ATOM     16  CB  PHE C 308      12.489   4.251  15.769  1.00 18.98 LIG 0.07  C 
BRANCH 16 17
ATOM     17  CG  PHE C 308      11.330   3.396  15.367  1.00 22.36 LIG-0.06  A 
ATOM     18  CD1 PHE C 308      10.396   2.991  16.303  1.00 16.86 LIG 0.01  A 
ATOM     19  CE1 PHE C 308       9.319   2.219  15.935  1.00 17.00 LIG 0.00  A 
ATOM     20  CZ  PHE C 308       9.162   1.849  14.621  1.00 20.65 LIG 0.00  A 
ATOM     21  CE2 PHE C 308      10.087   2.244  13.678  1.00 20.83 LIG 0.00  A 
ATOM     22  CD2 PHE C 308      11.158   3.019  14.047  1.00 21.63 LIG 0.01  A 
ENDBRANCH 16 17
ENDBRANCH 15 16
BRANCH 15 23
ATOM     23  C   PHE C 308      11.988   6.572  16.589  1.00 40.94 LIG 0.24  C 
ATOM     24  N   LEU C 309      12.935   6.670  17.514  1.00 39.04 LIG-0.34  N 
ATOM     25 H    LEU C 309      13.696   6.272  17.465  1.00 39.04 LIG 0.16  HD
ATOM     26 O    PHE C 308      10.899   7.138  16.678  1.00 37.89 LIG-0.27  OA
BRANCH 24 27
ATOM     27  CA  LEU C 309      12.759   7.479  18.713  1.00 41.86 LIG 0.18  C 
BRANCH 27 28
ATOM     28  C   LEU C 309      13.417   8.846  18.553  1.00 52.06 LIG 0.20  C 
ATOM     29 O    LEU C 309      14.637   8.953  18.418  1.00 44.07 LIG-0.65  OA
ATOM     30 OXT  LEU C 309      12.742   9.877  18.553  1.00 57.31 LIG-0.65  OA
ENDBRANCH 27 28
BRANCH 27 31
ATOM     31  CB  LEU C 309      13.338   6.753  19.928  1.00 45.69 LIG 0.04  C 
BRANCH 31 32
ATOM     32  CG  LEU C 309      12.806   5.337  20.161  1.00 42.90 LIG-0.02  C 
ATOM     33  CD2 LEU C 309      12.674   5.055  21.649  1.00 51.11 LIG 0.01  C 
ATOM     34  CD1 LEU C 309      13.705   4.309  19.494  1.00 45.19 LIG 0.01  C 
ENDBRANCH 31 32
ENDBRANCH 27 31
ENDBRANCH 24 27
ENDBRANCH 15 23
ENDBRANCH 13 15
ENDBRANCH 1 11
BRANCH 1 35
ATOM     35  N   TYR C 307      15.550   6.111  12.660  1.00 25.78 LIG-0.35  N 
ATOM     36 H    TYR C 307      16.388   6.286  12.741  1.00 25.78 LIG 0.16  HD
ATOM     37  C   ASP C 306      15.049   4.902  12.422  1.00 34.41 LIG 0.24  C 
ATOM     38 O    ASP C 306      13.842   4.708  12.285  1.00 33.93 LIG-0.27  OA
BRANCH 37 39
ATOM     39  CA  ASP C 306      16.030   3.731  12.299  1.00 28.99 LIG 0.19  C 
BRANCH 39 40
ATOM     40  N   ASP C 306      15.707   2.546  13.094  1.00 47.80 LIG-0.34  N 
ATOM     41  C   PRO C 305      15.631   2.607  14.422  1.00 55.24 LIG 0.25  C 
ATOM     42 O    PRO C 305      15.709   3.661  15.056  1.00 37.29 LIG-0.27  OA
ATOM     43 H    ASP C 306      15.576   1.831  12.635  1.00 47.80 LIG 0.16  HD
BRANCH 41 44
ATOM     44  CA  PRO C 305      15.415   1.296  15.174  1.00 46.84 LIG 0.35  C 
ATOM     45  N   PRO C 305      16.150   1.243  16.444  1.00 55.65 LIG 0.32  N 
ATOM     46  CD  PRO C 305      15.244   1.214  17.605  1.00 37.59 LIG 0.32  C 
ATOM     47  CG  PRO C 305      13.937   1.663  17.024  1.00 48.04 LIG 0.04  C 
ATOM     48  CB  PRO C 305      13.950   1.178  15.614  1.00 49.04 LIG 0.05  C 
ENDBRANCH 41 44
ENDBRANCH 39 40
BRANCH 39 49
ATOM     49  CB  ASP C 306      16.178   3.354  10.820  1.00 37.50 LIG 0.15  C 
BRANCH 49 50
ATOM     50  CG  ASP C 306      17.556   2.810  10.492  1.00 60.25 LIG 0.17  C 
ATOM     51 OD1  ASP C 306      17.943   1.772  11.071  1.00 61.15 LIG-0.65  OA
ATOM     52 OD2  ASP C 306      18.253   3.424   9.656  1.00 58.41 LIG-0.65  OA
ENDBRANCH 49 50
ENDBRANCH 39 49
ENDBRANCH 37 39
ENDBRANCH 1 35
TORSDOF 18
ENDMDL
MODEL 4
USER: ADFR SOLUTION from run 89
USER: SCORE 15.634750 LL:  -4.387 LR: -14.435 RR:   0.000 FEB:  -9.066
USER: RMSD 3.152302
USER: SEED 88
USER: STATUS no improvement in best in 13 clusters for 5 generations
USER: GENES 20
USER: genes 0 Translation |==|  0.41264 0.51889 0.45773
USER: genes 1 Rotation |==|  0.65816 0.47078 0.29091 0.92475
USER: genes 2 Torsion [C]-CA--CB-[CG] |==|  0.50008
USER: genes 3 Torsion [CA]-CB--CG-[CD1] |==|  0.22423
USER: genes 4 Torsion [CE2]-CZ--OH-[HH] |==|  0.43229
USER: genes 5 Torsion [N]-CA--C-[N] |==|  0.14494
USER: genes 6 Torsion [C]-N--CA-[CB] |==|  0.36205
USER: genes 7 Torsion [N]-CA--CB-[CG] |==|  0.79414
USER: genes 8 Torsion [CA]-CB--CG-[CD1] |==|  0.16095
USER: genes 9 Torsion [N]-CA--C-[N] |==|  0.06460
USER: genes 10 Torsion [C]-N--CA-[C] |==|  0.84603
USER: genes 11 Torsion [N]-CA--C-[O] |==|  0.80178
USER: genes 12 Torsion [N]-CA--CB-[CG] |==|  0.12055
USER: genes 13 Torsion [CA]-CB--CG-[CD2] |==|  0.74382
USER: genes 14 Torsion [CB]-CA--N-[C] |==|  0.25363
USER: genes 15 Torsion [N]-C--CA-[N] |==|  0.42589
USER: genes 16 Torsion [C]-CA--N-[C] |==|  0.72811
USER: genes 17 Torsion [N]-C--CA-[N] |==|  0.73103
USER: genes 18 Torsion [C]-CA--CB-[CG] |==|  0.69251
USER: genes 19 Torsion [CA]-CB--CG-[OD1] |==|  0.31664
ROOT
ATOM      1  CA  TYR C 307      14.299   6.670  12.759  1.00 19.42 LIG 0.18  C 
ENDROOT
BRANCH 1 2
ATOM      2  CB  TYR C 307      13.786   7.467  11.555  1.00 20.09 LIG 0.07  C 
BRANCH 2 3
ATOM      3  CG  TYR C 307      14.651   7.333  10.328  1.00 17.22 LIG-0.06  A 
ATOM      4  CD2 TYR C 307      15.578   8.313  10.001  1.00 23.64 LIG 0.01  A 
ATOM      5  CE2 TYR C 307      16.375   8.196   8.877  1.00 23.84 LIG 0.04  A 
ATOM      6  CZ  TYR C 307      16.250   7.089   8.065  1.00 20.80 LIG 0.07  A 
ATOM      7  CE1 TYR C 307      15.339   6.100   8.369  1.00 18.70 LIG 0.04  A 
ATOM      8  CD1 TYR C 307      14.545   6.224   9.497  1.00 26.65 LIG 0.01  A 
BRANCH 6 9
ATOM      9 OH   TYR C 307      17.045   6.975   6.948  1.00 27.63 LIG-0.36  OA
ATOM     10 HH   TYR C 307      17.123   6.165   6.741  1.00 27.63 LIG 0.22  HD
ENDBRANCH 6 9
ENDBRANCH 2 3
ENDBRANCH 1 2
BRANCH 1 11
ATOM     11  C   TYR C 307      13.361   6.868  13.946  1.00 24.68 LIG 0.24  C 
ATOM     12 O    TYR C 307      12.401   7.633  13.859  1.00 26.67 LIG-0.27  OA
ATOM     13  N   PHE C 308      13.641   6.196  15.055  1.00 19.41 LIG-0.35  N 
ATOM     14 H    PHE C 308      14.354   5.731  15.176  1.00 19.41 LIG 0.16  HD
BRANCH 13 15
ATOM     15  CA  PHE C 308      12.715   6.209  16.183  1.00 14.41 LIG 0.18  C 
BRANCH 15 16
ATOM     16  CB  PHE C 308      12.454   4.781  16.659  1.00 18.98 LIG 0.07  C 
BRANCH 16 17
ATOM     17  CG  PHE C 308      11.564   4.005  15.741  1.00 22.36 LIG-0.06  A 
ATOM     18  CD1 PHE C 308      11.909   3.823  14.414  1.00 16.86 LIG 0.01  A 
ATOM     19  CE1 PHE C 308      11.102   3.095  13.570  1.00 17.00 LIG 0.00  A 
ATOM     20  CZ  PHE C 308       9.942   2.536  14.049  1.00 20.65 LIG 0.00  A 
ATOM     21  CE2 PHE C 308       9.585   2.713  15.369  1.00 20.83 LIG 0.00  A 
ATOM     22  CD2 PHE C 308      10.394   3.435  16.210  1.00 21.63 LIG 0.01  A 
ENDBRANCH 16 17
ENDBRANCH 15 16
BRANCH 15 23
ATOM     23  C   PHE C 308      13.177   7.088  17.340  1.00 40.94 LIG 0.24  C 
ATOM     24  N   LEU C 309      14.031   8.057  17.032  1.00 39.04 LIG-0.34  N 
ATOM     25 H    LEU C 309      14.336   8.191  16.239  1.00 39.04 LIG 0.16  HD
ATOM     26 O    PHE C 308      12.756   6.899  18.481  1.00 37.89 LIG-0.27  OA
BRANCH 24 27
ATOM     27  CA  LEU C 309      14.530   8.990  18.032  1.00 41.86 LIG 0.18  C 
BRANCH 27 28
ATOM     28  C   LEU C 309      13.380   9.689  18.751  1.00 52.06 LIG 0.20  C 
ATOM     29 O    LEU C 309      12.693  10.536  18.178  1.00 44.07 LIG-0.65  OA
ATOM     30 OXT  LEU C 309      13.110   9.421  19.924  1.00 57.31 LIG-0.65  OA
ENDBRANCH 27 28
BRANCH 27 31
ATOM     31  CB  LEU C 309      15.449  10.022  17.378  1.00 45.69 LIG 0.04  C 
BRANCH 31 32
ATOM     32  CG  LEU C 309      14.952  10.594  16.049  1.00 42.90 LIG-0.02  C 
ATOM     33  CD2 LEU C 309      15.496   9.783  14.883  1.00 51.11 LIG 0.01  C 
ATOM     34  CD1 LEU C 309      15.340  12.057  15.916  1.00 45.19 LIG 0.01  C 
ENDBRANCH 31 32
ENDBRANCH 27 31
ENDBRANCH 24 27
ENDBRANCH 15 23
ENDBRANCH 13 15
ENDBRANCH 1 11
BRANCH 1 35
ATOM     35  N   TYR C 307      14.518   5.267  12.407  1.00 25.78 LIG-0.35  N 
ATOM     36 H    TYR C 307      13.834   4.756  12.507  1.00 25.78 LIG 0.16  HD
ATOM     37  C   ASP C 306      15.707   4.860  11.971  1.00 34.41 LIG 0.24  C 
ATOM     38 O    ASP C 306      16.666   5.625  11.873  1.00 33.93 LIG-0.27  OA
BRANCH 37 39
ATOM     39  CA  ASP C 306      15.869   3.381  11.602  1.00 28.99 LIG 0.19  C 
BRANCH 39 40
ATOM     40  N   ASP C 306      16.899   3.084  10.607  1.00 47.80 LIG-0.34  N 
ATOM     41  C   PRO C 305      16.589   2.914   9.323  1.00 55.24 LIG 0.25  C 
ATOM     42 O    PRO C 305      15.458   3.104   8.870  1.00 37.29 LIG-0.27  OA
ATOM     43 H    ASP C 306      17.697   3.033  10.921  1.00 47.80 LIG 0.16  HD
BRANCH 41 44
ATOM     44  CA  PRO C 305      17.709   2.482   8.380  1.00 46.84 LIG 0.35  C 
ATOM     45  N   PRO C 305      18.315   3.611   7.664  1.00 55.65 LIG 0.32  N 
ATOM     46  CD  PRO C 305      19.718   3.825   8.058  1.00 37.59 LIG 0.32  C 
ATOM     47  CG  PRO C 305      19.831   3.050   9.336  1.00 48.04 LIG 0.04  C 
ATOM     48  CB  PRO C 305      18.882   1.909   9.185  1.00 49.04 LIG 0.05  C 
ENDBRANCH 41 44
ENDBRANCH 39 40
BRANCH 39 49
ATOM     49  CB  ASP C 306      16.116   2.570  12.879  1.00 37.50 LIG 0.15  C 
BRANCH 49 50
ATOM     50  CG  ASP C 306      17.529   2.022  12.959  1.00 60.25 LIG 0.17  C 
ATOM     51 OD1  ASP C 306      18.286   2.451  13.855  1.00 61.15 LIG-0.65  OA
ATOM     52 OD2  ASP C 306      17.881   1.165  12.121  1.00 58.41 LIG-0.65  OA
ENDBRANCH 49 50
ENDBRANCH 39 49
ENDBRANCH 37 39
ENDBRANCH 1 35
TORSDOF 18
ENDMDL
MODEL 5
USER: ADFR SOLUTION from run 139
USER: SCORE 17.522569 LL:  -3.985 LR: -14.247 RR:   0.000 FEB:  -8.877
USER: RMSD 5.741490
USER: SEED 138
USER: STATUS no improvement in best in 5 clusters for 5 generations
USER: GENES 20
USER: genes 0 Translation |==|  0.48031 0.28016 0.55669
USER: genes 1 Rotation |==|  0.11730 0.78826 0.63556 0.54552
USER: genes 2 Torsion [C]-CA--CB-[CG] |==|  0.37229
USER: genes 3 Torsion [CA]-CB--CG-[CD1] |==|  0.33688
USER: genes 4 Torsion [CE2]-CZ--OH-[HH] |==|  0.17749
USER: genes 5 Torsion [N]-CA--C-[N] |==|  0.50553
USER: genes 6 Torsion [C]-N--CA-[CB] |==|  0.15747
USER: genes 7 Torsion [N]-CA--CB-[CG] |==|  0.16629
USER: genes 8 Torsion [CA]-CB--CG-[CD1] |==|  0.07387
USER: genes 9 Torsion [N]-CA--C-[N] |==|  0.11433
USER: genes 10 Torsion [C]-N--CA-[C] |==|  0.72148
USER: genes 11 Torsion [N]-CA--C-[O] |==|  0.84245
USER: genes 12 Torsion [N]-CA--CB-[CG] |==|  0.90937
USER: genes 13 Torsion [CA]-CB--CG-[CD2] |==|  0.58870
USER: genes 14 Torsion [CB]-CA--N-[C] |==|  0.82058
USER: genes 15 Torsion [N]-C--CA-[N] |==|  0.34028
USER: genes 16 Torsion [C]-CA--N-[C] |==|  0.84008
USER: genes 17 Torsion [N]-C--CA-[N] |==|  0.05478
USER: genes 18 Torsion [C]-CA--CB-[CG] |==|  0.71118
USER: genes 19 Torsion [CA]-CB--CG-[OD1] |==|  0.81446
ROOT
ATOM      1  CA  TYR C 307      15.669   2.552  14.911  1.00 19.42 LIG 0.18  C 
ENDROOT
BRANCH 1 2
ATOM      2  CB  TYR C 307      16.536   2.855  16.137  1.00 20.09 LIG 0.07  C 
BRANCH 2 3
ATOM      3  CG  TYR C 307      16.373   1.858  17.255  1.00 17.22 LIG-0.06  A 
ATOM      4  CD2 TYR C 307      15.131   1.632  17.832  1.00 23.64 LIG 0.01  A 
ATOM      5  CE2 TYR C 307      14.974   0.719  18.858  1.00 23.84 LIG 0.04  A 
ATOM      6  CZ  TYR C 307      16.067   0.016  19.317  1.00 20.80 LIG 0.07  A 
ATOM      7  CE1 TYR C 307      17.311   0.218  18.760  1.00 18.70 LIG 0.04  A 
ATOM      8  CD1 TYR C 307      17.460   1.135  17.732  1.00 26.65 LIG 0.01  A 
BRANCH 6 9
ATOM      9 OH   TYR C 307      15.908  -0.894  20.337  1.00 27.63 LIG-0.36  OA
ATOM     10 HH   TYR C 307      15.407  -1.517  20.081  1.00 27.63 LIG 0.22  HD
ENDBRANCH 6 9
ENDBRANCH 2 3
ENDBRANCH 1 2
BRANCH 1 11
ATOM     11  C   TYR C 307      14.981   3.829  14.439  1.00 24.68 LIG 0.24  C 
ATOM     12 O    TYR C 307      15.086   4.196  13.269  1.00 26.67 LIG-0.27  OA
ATOM     13  N   PHE C 308      14.291   4.513  15.343  1.00 19.41 LIG-0.35  N 
ATOM     14 H    PHE C 308      14.279   4.334  16.184  1.00 19.41 LIG 0.16  HD
BRANCH 13 15
ATOM     15  CA  PHE C 308      13.480   5.659  14.945  1.00 14.41 LIG 0.18  C 
BRANCH 15 16
ATOM     16  CB  PHE C 308      12.466   5.236  13.884  1.00 18.98 LIG 0.07  C 
BRANCH 16 17
ATOM     17  CG  PHE C 308      11.530   4.167  14.351  1.00 22.36 LIG-0.06  A 
ATOM     18  CD1 PHE C 308      11.234   4.030  15.696  1.00 16.86 LIG 0.01  A 
ATOM     19  CE1 PHE C 308      10.360   3.060  16.129  1.00 17.00 LIG 0.00  A 
ATOM     20  CZ  PHE C 308       9.768   2.218  15.218  1.00 20.65 LIG 0.00  A 
ATOM     21  CE2 PHE C 308      10.058   2.341  13.875  1.00 20.83 LIG 0.00  A 
ATOM     22  CD2 PHE C 308      10.926   3.314  13.445  1.00 21.63 LIG 0.01  A 
ENDBRANCH 16 17
ENDBRANCH 15 16
BRANCH 15 23
ATOM     23  C   PHE C 308      12.784   6.347  16.113  1.00 40.94 LIG 0.24  C 
ATOM     24  N   LEU C 309      13.503   6.490  17.220  1.00 39.04 LIG-0.34  N 
ATOM     25 H    LEU C 309      14.310   6.204  17.306  1.00 39.04 LIG 0.16  HD
ATOM     26 O    PHE C 308      11.626   6.750  16.007  1.00 37.89 LIG-0.27  OA
BRANCH 24 27
ATOM     27  CA  LEU C 309      12.975   7.156  18.402  1.00 41.86 LIG 0.18  C 
BRANCH 27 28
ATOM     28  C   LEU C 309      13.481   8.592  18.493  1.00 52.06 LIG 0.20  C 
ATOM     29 O    LEU C 309      14.687   8.841  18.508  1.00 44.07 LIG-0.65  OA
ATOM     30 OXT  LEU C 309      12.693   9.538  18.553  1.00 57.31 LIG-0.65  OA
ENDBRANCH 27 28
BRANCH 27 31
ATOM     31  CB  LEU C 309      13.359   6.379  19.661  1.00 45.69 LIG 0.04  C 
BRANCH 31 32
ATOM     32  CG  LEU C 309      13.455   4.861  19.491  1.00 42.90 LIG-0.02  C 
ATOM     33  CD2 LEU C 309      13.061   4.155  20.779  1.00 51.11 LIG 0.01  C 
ATOM     34  CD1 LEU C 309      14.856   4.457  19.060  1.00 45.19 LIG 0.01  C 
ENDBRANCH 31 32
ENDBRANCH 27 31
ENDBRANCH 24 27
ENDBRANCH 15 23
ENDBRANCH 13 15
ENDBRANCH 1 11
BRANCH 1 35
ATOM     35  N   TYR C 307      16.446   1.880  13.869  1.00 25.78 LIG-0.35  N 
ATOM     36 H    TYR C 307      16.196   1.076  13.691  1.00 25.78 LIG 0.16  HD
ATOM     37  C   ASP C 306      17.455   2.507  13.271  1.00 34.41 LIG 0.24  C 
ATOM     38 O    ASP C 306      17.792   3.649  13.581  1.00 33.93 LIG-0.27  OA
BRANCH 37 39
ATOM     39  CA  ASP C 306      18.219   1.756  12.175  1.00 28.99 LIG 0.19  C 
BRANCH 39 40
ATOM     40  N   ASP C 306      18.254   2.407  10.866  1.00 47.80 LIG-0.34  N 
ATOM     41  C   PRO C 305      17.132   2.720  10.220  1.00 55.24 LIG 0.25  C 
ATOM     42 O    PRO C 305      16.011   2.594  10.715  1.00 37.29 LIG-0.27  OA
ATOM     43 H    ASP C 306      19.044   2.563  10.565  1.00 47.80 LIG 0.16  HD
BRANCH 41 44
ATOM     44  CA  PRO C 305      17.267   3.280   8.806  1.00 46.84 LIG 0.35  C 
ATOM     45  N   PRO C 305      18.565   2.970   8.194  1.00 55.65 LIG 0.32  N 
ATOM     46  CD  PRO C 305      18.429   2.065   7.040  1.00 37.59 LIG 0.32  C 
ATOM     47  CG  PRO C 305      17.050   1.504   7.213  1.00 48.04 LIG 0.04  C 
ATOM     48  CB  PRO C 305      16.267   2.589   7.870  1.00 49.04 LIG 0.05  C 
ENDBRANCH 41 44
ENDBRANCH 39 40
BRANCH 39 49
ATOM     49  CB  ASP C 306      19.643   1.469  12.664  1.00 37.50 LIG 0.15  C 
BRANCH 49 50
ATOM     50  CG  ASP C 306      20.673   2.390  12.036  1.00 60.25 LIG 0.17  C 
ATOM     51 OD1  ASP C 306      20.892   2.294  10.810  1.00 61.15 LIG-0.65  OA
ATOM     52 OD2  ASP C 306      21.265   3.206  12.773  1.00 58.41 LIG-0.65  OA
ENDBRANCH 49 50
ENDBRANCH 39 49
ENDBRANCH 37 39
ENDBRANCH 1 35
TORSDOF 18
ENDMDL
MODEL 6
USER: ADFR SOLUTION from run 155
USER: SCORE 15.096391 LL:  -4.563 LR: -14.121 RR:   0.000 FEB:  -8.752
USER: RMSD 3.184393
USER: SEED 154
USER: STATUS no improvement in best in 7 clusters for 5 generations
USER: GENES 20
USER: genes 0 Translation |==|  0.39104 0.49187 0.47136
USER: genes 1 Rotation |==|  0.61004 0.47957 0.29776 0.94336
USER: genes 2 Torsion [C]-CA--CB-[CG] |==|  0.46178
USER: genes 3 Torsion [CA]-CB--CG-[CD1] |==|  0.17025
USER: genes 4 Torsion [CE2]-CZ--OH-[HH] |==|  0.53351
USER: genes 5 Torsion [N]-CA--C-[N] |==|  0.07795
USER: genes 6 Torsion [C]-N--CA-[CB] |==|  0.39156
USER: genes 7 Torsion [N]-CA--CB-[CG] |==|  0.83465
USER: genes 8 Torsion [CA]-CB--CG-[CD1] |==|  0.60616
USER: genes 9 Torsion [N]-CA--C-[N] |==|  0.08518
USER: genes 10 Torsion [C]-N--CA-[C] |==|  0.82110
USER: genes 11 Torsion [N]-CA--C-[O] |==|  0.79679
USER: genes 12 Torsion [N]-CA--CB-[CG] |==|  0.87604
USER: genes 13 Torsion [CA]-CB--CG-[CD2] |==|  0.24827
USER: genes 14 Torsion [CB]-CA--N-[C] |==|  0.44109
USER: genes 15 Torsion [N]-C--CA-[N] |==|  0.45811
USER: genes 16 Torsion [C]-CA--N-[C] |==|  0.68812
USER: genes 17 Torsion [N]-C--CA-[N] |==|  0.77517
USER: genes 18 Torsion [C]-CA--CB-[CG] |==|  0.73853
USER: genes 19 Torsion [CA]-CB--CG-[OD1] |==|  0.76659
ROOT
ATOM      1  CA  TYR C 307      13.862   6.204  13.055  1.00 19.42 LIG 0.18  C 
ENDROOT
BRANCH 1 2
ATOM      2  CB  TYR C 307      13.181   6.753  11.798  1.00 20.09 LIG 0.07  C 
BRANCH 2 3
ATOM      3  CG  TYR C 307      14.064   6.740  10.577  1.00 17.22 LIG-0.06  A 
ATOM      4  CD2 TYR C 307      14.401   7.921   9.929  1.00 23.64 LIG 0.01  A 
ATOM      5  CE2 TYR C 307      15.211   7.916   8.809  1.00 23.84 LIG 0.04  A 
ATOM      6  CZ  TYR C 307      15.696   6.721   8.324  1.00 20.80 LIG 0.07  A 
ATOM      7  CE1 TYR C 307      15.380   5.534   8.950  1.00 18.70 LIG 0.04  A 
ATOM      8  CD1 TYR C 307      14.568   5.547  10.072  1.00 26.65 LIG 0.01  A 
BRANCH 6 9
ATOM      9 OH   TYR C 307      16.504   6.719   7.210  1.00 27.63 LIG-0.36  OA
ATOM     10 HH   TYR C 307      16.591   5.933   6.928  1.00 27.63 LIG 0.22  HD
ENDBRANCH 6 9
ENDBRANCH 2 3
ENDBRANCH 1 2
BRANCH 1 11
ATOM     11  C   TYR C 307      13.037   6.565  14.287  1.00 24.68 LIG 0.24  C 
ATOM     12 O    TYR C 307      12.325   7.569  14.287  1.00 26.67 LIG-0.27  OA
ATOM     13  N   PHE C 308      13.141   5.763  15.339  1.00 19.41 LIG-0.35  N 
ATOM     14 H    PHE C 308      13.699   5.112  15.403  1.00 19.41 LIG 0.16  HD
BRANCH 13 15
ATOM     15  CA  PHE C 308      12.276   5.948  16.500  1.00 14.41 LIG 0.18  C 
BRANCH 15 16
ATOM     16  CB  PHE C 308      11.848   4.590  17.052  1.00 18.98 LIG 0.07  C 
BRANCH 16 17
ATOM     17  CG  PHE C 308      11.102   3.756  16.060  1.00 22.36 LIG-0.06  A 
ATOM     18  CD1 PHE C 308      10.032   2.976  16.460  1.00 16.86 LIG 0.01  A 
ATOM     19  CE1 PHE C 308       9.331   2.220  15.548  1.00 17.00 LIG 0.00  A 
ATOM     20  CZ  PHE C 308       9.693   2.242  14.222  1.00 20.65 LIG 0.00  A 
ATOM     21  CE2 PHE C 308      10.760   3.013  13.811  1.00 20.83 LIG 0.00  A 
ATOM     22  CD2 PHE C 308      11.453   3.770  14.722  1.00 21.63 LIG 0.01  A 
ENDBRANCH 16 17
ENDBRANCH 15 16
BRANCH 15 23
ATOM     23  C   PHE C 308      12.901   6.804  17.595  1.00 40.94 LIG 0.24  C 
ATOM     24  N   LEU C 309      13.751   7.740  17.191  1.00 39.04 LIG-0.34  N 
ATOM     25 H    LEU C 309      13.968   7.866  16.368  1.00 39.04 LIG 0.16  HD
ATOM     26 O    PHE C 308      12.607   6.627  18.777  1.00 37.89 LIG-0.27  OA
BRANCH 24 27
ATOM     27  CA  LEU C 309      14.398   8.650  18.126  1.00 41.86 LIG 0.18  C 
BRANCH 27 28
ATOM     28  C   LEU C 309      13.374   9.547  18.814  1.00 52.06 LIG 0.20  C 
ATOM     29 O    LEU C 309      12.827  10.469  18.207  1.00 44.07 LIG-0.65  OA
ATOM     30 OXT  LEU C 309      13.068   9.369  19.995  1.00 57.31 LIG-0.65  OA
ENDBRANCH 27 28
BRANCH 27 31
ATOM     31  CB  LEU C 309      15.441   9.499  17.400  1.00 45.69 LIG 0.04  C 
BRANCH 31 32
ATOM     32  CG  LEU C 309      16.346   8.737  16.429  1.00 42.90 LIG-0.02  C 
ATOM     33  CD2 LEU C 309      15.725   8.698  15.041  1.00 51.11 LIG 0.01  C 
ATOM     34  CD1 LEU C 309      16.617   7.331  16.939  1.00 45.19 LIG 0.01  C 
ENDBRANCH 31 32
ENDBRANCH 27 31
ENDBRANCH 24 27
ENDBRANCH 15 23
ENDBRANCH 13 15
ENDBRANCH 1 11
BRANCH 1 35
ATOM     35  N   TYR C 307      14.133   4.772  12.925  1.00 25.78 LIG-0.35  N 
ATOM     36 H    TYR C 307      13.653   4.363  12.341  1.00 25.78 LIG 0.16  HD
ATOM     37  C   ASP C 306      15.062   4.192  13.680  1.00 34.41 LIG 0.24  C 
ATOM     38 O    ASP C 306      15.703   4.816  14.525  1.00 33.93 LIG-0.27  OA
BRANCH 37 39
ATOM     39  CA  ASP C 306      15.312   2.692  13.485  1.00 28.99 LIG 0.19  C 
BRANCH 39 40
ATOM     40  N   ASP C 306      16.548   2.173  14.069  1.00 47.80 LIG-0.34  N 
ATOM     41  C   PRO C 305      17.543   1.735  13.300  1.00 55.24 LIG 0.25  C 
ATOM     42 O    PRO C 305      17.544   1.839  12.072  1.00 37.29 LIG-0.27  OA
ATOM     43 H    ASP C 306      16.569   2.179  14.928  1.00 47.80 LIG 0.16  HD
BRANCH 41 44
ATOM     44  CA  PRO C 305      18.741   1.094  13.997  1.00 46.84 LIG 0.35  C 
ATOM     45  N   PRO C 305      19.685   2.085  14.529  1.00 55.65 LIG 0.32  N 
ATOM     46  CD  PRO C 305      19.740   2.060  16.001  1.00 37.59 LIG 0.32  C 
ATOM     47  CG  PRO C 305      18.499   1.305  16.372  1.00 48.04 LIG 0.04  C 
ATOM     48  CB  PRO C 305      18.279   0.344  15.253  1.00 49.04 LIG 0.05  C 
ENDBRANCH 41 44
ENDBRANCH 39 40
BRANCH 39 49
ATOM     49  CB  ASP C 306      14.105   1.910  14.016  1.00 37.50 LIG 0.15  C 
BRANCH 49 50
ATOM     50  CG  ASP C 306      14.287   1.461  15.453  1.00 60.25 LIG 0.17  C 
ATOM     51 OD1  ASP C 306      14.912   0.402  15.674  1.00 61.15 LIG-0.65  OA
ATOM     52 OD2  ASP C 306      13.799   2.167  16.362  1.00 58.41 LIG-0.65  OA
ENDBRANCH 49 50
ENDBRANCH 39 49
ENDBRANCH 37 39
ENDBRANCH 1 35
TORSDOF 18
ENDMDL
MODEL 7
USER: ADFR SOLUTION from run 142
USER: SCORE 14.758340 LL:  -4.322 LR: -13.953 RR:   0.000 FEB:  -8.583
USER: RMSD 6.260608
USER: SEED 141
USER: STATUS no improvement in best in 19 clusters for 5 generations
USER: GENES 20
USER: genes 0 Translation |==|  0.38877 0.55648 0.41204
USER: genes 1 Rotation |==|  0.34491 0.53904 0.84279 0.82698
USER: genes 2 Torsion [C]-CA--CB-[CG] |==|  0.51707
USER: genes 3 Torsion [CA]-CB--CG-[CD1] |==|  0.75856
USER: genes 4 Torsion [CE2]-CZ--OH-[HH] |==|  0.37034
USER: genes 5 Torsion [N]-CA--C-[N] |==|  0.67544
USER: genes 6 Torsion [C]-N--CA-[CB] |==|  0.38327
USER: genes 7 Torsion [N]-CA--CB-[CG] |==|  0.70859
USER: genes 8 Torsion [CA]-CB--CG-[CD1] |==|  0.22940
USER: genes 9 Torsion [N]-CA--C-[N] |==|  0.19562
USER: genes 10 Torsion [C]-N--CA-[C] |==|  0.69444
USER: genes 11 Torsion [N]-CA--C-[O] |==|  0.22402
USER: genes 12 Torsion [N]-CA--CB-[CG] |==|  0.00857
USER: genes 13 Torsion [CA]-CB--CG-[CD2] |==|  0.77312
USER: genes 14 Torsion [CB]-CA--N-[C] |==|  0.23151
USER: genes 15 Torsion [N]-C--CA-[N] |==|  0.55956
USER: genes 16 Torsion [C]-CA--N-[C] |==|  0.76246
USER: genes 17 Torsion [N]-C--CA-[N] |==|  0.74034
USER: genes 18 Torsion [C]-CA--CB-[CG] |==|  0.64874
USER: genes 19 Torsion [CA]-CB--CG-[OD1] |==|  0.17434
ROOT
ATOM      1  CA  TYR C 307      13.816   7.318  11.765  1.00 19.42 LIG 0.18  C 
ENDROOT
BRANCH 1 2
ATOM      2  CB  TYR C 307      14.809   6.200  11.435  1.00 20.09 LIG 0.07  C 
BRANCH 2 3
ATOM      3  CG  TYR C 307      15.539   6.405  10.133  1.00 17.22 LIG-0.06  A 
ATOM      4  CD2 TYR C 307      16.777   7.033  10.101  1.00 23.64 LIG 0.01  A 
ATOM      5  CE2 TYR C 307      17.452   7.224   8.911  1.00 23.84 LIG 0.04  A 
ATOM      6  CZ  TYR C 307      16.892   6.783   7.731  1.00 20.80 LIG 0.07  A 
ATOM      7  CE1 TYR C 307      15.666   6.152   7.734  1.00 18.70 LIG 0.04  A 
ATOM      8  CD1 TYR C 307      14.996   5.964   8.931  1.00 26.65 LIG 0.01  A 
BRANCH 6 9
ATOM      9 OH   TYR C 307      17.568   6.972   6.547  1.00 27.63 LIG-0.36  OA
ATOM     10 HH   TYR C 307      17.561   6.259   6.104  1.00 27.63 LIG 0.22  HD
ENDBRANCH 6 9
ENDBRANCH 2 3
ENDBRANCH 1 2
BRANCH 1 11
ATOM     11  C   TYR C 307      13.242   7.102  13.163  1.00 24.68 LIG 0.24  C 
ATOM     12 O    TYR C 307      12.321   7.806  13.573  1.00 26.67 LIG-0.27  OA
ATOM     13  N   PHE C 308      13.792   6.144  13.899  1.00 19.41 LIG-0.35  N 
ATOM     14 H    PHE C 308      14.496   5.702  13.677  1.00 19.41 LIG 0.16  HD
BRANCH 13 15
ATOM     15  CA  PHE C 308      13.209   5.770  15.183  1.00 14.41 LIG 0.18  C 
BRANCH 15 16
ATOM     16  CB  PHE C 308      13.214   4.250  15.334  1.00 18.98 LIG 0.07  C 
BRANCH 16 17
ATOM     17  CG  PHE C 308      11.865   3.631  15.148  1.00 22.36 LIG-0.06  A 
ATOM     18  CD1 PHE C 308      11.382   3.365  13.880  1.00 16.86 LIG 0.01  A 
ATOM     19  CE1 PHE C 308      10.149   2.780  13.704  1.00 17.00 LIG 0.00  A 
ATOM     20  CZ  PHE C 308       9.388   2.450  14.799  1.00 20.65 LIG 0.00  A 
ATOM     21  CE2 PHE C 308       9.857   2.713  16.070  1.00 20.83 LIG 0.00  A 
ATOM     22  CD2 PHE C 308      11.090   3.291  16.242  1.00 21.63 LIG 0.01  A 
ENDBRANCH 16 17
ENDBRANCH 15 16
BRANCH 15 23
ATOM     23  C   PHE C 308      13.886   6.434  16.376  1.00 40.94 LIG 0.24  C 
ATOM     24  N   LEU C 309      13.680   7.739  16.511  1.00 39.04 LIG-0.34  N 
ATOM     25 H    LEU C 309      13.213   8.209  15.963  1.00 39.04 LIG 0.16  HD
ATOM     26 O    PHE C 308      14.566   5.775  17.161  1.00 37.89 LIG-0.27  OA
BRANCH 24 27
ATOM     27  CA  LEU C 309      14.241   8.495  17.623  1.00 41.86 LIG 0.18  C 
BRANCH 27 28
ATOM     28  C   LEU C 309      13.148   8.938  18.590  1.00 52.06 LIG 0.20  C 
ATOM     29 O    LEU C 309      12.695   8.164  19.435  1.00 44.07 LIG-0.65  OA
ATOM     30 OXT  LEU C 309      12.693  10.083  18.550  1.00 57.31 LIG-0.65  OA
ENDBRANCH 27 28
BRANCH 27 31
ATOM     31  CB  LEU C 309      15.007   9.710  17.099  1.00 45.69 LIG 0.04  C 
BRANCH 31 32
ATOM     32  CG  LEU C 309      14.962   9.911  15.583  1.00 42.90 LIG-0.02  C 
ATOM     33  CD2 LEU C 309      15.987   9.022  14.896  1.00 51.11 LIG 0.01  C 
ATOM     34  CD1 LEU C 309      15.189  11.371  15.228  1.00 45.19 LIG 0.01  C 
ENDBRANCH 31 32
ENDBRANCH 27 31
ENDBRANCH 24 27
ENDBRANCH 15 23
ENDBRANCH 13 15
ENDBRANCH 1 11
BRANCH 1 35
ATOM     35  N   TYR C 307      14.422   8.636  11.573  1.00 25.78 LIG-0.35  N 
ATOM     36 H    TYR C 307      14.735   8.999  12.286  1.00 25.78 LIG 0.16  HD
ATOM     37  C   ASP C 306      14.460   9.189  10.364  1.00 34.41 LIG 0.24  C 
ATOM     38 O    ASP C 306      13.971   8.641   9.376  1.00 33.93 LIG-0.27  OA
BRANCH 37 39
ATOM     39  CA  ASP C 306      15.124  10.564  10.224  1.00 28.99 LIG 0.19  C 
BRANCH 39 40
ATOM     40  N   ASP C 306      14.733  11.341   9.048  1.00 47.80 LIG-0.34  N 
ATOM     41  C   PRO C 305      15.343  11.172   7.876  1.00 55.24 LIG 0.25  C 
ATOM     42 O    PRO C 305      16.179  10.291   7.671  1.00 37.29 LIG-0.27  OA
ATOM     43 H    ASP C 306      14.093  11.898   9.183  1.00 47.80 LIG 0.16  HD
BRANCH 41 44
ATOM     44  CA  PRO C 305      14.956  12.115   6.740  1.00 46.84 LIG 0.35  C 
ATOM     45  N   PRO C 305      13.894  11.569   5.886  1.00 55.65 LIG 0.32  N 
ATOM     46  CD  PRO C 305      12.650  12.351   5.984  1.00 37.59 LIG 0.32  C 
ATOM     47  CG  PRO C 305      12.854  13.153   7.234  1.00 48.04 LIG 0.04  C 
ATOM     48  CB  PRO C 305      14.324  13.392   7.308  1.00 49.04 LIG 0.05  C 
ENDBRANCH 41 44
ENDBRANCH 39 40
BRANCH 39 49
ATOM     49  CB  ASP C 306      14.874  11.373  11.502  1.00 37.50 LIG 0.15  C 
BRANCH 49 50
ATOM     50  CG  ASP C 306      14.259  12.732  11.222  1.00 60.25 LIG 0.17  C 
ATOM     51 OD1  ASP C 306      13.129  12.778  10.692  1.00 61.15 LIG-0.65  OA
ATOM     52 OD2  ASP C 306      14.911  13.752  11.529  1.00 58.41 LIG-0.65  OA
ENDBRANCH 49 50
ENDBRANCH 39 49
ENDBRANCH 37 39
ENDBRANCH 1 35
TORSDOF 18
ENDMDL
MODEL 8
USER: ADFR SOLUTION from run 186
USER: SCORE 16.240599 LL:  -4.007 LR: -13.698 RR:   0.000 FEB:  -8.329
USER: RMSD 5.840329
USER: SEED 185
USER: STATUS 1 or 2 clusters left
USER: GENES 20
USER: genes 0 Translation |==|  0.28699 0.37109 0.57298
USER: genes 1 Rotation |==|  0.35720 0.66048 0.72691 0.89034
USER: genes 2 Torsion [C]-CA--CB-[CG] |==|  0.78083
USER: genes 3 Torsion [CA]-CB--CG-[CD1] |==|  0.76050
USER: genes 4 Torsion [CE2]-CZ--OH-[HH] |==|  0.70976
USER: genes 5 Torsion [N]-CA--C-[N] |==|  0.97797
USER: genes 6 Torsion [C]-N--CA-[CB] |==|  0.23396
USER: genes 7 Torsion [N]-CA--CB-[CG] |==|  0.49244
USER: genes 8 Torsion [CA]-CB--CG-[CD1] |==|  0.12957
USER: genes 9 Torsion [N]-CA--C-[N] |==|  0.93392
USER: genes 10 Torsion [C]-N--CA-[C] |==|  0.81122
USER: genes 11 Torsion [N]-CA--C-[O] |==|  0.60317
USER: genes 12 Torsion [N]-CA--CB-[CG] |==|  0.12038
USER: genes 13 Torsion [CA]-CB--CG-[CD2] |==|  0.65228
USER: genes 14 Torsion [CB]-CA--N-[C] |==|  0.22469
USER: genes 15 Torsion [N]-C--CA-[N] |==|  0.45023
USER: genes 16 Torsion [C]-CA--N-[C] |==|  0.71463
USER: genes 17 Torsion [N]-C--CA-[N] |==|  0.32774
USER: genes 18 Torsion [C]-CA--CB-[CG] |==|  0.98239
USER: genes 19 Torsion [CA]-CB--CG-[OD1] |==|  0.25021
ROOT
ATOM      1  CA  TYR C 307      11.754   4.120  15.265  1.00 19.42 LIG 0.18  C 
ENDROOT
BRANCH 1 2
ATOM      2  CB  TYR C 307      11.814   2.591  15.195  1.00 20.09 LIG 0.07  C 
BRANCH 2 3
ATOM      3  CG  TYR C 307      13.144   2.018  15.614  1.00 17.22 LIG-0.06  A 
ATOM      4  CD2 TYR C 307      13.360   1.603  16.920  1.00 23.64 LIG 0.01  A 
ATOM      5  CE2 TYR C 307      14.577   1.076  17.311  1.00 23.84 LIG 0.04  A 
ATOM      6  CZ  TYR C 307      15.595   0.957  16.389  1.00 20.80 LIG 0.07  A 
ATOM      7  CE1 TYR C 307      15.406   1.359  15.085  1.00 18.70 LIG 0.04  A 
ATOM      8  CD1 TYR C 307      14.183   1.885  14.701  1.00 26.65 LIG 0.01  A 
BRANCH 6 9
ATOM      9 OH   TYR C 307      16.805   0.430  16.780  1.00 27.63 LIG-0.36  OA
ATOM     10 HH   TYR C 307      17.368   1.048  16.858  1.00 27.63 LIG 0.22  HD
ENDBRANCH 6 9
ENDBRANCH 2 3
ENDBRANCH 1 2
BRANCH 1 11
ATOM     11  C   TYR C 307      11.543   4.562  16.711  1.00 24.68 LIG 0.24  C 
ATOM     12 O    TYR C 307      10.512   4.257  17.310  1.00 26.67 LIG-0.27  OA
ATOM     13  N   PHE C 308      12.504   5.289  17.267  1.00 19.41 LIG-0.35  N 
ATOM     14 H    PHE C 308      13.188   5.597  16.845  1.00 19.41 LIG 0.16  HD
BRANCH 13 15
ATOM     15  CA  PHE C 308      12.453   5.624  18.686  1.00 14.41 LIG 0.18  C 
BRANCH 15 16
ATOM     16  CB  PHE C 308      13.034   4.478  19.512  1.00 18.98 LIG 0.07  C 
BRANCH 16 17
ATOM     17  CG  PHE C 308      13.079   4.769  20.979  1.00 22.36 LIG-0.06  A 
ATOM     18  CD1 PHE C 308      11.978   5.305  21.623  1.00 16.86 LIG 0.01  A 
ATOM     19  CE1 PHE C 308      12.007   5.558  22.975  1.00 17.00 LIG 0.00  A 
ATOM     20  CZ  PHE C 308      13.140   5.270  23.699  1.00 20.65 LIG 0.00  A 
ATOM     21  CE2 PHE C 308      14.245   4.739  23.068  1.00 20.83 LIG 0.00  A 
ATOM     22  CD2 PHE C 308      14.211   4.483  21.720  1.00 21.63 LIG 0.01  A 
ENDBRANCH 16 17
ENDBRANCH 15 16
BRANCH 15 23
ATOM     23  C   PHE C 308      13.141   6.940  19.027  1.00 40.94 LIG 0.24  C 
ATOM     24  N   LEU C 309      14.075   7.347  18.176  1.00 39.04 LIG-0.34  N 
ATOM     25 H    LEU C 309      14.311   6.905  17.476  1.00 39.04 LIG 0.16  HD
ATOM     26 O    PHE C 308      12.822   7.576  20.030  1.00 37.89 LIG-0.27  OA
BRANCH 24 27
ATOM     27  CA  LEU C 309      14.792   8.601  18.361  1.00 41.86 LIG 0.18  C 
BRANCH 27 28
ATOM     28  C   LEU C 309      13.863   9.796  18.169  1.00 52.06 LIG 0.20  C 
ATOM     29 O    LEU C 309      14.258  10.827  17.623  1.00 44.07 LIG-0.65  OA
ATOM     30 OXT  LEU C 309      12.693   9.756  18.554  1.00 57.31 LIG-0.65  OA
ENDBRANCH 27 28
BRANCH 27 31
ATOM     31  CB  LEU C 309      15.969   8.685  17.388  1.00 45.69 LIG 0.04  C 
BRANCH 31 32
ATOM     32  CG  LEU C 309      15.669   8.233  15.957  1.00 42.90 LIG-0.02  C 
ATOM     33  CD2 LEU C 309      16.647   7.153  15.523  1.00 51.11 LIG 0.01  C 
ATOM     34  CD1 LEU C 309      15.711   9.415  15.002  1.00 45.19 LIG 0.01  C 
ENDBRANCH 31 32
ENDBRANCH 27 31
ENDBRANCH 24 27
ENDBRANCH 15 23
ENDBRANCH 13 15
ENDBRANCH 1 11
BRANCH 1 35
ATOM     35  N   TYR C 307      12.926   4.724  14.629  1.00 25.78 LIG-0.35  N 
ATOM     36 H    TYR C 307      13.547   4.970  15.171  1.00 25.78 LIG 0.16  HD
ATOM     37  C   ASP C 306      12.978   4.860  13.307  1.00 34.41 LIG 0.24  C 
ATOM     38 O    ASP C 306      12.050   4.517  12.576  1.00 33.93 LIG-0.27  OA
BRANCH 37 39
ATOM     39  CA  ASP C 306      14.240   5.483  12.699  1.00 28.99 LIG 0.19  C 
BRANCH 39 40
ATOM     40  N   ASP C 306      14.438   5.248  11.270  1.00 47.80 LIG-0.34  N 
ATOM     41  C   PRO C 305      15.314   4.345  10.834  1.00 55.24 LIG 0.25  C 
ATOM     42 O    PRO C 305      15.922   3.578  11.583  1.00 37.29 LIG-0.27  OA
ATOM     43 H    ASP C 306      13.950   5.735  10.755  1.00 47.80 LIG 0.16  HD
BRANCH 41 44
ATOM     44  CA  PRO C 305      15.546   4.259   9.327  1.00 46.84 LIG 0.35  C 
ATOM     45  N   PRO C 305      16.930   4.567   8.948  1.00 55.65 LIG 0.32  N 
ATOM     46  CD  PRO C 305      17.623   3.394   8.386  1.00 37.59 LIG 0.32  C 
ATOM     47  CG  PRO C 305      16.749   2.252   8.811  1.00 48.04 LIG 0.04  C 
ATOM     48  CB  PRO C 305      15.367   2.812   8.850  1.00 49.04 LIG 0.05  C 
ENDBRANCH 41 44
ENDBRANCH 39 40
BRANCH 39 49
ATOM     49  CB  ASP C 306      14.249   6.987  12.996  1.00 37.50 LIG 0.15  C 
BRANCH 49 50
ATOM     50  CG  ASP C 306      12.966   7.460  13.655  1.00 60.25 LIG 0.17  C 
ATOM     51 OD1  ASP C 306      12.896   7.450  14.903  1.00 61.15 LIG-0.65  OA
ATOM     52 OD2  ASP C 306      12.027   7.838  12.923  1.00 58.41 LIG-0.65  OA
ENDBRANCH 49 50
ENDBRANCH 39 49
ENDBRANCH 37 39
ENDBRANCH 1 35
TORSDOF 18
ENDMDL
MODEL 9
USER: ADFR SOLUTION from run 22
USER: SCORE 17.247552 LL:  -4.448 LR: -13.507 RR:   0.000 FEB:  -8.138
USER: RMSD 6.761080
USER: SEED 21
USER: STATUS no improvement in best in 4 clusters for 5 generations
USER: GENES 20
USER: genes 0 Translation |==|  0.55792 0.16194 0.59662
USER: genes 1 Rotation |==|  0.96191 0.38174 0.34971 0.50795
USER: genes 2 Torsion [C]-CA--CB-[CG] |==|  0.13790
USER: genes 3 Torsion [CA]-CB--CG-[CD1] |==|  0.23887
USER: genes 4 Torsion [CE2]-CZ--OH-[HH] |==|  0.88138
USER: genes 5 Torsion [N]-CA--C-[N] |==|  0.88892
USER: genes 6 Torsion [C]-N--CA-[CB] |==|  0.14119
USER: genes 7 Torsion [N]-CA--CB-[CG] |==|  0.55650
USER: genes 8 Torsion [CA]-CB--CG-[CD1] |==|  0.53384
USER: genes 9 Torsion [N]-CA--C-[N] |==|  0.64633
USER: genes 10 Torsion [C]-N--CA-[C] |==|  0.46821
USER: genes 11 Torsion [N]-CA--C-[O] |==|  0.60584
USER: genes 12 Torsion [N]-CA--CB-[CG] |==|  0.64411
USER: genes 13 Torsion [CA]-CB--CG-[CD2] |==|  0.74398
USER: genes 14 Torsion [CB]-CA--N-[C] |==|  0.84618
USER: genes 15 Torsion [N]-C--CA-[N] |==|  0.36067
USER: genes 16 Torsion [C]-CA--N-[C] |==|  0.86066
USER: genes 17 Torsion [N]-C--CA-[N] |==|  0.17229
USER: genes 18 Torsion [C]-CA--CB-[CG] |==|  0.48710
USER: genes 19 Torsion [CA]-CB--CG-[OD1] |==|  0.25795
ROOT
ATOM      1  CA  TYR C 307      17.241   0.512  15.779  1.00 19.42 LIG 0.18  C 
ENDROOT
BRANCH 1 2
ATOM      2  CB  TYR C 307      17.674   1.321  17.006  1.00 20.09 LIG 0.07  C 
BRANCH 2 3
ATOM      3  CG  TYR C 307      16.650   1.336  18.113  1.00 17.22 LIG-0.06  A 
ATOM      4  CD2 TYR C 307      15.721   2.363  18.209  1.00 23.64 LIG 0.01  A 
ATOM      5  CE2 TYR C 307      14.780   2.383  19.220  1.00 23.84 LIG 0.04  A 
ATOM      6  CZ  TYR C 307      14.758   1.367  20.151  1.00 20.80 LIG 0.07  A 
ATOM      7  CE1 TYR C 307      15.667   0.333  20.077  1.00 18.70 LIG 0.04  A 
ATOM      8  CD1 TYR C 307      16.607   0.320  19.060  1.00 26.65 LIG 0.01  A 
BRANCH 6 9
ATOM      9 OH   TYR C 307      13.818   1.388  21.157  1.00 27.63 LIG-0.36  OA
ATOM     10 HH   TYR C 307      13.751   2.168  21.461  1.00 27.63 LIG 0.22  HD
ENDBRANCH 6 9
ENDBRANCH 2 3
ENDBRANCH 1 2
BRANCH 1 11
ATOM     11  C   TYR C 307      15.837   0.934  15.354  1.00 24.68 LIG 0.24  C 
ATOM     12 O    TYR C 307      14.855   0.300  15.737  1.00 26.67 LIG-0.27  OA
ATOM     13  N   PHE C 308      15.740   1.989  14.554  1.00 19.41 LIG-0.35  N 
ATOM     14 H    PHE C 308      16.410   2.391  14.195  1.00 19.41 LIG 0.16  HD
BRANCH 13 15
ATOM     15  CA  PHE C 308      14.434   2.549  14.223  1.00 14.41 LIG 0.18  C 
BRANCH 15 16
ATOM     16  CB  PHE C 308      13.633   2.793  15.500  1.00 18.98 LIG 0.07  C 
BRANCH 16 17
ATOM     17  CG  PHE C 308      12.160   2.899  15.264  1.00 22.36 LIG-0.06  A 
ATOM     18  CD1 PHE C 308      11.319   3.364  16.259  1.00 16.86 LIG 0.01  A 
ATOM     19  CE1 PHE C 308       9.966   3.480  16.041  1.00 17.00 LIG 0.00  A 
ATOM     20  CZ  PHE C 308       9.440   3.136  14.819  1.00 20.65 LIG 0.00  A 
ATOM     21  CE2 PHE C 308      10.266   2.668  13.819  1.00 20.83 LIG 0.00  A 
ATOM     22  CD2 PHE C 308      11.617   2.559  14.038  1.00 21.63 LIG 0.01  A 
ENDBRANCH 16 17
ENDBRANCH 15 16
BRANCH 15 23
ATOM     23  C   PHE C 308      14.512   3.819  13.383  1.00 40.94 LIG 0.24  C 
ATOM     24  N   LEU C 309      13.843   4.867  13.847  1.00 39.04 LIG-0.34  N 
ATOM     25 H    LEU C 309      13.371   4.854  14.566  1.00 39.04 LIG 0.16  HD
ATOM     26 O    PHE C 308      15.174   3.848  12.346  1.00 37.89 LIG-0.27  OA
BRANCH 24 27
ATOM     27  CA  LEU C 309      13.855   6.153  13.162  1.00 41.86 LIG 0.18  C 
BRANCH 27 28
ATOM     28  C   LEU C 309      12.798   7.090  13.738  1.00 52.06 LIG 0.20  C 
ATOM     29 O    LEU C 309      12.152   7.844  13.010  1.00 44.07 LIG-0.65  OA
ATOM     30 OXT  LEU C 309      12.564   7.112  14.949  1.00 57.31 LIG-0.65  OA
ENDBRANCH 27 28
BRANCH 27 31
ATOM     31  CB  LEU C 309      13.625   5.954  11.664  1.00 45.69 LIG 0.04  C 
BRANCH 31 32
ATOM     32  CG  LEU C 309      14.654   6.620  10.749  1.00 42.90 LIG-0.02  C 
ATOM     33  CD2 LEU C 309      14.191   8.014  10.352  1.00 51.11 LIG 0.01  C 
ATOM     34  CD1 LEU C 309      14.911   5.766   9.518  1.00 45.19 LIG 0.01  C 
ENDBRANCH 31 32
ENDBRANCH 27 31
ENDBRANCH 24 27
ENDBRANCH 15 23
ENDBRANCH 13 15
ENDBRANCH 1 11
BRANCH 1 35
ATOM     35  N   TYR C 307      18.235   0.604  14.710  1.00 25.78 LIG-0.35  N 
ATOM     36 H    TYR C 307      18.531  -0.150  14.423  1.00 25.78 LIG 0.16  HD
ATOM     37  C   ASP C 306      18.619   1.792  14.248  1.00 34.41 LIG 0.24  C 
ATOM     38 O    ASP C 306      18.185   2.846  14.711  1.00 33.93 LIG-0.27  OA
BRANCH 37 39
ATOM     39  CA  ASP C 306      19.650   1.822  13.115  1.00 28.99 LIG 0.19  C 
BRANCH 39 40
ATOM     40  N   ASP C 306      19.304   2.655  11.964  1.00 47.80 LIG-0.34  N 
ATOM     41  C   PRO C 305      18.119   2.549  11.366  1.00 55.24 LIG 0.25  C 
ATOM     42 O    PRO C 305      17.206   1.843  11.798  1.00 37.29 LIG-0.27  OA
ATOM     43 H    ASP C 306      19.921   3.202  11.719  1.00 47.80 LIG 0.16  HD
BRANCH 41 44
ATOM     44  CA  PRO C 305      17.895   3.367  10.097  1.00 46.84 LIG 0.35  C 
ATOM     45  N   PRO C 305      18.813   2.996   9.014  1.00 55.65 LIG 0.32  N 
ATOM     46  CD  PRO C 305      18.106   2.388   7.874  1.00 37.59 LIG 0.32  C 
ATOM     47  CG  PRO C 305      16.775   2.023   8.459  1.00 48.04 LIG 0.04  C 
ATOM     48  CB  PRO C 305      16.514   3.053   9.506  1.00 49.04 LIG 0.05  C 
ENDBRANCH 41 44
ENDBRANCH 39 40
BRANCH 39 49
ATOM     49  CB  ASP C 306      21.010   2.241  13.685  1.00 37.50 LIG 0.15  C 
BRANCH 49 50
ATOM     50  CG  ASP C 306      22.118   2.189  12.650  1.00 60.25 LIG 0.17  C 
ATOM     51 OD1  ASP C 306      22.384   3.226  12.006  1.00 61.15 LIG-0.65  OA
ATOM     52 OD2  ASP C 306      22.719   1.107  12.479  1.00 58.41 LIG-0.65  OA
ENDBRANCH 49 50
ENDBRANCH 39 49
ENDBRANCH 37 39
ENDBRANCH 1 35
TORSDOF 18
ENDMDL
MODEL 10
USER: ADFR SOLUTION from run 129
USER: SCORE 16.176381 LL:  -4.694 LR: -13.435 RR:   0.000 FEB:  -8.066
USER: RMSD 2.428740
USER: SEED 128
USER: STATUS searching
USER: GENES 20
USER: genes 0 Translation |==|  0.42053 0.49632 0.47763
USER: genes 1 Rotation |==|  0.50443 0.48507 0.45052 0.99730
USER: genes 2 Torsion [C]-CA--CB-[CG] |==|  0.42574
USER: genes 3 Torsion [CA]-CB--CG-[CD1] |==|  0.29391
USER: genes 4 Torsion [CE2]-CZ--OH-[HH] |==|  0.47734
USER: genes 5 Torsion [N]-CA--C-[N] |==|  0.95000
USER: genes 6 Torsion [C]-N--CA-[CB] |==|  0.39568
USER: genes 7 Torsion [N]-CA--CB-[CG] |==|  0.80465
USER: genes 8 Torsion [CA]-CB--CG-[CD1] |==|  0.09820
USER: genes 9 Torsion [N]-CA--C-[N] |==|  0.06775
USER: genes 10 Torsion [C]-N--CA-[C] |==|  0.84965
USER: genes 11 Torsion [N]-CA--C-[O] |==|  0.28219
USER: genes 12 Torsion [N]-CA--CB-[CG] |==|  0.08032
USER: genes 13 Torsion [CA]-CB--CG-[CD2] |==|  0.71877
USER: genes 14 Torsion [CB]-CA--N-[C] |==|  0.84444
USER: genes 15 Torsion [N]-C--CA-[N] |==|  0.88422
USER: genes 16 Torsion [C]-CA--N-[C] |==|  0.78395
USER: genes 17 Torsion [N]-C--CA-[N] |==|  0.43588
USER: genes 18 Torsion [C]-CA--CB-[CG] |==|  0.85025
USER: genes 19 Torsion [CA]-CB--CG-[OD1] |==|  0.31155
ROOT
ATOM      1  CA  TYR C 307      14.459   6.281  13.191  1.00 19.42 LIG 0.18  C 
ENDROOT
BRANCH 1 2
ATOM      2  CB  TYR C 307      13.682   5.759  11.978  1.00 20.09 LIG 0.07  C 
BRANCH 2 3
ATOM      3  CG  TYR C 307      14.376   6.007  10.664  1.00 17.22 LIG-0.06  A 
ATOM      4  CD2 TYR C 307      14.420   7.279  10.110  1.00 23.64 LIG 0.01  A 
ATOM      5  CE2 TYR C 307      15.055   7.513   8.905  1.00 23.84 LIG 0.04  A 
ATOM      6  CZ  TYR C 307      15.658   6.468   8.238  1.00 20.80 LIG 0.07  A 
ATOM      7  CE1 TYR C 307      15.633   5.195   8.767  1.00 18.70 LIG 0.04  A 
ATOM      8  CD1 TYR C 307      14.995   4.969   9.976  1.00 26.65 LIG 0.01  A 
BRANCH 6 9
ATOM      9 OH   TYR C 307      16.292   6.704   7.040  1.00 27.63 LIG-0.36  OA
ATOM     10 HH   TYR C 307      16.706   6.014   6.801  1.00 27.63 LIG 0.22  HD
ENDBRANCH 6 9
ENDBRANCH 2 3
ENDBRANCH 1 2
BRANCH 1 11
ATOM     11  C   TYR C 307      13.488   6.604  14.324  1.00 24.68 LIG 0.24  C 
ATOM     12 O    TYR C 307      12.770   7.601  14.262  1.00 26.67 LIG-0.27  OA
ATOM     13  N   PHE C 308      13.475   5.776  15.362  1.00 19.41 LIG-0.35  N 
ATOM     14 H    PHE C 308      14.029   5.129  15.476  1.00 19.41 LIG 0.16  HD
BRANCH 13 15
ATOM     15  CA  PHE C 308      12.475   5.925  16.415  1.00 14.41 LIG 0.18  C 
BRANCH 15 16
ATOM     16  CB  PHE C 308      12.027   4.549  16.904  1.00 18.98 LIG 0.07  C 
BRANCH 16 17
ATOM     17  CG  PHE C 308      11.202   3.804  15.904  1.00 22.36 LIG-0.06  A 
ATOM     18  CD1 PHE C 308      11.466   3.918  14.550  1.00 16.86 LIG 0.01  A 
ATOM     19  CE1 PHE C 308      10.722   3.221  13.627  1.00 17.00 LIG 0.00  A 
ATOM     20  CZ  PHE C 308       9.707   2.396  14.050  1.00 20.65 LIG 0.00  A 
ATOM     21  CE2 PHE C 308       9.432   2.277  15.396  1.00 20.83 LIG 0.00  A 
ATOM     22  CD2 PHE C 308      10.179   2.969  16.315  1.00 21.63 LIG 0.01  A 
ENDBRANCH 16 17
ENDBRANCH 15 16
BRANCH 15 23
ATOM     23  C   PHE C 308      12.943   6.788  17.581  1.00 40.94 LIG 0.24  C 
ATOM     24  N   LEU C 309      13.900   7.666  17.310  1.00 39.04 LIG-0.34  N 
ATOM     25 H    LEU C 309      14.266   7.752  16.536  1.00 39.04 LIG 0.16  HD
ATOM     26 O    PHE C 308      12.435   6.667  18.696  1.00 37.89 LIG-0.27  OA
BRANCH 24 27
ATOM     27  CA  LEU C 309      14.420   8.576  18.321  1.00 41.86 LIG 0.18  C 
BRANCH 27 28
ATOM     28  C   LEU C 309      13.293   9.372  18.972  1.00 52.06 LIG 0.20  C 
ATOM     29 O    LEU C 309      12.858   9.067  20.083  1.00 44.07 LIG-0.65  OA
ATOM     30 OXT  LEU C 309      12.792  10.343  18.400  1.00 57.31 LIG-0.65  OA
ENDBRANCH 27 28
BRANCH 27 31
ATOM     31  CB  LEU C 309      15.447   9.523  17.701  1.00 45.69 LIG 0.04  C 
BRANCH 31 32
ATOM     32  CG  LEU C 309      15.238   9.835  16.217  1.00 42.90 LIG-0.02  C 
ATOM     33  CD2 LEU C 309      16.191   9.016  15.361  1.00 51.11 LIG 0.01  C 
ATOM     34  CD1 LEU C 309      15.415  11.321  15.951  1.00 45.19 LIG 0.01  C 
ENDBRANCH 31 32
ENDBRANCH 27 31
ENDBRANCH 24 27
ENDBRANCH 15 23
ENDBRANCH 13 15
ENDBRANCH 1 11
BRANCH 1 35
ATOM     35  N   TYR C 307      15.525   5.354  13.573  1.00 25.78 LIG-0.35  N 
ATOM     36 H    TYR C 307      16.313   5.697  13.600  1.00 25.78 LIG 0.16  HD
ATOM     37  C   ASP C 306      15.245   4.083  13.850  1.00 34.41 LIG 0.24  C 
ATOM     38 O    ASP C 306      14.103   3.631  13.770  1.00 33.93 LIG-0.27  OA
BRANCH 37 39
ATOM     39  CA  ASP C 306      16.402   3.166  14.261  1.00 28.99 LIG 0.19  C 
BRANCH 39 40
ATOM     40  N   ASP C 306      17.640   3.327  13.499  1.00 47.80 LIG-0.34  N 
ATOM     41  C   PRO C 305      17.772   2.810  12.279  1.00 55.24 LIG 0.25  C 
ATOM     42 O    PRO C 305      16.846   2.271  11.670  1.00 37.29 LIG-0.27  OA
ATOM     43 H    ASP C 306      18.254   3.774  13.903  1.00 47.80 LIG 0.16  HD
BRANCH 41 44
ATOM     44  CA  PRO C 305      19.142   2.918  11.614  1.00 46.84 LIG 0.35  C 
ATOM     45  N   PRO C 305      19.350   1.902  10.575  1.00 55.65 LIG 0.32  N 
ATOM     46  CD  PRO C 305      19.460   2.498   9.233  1.00 37.59 LIG 0.32  C 
ATOM     47  CG  PRO C 305      18.903   3.876   9.430  1.00 48.04 LIG 0.04  C 
ATOM     48  CB  PRO C 305      19.246   4.237  10.836  1.00 49.04 LIG 0.05  C 
ENDBRANCH 41 44
ENDBRANCH 39 40
BRANCH 39 49
ATOM     49  CB  ASP C 306      16.673   3.342  15.759  1.00 37.50 LIG 0.15  C 
BRANCH 49 50
ATOM     50  CG  ASP C 306      16.905   4.791  16.144  1.00 60.25 LIG 0.17  C 
ATOM     51 OD1  ASP C 306      16.054   5.363  16.858  1.00 61.15 LIG-0.65  OA
ATOM     52 OD2  ASP C 306      17.939   5.357  15.729  1.00 58.41 LIG-0.65  OA
ENDBRANCH 49 50
ENDBRANCH 39 49
ENDBRANCH 37 39
ENDBRANCH 1 35
TORSDOF 18
ENDMDL
MODEL 11
USER: ADFR SOLUTION from run 143
USER: SCORE 15.545522 LL:  -3.381 LR: -13.277 RR:   0.000 FEB:  -7.908
USER: RMSD 8.070693
USER: SEED 142
USER: STATUS no improvement in best in 5 clusters for 5 generations
USER: GENES 20
USER: genes 0 Translation |==|  0.45644 0.36259 0.63209
USER: genes 1 Rotation |==|  0.17812 0.21709 0.32218 0.68637
USER: genes 2 Torsion [C]-CA--CB-[CG] |==|  0.84946
USER: genes 3 Torsion [CA]-CB--CG-[CD1] |==|  0.73631
USER: genes 4 Torsion [CE2]-CZ--OH-[HH] |==|  0.66021
USER: genes 5 Torsion [N]-CA--C-[N] |==|  0.53850
USER: genes 6 Torsion [C]-N--CA-[CB] |==|  0.52778
USER: genes 7 Torsion [N]-CA--CB-[CG] |==|  0.68790
USER: genes 8 Torsion [CA]-CB--CG-[CD1] |==|  0.68579
USER: genes 9 Torsion [N]-CA--C-[N] |==|  0.31510
USER: genes 10 Torsion [C]-N--CA-[C] |==|  0.18888
USER: genes 11 Torsion [N]-CA--C-[O] |==|  0.21231
USER: genes 12 Torsion [N]-CA--CB-[CG] |==|  0.74978
USER: genes 13 Torsion [CA]-CB--CG-[CD2] |==|  0.19421
USER: genes 14 Torsion [CB]-CA--N-[C] |==|  0.77256
USER: genes 15 Torsion [N]-C--CA-[N] |==|  0.89272
USER: genes 16 Torsion [C]-CA--N-[C] |==|  0.81485
USER: genes 17 Torsion [N]-C--CA-[N] |==|  0.72463
USER: genes 18 Torsion [C]-CA--CB-[CG] |==|  0.45939
USER: genes 19 Torsion [CA]-CB--CG-[OD1] |==|  0.67889
ROOT
ATOM      1  CA  TYR C 307      15.186   3.974  16.551  1.00 19.42 LIG 0.18  C 
ENDROOT
BRANCH 1 2
ATOM      2  CB  TYR C 307      14.379   2.672  16.508  1.00 20.09 LIG 0.07  C 
BRANCH 2 3
ATOM      3  CG  TYR C 307      13.019   2.825  15.877  1.00 17.22 LIG-0.06  A 
ATOM      4  CD2 TYR C 307      12.859   2.737  14.500  1.00 23.64 LIG 0.01  A 
ATOM      5  CE2 TYR C 307      11.615   2.876  13.915  1.00 23.84 LIG 0.04  A 
ATOM      6  CZ  TYR C 307      10.510   3.103  14.708  1.00 20.80 LIG 0.07  A 
ATOM      7  CE1 TYR C 307      10.640   3.191  16.077  1.00 18.70 LIG 0.04  A 
ATOM      8  CD1 TYR C 307      11.891   3.051  16.656  1.00 26.65 LIG 0.01  A 
BRANCH 6 9
ATOM      9 OH   TYR C 307       9.272   3.239  14.122  1.00 27.63 LIG-0.36  OA
ATOM     10 HH   TYR C 307       8.943   3.983  14.331  1.00 27.63 LIG 0.22  HD
ENDBRANCH 6 9
ENDBRANCH 2 3
ENDBRANCH 1 2
BRANCH 1 11
ATOM     11  C   TYR C 307      15.280   4.568  15.149  1.00 24.68 LIG 0.24  C 
ATOM     12 O    TYR C 307      15.151   5.780  14.977  1.00 26.67 LIG-0.27  OA
ATOM     13  N   PHE C 308      15.487   3.723  14.147  1.00 19.41 LIG-0.35  N 
ATOM     14 H    PHE C 308      15.486   2.866  14.224  1.00 19.41 LIG 0.16  HD
BRANCH 13 15
ATOM     15  CA  PHE C 308      15.740   4.219  12.798  1.00 14.41 LIG 0.18  C 
BRANCH 15 16
ATOM     16  CB  PHE C 308      15.698   3.063  11.801  1.00 18.98 LIG 0.07  C 
BRANCH 16 17
ATOM     17  CG  PHE C 308      17.029   2.760  11.190  1.00 22.36 LIG-0.06  A 
ATOM     18  CD1 PHE C 308      17.250   2.979   9.842  1.00 16.86 LIG 0.01  A 
ATOM     19  CE1 PHE C 308      18.477   2.718   9.278  1.00 17.00 LIG 0.00  A 
ATOM     20  CZ  PHE C 308      19.500   2.240  10.061  1.00 20.65 LIG 0.00  A 
ATOM     21  CE2 PHE C 308      19.292   2.014  11.405  1.00 20.83 LIG 0.00  A 
ATOM     22  CD2 PHE C 308      18.068   2.281  11.966  1.00 21.63 LIG 0.01  A 
ENDBRANCH 16 17
ENDBRANCH 15 16
BRANCH 15 23
ATOM     23  C   PHE C 308      14.793   5.335  12.373  1.00 40.94 LIG 0.24  C 
ATOM     24  N   LEU C 309      15.342   6.530  12.193  1.00 39.04 LIG-0.34  N 
ATOM     25 H    LEU C 309      16.177   6.697  12.320  1.00 39.04 LIG 0.16  HD
ATOM     26 O    PHE C 308      13.595   5.111  12.198  1.00 37.89 LIG-0.27  OA
BRANCH 24 27
ATOM     27  CA  LEU C 309      14.561   7.679  11.756  1.00 41.86 LIG 0.18  C 
BRANCH 27 28
ATOM     28  C   LEU C 309      13.575   8.113  12.837  1.00 52.06 LIG 0.20  C 
ATOM     29 O    LEU C 309      13.953   8.742  13.826  1.00 44.07 LIG-0.65  OA
ATOM     30 OXT  LEU C 309      12.375   7.845  12.744  1.00 57.31 LIG-0.65  OA
ENDBRANCH 27 28
BRANCH 27 31
ATOM     31  CB  LEU C 309      13.816   7.348  10.463  1.00 45.69 LIG 0.04  C 
BRANCH 31 32
ATOM     32  CG  LEU C 309      14.574   7.662   9.171  1.00 42.90 LIG-0.02  C 
ATOM     33  CD2 LEU C 309      15.743   6.706   8.994  1.00 51.11 LIG 0.01  C 
ATOM     34  CD1 LEU C 309      15.050   9.105   9.165  1.00 45.19 LIG 0.01  C 
ENDBRANCH 31 32
ENDBRANCH 27 31
ENDBRANCH 24 27
ENDBRANCH 15 23
ENDBRANCH 13 15
ENDBRANCH 1 11
BRANCH 1 35
ATOM     35  N   TYR C 307      14.645   4.897  17.549  1.00 25.78 LIG-0.35  N 
ATOM     36 H    TYR C 307      15.053   4.893  18.306  1.00 25.78 LIG 0.16  HD
ATOM     37  C   ASP C 306      13.598   5.664  17.259  1.00 34.41 LIG 0.24  C 
ATOM     38 O    ASP C 306      13.029   5.611  16.168  1.00 33.93 LIG-0.27  OA
BRANCH 37 39
ATOM     39  CA  ASP C 306      13.089   6.623  18.340  1.00 28.99 LIG 0.19  C 
BRANCH 39 40
ATOM     40  N   ASP C 306      13.108   6.105  19.708  1.00 47.80 LIG-0.34  N 
ATOM     41  C   PRO C 305      12.318   5.099  20.076  1.00 55.24 LIG 0.25  C 
ATOM     42 O    PRO C 305      11.613   4.469  19.285  1.00 37.29 LIG-0.27  OA
ATOM     43 H    ASP C 306      13.662   6.501  20.233  1.00 47.80 LIG 0.16  HD
BRANCH 41 44
ATOM     44  CA  PRO C 305      12.314   4.711  21.553  1.00 46.84 LIG 0.35  C 
ATOM     45  N   PRO C 305      13.164   3.548  21.836  1.00 55.65 LIG 0.32  N 
ATOM     46  CD  PRO C 305      14.318   3.900  22.681  1.00 37.59 LIG 0.32  C 
ATOM     47  CG  PRO C 305      14.373   5.394  22.570  1.00 48.04 LIG 0.04  C 
ATOM     48  CB  PRO C 305      12.957   5.824  22.390  1.00 49.04 LIG 0.05  C 
ENDBRANCH 41 44
ENDBRANCH 39 40
BRANCH 39 49
ATOM     49  CB  ASP C 306      13.877   7.935  18.258  1.00 37.50 LIG 0.15  C 
BRANCH 49 50
ATOM     50  CG  ASP C 306      13.221   9.060  19.037  1.00 60.25 LIG 0.17  C 
ATOM     51 OD1  ASP C 306      12.798  10.054  18.410  1.00 61.15 LIG-0.65  OA
ATOM     52 OD2  ASP C 306      13.133   8.949  20.279  1.00 58.41 LIG-0.65  OA
ENDBRANCH 49 50
ENDBRANCH 39 49
ENDBRANCH 37 39
ENDBRANCH 1 35
TORSDOF 18
ENDMDL
MODEL 12
USER: ADFR SOLUTION from run 163
USER: SCORE 16.742886 LL:  -4.021 LR: -13.167 RR:   0.000 FEB:  -7.798
USER: RMSD 6.037824
USER: SEED 162
USER: STATUS no improvement in best in 3 clusters for 5 generations
USER: GENES 20
USER: genes 0 Translation |==|  0.42241 0.24473 0.61871
USER: genes 1 Rotation |==|  0.13631 0.75091 0.72159 0.57530
USER: genes 2 Torsion [C]-CA--CB-[CG] |==|  0.16606
USER: genes 3 Torsion [CA]-CB--CG-[CD1] |==|  0.27549
USER: genes 4 Torsion [CE2]-CZ--OH-[HH] |==|  0.38988
USER: genes 5 Torsion [N]-CA--C-[N] |==|  0.89726
USER: genes 6 Torsion [C]-N--CA-[CB] |==|  0.75554
USER: genes 7 Torsion [N]-CA--CB-[CG] |==|  0.11411
USER: genes 8 Torsion [CA]-CB--CG-[CD1] |==|  0.23747
USER: genes 9 Torsion [N]-CA--C-[N] |==|  0.26811
USER: genes 10 Torsion [C]-N--CA-[C] |==|  0.72226
USER: genes 11 Torsion [N]-CA--C-[O] |==|  0.04438
USER: genes 12 Torsion [N]-CA--CB-[CG] |==|  0.99803
USER: genes 13 Torsion [CA]-CB--CG-[CD2] |==|  0.57969
USER: genes 14 Torsion [CB]-CA--N-[C] |==|  0.84872
USER: genes 15 Torsion [N]-C--CA-[N] |==|  0.38151
USER: genes 16 Torsion [C]-CA--N-[C] |==|  0.63075
USER: genes 17 Torsion [N]-C--CA-[N] |==|  0.46485
USER: genes 18 Torsion [C]-CA--CB-[CG] |==|  0.57155
USER: genes 19 Torsion [CA]-CB--CG-[OD1] |==|  0.34512
ROOT
ATOM      1  CA  TYR C 307      14.497   1.941  16.260  1.00 19.42 LIG 0.18  C 
ENDROOT
BRANCH 1 2
ATOM      2  CB  TYR C 307      15.590   1.918  17.332  1.00 20.09 LIG 0.07  C 
BRANCH 2 3
ATOM      3  CG  TYR C 307      15.057   1.980  18.741  1.00 17.22 LIG-0.06  A 
ATOM      4  CD2 TYR C 307      14.677   3.189  19.306  1.00 23.64 LIG 0.01  A 
ATOM      5  CE2 TYR C 307      14.187   3.253  20.597  1.00 23.84 LIG 0.04  A 
ATOM      6  CZ  TYR C 307      14.071   2.097  21.340  1.00 20.80 LIG 0.07  A 
ATOM      7  CE1 TYR C 307      14.439   0.882  20.802  1.00 18.70 LIG 0.04  A 
ATOM      8  CD1 TYR C 307      14.928   0.827  19.507  1.00 26.65 LIG 0.01  A 
BRANCH 6 9
ATOM      9 OH   TYR C 307      13.582   2.163  22.624  1.00 27.63 LIG-0.36  OA
ATOM     10 HH   TYR C 307      13.077   1.507  22.766  1.00 27.63 LIG 0.22  HD
ENDBRANCH 6 9
ENDBRANCH 2 3
ENDBRANCH 1 2
BRANCH 1 11
ATOM     11  C   TYR C 307      13.681   3.224  16.383  1.00 24.68 LIG 0.24  C 
ATOM     12 O    TYR C 307      12.657   3.248  17.065  1.00 26.67 LIG-0.27  OA
ATOM     13  N   PHE C 308      14.120   4.284  15.715  1.00 19.41 LIG-0.35  N 
ATOM     14 H    PHE C 308      14.774   4.272  15.158  1.00 19.41 LIG 0.16  HD
BRANCH 13 15
ATOM     15  CA  PHE C 308      13.489   5.588  15.896  1.00 14.41 LIG 0.18  C 
BRANCH 15 16
ATOM     16  CB  PHE C 308      12.318   5.738  14.927  1.00 18.98 LIG 0.07  C 
BRANCH 16 17
ATOM     17  CG  PHE C 308      11.497   4.496  14.792  1.00 22.36 LIG-0.06  A 
ATOM     18  CD1 PHE C 308      10.473   4.228  15.683  1.00 16.86 LIG 0.01  A 
ATOM     19  CE1 PHE C 308       9.704   3.095  15.552  1.00 17.00 LIG 0.00  A 
ATOM     20  CZ  PHE C 308       9.949   2.219  14.523  1.00 20.65 LIG 0.00  A 
ATOM     21  CE2 PHE C 308      10.969   2.472  13.629  1.00 20.83 LIG 0.00  A 
ATOM     22  CD2 PHE C 308      11.731   3.606  13.759  1.00 21.63 LIG 0.01  A 
ENDBRANCH 16 17
ENDBRANCH 15 16
BRANCH 15 23
ATOM     23  C   PHE C 308      13.041   5.854  17.329  1.00 40.94 LIG 0.24  C 
ATOM     24  N   LEU C 309      13.880   6.556  18.081  1.00 39.04 LIG-0.34  N 
ATOM     25 H    LEU C 309      14.645   6.840  17.808  1.00 39.04 LIG 0.16  HD
ATOM     26 O    PHE C 308      11.955   5.443  17.736  1.00 37.89 LIG-0.27  OA
BRANCH 24 27
ATOM     27  CA  LEU C 309      13.567   6.909  19.459  1.00 41.86 LIG 0.18  C 
BRANCH 27 28
ATOM     28  C   LEU C 309      13.068   8.348  19.555  1.00 52.06 LIG 0.20  C 
ATOM     29 O    LEU C 309      12.693   8.959  18.553  1.00 44.07 LIG-0.65  OA
ATOM     30 OXT  LEU C 309      13.027   8.932  20.639  1.00 57.31 LIG-0.65  OA
ENDBRANCH 27 28
BRANCH 27 31
ATOM     31  CB  LEU C 309      14.799   6.717  20.345  1.00 45.69 LIG 0.04  C 
BRANCH 31 32
ATOM     32  CG  LEU C 309      16.047   6.197  19.629  1.00 42.90 LIG-0.02  C 
ATOM     33  CD2 LEU C 309      16.918   5.401  20.587  1.00 51.11 LIG 0.01  C 
ATOM     34  CD1 LEU C 309      16.830   7.345  19.013  1.00 45.19 LIG 0.01  C 
ENDBRANCH 31 32
ENDBRANCH 27 31
ENDBRANCH 24 27
ENDBRANCH 15 23
ENDBRANCH 13 15
ENDBRANCH 1 11
BRANCH 1 35
ATOM     35  N   TYR C 307      15.060   1.724  14.927  1.00 25.78 LIG-0.35  N 
ATOM     36 H    TYR C 307      14.707   1.078  14.484  1.00 25.78 LIG 0.16  HD
ATOM     37  C   ASP C 306      16.046   2.497  14.480  1.00 34.41 LIG 0.24  C 
ATOM     38 O    ASP C 306      16.539   3.393  15.165  1.00 33.93 LIG-0.27  OA
BRANCH 37 39
ATOM     39  CA  ASP C 306      16.583   2.232  13.069  1.00 28.99 LIG 0.19  C 
BRANCH 39 40
ATOM     40  N   ASP C 306      16.838   3.419  12.254  1.00 47.80 LIG-0.34  N 
ATOM     41  C   PRO C 305      16.414   3.495  10.994  1.00 55.24 LIG 0.25  C 
ATOM     42 O    PRO C 305      15.693   2.643  10.471  1.00 37.29 LIG-0.27  OA
ATOM     43 H    ASP C 306      17.275   4.042  12.654  1.00 47.80 LIG 0.16  HD
BRANCH 41 44
ATOM     44  CA  PRO C 305      16.837   4.716  10.181  1.00 46.84 LIG 0.35  C 
ATOM     45  N   PRO C 305      16.573   4.562   8.746  1.00 55.65 LIG 0.32  N 
ATOM     46  CD  PRO C 305      15.548   5.507   8.268  1.00 37.59 LIG 0.32  C 
ATOM     47  CG  PRO C 305      14.897   5.967   9.538  1.00 48.04 LIG 0.04  C 
ATOM     48  CB  PRO C 305      15.977   5.927  10.566  1.00 49.04 LIG 0.05  C 
ENDBRANCH 41 44
ENDBRANCH 39 40
BRANCH 39 49
ATOM     49  CB  ASP C 306      17.848   1.372  13.167  1.00 37.50 LIG 0.15  C 
BRANCH 49 50
ATOM     50  CG  ASP C 306      18.776   1.563  11.981  1.00 60.25 LIG 0.17  C 
ATOM     51 OD1  ASP C 306      19.959   1.902  12.197  1.00 61.15 LIG-0.65  OA
ATOM     52 OD2  ASP C 306      18.318   1.376  10.834  1.00 58.41 LIG-0.65  OA
ENDBRANCH 49 50
ENDBRANCH 39 49
ENDBRANCH 37 39
ENDBRANCH 1 35
TORSDOF 18
ENDMDL
MODEL 13
USER: ADFR SOLUTION from run 63
USER: SCORE 17.205957 LL:  -5.139 LR: -13.155 RR:   0.000 FEB:  -7.786
USER: RMSD 6.762582
USER: SEED 62
USER: STATUS no improvement in best in 3 clusters for 5 generations
USER: GENES 20
USER: genes 0 Translation |==|  0.47054 0.26955 0.54757
USER: genes 1 Rotation |==|  0.20384 0.42986 0.32583 0.85642
USER: genes 2 Torsion [C]-CA--CB-[CG] |==|  0.90455
USER: genes 3 Torsion [CA]-CB--CG-[CD1] |==|  0.78986
USER: genes 4 Torsion [CE2]-CZ--OH-[HH] |==|  0.11303
USER: genes 5 Torsion [N]-CA--C-[N] |==|  0.87603
USER: genes 6 Torsion [C]-N--CA-[CB] |==|  0.14978
USER: genes 7 Torsion [N]-CA--CB-[CG] |==|  0.64643
USER: genes 8 Torsion [CA]-CB--CG-[CD1] |==|  0.86088
USER: genes 9 Torsion [N]-CA--C-[N] |==|  0.14844
USER: genes 10 Torsion [C]-N--CA-[C] |==|  0.75289
USER: genes 11 Torsion [N]-CA--C-[O] |==|  0.87085
USER: genes 12 Torsion [N]-CA--CB-[CG] |==|  0.78258
USER: genes 13 Torsion [CA]-CB--CG-[CD2] |==|  0.00643
USER: genes 14 Torsion [CB]-CA--N-[C] |==|  0.18889
USER: genes 15 Torsion [N]-C--CA-[N] |==|  0.23054
USER: genes 16 Torsion [C]-CA--N-[C] |==|  0.77043
USER: genes 17 Torsion [N]-C--CA-[N] |==|  0.12810
USER: genes 18 Torsion [C]-CA--CB-[CG] |==|  0.50858
USER: genes 19 Torsion [CA]-CB--CG-[OD1] |==|  0.16826
ROOT
ATOM      1  CA  TYR C 307      15.471   2.369  14.713  1.00 19.42 LIG 0.18  C 
ENDROOT
BRANCH 1 2
ATOM      2  CB  TYR C 307      14.245   1.480  14.484  1.00 20.09 LIG 0.07  C 
BRANCH 2 3
ATOM      3  CG  TYR C 307      12.935   2.176  14.754  1.00 17.22 LIG-0.06  A 
ATOM      4  CD2 TYR C 307      12.124   2.596  13.708  1.00 23.64 LIG 0.01  A 
ATOM      5  CE2 TYR C 307      10.922   3.235  13.948  1.00 23.84 LIG 0.04  A 
ATOM      6  CZ  TYR C 307      10.516   3.459  15.247  1.00 20.80 LIG 0.07  A 
ATOM      7  CE1 TYR C 307      11.301   3.049  16.303  1.00 18.70 LIG 0.04  A 
ATOM      8  CD1 TYR C 307      12.504   2.409  16.054  1.00 26.65 LIG 0.01  A 
BRANCH 6 9
ATOM      9 OH   TYR C 307       9.318   4.093  15.483  1.00 27.63 LIG-0.36  OA
ATOM     10 HH   TYR C 307       8.740   3.811  14.943  1.00 27.63 LIG 0.22  HD
ENDBRANCH 6 9
ENDBRANCH 2 3
ENDBRANCH 1 2
BRANCH 1 11
ATOM     11  C   TYR C 307      15.144   3.808  14.325  1.00 24.68 LIG 0.24  C 
ATOM     12 O    TYR C 307      15.504   4.256  13.237  1.00 26.67 LIG-0.27  OA
ATOM     13  N   PHE C 308      14.479   4.536  15.213  1.00 19.41 LIG-0.35  N 
ATOM     14 H    PHE C 308      14.299   4.282  16.015  1.00 19.41 LIG 0.16  HD
BRANCH 13 15
ATOM     15  CA  PHE C 308      13.995   5.868  14.865  1.00 14.41 LIG 0.18  C 
BRANCH 15 16
ATOM     16  CB  PHE C 308      13.150   5.800  13.594  1.00 18.98 LIG 0.07  C 
BRANCH 16 17
ATOM     17  CG  PHE C 308      13.590   6.762  12.538  1.00 22.36 LIG-0.06  A 
ATOM     18  CD1 PHE C 308      13.791   8.097  12.841  1.00 16.86 LIG 0.01  A 
ATOM     19  CE1 PHE C 308      14.213   8.983  11.877  1.00 17.00 LIG 0.00  A 
ATOM     20  CZ  PHE C 308      14.445   8.539  10.598  1.00 20.65 LIG 0.00  A 
ATOM     21  CE2 PHE C 308      14.246   7.211  10.281  1.00 20.83 LIG 0.00  A 
ATOM     22  CD2 PHE C 308      13.830   6.329  11.246  1.00 21.63 LIG 0.01  A 
ENDBRANCH 16 17
ENDBRANCH 15 16
BRANCH 15 23
ATOM     23  C   PHE C 308      13.225   6.549  15.990  1.00 40.94 LIG 0.24  C 
ATOM     24  N   LEU C 309      13.846   6.622  17.161  1.00 39.04 LIG-0.34  N 
ATOM     25 H    LEU C 309      14.628   6.297  17.309  1.00 39.04 LIG 0.16  HD
ATOM     26 O    PHE C 308      12.100   7.008  15.795  1.00 37.89 LIG-0.27  OA
BRANCH 24 27
ATOM     27  CA  LEU C 309      13.240   7.273  18.315  1.00 41.86 LIG 0.18  C 
BRANCH 27 28
ATOM     28  C   LEU C 309      13.579   8.760  18.345  1.00 52.06 LIG 0.20  C 
ATOM     29 O    LEU C 309      14.732   9.154  18.161  1.00 44.07 LIG-0.65  OA
ATOM     30 OXT  LEU C 309      12.705   9.605  18.553  1.00 57.31 LIG-0.65  OA
ENDBRANCH 27 28
BRANCH 27 31
ATOM     31  CB  LEU C 309      13.706   6.599  19.606  1.00 45.69 LIG 0.04  C 
BRANCH 31 32
ATOM     32  CG  LEU C 309      13.013   5.276  19.941  1.00 42.90 LIG-0.02  C 
ATOM     33  CD2 LEU C 309      12.027   4.898  18.846  1.00 51.11 LIG 0.01  C 
ATOM     34  CD1 LEU C 309      12.317   5.361  21.289  1.00 45.19 LIG 0.01  C 
ENDBRANCH 31 32
ENDBRANCH 27 31
ENDBRANCH 24 27
ENDBRANCH 15 23
ENDBRANCH 13 15
ENDBRANCH 1 11
BRANCH 1 35
ATOM     35  N   TYR C 307      15.980   2.226  16.077  1.00 25.78 LIG-0.35  N 
ATOM     36 H    TYR C 307      15.887   2.922  16.574  1.00 25.78 LIG 0.16  HD
ATOM     37  C   ASP C 306      16.536   1.084  16.472  1.00 34.41 LIG 0.24  C 
ATOM     38 O    ASP C 306      16.671   0.124  15.714  1.00 33.93 LIG-0.27  OA
BRANCH 37 39
ATOM     39  CA  ASP C 306      17.033   0.991  17.919  1.00 28.99 LIG 0.19  C 
BRANCH 39 40
ATOM     40  N   ASP C 306      16.018   0.662  18.919  1.00 47.80 LIG-0.34  N 
ATOM     41  C   PRO C 305      15.224   1.600  19.431  1.00 55.24 LIG 0.25  C 
ATOM     42 O    PRO C 305      15.206   2.764  19.026  1.00 37.29 LIG-0.27  OA
ATOM     43 H    ASP C 306      15.986  -0.169  19.137  1.00 47.80 LIG 0.16  HD
BRANCH 41 44
ATOM     44  CA  PRO C 305      14.283   1.187  20.560  1.00 46.84 LIG 0.35  C 
ATOM     45  N   PRO C 305      14.951   0.381  21.589  1.00 55.65 LIG 0.32  N 
ATOM     46  CD  PRO C 305      15.018   1.082  22.883  1.00 37.59 LIG 0.32  C 
ATOM     47  CG  PRO C 305      14.735   2.506  22.509  1.00 48.04 LIG 0.04  C 
ATOM     48  CB  PRO C 305      13.818   2.426  21.336  1.00 49.04 LIG 0.05  C 
ENDBRANCH 41 44
ENDBRANCH 39 40
BRANCH 39 49
ATOM     49  CB  ASP C 306      18.191  -0.012  17.988  1.00 37.50 LIG 0.15  C 
BRANCH 49 50
ATOM     50  CG  ASP C 306      18.697  -0.223  19.402  1.00 60.25 LIG 0.17  C 
ATOM     51 OD1  ASP C 306      17.906  -0.668  20.260  1.00 61.15 LIG-0.65  OA
ATOM     52 OD2  ASP C 306      19.887   0.063  19.655  1.00 58.41 LIG-0.65  OA
ENDBRANCH 49 50
ENDBRANCH 39 49
ENDBRANCH 37 39
ENDBRANCH 1 35
TORSDOF 18
ENDMDL
MODEL 14
USER: ADFR SOLUTION from run 93
USER: SCORE 16.312806 LL:  -3.954 LR: -13.085 RR:   0.000 FEB:  -7.716
USER: RMSD 5.573342
USER: SEED 92
USER: STATUS no improvement in best in 10 clusters for 5 generations
USER: GENES 20
USER: genes 0 Translation |==|  0.39865 0.28770 0.53359
USER: genes 1 Rotation |==|  0.12583 0.73852 0.62772 0.69181
USER: genes 2 Torsion [C]-CA--CB-[CG] |==|  0.62133
USER: genes 3 Torsion [CA]-CB--CG-[CD1] |==|  0.35680
USER: genes 4 Torsion [CE2]-CZ--OH-[HH] |==|  0.74532
USER: genes 5 Torsion [N]-CA--C-[N] |==|  0.92858
USER: genes 6 Torsion [C]-N--CA-[CB] |==|  0.77201
USER: genes 7 Torsion [N]-CA--CB-[CG] |==|  0.83741
USER: genes 8 Torsion [CA]-CB--CG-[CD1] |==|  0.17573
USER: genes 9 Torsion [N]-CA--C-[N] |==|  0.19746
USER: genes 10 Torsion [C]-N--CA-[C] |==|  0.72129
USER: genes 11 Torsion [N]-CA--C-[O] |==|  0.85513
USER: genes 12 Torsion [N]-CA--CB-[CG] |==|  0.76046
USER: genes 13 Torsion [CA]-CB--CG-[CD2] |==|  0.34524
USER: genes 14 Torsion [CB]-CA--N-[C] |==|  0.82284
USER: genes 15 Torsion [N]-C--CA-[N] |==|  0.19161
USER: genes 16 Torsion [C]-CA--N-[C] |==|  0.62125
USER: genes 17 Torsion [N]-C--CA-[N] |==|  0.38464
USER: genes 18 Torsion [C]-CA--CB-[CG] |==|  0.37423
USER: genes 19 Torsion [CA]-CB--CG-[OD1] |==|  0.30742
ROOT
ATOM      1  CA  TYR C 307      14.016   2.682  14.408  1.00 19.42 LIG 0.18  C 
ENDROOT
BRANCH 1 2
ATOM      2  CB  TYR C 307      14.363   2.286  15.847  1.00 20.09 LIG 0.07  C 
BRANCH 2 3
ATOM      3  CG  TYR C 307      15.685   1.573  15.975  1.00 17.22 LIG-0.06  A 
ATOM      4  CD2 TYR C 307      15.983   0.476  15.178  1.00 23.64 LIG 0.01  A 
ATOM      5  CE2 TYR C 307      17.193  -0.181  15.290  1.00 23.84 LIG 0.04  A 
ATOM      6  CZ  TYR C 307      18.124   0.256  16.208  1.00 20.80 LIG 0.07  A 
ATOM      7  CE1 TYR C 307      17.855   1.345  17.010  1.00 18.70 LIG 0.04  A 
ATOM      8  CD1 TYR C 307      16.640   1.999  16.891  1.00 26.65 LIG 0.01  A 
BRANCH 6 9
ATOM      9 OH   TYR C 307      19.329  -0.399  16.317  1.00 27.63 LIG-0.36  OA
ATOM     10 HH   TYR C 307      19.270  -1.000  16.901  1.00 27.63 LIG 0.22  HD
ENDBRANCH 6 9
ENDBRANCH 2 3
ENDBRANCH 1 2
BRANCH 1 11
ATOM     11  C   TYR C 307      13.464   4.105  14.385  1.00 24.68 LIG 0.24  C 
ATOM     12 O    TYR C 307      12.286   4.320  14.668  1.00 26.67 LIG-0.27  OA
ATOM     13  N   PHE C 308      14.303   5.072  14.036  1.00 19.41 LIG-0.35  N 
ATOM     14 H    PHE C 308      15.102   4.942  13.743  1.00 19.41 LIG 0.16  HD
BRANCH 13 15
ATOM     15  CA  PHE C 308      13.903   6.471  14.134  1.00 14.41 LIG 0.18  C 
BRANCH 15 16
ATOM     16  CB  PHE C 308      13.086   6.866  12.905  1.00 18.98 LIG 0.07  C 
BRANCH 16 17
ATOM     17  CG  PHE C 308      13.822   6.674  11.617  1.00 22.36 LIG-0.06  A 
ATOM     18  CD1 PHE C 308      14.218   5.411  11.214  1.00 16.86 LIG 0.01  A 
ATOM     19  CE1 PHE C 308      14.880   5.227  10.023  1.00 17.00 LIG 0.00  A 
ATOM     20  CZ  PHE C 308      15.149   6.307   9.217  1.00 20.65 LIG 0.00  A 
ATOM     21  CE2 PHE C 308      14.763   7.572   9.609  1.00 20.83 LIG 0.00  A 
ATOM     22  CD2 PHE C 308      14.097   7.752  10.795  1.00 21.63 LIG 0.01  A 
ENDBRANCH 16 17
ENDBRANCH 15 16
BRANCH 15 23
ATOM     23  C   PHE C 308      13.145   6.801  15.415  1.00 40.94 LIG 0.24  C 
ATOM     24  N   LEU C 309      13.862   6.802  16.532  1.00 39.04 LIG-0.34  N 
ATOM     25 H    LEU C 309      14.701   6.613  16.563  1.00 39.04 LIG 0.16  HD
ATOM     26 O    PHE C 308      11.943   7.060  15.386  1.00 37.89 LIG-0.27  OA
BRANCH 24 27
ATOM     27  CA  LEU C 309      13.274   7.129  17.824  1.00 41.86 LIG 0.18  C 
BRANCH 27 28
ATOM     28  C   LEU C 309      13.590   8.567  18.221  1.00 52.06 LIG 0.20  C 
ATOM     29 O    LEU C 309      14.748   8.988  18.218  1.00 44.07 LIG-0.65  OA
ATOM     30 OXT  LEU C 309      12.693   9.344  18.553  1.00 57.31 LIG-0.65  OA
ENDBRANCH 27 28
BRANCH 27 31
ATOM     31  CB  LEU C 309      13.781   6.161  18.894  1.00 45.69 LIG 0.04  C 
BRANCH 31 32
ATOM     32  CG  LEU C 309      12.992   4.857  19.024  1.00 42.90 LIG-0.02  C 
ATOM     33  CD2 LEU C 309      13.915   3.658  18.866  1.00 51.11 LIG 0.01  C 
ATOM     34  CD1 LEU C 309      11.864   4.807  18.007  1.00 45.19 LIG 0.01  C 
ENDBRANCH 31 32
ENDBRANCH 27 31
ENDBRANCH 24 27
ENDBRANCH 15 23
ENDBRANCH 13 15
ENDBRANCH 1 11
BRANCH 1 35
ATOM     35  N   TYR C 307      15.155   2.476  13.514  1.00 25.78 LIG-0.35  N 
ATOM     36 H    TYR C 307      15.033   1.886  12.900  1.00 25.78 LIG 0.16  HD
ATOM     37  C   ASP C 306      16.276   3.173  13.681  1.00 34.41 LIG 0.24  C 
ATOM     38 O    ASP C 306      16.412   3.986  14.595  1.00 33.93 LIG-0.27  OA
BRANCH 37 39
ATOM     39  CA  ASP C 306      17.428   2.924  12.702  1.00 28.99 LIG 0.19  C 
BRANCH 39 40
ATOM     40  N   ASP C 306      17.205   3.381  11.330  1.00 47.80 LIG-0.34  N 
ATOM     41  C   PRO C 305      17.541   2.623  10.288  1.00 55.24 LIG 0.25  C 
ATOM     42 O    PRO C 305      17.947   1.465  10.397  1.00 37.29 LIG-0.27  OA
ATOM     43 H    ASP C 306      16.847   4.160  11.265  1.00 47.80 LIG 0.16  HD
BRANCH 41 44
ATOM     44  CA  PRO C 305      17.389   3.234   8.896  1.00 46.84 LIG 0.35  C 
ATOM     45  N   PRO C 305      18.514   2.912   8.010  1.00 55.65 LIG 0.32  N 
ATOM     46  CD  PRO C 305      18.102   2.057   6.883  1.00 37.59 LIG 0.32  C 
ATOM     47  CG  PRO C 305      16.773   1.528   7.331  1.00 48.04 LIG 0.04  C 
ATOM     48  CB  PRO C 305      16.188   2.608   8.176  1.00 49.04 LIG 0.05  C 
ENDBRANCH 41 44
ENDBRANCH 39 40
BRANCH 39 49
ATOM     49  CB  ASP C 306      18.710   3.546  13.266  1.00 37.50 LIG 0.15  C 
BRANCH 49 50
ATOM     50  CG  ASP C 306      19.907   2.621  13.153  1.00 60.25 LIG 0.17  C 
ATOM     51 OD1  ASP C 306      20.819   2.918  12.352  1.00 61.15 LIG-0.65  OA
ATOM     52 OD2  ASP C 306      19.932   1.594  13.865  1.00 58.41 LIG-0.65  OA
ENDBRANCH 49 50
ENDBRANCH 39 49
ENDBRANCH 37 39
ENDBRANCH 1 35
TORSDOF 18
ENDMDL
MODEL 15
USER: ADFR SOLUTION from run 175
USER: SCORE 16.284999 LL:  -4.602 LR: -13.051 RR:   0.000 FEB:  -7.681
USER: RMSD 5.850796
USER: SEED 174
USER: STATUS searching
USER: GENES 20
USER: genes 0 Translation |==|  0.45386 0.28441 0.48386
USER: genes 1 Rotation |==|  0.19227 0.77221 0.75443 0.62835
USER: genes 2 Torsion [C]-CA--CB-[CG] |==|  0.19502
USER: genes 3 Torsion [CA]-CB--CG-[CD1] |==|  0.10632
USER: genes 4 Torsion [CE2]-CZ--OH-[HH] |==|  0.54588
USER: genes 5 Torsion [N]-CA--C-[N] |==|  0.49960
USER: genes 6 Torsion [C]-N--CA-[CB] |==|  0.17796
USER: genes 7 Torsion [N]-CA--CB-[CG] |==|  0.13656
USER: genes 8 Torsion [CA]-CB--CG-[CD1] |==|  0.70673
USER: genes 9 Torsion [N]-CA--C-[N] |==|  0.45841
USER: genes 10 Torsion [C]-N--CA-[C] |==|  0.49224
USER: genes 11 Torsion [N]-CA--C-[O] |==|  0.54163
USER: genes 12 Torsion [N]-CA--CB-[CG] |==|  0.65904
USER: genes 13 Torsion [CA]-CB--CG-[CD2] |==|  0.34161
USER: genes 14 Torsion [CB]-CA--N-[C] |==|  0.80556
USER: genes 15 Torsion [N]-C--CA-[N] |==|  0.35767
USER: genes 16 Torsion [C]-CA--N-[C] |==|  0.85170
USER: genes 17 Torsion [N]-C--CA-[N] |==|  0.49783
USER: genes 18 Torsion [C]-CA--CB-[CG] |==|  0.02905
USER: genes 19 Torsion [CA]-CB--CG-[OD1] |==|  0.68297
ROOT
ATOM      1  CA  TYR C 307      15.134   2.625  13.327  1.00 19.42 LIG 0.18  C 
ENDROOT
BRANCH 1 2
ATOM      2  CB  TYR C 307      16.260   2.106  14.226  1.00 20.09 LIG 0.07  C 
BRANCH 2 3
ATOM      3  CG  TYR C 307      15.804   1.736  15.614  1.00 17.22 LIG-0.06  A 
ATOM      4  CD2 TYR C 307      16.596   2.010  16.721  1.00 23.64 LIG 0.01  A 
ATOM      5  CE2 TYR C 307      16.184   1.673  17.996  1.00 23.84 LIG 0.04  A 
ATOM      6  CZ  TYR C 307      14.965   1.055  18.177  1.00 20.80 LIG 0.07  A 
ATOM      7  CE1 TYR C 307      14.157   0.774  17.096  1.00 18.70 LIG 0.04  A 
ATOM      8  CD1 TYR C 307      14.577   1.116  15.821  1.00 26.65 LIG 0.01  A 
BRANCH 6 9
ATOM      9 OH   TYR C 307      14.556   0.722  19.449  1.00 27.63 LIG-0.36  OA
ATOM     10 HH   TYR C 307      13.928   0.167  19.405  1.00 27.63 LIG 0.22  HD
ENDBRANCH 6 9
ENDBRANCH 2 3
ENDBRANCH 1 2
BRANCH 1 11
ATOM     11  C   TYR C 307      14.685   4.002  13.807  1.00 24.68 LIG 0.24  C 
ATOM     12 O    TYR C 307      14.690   4.962  13.036  1.00 26.67 LIG-0.27  OA
ATOM     13  N   PHE C 308      14.312   4.108  15.076  1.00 19.41 LIG-0.35  N 
ATOM     14 H    PHE C 308      14.389   3.481  15.660  1.00 19.41 LIG 0.16  HD
BRANCH 13 15
ATOM     15  CA  PHE C 308      13.727   5.347  15.576  1.00 14.41 LIG 0.18  C 
BRANCH 15 16
ATOM     16  CB  PHE C 308      12.397   5.616  14.875  1.00 18.98 LIG 0.07  C 
BRANCH 16 17
ATOM     17  CG  PHE C 308      11.484   4.432  14.865  1.00 22.36 LIG-0.06  A 
ATOM     18  CD1 PHE C 308      11.290   3.701  13.707  1.00 16.86 LIG 0.01  A 
ATOM     19  CE1 PHE C 308      10.464   2.601  13.697  1.00 17.00 LIG 0.00  A 
ATOM     20  CZ  PHE C 308       9.826   2.217  14.852  1.00 20.65 LIG 0.00  A 
ATOM     21  CE2 PHE C 308      10.008   2.939  16.013  1.00 20.83 LIG 0.00  A 
ATOM     22  CD2 PHE C 308      10.837   4.032  16.021  1.00 21.63 LIG 0.01  A 
ENDBRANCH 16 17
ENDBRANCH 15 16
BRANCH 15 23
ATOM     23  C   PHE C 308      13.554   5.372  17.090  1.00 40.94 LIG 0.24  C 
ATOM     24  N   LEU C 309      13.323   6.561  17.632  1.00 39.04 LIG-0.34  N 
ATOM     25 H    LEU C 309      13.287   7.294  17.182  1.00 39.04 LIG 0.16  HD
ATOM     26 O    PHE C 308      13.616   4.333  17.748  1.00 37.89 LIG-0.27  OA
BRANCH 24 27
ATOM     27  CA  LEU C 309      13.107   6.727  19.063  1.00 41.86 LIG 0.18  C 
BRANCH 27 28
ATOM     28  C   LEU C 309      12.934   8.199  19.424  1.00 52.06 LIG 0.20  C 
ATOM     29 O    LEU C 309      13.014   8.581  20.592  1.00 44.07 LIG-0.65  OA
ATOM     30 OXT  LEU C 309      12.711   9.042  18.552  1.00 57.31 LIG-0.65  OA
ENDBRANCH 27 28
BRANCH 27 31
ATOM     31  CB  LEU C 309      14.275   6.125  19.845  1.00 45.69 LIG 0.04  C 
BRANCH 31 32
ATOM     32  CG  LEU C 309      13.898   5.043  20.858  1.00 42.90 LIG-0.02  C 
ATOM     33  CD2 LEU C 309      14.646   3.752  20.563  1.00 51.11 LIG 0.01  C 
ATOM     34  CD1 LEU C 309      12.396   4.808  20.858  1.00 45.19 LIG 0.01  C 
ENDBRANCH 31 32
ENDBRANCH 27 31
ENDBRANCH 24 27
ENDBRANCH 15 23
ENDBRANCH 13 15
ENDBRANCH 1 11
BRANCH 1 35
ATOM     35  N   TYR C 307      15.525   2.589  11.918  1.00 25.78 LIG-0.35  N 
ATOM     36 H    TYR C 307      15.117   2.000  11.442  1.00 25.78 LIG 0.16  HD
ATOM     37  C   ASP C 306      16.449   3.427  11.454  1.00 34.41 LIG 0.24  C 
ATOM     38 O    ASP C 306      17.025   4.234  12.182  1.00 33.93 LIG-0.27  OA
BRANCH 37 39
ATOM     39  CA  ASP C 306      16.803   3.352   9.965  1.00 28.99 LIG 0.19  C 
BRANCH 39 40
ATOM     40  N   ASP C 306      16.765   4.622   9.239  1.00 47.80 LIG-0.34  N 
ATOM     41  C   PRO C 305      15.685   5.399   9.265  1.00 55.24 LIG 0.25  C 
ATOM     42 O    PRO C 305      14.705   5.171   9.976  1.00 37.29 LIG-0.27  OA
ATOM     43 H    ASP C 306      17.485   4.810   8.809  1.00 47.80 LIG 0.16  HD
BRANCH 41 44
ATOM     44  CA  PRO C 305      15.690   6.641   8.376  1.00 46.84 LIG 0.35  C 
ATOM     45  N   PRO C 305      14.445   7.412   8.470  1.00 55.65 LIG 0.32  N 
ATOM     46  CD  PRO C 305      14.660   8.737   9.076  1.00 37.59 LIG 0.32  C 
ATOM     47  CG  PRO C 305      16.004   8.596   9.725  1.00 48.04 LIG 0.04  C 
ATOM     48  CB  PRO C 305      16.752   7.633   8.866  1.00 49.04 LIG 0.05  C 
ENDBRANCH 41 44
ENDBRANCH 39 40
BRANCH 39 49
ATOM     49  CB  ASP C 306      18.177   2.692   9.808  1.00 37.50 LIG 0.15  C 
BRANCH 49 50
ATOM     50  CG  ASP C 306      18.680   2.078  11.101  1.00 60.25 LIG 0.17  C 
ATOM     51 OD1  ASP C 306      19.695   2.567  11.640  1.00 61.15 LIG-0.65  OA
ATOM     52 OD2  ASP C 306      18.061   1.101  11.575  1.00 58.41 LIG-0.65  OA
ENDBRANCH 49 50
ENDBRANCH 39 49
ENDBRANCH 37 39
ENDBRANCH 1 35
TORSDOF 18
ENDMDL
MODEL 16
USER: ADFR SOLUTION from run 183
USER: SCORE 16.756765 LL:  -4.923 LR: -12.985 RR:   0.000 FEB:  -7.615
USER: RMSD 3.849759
USER: SEED 182
USER: STATUS no improvement in best in 12 clusters for 5 generations
USER: GENES 20
USER: genes 0 Translation |==|  0.49057 0.51780 0.42416
USER: genes 1 Rotation |==|  0.62228 0.37306 0.52285 0.96734
USER: genes 2 Torsion [C]-CA--CB-[CG] |==|  0.76979
USER: genes 3 Torsion [CA]-CB--CG-[CD1] |==|  0.23370
USER: genes 4 Torsion [CE2]-CZ--OH-[HH] |==|  0.49537
USER: genes 5 Torsion [N]-CA--C-[N] |==|  0.15000
USER: genes 6 Torsion [C]-N--CA-[CB] |==|  0.23133
USER: genes 7 Torsion [N]-CA--CB-[CG] |==|  0.52967
USER: genes 8 Torsion [CA]-CB--CG-[CD1] |==|  0.78542
USER: genes 9 Torsion [N]-CA--C-[N] |==|  0.86418
USER: genes 10 Torsion [C]-N--CA-[C] |==|  0.77674
USER: genes 11 Torsion [N]-CA--C-[O] |==|  0.37977
USER: genes 12 Torsion [N]-CA--CB-[CG] |==|  0.75414
USER: genes 13 Torsion [CA]-CB--CG-[CD2] |==|  0.53082
USER: genes 14 Torsion [CB]-CA--N-[C] |==|  0.74756
USER: genes 15 Torsion [N]-C--CA-[N] |==|  0.42867
USER: genes 16 Torsion [C]-CA--N-[C] |==|  0.80452
USER: genes 17 Torsion [N]-C--CA-[N] |==|  0.56150
USER: genes 18 Torsion [C]-CA--CB-[CG] |==|  0.70035
USER: genes 19 Torsion [CA]-CB--CG-[OD1] |==|  0.23418
ROOT
ATOM      1  CA  TYR C 307      15.877   6.651  12.029  1.00 19.42 LIG 0.18  C 
ENDROOT
BRANCH 1 2
ATOM      2  CB  TYR C 307      15.915   6.629  10.498  1.00 20.09 LIG 0.07  C 
BRANCH 2 3
ATOM      3  CG  TYR C 307      16.153   5.258   9.918  1.00 17.22 LIG-0.06  A 
ATOM      4  CD2 TYR C 307      17.431   4.846   9.564  1.00 23.64 LIG 0.01  A 
ATOM      5  CE2 TYR C 307      17.656   3.591   9.033  1.00 23.84 LIG 0.04  A 
ATOM      6  CZ  TYR C 307      16.597   2.728   8.851  1.00 20.80 LIG 0.07  A 
ATOM      7  CE1 TYR C 307      15.318   3.109   9.197  1.00 18.70 LIG 0.04  A 
ATOM      8  CD1 TYR C 307      15.101   4.369   9.730  1.00 26.65 LIG 0.01  A 
BRANCH 6 9
ATOM      9 OH   TYR C 307      16.824   1.477   8.323  1.00 27.63 LIG-0.36  OA
ATOM     10 HH   TYR C 307      16.101   1.052   8.289  1.00 27.63 LIG 0.22  HD
ENDBRANCH 6 9
ENDBRANCH 2 3
ENDBRANCH 1 2
BRANCH 1 11
ATOM     11  C   TYR C 307      14.487   6.252  12.515  1.00 24.68 LIG 0.24  C 
ATOM     12 O    TYR C 307      13.594   6.001  11.707  1.00 26.67 LIG-0.27  OA
ATOM     13  N   PHE C 308      14.296   6.208  13.828  1.00 19.41 LIG-0.35  N 
ATOM     14 H    PHE C 308      14.870   6.470  14.413  1.00 19.41 LIG 0.16  HD
BRANCH 13 15
ATOM     15  CA  PHE C 308      13.047   5.692  14.378  1.00 14.41 LIG 0.18  C 
BRANCH 15 16
ATOM     16  CB  PHE C 308      13.104   4.167  14.456  1.00 18.98 LIG 0.07  C 
BRANCH 16 17
ATOM     17  CG  PHE C 308      11.782   3.541  14.768  1.00 22.36 LIG-0.06  A 
ATOM     18  CD1 PHE C 308      11.285   3.552  16.060  1.00 16.86 LIG 0.01  A 
ATOM     19  CE1 PHE C 308      10.062   2.993  16.349  1.00 17.00 LIG 0.00  A 
ATOM     20  CZ  PHE C 308       9.318   2.422  15.344  1.00 20.65 LIG 0.00  A 
ATOM     21  CE2 PHE C 308       9.803   2.401  14.053  1.00 20.83 LIG 0.00  A 
ATOM     22  CD2 PHE C 308      11.021   2.965  13.767  1.00 21.63 LIG 0.01  A 
ENDBRANCH 16 17
ENDBRANCH 15 16
BRANCH 15 23
ATOM     23  C   PHE C 308      12.686   6.289  15.733  1.00 40.94 LIG 0.24  C 
ATOM     24  N   LEU C 309      13.652   6.296  16.644  1.00 39.04 LIG-0.34  N 
ATOM     25 H    LEU C 309      14.438   5.973  16.511  1.00 39.04 LIG 0.16  HD
ATOM     26 O    PHE C 308      11.562   6.745  15.941  1.00 37.89 LIG-0.27  OA
BRANCH 24 27
ATOM     27  CA  LEU C 309      13.455   6.865  17.970  1.00 41.86 LIG 0.18  C 
BRANCH 27 28
ATOM     28  C   LEU C 309      13.591   8.384  17.941  1.00 52.06 LIG 0.20  C 
ATOM     29 O    LEU C 309      12.802   9.105  18.553  1.00 44.07 LIG-0.65  OA
ATOM     30 OXT  LEU C 309      14.497   8.926  17.305  1.00 57.31 LIG-0.65  OA
ENDBRANCH 27 28
BRANCH 27 31
ATOM     31  CB  LEU C 309      14.458   6.263  18.955  1.00 45.69 LIG 0.04  C 
BRANCH 31 32
ATOM     32  CG  LEU C 309      14.004   4.977  19.650  1.00 42.90 LIG-0.02  C 
ATOM     33  CD2 LEU C 309      14.946   4.625  20.790  1.00 51.11 LIG 0.01  C 
ATOM     34  CD1 LEU C 309      13.911   3.833  18.653  1.00 45.19 LIG 0.01  C 
ENDBRANCH 31 32
ENDBRANCH 27 31
ENDBRANCH 24 27
ENDBRANCH 15 23
ENDBRANCH 13 15
ENDBRANCH 1 11
BRANCH 1 35
ATOM     35  N   TYR C 307      16.956   5.841  12.595  1.00 25.78 LIG-0.35  N 
ATOM     36 H    TYR C 307      17.695   6.261  12.727  1.00 25.78 LIG 0.16  HD
ATOM     37  C   ASP C 306      16.759   4.554  12.868  1.00 34.41 LIG 0.24  C 
ATOM     38 O    ASP C 306      15.690   3.991  12.634  1.00 33.93 LIG-0.27  OA
BRANCH 37 39
ATOM     39  CA  ASP C 306      17.922   3.763  13.476  1.00 28.99 LIG 0.19  C 
BRANCH 39 40
ATOM     40  N   ASP C 306      17.547   2.599  14.278  1.00 47.80 LIG-0.34  N 
ATOM     41  C   PRO C 305      16.962   2.739  15.466  1.00 55.24 LIG 0.25  C 
ATOM     42 O    PRO C 305      16.596   3.827  15.915  1.00 37.29 LIG-0.27  OA
ATOM     43 H    ASP C 306      17.736   1.841  13.919  1.00 47.80 LIG 0.16  HD
BRANCH 41 44
ATOM     44  CA  PRO C 305      16.724   1.473  16.287  1.00 46.84 LIG 0.35  C 
ATOM     45  N   PRO C 305      15.658   1.635  17.283  1.00 55.65 LIG 0.32  N 
ATOM     46  CD  PRO C 305      14.491   0.787  16.986  1.00 37.59 LIG 0.32  C 
ATOM     47  CG  PRO C 305      14.708   0.405  15.553  1.00 48.04 LIG 0.04  C 
ATOM     48  CB  PRO C 305      16.189   0.355  15.383  1.00 49.04 LIG 0.05  C 
ENDBRANCH 41 44
ENDBRANCH 39 40
BRANCH 39 49
ATOM     49  CB  ASP C 306      18.886   3.350  12.359  1.00 37.50 LIG 0.15  C 
BRANCH 49 50
ATOM     50  CG  ASP C 306      18.824   1.865  12.053  1.00 60.25 LIG 0.17  C 
ATOM     51 OD1  ASP C 306      17.943   1.453  11.268  1.00 61.15 LIG-0.65  OA
ATOM     52 OD2  ASP C 306      19.654   1.111  12.603  1.00 58.41 LIG-0.65  OA
ENDBRANCH 49 50
ENDBRANCH 39 49
ENDBRANCH 37 39
ENDBRANCH 1 35
TORSDOF 18
ENDMDL
