MODEL 1
USER: ADFR SOLUTION from run 43
USER: SCORE 21.101080 LL:  -4.355 LR: -18.587 RR:   0.000 FEB: -12.919
USER: RMSD 10.346286
USER: SEED 42
USER: STATUS no improvement in best in 5 clusters for 5 generations
USER: GENES 21
USER: genes 0 Translation |==|  0.29464 0.39990 0.73122
USER: genes 1 Rotation |==|  0.29899 0.79017 0.19511 0.68011
USER: genes 2 Torsion [C]-CA--CB-[CG] |==|  0.59238
USER: genes 3 Torsion [CA]-CB--CG-[CD] |==|  0.81044
USER: genes 4 Torsion [CB]-CG--CD-[OE1] |==|  0.14320
USER: genes 5 Torsion [N]-CA--C-[N] |==|  0.12796
USER: genes 6 Torsion [C]-N--CA-[CB] |==|  0.76664
USER: genes 7 Torsion [N]-CA--CB-[CG] |==|  0.77891
USER: genes 8 Torsion [CA]-CB--CG-[CD1] |==|  0.96284
USER: genes 9 Torsion [N]-CA--C-[N] |==|  0.69937
USER: genes 10 Torsion [C]-N--CA-[CB] |==|  0.75946
USER: genes 11 Torsion [N]-CA--C-[N] |==|  0.17547
USER: genes 12 Torsion [C]-N--CA-[C] |==|  0.77944
USER: genes 13 Torsion [N]-CA--C-[O] |==|  0.11821
USER: genes 14 Torsion [N]-CA--CB-[CG] |==|  0.84304
USER: genes 15 Torsion [CA]-CB--CG-[CD2] |==|  0.78927
USER: genes 16 Torsion [CB]-CA--N-[C] |==|  0.77344
USER: genes 17 Torsion [N]-C--CA-[N] |==|  0.23817
USER: genes 18 Torsion [N]-C--CA-[N] |==|  0.39644
USER: genes 19 Torsion [C]-CA--N-[C] |==|  0.84763
USER: genes 20 Torsion [N]-C--CA-[N] |==|  0.44607
ROOT
ATOM      1  CA  GLU A 233      -4.804  23.600 -44.665  1.00 24.61 LIG 0.18  C 
ENDROOT
BRANCH 1 2
ATOM      2  CB  GLU A 233      -5.070  22.385 -43.778  1.00 26.56 LIG 0.04  C 
BRANCH 2 3
ATOM      3  CG  GLU A 233      -6.446  21.766 -44.045  1.00 28.50 LIG 0.12  C 
BRANCH 3 4
ATOM      4  CD  GLU A 233      -7.600  22.624 -43.623  1.00 31.23 LIG 0.17  C 
ATOM      5 OE1  GLU A 233      -7.639  23.791 -44.010  1.00 40.78 LIG-0.65  OA
ATOM      6 OE2  GLU A 233      -8.502  22.123 -42.941  1.00 32.56 LIG-0.65  OA
ENDBRANCH 3 4
ENDBRANCH 2 3
ENDBRANCH 1 2
BRANCH 1 7
ATOM      7  C   GLU A 233      -3.320  23.721 -45.033  1.00 22.49 LIG 0.24  C 
ATOM      8  N   LEU A 234      -3.039  24.610 -45.983  1.00 21.03 LIG-0.35  N 
ATOM      9 H    LEU A 234      -3.628  25.108 -46.362  1.00 21.03 LIG 0.16  HD
ATOM     10 O    GLU A 233      -2.461  22.996 -44.516  1.00 21.03 LIG-0.27  OA
BRANCH 8 11
ATOM     11  CA  LEU A 234      -1.671  24.813 -46.469  1.00 20.74 LIG 0.18  C 
BRANCH 11 12
ATOM     12  CB  LEU A 234      -0.964  25.785 -45.523  1.00 23.04 LIG 0.04  C 
BRANCH 12 13
ATOM     13  CG  LEU A 234      -1.374  27.239 -45.838  1.00 25.06 LIG-0.02  C 
ATOM     14  CD1 LEU A 234      -2.096  27.350 -47.186  1.00 33.19 LIG 0.01  C 
ATOM     15  CD2 LEU A 234      -2.200  27.810 -44.673  1.00 27.29 LIG 0.01  C 
ENDBRANCH 12 13
ENDBRANCH 11 12
BRANCH 11 16
ATOM     16  C   LEU A 234      -0.925  23.483 -46.577  1.00 18.65 LIG 0.24  C 
ATOM     17 O    LEU A 234      -1.266  22.667 -47.423  1.00 20.08 LIG-0.27  OA
ATOM     18  N   LEU A 235       0.036  23.249 -45.676  1.00 16.33 LIG-0.35  N 
ATOM     19 H    LEU A 235       0.182  23.751 -44.993  1.00 16.33 LIG 0.16  HD
BRANCH 18 20
ATOM     20  CA  LEU A 235       0.927  22.108 -45.776  1.00 16.00 LIG 0.18  C 
BRANCH 20 21
ATOM     21  C   LEU A 235       1.339  21.785 -47.219  1.00 15.60 LIG 0.24  C 
ATOM     22 O    LEU A 235       1.036  20.733 -47.726  1.00 16.00 LIG-0.27  OA
ATOM     23  N   GLY A 236       2.034  22.695 -47.873  1.00 15.05 LIG-0.35  N 
ATOM     24 H    GLY A 236       2.259  23.463 -47.557  1.00 15.05 LIG 0.16  HD
BRANCH 23 25
ATOM     25  CA  GLY A 236       2.485  22.424 -49.261  1.00 15.88 LIG 0.23  C 
BRANCH 25 26
ATOM     26  C   GLY A 236       3.708  21.550 -49.293  1.00 16.68 LIG 0.19  C 
ATOM     27 O    GLY A 236       3.790  20.574 -48.541  1.00 18.78 LIG-0.65  OA
ATOM     28 OXT  GLY A 236       4.643  21.797 -50.051  1.00 16.61 LIG-0.65  OA
ENDBRANCH 25 26
ENDBRANCH 23 25
ENDBRANCH 20 21
BRANCH 20 29
ATOM     29  CB  LEU A 235       0.289  20.872 -45.104  1.00 17.17 LIG 0.04  C 
BRANCH 29 30
ATOM     30  CG  LEU A 235      -0.129  20.998 -43.635  1.00 20.01 LIG-0.02  C 
ATOM     31  CD1 LEU A 235      -1.059  19.930 -43.273  1.00 21.18 LIG 0.01  C 
ATOM     32  CD2 LEU A 235       1.121  20.936 -42.728  1.00 23.81 LIG 0.01  C 
ENDBRANCH 29 30
ENDBRANCH 20 29
ENDBRANCH 18 20
ENDBRANCH 11 16
ENDBRANCH 8 11
ENDBRANCH 1 7
BRANCH 1 33
ATOM     33  N   GLU A 233      -5.571  23.532 -45.912  1.00 26.21 LIG-0.35  N 
ATOM     34 H    GLU A 233      -6.297  23.993 -45.905  1.00 26.21 LIG 0.16  HD
ATOM     35  C   PRO A 232      -5.164  22.815 -46.950  1.00 29.12 LIG 0.24  C 
ATOM     36 O    PRO A 232      -4.064  22.244 -47.009  1.00 29.57 LIG-0.27  OA
BRANCH 35 37
ATOM     37  CA  PRO A 232      -6.134  22.742 -48.130  1.00 32.50 LIG 0.18  C 
ATOM     38  CB  PRO A 232      -5.816  21.507 -48.984  1.00 34.03 LIG 0.04  C 
ATOM     39  CG  PRO A 232      -5.801  21.958 -50.396  1.00 39.71 LIG 0.02  C 
ATOM     40  CD  PRO A 232      -5.936  23.438 -50.469  1.00 41.14 LIG 0.13  C 
ATOM     41  N   PRO A 232      -6.000  23.863 -49.058  1.00 36.81 LIG-0.34  N 
ATOM     42  C   ALA A 231      -6.138  25.117 -48.598  1.00 38.01 LIG 0.24  C 
ATOM     43 O    ALA A 231      -6.315  25.369 -47.409  1.00 37.25 LIG-0.27  OA
BRANCH 42 44
ATOM     44  CA  ALA A 231      -6.016  26.248 -49.601  1.00 42.70 LIG 0.17  C 
ATOM     45  CB  ALA A 231      -4.589  26.761 -49.605  1.00 44.12 LIG 0.04  C 
BRANCH 44 46
ATOM     46  N   ALA A 231      -6.960  27.328 -49.299  1.00 44.69 LIG-0.35  N 
ATOM     47 H    ALA A 231      -6.598  28.103 -49.211  1.00 44.69 LIG 0.16  HD
ATOM     48  C   PRO A 230      -8.267  27.099 -49.176  1.00 46.57 LIG 0.25  C 
ATOM     49 O    PRO A 230      -8.735  25.968 -49.106  1.00 46.08 LIG-0.27  OA
BRANCH 48 50
ATOM     50  CA  PRO A 230      -9.208  28.329 -49.146  1.00 51.04 LIG 0.35  C 
ATOM     51  N   PRO A 230     -10.594  27.980 -49.462  1.00 55.48 LIG 0.32  N 
ATOM     52  CD  PRO A 230     -11.388  27.745 -48.246  1.00 58.51 LIG 0.32  C 
ATOM     53  CG  PRO A 230     -10.764  28.683 -47.262  1.00 57.35 LIG 0.04  C 
ATOM     54  CB  PRO A 230      -9.320  28.948 -47.733  1.00 52.45 LIG 0.05  C 
ENDBRANCH 48 50
ENDBRANCH 44 46
ENDBRANCH 42 44
ENDBRANCH 35 37
ENDBRANCH 1 33
TORSDOF 19
ENDMDL
MODEL 2
USER: ADFR SOLUTION from run 141
USER: SCORE 20.130309 LL:  -5.303 LR: -18.287 RR:   0.000 FEB: -12.620
USER: RMSD 7.865390
USER: SEED 140
USER: STATUS no improvement in best in 4 clusters for 5 generations
USER: GENES 21
USER: genes 0 Translation |==|  0.36792 0.43196 0.74046
USER: genes 1 Rotation |==|  0.61448 0.93198 0.28209 0.55296
USER: genes 2 Torsion [C]-CA--CB-[CG] |==|  0.24368
USER: genes 3 Torsion [CA]-CB--CG-[CD] |==|  0.52561
USER: genes 4 Torsion [CB]-CG--CD-[OE1] |==|  0.71982
USER: genes 5 Torsion [N]-CA--C-[N] |==|  0.14951
USER: genes 6 Torsion [C]-N--CA-[CB] |==|  0.80545
USER: genes 7 Torsion [N]-CA--CB-[CG] |==|  0.91008
USER: genes 8 Torsion [CA]-CB--CG-[CD1] |==|  0.36068
USER: genes 9 Torsion [N]-CA--C-[N] |==|  0.67883
USER: genes 10 Torsion [C]-N--CA-[CB] |==|  0.82869
USER: genes 11 Torsion [N]-CA--C-[N] |==|  0.93229
USER: genes 12 Torsion [C]-N--CA-[C] |==|  0.63990
USER: genes 13 Torsion [N]-CA--C-[O] |==|  0.08557
USER: genes 14 Torsion [N]-CA--CB-[CG] |==|  0.86482
USER: genes 15 Torsion [CA]-CB--CG-[CD2] |==|  0.67846
USER: genes 16 Torsion [CB]-CA--N-[C] |==|  0.43930
USER: genes 17 Torsion [N]-C--CA-[N] |==|  0.79868
USER: genes 18 Torsion [N]-C--CA-[N] |==|  0.17529
USER: genes 19 Torsion [C]-CA--N-[C] |==|  0.64622
USER: genes 20 Torsion [N]-C--CA-[N] |==|  0.22266
ROOT
ATOM      1  CA  GLU A 233      -3.045  24.201 -44.450  1.00 24.61 LIG 0.18  C 
ENDROOT
BRANCH 1 2
ATOM      2  CB  GLU A 233      -4.551  23.962 -44.538  1.00 26.56 LIG 0.04  C 
BRANCH 2 3
ATOM      3  CG  GLU A 233      -5.065  23.082 -43.394  1.00 28.50 LIG 0.12  C 
BRANCH 3 4
ATOM      4  CD  GLU A 233      -6.487  22.638 -43.549  1.00 31.23 LIG 0.17  C 
ATOM      5 OE1  GLU A 233      -7.362  23.227 -42.916  1.00 40.78 LIG-0.65  OA
ATOM      6 OE2  GLU A 233      -6.748  21.727 -44.344  1.00 32.56 LIG-0.65  OA
ENDBRANCH 3 4
ENDBRANCH 2 3
ENDBRANCH 1 2
BRANCH 1 7
ATOM      7  C   GLU A 233      -2.252  23.097 -45.160  1.00 22.49 LIG 0.24  C 
ATOM      8  N   LEU A 234      -0.933  23.271 -45.187  1.00 21.03 LIG-0.35  N 
ATOM      9 H    LEU A 234      -0.529  23.935 -44.820  1.00 21.03 LIG 0.16  HD
ATOM     10 O    GLU A 233      -2.817  22.146 -45.715  1.00 21.03 LIG-0.27  OA
BRANCH 8 11
ATOM     11  CA  LEU A 234      -0.044  22.320 -45.862  1.00 20.74 LIG 0.18  C 
BRANCH 11 12
ATOM     12  CB  LEU A 234      -0.027  21.022 -45.054  1.00 23.04 LIG 0.04  C 
BRANCH 12 13
ATOM     13  CG  LEU A 234      -0.197  21.318 -43.549  1.00 25.06 LIG-0.02  C 
ATOM     14  CD1 LEU A 234      -1.296  20.454 -42.919  1.00 33.19 LIG 0.01  C 
ATOM     15  CD2 LEU A 234       1.157  21.173 -42.834  1.00 27.29 LIG 0.01  C 
ENDBRANCH 12 13
ENDBRANCH 11 12
BRANCH 11 16
ATOM     16  C   LEU A 234      -0.487  22.085 -47.305  1.00 18.65 LIG 0.24  C 
ATOM     17 O    LEU A 234      -0.516  23.025 -48.089  1.00 20.08 LIG-0.27  OA
ATOM     18  N   LEU A 235      -0.895  20.851 -47.623  1.00 16.33 LIG-0.35  N 
ATOM     19 H    LEU A 235      -1.016  20.225 -47.046  1.00 16.33 LIG 0.16  HD
BRANCH 18 20
ATOM     20  CA  LEU A 235      -1.175  20.459 -48.993  1.00 16.00 LIG 0.18  C 
BRANCH 20 21
ATOM     21  C   LEU A 235       0.056  20.529 -49.907  1.00 15.60 LIG 0.24  C 
ATOM     22 O    LEU A 235       0.123  19.854 -50.905  1.00 16.00 LIG-0.27  OA
ATOM     23  N   GLY A 236       1.028  21.349 -49.559  1.00 15.05 LIG-0.35  N 
ATOM     24 H    GLY A 236       1.017  21.859 -48.866  1.00 15.05 LIG 0.16  HD
BRANCH 23 25
ATOM     25  CA  GLY A 236       2.255  21.436 -50.390  1.00 15.88 LIG 0.23  C 
BRANCH 25 26
ATOM     26  C   GLY A 236       3.504  21.295 -49.563  1.00 16.68 LIG 0.19  C 
ATOM     27 O    GLY A 236       3.493  20.602 -48.541  1.00 18.78 LIG-0.65  OA
ATOM     28 OXT  GLY A 236       4.541  21.871 -49.881  1.00 16.61 LIG-0.65  OA
ENDBRANCH 25 26
ENDBRANCH 23 25
ENDBRANCH 20 21
BRANCH 20 29
ATOM     29  CB  LEU A 235      -2.327  21.312 -49.567  1.00 17.17 LIG 0.04  C 
BRANCH 29 30
ATOM     30  CG  LEU A 235      -3.595  21.459 -48.718  1.00 20.01 LIG-0.02  C 
ATOM     31  CD1 LEU A 235      -3.880  22.869 -48.461  1.00 21.18 LIG 0.01  C 
ATOM     32  CD2 LEU A 235      -4.791  20.806 -49.447  1.00 23.81 LIG 0.01  C 
ENDBRANCH 29 30
ENDBRANCH 20 29
ENDBRANCH 18 20
ENDBRANCH 11 16
ENDBRANCH 8 11
ENDBRANCH 1 7
BRANCH 1 33
ATOM     33  N   GLU A 233      -2.669  25.483 -45.054  1.00 26.21 LIG-0.35  N 
ATOM     34 H    GLU A 233      -3.241  25.788 -45.620  1.00 26.21 LIG 0.16  HD
ATOM     35  C   PRO A 232      -1.540  26.104 -44.740  1.00 29.12 LIG 0.24  C 
ATOM     36 O    PRO A 232      -0.771  25.731 -43.842  1.00 29.57 LIG-0.27  OA
BRANCH 35 37
ATOM     37  CA  PRO A 232      -1.228  27.366 -45.546  1.00 32.50 LIG 0.18  C 
ATOM     38  CB  PRO A 232      -2.500  28.212 -45.690  1.00 34.03 LIG 0.04  C 
ATOM     39  CG  PRO A 232      -2.589  28.605 -47.117  1.00 39.71 LIG 0.02  C 
ATOM     40  CD  PRO A 232      -1.530  27.925 -47.910  1.00 41.14 LIG 0.13  C 
ATOM     41  N   PRO A 232      -0.825  27.086 -46.922  1.00 36.81 LIG-0.34  N 
ATOM     42  C   ALA A 231       0.229  26.285 -47.149  1.00 38.01 LIG 0.24  C 
ATOM     43 O    ALA A 231       0.839  25.723 -46.242  1.00 37.25 LIG-0.27  OA
BRANCH 42 44
ATOM     44  CA  ALA A 231       0.627  26.044 -48.593  1.00 42.70 LIG 0.17  C 
ATOM     45  CB  ALA A 231       1.734  25.009 -48.639  1.00 44.12 LIG 0.04  C 
BRANCH 44 46
ATOM     46  N   ALA A 231       1.047  27.290 -49.241  1.00 44.69 LIG-0.35  N 
ATOM     47 H    ALA A 231       1.655  27.725 -48.815  1.00 44.69 LIG 0.16  HD
ATOM     48  C   PRO A 230       0.514  27.691 -50.394  1.00 46.57 LIG 0.25  C 
ATOM     49 O    PRO A 230      -0.482  27.166 -50.879  1.00 46.08 LIG-0.27  OA
BRANCH 48 50
ATOM     50  CA  PRO A 230       1.217  28.852 -51.141  1.00 51.04 LIG 0.35  C 
ATOM     51  N   PRO A 230       2.387  28.403 -51.898  1.00 55.48 LIG 0.32  N 
ATOM     52  CD  PRO A 230       2.052  28.127 -53.304  1.00 58.51 LIG 0.32  C 
ATOM     53  CG  PRO A 230       0.967  29.118 -53.583  1.00 57.35 LIG 0.04  C 
ATOM     54  CB  PRO A 230       0.318  29.479 -52.231  1.00 52.45 LIG 0.05  C 
ENDBRANCH 48 50
ENDBRANCH 44 46
ENDBRANCH 42 44
ENDBRANCH 35 37
ENDBRANCH 1 33
TORSDOF 19
ENDMDL
MODEL 3
USER: ADFR SOLUTION from run 140
USER: SCORE 20.544576 LL:  -4.301 LR: -18.190 RR:   0.000 FEB: -12.523
USER: RMSD 10.718912
USER: SEED 139
USER: STATUS no improvement in best in 4 clusters for 5 generations
USER: GENES 21
USER: genes 0 Translation |==|  0.31572 0.37384 0.72729
USER: genes 1 Rotation |==|  0.32845 0.78002 0.14055 0.61383
USER: genes 2 Torsion [C]-CA--CB-[CG] |==|  0.61636
USER: genes 3 Torsion [CA]-CB--CG-[CD] |==|  0.75535
USER: genes 4 Torsion [CB]-CG--CD-[OE1] |==|  0.56720
USER: genes 5 Torsion [N]-CA--C-[N] |==|  0.45331
USER: genes 6 Torsion [C]-N--CA-[CB] |==|  0.79378
USER: genes 7 Torsion [N]-CA--CB-[CG] |==|  0.60754
USER: genes 8 Torsion [CA]-CB--CG-[CD1] |==|  0.22785
USER: genes 9 Torsion [N]-CA--C-[N] |==|  0.15179
USER: genes 10 Torsion [C]-N--CA-[CB] |==|  0.52222
USER: genes 11 Torsion [N]-CA--C-[N] |==|  0.25332
USER: genes 12 Torsion [C]-N--CA-[C] |==|  0.41955
USER: genes 13 Torsion [N]-CA--C-[O] |==|  0.62991
USER: genes 14 Torsion [N]-CA--CB-[CG] |==|  0.84801
USER: genes 15 Torsion [CA]-CB--CG-[CD2] |==|  0.55777
USER: genes 16 Torsion [CB]-CA--N-[C] |==|  0.50020
USER: genes 17 Torsion [N]-C--CA-[N] |==|  0.40955
USER: genes 18 Torsion [N]-C--CA-[N] |==|  0.41023
USER: genes 19 Torsion [C]-CA--N-[C] |==|  0.84596
USER: genes 20 Torsion [N]-C--CA-[N] |==|  0.67009
ROOT
ATOM      1  CA  GLU A 233      -4.298  23.112 -44.757  1.00 24.61 LIG 0.18  C 
ENDROOT
BRANCH 1 2
ATOM      2  CB  GLU A 233      -4.894  22.243 -43.650  1.00 26.56 LIG 0.04  C 
BRANCH 2 3
ATOM      3  CG  GLU A 233      -6.336  21.824 -43.959  1.00 28.50 LIG 0.12  C 
BRANCH 3 4
ATOM      4  CD  GLU A 233      -7.374  22.799 -43.492  1.00 31.23 LIG 0.17  C 
ATOM      5 OE1  GLU A 233      -8.513  22.388 -43.275  1.00 40.78 LIG-0.65  OA
ATOM      6 OE2  GLU A 233      -7.046  23.974 -43.291  1.00 32.56 LIG-0.65  OA
ENDBRANCH 3 4
ENDBRANCH 2 3
ENDBRANCH 1 2
BRANCH 1 7
ATOM      7  C   GLU A 233      -2.847  22.722 -45.064  1.00 22.49 LIG 0.24  C 
ATOM      8  N   LEU A 234      -1.951  23.096 -44.153  1.00 21.03 LIG-0.35  N 
ATOM      9 H    LEU A 234      -2.151  23.508 -43.425  1.00 21.03 LIG 0.16  HD
ATOM     10 O    GLU A 233      -2.537  22.151 -46.117  1.00 21.03 LIG-0.27  OA
BRANCH 8 11
ATOM     11  CA  LEU A 234      -0.520  22.829 -44.325  1.00 20.74 LIG 0.18  C 
BRANCH 11 12
ATOM     12  CB  LEU A 234      -0.275  21.340 -44.075  1.00 23.04 LIG 0.04  C 
BRANCH 12 13
ATOM     13  CG  LEU A 234       1.048  21.130 -43.309  1.00 25.06 LIG-0.02  C 
ATOM     14  CD1 LEU A 234       0.873  21.339 -41.800  1.00 33.19 LIG 0.01  C 
ATOM     15  CD2 LEU A 234       1.634  19.750 -43.654  1.00 27.29 LIG 0.01  C 
ENDBRANCH 12 13
ENDBRANCH 11 12
BRANCH 11 16
ATOM     16  C   LEU A 234      -0.045  23.258 -45.712  1.00 18.65 LIG 0.24  C 
ATOM     17 O    LEU A 234       0.586  22.470 -46.405  1.00 20.08 LIG-0.27  OA
ATOM     18  N   LEU A 235      -0.288  24.523 -46.074  1.00 16.33 LIG-0.35  N 
ATOM     19 H    LEU A 235      -0.598  25.121 -45.540  1.00 16.33 LIG 0.16  HD
BRANCH 18 20
ATOM     20  CA  LEU A 235      -0.042  25.001 -47.423  1.00 16.00 LIG 0.18  C 
BRANCH 20 21
ATOM     21  C   LEU A 235       1.335  24.598 -47.968  1.00 15.60 LIG 0.24  C 
ATOM     22 O    LEU A 235       2.299  25.299 -47.788  1.00 16.00 LIG-0.27  OA
ATOM     23  N   GLY A 236       1.417  23.465 -48.638  1.00 15.05 LIG-0.35  N 
ATOM     24 H    GLY A 236       0.761  22.927 -48.778  1.00 15.05 LIG 0.16  HD
BRANCH 23 25
ATOM     25  CA  GLY A 236       2.718  23.040 -49.214  1.00 15.88 LIG 0.23  C 
BRANCH 25 26
ATOM     26  C   GLY A 236       2.831  21.543 -49.303  1.00 16.68 LIG 0.19  C 
ATOM     27 O    GLY A 236       3.857  20.977 -48.914  1.00 18.78 LIG-0.65  OA
ATOM     28 OXT  GLY A 236       1.918  20.866 -49.771  1.00 16.61 LIG-0.65  OA
ENDBRANCH 25 26
ENDBRANCH 23 25
ENDBRANCH 20 21
BRANCH 20 29
ATOM     29  CB  LEU A 235      -0.224  26.533 -47.488  1.00 17.17 LIG 0.04  C 
BRANCH 29 30
ATOM     30  CG  LEU A 235      -1.556  27.113 -46.997  1.00 20.01 LIG-0.02  C 
ATOM     31  CD1 LEU A 235      -1.576  27.187 -45.537  1.00 21.18 LIG 0.01  C 
ATOM     32  CD2 LEU A 235      -1.768  28.520 -47.597  1.00 23.81 LIG 0.01  C 
ENDBRANCH 29 30
ENDBRANCH 20 29
ENDBRANCH 18 20
ENDBRANCH 11 16
ENDBRANCH 8 11
ENDBRANCH 1 7
BRANCH 1 33
ATOM     33  N   GLU A 233      -5.067  22.999 -45.999  1.00 26.21 LIG-0.35  N 
ATOM     34 H    GLU A 233      -5.743  22.470 -45.950  1.00 26.21 LIG 0.16  HD
ATOM     35  C   PRO A 232      -4.731  23.665 -47.096  1.00 29.12 LIG 0.24  C 
ATOM     36 O    PRO A 232      -3.830  24.516 -47.142  1.00 29.57 LIG-0.27  OA
BRANCH 35 37
ATOM     37  CA  PRO A 232      -5.553  23.346 -48.346  1.00 32.50 LIG 0.18  C 
ATOM     38  CB  PRO A 232      -4.812  22.311 -49.201  1.00 34.03 LIG 0.04  C 
ATOM     39  CG  PRO A 232      -4.850  22.806 -50.597  1.00 39.71 LIG 0.02  C 
ATOM     40  CD  PRO A 232      -5.437  24.172 -50.648  1.00 41.14 LIG 0.13  C 
ATOM     41  N   PRO A 232      -5.719  24.493 -49.235  1.00 36.81 LIG-0.34  N 
ATOM     42  C   ALA A 231      -6.271  25.622 -48.759  1.00 38.01 LIG 0.24  C 
ATOM     43 O    ALA A 231      -6.593  25.752 -47.580  1.00 37.25 LIG-0.27  OA
BRANCH 42 44
ATOM     44  CA  ALA A 231      -6.447  26.777 -49.725  1.00 42.70 LIG 0.17  C 
ATOM     45  CB  ALA A 231      -5.202  27.642 -49.702  1.00 44.12 LIG 0.04  C 
BRANCH 44 46
ATOM     46  N   ALA A 231      -7.638  27.566 -49.395  1.00 44.69 LIG-0.35  N 
ATOM     47 H    ALA A 231      -7.487  28.404 -49.273  1.00 44.69 LIG 0.16  HD
ATOM     48  C   PRO A 230      -8.843  27.006 -49.301  1.00 46.57 LIG 0.25  C 
ATOM     49 O    PRO A 230      -9.006  25.791 -49.282  1.00 46.08 LIG-0.27  OA
BRANCH 48 50
ATOM     50  CA  PRO A 230     -10.068  27.952 -49.237  1.00 51.04 LIG 0.35  C 
ATOM     51  N   PRO A 230     -10.825  27.803 -47.993  1.00 55.48 LIG 0.32  N 
ATOM     52  CD  PRO A 230     -10.413  28.792 -46.984  1.00 58.51 LIG 0.32  C 
ATOM     53  CG  PRO A 230     -10.032  29.972 -47.819  1.00 57.35 LIG 0.04  C 
ATOM     54  CB  PRO A 230      -9.659  29.442 -49.219  1.00 52.45 LIG 0.05  C 
ENDBRANCH 48 50
ENDBRANCH 44 46
ENDBRANCH 42 44
ENDBRANCH 35 37
ENDBRANCH 1 33
TORSDOF 19
ENDMDL
MODEL 4
USER: ADFR SOLUTION from run 73
USER: SCORE 21.481553 LL:  -6.450 LR: -17.895 RR:   0.000 FEB: -12.228
USER: RMSD 9.516911
USER: SEED 72
USER: STATUS no improvement in best in 6 clusters for 5 generations
USER: GENES 21
USER: genes 0 Translation |==|  0.35606 0.43864 0.76735
USER: genes 1 Rotation |==|  0.62013 0.88713 0.25777 0.66440
USER: genes 2 Torsion [C]-CA--CB-[CG] |==|  0.27194
USER: genes 3 Torsion [CA]-CB--CG-[CD] |==|  0.53777
USER: genes 4 Torsion [CB]-CG--CD-[OE1] |==|  0.61746
USER: genes 5 Torsion [N]-CA--C-[N] |==|  0.07611
USER: genes 6 Torsion [C]-N--CA-[CB] |==|  0.84441
USER: genes 7 Torsion [N]-CA--CB-[CG] |==|  0.41285
USER: genes 8 Torsion [CA]-CB--CG-[CD1] |==|  0.31348
USER: genes 9 Torsion [N]-CA--C-[N] |==|  0.32838
USER: genes 10 Torsion [C]-N--CA-[CB] |==|  0.18000
USER: genes 11 Torsion [N]-CA--C-[N] |==|  0.81358
USER: genes 12 Torsion [C]-N--CA-[C] |==|  0.23959
USER: genes 13 Torsion [N]-CA--C-[O] |==|  0.88244
USER: genes 14 Torsion [N]-CA--CB-[CG] |==|  0.62629
USER: genes 15 Torsion [CA]-CB--CG-[CD2] |==|  0.22396
USER: genes 16 Torsion [CB]-CA--N-[C] |==|  0.44695
USER: genes 17 Torsion [N]-C--CA-[N] |==|  0.88806
USER: genes 18 Torsion [N]-C--CA-[N] |==|  0.85657
USER: genes 19 Torsion [C]-CA--N-[C] |==|  0.85532
USER: genes 20 Torsion [N]-C--CA-[N] |==|  0.42506
ROOT
ATOM      1  CA  GLU A 233      -3.329  24.326 -43.825  1.00 24.61 LIG 0.18  C 
ENDROOT
BRANCH 1 2
ATOM      2  CB  GLU A 233      -4.658  23.820 -44.385  1.00 26.56 LIG 0.04  C 
BRANCH 2 3
ATOM      3  CG  GLU A 233      -5.622  23.381 -43.278  1.00 28.50 LIG 0.12  C 
BRANCH 3 4
ATOM      4  CD  GLU A 233      -6.796  22.586 -43.763  1.00 31.23 LIG 0.17  C 
ATOM      5 OE1  GLU A 233      -7.906  22.826 -43.291  1.00 40.78 LIG-0.65  OA
ATOM      6 OE2  GLU A 233      -6.625  21.747 -44.655  1.00 32.56 LIG-0.65  OA
ENDBRANCH 3 4
ENDBRANCH 2 3
ENDBRANCH 1 2
BRANCH 1 7
ATOM      7  C   GLU A 233      -2.247  23.241 -43.861  1.00 22.49 LIG 0.24  C 
ATOM      8  N   LEU A 234      -1.000  23.685 -43.999  1.00 21.03 LIG-0.35  N 
ATOM      9 H    LEU A 234      -0.789  24.517 -44.044  1.00 21.03 LIG 0.16  HD
ATOM     10 O    GLU A 233      -2.532  22.037 -43.821  1.00 21.03 LIG-0.27  OA
BRANCH 8 11
ATOM     11  CA  LEU A 234       0.140  22.766 -44.087  1.00 20.74 LIG 0.18  C 
BRANCH 11 12
ATOM     12  CB  LEU A 234       0.129  21.868 -42.849  1.00 23.04 LIG 0.04  C 
BRANCH 12 13
ATOM     13  CG  LEU A 234       0.709  20.477 -43.185  1.00 25.06 LIG-0.02  C 
ATOM     14  CD1 LEU A 234       2.041  20.227 -42.468  1.00 33.19 LIG 0.01  C 
ATOM     15  CD2 LEU A 234      -0.339  19.392 -42.887  1.00 27.29 LIG 0.01  C 
ENDBRANCH 12 13
ENDBRANCH 11 12
BRANCH 11 16
ATOM     16  C   LEU A 234       0.091  21.954 -45.380  1.00 18.65 LIG 0.24  C 
ATOM     17 O    LEU A 234      -0.821  21.157 -45.558  1.00 20.08 LIG-0.27  OA
ATOM     18  N   LEU A 235       1.108  22.109 -46.235  1.00 16.33 LIG-0.35  N 
ATOM     19 H    LEU A 235       1.821  22.554 -46.052  1.00 16.33 LIG 0.16  HD
BRANCH 18 20
ATOM     20  CA  LEU A 235       1.093  21.530 -47.566  1.00 16.00 LIG 0.18  C 
BRANCH 20 21
ATOM     21  C   LEU A 235       2.442  21.639 -48.291  1.00 15.60 LIG 0.24  C 
ATOM     22 O    LEU A 235       3.092  20.653 -48.536  1.00 16.00 LIG-0.27  OA
ATOM     23  N   GLY A 236       2.856  22.845 -48.628  1.00 15.05 LIG-0.35  N 
ATOM     24 H    GLY A 236       2.420  23.572 -48.487  1.00 15.05 LIG 0.16  HD
BRANCH 23 25
ATOM     25  CA  GLY A 236       4.167  23.013 -49.303  1.00 15.88 LIG 0.23  C 
BRANCH 25 26
ATOM     26  C   GLY A 236       4.054  22.854 -50.794  1.00 16.68 LIG 0.19  C 
ATOM     27 O    GLY A 236       3.356  21.952 -51.269  1.00 18.78 LIG-0.65  OA
ATOM     28 OXT  GLY A 236       4.660  23.602 -51.558  1.00 16.61 LIG-0.65  OA
ENDBRANCH 25 26
ENDBRANCH 23 25
ENDBRANCH 20 21
BRANCH 20 29
ATOM     29  CB  LEU A 235      -0.031  22.166 -48.413  1.00 17.17 LIG 0.04  C 
BRANCH 29 30
ATOM     30  CG  LEU A 235      -0.919  21.227 -49.237  1.00 20.01 LIG-0.02  C 
ATOM     31  CD1 LEU A 235      -0.116  20.172 -49.853  1.00 21.18 LIG 0.01  C 
ATOM     32  CD2 LEU A 235      -2.003  20.601 -48.330  1.00 23.81 LIG 0.01  C 
ENDBRANCH 29 30
ENDBRANCH 20 29
ENDBRANCH 18 20
ENDBRANCH 11 16
ENDBRANCH 8 11
ENDBRANCH 1 7
BRANCH 1 33
ATOM     33  N   GLU A 233      -2.834  25.480 -44.582  1.00 26.21 LIG-0.35  N 
ATOM     34 H    GLU A 233      -3.182  25.566 -45.364  1.00 26.21 LIG 0.16  HD
ATOM     35  C   PRO A 232      -1.927  26.310 -44.084  1.00 29.12 LIG 0.24  C 
ATOM     36 O    PRO A 232      -1.509  26.261 -42.918  1.00 29.57 LIG-0.27  OA
BRANCH 35 37
ATOM     37  CA  PRO A 232      -1.418  27.390 -45.040  1.00 32.50 LIG 0.18  C 
ATOM     38  CB  PRO A 232      -2.481  28.485 -45.193  1.00 34.03 LIG 0.04  C 
ATOM     39  CG  PRO A 232      -2.606  28.757 -46.645  1.00 39.71 LIG 0.02  C 
ATOM     40  CD  PRO A 232      -1.795  27.785 -47.427  1.00 41.14 LIG 0.13  C 
ATOM     41  N   PRO A 232      -1.207  26.902 -46.401  1.00 36.81 LIG-0.34  N 
ATOM     42  C   ALA A 231      -0.378  25.865 -46.608  1.00 38.01 LIG 0.24  C 
ATOM     43 O    ALA A 231       0.171  25.265 -45.687  1.00 37.25 LIG-0.27  OA
BRANCH 42 44
ATOM     44  CA  ALA A 231      -0.170  25.410 -48.040  1.00 42.70 LIG 0.17  C 
ATOM     45  CB  ALA A 231       0.651  26.448 -48.780  1.00 44.12 LIG 0.04  C 
BRANCH 44 46
ATOM     46  N   ALA A 231      -1.452  25.179 -48.714  1.00 44.69 LIG-0.35  N 
ATOM     47 H    ALA A 231      -1.536  25.585 -49.467  1.00 44.69 LIG 0.16  HD
ATOM     48  C   PRO A 230      -2.390  24.398 -48.180  1.00 46.57 LIG 0.25  C 
ATOM     49 O    PRO A 230      -2.332  23.992 -47.025  1.00 46.08 LIG-0.27  OA
BRANCH 48 50
ATOM     50  CA  PRO A 230      -3.575  23.984 -49.087  1.00 51.04 LIG 0.35  C 
ATOM     51  N   PRO A 230      -4.169  22.708 -48.683  1.00 55.48 LIG 0.32  N 
ATOM     52  CD  PRO A 230      -5.329  22.903 -47.800  1.00 58.51 LIG 0.32  C 
ATOM     53  CG  PRO A 230      -5.904  24.192 -48.294  1.00 57.35 LIG 0.04  C 
ATOM     54  CB  PRO A 230      -4.764  24.967 -48.985  1.00 52.45 LIG 0.05  C 
ENDBRANCH 48 50
ENDBRANCH 44 46
ENDBRANCH 42 44
ENDBRANCH 35 37
ENDBRANCH 1 33
TORSDOF 19
ENDMDL
MODEL 5
USER: ADFR SOLUTION from run 73
USER: SCORE 21.388020 LL:  -6.297 LR: -17.763 RR:   0.000 FEB: -12.095
USER: RMSD 8.430613
USER: SEED 72
USER: STATUS no improvement in best in 6 clusters for 5 generations
USER: GENES 21
USER: genes 0 Translation |==|  0.35707 0.43799 0.76698
USER: genes 1 Rotation |==|  0.62116 0.88615 0.25637 0.66388
USER: genes 2 Torsion [C]-CA--CB-[CG] |==|  0.27205
USER: genes 3 Torsion [CA]-CB--CG-[CD] |==|  0.53734
USER: genes 4 Torsion [CB]-CG--CD-[OE1] |==|  0.61686
USER: genes 5 Torsion [N]-CA--C-[N] |==|  0.07748
USER: genes 6 Torsion [C]-N--CA-[CB] |==|  0.84444
USER: genes 7 Torsion [N]-CA--CB-[CG] |==|  0.41728
USER: genes 8 Torsion [CA]-CB--CG-[CD1] |==|  0.31070
USER: genes 9 Torsion [N]-CA--C-[N] |==|  0.32781
USER: genes 10 Torsion [C]-N--CA-[CB] |==|  0.18213
USER: genes 11 Torsion [N]-CA--C-[N] |==|  0.81784
USER: genes 12 Torsion [C]-N--CA-[C] |==|  0.24256
USER: genes 13 Torsion [N]-CA--C-[O] |==|  0.88120
USER: genes 14 Torsion [N]-CA--CB-[CG] |==|  0.62583
USER: genes 15 Torsion [CA]-CB--CG-[CD2] |==|  0.22587
USER: genes 16 Torsion [CB]-CA--N-[C] |==|  0.44618
USER: genes 17 Torsion [N]-C--CA-[N] |==|  0.94455
USER: genes 18 Torsion [N]-C--CA-[N] |==|  0.36754
USER: genes 19 Torsion [C]-CA--N-[C] |==|  0.83505
USER: genes 20 Torsion [N]-C--CA-[N] |==|  0.00804
ROOT
ATOM      1  CA  GLU A 233      -3.305  24.314 -43.834  1.00 24.61 LIG 0.18  C 
ENDROOT
BRANCH 1 2
ATOM      2  CB  GLU A 233      -4.637  23.815 -44.392  1.00 26.56 LIG 0.04  C 
BRANCH 2 3
ATOM      3  CG  GLU A 233      -5.605  23.388 -43.283  1.00 28.50 LIG 0.12  C 
BRANCH 3 4
ATOM      4  CD  GLU A 233      -6.786  22.603 -43.765  1.00 31.23 LIG 0.17  C 
ATOM      5 OE1  GLU A 233      -7.893  22.852 -43.291  1.00 40.78 LIG-0.65  OA
ATOM      6 OE2  GLU A 233      -6.624  21.762 -44.658  1.00 32.56 LIG-0.65  OA
ENDBRANCH 3 4
ENDBRANCH 2 3
ENDBRANCH 1 2
BRANCH 1 7
ATOM      7  C   GLU A 233      -2.231  23.221 -43.864  1.00 22.49 LIG 0.24  C 
ATOM      8  N   LEU A 234      -0.979  23.657 -43.994  1.00 21.03 LIG-0.35  N 
ATOM      9 H    LEU A 234      -0.762  24.487 -44.036  1.00 21.03 LIG 0.16  HD
ATOM     10 O    GLU A 233      -2.524  22.020 -43.829  1.00 21.03 LIG-0.27  OA
BRANCH 8 11
ATOM     11  CA  LEU A 234       0.154  22.730 -44.076  1.00 20.74 LIG 0.18  C 
BRANCH 11 12
ATOM     12  CB  LEU A 234       0.129  21.829 -42.840  1.00 23.04 LIG 0.04  C 
BRANCH 12 13
ATOM     13  CG  LEU A 234       0.737  20.448 -43.164  1.00 25.06 LIG-0.02  C 
ATOM     14  CD1 LEU A 234       2.069  20.227 -42.437  1.00 33.19 LIG 0.01  C 
ATOM     15  CD2 LEU A 234      -0.292  19.345 -42.868  1.00 27.29 LIG 0.01  C 
ENDBRANCH 12 13
ENDBRANCH 11 12
BRANCH 11 16
ATOM     16  C   LEU A 234       0.108  21.920 -45.371  1.00 18.65 LIG 0.24  C 
ATOM     17 O    LEU A 234      -0.806  21.127 -45.555  1.00 20.08 LIG-0.27  OA
ATOM     18  N   LEU A 235       1.130  22.073 -46.221  1.00 16.33 LIG-0.35  N 
ATOM     19 H    LEU A 235       1.844  22.515 -46.034  1.00 16.33 LIG 0.16  HD
BRANCH 18 20
ATOM     20  CA  LEU A 235       1.119  21.496 -47.553  1.00 16.00 LIG 0.18  C 
BRANCH 20 21
ATOM     21  C   LEU A 235       2.476  21.584 -48.264  1.00 15.60 LIG 0.24  C 
ATOM     22 O    LEU A 235       3.099  20.586 -48.529  1.00 16.00 LIG-0.27  OA
ATOM     23  N   GLY A 236       2.928  22.785 -48.567  1.00 15.05 LIG-0.35  N 
ATOM     24 H    GLY A 236       2.512  23.522 -48.410  1.00 15.05 LIG 0.16  HD
BRANCH 23 25
ATOM     25  CA  GLY A 236       4.249  22.932 -49.227  1.00 15.88 LIG 0.23  C 
BRANCH 25 26
ATOM     26  C   GLY A 236       4.141  22.840 -50.724  1.00 16.68 LIG 0.19  C 
ATOM     27 O    GLY A 236       3.420  21.981 -51.240  1.00 18.78 LIG-0.65  OA
ATOM     28 OXT  GLY A 236       4.773  23.602 -51.453  1.00 16.61 LIG-0.65  OA
ENDBRANCH 25 26
ENDBRANCH 23 25
ENDBRANCH 20 21
BRANCH 20 29
ATOM     29  CB  LEU A 235       0.014  22.152 -48.410  1.00 17.17 LIG 0.04  C 
BRANCH 29 30
ATOM     30  CG  LEU A 235      -0.879  21.229 -49.248  1.00 20.01 LIG-0.02  C 
ATOM     31  CD1 LEU A 235      -0.088  20.155 -49.846  1.00 21.18 LIG 0.01  C 
ATOM     32  CD2 LEU A 235      -1.992  20.630 -48.359  1.00 23.81 LIG 0.01  C 
ENDBRANCH 29 30
ENDBRANCH 20 29
ENDBRANCH 18 20
ENDBRANCH 11 16
ENDBRANCH 8 11
ENDBRANCH 1 7
BRANCH 1 33
ATOM     33  N   GLU A 233      -2.802  25.461 -44.595  1.00 26.21 LIG-0.35  N 
ATOM     34 H    GLU A 233      -3.146  25.543 -45.379  1.00 26.21 LIG 0.16  HD
ATOM     35  C   PRO A 232      -1.892  26.290 -44.099  1.00 29.12 LIG 0.24  C 
ATOM     36 O    PRO A 232      -1.480  26.246 -42.931  1.00 29.57 LIG-0.27  OA
BRANCH 35 37
ATOM     37  CA  PRO A 232      -1.375  27.362 -45.060  1.00 32.50 LIG 0.18  C 
ATOM     38  CB  PRO A 232      -2.155  28.665 -44.847  1.00 34.03 LIG 0.04  C 
ATOM     39  CG  PRO A 232      -2.540  29.155 -46.192  1.00 39.71 LIG 0.02  C 
ATOM     40  CD  PRO A 232      -2.182  28.153 -47.232  1.00 41.14 LIG 0.13  C 
ATOM     41  N   PRO A 232      -1.601  27.034 -46.465  1.00 36.81 LIG-0.34  N 
ATOM     42  C   ALA A 231      -1.110  25.886 -46.961  1.00 38.01 LIG 0.24  C 
ATOM     43 O    ALA A 231      -0.523  25.063 -46.262  1.00 37.25 LIG-0.27  OA
BRANCH 42 44
ATOM     44  CA  ALA A 231      -1.347  25.600 -48.431  1.00 42.70 LIG 0.17  C 
ATOM     45  CB  ALA A 231      -2.426  24.543 -48.567  1.00 44.12 LIG 0.04  C 
BRANCH 44 46
ATOM     46  N   ALA A 231      -0.110  25.173 -49.093  1.00 44.69 LIG-0.35  N 
ATOM     47 H    ALA A 231      -0.149  24.392 -49.451  1.00 44.69 LIG 0.16  HD
ATOM     48  C   PRO A 230       0.970  25.952 -49.123  1.00 46.57 LIG 0.25  C 
ATOM     49 O    PRO A 230       1.071  26.967 -48.443  1.00 46.08 LIG-0.27  OA
BRANCH 48 50
ATOM     50  CA  PRO A 230       2.117  25.547 -50.082  1.00 51.04 LIG 0.35  C 
ATOM     51  N   PRO A 230       1.788  24.364 -50.879  1.00 55.48 LIG 0.32  N 
ATOM     52  CD  PRO A 230       1.245  24.729 -52.197  1.00 58.51 LIG 0.32  C 
ATOM     53  CG  PRO A 230       1.960  26.007 -52.503  1.00 57.35 LIG 0.04  C 
ATOM     54  CB  PRO A 230       2.392  26.624 -51.158  1.00 52.45 LIG 0.05  C 
ENDBRANCH 48 50
ENDBRANCH 44 46
ENDBRANCH 42 44
ENDBRANCH 35 37
ENDBRANCH 1 33
TORSDOF 19
ENDMDL
MODEL 6
USER: ADFR SOLUTION from run 115
USER: SCORE 20.538250 LL:  -5.164 LR: -17.638 RR:   0.000 FEB: -11.971
USER: RMSD 7.693626
USER: SEED 114
USER: STATUS no improvement in best in 9 clusters for 5 generations
USER: GENES 21
USER: genes 0 Translation |==|  0.35066 0.41140 0.76599
USER: genes 1 Rotation |==|  0.65901 0.91336 0.28482 0.58686
USER: genes 2 Torsion [C]-CA--CB-[CG] |==|  0.27187
USER: genes 3 Torsion [CA]-CB--CG-[CD] |==|  0.57924
USER: genes 4 Torsion [CB]-CG--CD-[OE1] |==|  0.64822
USER: genes 5 Torsion [N]-CA--C-[N] |==|  0.16363
USER: genes 6 Torsion [C]-N--CA-[CB] |==|  0.74813
USER: genes 7 Torsion [N]-CA--CB-[CG] |==|  0.75076
USER: genes 8 Torsion [CA]-CB--CG-[CD1] |==|  0.79699
USER: genes 9 Torsion [N]-CA--C-[N] |==|  0.20631
USER: genes 10 Torsion [C]-N--CA-[CB] |==|  0.79091
USER: genes 11 Torsion [N]-CA--C-[N] |==|  0.18625
USER: genes 12 Torsion [C]-N--CA-[C] |==|  0.53429
USER: genes 13 Torsion [N]-CA--C-[O] |==|  0.89753
USER: genes 14 Torsion [N]-CA--CB-[CG] |==|  0.77990
USER: genes 15 Torsion [CA]-CB--CG-[CD2] |==|  0.17255
USER: genes 16 Torsion [CB]-CA--N-[C] |==|  0.47223
USER: genes 17 Torsion [N]-C--CA-[N] |==|  0.86773
USER: genes 18 Torsion [N]-C--CA-[N] |==|  0.36781
USER: genes 19 Torsion [C]-CA--N-[C] |==|  0.86007
USER: genes 20 Torsion [N]-C--CA-[N] |==|  0.63502
ROOT
ATOM      1  CA  GLU A 233      -3.459  23.816 -43.857  1.00 24.61 LIG 0.18  C 
ENDROOT
BRANCH 1 2
ATOM      2  CB  GLU A 233      -4.934  23.735 -44.247  1.00 26.56 LIG 0.04  C 
BRANCH 2 3
ATOM      3  CG  GLU A 233      -5.804  23.193 -43.108  1.00 28.50 LIG 0.12  C 
BRANCH 3 4
ATOM      4  CD  GLU A 233      -7.036  22.472 -43.563  1.00 31.23 LIG 0.17  C 
ATOM      5 OE1  GLU A 233      -8.125  22.822 -43.113  1.00 40.78 LIG-0.65  OA
ATOM      6 OE2  GLU A 233      -6.929  21.579 -44.413  1.00 32.56 LIG-0.65  OA
ENDBRANCH 3 4
ENDBRANCH 2 3
ENDBRANCH 1 2
BRANCH 1 7
ATOM      7  C   GLU A 233      -2.670  22.602 -44.362  1.00 22.49 LIG 0.24  C 
ATOM      8  N   LEU A 234      -1.381  22.582 -44.030  1.00 21.03 LIG-0.35  N 
ATOM      9 H    LEU A 234      -1.001  23.184 -43.548  1.00 21.03 LIG 0.16  HD
ATOM     10 O    GLU A 233      -3.194  21.738 -45.077  1.00 21.03 LIG-0.27  OA
BRANCH 8 11
ATOM     11  CA  LEU A 234      -0.488  21.506 -44.471  1.00 20.74 LIG 0.18  C 
BRANCH 11 12
ATOM     12  CB  LEU A 234      -0.503  20.404 -43.410  1.00 23.04 LIG 0.04  C 
BRANCH 12 13
ATOM     13  CG  LEU A 234       0.593  20.656 -42.353  1.00 25.06 LIG-0.02  C 
ATOM     14  CD1 LEU A 234       1.994  20.368 -42.904  1.00 33.19 LIG 0.01  C 
ATOM     15  CD2 LEU A 234       0.456  22.082 -41.793  1.00 27.29 LIG 0.01  C 
ENDBRANCH 12 13
ENDBRANCH 11 12
BRANCH 11 16
ATOM     16  C   LEU A 234      -0.902  20.978 -45.844  1.00 18.65 LIG 0.24  C 
ATOM     17 O    LEU A 234      -1.399  19.864 -45.939  1.00 20.08 LIG-0.27  OA
ATOM     18  N   LEU A 235      -0.628  21.752 -46.901  1.00 16.33 LIG-0.35  N 
ATOM     19 H    LEU A 235      -0.151  22.467 -46.858  1.00 16.33 LIG 0.16  HD
BRANCH 18 20
ATOM     20  CA  LEU A 235      -1.122  21.445 -48.231  1.00 16.00 LIG 0.18  C 
BRANCH 20 21
ATOM     21  C   LEU A 235      -2.625  21.140 -48.265  1.00 15.60 LIG 0.24  C 
ATOM     22 O    LEU A 235      -3.024  20.034 -48.535  1.00 16.00 LIG-0.27  OA
ATOM     23  N   GLY A 236      -3.454  22.128 -47.991  1.00 15.05 LIG-0.35  N 
ATOM     24 H    GLY A 236      -3.215  22.927 -47.779  1.00 15.05 LIG 0.16  HD
BRANCH 23 25
ATOM     25  CA  GLY A 236      -4.920  21.898 -48.039  1.00 15.88 LIG 0.23  C 
BRANCH 25 26
ATOM     26  C   GLY A 236      -5.692  23.187 -47.994  1.00 16.68 LIG 0.19  C 
ATOM     27 O    GLY A 236      -5.293  24.124 -47.295  1.00 18.78 LIG-0.65  OA
ATOM     28 OXT  GLY A 236      -6.732  23.325 -48.635  1.00 16.61 LIG-0.65  OA
ENDBRANCH 25 26
ENDBRANCH 23 25
ENDBRANCH 20 21
BRANCH 20 29
ATOM     29  CB  LEU A 235      -0.317  20.277 -48.842  1.00 17.17 LIG 0.04  C 
BRANCH 29 30
ATOM     30  CG  LEU A 235       1.061  20.596 -49.435  1.00 20.01 LIG-0.02  C 
ATOM     31  CD1 LEU A 235       0.941  21.580 -50.509  1.00 21.18 LIG 0.01  C 
ATOM     32  CD2 LEU A 235       1.995  21.136 -48.328  1.00 23.81 LIG 0.01  C 
ENDBRANCH 29 30
ENDBRANCH 20 29
ENDBRANCH 18 20
ENDBRANCH 11 16
ENDBRANCH 8 11
ENDBRANCH 1 7
BRANCH 1 33
ATOM     33  N   GLU A 233      -2.827  25.021 -44.400  1.00 26.21 LIG-0.35  N 
ATOM     34 H    GLU A 233      -3.311  25.449 -44.968  1.00 26.21 LIG 0.16  HD
ATOM     35  C   PRO A 232      -1.610  25.403 -44.034  1.00 29.12 LIG 0.24  C 
ATOM     36 O    PRO A 232      -0.956  24.859 -43.131  1.00 29.57 LIG-0.27  OA
BRANCH 35 37
ATOM     37  CA  PRO A 232      -1.038  26.608 -44.782  1.00 32.50 LIG 0.18  C 
ATOM     38  CB  PRO A 232      -1.827  27.869 -44.408  1.00 34.03 LIG 0.04  C 
ATOM     39  CG  PRO A 232      -2.134  28.570 -45.677  1.00 39.71 LIG 0.02  C 
ATOM     40  CD  PRO A 232      -1.720  27.742 -46.842  1.00 41.14 LIG 0.13  C 
ATOM     41  N   PRO A 232      -1.185  26.509 -46.232  1.00 36.81 LIG-0.34  N 
ATOM     42  C   ALA A 231      -0.668  25.449 -46.876  1.00 38.01 LIG 0.24  C 
ATOM     43 O    ALA A 231      -0.123  24.520 -46.285  1.00 37.25 LIG-0.27  OA
BRANCH 42 44
ATOM     44  CA  ALA A 231      -0.823  25.402 -48.383  1.00 42.70 LIG 0.17  C 
ATOM     45  CB  ALA A 231      -1.896  24.393 -48.745  1.00 44.12 LIG 0.04  C 
BRANCH 44 46
ATOM     46  N   ALA A 231       0.448  25.071 -49.035  1.00 44.69 LIG-0.35  N 
ATOM     47 H    ALA A 231       0.398  24.431 -49.608  1.00 44.69 LIG 0.16  HD
ATOM     48  C   PRO A 230       1.572  25.724 -48.746  1.00 46.57 LIG 0.25  C 
ATOM     49 O    PRO A 230       1.664  26.489 -47.792  1.00 46.08 LIG-0.27  OA
BRANCH 48 50
ATOM     50  CA  PRO A 230       2.787  25.505 -49.682  1.00 51.04 LIG 0.35  C 
ATOM     51  N   PRO A 230       4.016  25.208 -48.944  1.00 55.48 LIG 0.32  N 
ATOM     52  CD  PRO A 230       4.247  23.759 -48.834  1.00 58.51 LIG 0.32  C 
ATOM     53  CG  PRO A 230       3.662  23.236 -50.107  1.00 57.35 LIG 0.04  C 
ATOM     54  CB  PRO A 230       2.616  24.263 -50.586  1.00 52.45 LIG 0.05  C 
ENDBRANCH 48 50
ENDBRANCH 44 46
ENDBRANCH 42 44
ENDBRANCH 35 37
ENDBRANCH 1 33
TORSDOF 19
ENDMDL
MODEL 7
USER: ADFR SOLUTION from run 195
USER: SCORE 18.519953 LL:  -4.574 LR: -17.490 RR:   0.000 FEB: -11.822
USER: RMSD 8.272919
USER: SEED 194
USER: STATUS no improvement in best in 5 clusters for 5 generations
USER: GENES 21
USER: genes 0 Translation |==|  0.33702 0.41039 0.74707
USER: genes 1 Rotation |==|  0.67153 0.87449 0.29044 0.69083
USER: genes 2 Torsion [C]-CA--CB-[CG] |==|  0.34950
USER: genes 3 Torsion [CA]-CB--CG-[CD] |==|  0.71516
USER: genes 4 Torsion [CB]-CG--CD-[OE1] |==|  0.47065
USER: genes 5 Torsion [N]-CA--C-[N] |==|  0.98890
USER: genes 6 Torsion [C]-N--CA-[CB] |==|  0.92036
USER: genes 7 Torsion [N]-CA--CB-[CG] |==|  0.67961
USER: genes 8 Torsion [CA]-CB--CG-[CD1] |==|  0.80372
USER: genes 9 Torsion [N]-CA--C-[N] |==|  0.89986
USER: genes 10 Torsion [C]-N--CA-[CB] |==|  0.53347
USER: genes 11 Torsion [N]-CA--C-[N] |==|  0.91176
USER: genes 12 Torsion [C]-N--CA-[C] |==|  0.84895
USER: genes 13 Torsion [N]-CA--C-[O] |==|  0.86511
USER: genes 14 Torsion [N]-CA--CB-[CG] |==|  0.14069
USER: genes 15 Torsion [CA]-CB--CG-[CD2] |==|  0.65583
USER: genes 16 Torsion [CB]-CA--N-[C] |==|  0.50456
USER: genes 17 Torsion [N]-C--CA-[N] |==|  0.90348
USER: genes 18 Torsion [N]-C--CA-[N] |==|  0.34170
USER: genes 19 Torsion [C]-CA--N-[C] |==|  0.86306
USER: genes 20 Torsion [N]-C--CA-[N] |==|  0.64797
ROOT
ATOM      1  CA  GLU A 233      -3.787  23.797 -44.297  1.00 24.61 LIG 0.18  C 
ENDROOT
BRANCH 1 2
ATOM      2  CB  GLU A 233      -4.978  23.476 -45.198  1.00 26.56 LIG 0.04  C 
BRANCH 2 3
ATOM      3  CG  GLU A 233      -6.317  23.677 -44.479  1.00 28.50 LIG 0.12  C 
BRANCH 3 4
ATOM      4  CD  GLU A 233      -6.968  22.407 -44.025  1.00 31.23 LIG 0.17  C 
ATOM      5 OE1  GLU A 233      -7.938  22.478 -43.273  1.00 40.78 LIG-0.65  OA
ATOM      6 OE2  GLU A 233      -6.545  21.327 -44.456  1.00 32.56 LIG-0.65  OA
ENDBRANCH 3 4
ENDBRANCH 2 3
ENDBRANCH 1 2
BRANCH 1 7
ATOM      7  C   GLU A 233      -2.796  22.629 -44.227  1.00 22.49 LIG 0.24  C 
ATOM      8  N   LEU A 234      -1.569  22.895 -44.672  1.00 21.03 LIG-0.35  N 
ATOM      9 H    LEU A 234      -1.321  23.665 -44.960  1.00 21.03 LIG 0.16  HD
ATOM     10 O    GLU A 233      -3.141  21.506 -43.837  1.00 21.03 LIG-0.27  OA
BRANCH 8 11
ATOM     11  CA  LEU A 234      -0.522  21.869 -44.704  1.00 20.74 LIG 0.18  C 
BRANCH 11 12
ATOM     12  CB  LEU A 234      -0.801  20.862 -43.588  1.00 23.04 LIG 0.04  C 
BRANCH 12 13
ATOM     13  CG  LEU A 234       0.325  20.896 -42.533  1.00 25.06 LIG-0.02  C 
ATOM     14  CD1 LEU A 234       1.631  20.302 -43.074  1.00 33.19 LIG 0.01  C 
ATOM     15  CD2 LEU A 234       0.499  22.331 -42.005  1.00 27.29 LIG 0.01  C 
ENDBRANCH 12 13
ENDBRANCH 11 12
BRANCH 11 16
ATOM     16  C   LEU A 234      -0.456  21.196 -46.074  1.00 18.65 LIG 0.24  C 
ATOM     17 O    LEU A 234       0.632  20.918 -46.559  1.00 20.08 LIG-0.27  OA
ATOM     18  N   LEU A 235      -1.616  21.006 -46.715  1.00 16.33 LIG-0.35  N 
ATOM     19 H    LEU A 235      -2.367  21.329 -46.447  1.00 16.33 LIG 0.16  HD
BRANCH 18 20
ATOM     20  CA  LEU A 235      -1.704  20.227 -47.936  1.00 16.00 LIG 0.18  C 
BRANCH 20 21
ATOM     21  C   LEU A 235      -0.576  20.530 -48.932  1.00 15.60 LIG 0.24  C 
ATOM     22 O    LEU A 235      -0.152  19.671 -49.665  1.00 16.00 LIG-0.27  OA
ATOM     23  N   GLY A 236      -0.092  21.757 -48.950  1.00 15.05 LIG-0.35  N 
ATOM     24 H    GLY A 236      -0.373  22.404 -48.458  1.00 15.05 LIG 0.16  HD
BRANCH 23 25
ATOM     25  CA  GLY A 236       1.020  22.099 -49.872  1.00 15.88 LIG 0.23  C 
BRANCH 25 26
ATOM     26  C   GLY A 236       2.197  21.181 -49.696  1.00 16.68 LIG 0.19  C 
ATOM     27 O    GLY A 236       2.637  20.949 -48.565  1.00 18.78 LIG-0.65  OA
ATOM     28 OXT  GLY A 236       2.745  20.661 -50.665  1.00 16.61 LIG-0.65  OA
ENDBRANCH 25 26
ENDBRANCH 23 25
ENDBRANCH 20 21
BRANCH 20 29
ATOM     29  CB  LEU A 235      -3.083  20.431 -48.601  1.00 17.17 LIG 0.04  C 
BRANCH 29 30
ATOM     30  CG  LEU A 235      -3.563  21.872 -48.816  1.00 20.01 LIG-0.02  C 
ATOM     31  CD1 LEU A 235      -3.664  22.170 -50.244  1.00 21.18 LIG 0.01  C 
ATOM     32  CD2 LEU A 235      -4.936  22.073 -48.138  1.00 23.81 LIG 0.01  C 
ENDBRANCH 29 30
ENDBRANCH 20 29
ENDBRANCH 18 20
ENDBRANCH 11 16
ENDBRANCH 8 11
ENDBRANCH 1 7
BRANCH 1 33
ATOM     33  N   GLU A 233      -3.058  24.977 -44.771  1.00 26.21 LIG-0.35  N 
ATOM     34 H    GLU A 233      -3.399  25.345 -45.469  1.00 26.21 LIG 0.16  HD
ATOM     35  C   PRO A 232      -1.967  25.422 -44.161  1.00 29.12 LIG 0.24  C 
ATOM     36 O    PRO A 232      -1.538  24.968 -43.090  1.00 29.57 LIG-0.27  OA
BRANCH 35 37
ATOM     37  CA  PRO A 232      -1.249  26.584 -44.848  1.00 32.50 LIG 0.18  C 
ATOM     38  CB  PRO A 232      -1.952  27.903 -44.501  1.00 34.03 LIG 0.04  C 
ATOM     39  CG  PRO A 232      -2.117  28.645 -45.774  1.00 39.71 LIG 0.02  C 
ATOM     40  CD  PRO A 232      -1.699  27.800 -46.925  1.00 41.14 LIG 0.13  C 
ATOM     41  N   PRO A 232      -1.310  26.518 -46.307  1.00 36.81 LIG-0.34  N 
ATOM     42  C   ALA A 231      -0.843  25.427 -46.937  1.00 38.01 LIG 0.24  C 
ATOM     43 O    ALA A 231      -0.417  24.447 -46.331  1.00 37.25 LIG-0.27  OA
BRANCH 42 44
ATOM     44  CA  ALA A 231      -0.903  25.415 -48.452  1.00 42.70 LIG 0.17  C 
ATOM     45  CB  ALA A 231      -1.869  24.337 -48.905  1.00 44.12 LIG 0.04  C 
BRANCH 44 46
ATOM     46  N   ALA A 231       0.427  25.203 -49.033  1.00 44.69 LIG-0.35  N 
ATOM     47 H    ALA A 231       0.459  24.589 -49.634  1.00 44.69 LIG 0.16  HD
ATOM     48  C   PRO A 230       1.480  25.919 -48.642  1.00 46.57 LIG 0.25  C 
ATOM     49 O    PRO A 230       1.457  26.643 -47.653  1.00 46.08 LIG-0.27  OA
BRANCH 48 50
ATOM     50  CA  PRO A 230       2.764  25.830 -49.505  1.00 51.04 LIG 0.35  C 
ATOM     51  N   PRO A 230       3.945  25.476 -48.715  1.00 55.48 LIG 0.32  N 
ATOM     52  CD  PRO A 230       4.208  24.029 -48.748  1.00 58.51 LIG 0.32  C 
ATOM     53  CG  PRO A 230       3.729  23.640 -50.110  1.00 57.35 LIG 0.04  C 
ATOM     54  CB  PRO A 230       2.692  24.692 -50.550  1.00 52.45 LIG 0.05  C 
ENDBRANCH 48 50
ENDBRANCH 44 46
ENDBRANCH 42 44
ENDBRANCH 35 37
ENDBRANCH 1 33
TORSDOF 19
ENDMDL
MODEL 8
USER: ADFR SOLUTION from run 74
USER: SCORE 19.793008 LL:  -6.018 LR: -17.467 RR:   0.000 FEB: -11.799
USER: RMSD 7.584220
USER: SEED 73
USER: STATUS 1 or 2 clusters left
USER: GENES 21
USER: genes 0 Translation |==|  0.35739 0.41871 0.77413
USER: genes 1 Rotation |==|  0.37947 0.06499 0.71065 0.54318
USER: genes 2 Torsion [C]-CA--CB-[CG] |==|  0.91316
USER: genes 3 Torsion [CA]-CB--CG-[CD] |==|  0.38068
USER: genes 4 Torsion [CB]-CG--CD-[OE1] |==|  0.68891
USER: genes 5 Torsion [N]-CA--C-[N] |==|  0.93889
USER: genes 6 Torsion [C]-N--CA-[CB] |==|  0.49724
USER: genes 7 Torsion [N]-CA--CB-[CG] |==|  0.85147
USER: genes 8 Torsion [CA]-CB--CG-[CD1] |==|  0.36149
USER: genes 9 Torsion [N]-CA--C-[N] |==|  0.91151
USER: genes 10 Torsion [C]-N--CA-[CB] |==|  0.77720
USER: genes 11 Torsion [N]-CA--C-[N] |==|  0.08901
USER: genes 12 Torsion [C]-N--CA-[C] |==|  0.81595
USER: genes 13 Torsion [N]-CA--C-[O] |==|  0.12671
USER: genes 14 Torsion [N]-CA--CB-[CG] |==|  0.88146
USER: genes 15 Torsion [CA]-CB--CG-[CD2] |==|  0.68228
USER: genes 16 Torsion [CB]-CA--N-[C] |==|  0.41118
USER: genes 17 Torsion [N]-C--CA-[N] |==|  0.79131
USER: genes 18 Torsion [N]-C--CA-[N] |==|  0.19036
USER: genes 19 Torsion [C]-CA--N-[C] |==|  0.64157
USER: genes 20 Torsion [N]-C--CA-[N] |==|  0.19352
ROOT
ATOM      1  CA  GLU A 233      -3.298  23.953 -43.667  1.00 24.61 LIG 0.18  C 
ENDROOT
BRANCH 1 2
ATOM      2  CB  GLU A 233      -4.777  23.974 -43.288  1.00 26.56 LIG 0.04  C 
BRANCH 2 3
ATOM      3  CG  GLU A 233      -5.677  23.525 -44.444  1.00 28.50 LIG 0.12  C 
BRANCH 3 4
ATOM      4  CD  GLU A 233      -6.782  22.597 -44.040  1.00 31.23 LIG 0.17  C 
ATOM      5 OE1  GLU A 233      -6.744  21.430 -44.426  1.00 40.78 LIG-0.65  OA
ATOM      6 OE2  GLU A 233      -7.674  23.016 -43.292  1.00 32.56 LIG-0.65  OA
ENDBRANCH 3 4
ENDBRANCH 2 3
ENDBRANCH 1 2
BRANCH 1 7
ATOM      7  C   GLU A 233      -2.989  22.853 -44.690  1.00 22.49 LIG 0.24  C 
ATOM      8  N   LEU A 234      -2.873  23.265 -45.951  1.00 21.03 LIG-0.35  N 
ATOM      9 H    LEU A 234      -2.939  24.086 -46.195  1.00 21.03 LIG 0.16  HD
ATOM     10 O    GLU A 233      -2.914  21.662 -44.362  1.00 21.03 LIG-0.27  OA
BRANCH 8 11
ATOM     11  CA  LEU A 234      -2.616  22.326 -47.048  1.00 20.74 LIG 0.18  C 
BRANCH 11 12
ATOM     12  CB  LEU A 234      -2.564  23.116 -48.356  1.00 23.04 LIG 0.04  C 
BRANCH 12 13
ATOM     13  CG  LEU A 234      -3.837  23.972 -48.523  1.00 25.06 LIG-0.02  C 
ATOM     14  CD1 LEU A 234      -3.504  25.428 -48.867  1.00 33.19 LIG 0.01  C 
ATOM     15  CD2 LEU A 234      -4.772  23.316 -49.553  1.00 27.29 LIG 0.01  C 
ENDBRANCH 12 13
ENDBRANCH 11 12
BRANCH 11 16
ATOM     16  C   LEU A 234      -1.328  21.540 -46.806  1.00 18.65 LIG 0.24  C 
ATOM     17 O    LEU A 234      -1.257  20.371 -47.162  1.00 20.08 LIG-0.27  OA
ATOM     18  N   LEU A 235      -0.349  22.166 -46.141  1.00 16.33 LIG-0.35  N 
ATOM     19 H    LEU A 235      -0.444  22.932 -45.762  1.00 16.33 LIG 0.16  HD
BRANCH 18 20
ATOM     20  CA  LEU A 235       0.977  21.593 -46.000  1.00 16.00 LIG 0.18  C 
BRANCH 20 21
ATOM     21  C   LEU A 235       1.520  20.991 -47.304  1.00 15.60 LIG 0.24  C 
ATOM     22 O    LEU A 235       2.256  20.036 -47.282  1.00 16.00 LIG-0.27  OA
ATOM     23  N   GLY A 236       1.152  21.558 -48.436  1.00 15.05 LIG-0.35  N 
ATOM     24 H    GLY A 236       0.618  22.229 -48.500  1.00 15.05 LIG 0.16  HD
BRANCH 23 25
ATOM     25  CA  GLY A 236       1.670  21.037 -49.725  1.00 15.88 LIG 0.23  C 
BRANCH 25 26
ATOM     26  C   GLY A 236       3.153  21.246 -49.860  1.00 16.68 LIG 0.19  C 
ATOM     27 O    GLY A 236       3.904  20.977 -48.917  1.00 18.78 LIG-0.65  OA
ATOM     28 OXT  GLY A 236       3.638  21.696 -50.896  1.00 16.61 LIG-0.65  OA
ENDBRANCH 25 26
ENDBRANCH 23 25
ENDBRANCH 20 21
BRANCH 20 29
ATOM     29  CB  LEU A 235       0.986  20.539 -44.871  1.00 17.17 LIG 0.04  C 
BRANCH 29 30
ATOM     30  CG  LEU A 235       0.238  20.877 -43.576  1.00 20.01 LIG-0.02  C 
ATOM     31  CD1 LEU A 235      -0.753  19.846 -43.272  1.00 21.18 LIG 0.01  C 
ATOM     32  CD2 LEU A 235       1.242  21.002 -42.409  1.00 23.81 LIG 0.01  C 
ENDBRANCH 29 30
ENDBRANCH 20 29
ENDBRANCH 18 20
ENDBRANCH 11 16
ENDBRANCH 8 11
ENDBRANCH 1 7
BRANCH 1 33
ATOM     33  N   GLU A 233      -2.874  25.233 -44.242  1.00 26.21 LIG-0.35  N 
ATOM     34 H    GLU A 233      -3.487  25.642 -44.684  1.00 26.21 LIG 0.16  HD
ATOM     35  C   PRO A 232      -1.643  25.702 -44.081  1.00 29.12 LIG 0.24  C 
ATOM     36 O    PRO A 232      -0.791  25.177 -43.350  1.00 29.57 LIG-0.27  OA
BRANCH 35 37
ATOM     37  CA  PRO A 232      -1.316  26.986 -44.846  1.00 32.50 LIG 0.18  C 
ATOM     38  CB  PRO A 232      -2.512  27.945 -44.778  1.00 34.03 LIG 0.04  C 
ATOM     39  CG  PRO A 232      -2.737  28.443 -46.156  1.00 39.71 LIG 0.02  C 
ATOM     40  CD  PRO A 232      -1.851  27.731 -47.116  1.00 41.14 LIG 0.13  C 
ATOM     41  N   PRO A 232      -1.111  26.769 -46.276  1.00 36.81 LIG-0.34  N 
ATOM     42  C   ALA A 231      -0.172  25.899 -46.682  1.00 38.01 LIG 0.24  C 
ATOM     43 O    ALA A 231       0.489  25.226 -45.895  1.00 37.25 LIG-0.27  OA
BRANCH 42 44
ATOM     44  CA  ALA A 231       0.023  25.726 -48.176  1.00 42.70 LIG 0.17  C 
ATOM     45  CB  ALA A 231       0.910  24.522 -48.427  1.00 44.12 LIG 0.04  C 
BRANCH 44 46
ATOM     46  N   ALA A 231       0.596  26.933 -48.778  1.00 44.69 LIG-0.35  N 
ATOM     47 H    ALA A 231       1.302  27.227 -48.384  1.00 44.69 LIG 0.16  HD
ATOM     48  C   PRO A 230       0.049  27.507 -49.849  1.00 46.57 LIG 0.25  C 
ATOM     49 O    PRO A 230      -1.058  27.193 -50.272  1.00 46.08 LIG-0.27  OA
BRANCH 48 50
ATOM     50  CA  PRO A 230       0.877  28.592 -50.581  1.00 51.04 LIG 0.35  C 
ATOM     51  N   PRO A 230       2.039  28.035 -51.275  1.00 55.48 LIG 0.32  N 
ATOM     52  CD  PRO A 230       1.746  27.759 -52.691  1.00 58.51 LIG 0.32  C 
ATOM     53  CG  PRO A 230       0.760  28.829 -53.035  1.00 57.35 LIG 0.04  C 
ATOM     54  CB  PRO A 230       0.082  29.268 -51.722  1.00 52.45 LIG 0.05  C 
ENDBRANCH 48 50
ENDBRANCH 44 46
ENDBRANCH 42 44
ENDBRANCH 35 37
ENDBRANCH 1 33
TORSDOF 19
ENDMDL
MODEL 9
USER: ADFR SOLUTION from run 22
USER: SCORE 20.060747 LL:  -5.823 LR: -17.450 RR:   0.000 FEB: -11.782
USER: RMSD 7.796543
USER: SEED 21
USER: STATUS no improvement in best in 8 clusters for 5 generations
USER: GENES 21
USER: genes 0 Translation |==|  0.34701 0.40106 0.76120
USER: genes 1 Rotation |==|  0.66915 0.93777 0.32753 0.50025
USER: genes 2 Torsion [C]-CA--CB-[CG] |==|  0.23711
USER: genes 3 Torsion [CA]-CB--CG-[CD] |==|  0.60736
USER: genes 4 Torsion [CB]-CG--CD-[OE1] |==|  0.23629
USER: genes 5 Torsion [N]-CA--C-[N] |==|  0.82399
USER: genes 6 Torsion [C]-N--CA-[CB] |==|  0.53546
USER: genes 7 Torsion [N]-CA--CB-[CG] |==|  0.79533
USER: genes 8 Torsion [CA]-CB--CG-[CD1] |==|  0.89326
USER: genes 9 Torsion [N]-CA--C-[N] |==|  0.92543
USER: genes 10 Torsion [C]-N--CA-[CB] |==|  0.77748
USER: genes 11 Torsion [N]-CA--C-[N] |==|  0.06549
USER: genes 12 Torsion [C]-N--CA-[C] |==|  0.28412
USER: genes 13 Torsion [N]-CA--C-[O] |==|  0.44186
USER: genes 14 Torsion [N]-CA--CB-[CG] |==|  0.85279
USER: genes 15 Torsion [CA]-CB--CG-[CD2] |==|  0.68167
USER: genes 16 Torsion [CB]-CA--N-[C] |==|  0.47614
USER: genes 17 Torsion [N]-C--CA-[N] |==|  0.81929
USER: genes 18 Torsion [N]-C--CA-[N] |==|  0.39443
USER: genes 19 Torsion [C]-CA--N-[C] |==|  0.88838
USER: genes 20 Torsion [N]-C--CA-[N] |==|  0.57643
ROOT
ATOM      1  CA  GLU A 233      -3.547  23.622 -43.968  1.00 24.61 LIG 0.18  C 
ENDROOT
BRANCH 1 2
ATOM      2  CB  GLU A 233      -5.065  23.790 -43.992  1.00 26.56 LIG 0.04  C 
BRANCH 2 3
ATOM      3  CG  GLU A 233      -5.773  22.777 -43.086  1.00 28.50 LIG 0.12  C 
BRANCH 3 4
ATOM      4  CD  GLU A 233      -7.052  22.236 -43.649  1.00 31.23 LIG 0.17  C 
ATOM      5 OE1  GLU A 233      -7.000  21.276 -44.416  1.00 40.78 LIG-0.65  OA
ATOM      6 OE2  GLU A 233      -8.125  22.737 -43.290  1.00 32.56 LIG-0.65  OA
ENDBRANCH 3 4
ENDBRANCH 2 3
ENDBRANCH 1 2
BRANCH 1 7
ATOM      7  C   GLU A 233      -3.077  22.561 -44.971  1.00 22.49 LIG 0.24  C 
ATOM      8  N   LEU A 234      -3.390  22.801 -46.242  1.00 21.03 LIG-0.35  N 
ATOM      9 H    LEU A 234      -3.806  23.505 -46.509  1.00 21.03 LIG 0.16  HD
ATOM     10 O    GLU A 233      -2.500  21.530 -44.604  1.00 21.03 LIG-0.27  OA
BRANCH 8 11
ATOM     11  CA  LEU A 234      -3.043  21.861 -47.312  1.00 20.74 LIG 0.18  C 
BRANCH 11 12
ATOM     12  CB  LEU A 234      -3.247  22.564 -48.655  1.00 23.04 LIG 0.04  C 
BRANCH 12 13
ATOM     13  CG  LEU A 234      -4.751  22.702 -48.971  1.00 25.06 LIG-0.02  C 
ATOM     14  CD1 LEU A 234      -5.541  21.461 -48.539  1.00 33.19 LIG 0.01  C 
ATOM     15  CD2 LEU A 234      -5.295  23.999 -48.349  1.00 27.29 LIG 0.01  C 
ENDBRANCH 12 13
ENDBRANCH 11 12
BRANCH 11 16
ATOM     16  C   LEU A 234      -1.612  21.350 -47.150  1.00 18.65 LIG 0.24  C 
ATOM     17 O    LEU A 234      -1.323  20.227 -47.540  1.00 20.08 LIG-0.27  OA
ATOM     18  N   LEU A 235      -0.750  22.150 -46.510  1.00 16.33 LIG-0.35  N 
ATOM     19 H    LEU A 235      -0.980  22.874 -46.106  1.00 16.33 LIG 0.16  HD
BRANCH 18 20
ATOM     20  CA  LEU A 235       0.671  21.857 -46.444  1.00 16.00 LIG 0.18  C 
BRANCH 20 21
ATOM     21  C   LEU A 235       1.261  21.405 -47.786  1.00 15.60 LIG 0.24  C 
ATOM     22 O    LEU A 235       2.268  20.742 -47.826  1.00 16.00 LIG-0.27  OA
ATOM     23  N   GLY A 236       0.628  21.770 -48.884  1.00 15.05 LIG-0.35  N 
ATOM     24 H    GLY A 236      -0.100  22.228 -48.903  1.00 15.05 LIG 0.16  HD
BRANCH 23 25
ATOM     25  CA  GLY A 236       1.170  21.387 -50.212  1.00 15.88 LIG 0.23  C 
BRANCH 25 26
ATOM     26  C   GLY A 236       0.422  20.228 -50.810  1.00 16.68 LIG 0.19  C 
ATOM     27 O    GLY A 236       0.466  20.026 -52.028  1.00 18.78 LIG-0.65  OA
ATOM     28 OXT  GLY A 236      -0.250  19.477 -50.107  1.00 16.61 LIG-0.65  OA
ENDBRANCH 25 26
ENDBRANCH 23 25
ENDBRANCH 20 21
BRANCH 20 29
ATOM     29  CB  LEU A 235       0.947  20.804 -45.348  1.00 17.17 LIG 0.04  C 
BRANCH 29 30
ATOM     30  CG  LEU A 235       0.406  21.083 -43.941  1.00 20.01 LIG-0.02  C 
ATOM     31  CD1 LEU A 235      -0.446  19.983 -43.492  1.00 21.18 LIG 0.01  C 
ATOM     32  CD2 LEU A 235       1.581  21.274 -42.956  1.00 23.81 LIG 0.01  C 
ENDBRANCH 29 30
ENDBRANCH 20 29
ENDBRANCH 18 20
ENDBRANCH 11 16
ENDBRANCH 8 11
ENDBRANCH 1 7
BRANCH 1 33
ATOM     33  N   GLU A 233      -2.863  24.878 -44.290  1.00 26.21 LIG-0.35  N 
ATOM     34 H    GLU A 233      -3.386  25.505 -44.560  1.00 26.21 LIG 0.16  HD
ATOM     35  C   PRO A 232      -1.550  25.015 -44.167  1.00 29.12 LIG 0.24  C 
ATOM     36 O    PRO A 232      -0.807  24.156 -43.668  1.00 29.57 LIG-0.27  OA
BRANCH 35 37
ATOM     37  CA  PRO A 232      -0.970  26.341 -44.661  1.00 32.50 LIG 0.18  C 
ATOM     38  CB  PRO A 232      -1.753  27.508 -44.043  1.00 34.03 LIG 0.04  C 
ATOM     39  CG  PRO A 232      -2.056  28.449 -45.148  1.00 39.71 LIG 0.02  C 
ATOM     40  CD  PRO A 232      -1.645  27.866 -46.454  1.00 41.14 LIG 0.13  C 
ATOM     41  N   PRO A 232      -1.117  26.534 -46.102  1.00 36.81 LIG-0.34  N 
ATOM     42  C   ALA A 231      -0.606  25.620 -46.944  1.00 38.01 LIG 0.24  C 
ATOM     43 O    ALA A 231      -0.066  24.589 -46.550  1.00 37.25 LIG-0.27  OA
BRANCH 42 44
ATOM     44  CA  ALA A 231      -0.759  25.875 -48.430  1.00 42.70 LIG 0.17  C 
ATOM     45  CB  ALA A 231      -1.988  25.144 -48.938  1.00 44.12 LIG 0.04  C 
BRANCH 44 46
ATOM     46  N   ALA A 231       0.439  25.458 -49.165  1.00 44.69 LIG-0.35  N 
ATOM     47 H    ALA A 231       0.278  25.068 -49.916  1.00 44.69 LIG 0.16  HD
ATOM     48  C   PRO A 230       1.662  25.677 -48.687  1.00 46.57 LIG 0.25  C 
ATOM     49 O    PRO A 230       1.865  26.048 -47.537  1.00 46.08 LIG-0.27  OA
BRANCH 48 50
ATOM     50  CA  PRO A 230       2.855  25.468 -49.653  1.00 51.04 LIG 0.35  C 
ATOM     51  N   PRO A 230       4.086  25.100 -48.951  1.00 55.48 LIG 0.32  N 
ATOM     52  CD  PRO A 230       4.276  23.642 -48.912  1.00 58.51 LIG 0.32  C 
ATOM     53  CG  PRO A 230       3.656  23.197 -50.198  1.00 57.35 LIG 0.04  C 
ATOM     54  CB  PRO A 230       2.633  24.274 -50.611  1.00 52.45 LIG 0.05  C 
ENDBRANCH 48 50
ENDBRANCH 44 46
ENDBRANCH 42 44
ENDBRANCH 35 37
ENDBRANCH 1 33
TORSDOF 19
ENDMDL
MODEL 10
USER: ADFR SOLUTION from run 111
USER: SCORE 20.518475 LL:  -5.258 LR: -17.440 RR:   0.000 FEB: -11.772
USER: RMSD 9.057096
USER: SEED 110
USER: STATUS no improvement in best in 6 clusters for 5 generations
USER: GENES 21
USER: genes 0 Translation |==|  0.30314 0.37856 0.73456
USER: genes 1 Rotation |==|  0.33244 0.77607 0.15491 0.66315
USER: genes 2 Torsion [C]-CA--CB-[CG] |==|  0.59649
USER: genes 3 Torsion [CA]-CB--CG-[CD] |==|  0.77336
USER: genes 4 Torsion [CB]-CG--CD-[OE1] |==|  0.60779
USER: genes 5 Torsion [N]-CA--C-[N] |==|  0.43825
USER: genes 6 Torsion [C]-N--CA-[CB] |==|  0.86307
USER: genes 7 Torsion [N]-CA--CB-[CG] |==|  0.77526
USER: genes 8 Torsion [CA]-CB--CG-[CD1] |==|  0.41332
USER: genes 9 Torsion [N]-CA--C-[N] |==|  0.84464
USER: genes 10 Torsion [C]-N--CA-[CB] |==|  0.85556
USER: genes 11 Torsion [N]-CA--C-[N] |==|  0.12001
USER: genes 12 Torsion [C]-N--CA-[C] |==|  0.50819
USER: genes 13 Torsion [N]-CA--C-[O] |==|  0.94911
USER: genes 14 Torsion [N]-CA--CB-[CG] |==|  0.83500
USER: genes 15 Torsion [CA]-CB--CG-[CD2] |==|  0.59494
USER: genes 16 Torsion [CB]-CA--N-[C] |==|  0.52223
USER: genes 17 Torsion [N]-C--CA-[N] |==|  0.40968
USER: genes 18 Torsion [N]-C--CA-[N] |==|  0.88533
USER: genes 19 Torsion [C]-CA--N-[C] |==|  0.79592
USER: genes 20 Torsion [N]-C--CA-[N] |==|  0.52136
ROOT
ATOM      1  CA  GLU A 233      -4.600  23.200 -44.587  1.00 24.61 LIG 0.18  C 
ENDROOT
BRANCH 1 2
ATOM      2  CB  GLU A 233      -5.160  22.148 -43.632  1.00 26.56 LIG 0.04  C 
BRANCH 2 3
ATOM      3  CG  GLU A 233      -6.562  21.684 -44.041  1.00 28.50 LIG 0.12  C 
BRANCH 3 4
ATOM      4  CD  GLU A 233      -7.665  22.599 -43.605  1.00 31.23 LIG 0.17  C 
ATOM      5 OE1  GLU A 233      -8.720  22.105 -43.210  1.00 40.78 LIG-0.65  OA
ATOM      6 OE2  GLU A 233      -7.469  23.820 -43.608  1.00 32.56 LIG-0.65  OA
ENDBRANCH 3 4
ENDBRANCH 2 3
ENDBRANCH 1 2
BRANCH 1 7
ATOM      7  C   GLU A 233      -3.083  23.059 -44.762  1.00 22.49 LIG 0.24  C 
ATOM      8  N   LEU A 234      -2.346  23.569 -43.777  1.00 21.03 LIG-0.35  N 
ATOM      9 H    LEU A 234      -2.676  23.936 -43.073  1.00 21.03 LIG 0.16  HD
ATOM     10 O    GLU A 233      -2.590  22.555 -45.779  1.00 21.03 LIG-0.27  OA
BRANCH 8 11
ATOM     11  CA  LEU A 234      -0.881  23.544 -43.819  1.00 20.74 LIG 0.18  C 
BRANCH 11 12
ATOM     12  CB  LEU A 234      -0.434  22.123 -44.164  1.00 23.04 LIG 0.04  C 
BRANCH 12 13
ATOM     13  CG  LEU A 234      -0.460  21.227 -42.908  1.00 25.06 LIG-0.02  C 
ATOM     14  CD1 LEU A 234      -0.781  19.768 -43.255  1.00 33.19 LIG 0.01  C 
ATOM     15  CD2 LEU A 234       0.861  21.377 -42.135  1.00 27.29 LIG 0.01  C 
ENDBRANCH 12 13
ENDBRANCH 11 12
BRANCH 11 16
ATOM     16  C   LEU A 234      -0.343  24.567 -44.818  1.00 18.65 LIG 0.24  C 
ATOM     17 O    LEU A 234       0.405  25.455 -44.431  1.00 20.08 LIG-0.27  OA
ATOM     18  N   LEU A 235      -0.786  24.478 -46.078  1.00 16.33 LIG-0.35  N 
ATOM     19 H    LEU A 235      -1.420  23.952 -46.325  1.00 16.33 LIG 0.16  HD
BRANCH 18 20
ATOM     20  CA  LEU A 235      -0.223  25.276 -47.152  1.00 16.00 LIG 0.18  C 
BRANCH 20 21
ATOM     21  C   LEU A 235       1.181  24.824 -47.574  1.00 15.60 LIG 0.24  C 
ATOM     22 O    LEU A 235       2.052  25.631 -47.787  1.00 16.00 LIG-0.27  OA
ATOM     23  N   GLY A 236       1.393  23.527 -47.694  1.00 15.05 LIG-0.35  N 
ATOM     24 H    GLY A 236       0.808  22.917 -47.537  1.00 15.05 LIG 0.16  HD
BRANCH 23 25
ATOM     25  CA  GLY A 236       2.724  23.034 -48.128  1.00 15.88 LIG 0.23  C 
BRANCH 25 26
ATOM     26  C   GLY A 236       2.747  21.537 -48.273  1.00 16.68 LIG 0.19  C 
ATOM     27 O    GLY A 236       1.876  20.850 -47.731  1.00 18.78 LIG-0.65  OA
ATOM     28 OXT  GLY A 236       3.632  20.977 -48.916  1.00 16.61 LIG-0.65  OA
ENDBRANCH 25 26
ENDBRANCH 23 25
ENDBRANCH 20 21
BRANCH 20 29
ATOM     29  CB  LEU A 235      -0.216  26.770 -46.759  1.00 17.17 LIG 0.04  C 
BRANCH 29 30
ATOM     30  CG  LEU A 235      -1.563  27.426 -46.431  1.00 20.01 LIG-0.02  C 
ATOM     31  CD1 LEU A 235      -1.831  27.356 -44.996  1.00 21.18 LIG 0.01  C 
ATOM     32  CD2 LEU A 235      -1.554  28.900 -46.894  1.00 23.81 LIG 0.01  C 
ENDBRANCH 29 30
ENDBRANCH 20 29
ENDBRANCH 18 20
ENDBRANCH 11 16
ENDBRANCH 8 11
ENDBRANCH 1 7
BRANCH 1 33
ATOM     33  N   GLU A 233      -5.216  23.101 -45.914  1.00 26.21 LIG-0.35  N 
ATOM     34 H    GLU A 233      -5.877  22.552 -45.957  1.00 26.21 LIG 0.16  HD
ATOM     35  C   PRO A 232      -4.777  23.807 -46.947  1.00 29.12 LIG 0.24  C 
ATOM     36 O    PRO A 232      -3.904  24.684 -46.866  1.00 29.57 LIG-0.27  OA
BRANCH 35 37
ATOM     37  CA  PRO A 232      -5.439  23.501 -48.291  1.00 32.50 LIG 0.18  C 
ATOM     38  CB  PRO A 232      -4.572  22.511 -49.080  1.00 34.03 LIG 0.04  C 
ATOM     39  CG  PRO A 232      -4.463  23.044 -50.458  1.00 39.71 LIG 0.02  C 
ATOM     40  CD  PRO A 232      -5.083  24.394 -50.543  1.00 41.14 LIG 0.13  C 
ATOM     41  N   PRO A 232      -5.536  24.667 -49.166  1.00 36.81 LIG-0.34  N 
ATOM     42  C   ALA A 231      -6.174  25.766 -48.730  1.00 38.01 LIG 0.24  C 
ATOM     43 O    ALA A 231      -6.634  25.855 -47.594  1.00 37.25 LIG-0.27  OA
BRANCH 42 44
ATOM     44  CA  ALA A 231      -6.272  26.943 -49.681  1.00 42.70 LIG 0.17  C 
ATOM     45  CB  ALA A 231      -7.419  26.711 -50.646  1.00 44.12 LIG 0.04  C 
BRANCH 44 46
ATOM     46  N   ALA A 231      -5.013  27.146 -50.403  1.00 44.69 LIG-0.35  N 
ATOM     47 H    ALA A 231      -5.035  26.910 -51.230  1.00 44.69 LIG 0.16  HD
ATOM     48  C   PRO A 230      -3.939  27.658 -49.804  1.00 46.57 LIG 0.25  C 
ATOM     49 O    PRO A 230      -3.867  27.800 -48.588  1.00 46.08 LIG-0.27  OA
BRANCH 48 50
ATOM     50  CA  PRO A 230      -2.761  28.102 -50.706  1.00 51.04 LIG 0.35  C 
ATOM     51  N   PRO A 230      -1.575  28.477 -49.933  1.00 55.48 LIG 0.32  N 
ATOM     52  CD  PRO A 230      -0.633  27.354 -49.803  1.00 58.51 LIG 0.32  C 
ATOM     53  CG  PRO A 230      -0.829  26.612 -51.086  1.00 57.35 LIG 0.04  C 
ATOM     54  CB  PRO A 230      -2.242  26.954 -51.602  1.00 52.45 LIG 0.05  C 
ENDBRANCH 48 50
ENDBRANCH 44 46
ENDBRANCH 42 44
ENDBRANCH 35 37
ENDBRANCH 1 33
TORSDOF 19
ENDMDL
MODEL 11
USER: ADFR SOLUTION from run 186
USER: SCORE 19.366005 LL:  -5.190 LR: -17.330 RR:   0.000 FEB: -11.662
USER: RMSD 8.868591
USER: SEED 185
USER: STATUS no improvement in best in 3 clusters for 5 generations
USER: GENES 21
USER: genes 0 Translation |==|  0.55688 0.32398 0.56296
USER: genes 1 Rotation |==|  0.33304 0.54523 0.83378 0.82965
USER: genes 2 Torsion [C]-CA--CB-[CG] |==|  0.35260
USER: genes 3 Torsion [CA]-CB--CG-[CD] |==|  0.07034
USER: genes 4 Torsion [CB]-CG--CD-[OE1] |==|  0.31828
USER: genes 5 Torsion [N]-CA--C-[N] |==|  0.21721
USER: genes 6 Torsion [C]-N--CA-[CB] |==|  0.77838
USER: genes 7 Torsion [N]-CA--CB-[CG] |==|  0.53006
USER: genes 8 Torsion [CA]-CB--CG-[CD1] |==|  0.13670
USER: genes 9 Torsion [N]-CA--C-[N] |==|  0.68728
USER: genes 10 Torsion [C]-N--CA-[CB] |==|  0.75025
USER: genes 11 Torsion [N]-CA--C-[N] |==|  0.21957
USER: genes 12 Torsion [C]-N--CA-[C] |==|  0.76996
USER: genes 13 Torsion [N]-CA--C-[O] |==|  0.99127
USER: genes 14 Torsion [N]-CA--CB-[CG] |==|  0.81212
USER: genes 15 Torsion [CA]-CB--CG-[CD2] |==|  0.92129
USER: genes 16 Torsion [CB]-CA--N-[C] |==|  0.43732
USER: genes 17 Torsion [N]-C--CA-[N] |==|  0.84026
USER: genes 18 Torsion [N]-C--CA-[N] |==|  0.37360
USER: genes 19 Torsion [C]-CA--N-[C] |==|  0.78709
USER: genes 20 Torsion [N]-C--CA-[N] |==|  0.29825
ROOT
ATOM      1  CA  GLU A 233       1.490  22.177 -48.577  1.00 24.61 LIG 0.18  C 
ENDROOT
BRANCH 1 2
ATOM      2  CB  GLU A 233       2.269  23.465 -48.839  1.00 26.56 LIG 0.04  C 
BRANCH 2 3
ATOM      3  CG  GLU A 233       3.755  23.198 -49.104  1.00 28.50 LIG 0.12  C 
BRANCH 3 4
ATOM      4  CD  GLU A 233       4.049  21.830 -49.640  1.00 31.23 LIG 0.17  C 
ATOM      5 OE1  GLU A 233       4.499  21.727 -50.780  1.00 40.78 LIG-0.65  OA
ATOM      6 OE2  GLU A 233       3.877  20.849 -48.907  1.00 32.56 LIG-0.65  OA
ENDBRANCH 3 4
ENDBRANCH 2 3
ENDBRANCH 1 2
BRANCH 1 7
ATOM      7  C   GLU A 233       0.698  22.248 -47.266  1.00 22.49 LIG 0.24  C 
ATOM      8  N   LEU A 234       0.357  21.073 -46.742  1.00 21.03 LIG-0.35  N 
ATOM      9 H    LEU A 234       0.574  20.315 -47.083  1.00 21.03 LIG 0.16  HD
ATOM     10 O    GLU A 233       0.356  23.330 -46.772  1.00 21.03 LIG-0.27  OA
BRANCH 8 11
ATOM     11  CA  LEU A 234      -0.434  20.980 -45.510  1.00 20.74 LIG 0.18  C 
BRANCH 11 12
ATOM     12  CB  LEU A 234       0.501  21.202 -44.321  1.00 23.04 LIG 0.04  C 
BRANCH 12 13
ATOM     13  CG  LEU A 234      -0.212  20.850 -42.998  1.00 25.06 LIG-0.02  C 
ATOM     14  CD1 LEU A 234      -0.896  19.480 -43.067  1.00 33.19 LIG 0.01  C 
ATOM     15  CD2 LEU A 234       0.779  20.962 -41.827  1.00 27.29 LIG 0.01  C 
ENDBRANCH 12 13
ENDBRANCH 11 12
BRANCH 11 16
ATOM     16  C   LEU A 234      -1.587  21.981 -45.522  1.00 18.65 LIG 0.24  C 
ATOM     17 O    LEU A 234      -2.472  21.874 -46.361  1.00 20.08 LIG-0.27  OA
ATOM     18  N   LEU A 235      -1.529  22.986 -44.640  1.00 16.33 LIG-0.35  N 
ATOM     19 H    LEU A 235      -0.843  23.151 -44.149  1.00 16.33 LIG 0.16  HD
BRANCH 18 20
ATOM     20  CA  LEU A 235      -2.640  23.898 -44.435  1.00 16.00 LIG 0.18  C 
BRANCH 20 21
ATOM     21  C   LEU A 235      -4.012  23.227 -44.583  1.00 15.60 LIG 0.24  C 
ATOM     22 O    LEU A 235      -4.654  23.352 -45.597  1.00 16.00 LIG-0.27  OA
ATOM     23  N   GLY A 236      -4.456  22.517 -43.564  1.00 15.05 LIG-0.35  N 
ATOM     24 H    GLY A 236      -4.027  22.388 -42.830  1.00 15.05 LIG 0.16  HD
BRANCH 23 25
ATOM     25  CA  GLY A 236      -5.790  21.870 -43.640  1.00 15.88 LIG 0.23  C 
BRANCH 25 26
ATOM     26  C   GLY A 236      -6.897  22.826 -43.291  1.00 16.68 LIG 0.19  C 
ATOM     27 O    GLY A 236      -6.631  23.977 -42.933  1.00 18.78 LIG-0.65  OA
ATOM     28 OXT  GLY A 236      -8.074  22.477 -43.343  1.00 16.61 LIG-0.65  OA
ENDBRANCH 25 26
ENDBRANCH 23 25
ENDBRANCH 20 21
BRANCH 20 29
ATOM     29  CB  LEU A 235      -2.521  25.106 -45.391  1.00 17.17 LIG 0.04  C 
BRANCH 29 30
ATOM     30  CG  LEU A 235      -1.362  26.084 -45.161  1.00 20.01 LIG-0.02  C 
ATOM     31  CD1 LEU A 235      -1.739  27.433 -45.580  1.00 21.18 LIG 0.01  C 
ATOM     32  CD2 LEU A 235      -0.970  26.088 -43.666  1.00 23.81 LIG 0.01  C 
ENDBRANCH 29 30
ENDBRANCH 20 29
ENDBRANCH 18 20
ENDBRANCH 11 16
ENDBRANCH 8 11
ENDBRANCH 1 7
BRANCH 1 33
ATOM     33  N   GLU A 233       0.543  21.893 -49.660  1.00 26.21 LIG-0.35  N 
ATOM     34 H    GLU A 233       0.316  22.583 -50.120  1.00 26.21 LIG 0.16  HD
ATOM     35  C   PRO A 232       0.088  20.669 -49.893  1.00 29.12 LIG 0.24  C 
ATOM     36 O    PRO A 232       0.499  19.655 -49.311  1.00 29.57 LIG-0.27  OA
BRANCH 35 37
ATOM     37  CA  PRO A 232      -0.989  20.555 -50.973  1.00 32.50 LIG 0.18  C 
ATOM     38  CB  PRO A 232      -0.448  21.103 -52.300  1.00 34.03 LIG 0.04  C 
ATOM     39  CG  PRO A 232      -1.496  21.998 -52.849  1.00 39.71 LIG 0.02  C 
ATOM     40  CD  PRO A 232      -2.601  22.167 -51.867  1.00 41.14 LIG 0.13  C 
ATOM     41  N   PRO A 232      -2.168  21.374 -50.701  1.00 36.81 LIG-0.34  N 
ATOM     42  C   ALA A 231      -2.839  21.200 -49.550  1.00 38.01 LIG 0.24  C 
ATOM     43 O    ALA A 231      -2.467  20.415 -48.681  1.00 37.25 LIG-0.27  OA
BRANCH 42 44
ATOM     44  CA  ALA A 231      -4.072  22.054 -49.322  1.00 42.70 LIG 0.17  C 
ATOM     45  CB  ALA A 231      -3.732  23.173 -48.357  1.00 44.12 LIG 0.04  C 
BRANCH 44 46
ATOM     46  N   ALA A 231      -5.188  21.248 -48.817  1.00 44.69 LIG-0.35  N 
ATOM     47 H    ALA A 231      -5.337  21.336 -47.974  1.00 44.69 LIG 0.16  HD
ATOM     48  C   PRO A 230      -5.895  20.455 -49.620  1.00 46.57 LIG 0.25  C 
ATOM     49 O    PRO A 230      -5.545  20.194 -50.765  1.00 46.08 LIG-0.27  OA
BRANCH 48 50
ATOM     50  CA  PRO A 230      -7.220  19.875 -49.065  1.00 51.04 LIG 0.35  C 
ATOM     51  N   PRO A 230      -8.399  20.501 -49.666  1.00 55.48 LIG 0.32  N 
ATOM     52  CD  PRO A 230      -8.908  19.721 -50.805  1.00 58.51 LIG 0.32  C 
ATOM     53  CG  PRO A 230      -8.579  18.316 -50.414  1.00 57.35 LIG 0.04  C 
ATOM     54  CB  PRO A 230      -7.401  18.381 -49.420  1.00 52.45 LIG 0.05  C 
ENDBRANCH 48 50
ENDBRANCH 44 46
ENDBRANCH 42 44
ENDBRANCH 35 37
ENDBRANCH 1 33
TORSDOF 19
ENDMDL
MODEL 12
USER: ADFR SOLUTION from run 160
USER: SCORE 20.324374 LL:  -6.222 LR: -17.320 RR:   0.000 FEB: -11.653
USER: RMSD 9.190013
USER: SEED 159
USER: STATUS no improvement in best in 8 clusters for 5 generations
USER: GENES 21
USER: genes 0 Translation |==|  0.35879 0.41101 0.74370
USER: genes 1 Rotation |==|  0.62944 0.94036 0.31471 0.57070
USER: genes 2 Torsion [C]-CA--CB-[CG] |==|  0.31570
USER: genes 3 Torsion [CA]-CB--CG-[CD] |==|  0.55536
USER: genes 4 Torsion [CB]-CG--CD-[OE1] |==|  0.16011
USER: genes 5 Torsion [N]-CA--C-[N] |==|  0.13349
USER: genes 6 Torsion [C]-N--CA-[CB] |==|  0.81618
USER: genes 7 Torsion [N]-CA--CB-[CG] |==|  0.87377
USER: genes 8 Torsion [CA]-CB--CG-[CD1] |==|  0.36453
USER: genes 9 Torsion [N]-CA--C-[N] |==|  0.69618
USER: genes 10 Torsion [C]-N--CA-[CB] |==|  0.82589
USER: genes 11 Torsion [N]-CA--C-[N] |==|  0.87643
USER: genes 12 Torsion [C]-N--CA-[C] |==|  0.71236
USER: genes 13 Torsion [N]-CA--C-[O] |==|  0.06479
USER: genes 14 Torsion [N]-CA--CB-[CG] |==|  0.78054
USER: genes 15 Torsion [CA]-CB--CG-[CD2] |==|  0.60627
USER: genes 16 Torsion [CB]-CA--N-[C] |==|  0.43359
USER: genes 17 Torsion [N]-C--CA-[N] |==|  0.85471
USER: genes 18 Torsion [N]-C--CA-[N] |==|  0.88122
USER: genes 19 Torsion [C]-CA--N-[C] |==|  0.84405
USER: genes 20 Torsion [N]-C--CA-[N] |==|  0.58465
ROOT
ATOM      1  CA  GLU A 233      -3.264  23.808 -44.375  1.00 24.61 LIG 0.18  C 
ENDROOT
BRANCH 1 2
ATOM      2  CB  GLU A 233      -4.749  23.591 -44.661  1.00 26.56 LIG 0.04  C 
BRANCH 2 3
ATOM      3  CG  GLU A 233      -5.518  23.142 -43.413  1.00 28.50 LIG 0.12  C 
BRANCH 3 4
ATOM      4  CD  GLU A 233      -6.826  22.472 -43.704  1.00 31.23 LIG 0.17  C 
ATOM      5 OE1  GLU A 233      -6.830  21.469 -44.416  1.00 40.78 LIG-0.65  OA
ATOM      6 OE2  GLU A 233      -7.856  22.915 -43.182  1.00 32.56 LIG-0.65  OA
ENDBRANCH 3 4
ENDBRANCH 2 3
ENDBRANCH 1 2
BRANCH 1 7
ATOM      7  C   GLU A 233      -2.388  22.790 -45.115  1.00 22.49 LIG 0.24  C 
ATOM      8  N   LEU A 234      -1.079  23.028 -45.071  1.00 21.03 LIG-0.35  N 
ATOM      9 H    LEU A 234      -0.725  23.685 -44.646  1.00 21.03 LIG 0.16  HD
ATOM     10 O    GLU A 233      -2.880  21.851 -45.752  1.00 21.03 LIG-0.27  OA
BRANCH 8 11
ATOM     11  CA  LEU A 234      -0.116  22.164 -45.762  1.00 20.74 LIG 0.18  C 
BRANCH 11 12
ATOM     12  CB  LEU A 234      -0.139  20.788 -45.095  1.00 23.04 LIG 0.04  C 
BRANCH 12 13
ATOM     13  CG  LEU A 234      -0.116  20.930 -43.558  1.00 25.06 LIG-0.02  C 
ATOM     14  CD1 LEU A 234      -1.198  20.074 -42.890  1.00 33.19 LIG 0.01  C 
ATOM     15  CD2 LEU A 234       1.296  20.624 -43.030  1.00 27.29 LIG 0.01  C 
ENDBRANCH 12 13
ENDBRANCH 11 12
BRANCH 11 16
ATOM     16  C   LEU A 234      -0.430  22.078 -47.255  1.00 18.65 LIG 0.24  C 
ATOM     17 O    LEU A 234      -0.301  23.071 -47.958  1.00 20.08 LIG-0.27  OA
ATOM     18  N   LEU A 235      -0.906  20.913 -47.710  1.00 16.33 LIG-0.35  N 
ATOM     19 H    LEU A 235      -1.136  20.259 -47.199  1.00 16.33 LIG 0.16  HD
BRANCH 18 20
ATOM     20  CA  LEU A 235      -1.079  20.650 -49.127  1.00 16.00 LIG 0.18  C 
BRANCH 20 21
ATOM     21  C   LEU A 235       0.236  20.699 -49.918  1.00 15.60 LIG 0.24  C 
ATOM     22 O    LEU A 235       0.495  19.852 -50.736  1.00 16.00 LIG-0.27  OA
ATOM     23  N   GLY A 236       1.062  21.695 -49.665  1.00 15.05 LIG-0.35  N 
ATOM     24 H    GLY A 236       0.913  22.328 -49.102  1.00 15.05 LIG 0.16  HD
BRANCH 23 25
ATOM     25  CA  GLY A 236       2.362  21.776 -50.378  1.00 15.88 LIG 0.23  C 
BRANCH 25 26
ATOM     26  C   GLY A 236       3.509  21.347 -49.505  1.00 16.68 LIG 0.19  C 
ATOM     27 O    GLY A 236       3.307  20.602 -48.541  1.00 18.78 LIG-0.65  OA
ATOM     28 OXT  GLY A 236       4.652  21.739 -49.725  1.00 16.61 LIG-0.65  OA
ENDBRANCH 25 26
ENDBRANCH 23 25
ENDBRANCH 20 21
BRANCH 20 29
ATOM     29  CB  LEU A 235      -2.111  21.629 -49.729  1.00 17.17 LIG 0.04  C 
BRANCH 29 30
ATOM     30  CG  LEU A 235      -3.596  21.329 -49.495  1.00 20.01 LIG-0.02  C 
ATOM     31  CD1 LEU A 235      -4.102  22.098 -48.360  1.00 21.18 LIG 0.01  C 
ATOM     32  CD2 LEU A 235      -4.406  21.673 -50.766  1.00 23.81 LIG 0.01  C 
ENDBRANCH 29 30
ENDBRANCH 20 29
ENDBRANCH 18 20
ENDBRANCH 11 16
ENDBRANCH 8 11
ENDBRANCH 1 7
BRANCH 1 33
ATOM     33  N   GLU A 233      -2.832  25.150 -44.778  1.00 26.21 LIG-0.35  N 
ATOM     34 H    GLU A 233      -3.322  25.511 -45.386  1.00 26.21 LIG 0.16  HD
ATOM     35  C   PRO A 232      -1.773  25.739 -44.238  1.00 29.12 LIG 0.24  C 
ATOM     36 O    PRO A 232      -1.134  25.275 -43.283  1.00 29.57 LIG-0.27  OA
BRANCH 35 37
ATOM     37  CA  PRO A 232      -1.375  27.082 -44.852  1.00 32.50 LIG 0.18  C 
ATOM     38  CB  PRO A 232      -2.499  28.103 -44.632  1.00 34.03 LIG 0.04  C 
ATOM     39  CG  PRO A 232      -2.720  28.779 -45.932  1.00 39.71 LIG 0.02  C 
ATOM     40  CD  PRO A 232      -1.907  28.134 -46.998  1.00 41.14 LIG 0.13  C 
ATOM     41  N   PRO A 232      -1.218  27.029 -46.304  1.00 36.81 LIG-0.34  N 
ATOM     42  C   ALA A 231      -0.351  26.155 -46.841  1.00 38.01 LIG 0.24  C 
ATOM     43 O    ALA A 231       0.279  25.348 -46.161  1.00 37.25 LIG-0.27  OA
BRANCH 42 44
ATOM     44  CA  ALA A 231      -0.202  26.153 -48.350  1.00 42.70 LIG 0.17  C 
ATOM     45  CB  ALA A 231       0.707  27.294 -48.763  1.00 44.12 LIG 0.04  C 
BRANCH 44 46
ATOM     46  N   ALA A 231      -1.506  26.258 -49.011  1.00 44.69 LIG-0.35  N 
ATOM     47 H    ALA A 231      -1.577  26.919 -49.556  1.00 44.69 LIG 0.16  HD
ATOM     48  C   PRO A 230      -2.484  25.386 -48.767  1.00 46.57 LIG 0.25  C 
ATOM     49 O    PRO A 230      -2.434  24.578 -47.847  1.00 46.08 LIG-0.27  OA
BRANCH 48 50
ATOM     50  CA  PRO A 230      -3.709  25.403 -49.716  1.00 51.04 LIG 0.35  C 
ATOM     51  N   PRO A 230      -4.944  25.002 -49.040  1.00 55.48 LIG 0.32  N 
ATOM     52  CD  PRO A 230      -5.704  26.167 -48.559  1.00 58.51 LIG 0.32  C 
ATOM     53  CG  PRO A 230      -5.385  27.211 -49.581  1.00 57.35 LIG 0.04  C 
ATOM     54  CB  PRO A 230      -4.038  26.826 -50.225  1.00 52.45 LIG 0.05  C 
ENDBRANCH 48 50
ENDBRANCH 44 46
ENDBRANCH 42 44
ENDBRANCH 35 37
ENDBRANCH 1 33
TORSDOF 19
ENDMDL
MODEL 13
USER: ADFR SOLUTION from run 170
USER: SCORE 19.950863 LL:  -4.866 LR: -17.264 RR:   0.000 FEB: -11.597
USER: RMSD 8.376325
USER: SEED 169
USER: STATUS no improvement in best in 8 clusters for 5 generations
USER: GENES 21
USER: genes 0 Translation |==|  0.53223 0.33717 0.57432
USER: genes 1 Rotation |==|  0.25325 0.57560 0.74354 0.85226
USER: genes 2 Torsion [C]-CA--CB-[CG] |==|  0.54088
USER: genes 3 Torsion [CA]-CB--CG-[CD] |==|  0.86906
USER: genes 4 Torsion [CB]-CG--CD-[OE1] |==|  0.39350
USER: genes 5 Torsion [N]-CA--C-[N] |==|  0.54900
USER: genes 6 Torsion [C]-N--CA-[CB] |==|  0.85423
USER: genes 7 Torsion [N]-CA--CB-[CG] |==|  0.61863
USER: genes 8 Torsion [CA]-CB--CG-[CD1] |==|  0.45874
USER: genes 9 Torsion [N]-CA--C-[N] |==|  0.90708
USER: genes 10 Torsion [C]-N--CA-[CB] |==|  0.77778
USER: genes 11 Torsion [N]-CA--C-[N] |==|  0.15593
USER: genes 12 Torsion [C]-N--CA-[C] |==|  0.69866
USER: genes 13 Torsion [N]-CA--C-[O] |==|  0.98986
USER: genes 14 Torsion [N]-CA--CB-[CG] |==|  0.00267
USER: genes 15 Torsion [CA]-CB--CG-[CD2] |==|  0.76982
USER: genes 16 Torsion [CB]-CA--N-[C] |==|  0.33796
USER: genes 17 Torsion [N]-C--CA-[N] |==|  0.87007
USER: genes 18 Torsion [N]-C--CA-[N] |==|  0.41504
USER: genes 19 Torsion [C]-CA--N-[C] |==|  0.78689
USER: genes 20 Torsion [N]-C--CA-[N] |==|  0.25020
ROOT
ATOM      1  CA  GLU A 233       0.899  22.424 -48.313  1.00 24.61 LIG 0.18  C 
ENDROOT
BRANCH 1 2
ATOM      2  CB  GLU A 233       2.104  23.305 -48.637  1.00 26.56 LIG 0.04  C 
BRANCH 2 3
ATOM      3  CG  GLU A 233       2.891  22.788 -49.846  1.00 28.50 LIG 0.12  C 
BRANCH 3 4
ATOM      4  CD  GLU A 233       3.179  21.318 -49.809  1.00 31.23 LIG 0.17  C 
ATOM      5 OE1  GLU A 233       3.121  20.679 -50.859  1.00 40.78 LIG-0.65  OA
ATOM      6 OE2  GLU A 233       3.513  20.798 -48.738  1.00 32.56 LIG-0.65  OA
ENDBRANCH 3 4
ENDBRANCH 2 3
ENDBRANCH 1 2
BRANCH 1 7
ATOM      7  C   GLU A 233      -0.076  23.123 -47.358  1.00 22.49 LIG 0.24  C 
ATOM      8  N   LEU A 234       0.490  23.833 -46.385  1.00 21.03 LIG-0.35  N 
ATOM      9 H    LEU A 234       1.340  23.927 -46.292  1.00 21.03 LIG 0.16  HD
ATOM     10 O    GLU A 233      -1.301  22.981 -47.461  1.00 21.03 LIG-0.27  OA
BRANCH 8 11
ATOM     11  CA  LEU A 234      -0.310  24.528 -45.372  1.00 20.74 LIG 0.18  C 
BRANCH 11 12
ATOM     12  CB  LEU A 234      -1.343  25.398 -46.089  1.00 23.04 LIG 0.04  C 
BRANCH 12 13
ATOM     13  CG  LEU A 234      -1.447  26.782 -45.415  1.00 25.06 LIG-0.02  C 
ATOM     14  CD1 LEU A 234      -2.183  27.794 -46.302  1.00 33.19 LIG 0.01  C 
ATOM     15  CD2 LEU A 234      -2.086  26.636 -44.024  1.00 27.29 LIG 0.01  C 
ENDBRANCH 12 13
ENDBRANCH 11 12
BRANCH 11 16
ATOM     16  C   LEU A 234      -0.969  23.534 -44.417  1.00 18.65 LIG 0.24  C 
ATOM     17 O    LEU A 234      -1.075  23.814 -43.231  1.00 20.08 LIG-0.27  OA
ATOM     18  N   LEU A 235      -1.339  22.354 -44.928  1.00 16.33 LIG-0.35  N 
ATOM     19 H    LEU A 235      -1.137  22.093 -45.723  1.00 16.33 LIG 0.16  HD
BRANCH 18 20
ATOM     20  CA  LEU A 235      -2.126  21.397 -44.171  1.00 16.00 LIG 0.18  C 
BRANCH 20 21
ATOM     21  C   LEU A 235      -3.298  22.038 -43.415  1.00 15.60 LIG 0.24  C 
ATOM     22 O    LEU A 235      -3.413  21.899 -42.223  1.00 16.00 LIG-0.27  OA
ATOM     23  N   GLY A 236      -4.167  22.738 -44.119  1.00 15.05 LIG-0.35  N 
ATOM     24 H    GLY A 236      -4.116  22.876 -44.966  1.00 15.05 LIG 0.16  HD
BRANCH 23 25
ATOM     25  CA  GLY A 236      -5.336  23.355 -43.445  1.00 15.88 LIG 0.23  C 
BRANCH 25 26
ATOM     26  C   GLY A 236      -6.620  22.656 -43.798  1.00 16.68 LIG 0.19  C 
ATOM     27 O    GLY A 236      -6.617  21.733 -44.618  1.00 18.78 LIG-0.65  OA
ATOM     28 OXT  GLY A 236      -7.686  22.997 -43.291  1.00 16.61 LIG-0.65  OA
ENDBRANCH 25 26
ENDBRANCH 23 25
ENDBRANCH 20 21
BRANCH 20 29
ATOM     29  CB  LEU A 235      -1.219  20.611 -43.198  1.00 17.17 LIG 0.04  C 
BRANCH 29 30
ATOM     30  CG  LEU A 235       0.273  20.964 -43.175  1.00 20.01 LIG-0.02  C 
ATOM     31  CD1 LEU A 235       0.867  20.599 -41.890  1.00 21.18 LIG 0.01  C 
ATOM     32  CD2 LEU A 235       1.004  20.228 -44.320  1.00 23.81 LIG 0.01  C 
ENDBRANCH 29 30
ENDBRANCH 20 29
ENDBRANCH 18 20
ENDBRANCH 11 16
ENDBRANCH 8 11
ENDBRANCH 1 7
BRANCH 1 33
ATOM     33  N   GLU A 233       0.159  22.062 -49.526  1.00 26.21 LIG-0.35  N 
ATOM     34 H    GLU A 233      -0.132  22.735 -49.976  1.00 26.21 LIG 0.16  HD
ATOM     35  C   PRO A 232      -0.035  20.799 -49.881  1.00 29.12 LIG 0.24  C 
ATOM     36 O    PRO A 232       0.479  19.830 -49.302  1.00 29.57 LIG-0.27  OA
BRANCH 35 37
ATOM     37  CA  PRO A 232      -0.933  20.581 -51.099  1.00 32.50 LIG 0.18  C 
ATOM     38  CB  PRO A 232      -0.217  21.077 -52.362  1.00 34.03 LIG 0.04  C 
ATOM     39  CG  PRO A 232      -1.199  21.896 -53.113  1.00 39.71 LIG 0.02  C 
ATOM     40  CD  PRO A 232      -2.444  22.073 -52.319  1.00 41.14 LIG 0.13  C 
ATOM     41  N   PRO A 232      -2.166  21.364 -51.055  1.00 36.81 LIG-0.34  N 
ATOM     42  C   ALA A 231      -2.997  21.225 -50.008  1.00 38.01 LIG 0.24  C 
ATOM     43 O    ALA A 231      -2.733  20.505 -49.048  1.00 37.25 LIG-0.27  OA
BRANCH 42 44
ATOM     44  CA  ALA A 231      -4.277  22.038 -50.017  1.00 42.70 LIG 0.17  C 
ATOM     45  CB  ALA A 231      -4.012  23.394 -49.392  1.00 44.12 LIG 0.04  C 
BRANCH 44 46
ATOM     46  N   ALA A 231      -5.354  21.337 -49.311  1.00 44.69 LIG-0.35  N 
ATOM     47 H    ALA A 231      -5.518  21.640 -48.522  1.00 44.69 LIG 0.16  HD
ATOM     48  C   PRO A 230      -6.007  20.319 -49.868  1.00 46.57 LIG 0.25  C 
ATOM     49 O    PRO A 230      -5.629  19.778 -50.901  1.00 46.08 LIG-0.27  OA
BRANCH 48 50
ATOM     50  CA  PRO A 230      -7.305  19.837 -49.174  1.00 51.04 LIG 0.35  C 
ATOM     51  N   PRO A 230      -8.495  20.532 -49.668  1.00 55.48 LIG 0.32  N 
ATOM     52  CD  PRO A 230      -9.165  19.772 -50.736  1.00 58.51 LIG 0.32  C 
ATOM     53  CG  PRO A 230      -8.890  18.354 -50.350  1.00 57.35 LIG 0.04  C 
ATOM     54  CB  PRO A 230      -7.618  18.354 -49.478  1.00 52.45 LIG 0.05  C 
ENDBRANCH 48 50
ENDBRANCH 44 46
ENDBRANCH 42 44
ENDBRANCH 35 37
ENDBRANCH 1 33
TORSDOF 19
ENDMDL
MODEL 14
USER: ADFR SOLUTION from run 165
USER: SCORE 18.564705 LL:  -6.567 LR: -17.175 RR:   0.000 FEB: -11.508
USER: RMSD 9.255476
USER: SEED 164
USER: STATUS 1 or 2 clusters left
USER: GENES 21
USER: genes 0 Translation |==|  0.29520 0.38852 0.72765
USER: genes 1 Rotation |==|  0.31761 0.67071 0.14820 0.75265
USER: genes 2 Torsion [C]-CA--CB-[CG] |==|  0.51467
USER: genes 3 Torsion [CA]-CB--CG-[CD] |==|  0.78165
USER: genes 4 Torsion [CB]-CG--CD-[OE1] |==|  0.13630
USER: genes 5 Torsion [N]-CA--C-[N] |==|  0.79407
USER: genes 6 Torsion [C]-N--CA-[CB] |==|  0.52791
USER: genes 7 Torsion [N]-CA--CB-[CG] |==|  0.77817
USER: genes 8 Torsion [CA]-CB--CG-[CD1] |==|  0.30232
USER: genes 9 Torsion [N]-CA--C-[N] |==|  0.88335
USER: genes 10 Torsion [C]-N--CA-[CB] |==|  0.86534
USER: genes 11 Torsion [N]-CA--C-[N] |==|  0.15616
USER: genes 12 Torsion [C]-N--CA-[C] |==|  0.48223
USER: genes 13 Torsion [N]-CA--C-[O] |==|  0.03603
USER: genes 14 Torsion [N]-CA--CB-[CG] |==|  0.79364
USER: genes 15 Torsion [CA]-CB--CG-[CD2] |==|  0.76397
USER: genes 16 Torsion [CB]-CA--N-[C] |==|  0.37323
USER: genes 17 Torsion [N]-C--CA-[N] |==|  0.96842
USER: genes 18 Torsion [N]-C--CA-[N] |==|  0.23141
USER: genes 19 Torsion [C]-CA--N-[C] |==|  0.13846
USER: genes 20 Torsion [N]-C--CA-[N] |==|  0.52615
ROOT
ATOM      1  CA  GLU A 233      -4.790  23.387 -44.748  1.00 24.61 LIG 0.18  C 
ENDROOT
BRANCH 1 2
ATOM      2  CB  GLU A 233      -5.212  22.335 -43.723  1.00 26.56 LIG 0.04  C 
BRANCH 2 3
ATOM      3  CG  GLU A 233      -6.586  21.737 -44.041  1.00 28.50 LIG 0.12  C 
BRANCH 3 4
ATOM      4  CD  GLU A 233      -7.742  22.607 -43.651  1.00 31.23 LIG 0.17  C 
ATOM      5 OE1  GLU A 233      -7.731  23.789 -43.989  1.00 40.78 LIG-0.65  OA
ATOM      6 OE2  GLU A 233      -8.695  22.102 -43.045  1.00 32.56 LIG-0.65  OA
ENDBRANCH 3 4
ENDBRANCH 2 3
ENDBRANCH 1 2
BRANCH 1 7
ATOM      7  C   GLU A 233      -3.362  23.885 -44.496  1.00 22.49 LIG 0.24  C 
ATOM      8  N   LEU A 234      -2.450  22.933 -44.313  1.00 21.03 LIG-0.35  N 
ATOM      9 H    LEU A 234      -2.622  22.091 -44.351  1.00 21.03 LIG 0.16  HD
ATOM     10 O    GLU A 233      -3.100  25.092 -44.414  1.00 21.03 LIG-0.27  OA
BRANCH 8 11
ATOM     11  CA  LEU A 234      -1.049  23.253 -44.025  1.00 20.74 LIG 0.18  C 
BRANCH 11 12
ATOM     12  CB  LEU A 234      -0.232  21.964 -44.120  1.00 23.04 LIG 0.04  C 
BRANCH 12 13
ATOM     13  CG  LEU A 234      -0.381  21.131 -42.830  1.00 25.06 LIG-0.02  C 
ATOM     14  CD1 LEU A 234      -1.220  19.868 -43.060  1.00 33.19 LIG 0.01  C 
ATOM     15  CD2 LEU A 234       1.009  20.823 -42.246  1.00 27.29 LIG 0.01  C 
ENDBRANCH 12 13
ENDBRANCH 11 12
BRANCH 11 16
ATOM     16  C   LEU A 234      -0.526  24.330 -44.975  1.00 18.65 LIG 0.24  C 
ATOM     17 O    LEU A 234       0.123  25.266 -44.528  1.00 20.08 LIG-0.27  OA
ATOM     18  N   LEU A 235      -0.874  24.225 -46.263  1.00 16.33 LIG-0.35  N 
ATOM     19 H    LEU A 235      -1.447  23.656 -46.557  1.00 16.33 LIG 0.16  HD
BRANCH 18 20
ATOM     20  CA  LEU A 235      -0.304  25.081 -47.288  1.00 16.00 LIG 0.18  C 
BRANCH 20 21
ATOM     21  C   LEU A 235       1.127  24.689 -47.678  1.00 15.60 LIG 0.24  C 
ATOM     22 O    LEU A 235       2.027  25.490 -47.608  1.00 16.00 LIG-0.27  OA
ATOM     23  N   GLY A 236       1.330  23.454 -48.092  1.00 15.05 LIG-0.35  N 
ATOM     24 H    GLY A 236       0.723  22.846 -48.143  1.00 15.05 LIG 0.16  HD
BRANCH 23 25
ATOM     25  CA  GLY A 236       2.689  23.028 -48.511  1.00 15.88 LIG 0.23  C 
BRANCH 25 26
ATOM     26  C   GLY A 236       2.752  21.554 -48.800  1.00 16.68 LIG 0.19  C 
ATOM     27 O    GLY A 236       1.709  20.901 -48.912  1.00 18.78 LIG-0.65  OA
ATOM     28 OXT  GLY A 236       3.830  20.977 -48.916  1.00 16.61 LIG-0.65  OA
ENDBRANCH 25 26
ENDBRANCH 23 25
ENDBRANCH 20 21
BRANCH 20 29
ATOM     29  CB  LEU A 235      -0.360  26.559 -46.841  1.00 17.17 LIG 0.04  C 
BRANCH 29 30
ATOM     30  CG  LEU A 235      -1.723  27.260 -46.873  1.00 20.01 LIG-0.02  C 
ATOM     31  CD1 LEU A 235      -1.762  28.348 -45.898  1.00 21.18 LIG 0.01  C 
ATOM     32  CD2 LEU A 235      -1.995  27.813 -48.290  1.00 23.81 LIG 0.01  C 
ENDBRANCH 29 30
ENDBRANCH 20 29
ENDBRANCH 18 20
ENDBRANCH 11 16
ENDBRANCH 8 11
ENDBRANCH 1 7
BRANCH 1 33
ATOM     33  N   GLU A 233      -4.847  22.856 -46.113  1.00 26.21 LIG-0.35  N 
ATOM     34 H    GLU A 233      -4.499  22.075 -46.204  1.00 26.21 LIG 0.16  HD
ATOM     35  C   PRO A 232      -5.392  23.540 -47.111  1.00 29.12 LIG 0.24  C 
ATOM     36 O    PRO A 232      -5.998  24.612 -46.966  1.00 29.57 LIG-0.27  OA
BRANCH 35 37
ATOM     37  CA  PRO A 232      -5.262  22.910 -48.498  1.00 32.50 LIG 0.18  C 
ATOM     38  CB  PRO A 232      -6.605  22.298 -48.915  1.00 34.03 LIG 0.04  C 
ATOM     39  CG  PRO A 232      -6.311  20.942 -49.438  1.00 39.71 LIG 0.02  C 
ATOM     40  CD  PRO A 232      -4.877  20.605 -49.230  1.00 41.14 LIG 0.13  C 
ATOM     41  N   PRO A 232      -4.329  21.786 -48.536  1.00 36.81 LIG-0.34  N 
ATOM     42  C   ALA A 231      -3.058  21.971 -48.140  1.00 38.01 LIG 0.24  C 
ATOM     43 O    ALA A 231      -2.658  23.041 -47.688  1.00 37.25 LIG-0.27  OA
BRANCH 42 44
ATOM     44  CA  ALA A 231      -2.119  20.783 -48.221  1.00 42.70 LIG 0.17  C 
ATOM     45  CB  ALA A 231      -1.011  20.952 -47.199  1.00 44.12 LIG 0.04  C 
BRANCH 44 46
ATOM     46  N   ALA A 231      -1.568  20.635 -49.571  1.00 44.69 LIG-0.35  N 
ATOM     47 H    ALA A 231      -1.632  19.841 -49.897  1.00 44.69 LIG 0.16  HD
ATOM     48  C   PRO A 230      -1.019  21.662 -50.218  1.00 46.57 LIG 0.25  C 
ATOM     49 O    PRO A 230      -0.758  22.726 -49.667  1.00 46.08 LIG-0.27  OA
BRANCH 48 50
ATOM     50  CA  PRO A 230      -0.732  21.484 -51.730  1.00 51.04 LIG 0.35  C 
ATOM     51  N   PRO A 230       0.065  22.582 -52.280  1.00 55.48 LIG 0.32  N 
ATOM     52  CD  PRO A 230       1.500  22.258 -52.297  1.00 58.51 LIG 0.32  C 
ATOM     53  CG  PRO A 230       1.499  20.779 -52.517  1.00 57.35 LIG 0.04  C 
ATOM     54  CB  PRO A 230       0.142  20.242 -52.019  1.00 52.45 LIG 0.05  C 
ENDBRANCH 48 50
ENDBRANCH 44 46
ENDBRANCH 42 44
ENDBRANCH 35 37
ENDBRANCH 1 33
TORSDOF 19
ENDMDL
MODEL 15
USER: ADFR SOLUTION from run 15
USER: SCORE 19.823150 LL:  -5.062 LR: -17.067 RR:   0.000 FEB: -11.399
USER: RMSD 8.039840
USER: SEED 249064
USER: STATUS no improvement in best in 6 clusters for 5 generations
USER: GENES 21
USER: genes 0 Translation |==|  0.54676 0.39064 0.53132
USER: genes 1 Rotation |==|  0.62118 0.42657 0.75565 0.90567
USER: genes 2 Torsion [C]-CA--CB-[CG] |==|  0.09674
USER: genes 3 Torsion [CA]-CB--CG-[CD] |==|  0.15886
USER: genes 4 Torsion [CB]-CG--CD-[OE1] |==|  0.13357
USER: genes 5 Torsion [N]-CA--C-[N] |==|  0.86264
USER: genes 6 Torsion [C]-N--CA-[CB] |==|  0.21508
USER: genes 7 Torsion [N]-CA--CB-[CG] |==|  0.35631
USER: genes 8 Torsion [CA]-CB--CG-[CD1] |==|  0.22824
USER: genes 9 Torsion [N]-CA--C-[N] |==|  0.82817
USER: genes 10 Torsion [C]-N--CA-[CB] |==|  0.71667
USER: genes 11 Torsion [N]-CA--C-[N] |==|  0.65279
USER: genes 12 Torsion [C]-N--CA-[C] |==|  0.59984
USER: genes 13 Torsion [N]-CA--C-[O] |==|  0.62334
USER: genes 14 Torsion [N]-CA--CB-[CG] |==|  0.74237
USER: genes 15 Torsion [CA]-CB--CG-[CD2] |==|  0.44074
USER: genes 16 Torsion [CB]-CA--N-[C] |==|  0.88678
USER: genes 17 Torsion [N]-C--CA-[N] |==|  0.26969
USER: genes 18 Torsion [N]-C--CA-[N] |==|  0.32880
USER: genes 19 Torsion [C]-CA--N-[C] |==|  0.59953
USER: genes 20 Torsion [N]-C--CA-[N] |==|  0.09306
ROOT
ATOM      1  CA  GLU A 233       1.247  23.426 -49.313  1.00 24.61 LIG 0.18  C 
ENDROOT
BRANCH 1 2
ATOM      2  CB  GLU A 233       2.521  23.962 -48.660  1.00 26.56 LIG 0.04  C 
BRANCH 2 3
ATOM      3  CG  GLU A 233       3.339  22.851 -47.993  1.00 28.50 LIG 0.12  C 
BRANCH 3 4
ATOM      4  CD  GLU A 233       3.736  21.739 -48.917  1.00 31.23 LIG 0.17  C 
ATOM      5 OE1  GLU A 233       4.233  22.025 -50.004  1.00 40.78 LIG-0.65  OA
ATOM      6 OE2  GLU A 233       3.597  20.569 -48.541  1.00 32.56 LIG-0.65  OA
ENDBRANCH 3 4
ENDBRANCH 2 3
ENDBRANCH 1 2
BRANCH 1 7
ATOM      7  C   GLU A 233       0.645  22.264 -48.515  1.00 22.49 LIG 0.24  C 
ATOM      8  N   LEU A 234       0.048  22.604 -47.374  1.00 21.03 LIG-0.35  N 
ATOM      9 H    LEU A 234      -0.027  23.414 -47.096  1.00 21.03 LIG 0.16  HD
ATOM     10 O    GLU A 233       0.764  21.090 -48.887  1.00 21.03 LIG-0.27  OA
BRANCH 8 11
ATOM     11  CA  LEU A 234      -0.542  21.600 -46.484  1.00 20.74 LIG 0.18  C 
BRANCH 11 12
ATOM     12  CB  LEU A 234       0.588  20.922 -45.708  1.00 23.04 LIG 0.04  C 
BRANCH 12 13
ATOM     13  CG  LEU A 234       0.297  20.947 -44.193  1.00 25.06 LIG-0.02  C 
ATOM     14  CD1 LEU A 234      -0.646  19.813 -43.775  1.00 33.19 LIG 0.01  C 
ATOM     15  CD2 LEU A 234       1.621  20.940 -43.410  1.00 27.29 LIG 0.01  C 
ENDBRANCH 12 13
ENDBRANCH 11 12
BRANCH 11 16
ATOM     16  C   LEU A 234      -1.572  22.233 -45.550  1.00 18.65 LIG 0.24  C 
ATOM     17 O    LEU A 234      -2.750  21.918 -45.647  1.00 20.08 LIG-0.27  OA
ATOM     18  N   LEU A 235      -1.130  23.172 -44.704  1.00 16.33 LIG-0.35  N 
ATOM     19 H    LEU A 235      -0.336  23.501 -44.729  1.00 16.33 LIG 0.16  HD
BRANCH 18 20
ATOM     20  CA  LEU A 235      -1.969  23.721 -43.654  1.00 16.00 LIG 0.18  C 
BRANCH 20 21
ATOM     21  C   LEU A 235      -3.130  22.799 -43.259  1.00 15.60 LIG 0.24  C 
ATOM     22 O    LEU A 235      -2.925  21.660 -42.919  1.00 16.00 LIG-0.27  OA
ATOM     23  N   GLY A 236      -4.350  23.298 -43.310  1.00 15.05 LIG-0.35  N 
ATOM     24 H    GLY A 236      -4.541  24.106 -43.532  1.00 15.05 LIG 0.16  HD
BRANCH 23 25
ATOM     25  CA  GLY A 236      -5.513  22.442 -42.969  1.00 15.88 LIG 0.23  C 
BRANCH 25 26
ATOM     26  C   GLY A 236      -6.710  22.755 -43.823  1.00 16.68 LIG 0.19  C 
ATOM     27 O    GLY A 236      -7.829  22.852 -43.308  1.00 18.78 LIG-0.65  OA
ATOM     28 OXT  GLY A 236      -6.600  22.906 -45.037  1.00 16.61 LIG-0.65  OA
ENDBRANCH 25 26
ENDBRANCH 23 25
ENDBRANCH 20 21
BRANCH 20 29
ATOM     29  CB  LEU A 235      -2.498  25.113 -44.068  1.00 17.17 LIG 0.04  C 
BRANCH 29 30
ATOM     30  CG  LEU A 235      -1.686  26.339 -43.637  1.00 20.01 LIG-0.02  C 
ATOM     31  CD1 LEU A 235      -0.253  26.056 -43.706  1.00 21.18 LIG 0.01  C 
ATOM     32  CD2 LEU A 235      -2.029  27.540 -44.547  1.00 23.81 LIG 0.01  C 
ENDBRANCH 29 30
ENDBRANCH 20 29
ENDBRANCH 18 20
ENDBRANCH 11 16
ENDBRANCH 8 11
ENDBRANCH 1 7
BRANCH 1 33
ATOM     33  N   GLU A 233       0.224  24.470 -49.427  1.00 26.21 LIG-0.35  N 
ATOM     34 H    GLU A 233      -0.209  24.460 -50.170  1.00 26.21 LIG 0.16  HD
ATOM     35  C   PRO A 232       0.002  25.346 -48.456  1.00 29.12 LIG 0.24  C 
ATOM     36 O    PRO A 232       0.539  25.294 -47.340  1.00 29.57 LIG-0.27  OA
BRANCH 35 37
ATOM     37  CA  PRO A 232      -1.008  26.450 -48.774  1.00 32.50 LIG 0.18  C 
ATOM     38  CB  PRO A 232      -0.606  27.741 -48.050  1.00 34.03 LIG 0.04  C 
ATOM     39  CG  PRO A 232      -1.834  28.269 -47.409  1.00 39.71 LIG 0.02  C 
ATOM     40  CD  PRO A 232      -2.954  27.301 -47.558  1.00 41.14 LIG 0.13  C 
ATOM     41  N   PRO A 232      -2.352  26.163 -48.278  1.00 36.81 LIG-0.34  N 
ATOM     42  C   ALA A 231      -2.969  25.034 -48.664  1.00 38.01 LIG 0.24  C 
ATOM     43 O    ALA A 231      -2.425  24.195 -49.377  1.00 37.25 LIG-0.27  OA
BRANCH 42 44
ATOM     44  CA  ALA A 231      -4.373  24.792 -48.144  1.00 42.70 LIG 0.17  C 
ATOM     45  CB  ALA A 231      -4.389  23.515 -47.325  1.00 44.12 LIG 0.04  C 
BRANCH 44 46
ATOM     46  N   ALA A 231      -5.340  24.720 -49.244  1.00 44.69 LIG-0.35  N 
ATOM     47 H    ALA A 231      -5.038  24.347 -49.959  1.00 44.69 LIG 0.16  HD
ATOM     48  C   PRO A 230      -6.576  25.201 -49.120  1.00 46.57 LIG 0.25  C 
ATOM     49 O    PRO A 230      -6.919  25.900 -48.174  1.00 46.08 LIG-0.27  OA
BRANCH 48 50
ATOM     50  CA  PRO A 230      -7.603  24.824 -50.216  1.00 51.04 LIG 0.35  C 
ATOM     51  N   PRO A 230      -7.378  23.481 -50.754  1.00 55.48 LIG 0.32  N 
ATOM     52  CD  PRO A 230      -8.214  22.476 -50.078  1.00 58.51 LIG 0.32  C 
ATOM     53  CG  PRO A 230      -9.445  23.252 -49.734  1.00 57.35 LIG 0.04  C 
ATOM     54  CB  PRO A 230      -9.045  24.740 -49.666  1.00 52.45 LIG 0.05  C 
ENDBRANCH 48 50
ENDBRANCH 44 46
ENDBRANCH 42 44
ENDBRANCH 35 37
ENDBRANCH 1 33
TORSDOF 19
ENDMDL
MODEL 16
USER: ADFR SOLUTION from run 15
USER: SCORE 19.029761 LL:  -4.543 LR: -17.020 RR:   0.000 FEB: -11.352
USER: RMSD 4.358052
USER: SEED 249064
USER: STATUS no improvement in best in 6 clusters for 5 generations
USER: GENES 21
USER: genes 0 Translation |==|  0.54465 0.41245 0.53236
USER: genes 1 Rotation |==|  0.67061 0.42384 0.70413 0.91645
USER: genes 2 Torsion [C]-CA--CB-[CG] |==|  0.04487
USER: genes 3 Torsion [CA]-CB--CG-[CD] |==|  0.23470
USER: genes 4 Torsion [CB]-CG--CD-[OE1] |==|  0.13765
USER: genes 5 Torsion [N]-CA--C-[N] |==|  0.88333
USER: genes 6 Torsion [C]-N--CA-[CB] |==|  0.22875
USER: genes 7 Torsion [N]-CA--CB-[CG] |==|  0.33498
USER: genes 8 Torsion [CA]-CB--CG-[CD1] |==|  0.26773
USER: genes 9 Torsion [N]-CA--C-[N] |==|  0.83812
USER: genes 10 Torsion [C]-N--CA-[CB] |==|  0.72335
USER: genes 11 Torsion [N]-CA--C-[N] |==|  0.65680
USER: genes 12 Torsion [C]-N--CA-[C] |==|  0.60409
USER: genes 13 Torsion [N]-CA--C-[O] |==|  0.63254
USER: genes 14 Torsion [N]-CA--CB-[CG] |==|  0.74299
USER: genes 15 Torsion [CA]-CB--CG-[CD2] |==|  0.43844
USER: genes 16 Torsion [CB]-CA--N-[C] |==|  0.89972
USER: genes 17 Torsion [N]-C--CA-[N] |==|  0.92411
USER: genes 18 Torsion [N]-C--CA-[N] |==|  0.47928
USER: genes 19 Torsion [C]-CA--N-[C] |==|  0.65195
USER: genes 20 Torsion [N]-C--CA-[N] |==|  0.79092
ROOT
ATOM      1  CA  GLU A 233       1.197  23.835 -49.289  1.00 24.61 LIG 0.18  C 
ENDROOT
BRANCH 1 2
ATOM      2  CB  GLU A 233       2.619  24.039 -48.769  1.00 26.56 LIG 0.04  C 
BRANCH 2 3
ATOM      3  CG  GLU A 233       3.144  22.806 -48.026  1.00 28.50 LIG 0.12  C 
BRANCH 3 4
ATOM      4  CD  GLU A 233       3.739  21.757 -48.916  1.00 31.23 LIG 0.17  C 
ATOM      5 OE1  GLU A 233       4.571  22.098 -49.755  1.00 40.78 LIG-0.65  OA
ATOM      6 OE2  GLU A 233       3.414  20.575 -48.751  1.00 32.56 LIG-0.65  OA
ENDBRANCH 3 4
ENDBRANCH 2 3
ENDBRANCH 1 2
BRANCH 1 7
ATOM      7  C   GLU A 233       0.511  22.641 -48.615  1.00 22.49 LIG 0.24  C 
ATOM      8  N   LEU A 234       0.001  22.882 -47.409  1.00 21.03 LIG-0.35  N 
ATOM      9 H    LEU A 234       0.022  23.650 -47.025  1.00 21.03 LIG 0.16  HD
ATOM     10 O    GLU A 233       0.492  21.521 -49.142  1.00 21.03 LIG-0.27  OA
BRANCH 8 11
ATOM     11  CA  LEU A 234      -0.652  21.830 -46.625  1.00 20.74 LIG 0.18  C 
BRANCH 11 12
ATOM     12  CB  LEU A 234       0.430  21.022 -45.908  1.00 23.04 LIG 0.04  C 
BRANCH 12 13
ATOM     13  CG  LEU A 234       0.225  21.079 -44.379  1.00 25.06 LIG-0.02  C 
ATOM     14  CD1 LEU A 234      -0.539  19.855 -43.860  1.00 33.19 LIG 0.01  C 
ATOM     15  CD2 LEU A 234       1.582  21.273 -43.680  1.00 27.29 LIG 0.01  C 
ENDBRANCH 12 13
ENDBRANCH 11 12
BRANCH 11 16
ATOM     16  C   LEU A 234      -1.662  22.424 -45.644  1.00 18.65 LIG 0.24  C 
ATOM     17 O    LEU A 234      -2.845  22.129 -45.742  1.00 20.08 LIG-0.27  OA
ATOM     18  N   LEU A 235      -1.197  23.310 -44.755  1.00 16.33 LIG-0.35  N 
ATOM     19 H    LEU A 235      -0.399  23.631 -44.773  1.00 16.33 LIG 0.16  HD
BRANCH 18 20
ATOM     20  CA  LEU A 235      -2.015  23.812 -43.666  1.00 16.00 LIG 0.18  C 
BRANCH 20 21
ATOM     21  C   LEU A 235      -3.147  22.857 -43.266  1.00 15.60 LIG 0.24  C 
ATOM     22 O    LEU A 235      -2.910  21.720 -42.941  1.00 16.00 LIG-0.27  OA
ATOM     23  N   GLY A 236      -4.380  23.326 -43.296  1.00 15.05 LIG-0.35  N 
ATOM     24 H    GLY A 236      -4.594  24.132 -43.506  1.00 15.05 LIG 0.16  HD
BRANCH 23 25
ATOM     25  CA  GLY A 236      -5.517  22.438 -42.948  1.00 15.88 LIG 0.23  C 
BRANCH 25 26
ATOM     26  C   GLY A 236      -6.721  22.706 -43.808  1.00 16.68 LIG 0.19  C 
ATOM     27 O    GLY A 236      -7.835  22.834 -43.290  1.00 18.78 LIG-0.65  OA
ATOM     28 OXT  GLY A 236      -6.621  22.788 -45.030  1.00 16.61 LIG-0.65  OA
ENDBRANCH 25 26
ENDBRANCH 23 25
ENDBRANCH 20 21
BRANCH 20 29
ATOM     29  CB  LEU A 235      -2.580  25.205 -44.022  1.00 17.17 LIG 0.04  C 
BRANCH 29 30
ATOM     30  CG  LEU A 235      -1.775  26.433 -43.582  1.00 20.01 LIG-0.02  C 
ATOM     31  CD1 LEU A 235      -0.341  26.170 -43.686  1.00 21.18 LIG 0.01  C 
ATOM     32  CD2 LEU A 235      -2.152  27.648 -44.459  1.00 23.81 LIG 0.01  C 
ENDBRANCH 29 30
ENDBRANCH 20 29
ENDBRANCH 18 20
ENDBRANCH 11 16
ENDBRANCH 8 11
ENDBRANCH 1 7
BRANCH 1 33
ATOM     33  N   GLU A 233       0.366  25.020 -49.055  1.00 26.21 LIG-0.35  N 
ATOM     34 H    GLU A 233      -0.201  25.183 -49.681  1.00 26.21 LIG 0.16  HD
ATOM     35  C   PRO A 232       0.494  25.764 -47.964  1.00 29.12 LIG 0.24  C 
ATOM     36 O    PRO A 232       1.225  25.470 -47.007  1.00 29.57 LIG-0.27  OA
BRANCH 35 37
ATOM     37  CA  PRO A 232      -0.354  27.037 -47.924  1.00 32.50 LIG 0.18  C 
ATOM     38  CB  PRO A 232      -1.726  26.723 -47.315  1.00 34.03 LIG 0.04  C 
ATOM     39  CG  PRO A 232      -2.737  27.349 -48.201  1.00 39.71 LIG 0.02  C 
ATOM     40  CD  PRO A 232      -2.088  27.907 -49.417  1.00 41.14 LIG 0.13  C 
ATOM     41  N   PRO A 232      -0.662  27.566 -49.250  1.00 36.81 LIG-0.34  N 
ATOM     42  C   ALA A 231       0.344  27.870 -50.088  1.00 38.01 LIG 0.24  C 
ATOM     43 O    ALA A 231       1.522  27.663 -49.807  1.00 37.25 LIG-0.27  OA
BRANCH 42 44
ATOM     44  CA  ALA A 231      -0.023  28.441 -51.444  1.00 42.70 LIG 0.17  C 
ATOM     45  CB  ALA A 231      -0.784  27.396 -52.237  1.00 44.12 LIG 0.04  C 
BRANCH 44 46
ATOM     46  N   ALA A 231       1.170  28.883 -52.172  1.00 44.69 LIG-0.35  N 
ATOM     47 H    ALA A 231       1.777  28.279 -52.262  1.00 44.69 LIG 0.16  HD
ATOM     48  C   PRO A 230       1.280  30.124 -52.645  1.00 46.57 LIG 0.25  C 
ATOM     49 O    PRO A 230       0.500  31.019 -52.336  1.00 46.08 LIG-0.27  OA
BRANCH 48 50
ATOM     50  CA  PRO A 230       2.432  30.411 -53.639  1.00 51.04 LIG 0.35  C 
ATOM     51  N   PRO A 230       3.734  30.498 -52.976  1.00 55.48 LIG 0.32  N 
ATOM     52  CD  PRO A 230       4.451  29.213 -53.013  1.00 58.51 LIG 0.32  C 
ATOM     53  CG  PRO A 230       3.997  28.622 -54.309  1.00 57.35 LIG 0.04  C 
ATOM     54  CB  PRO A 230       2.635  29.260 -54.651  1.00 52.45 LIG 0.05  C 
ENDBRANCH 48 50
ENDBRANCH 44 46
ENDBRANCH 42 44
ENDBRANCH 35 37
ENDBRANCH 1 33
TORSDOF 19
ENDMDL
MODEL 17
USER: ADFR SOLUTION from run 7
USER: SCORE 18.683280 LL:  -4.987 LR: -16.991 RR:   0.000 FEB: -11.324
USER: RMSD 7.978449
USER: SEED 701114
USER: STATUS no improvement in best in 6 clusters for 5 generations
USER: GENES 21
USER: genes 0 Translation |==|  0.35337 0.40094 0.75145
USER: genes 1 Rotation |==|  0.65999 0.93837 0.32396 0.53531
USER: genes 2 Torsion [C]-CA--CB-[CG] |==|  0.27990
USER: genes 3 Torsion [CA]-CB--CG-[CD] |==|  0.58131
USER: genes 4 Torsion [CB]-CG--CD-[OE1] |==|  0.70210
USER: genes 5 Torsion [N]-CA--C-[N] |==|  0.93024
USER: genes 6 Torsion [C]-N--CA-[CB] |==|  0.90180
USER: genes 7 Torsion [N]-CA--CB-[CG] |==|  0.79809
USER: genes 8 Torsion [CA]-CB--CG-[CD1] |==|  0.38991
USER: genes 9 Torsion [N]-CA--C-[N] |==|  0.11187
USER: genes 10 Torsion [C]-N--CA-[CB] |==|  0.12843
USER: genes 11 Torsion [N]-CA--C-[N] |==|  0.11741
USER: genes 12 Torsion [C]-N--CA-[C] |==|  0.21575
USER: genes 13 Torsion [N]-CA--C-[O] |==|  0.58745
USER: genes 14 Torsion [N]-CA--CB-[CG] |==|  0.55952
USER: genes 15 Torsion [CA]-CB--CG-[CD2] |==|  0.03741
USER: genes 16 Torsion [CB]-CA--N-[C] |==|  0.44944
USER: genes 17 Torsion [N]-C--CA-[N] |==|  0.86716
USER: genes 18 Torsion [N]-C--CA-[N] |==|  0.43560
USER: genes 19 Torsion [C]-CA--N-[C] |==|  0.84439
USER: genes 20 Torsion [N]-C--CA-[N] |==|  0.53488
ROOT
ATOM      1  CA  GLU A 233      -3.394  23.620 -44.195  1.00 24.61 LIG 0.18  C 
ENDROOT
BRANCH 1 2
ATOM      2  CB  GLU A 233      -4.910  23.658 -44.385  1.00 26.56 LIG 0.04  C 
BRANCH 2 3
ATOM      3  CG  GLU A 233      -5.652  22.935 -43.255  1.00 28.50 LIG 0.12  C 
BRANCH 3 4
ATOM      4  CD  GLU A 233      -6.962  22.335 -43.665  1.00 31.23 LIG 0.17  C 
ATOM      5 OE1  GLU A 233      -8.001  22.870 -43.281  1.00 40.78 LIG-0.65  OA
ATOM      6 OE2  GLU A 233      -6.964  21.352 -44.416  1.00 32.56 LIG-0.65  OA
ENDBRANCH 3 4
ENDBRANCH 2 3
ENDBRANCH 1 2
BRANCH 1 7
ATOM      7  C   GLU A 233      -2.738  22.549 -45.075  1.00 22.49 LIG 0.24  C 
ATOM      8  N   LEU A 234      -2.220  22.991 -46.219  1.00 21.03 LIG-0.35  N 
ATOM      9 H    LEU A 234      -2.221  23.816 -46.458  1.00 21.03 LIG 0.16  HD
ATOM     10 O    GLU A 233      -2.749  21.352 -44.759  1.00 21.03 LIG-0.27  OA
BRANCH 8 11
ATOM     11  CA  LEU A 234      -1.593  22.081 -47.183  1.00 20.74 LIG 0.18  C 
BRANCH 11 12
ATOM     12  CB  LEU A 234      -0.874  20.978 -46.405  1.00 23.04 LIG 0.04  C 
BRANCH 12 13
ATOM     13  CG  LEU A 234       0.401  21.530 -45.735  1.00 25.06 LIG-0.02  C 
ATOM     14  CD1 LEU A 234       0.602  20.952 -44.329  1.00 33.19 LIG 0.01  C 
ATOM     15  CD2 LEU A 234       1.613  21.297 -46.652  1.00 27.29 LIG 0.01  C 
ENDBRANCH 12 13
ENDBRANCH 11 12
BRANCH 11 16
ATOM     16  C   LEU A 234      -2.627  21.512 -48.153  1.00 18.65 LIG 0.24  C 
ATOM     17 O    LEU A 234      -2.525  20.353 -48.533  1.00 20.08 LIG-0.27  OA
ATOM     18  N   LEU A 235      -3.569  22.351 -48.599  1.00 16.33 LIG-0.35  N 
ATOM     19 H    LEU A 235      -3.562  23.199 -48.451  1.00 16.33 LIG 0.16  HD
BRANCH 18 20
ATOM     20  CA  LEU A 235      -4.702  21.893 -49.383  1.00 16.00 LIG 0.18  C 
BRANCH 20 21
ATOM     21  C   LEU A 235      -5.770  22.975 -49.594  1.00 15.60 LIG 0.24  C 
ATOM     22 O    LEU A 235      -6.943  22.710 -49.503  1.00 16.00 LIG-0.27  OA
ATOM     23  N   GLY A 236      -5.355  24.194 -49.880  1.00 15.05 LIG-0.35  N 
ATOM     24 H    GLY A 236      -4.531  24.431 -49.940  1.00 15.05 LIG 0.16  HD
BRANCH 23 25
ATOM     25  CA  GLY A 236      -6.345  25.273 -50.125  1.00 15.88 LIG 0.23  C 
BRANCH 25 26
ATOM     26  C   GLY A 236      -6.933  25.796 -48.843  1.00 16.68 LIG 0.19  C 
ATOM     27 O    GLY A 236      -8.094  26.217 -48.823  1.00 18.78 LIG-0.65  OA
ATOM     28 OXT  GLY A 236      -6.271  25.825 -47.808  1.00 16.61 LIG-0.65  OA
ENDBRANCH 25 26
ENDBRANCH 23 25
ENDBRANCH 20 21
BRANCH 20 29
ATOM     29  CB  LEU A 235      -5.325  20.635 -48.737  1.00 17.17 LIG 0.04  C 
BRANCH 29 30
ATOM     30  CG  LEU A 235      -6.173  19.723 -49.631  1.00 20.01 LIG-0.02  C 
ATOM     31  CD1 LEU A 235      -7.590  19.848 -49.293  1.00 21.18 LIG 0.01  C 
ATOM     32  CD2 LEU A 235      -5.952  20.093 -51.115  1.00 23.81 LIG 0.01  C 
ENDBRANCH 29 30
ENDBRANCH 20 29
ENDBRANCH 18 20
ENDBRANCH 11 16
ENDBRANCH 8 11
ENDBRANCH 1 7
BRANCH 1 33
ATOM     33  N   GLU A 233      -2.780  24.909 -44.523  1.00 26.21 LIG-0.35  N 
ATOM     34 H    GLU A 233      -3.276  25.426 -45.000  1.00 26.21 LIG 0.16  HD
ATOM     35  C   PRO A 232      -1.561  25.233 -44.111  1.00 29.12 LIG 0.24  C 
ATOM     36 O    PRO A 232      -0.889  24.545 -43.329  1.00 29.57 LIG-0.27  OA
BRANCH 35 37
ATOM     37  CA  PRO A 232      -1.010  26.558 -44.640  1.00 32.50 LIG 0.18  C 
ATOM     38  CB  PRO A 232      -1.808  27.724 -44.041  1.00 34.03 LIG 0.04  C 
ATOM     39  CG  PRO A 232      -2.138  28.634 -45.164  1.00 39.71 LIG 0.02  C 
ATOM     40  CD  PRO A 232      -1.729  28.030 -46.460  1.00 41.14 LIG 0.13  C 
ATOM     41  N   PRO A 232      -1.174  26.715 -46.083  1.00 36.81 LIG-0.34  N 
ATOM     42  C   ALA A 231      -0.655  25.792 -46.910  1.00 38.01 LIG 0.24  C 
ATOM     43 O    ALA A 231      -0.093  24.780 -46.498  1.00 37.25 LIG-0.27  OA
BRANCH 42 44
ATOM     44  CA  ALA A 231      -0.827  26.010 -48.400  1.00 42.70 LIG 0.17  C 
ATOM     45  CB  ALA A 231      -2.217  25.568 -48.813  1.00 44.12 LIG 0.04  C 
BRANCH 44 46
ATOM     46  N   ALA A 231       0.199  25.291 -49.162  1.00 44.69 LIG-0.35  N 
ATOM     47 H    ALA A 231      -0.112  24.747 -49.752  1.00 44.69 LIG 0.16  HD
ATOM     48  C   PRO A 230       1.498  25.484 -48.939  1.00 46.57 LIG 0.25  C 
ATOM     49 O    PRO A 230       1.915  26.106 -47.969  1.00 46.08 LIG-0.27  OA
BRANCH 48 50
ATOM     50  CA  PRO A 230       2.494  24.908 -49.976  1.00 51.04 LIG 0.35  C 
ATOM     51  N   PRO A 230       3.875  24.919 -49.490  1.00 55.48 LIG 0.32  N 
ATOM     52  CD  PRO A 230       4.251  23.630 -48.889  1.00 58.51 LIG 0.32  C 
ATOM     53  CG  PRO A 230       3.451  22.651 -49.688  1.00 57.35 LIG 0.04  C 
ATOM     54  CB  PRO A 230       2.240  23.411 -50.266  1.00 52.45 LIG 0.05  C 
ENDBRANCH 48 50
ENDBRANCH 44 46
ENDBRANCH 42 44
ENDBRANCH 35 37
ENDBRANCH 1 33
TORSDOF 19
ENDMDL
MODEL 18
USER: ADFR SOLUTION from run 136
USER: SCORE 18.949348 LL:  -4.834 LR: -16.972 RR:   0.000 FEB: -11.305
USER: RMSD 7.591077
USER: SEED 135
USER: STATUS no improvement in best in 6 clusters for 5 generations
USER: GENES 21
USER: genes 0 Translation |==|  0.36697 0.41095 0.74328
USER: genes 1 Rotation |==|  0.61649 0.92757 0.29024 0.59806
USER: genes 2 Torsion [C]-CA--CB-[CG] |==|  0.33977
USER: genes 3 Torsion [CA]-CB--CG-[CD] |==|  0.53843
USER: genes 4 Torsion [CB]-CG--CD-[OE1] |==|  0.62442
USER: genes 5 Torsion [N]-CA--C-[N] |==|  0.13657
USER: genes 6 Torsion [C]-N--CA-[CB] |==|  0.85000
USER: genes 7 Torsion [N]-CA--CB-[CG] |==|  0.85072
USER: genes 8 Torsion [CA]-CB--CG-[CD1] |==|  0.44565
USER: genes 9 Torsion [N]-CA--C-[N] |==|  0.89672
USER: genes 10 Torsion [C]-N--CA-[CB] |==|  0.15826
USER: genes 11 Torsion [N]-CA--C-[N] |==|  0.67152
USER: genes 12 Torsion [C]-N--CA-[C] |==|  0.33975
USER: genes 13 Torsion [N]-CA--C-[O] |==|  0.73650
USER: genes 14 Torsion [N]-CA--CB-[CG] |==|  0.61593
USER: genes 15 Torsion [CA]-CB--CG-[CD2] |==|  0.15439
USER: genes 16 Torsion [CB]-CA--N-[C] |==|  0.44262
USER: genes 17 Torsion [N]-C--CA-[N] |==|  0.84329
USER: genes 18 Torsion [N]-C--CA-[N] |==|  0.18623
USER: genes 19 Torsion [C]-CA--N-[C] |==|  0.66091
USER: genes 20 Torsion [N]-C--CA-[N] |==|  0.17316
ROOT
ATOM      1  CA  GLU A 233      -3.068  23.807 -44.385  1.00 24.61 LIG 0.18  C 
ENDROOT
BRANCH 1 2
ATOM      2  CB  GLU A 233      -4.517  23.459 -44.717  1.00 26.56 LIG 0.04  C 
BRANCH 2 3
ATOM      3  CG  GLU A 233      -5.388  23.348 -43.461  1.00 28.50 LIG 0.12  C 
BRANCH 3 4
ATOM      4  CD  GLU A 233      -6.718  22.698 -43.689  1.00 31.23 LIG 0.17  C 
ATOM      5 OE1  GLU A 233      -7.719  23.210 -43.190  1.00 40.78 LIG-0.65  OA
ATOM      6 OE2  GLU A 233      -6.781  21.695 -44.411  1.00 32.56 LIG-0.65  OA
ENDBRANCH 3 4
ENDBRANCH 2 3
ENDBRANCH 1 2
BRANCH 1 7
ATOM      7  C   GLU A 233      -2.092  22.754 -44.923  1.00 22.49 LIG 0.24  C 
ATOM      8  N   LEU A 234      -0.802  23.067 -44.821  1.00 21.03 LIG-0.35  N 
ATOM      9 H    LEU A 234      -0.512  23.792 -44.462  1.00 21.03 LIG 0.16  HD
ATOM     10 O    GLU A 233      -2.491  21.715 -45.465  1.00 21.03 LIG-0.27  OA
BRANCH 8 11
ATOM     11  CA  LEU A 234       0.249  22.178 -45.325  1.00 20.74 LIG 0.18  C 
BRANCH 11 12
ATOM     12  CB  LEU A 234       0.047  20.795 -44.705  1.00 23.04 LIG 0.04  C 
BRANCH 12 13
ATOM     13  CG  LEU A 234      -0.023  20.896 -43.167  1.00 25.06 LIG-0.02  C 
ATOM     14  CD1 LEU A 234      -0.688  19.662 -42.544  1.00 33.19 LIG 0.01  C 
ATOM     15  CD2 LEU A 234       1.380  21.165 -42.599  1.00 27.29 LIG 0.01  C 
ENDBRANCH 12 13
ENDBRANCH 11 12
BRANCH 11 16
ATOM     16  C   LEU A 234       0.235  22.123 -46.852  1.00 18.65 LIG 0.24  C 
ATOM     17 O    LEU A 234       1.293  22.123 -47.467  1.00 20.08 LIG-0.27  OA
ATOM     18  N   LEU A 235      -0.962  22.151 -47.451  1.00 16.33 LIG-0.35  N 
ATOM     19 H    LEU A 235      -1.700  22.297 -47.035  1.00 16.33 LIG 0.16  HD
BRANCH 18 20
ATOM     20  CA  LEU A 235      -1.116  21.932 -48.878  1.00 16.00 LIG 0.18  C 
BRANCH 20 21
ATOM     21  C   LEU A 235      -2.570  22.042 -49.355  1.00 15.60 LIG 0.24  C 
ATOM     22 O    LEU A 235      -3.182  23.075 -49.235  1.00 16.00 LIG-0.27  OA
ATOM     23  N   GLY A 236      -3.118  20.970 -49.894  1.00 15.05 LIG-0.35  N 
ATOM     24 H    GLY A 236      -2.716  20.220 -50.013  1.00 15.05 LIG 0.16  HD
BRANCH 23 25
ATOM     25  CA  GLY A 236      -4.531  21.010 -50.345  1.00 15.88 LIG 0.23  C 
BRANCH 25 26
ATOM     26  C   GLY A 236      -4.664  20.673 -51.805  1.00 16.68 LIG 0.19  C 
ATOM     27 O    GLY A 236      -4.700  21.575 -52.647  1.00 18.78 LIG-0.65  OA
ATOM     28 OXT  GLY A 236      -4.752  19.506 -52.179  1.00 16.61 LIG-0.65  OA
ENDBRANCH 25 26
ENDBRANCH 23 25
ENDBRANCH 20 21
BRANCH 20 29
ATOM     29  CB  LEU A 235      -0.517  20.565 -49.276  1.00 17.17 LIG 0.04  C 
BRANCH 29 30
ATOM     30  CG  LEU A 235       0.300  20.497 -50.572  1.00 20.01 LIG-0.02  C 
ATOM     31  CD1 LEU A 235      -0.554  20.753 -51.730  1.00 21.18 LIG 0.01  C 
ATOM     32  CD2 LEU A 235       1.445  21.533 -50.524  1.00 23.81 LIG 0.01  C 
ENDBRANCH 29 30
ENDBRANCH 20 29
ENDBRANCH 18 20
ENDBRANCH 11 16
ENDBRANCH 8 11
ENDBRANCH 1 7
BRANCH 1 33
ATOM     33  N   GLU A 233      -2.685  25.104 -44.950  1.00 26.21 LIG-0.35  N 
ATOM     34 H    GLU A 233      -3.183  25.367 -45.601  1.00 26.21 LIG 0.16  HD
ATOM     35  C   PRO A 232      -1.656  25.799 -44.483  1.00 29.12 LIG 0.24  C 
ATOM     36 O    PRO A 232      -1.009  25.484 -43.473  1.00 29.57 LIG-0.27  OA
BRANCH 35 37
ATOM     37  CA  PRO A 232      -1.305  27.070 -45.257  1.00 32.50 LIG 0.18  C 
ATOM     38  CB  PRO A 232      -2.509  28.021 -45.259  1.00 34.03 LIG 0.04  C 
ATOM     39  CG  PRO A 232      -2.678  28.490 -46.655  1.00 39.71 LIG 0.02  C 
ATOM     40  CD  PRO A 232      -1.746  27.768 -47.563  1.00 41.14 LIG 0.13  C 
ATOM     41  N   PRO A 232      -1.038  26.828 -46.673  1.00 36.81 LIG-0.34  N 
ATOM     42  C   ALA A 231      -0.076  25.957 -47.021  1.00 38.01 LIG 0.24  C 
ATOM     43 O    ALA A 231       0.555  25.304 -46.193  1.00 37.25 LIG-0.27  OA
BRANCH 42 44
ATOM     44  CA  ALA A 231       0.185  25.756 -48.502  1.00 42.70 LIG 0.17  C 
ATOM     45  CB  ALA A 231       1.119  24.577 -48.689  1.00 44.12 LIG 0.04  C 
BRANCH 44 46
ATOM     46  N   ALA A 231       0.743  26.968 -49.110  1.00 44.69 LIG-0.35  N 
ATOM     47 H    ALA A 231       1.476  27.240 -48.752  1.00 44.69 LIG 0.16  HD
ATOM     48  C   PRO A 230       0.142  27.576 -50.132  1.00 46.57 LIG 0.25  C 
ATOM     49 O    PRO A 230      -0.994  27.291 -50.494  1.00 46.08 LIG-0.27  OA
BRANCH 48 50
ATOM     50  CA  PRO A 230       0.945  28.665 -50.887  1.00 51.04 LIG 0.35  C 
ATOM     51  N   PRO A 230       2.150  28.130 -51.523  1.00 55.48 LIG 0.32  N 
ATOM     52  CD  PRO A 230       1.912  27.781 -52.933  1.00 58.51 LIG 0.32  C 
ATOM     53  CG  PRO A 230       0.891  28.790 -53.352  1.00 57.35 LIG 0.04  C 
ATOM     54  CB  PRO A 230       0.156  29.255 -52.079  1.00 52.45 LIG 0.05  C 
ENDBRANCH 48 50
ENDBRANCH 44 46
ENDBRANCH 42 44
ENDBRANCH 35 37
ENDBRANCH 1 33
TORSDOF 19
ENDMDL
MODEL 19
USER: ADFR SOLUTION from run 96
USER: SCORE 19.029411 LL:  -4.761 LR: -16.864 RR:   0.000 FEB: -11.196
USER: RMSD 5.677200
USER: SEED 95
USER: STATUS no improvement in best in 2 clusters for 5 generations
USER: GENES 21
USER: genes 0 Translation |==|  0.55478 0.42895 0.55654
USER: genes 1 Rotation |==|  0.42756 0.57201 0.50937 0.98937
USER: genes 2 Torsion [C]-CA--CB-[CG] |==|  0.20189
USER: genes 3 Torsion [CA]-CB--CG-[CD] |==|  0.31034
USER: genes 4 Torsion [CB]-CG--CD-[OE1] |==|  0.97472
USER: genes 5 Torsion [N]-CA--C-[N] |==|  0.35619
USER: genes 6 Torsion [C]-N--CA-[CB] |==|  0.23883
USER: genes 7 Torsion [N]-CA--CB-[CG] |==|  0.60289
USER: genes 8 Torsion [CA]-CB--CG-[CD1] |==|  0.45086
USER: genes 9 Torsion [N]-CA--C-[N] |==|  0.93140
USER: genes 10 Torsion [C]-N--CA-[CB] |==|  0.78882
USER: genes 11 Torsion [N]-CA--C-[N] |==|  0.13649
USER: genes 12 Torsion [C]-N--CA-[C] |==|  0.70508
USER: genes 13 Torsion [N]-CA--C-[O] |==|  0.51270
USER: genes 14 Torsion [N]-CA--CB-[CG] |==|  0.00884
USER: genes 15 Torsion [CA]-CB--CG-[CD2] |==|  0.73081
USER: genes 16 Torsion [CB]-CA--N-[C] |==|  0.19726
USER: genes 17 Torsion [N]-C--CA-[N] |==|  0.95409
USER: genes 18 Torsion [N]-C--CA-[N] |==|  0.46655
USER: genes 19 Torsion [C]-CA--N-[C] |==|  0.79997
USER: genes 20 Torsion [N]-C--CA-[N] |==|  0.49407
ROOT
ATOM      1  CA  GLU A 233       1.440  24.145 -48.726  1.00 24.61 LIG 0.18  C 
ENDROOT
BRANCH 1 2
ATOM      2  CB  GLU A 233       2.799  23.454 -48.625  1.00 26.56 LIG 0.04  C 
BRANCH 2 3
ATOM      3  CG  GLU A 233       2.738  22.181 -47.775  1.00 28.50 LIG 0.12  C 
BRANCH 3 4
ATOM      4  CD  GLU A 233       2.939  20.913 -48.548  1.00 31.23 LIG 0.17  C 
ATOM      5 OE1  GLU A 233       2.961  20.969 -49.777  1.00 40.78 LIG-0.65  OA
ATOM      6 OE2  GLU A 233       3.125  19.857 -47.932  1.00 32.56 LIG-0.65  OA
ENDBRANCH 3 4
ENDBRANCH 2 3
ENDBRANCH 1 2
BRANCH 1 7
ATOM      7  C   GLU A 233       1.050  24.828 -47.410  1.00 22.49 LIG 0.24  C 
ATOM      8  N   LEU A 234       0.059  24.246 -46.738  1.00 21.03 LIG-0.35  N 
ATOM      9 H    LEU A 234      -0.335  23.525 -46.993  1.00 21.03 LIG 0.16  HD
ATOM     10 O    GLU A 233       1.588  25.878 -47.039  1.00 21.03 LIG-0.27  OA
BRANCH 8 11
ATOM     11  CA  LEU A 234      -0.451  24.802 -45.481  1.00 20.74 LIG 0.18  C 
BRANCH 11 12
ATOM     12  CB  LEU A 234      -1.515  25.849 -45.815  1.00 23.04 LIG 0.04  C 
BRANCH 12 13
ATOM     13  CG  LEU A 234      -1.434  27.036 -44.832  1.00 25.06 LIG-0.02  C 
ATOM     14  CD1 LEU A 234      -2.159  28.274 -45.373  1.00 33.19 LIG 0.01  C 
ATOM     15  CD2 LEU A 234      -1.949  26.602 -43.450  1.00 27.29 LIG 0.01  C 
ENDBRANCH 12 13
ENDBRANCH 11 12
BRANCH 11 16
ATOM     16  C   LEU A 234      -1.002  23.701 -44.577  1.00 18.65 LIG 0.24  C 
ATOM     17 O    LEU A 234      -0.985  23.850 -43.363  1.00 20.08 LIG-0.27  OA
ATOM     18  N   LEU A 235      -1.418  22.576 -45.172  1.00 16.33 LIG-0.35  N 
ATOM     19 H    LEU A 235      -1.298  22.406 -46.007  1.00 16.33 LIG 0.16  HD
BRANCH 18 20
ATOM     20  CA  LEU A 235      -2.116  21.531 -44.446  1.00 16.00 LIG 0.18  C 
BRANCH 20 21
ATOM     21  C   LEU A 235      -3.270  22.060 -43.583  1.00 15.60 LIG 0.24  C 
ATOM     22 O    LEU A 235      -3.378  21.728 -42.428  1.00 16.00 LIG-0.27  OA
ATOM     23  N   GLY A 236      -4.130  22.881 -44.152  1.00 15.05 LIG-0.35  N 
ATOM     24 H    GLY A 236      -4.084  23.156 -44.965  1.00 15.05 LIG 0.16  HD
BRANCH 23 25
ATOM     25  CA  GLY A 236      -5.283  23.399 -43.373  1.00 15.88 LIG 0.23  C 
BRANCH 25 26
ATOM     26  C   GLY A 236      -6.575  22.750 -43.784  1.00 16.68 LIG 0.19  C 
ATOM     27 O    GLY A 236      -7.642  23.130 -43.291  1.00 18.78 LIG-0.65  OA
ATOM     28 OXT  GLY A 236      -6.591  21.830 -44.599  1.00 16.61 LIG-0.65  OA
ENDBRANCH 25 26
ENDBRANCH 23 25
ENDBRANCH 20 21
BRANCH 20 29
ATOM     29  CB  LEU A 235      -1.120  20.723 -43.586  1.00 17.17 LIG 0.04  C 
BRANCH 29 30
ATOM     30  CG  LEU A 235       0.344  21.177 -43.577  1.00 20.01 LIG-0.02  C 
ATOM     31  CD1 LEU A 235       0.917  21.033 -42.239  1.00 21.18 LIG 0.01  C 
ATOM     32  CD2 LEU A 235       1.158  20.341 -44.590  1.00 23.81 LIG 0.01  C 
ENDBRANCH 29 30
ENDBRANCH 20 29
ENDBRANCH 18 20
ENDBRANCH 11 16
ENDBRANCH 8 11
ENDBRANCH 1 7
BRANCH 1 33
ATOM     33  N   GLU A 233       1.434  25.164 -49.780  1.00 26.21 LIG-0.35  N 
ATOM     34 H    GLU A 233       1.411  25.973 -49.489  1.00 26.21 LIG 0.16  HD
ATOM     35  C   PRO A 232       1.461  24.844 -51.067  1.00 29.12 LIG 0.24  C 
ATOM     36 O    PRO A 232       1.612  23.689 -51.491  1.00 29.57 LIG-0.27  OA
BRANCH 35 37
ATOM     37  CA  PRO A 232       1.322  26.011 -52.046  1.00 32.50 LIG 0.18  C 
ATOM     38  CB  PRO A 232       2.708  26.416 -52.566  1.00 34.03 LIG 0.04  C 
ATOM     39  CG  PRO A 232       2.784  27.893 -52.468  1.00 39.71 LIG 0.02  C 
ATOM     40  CD  PRO A 232       1.585  28.430 -51.770  1.00 41.14 LIG 0.13  C 
ATOM     41  N   PRO A 232       0.804  27.227 -51.423  1.00 36.81 LIG-0.34  N 
ATOM     42  C   ALA A 231      -0.380  27.189 -50.789  1.00 38.01 LIG 0.24  C 
ATOM     43 O    ALA A 231      -1.025  26.152 -50.658  1.00 37.25 LIG-0.27  OA
BRANCH 42 44
ATOM     44  CA  ALA A 231      -0.890  28.481 -50.180  1.00 42.70 LIG 0.17  C 
ATOM     45  CB  ALA A 231      -0.020  28.852 -48.994  1.00 44.12 LIG 0.04  C 
BRANCH 44 46
ATOM     46  N   ALA A 231      -2.295  28.359 -49.780  1.00 44.69 LIG-0.35  N 
ATOM     47 H    ALA A 231      -2.421  28.324 -48.929  1.00 44.69 LIG 0.16  HD
ATOM     48  C   PRO A 230      -3.275  28.309 -50.680  1.00 46.57 LIG 0.25  C 
ATOM     49 O    PRO A 230      -3.063  28.159 -51.879  1.00 46.08 LIG-0.27  OA
BRANCH 48 50
ATOM     50  CA  PRO A 230      -4.727  28.472 -50.166  1.00 51.04 LIG 0.35  C 
ATOM     51  N   PRO A 230      -5.710  28.449 -51.250  1.00 55.48 LIG 0.32  N 
ATOM     52  CD  PRO A 230      -6.272  27.104 -51.448  1.00 58.51 LIG 0.32  C 
ATOM     53  CG  PRO A 230      -6.256  26.536 -50.064  1.00 57.35 LIG 0.04  C 
ATOM     54  CB  PRO A 230      -5.170  27.291 -49.272  1.00 52.45 LIG 0.05  C 
ENDBRANCH 48 50
ENDBRANCH 44 46
ENDBRANCH 42 44
ENDBRANCH 35 37
ENDBRANCH 1 33
TORSDOF 19
ENDMDL
MODEL 20
USER: ADFR SOLUTION from run 108
USER: SCORE 19.828087 LL:  -6.384 LR: -16.849 RR:   0.000 FEB: -11.181
USER: RMSD 7.221856
USER: SEED 107
USER: STATUS no improvement in best in 1 clusters for 5 generations
USER: GENES 21
USER: genes 0 Translation |==|  0.55550 0.32296 0.56896
USER: genes 1 Rotation |==|  0.34596 0.55152 0.83519 0.83356
USER: genes 2 Torsion [C]-CA--CB-[CG] |==|  0.38281
USER: genes 3 Torsion [CA]-CB--CG-[CD] |==|  0.03046
USER: genes 4 Torsion [CB]-CG--CD-[OE1] |==|  0.81044
USER: genes 5 Torsion [N]-CA--C-[N] |==|  0.19901
USER: genes 6 Torsion [C]-N--CA-[CB] |==|  0.80151
USER: genes 7 Torsion [N]-CA--CB-[CG] |==|  0.53565
USER: genes 8 Torsion [CA]-CB--CG-[CD1] |==|  0.11236
USER: genes 9 Torsion [N]-CA--C-[N] |==|  0.67998
USER: genes 10 Torsion [C]-N--CA-[CB] |==|  0.73218
USER: genes 11 Torsion [N]-CA--C-[N] |==|  0.24654
USER: genes 12 Torsion [C]-N--CA-[C] |==|  0.73452
USER: genes 13 Torsion [N]-CA--C-[O] |==|  0.02110
USER: genes 14 Torsion [N]-CA--CB-[CG] |==|  0.81833
USER: genes 15 Torsion [CA]-CB--CG-[CD2] |==|  0.97816
USER: genes 16 Torsion [CB]-CA--N-[C] |==|  0.42547
USER: genes 17 Torsion [N]-C--CA-[N] |==|  0.83798
USER: genes 18 Torsion [N]-C--CA-[N] |==|  0.88023
USER: genes 19 Torsion [C]-CA--N-[C] |==|  0.84600
USER: genes 20 Torsion [N]-C--CA-[N] |==|  0.42064
ROOT
ATOM      1  CA  GLU A 233       1.457  22.158 -48.438  1.00 24.61 LIG 0.18  C 
ENDROOT
BRANCH 1 2
ATOM      2  CB  GLU A 233       2.247  23.436 -48.711  1.00 26.56 LIG 0.04  C 
BRANCH 2 3
ATOM      3  CG  GLU A 233       3.626  23.146 -49.313  1.00 28.50 LIG 0.12  C 
BRANCH 3 4
ATOM      4  CD  GLU A 233       3.821  21.725 -49.750  1.00 31.23 LIG 0.17  C 
ATOM      5 OE1  GLU A 233       3.875  20.847 -48.891  1.00 40.78 LIG-0.65  OA
ATOM      6 OE2  GLU A 233       3.873  21.471 -50.959  1.00 32.56 LIG-0.65  OA
ENDBRANCH 3 4
ENDBRANCH 2 3
ENDBRANCH 1 2
BRANCH 1 7
ATOM      7  C   GLU A 233       0.735  22.214 -47.086  1.00 22.49 LIG 0.24  C 
ATOM      8  N   LEU A 234       0.277  21.047 -46.636  1.00 21.03 LIG-0.35  N 
ATOM      9 H    LEU A 234       0.387  20.299 -47.045  1.00 21.03 LIG 0.16  HD
ATOM     10 O    GLU A 233       0.546  23.284 -46.494  1.00 21.03 LIG-0.27  OA
BRANCH 8 11
ATOM     11  CA  LEU A 234      -0.467  20.946 -45.377  1.00 20.74 LIG 0.18  C 
BRANCH 11 12
ATOM     12  CB  LEU A 234       0.510  21.169 -44.222  1.00 23.04 LIG 0.04  C 
BRANCH 12 13
ATOM     13  CG  LEU A 234      -0.135  20.762 -42.880  1.00 25.06 LIG-0.02  C 
ATOM     14  CD1 LEU A 234      -0.962  19.477 -43.012  1.00 33.19 LIG 0.01  C 
ATOM     15  CD2 LEU A 234       0.947  20.664 -41.792  1.00 27.29 LIG 0.01  C 
ENDBRANCH 12 13
ENDBRANCH 11 12
BRANCH 11 16
ATOM     16  C   LEU A 234      -1.624  21.943 -45.342  1.00 18.65 LIG 0.24  C 
ATOM     17 O    LEU A 234      -2.515  21.864 -46.178  1.00 20.08 LIG-0.27  OA
ATOM     18  N   LEU A 235      -1.564  22.913 -44.423  1.00 16.33 LIG-0.35  N 
ATOM     19 H    LEU A 235      -0.875  23.062 -43.930  1.00 16.33 LIG 0.16  HD
BRANCH 18 20
ATOM     20  CA  LEU A 235      -2.676  23.813 -44.176  1.00 16.00 LIG 0.18  C 
BRANCH 20 21
ATOM     21  C   LEU A 235      -4.043  23.189 -44.492  1.00 15.60 LIG 0.24  C 
ATOM     22 O    LEU A 235      -4.537  23.309 -45.586  1.00 16.00 LIG-0.27  OA
ATOM     23  N   GLY A 236      -4.649  22.526 -43.526  1.00 15.05 LIG-0.35  N 
ATOM     24 H    GLY A 236      -4.328  22.403 -42.738  1.00 15.05 LIG 0.16  HD
BRANCH 23 25
ATOM     25  CA  GLY A 236      -5.985  21.928 -43.767  1.00 15.88 LIG 0.23  C 
BRANCH 25 26
ATOM     26  C   GLY A 236      -7.096  22.830 -43.302  1.00 16.68 LIG 0.19  C 
ATOM     27 O    GLY A 236      -6.842  23.977 -42.921  1.00 18.78 LIG-0.65  OA
ATOM     28 OXT  GLY A 236      -8.261  22.440 -43.280  1.00 16.61 LIG-0.65  OA
ENDBRANCH 25 26
ENDBRANCH 23 25
ENDBRANCH 20 21
BRANCH 20 29
ATOM     29  CB  LEU A 235      -2.485  25.128 -44.963  1.00 17.17 LIG 0.04  C 
BRANCH 29 30
ATOM     30  CG  LEU A 235      -1.302  26.023 -44.575  1.00 20.01 LIG-0.02  C 
ATOM     31  CD1 LEU A 235      -1.750  27.398 -44.360  1.00 21.18 LIG 0.01  C 
ATOM     32  CD2 LEU A 235      -0.635  25.481 -43.291  1.00 23.81 LIG 0.01  C 
ENDBRANCH 29 30
ENDBRANCH 20 29
ENDBRANCH 18 20
ENDBRANCH 11 16
ENDBRANCH 8 11
ENDBRANCH 1 7
BRANCH 1 33
ATOM     33  N   GLU A 233       0.450  21.918 -49.476  1.00 26.21 LIG-0.35  N 
ATOM     34 H    GLU A 233       0.171  22.630 -49.869  1.00 26.21 LIG 0.16  HD
ATOM     35  C   PRO A 232       0.019  20.698 -49.769  1.00 29.12 LIG 0.24  C 
ATOM     36 O    PRO A 232       0.500  19.660 -49.291  1.00 29.57 LIG-0.27  OA
BRANCH 35 37
ATOM     37  CA  PRO A 232      -1.122  20.622 -50.784  1.00 32.50 LIG 0.18  C 
ATOM     38  CB  PRO A 232      -0.695  21.301 -52.092  1.00 34.03 LIG 0.04  C 
ATOM     39  CG  PRO A 232      -1.813  22.187 -52.496  1.00 39.71 LIG 0.02  C 
ATOM     40  CD  PRO A 232      -2.855  22.225 -51.435  1.00 41.14 LIG 0.13  C 
ATOM     41  N   PRO A 232      -2.313  21.361 -50.369  1.00 36.81 LIG-0.34  N 
ATOM     42  C   ALA A 231      -2.897  21.062 -49.197  1.00 38.01 LIG 0.24  C 
ATOM     43 O    ALA A 231      -2.435  20.227 -48.423  1.00 37.25 LIG-0.27  OA
BRANCH 42 44
ATOM     44  CA  ALA A 231      -4.145  21.836 -48.819  1.00 42.70 LIG 0.17  C 
ATOM     45  CB  ALA A 231      -5.336  21.256 -49.559  1.00 44.12 LIG 0.04  C 
BRANCH 44 46
ATOM     46  N   ALA A 231      -3.992  23.264 -49.114  1.00 44.69 LIG-0.35  N 
ATOM     47 H    ALA A 231      -4.604  23.590 -49.623  1.00 44.69 LIG 0.16  HD
ATOM     48  C   PRO A 230      -2.979  23.974 -48.619  1.00 46.57 LIG 0.25  C 
ATOM     49 O    PRO A 230      -2.017  23.454 -48.064  1.00 46.08 LIG-0.27  OA
BRANCH 48 50
ATOM     50  CA  PRO A 230      -3.059  25.516 -48.742  1.00 51.04 LIG 0.35  C 
ATOM     51  N   PRO A 230      -2.339  26.201 -47.668  1.00 55.48 LIG 0.32  N 
ATOM     52  CD  PRO A 230      -0.971  26.561 -48.073  1.00 58.51 LIG 0.32  C 
ATOM     53  CG  PRO A 230      -1.121  26.822 -49.537  1.00 57.35 LIG 0.04  C 
ATOM     54  CB  PRO A 230      -2.360  26.040 -50.018  1.00 52.45 LIG 0.05  C 
ENDBRANCH 48 50
ENDBRANCH 44 46
ENDBRANCH 42 44
ENDBRANCH 35 37
ENDBRANCH 1 33
TORSDOF 19
ENDMDL
MODEL 21
USER: ADFR SOLUTION from run 43
USER: SCORE 20.028195 LL:  -5.111 LR: -16.830 RR:   0.000 FEB: -11.162
USER: RMSD 8.698372
USER: SEED 42
USER: STATUS no improvement in best in 5 clusters for 5 generations
USER: GENES 21
USER: genes 0 Translation |==|  0.29142 0.40024 0.73341
USER: genes 1 Rotation |==|  0.30552 0.79105 0.19392 0.68380
USER: genes 2 Torsion [C]-CA--CB-[CG] |==|  0.58895
USER: genes 3 Torsion [CA]-CB--CG-[CD] |==|  0.80482
USER: genes 4 Torsion [CB]-CG--CD-[OE1] |==|  0.14085
USER: genes 5 Torsion [N]-CA--C-[N] |==|  0.13892
USER: genes 6 Torsion [C]-N--CA-[CB] |==|  0.76002
USER: genes 7 Torsion [N]-CA--CB-[CG] |==|  0.78360
USER: genes 8 Torsion [CA]-CB--CG-[CD1] |==|  0.93772
USER: genes 9 Torsion [N]-CA--C-[N] |==|  0.69283
USER: genes 10 Torsion [C]-N--CA-[CB] |==|  0.76001
USER: genes 11 Torsion [N]-CA--C-[N] |==|  0.18152
USER: genes 12 Torsion [C]-N--CA-[C] |==|  0.78005
USER: genes 13 Torsion [N]-CA--C-[O] |==|  0.13273
USER: genes 14 Torsion [N]-CA--CB-[CG] |==|  0.86341
USER: genes 15 Torsion [CA]-CB--CG-[CD2] |==|  0.78319
USER: genes 16 Torsion [CB]-CA--N-[C] |==|  0.77351
USER: genes 17 Torsion [N]-C--CA-[N] |==|  0.24284
USER: genes 18 Torsion [N]-C--CA-[N] |==|  0.85875
USER: genes 19 Torsion [C]-CA--N-[C] |==|  0.85963
USER: genes 20 Torsion [N]-C--CA-[N] |==|  0.17361
ROOT
ATOM      1  CA  GLU A 233      -4.881  23.607 -44.614  1.00 24.61 LIG 0.18  C 
ENDROOT
BRANCH 1 2
ATOM      2  CB  GLU A 233      -5.180  22.381 -43.752  1.00 26.56 LIG 0.04  C 
BRANCH 2 3
ATOM      3  CG  GLU A 233      -6.568  21.797 -44.041  1.00 28.50 LIG 0.12  C 
BRANCH 3 4
ATOM      4  CD  GLU A 233      -7.705  22.650 -43.570  1.00 31.23 LIG 0.17  C 
ATOM      5 OE1  GLU A 233      -7.721  23.839 -43.883  1.00 40.78 LIG-0.65  OA
ATOM      6 OE2  GLU A 233      -8.620  22.126 -42.922  1.00 32.56 LIG-0.65  OA
ENDBRANCH 3 4
ENDBRANCH 2 3
ENDBRANCH 1 2
BRANCH 1 7
ATOM      7  C   GLU A 233      -3.387  23.719 -44.943  1.00 22.49 LIG 0.24  C 
ATOM      8  N   LEU A 234      -3.066  24.674 -45.812  1.00 21.03 LIG-0.35  N 
ATOM      9 H    LEU A 234      -3.634  25.217 -46.160  1.00 21.03 LIG 0.16  HD
ATOM     10 O    GLU A 233      -2.557  22.932 -44.470  1.00 21.03 LIG-0.27  OA
BRANCH 8 11
ATOM     11  CA  LEU A 234      -1.682  24.881 -46.253  1.00 20.74 LIG 0.18  C 
BRANCH 11 12
ATOM     12  CB  LEU A 234      -0.990  25.804 -45.250  1.00 23.04 LIG 0.04  C 
BRANCH 12 13
ATOM     13  CG  LEU A 234      -1.408  27.270 -45.485  1.00 25.06 LIG-0.02  C 
ATOM     14  CD1 LEU A 234      -1.917  27.496 -46.914  1.00 33.19 LIG 0.01  C 
ATOM     15  CD2 LEU A 234      -2.428  27.698 -44.416  1.00 27.29 LIG 0.01  C 
ENDBRANCH 12 13
ENDBRANCH 11 12
BRANCH 11 16
ATOM     16  C   LEU A 234      -0.949  23.548 -46.399  1.00 18.65 LIG 0.24  C 
ATOM     17 O    LEU A 234      -1.305  22.754 -47.260  1.00 20.08 LIG-0.27  OA
ATOM     18  N   LEU A 235       0.019  23.286 -45.513  1.00 16.33 LIG-0.35  N 
ATOM     19 H    LEU A 235       0.176  23.771 -44.820  1.00 16.33 LIG 0.16  HD
BRANCH 18 20
ATOM     20  CA  LEU A 235       0.899  22.140 -45.649  1.00 16.00 LIG 0.18  C 
BRANCH 20 21
ATOM     21  C   LEU A 235       1.298  21.849 -47.102  1.00 15.60 LIG 0.24  C 
ATOM     22 O    LEU A 235       0.948  20.830 -47.645  1.00 16.00 LIG-0.27  OA
ATOM     23  N   GLY A 236       2.033  22.750 -47.724  1.00 15.05 LIG-0.35  N 
ATOM     24 H    GLY A 236       2.291  23.495 -47.382  1.00 15.05 LIG 0.16  HD
BRANCH 23 25
ATOM     25  CA  GLY A 236       2.473  22.507 -49.121  1.00 15.88 LIG 0.23  C 
BRANCH 25 26
ATOM     26  C   GLY A 236       3.653  21.577 -49.184  1.00 16.68 LIG 0.19  C 
ATOM     27 O    GLY A 236       3.644  20.523 -48.541  1.00 18.78 LIG-0.65  OA
ATOM     28 OXT  GLY A 236       4.641  21.854 -49.860  1.00 16.61 LIG-0.65  OA
ENDBRANCH 25 26
ENDBRANCH 23 25
ENDBRANCH 20 21
BRANCH 20 29
ATOM     29  CB  LEU A 235       0.256  20.893 -45.003  1.00 17.17 LIG 0.04  C 
BRANCH 29 30
ATOM     30  CG  LEU A 235      -0.307  21.037 -43.584  1.00 20.01 LIG-0.02  C 
ATOM     31  CD1 LEU A 235      -1.259  19.965 -43.298  1.00 21.18 LIG 0.01  C 
ATOM     32  CD2 LEU A 235       0.847  21.003 -42.557  1.00 23.81 LIG 0.01  C 
ENDBRANCH 29 30
ENDBRANCH 20 29
ENDBRANCH 18 20
ENDBRANCH 11 16
ENDBRANCH 8 11
ENDBRANCH 1 7
BRANCH 1 33
ATOM     33  N   GLU A 233      -5.618  23.564 -45.881  1.00 26.21 LIG-0.35  N 
ATOM     34 H    GLU A 233      -6.339  24.032 -45.886  1.00 26.21 LIG 0.16  HD
ATOM     35  C   PRO A 232      -5.190  22.857 -46.919  1.00 29.12 LIG 0.24  C 
ATOM     36 O    PRO A 232      -4.096  22.277 -46.959  1.00 29.57 LIG-0.27  OA
BRANCH 35 37
ATOM     37  CA  PRO A 232      -6.131  22.811 -48.124  1.00 32.50 LIG 0.18  C 
ATOM     38  CB  PRO A 232      -5.831  21.563 -48.964  1.00 34.03 LIG 0.04  C 
ATOM     39  CG  PRO A 232      -5.765  22.008 -50.377  1.00 39.71 LIG 0.02  C 
ATOM     40  CD  PRO A 232      -5.850  23.491 -50.459  1.00 41.14 LIG 0.13  C 
ATOM     41  N   PRO A 232      -5.936  23.923 -49.051  1.00 36.81 LIG-0.34  N 
ATOM     42  C   ALA A 231      -6.045  25.184 -48.600  1.00 38.01 LIG 0.24  C 
ATOM     43 O    ALA A 231      -6.246  25.446 -47.416  1.00 37.25 LIG-0.27  OA
BRANCH 42 44
ATOM     44  CA  ALA A 231      -5.861  26.305 -49.603  1.00 42.70 LIG 0.17  C 
ATOM     45  CB  ALA A 231      -7.065  26.356 -50.524  1.00 44.12 LIG 0.04  C 
BRANCH 44 46
ATOM     46  N   ALA A 231      -4.623  26.132 -50.370  1.00 44.69 LIG-0.35  N 
ATOM     47 H    ALA A 231      -4.722  26.187 -51.223  1.00 44.69 LIG 0.16  HD
ATOM     48  C   PRO A 230      -3.455  25.909 -49.769  1.00 46.57 LIG 0.25  C 
ATOM     49 O    PRO A 230      -3.368  25.637 -48.576  1.00 46.08 LIG-0.27  OA
BRANCH 48 50
ATOM     50  CA  PRO A 230      -2.174  26.028 -50.631  1.00 51.04 LIG 0.35  C 
ATOM     51  N   PRO A 230      -1.981  27.378 -51.162  1.00 55.48 LIG 0.32  N 
ATOM     52  CD  PRO A 230      -1.093  28.179 -50.304  1.00 58.51 LIG 0.32  C 
ATOM     53  CG  PRO A 230      -0.159  27.151 -49.750  1.00 57.35 LIG 0.04  C 
ATOM     54  CB  PRO A 230      -0.887  25.793 -49.806  1.00 52.45 LIG 0.05  C 
ENDBRANCH 48 50
ENDBRANCH 44 46
ENDBRANCH 42 44
ENDBRANCH 35 37
ENDBRANCH 1 33
TORSDOF 19
ENDMDL
MODEL 22
USER: ADFR SOLUTION from run 159
USER: SCORE 19.058629 LL:  -5.089 LR: -16.807 RR:   0.000 FEB: -11.139
USER: RMSD 4.223052
USER: SEED 158
USER: STATUS no improvement in best in 10 clusters for 5 generations
USER: GENES 21
USER: genes 0 Translation |==|  0.54737 0.42932 0.55473
USER: genes 1 Rotation |==|  0.32560 0.64805 0.66169 0.91415
USER: genes 2 Torsion [C]-CA--CB-[CG] |==|  0.40355
USER: genes 3 Torsion [CA]-CB--CG-[CD] |==|  0.85786
USER: genes 4 Torsion [CB]-CG--CD-[OE1] |==|  0.53492
USER: genes 5 Torsion [N]-CA--C-[N] |==|  0.21093
USER: genes 6 Torsion [C]-N--CA-[CB] |==|  0.25932
USER: genes 7 Torsion [N]-CA--CB-[CG] |==|  0.65169
USER: genes 8 Torsion [CA]-CB--CG-[CD1] |==|  0.34245
USER: genes 9 Torsion [N]-CA--C-[N] |==|  0.93529
USER: genes 10 Torsion [C]-N--CA-[CB] |==|  0.81814
USER: genes 11 Torsion [N]-CA--C-[N] |==|  0.42342
USER: genes 12 Torsion [C]-N--CA-[C] |==|  0.29343
USER: genes 13 Torsion [N]-CA--C-[O] |==|  0.46439
USER: genes 14 Torsion [N]-CA--CB-[CG] |==|  0.77797
USER: genes 15 Torsion [CA]-CB--CG-[CD2] |==|  0.77826
USER: genes 16 Torsion [CB]-CA--N-[C] |==|  0.44686
USER: genes 17 Torsion [N]-C--CA-[N] |==|  0.84021
USER: genes 18 Torsion [N]-C--CA-[N] |==|  0.89437
USER: genes 19 Torsion [C]-CA--N-[C] |==|  0.86111
USER: genes 20 Torsion [N]-C--CA-[N] |==|  0.56960
ROOT
ATOM      1  CA  GLU A 233       1.262  24.152 -48.768  1.00 24.61 LIG 0.18  C 
ENDROOT
BRANCH 1 2
ATOM      2  CB  GLU A 233       2.709  24.343 -49.218  1.00 26.56 LIG 0.04  C 
BRANCH 2 3
ATOM      3  CG  GLU A 233       3.346  23.031 -49.689  1.00 28.50 LIG 0.12  C 
BRANCH 3 4
ATOM      4  CD  GLU A 233       3.204  21.896 -48.722  1.00 31.23 LIG 0.17  C 
ATOM      5 OE1  GLU A 233       3.876  20.881 -48.901  1.00 40.78 LIG-0.65  OA
ATOM      6 OE2  GLU A 233       2.456  22.028 -47.746  1.00 32.56 LIG-0.65  OA
ENDBRANCH 3 4
ENDBRANCH 2 3
ENDBRANCH 1 2
BRANCH 1 7
ATOM      7  C   GLU A 233       0.904  25.074 -47.597  1.00 22.49 LIG 0.24  C 
ATOM      8  N   LEU A 234      -0.171  24.717 -46.899  1.00 21.03 LIG-0.35  N 
ATOM      9 H    LEU A 234      -0.635  24.012 -47.060  1.00 21.03 LIG 0.16  HD
ATOM     10 O    GLU A 233       1.545  26.107 -47.364  1.00 21.03 LIG-0.27  OA
BRANCH 8 11
ATOM     11  CA  LEU A 234      -0.660  25.520 -45.773  1.00 20.74 LIG 0.18  C 
BRANCH 11 12
ATOM     12  CB  LEU A 234      -1.723  26.486 -46.297  1.00 23.04 LIG 0.04  C 
BRANCH 12 13
ATOM     13  CG  LEU A 234      -1.366  27.939 -45.921  1.00 25.06 LIG-0.02  C 
ATOM     14  CD1 LEU A 234      -1.277  28.842 -47.157  1.00 33.19 LIG 0.01  C 
ATOM     15  CD2 LEU A 234      -2.362  28.465 -44.873  1.00 27.29 LIG 0.01  C 
ENDBRANCH 12 13
ENDBRANCH 11 12
BRANCH 11 16
ATOM     16  C   LEU A 234      -1.203  24.627 -44.658  1.00 18.65 LIG 0.24  C 
ATOM     17 O    LEU A 234      -1.191  25.028 -43.502  1.00 20.08 LIG-0.27  OA
ATOM     18  N   LEU A 235      -1.606  23.399 -45.005  1.00 16.33 LIG-0.35  N 
ATOM     19 H    LEU A 235      -1.482  23.058 -45.785  1.00 16.33 LIG 0.16  HD
BRANCH 18 20
ATOM     20  CA  LEU A 235      -2.297  22.522 -44.076  1.00 16.00 LIG 0.18  C 
BRANCH 20 21
ATOM     21  C   LEU A 235      -3.605  23.118 -43.538  1.00 15.60 LIG 0.24  C 
ATOM     22 O    LEU A 235      -3.750  24.313 -43.455  1.00 16.00 LIG-0.27  OA
ATOM     23  N   GLY A 236      -4.552  22.277 -43.171  1.00 15.05 LIG-0.35  N 
ATOM     24 H    GLY A 236      -4.498  21.421 -43.226  1.00 15.05 LIG 0.16  HD
BRANCH 23 25
ATOM     25  CA  GLY A 236      -5.826  22.797 -42.614  1.00 15.88 LIG 0.23  C 
BRANCH 25 26
ATOM     26  C   GLY A 236      -6.955  22.688 -43.602  1.00 16.68 LIG 0.19  C 
ATOM     27 O    GLY A 236      -8.121  22.851 -43.228  1.00 18.78 LIG-0.65  OA
ATOM     28 OXT  GLY A 236      -6.741  22.425 -44.782  1.00 16.61 LIG-0.65  OA
ENDBRANCH 25 26
ENDBRANCH 23 25
ENDBRANCH 20 21
BRANCH 20 29
ATOM     29  CB  LEU A 235      -1.359  22.132 -42.912  1.00 17.17 LIG 0.04  C 
BRANCH 29 30
ATOM     30  CG  LEU A 235      -0.336  21.019 -43.166  1.00 20.01 LIG-0.02  C 
ATOM     31  CD1 LEU A 235       0.764  21.106 -42.207  1.00 21.18 LIG 0.01  C 
ATOM     32  CD2 LEU A 235      -1.024  19.640 -43.053  1.00 23.81 LIG 0.01  C 
ENDBRANCH 29 30
ENDBRANCH 20 29
ENDBRANCH 18 20
ENDBRANCH 11 16
ENDBRANCH 8 11
ENDBRANCH 1 7
BRANCH 1 33
ATOM     33  N   GLU A 233       0.321  24.425 -49.859  1.00 26.21 LIG-0.35  N 
ATOM     34 H    GLU A 233       0.651  24.891 -50.502  1.00 26.21 LIG 0.16  HD
ATOM     35  C   PRO A 232      -0.929  23.981 -49.837  1.00 29.12 LIG 0.24  C 
ATOM     36 O    PRO A 232      -1.376  23.213 -48.973  1.00 29.57 LIG-0.27  OA
BRANCH 35 37
ATOM     37  CA  PRO A 232      -1.823  24.455 -50.984  1.00 32.50 LIG 0.18  C 
ATOM     38  CB  PRO A 232      -1.209  24.030 -52.325  1.00 34.03 LIG 0.04  C 
ATOM     39  CG  PRO A 232      -1.255  25.219 -53.209  1.00 39.71 LIG 0.02  C 
ATOM     40  CD  PRO A 232      -1.719  26.412 -52.451  1.00 41.14 LIG 0.13  C 
ATOM     41  N   PRO A 232      -1.918  25.910 -51.078  1.00 36.81 LIG-0.34  N 
ATOM     42  C   ALA A 231      -2.349  26.611 -50.017  1.00 38.01 LIG 0.24  C 
ATOM     43 O    ALA A 231      -2.614  26.083 -48.940  1.00 37.25 LIG-0.27  OA
BRANCH 42 44
ATOM     44  CA  ALA A 231      -2.456  28.116 -50.169  1.00 42.70 LIG 0.17  C 
ATOM     45  CB  ALA A 231      -3.793  28.461 -50.796  1.00 44.12 LIG 0.04  C 
BRANCH 44 46
ATOM     46  N   ALA A 231      -1.350  28.648 -50.971  1.00 44.69 LIG-0.35  N 
ATOM     47 H    ALA A 231      -1.593  29.168 -51.611  1.00 44.69 LIG 0.16  HD
ATOM     48  C   PRO A 230      -0.083  28.334 -50.706  1.00 46.57 LIG 0.25  C 
ATOM     49 O    PRO A 230       0.227  27.442 -49.924  1.00 46.08 LIG-0.27  OA
BRANCH 48 50
ATOM     50  CA  PRO A 230       1.021  29.161 -51.411  1.00 51.04 LIG 0.35  C 
ATOM     51  N   PRO A 230       2.278  28.423 -51.538  1.00 55.48 LIG 0.32  N 
ATOM     52  CD  PRO A 230       2.390  27.757 -52.845  1.00 58.51 LIG 0.32  C 
ATOM     53  CG  PRO A 230       1.651  28.690 -53.751  1.00 57.35 LIG 0.04  C 
ATOM     54  CB  PRO A 230       0.662  29.488 -52.879  1.00 52.45 LIG 0.05  C 
ENDBRANCH 48 50
ENDBRANCH 44 46
ENDBRANCH 42 44
ENDBRANCH 35 37
ENDBRANCH 1 33
TORSDOF 19
ENDMDL
MODEL 23
USER: ADFR SOLUTION from run 189
USER: SCORE 19.386956 LL:  -4.691 LR: -16.792 RR:   0.000 FEB: -11.125
USER: RMSD 7.899671
USER: SEED 188
USER: STATUS no improvement in best in 3 clusters for 5 generations
USER: GENES 21
USER: genes 0 Translation |==|  0.40245 0.42461 0.72689
USER: genes 1 Rotation |==|  0.56648 0.94243 0.30039 0.59997
USER: genes 2 Torsion [C]-CA--CB-[CG] |==|  0.33544
USER: genes 3 Torsion [CA]-CB--CG-[CD] |==|  0.44614
USER: genes 4 Torsion [CB]-CG--CD-[OE1] |==|  0.12970
USER: genes 5 Torsion [N]-CA--C-[N] |==|  0.40253
USER: genes 6 Torsion [C]-N--CA-[CB] |==|  0.56614
USER: genes 7 Torsion [N]-CA--CB-[CG] |==|  0.94881
USER: genes 8 Torsion [CA]-CB--CG-[CD1] |==|  0.38747
USER: genes 9 Torsion [N]-CA--C-[N] |==|  0.36999
USER: genes 10 Torsion [C]-N--CA-[CB] |==|  0.15045
USER: genes 11 Torsion [N]-CA--C-[N] |==|  0.60907
USER: genes 12 Torsion [C]-N--CA-[C] |==|  0.59014
USER: genes 13 Torsion [N]-CA--C-[O] |==|  0.03765
USER: genes 14 Torsion [N]-CA--CB-[CG] |==|  0.64729
USER: genes 15 Torsion [CA]-CB--CG-[CD2] |==|  0.27814
USER: genes 16 Torsion [CB]-CA--N-[C] |==|  0.50556
USER: genes 17 Torsion [N]-C--CA-[N] |==|  0.78143
USER: genes 18 Torsion [N]-C--CA-[N] |==|  0.24759
USER: genes 19 Torsion [C]-CA--N-[C] |==|  0.60709
USER: genes 20 Torsion [N]-C--CA-[N] |==|  0.20897
ROOT
ATOM      1  CA  GLU A 233      -2.216  24.063 -44.766  1.00 24.61 LIG 0.18  C 
ENDROOT
BRANCH 1 2
ATOM      2  CB  GLU A 233      -3.593  23.442 -44.994  1.00 26.56 LIG 0.04  C 
BRANCH 2 3
ATOM      3  CG  GLU A 233      -4.305  23.114 -43.677  1.00 28.50 LIG 0.12  C 
BRANCH 3 4
ATOM      4  CD  GLU A 233      -5.788  22.941 -43.806  1.00 31.23 LIG 0.17  C 
ATOM      5 OE1  GLU A 233      -6.223  22.242 -44.718  1.00 40.78 LIG-0.65  OA
ATOM      6 OE2  GLU A 233      -6.528  23.465 -42.964  1.00 32.56 LIG-0.65  OA
ENDBRANCH 3 4
ENDBRANCH 2 3
ENDBRANCH 1 2
BRANCH 1 7
ATOM      7  C   GLU A 233      -1.102  23.227 -45.406  1.00 22.49 LIG 0.24  C 
ATOM      8  N   LEU A 234      -0.541  22.320 -44.608  1.00 21.03 LIG-0.35  N 
ATOM      9 H    LEU A 234      -0.785  22.180 -43.796  1.00 21.03 LIG 0.16  HD
ATOM     10 O    GLU A 233      -0.720  23.431 -46.565  1.00 21.03 LIG-0.27  OA
BRANCH 8 11
ATOM     11  CA  LEU A 234       0.563  21.470 -45.065  1.00 20.74 LIG 0.18  C 
BRANCH 11 12
ATOM     12  CB  LEU A 234       0.580  20.203 -44.210  1.00 23.04 LIG 0.04  C 
BRANCH 12 13
ATOM     13  CG  LEU A 234      -0.216  20.419 -42.906  1.00 25.06 LIG-0.02  C 
ATOM     14  CD1 LEU A 234      -1.058  19.190 -42.541  1.00 33.19 LIG 0.01  C 
ATOM     15  CD2 LEU A 234       0.740  20.841 -41.777  1.00 27.29 LIG 0.01  C 
ENDBRANCH 12 13
ENDBRANCH 11 12
BRANCH 11 16
ATOM     16  C   LEU A 234       0.429  21.150 -46.553  1.00 18.65 LIG 0.24  C 
ATOM     17 O    LEU A 234      -0.633  20.724 -46.986  1.00 20.08 LIG-0.27  OA
ATOM     18  N   LEU A 235       1.526  21.290 -47.307  1.00 16.33 LIG-0.35  N 
ATOM     19 H    LEU A 235       2.308  21.447 -46.986  1.00 16.33 LIG 0.16  HD
BRANCH 18 20
ATOM     20  CA  LEU A 235       1.487  21.184 -48.754  1.00 16.00 LIG 0.18  C 
BRANCH 20 21
ATOM     21  C   LEU A 235       2.853  21.411 -49.416  1.00 15.60 LIG 0.24  C 
ATOM     22 O    LEU A 235       3.861  20.977 -48.916  1.00 16.00 LIG-0.27  OA
ATOM     23  N   GLY A 236       2.877  22.096 -50.543  1.00 15.05 LIG-0.35  N 
ATOM     24 H    GLY A 236       2.184  22.411 -50.943  1.00 15.05 LIG 0.16  HD
BRANCH 23 25
ATOM     25  CA  GLY A 236       4.173  22.372 -51.211  1.00 15.88 LIG 0.23  C 
BRANCH 25 26
ATOM     26  C   GLY A 236       4.164  23.693 -51.931  1.00 16.68 LIG 0.19  C 
ATOM     27 O    GLY A 236       3.262  24.508 -51.715  1.00 18.78 LIG-0.65  OA
ATOM     28 OXT  GLY A 236       5.037  23.975 -52.748  1.00 16.61 LIG-0.65  OA
ENDBRANCH 25 26
ENDBRANCH 23 25
ENDBRANCH 20 21
BRANCH 20 29
ATOM     29  CB  LEU A 235       0.435  22.157 -49.332  1.00 17.17 LIG 0.04  C 
BRANCH 29 30
ATOM     30  CG  LEU A 235      -0.625  21.579 -50.277  1.00 20.01 LIG-0.02  C 
ATOM     31  CD1 LEU A 235      -0.165  20.317 -50.853  1.00 21.18 LIG 0.01  C 
ATOM     32  CD2 LEU A 235      -1.946  21.355 -49.506  1.00 23.81 LIG 0.01  C 
ENDBRANCH 29 30
ENDBRANCH 20 29
ENDBRANCH 18 20
ENDBRANCH 11 16
ENDBRANCH 8 11
ENDBRANCH 1 7
BRANCH 1 33
ATOM     33  N   GLU A 233      -2.140  25.416 -45.325  1.00 26.21 LIG-0.35  N 
ATOM     34 H    GLU A 233      -2.873  25.694 -45.679  1.00 26.21 LIG 0.16  HD
ATOM     35  C   PRO A 232      -1.026  26.135 -45.278  1.00 29.12 LIG 0.24  C 
ATOM     36 O    PRO A 232      -0.003  25.788 -44.668  1.00 29.57 LIG-0.27  OA
BRANCH 35 37
ATOM     37  CA  PRO A 232      -1.067  27.474 -46.014  1.00 32.50 LIG 0.18  C 
ATOM     38  CB  PRO A 232      -2.452  28.113 -45.847  1.00 34.03 LIG 0.04  C 
ATOM     39  CG  PRO A 232      -2.875  28.568 -47.192  1.00 39.71 LIG 0.02  C 
ATOM     40  CD  PRO A 232      -1.905  28.113 -48.224  1.00 41.14 LIG 0.13  C 
ATOM     41  N   PRO A 232      -0.905  27.343 -47.460  1.00 36.81 LIG-0.34  N 
ATOM     42  C   ALA A 231       0.190  26.735 -47.948  1.00 38.01 LIG 0.24  C 
ATOM     43 O    ALA A 231       1.041  26.228 -47.222  1.00 37.25 LIG-0.27  OA
BRANCH 42 44
ATOM     44  CA  ALA A 231       0.328  26.645 -49.455  1.00 42.70 LIG 0.17  C 
ATOM     45  CB  ALA A 231       1.068  25.371 -49.813  1.00 44.12 LIG 0.04  C 
BRANCH 44 46
ATOM     46  N   ALA A 231       1.017  27.820 -49.995  1.00 44.69 LIG-0.35  N 
ATOM     47 H    ALA A 231       1.666  28.108 -49.508  1.00 44.69 LIG 0.16  HD
ATOM     48  C   PRO A 230       0.650  28.377 -51.148  1.00 46.57 LIG 0.25  C 
ATOM     49 O    PRO A 230      -0.392  28.079 -51.722  1.00 46.08 LIG-0.27  OA
BRANCH 48 50
ATOM     50  CA  PRO A 230       1.607  29.420 -51.775  1.00 51.04 LIG 0.35  C 
ATOM     51  N   PRO A 230       2.781  28.802 -52.393  1.00 55.48 LIG 0.32  N 
ATOM     52  CD  PRO A 230       2.588  28.586 -53.835  1.00 58.51 LIG 0.32  C 
ATOM     53  CG  PRO A 230       1.708  29.731 -54.223  1.00 57.35 LIG 0.04  C 
ATOM     54  CB  PRO A 230       0.956  30.181 -52.954  1.00 52.45 LIG 0.05  C 
ENDBRANCH 48 50
ENDBRANCH 44 46
ENDBRANCH 42 44
ENDBRANCH 35 37
ENDBRANCH 1 33
TORSDOF 19
ENDMDL
MODEL 24
USER: ADFR SOLUTION from run 57
USER: SCORE 19.650598 LL:  -5.489 LR: -16.750 RR:   0.000 FEB: -11.082
USER: RMSD 7.868584
USER: SEED 56
USER: STATUS no improvement in best in 7 clusters for 5 generations
USER: GENES 21
USER: genes 0 Translation |==|  0.35859 0.41471 0.74855
USER: genes 1 Rotation |==|  0.63133 0.91721 0.27970 0.60079
USER: genes 2 Torsion [C]-CA--CB-[CG] |==|  0.29388
USER: genes 3 Torsion [CA]-CB--CG-[CD] |==|  0.56005
USER: genes 4 Torsion [CB]-CG--CD-[OE1] |==|  0.15329
USER: genes 5 Torsion [N]-CA--C-[N] |==|  0.15046
USER: genes 6 Torsion [C]-N--CA-[CB] |==|  0.84049
USER: genes 7 Torsion [N]-CA--CB-[CG] |==|  0.75071
USER: genes 8 Torsion [CA]-CB--CG-[CD1] |==|  0.79390
USER: genes 9 Torsion [N]-CA--C-[N] |==|  0.38552
USER: genes 10 Torsion [C]-N--CA-[CB] |==|  0.53628
USER: genes 11 Torsion [N]-CA--C-[N] |==|  0.28393
USER: genes 12 Torsion [C]-N--CA-[C] |==|  0.58488
USER: genes 13 Torsion [N]-CA--C-[O] |==|  0.51772
USER: genes 14 Torsion [N]-CA--CB-[CG] |==|  0.73573
USER: genes 15 Torsion [CA]-CB--CG-[CD2] |==|  0.02006
USER: genes 16 Torsion [CB]-CA--N-[C] |==|  0.44554
USER: genes 17 Torsion [N]-C--CA-[N] |==|  0.91418
USER: genes 18 Torsion [N]-C--CA-[N] |==|  0.32020
USER: genes 19 Torsion [C]-CA--N-[C] |==|  0.81449
USER: genes 20 Torsion [N]-C--CA-[N] |==|  0.83905
ROOT
ATOM      1  CA  GLU A 233      -3.269  23.878 -44.262  1.00 24.61 LIG 0.18  C 
ENDROOT
BRANCH 1 2
ATOM      2  CB  GLU A 233      -4.727  23.607 -44.629  1.00 26.56 LIG 0.04  C 
BRANCH 2 3
ATOM      3  CG  GLU A 233      -5.565  23.208 -43.409  1.00 28.50 LIG 0.12  C 
BRANCH 3 4
ATOM      4  CD  GLU A 233      -6.817  22.456 -43.741  1.00 31.23 LIG 0.17  C 
ATOM      5 OE1  GLU A 233      -6.728  21.431 -44.416  1.00 40.78 LIG-0.65  OA
ATOM      6 OE2  GLU A 233      -7.896  22.856 -43.289  1.00 32.56 LIG-0.65  OA
ENDBRANCH 3 4
ENDBRANCH 2 3
ENDBRANCH 1 2
BRANCH 1 7
ATOM      7  C   GLU A 233      -2.348  22.741 -44.721  1.00 22.49 LIG 0.24  C 
ATOM      8  N   LEU A 234      -1.050  22.933 -44.494  1.00 21.03 LIG-0.35  N 
ATOM      9 H    LEU A 234      -0.730  23.626 -44.099  1.00 21.03 LIG 0.16  HD
ATOM     10 O    GLU A 233      -2.787  21.747 -45.313  1.00 21.03 LIG-0.27  OA
BRANCH 8 11
ATOM     11  CA  LEU A 234      -0.042  21.953 -44.909  1.00 20.74 LIG 0.18  C 
BRANCH 11 12
ATOM     12  CB  LEU A 234      -0.380  20.610 -44.260  1.00 23.04 LIG 0.04  C 
BRANCH 12 13
ATOM     13  CG  LEU A 234       0.305  20.486 -42.883  1.00 25.06 LIG-0.02  C 
ATOM     14  CD1 LEU A 234       1.810  20.227 -43.017  1.00 33.19 LIG 0.01  C 
ATOM     15  CD2 LEU A 234      -0.011  21.727 -42.031  1.00 27.29 LIG 0.01  C 
ENDBRANCH 12 13
ENDBRANCH 11 12
BRANCH 11 16
ATOM     16  C   LEU A 234       0.025  21.847 -46.432  1.00 18.65 LIG 0.24  C 
ATOM     17 O    LEU A 234      -1.011  21.787 -47.080  1.00 20.08 LIG-0.27  OA
ATOM     18  N   LEU A 235       1.241  21.753 -46.982  1.00 16.33 LIG-0.35  N 
ATOM     19 H    LEU A 235       1.964  21.648 -46.528  1.00 16.33 LIG 0.16  HD
BRANCH 18 20
ATOM     20  CA  LEU A 235       1.446  21.821 -48.418  1.00 16.00 LIG 0.18  C 
BRANCH 20 21
ATOM     21  C   LEU A 235       0.409  21.021 -49.217  1.00 15.60 LIG 0.24  C 
ATOM     22 O    LEU A 235       0.490  19.821 -49.308  1.00 16.00 LIG-0.27  OA
ATOM     23  N   GLY A 236      -0.565  21.695 -49.798  1.00 15.05 LIG-0.35  N 
ATOM     24 H    GLY A 236      -0.671  22.547 -49.748  1.00 15.05 LIG 0.16  HD
BRANCH 23 25
ATOM     25  CA  GLY A 236      -1.579  20.977 -50.609  1.00 15.88 LIG 0.23  C 
BRANCH 25 26
ATOM     26  C   GLY A 236      -2.111  21.831 -51.727  1.00 16.68 LIG 0.19  C 
ATOM     27 O    GLY A 236      -3.047  21.425 -52.423  1.00 18.78 LIG-0.65  OA
ATOM     28 OXT  GLY A 236      -1.620  22.930 -51.973  1.00 16.61 LIG-0.65  OA
ENDBRANCH 25 26
ENDBRANCH 23 25
ENDBRANCH 20 21
BRANCH 20 29
ATOM     29  CB  LEU A 235       2.878  21.361 -48.775  1.00 17.17 LIG 0.04  C 
BRANCH 29 30
ATOM     30  CG  LEU A 235       3.952  22.443 -48.934  1.00 20.01 LIG-0.02  C 
ATOM     31  CD1 LEU A 235       4.419  22.502 -50.318  1.00 21.18 LIG 0.01  C 
ATOM     32  CD2 LEU A 235       3.380  23.815 -48.513  1.00 23.81 LIG 0.01  C 
ENDBRANCH 29 30
ENDBRANCH 20 29
ENDBRANCH 18 20
ENDBRANCH 11 16
ENDBRANCH 8 11
ENDBRANCH 1 7
BRANCH 1 33
ATOM     33  N   GLU A 233      -2.786  25.121 -44.870  1.00 26.21 LIG-0.35  N 
ATOM     34 H    GLU A 233      -3.253  25.392 -45.539  1.00 26.21 LIG 0.16  HD
ATOM     35  C   PRO A 232      -1.717  25.759 -44.411  1.00 29.12 LIG 0.24  C 
ATOM     36 O    PRO A 232      -1.110  25.439 -43.378  1.00 29.57 LIG-0.27  OA
BRANCH 35 37
ATOM     37  CA  PRO A 232      -1.264  26.970 -45.227  1.00 32.50 LIG 0.18  C 
ATOM     38  CB  PRO A 232      -2.054  28.211 -44.790  1.00 34.03 LIG 0.04  C 
ATOM     39  CG  PRO A 232      -2.511  28.882 -46.030  1.00 39.71 LIG 0.02  C 
ATOM     40  CD  PRO A 232      -2.188  28.051 -47.220  1.00 41.14 LIG 0.13  C 
ATOM     41  N   PRO A 232      -1.553  26.845 -46.654  1.00 36.81 LIG-0.34  N 
ATOM     42  C   ALA A 231      -1.069  25.793 -47.334  1.00 38.01 LIG 0.24  C 
ATOM     43 O    ALA A 231      -0.435  24.891 -46.791  1.00 37.25 LIG-0.27  OA
BRANCH 42 44
ATOM     44  CA  ALA A 231      -1.373  25.719 -48.818  1.00 42.70 LIG 0.17  C 
ATOM     45  CB  ALA A 231      -2.100  24.421 -49.115  1.00 44.12 LIG 0.04  C 
BRANCH 44 46
ATOM     46  N   ALA A 231      -0.147  25.826 -49.615  1.00 44.69 LIG-0.35  N 
ATOM     47 H    ALA A 231       0.060  25.111 -50.048  1.00 44.69 LIG 0.16  HD
ATOM     48  C   PRO A 230       0.568  26.949 -49.650  1.00 46.57 LIG 0.25  C 
ATOM     49 O    PRO A 230       0.370  27.881 -48.878  1.00 46.08 LIG-0.27  OA
BRANCH 48 50
ATOM     50  CA  PRO A 230       1.670  27.062 -50.732  1.00 51.04 LIG 0.35  C 
ATOM     51  N   PRO A 230       2.658  25.987 -50.638  1.00 55.48 LIG 0.32  N 
ATOM     52  CD  PRO A 230       2.335  24.870 -51.540  1.00 58.51 LIG 0.32  C 
ATOM     53  CG  PRO A 230       1.675  25.560 -52.691  1.00 57.35 LIG 0.04  C 
ATOM     54  CB  PRO A 230       1.108  26.893 -52.163  1.00 52.45 LIG 0.05  C 
ENDBRANCH 48 50
ENDBRANCH 44 46
ENDBRANCH 42 44
ENDBRANCH 35 37
ENDBRANCH 1 33
TORSDOF 19
ENDMDL
MODEL 25
USER: ADFR SOLUTION from run 115
USER: SCORE 19.812632 LL:  -4.292 LR: -16.648 RR:   0.000 FEB: -10.980
USER: RMSD 7.505940
USER: SEED 114
USER: STATUS no improvement in best in 9 clusters for 5 generations
USER: GENES 21
USER: genes 0 Translation |==|  0.35398 0.41164 0.77402
USER: genes 1 Rotation |==|  0.68063 0.91389 0.30698 0.59387
USER: genes 2 Torsion [C]-CA--CB-[CG] |==|  0.29236
USER: genes 3 Torsion [CA]-CB--CG-[CD] |==|  0.60692
USER: genes 4 Torsion [CB]-CG--CD-[OE1] |==|  0.62849
USER: genes 5 Torsion [N]-CA--C-[N] |==|  0.13333
USER: genes 6 Torsion [C]-N--CA-[CB] |==|  0.77155
USER: genes 7 Torsion [N]-CA--CB-[CG] |==|  0.74502
USER: genes 8 Torsion [CA]-CB--CG-[CD1] |==|  0.80756
USER: genes 9 Torsion [N]-CA--C-[N] |==|  0.22189
USER: genes 10 Torsion [C]-N--CA-[CB] |==|  0.76049
USER: genes 11 Torsion [N]-CA--C-[N] |==|  0.19785
USER: genes 12 Torsion [C]-N--CA-[C] |==|  0.50797
USER: genes 13 Torsion [N]-CA--C-[O] |==|  0.95458
USER: genes 14 Torsion [N]-CA--CB-[CG] |==|  0.83888
USER: genes 15 Torsion [CA]-CB--CG-[CD2] |==|  0.26538
USER: genes 16 Torsion [CB]-CA--N-[C] |==|  0.78181
USER: genes 17 Torsion [N]-C--CA-[N] |==|  0.66767
USER: genes 18 Torsion [N]-C--CA-[N] |==|  0.33707
USER: genes 19 Torsion [C]-CA--N-[C] |==|  0.81516
USER: genes 20 Torsion [N]-C--CA-[N] |==|  0.58676
ROOT
ATOM      1  CA  GLU A 233      -3.379  23.820 -43.670  1.00 24.61 LIG 0.18  C 
ENDROOT
BRANCH 1 2
ATOM      2  CB  GLU A 233      -4.815  23.839 -44.192  1.00 26.56 LIG 0.04  C 
BRANCH 2 3
ATOM      3  CG  GLU A 233      -5.826  23.422 -43.117  1.00 28.50 LIG 0.12  C 
BRANCH 3 4
ATOM      4  CD  GLU A 233      -6.952  22.576 -43.627  1.00 31.23 LIG 0.17  C 
ATOM      5 OE1  GLU A 233      -8.100  22.852 -43.283  1.00 40.78 LIG-0.65  OA
ATOM      6 OE2  GLU A 233      -6.703  21.656 -44.416  1.00 32.56 LIG-0.65  OA
ENDBRANCH 3 4
ENDBRANCH 2 3
ENDBRANCH 1 2
BRANCH 1 7
ATOM      7  C   GLU A 233      -2.597  22.614 -44.203  1.00 22.49 LIG 0.24  C 
ATOM      8  N   LEU A 234      -1.290  22.627 -43.951  1.00 21.03 LIG-0.35  N 
ATOM      9 H    LEU A 234      -0.894  23.245 -43.504  1.00 21.03 LIG 0.16  HD
ATOM     10 O    GLU A 233      -3.145  21.727 -44.870  1.00 21.03 LIG-0.27  OA
BRANCH 8 11
ATOM     11  CA  LEU A 234      -0.403  21.561 -44.429  1.00 20.74 LIG 0.18  C 
BRANCH 11 12
ATOM     12  CB  LEU A 234      -0.492  20.388 -43.453  1.00 23.04 LIG 0.04  C 
BRANCH 12 13
ATOM     13  CG  LEU A 234       0.592  20.507 -42.362  1.00 25.06 LIG-0.02  C 
ATOM     14  CD1 LEU A 234       1.999  20.282 -42.929  1.00 33.19 LIG 0.01  C 
ATOM     15  CD2 LEU A 234       0.452  21.856 -41.636  1.00 27.29 LIG 0.01  C 
ENDBRANCH 12 13
ENDBRANCH 11 12
BRANCH 11 16
ATOM     16  C   LEU A 234      -0.765  21.145 -45.854  1.00 18.65 LIG 0.24  C 
ATOM     17 O    LEU A 234      -1.375  20.100 -46.042  1.00 20.08 LIG-0.27  OA
ATOM     18  N   LEU A 235      -0.324  21.926 -46.847  1.00 16.33 LIG-0.35  N 
ATOM     19 H    LEU A 235       0.226  22.577 -46.733  1.00 16.33 LIG 0.16  HD
BRANCH 18 20
ATOM     20  CA  LEU A 235      -0.743  21.735 -48.224  1.00 16.00 LIG 0.18  C 
BRANCH 20 21
ATOM     21  C   LEU A 235      -2.221  21.344 -48.359  1.00 15.60 LIG 0.24  C 
ATOM     22 O    LEU A 235      -2.535  20.228 -48.691  1.00 16.00 LIG-0.27  OA
ATOM     23  N   GLY A 236      -3.123  22.271 -48.102  1.00 15.05 LIG-0.35  N 
ATOM     24 H    GLY A 236      -2.945  23.073 -47.849  1.00 15.05 LIG 0.16  HD
BRANCH 23 25
ATOM     25  CA  GLY A 236      -4.566  21.957 -48.247  1.00 15.88 LIG 0.23  C 
BRANCH 25 26
ATOM     26  C   GLY A 236      -5.431  23.157 -47.977  1.00 16.68 LIG 0.19  C 
ATOM     27 O    GLY A 236      -4.962  24.139 -47.394  1.00 18.78 LIG-0.65  OA
ATOM     28 OXT  GLY A 236      -6.612  23.176 -48.318  1.00 16.61 LIG-0.65  OA
ENDBRANCH 25 26
ENDBRANCH 23 25
ENDBRANCH 20 21
BRANCH 20 29
ATOM     29  CB  LEU A 235       0.160  20.691 -48.917  1.00 17.17 LIG 0.04  C 
BRANCH 29 30
ATOM     30  CG  LEU A 235       1.667  20.973 -48.962  1.00 20.01 LIG-0.02  C 
ATOM     31  CD1 LEU A 235       1.922  22.410 -48.891  1.00 21.18 LIG 0.01  C 
ATOM     32  CD2 LEU A 235       2.368  20.256 -47.786  1.00 23.81 LIG 0.01  C 
ENDBRANCH 29 30
ENDBRANCH 20 29
ENDBRANCH 18 20
ENDBRANCH 11 16
ENDBRANCH 8 11
ENDBRANCH 1 7
BRANCH 1 33
ATOM     33  N   GLU A 233      -2.653  25.033 -44.056  1.00 26.21 LIG-0.35  N 
ATOM     34 H    GLU A 233      -2.582  25.617 -43.429  1.00 26.21 LIG 0.16  HD
ATOM     35  C   PRO A 232      -2.156  25.197 -45.275  1.00 29.12 LIG 0.24  C 
ATOM     36 O    PRO A 232      -2.153  24.315 -46.146  1.00 29.57 LIG-0.27  OA
BRANCH 35 37
ATOM     37  CA  PRO A 232      -1.537  26.566 -45.562  1.00 32.50 LIG 0.18  C 
ATOM     38  CB  PRO A 232      -1.730  27.484 -44.349  1.00 34.03 LIG 0.04  C 
ATOM     39  CG  PRO A 232      -2.225  28.781 -44.871  1.00 39.71 LIG 0.02  C 
ATOM     40  CD  PRO A 232      -2.504  28.681 -46.329  1.00 41.14 LIG 0.13  C 
ATOM     41  N   PRO A 232      -2.193  27.277 -46.658  1.00 36.81 LIG-0.34  N 
ATOM     42  C   ALA A 231      -2.273  26.694 -47.866  1.00 38.01 LIG 0.24  C 
ATOM     43 O    ALA A 231      -1.868  25.554 -48.077  1.00 37.25 LIG-0.27  OA
BRANCH 42 44
ATOM     44  CA  ALA A 231      -2.939  27.480 -48.979  1.00 42.70 LIG 0.17  C 
ATOM     45  CB  ALA A 231      -4.196  26.755 -49.420  1.00 44.12 LIG 0.04  C 
BRANCH 44 46
ATOM     46  N   ALA A 231      -2.025  27.676 -50.108  1.00 44.69 LIG-0.35  N 
ATOM     47 H    ALA A 231      -2.257  27.268 -50.829  1.00 44.69 LIG 0.16  HD
ATOM     48  C   PRO A 230      -0.932  28.431 -49.999  1.00 46.57 LIG 0.25  C 
ATOM     49 O    PRO A 230      -0.516  28.837 -48.920  1.00 46.08 LIG-0.27  OA
BRANCH 48 50
ATOM     50  CA  PRO A 230      -0.194  28.813 -51.306  1.00 51.04 LIG 0.35  C 
ATOM     51  N   PRO A 230       1.249  28.962 -51.109  1.00 55.48 LIG 0.32  N 
ATOM     52  CD  PRO A 230       1.975  27.726 -51.438  1.00 58.51 LIG 0.32  C 
ATOM     53  CG  PRO A 230       1.143  27.140 -52.535  1.00 57.35 LIG 0.04  C 
ATOM     54  CB  PRO A 230      -0.284  27.702 -52.377  1.00 52.45 LIG 0.05  C 
ENDBRANCH 48 50
ENDBRANCH 44 46
ENDBRANCH 42 44
ENDBRANCH 35 37
ENDBRANCH 1 33
TORSDOF 19
ENDMDL
MODEL 26
USER: ADFR SOLUTION from run 21
USER: SCORE 19.062448 LL:  -5.404 LR: -16.625 RR:   0.000 FEB: -10.958
USER: RMSD 7.232755
USER: SEED 20
USER: STATUS no improvement in best in 10 clusters for 5 generations
USER: GENES 21
USER: genes 0 Translation |==|  0.52732 0.35676 0.57641
USER: genes 1 Rotation |==|  0.24630 0.58157 0.76443 0.83024
USER: genes 2 Torsion [C]-CA--CB-[CG] |==|  0.34844
USER: genes 3 Torsion [CA]-CB--CG-[CD] |==|  0.14093
USER: genes 4 Torsion [CB]-CG--CD-[OE1] |==|  0.97730
USER: genes 5 Torsion [N]-CA--C-[N] |==|  0.52902
USER: genes 6 Torsion [C]-N--CA-[CB] |==|  0.86642
USER: genes 7 Torsion [N]-CA--CB-[CG] |==|  0.55904
USER: genes 8 Torsion [CA]-CB--CG-[CD1] |==|  0.00957
USER: genes 9 Torsion [N]-CA--C-[N] |==|  0.88185
USER: genes 10 Torsion [C]-N--CA-[CB] |==|  0.82196
USER: genes 11 Torsion [N]-CA--C-[N] |==|  0.11813
USER: genes 12 Torsion [C]-N--CA-[C] |==|  0.72799
USER: genes 13 Torsion [N]-CA--C-[O] |==|  0.45809
USER: genes 14 Torsion [N]-CA--CB-[CG] |==|  0.93251
USER: genes 15 Torsion [CA]-CB--CG-[CD2] |==|  0.82025
USER: genes 16 Torsion [CB]-CA--N-[C] |==|  0.40750
USER: genes 17 Torsion [N]-C--CA-[N] |==|  0.75806
USER: genes 18 Torsion [N]-C--CA-[N] |==|  0.85556
USER: genes 19 Torsion [C]-CA--N-[C] |==|  0.80827
USER: genes 20 Torsion [N]-C--CA-[N] |==|  0.60042
ROOT
ATOM      1  CA  GLU A 233       0.781  22.791 -48.265  1.00 24.61 LIG 0.18  C 
ENDROOT
BRANCH 1 2
ATOM      2  CB  GLU A 233       1.876  23.757 -48.712  1.00 26.56 LIG 0.04  C 
BRANCH 2 3
ATOM      3  CG  GLU A 233       3.280  23.199 -48.452  1.00 28.50 LIG 0.12  C 
BRANCH 3 4
ATOM      4  CD  GLU A 233       3.497  21.812 -48.974  1.00 31.23 LIG 0.17  C 
ATOM      5 OE1  GLU A 233       2.532  21.188 -49.412  1.00 40.78 LIG-0.65  OA
ATOM      6 OE2  GLU A 233       4.645  21.352 -48.995  1.00 32.56 LIG-0.65  OA
ENDBRANCH 3 4
ENDBRANCH 2 3
ENDBRANCH 1 2
BRANCH 1 7
ATOM      7  C   GLU A 233      -0.203  23.457 -47.295  1.00 22.49 LIG 0.24  C 
ATOM      8  N   LEU A 234       0.355  24.159 -46.311  1.00 21.03 LIG-0.35  N 
ATOM      9 H    LEU A 234       1.203  24.264 -46.217  1.00 21.03 LIG 0.16  HD
ATOM     10 O    GLU A 233      -1.426  23.298 -47.399  1.00 21.03 LIG-0.27  OA
BRANCH 8 11
ATOM     11  CA  LEU A 234      -0.454  24.823 -45.284  1.00 20.74 LIG 0.18  C 
BRANCH 11 12
ATOM     12  CB  LEU A 234      -1.571  25.602 -45.980  1.00 23.04 LIG 0.04  C 
BRANCH 12 13
ATOM     13  CG  LEU A 234      -2.113  26.714 -45.057  1.00 25.06 LIG-0.02  C 
ATOM     14  CD1 LEU A 234      -1.334  26.790 -43.739  1.00 33.19 LIG 0.01  C 
ATOM     15  CD2 LEU A 234      -2.132  28.053 -45.814  1.00 27.29 LIG 0.01  C 
ENDBRANCH 12 13
ENDBRANCH 11 12
BRANCH 11 16
ATOM     16  C   LEU A 234      -1.007  23.810 -44.282  1.00 18.65 LIG 0.24  C 
ATOM     17 O    LEU A 234      -0.936  24.045 -43.083  1.00 20.08 LIG-0.27  OA
ATOM     18  N   LEU A 235      -1.488  22.664 -44.778  1.00 16.33 LIG-0.35  N 
ATOM     19 H    LEU A 235      -1.409  22.430 -45.602  1.00 16.33 LIG 0.16  HD
BRANCH 18 20
ATOM     20  CA  LEU A 235      -2.193  21.701 -43.952  1.00 16.00 LIG 0.18  C 
BRANCH 20 21
ATOM     21  C   LEU A 235      -3.467  22.269 -43.311  1.00 15.60 LIG 0.24  C 
ATOM     22 O    LEU A 235      -3.739  22.027 -42.162  1.00 16.00 LIG-0.27  OA
ATOM     23  N   GLY A 236      -4.244  23.023 -44.064  1.00 15.05 LIG-0.35  N 
ATOM     24 H    GLY A 236      -4.082  23.234 -44.882  1.00 15.05 LIG 0.16  HD
BRANCH 23 25
ATOM     25  CA  GLY A 236      -5.504  23.575 -43.506  1.00 15.88 LIG 0.23  C 
BRANCH 25 26
ATOM     26  C   GLY A 236      -6.698  22.744 -43.887  1.00 16.68 LIG 0.19  C 
ATOM     27 O    GLY A 236      -7.769  22.891 -43.291  1.00 18.78 LIG-0.65  OA
ATOM     28 OXT  GLY A 236      -6.625  21.903 -44.781  1.00 16.61 LIG-0.65  OA
ENDBRANCH 25 26
ENDBRANCH 23 25
ENDBRANCH 20 21
BRANCH 20 29
ATOM     29  CB  LEU A 235      -1.249  21.132 -42.870  1.00 17.17 LIG 0.04  C 
BRANCH 29 30
ATOM     30  CG  LEU A 235       0.258  21.167 -43.152  1.00 20.01 LIG-0.02  C 
ATOM     31  CD1 LEU A 235       1.009  20.728 -41.977  1.00 21.18 LIG 0.01  C 
ATOM     32  CD2 LEU A 235       0.587  20.257 -44.357  1.00 23.81 LIG 0.01  C 
ENDBRANCH 29 30
ENDBRANCH 20 29
ENDBRANCH 18 20
ENDBRANCH 11 16
ENDBRANCH 8 11
ENDBRANCH 1 7
BRANCH 1 33
ATOM     33  N   GLU A 233       0.013  22.285 -49.406  1.00 26.21 LIG-0.35  N 
ATOM     34 H    GLU A 233      -0.076  22.849 -50.050  1.00 26.21 LIG 0.16  HD
ATOM     35  C   PRO A 232      -0.492  21.059 -49.426  1.00 29.12 LIG 0.24  C 
ATOM     36 O    PRO A 232      -0.269  20.204 -48.556  1.00 29.57 LIG-0.27  OA
BRANCH 35 37
ATOM     37  CA  PRO A 232      -1.374  20.722 -50.629  1.00 32.50 LIG 0.18  C 
ATOM     38  CB  PRO A 232      -0.928  21.549 -51.842  1.00 34.03 LIG 0.04  C 
ATOM     39  CG  PRO A 232      -2.158  22.116 -52.445  1.00 39.71 LIG 0.02  C 
ATOM     40  CD  PRO A 232      -3.339  21.823 -51.589  1.00 41.14 LIG 0.13  C 
ATOM     41  N   PRO A 232      -2.775  21.091 -50.439  1.00 36.81 LIG-0.34  N 
ATOM     42  C   ALA A 231      -3.450  20.594 -49.390  1.00 38.01 LIG 0.24  C 
ATOM     43 O    ALA A 231      -2.919  19.881 -48.541  1.00 37.25 LIG-0.27  OA
BRANCH 42 44
ATOM     44  CA  ALA A 231      -4.908  20.983 -49.247  1.00 42.70 LIG 0.17  C 
ATOM     45  CB  ALA A 231      -5.717  20.300 -50.332  1.00 44.12 LIG 0.04  C 
BRANCH 44 46
ATOM     46  N   ALA A 231      -5.076  22.439 -49.308  1.00 44.69 LIG-0.35  N 
ATOM     47 H    ALA A 231      -5.475  22.722 -50.015  1.00 44.69 LIG 0.16  HD
ATOM     48  C   PRO A 230      -4.637  23.233 -48.333  1.00 46.57 LIG 0.25  C 
ATOM     49 O    PRO A 230      -3.900  22.834 -47.438  1.00 46.08 LIG-0.27  OA
BRANCH 48 50
ATOM     50  CA  PRO A 230      -5.111  24.708 -48.345  1.00 51.04 LIG 0.35  C 
ATOM     51  N   PRO A 230      -4.071  25.633 -47.890  1.00 55.48 LIG 0.32  N 
ATOM     52  CD  PRO A 230      -3.317  26.202 -49.019  1.00 58.51 LIG 0.32  C 
ATOM     53  CG  PRO A 230      -4.347  26.266 -50.101  1.00 57.35 LIG 0.04  C 
ATOM     54  CB  PRO A 230      -5.425  25.213 -49.772  1.00 52.45 LIG 0.05  C 
ENDBRANCH 48 50
ENDBRANCH 44 46
ENDBRANCH 42 44
ENDBRANCH 35 37
ENDBRANCH 1 33
TORSDOF 19
ENDMDL
