MODEL 1
USER: ADFR SOLUTION from run 51
USER: SCORE 19.068534 LL:  -4.665 LR: -16.287 RR:   0.000 FEB: -11.216
USER: RMSD 8.830664
USER: SEED 50
USER: STATUS no improvement in best in 4 clusters for 5 generations
USER: GENES 19
USER: genes 0 Translation |==|  0.62782 0.60057 0.28908
USER: genes 1 Rotation |==|  0.45887 0.31691 0.04100 0.56408
USER: genes 2 Torsion [C]-N--CA-[C] |==|  0.47707
USER: genes 3 Torsion [N]-CA--C-[N] |==|  0.94807
USER: genes 4 Torsion [C]-N--CA-[CB] |==|  0.86035
USER: genes 5 Torsion [N]-CA--CB-[CG] |==|  0.56969
USER: genes 6 Torsion [CA]-CB--CG-[CD1] |==|  0.14446
USER: genes 7 Torsion [N]-CA--C-[N] |==|  0.88225
USER: genes 8 Torsion [C]-N--CA-[C] |==|  0.83379
USER: genes 9 Torsion [N]-CA--C-[OXT] |==|  0.40947
USER: genes 10 Torsion [N]-CA--CB-[CG] |==|  0.66262
USER: genes 11 Torsion [CA]-CB--CG-[CD2] |==|  0.33163
USER: genes 12 Torsion [N]-C--CA-[N] |==|  0.04445
USER: genes 13 Torsion [C]-CA--CB-[CG] |==|  0.42831
USER: genes 14 Torsion [CA]-CB--CG-[CD] |==|  0.37552
USER: genes 15 Torsion [CB]-CG--CD-[OE1] |==|  0.82962
USER: genes 16 Torsion [C]-CA--N-[C] |==|  0.15556
USER: genes 17 Torsion [N]-C--CA-[N] |==|  0.62338
USER: genes 18 Torsion [N]-C--CA-[N] |==|  0.32015
ROOT
ATOM      1  C   GLU N 233      56.669  24.433  -2.731  1.00 68.48 LIG 0.24  C 
ATOM      2 O    GLU N 233      57.074  23.729  -3.631  1.00 65.22 LIG-0.27  OA
ATOM      3  N   LEU N 234      55.858  23.952  -1.808  1.00 77.80 LIG-0.35  N 
ATOM      4 H    LEU N 234      55.512  24.424  -1.178  1.00 77.80 LIG 0.16  HD
ENDROOT
BRANCH 3 5
ATOM      5  CA  LEU N 234      55.476  22.546  -1.788  1.00 75.39 LIG 0.18  C 
BRANCH 5 6
ATOM      6  C   LEU N 234      54.709  22.183  -0.541  1.00 71.67 LIG 0.24  C 
ATOM      7 O    LEU N 234      54.026  21.194  -0.501  1.00 71.06 LIG-0.27  OA
ATOM      8  N   LEU N 235      54.820  23.009   0.475  1.00 52.85 LIG-0.35  N 
ATOM      9 H    LEU N 235      55.254  23.751   0.445  1.00 52.85 LIG 0.16  HD
BRANCH 8 10
ATOM     10  CA  LEU N 235      54.199  22.726   1.770  1.00 54.39 LIG 0.18  C 
BRANCH 10 11
ATOM     11  CB  LEU N 235      52.725  22.357   1.597  1.00 50.34 LIG 0.04  C 
BRANCH 11 12
ATOM     12  CG  LEU N 235      51.851  22.626   2.825  1.00 52.64 LIG-0.02  C 
ATOM     13  CD2 LEU N 235      50.383  22.344   2.543  1.00 52.33 LIG 0.01  C 
ATOM     14  CD1 LEU N 235      52.040  24.057   3.293  1.00 53.22 LIG 0.01  C 
ENDBRANCH 11 12
ENDBRANCH 10 11
BRANCH 10 15
ATOM     15  C   LEU N 235      54.935  21.605   2.515  1.00 52.64 LIG 0.24  C 
ATOM     16 O    LEU N 235      55.145  21.679   3.727  1.00 52.05 LIG-0.27  OA
ATOM     17  N   GLY N 236      55.303  20.563   1.771  1.00 57.75 LIG-0.35  N 
ATOM     18 H    GLY N 236      55.131  20.506   0.931  1.00 57.75 LIG 0.16  HD
BRANCH 17 19
ATOM     19  CA  GLY N 236      56.027  19.419   2.290  1.00 57.52 LIG 0.23  C 
BRANCH 19 20
ATOM     20  C   GLY N 236      57.370  19.796   2.889  1.00 60.52 LIG 0.19  C 
ATOM     21 OXT  GLY N 236      57.832  19.171   3.843  1.00 61.85 LIG-0.65  OA
ATOM     22 O    GLY N 236      58.034  20.728   2.442  1.00 62.19 LIG-0.65  OA
ENDBRANCH 19 20
ENDBRANCH 17 19
ENDBRANCH 10 15
ENDBRANCH 8 10
ENDBRANCH 5 6
BRANCH 5 23
ATOM     23  CB  LEU N 234      56.724  21.664  -1.906  1.00 79.47 LIG 0.04  C 
BRANCH 23 24
ATOM     24  CG  LEU N 234      56.807  20.684  -3.078  1.00 81.24 LIG-0.02  C 
ATOM     25  CD1 LEU N 234      55.526  20.699  -3.900  1.00 81.52 LIG 0.01  C 
ATOM     26  CD2 LEU N 234      58.014  20.998  -3.952  1.00 82.88 LIG 0.01  C 
ENDBRANCH 23 24
ENDBRANCH 5 23
ENDBRANCH 3 5
BRANCH 1 27
ATOM     27  CA  GLU N 233      57.082  25.904  -2.637  1.00 71.40 LIG 0.18  C 
BRANCH 27 28
ATOM     28  CB  GLU N 233      58.565  26.054  -2.988  1.00 70.45 LIG 0.04  C 
BRANCH 28 29
ATOM     29  CG  GLU N 233      58.955  27.417  -3.526  1.00 66.32 LIG 0.12  C 
BRANCH 29 30
ATOM     30  CD  GLU N 233      60.233  27.946  -2.902  1.00 63.12 LIG 0.17  C 
ATOM     31 OE1  GLU N 233      60.260  28.140  -1.668  1.00 63.49 LIG-0.65  OA
ATOM     32 OE2  GLU N 233      61.211  28.172  -3.645  1.00 60.69 LIG-0.65  OA
ENDBRANCH 29 30
ENDBRANCH 28 29
ENDBRANCH 27 28
BRANCH 27 33
ATOM     33  N   GLU N 233      56.789  26.436  -1.303  1.00 74.02 LIG-0.35  N 
ATOM     34 H    GLU N 233      56.286  27.133  -1.318  1.00 74.02 LIG 0.16  HD
ATOM     35  C   PRO N 232      57.250  25.904  -0.173  1.00 90.40 LIG 0.24  C 
ATOM     36 O    PRO N 232      57.946  24.908  -0.127  1.00 95.63 LIG-0.27  OA
BRANCH 35 37
ATOM     37  CA  PRO N 232      56.908  26.596   1.126  1.00 87.45 LIG 0.18  C 
ATOM     38  N   PRO N 232      58.056  26.704   2.016  1.00 90.22 LIG-0.34  N 
ATOM     39  C   ALA N 231      58.407  25.915   3.039  1.00 63.79 LIG 0.26  C 
ATOM     40  CD  PRO N 232      58.647  28.053   1.954  1.00 90.52 LIG 0.13  C 
ATOM     41 O    ALA N 231      59.472  26.001   3.642  1.00 66.65 LIG-0.27  OA
ATOM     42  CG  PRO N 232      57.868  28.723   0.847  1.00 87.66 LIG 0.02  C 
ATOM     43  CB  PRO N 232      56.544  28.057   0.866  1.00 84.55 LIG 0.04  C 
BRANCH 39 44
ATOM     44  CA  ALA N 231      57.410  24.850   3.438  1.00 62.23 LIG 0.40  C 
ATOM     45  CB  ALA N 231      57.012  25.014   4.898  1.00 54.17 LIG 0.06  C 
ATOM     46  N   ALA N 231      57.955  23.522   3.206  1.00 63.17 LIG 0.61  N 
ENDBRANCH 39 44
ENDBRANCH 35 37
ENDBRANCH 27 33
ENDBRANCH 1 27
TORSDOF 17
ENDMDL
MODEL 2
USER: ADFR SOLUTION from run 150
USER: SCORE 17.693787 LL:  -3.914 LR: -15.907 RR:   0.000 FEB: -10.836
USER: RMSD 3.304680
USER: SEED 149
USER: STATUS no improvement in best in 7 clusters for 5 generations
USER: GENES 19
USER: genes 0 Translation |==|  0.56695 0.49680 0.51228
USER: genes 1 Rotation |==|  0.48941 0.48265 0.64485 0.97813
USER: genes 2 Torsion [C]-N--CA-[C] |==|  0.83937
USER: genes 3 Torsion [N]-CA--C-[N] |==|  0.35556
USER: genes 4 Torsion [C]-N--CA-[CB] |==|  0.35777
USER: genes 5 Torsion [N]-CA--CB-[CG] |==|  0.77079
USER: genes 6 Torsion [CA]-CB--CG-[CD1] |==|  0.47074
USER: genes 7 Torsion [N]-CA--C-[N] |==|  0.14937
USER: genes 8 Torsion [C]-N--CA-[C] |==|  0.55781
USER: genes 9 Torsion [N]-CA--C-[OXT] |==|  0.89335
USER: genes 10 Torsion [N]-CA--CB-[CG] |==|  0.39611
USER: genes 11 Torsion [CA]-CB--CG-[CD2] |==|  0.65551
USER: genes 12 Torsion [N]-C--CA-[N] |==|  0.24209
USER: genes 13 Torsion [C]-CA--CB-[CG] |==|  0.48472
USER: genes 14 Torsion [CA]-CB--CG-[CD] |==|  0.67574
USER: genes 15 Torsion [CB]-CG--CD-[OE1] |==|  0.20334
USER: genes 16 Torsion [C]-CA--N-[C] |==|  0.79374
USER: genes 17 Torsion [N]-C--CA-[N] |==|  0.70118
USER: genes 18 Torsion [N]-C--CA-[N] |==|  0.24697
ROOT
ATOM      1  C   GLU N 233      55.437  22.487   1.454  1.00 68.48 LIG 0.24  C 
ATOM      2 O    GLU N 233      55.109  22.217   0.319  1.00 65.22 LIG-0.27  OA
ATOM      3  N   LEU N 234      55.929  23.674   1.753  1.00 77.80 LIG-0.35  N 
ATOM      4 H    LEU N 234      56.214  23.894   2.533  1.00 77.80 LIG 0.16  HD
ENDROOT
BRANCH 3 5
ATOM      5  CA  LEU N 234      56.028  24.730   0.753  1.00 75.39 LIG 0.18  C 
BRANCH 5 6
ATOM      6  C   LEU N 234      56.857  24.309  -0.436  1.00 71.67 LIG 0.24  C 
ATOM      7 O    LEU N 234      57.965  23.865  -0.291  1.00 71.06 LIG-0.27  OA
ATOM      8  N   LEU N 235      56.307  24.471  -1.619  1.00 52.85 LIG-0.35  N 
ATOM      9 H    LEU N 235      55.543  24.843  -1.745  1.00 52.85 LIG 0.16  HD
BRANCH 8 10
ATOM     10  CA  LEU N 235      56.969  24.022  -2.845  1.00 54.39 LIG 0.18  C 
BRANCH 10 11
ATOM     11  CB  LEU N 235      56.027  23.163  -3.689  1.00 50.34 LIG 0.04  C 
BRANCH 11 12
ATOM     12  CG  LEU N 235      55.946  21.695  -3.263  1.00 52.64 LIG-0.02  C 
ATOM     13  CD2 LEU N 235      57.256  20.964  -3.510  1.00 52.33 LIG 0.01  C 
ATOM     14  CD1 LEU N 235      54.805  21.006  -3.988  1.00 53.22 LIG 0.01  C 
ENDBRANCH 11 12
ENDBRANCH 10 11
BRANCH 10 15
ATOM     15  C   LEU N 235      57.482  25.205  -3.675  1.00 52.64 LIG 0.24  C 
ATOM     16 O    LEU N 235      57.158  25.340  -4.856  1.00 52.05 LIG-0.27  OA
ATOM     17  N   GLY N 236      58.269  26.064  -3.030  1.00 57.75 LIG-0.35  N 
ATOM     18 H    GLY N 236      58.471  25.978  -2.198  1.00 57.75 LIG 0.16  HD
BRANCH 17 19
ATOM     19  CA  GLY N 236      58.869  27.230  -3.650  1.00 57.52 LIG 0.23  C 
BRANCH 19 20
ATOM     20  C   GLY N 236      60.078  27.743  -2.890  1.00 60.52 LIG 0.19  C 
ATOM     21 OXT  GLY N 236      60.095  27.742  -1.660  1.00 61.85 LIG-0.65  OA
ATOM     22 O    GLY N 236      61.071  28.171  -3.474  1.00 62.19 LIG-0.65  OA
ENDBRANCH 19 20
ENDBRANCH 17 19
ENDBRANCH 10 15
ENDBRANCH 8 10
ENDBRANCH 5 6
BRANCH 5 23
ATOM     23  CB  LEU N 234      56.628  25.992   1.383  1.00 79.47 LIG 0.04  C 
BRANCH 23 24
ATOM     24  CG  LEU N 234      57.589  26.833   0.538  1.00 81.24 LIG-0.02  C 
ATOM     25  CD1 LEU N 234      56.982  28.186   0.199  1.00 81.52 LIG 0.01  C 
ATOM     26  CD2 LEU N 234      58.922  27.001   1.256  1.00 82.88 LIG 0.01  C 
ENDBRANCH 23 24
ENDBRANCH 5 23
ENDBRANCH 3 5
BRANCH 1 27
ATOM     27  CA  GLU N 233      55.295  21.458   2.579  1.00 71.40 LIG 0.18  C 
BRANCH 27 28
ATOM     28  CB  GLU N 233      55.462  20.043   2.017  1.00 70.45 LIG 0.04  C 
BRANCH 28 29
ATOM     29  CG  GLU N 233      55.473  18.943   3.061  1.00 66.32 LIG 0.12  C 
BRANCH 29 30
ATOM     30  CD  GLU N 233      56.793  18.197   3.108  1.00 63.12 LIG 0.17  C 
ATOM     31 OE1  GLU N 233      57.784  18.768   3.609  1.00 63.49 LIG-0.65  OA
ATOM     32 OE2  GLU N 233      56.841  17.040   2.641  1.00 60.69 LIG-0.65  OA
ENDBRANCH 29 30
ENDBRANCH 28 29
ENDBRANCH 27 28
BRANCH 27 33
ATOM     33  N   GLU N 233      54.008  21.616   3.262  1.00 74.02 LIG-0.35  N 
ATOM     34 H    GLU N 233      53.441  21.002   3.064  1.00 74.02 LIG 0.16  HD
ATOM     35  C   PRO N 232      53.732  22.607   4.107  1.00 90.40 LIG 0.24  C 
ATOM     36 O    PRO N 232      54.526  23.475   4.417  1.00 95.63 LIG-0.27  OA
BRANCH 35 37
ATOM     37  CA  PRO N 232      52.341  22.671   4.693  1.00 87.45 LIG 0.18  C 
ATOM     38  N   PRO N 232      51.551  23.760   4.134  1.00 90.22 LIG-0.34  N 
ATOM     39  C   ALA N 231      51.339  24.986   4.626  1.00 63.79 LIG 0.26  C 
ATOM     40  CD  PRO N 232      50.625  23.263   3.101  1.00 90.52 LIG 0.13  C 
ATOM     41 O    ALA N 231      50.776  25.888   4.012  1.00 66.65 LIG-0.27  OA
ATOM     42  CG  PRO N 232      51.008  21.809   2.960  1.00 87.66 LIG 0.02  C 
ATOM     43  CB  PRO N 232      51.542  21.433   4.292  1.00 84.55 LIG 0.04  C 
BRANCH 39 44
ATOM     44  CA  ALA N 231      51.853  25.247   6.025  1.00 62.23 LIG 0.40  C 
ATOM     45  CB  ALA N 231      50.961  26.251   6.741  1.00 54.17 LIG 0.06  C 
ATOM     46  N   ALA N 231      53.226  25.723   5.987  1.00 63.17 LIG 0.61  N 
ENDBRANCH 39 44
ENDBRANCH 35 37
ENDBRANCH 27 33
ENDBRANCH 1 27
TORSDOF 17
ENDMDL
MODEL 3
USER: ADFR SOLUTION from run 113
USER: SCORE 19.188781 LL:  -4.353 LR: -15.903 RR:   0.000 FEB: -10.832
USER: RMSD 8.670050
USER: SEED 112
USER: STATUS no improvement in best in 1 clusters for 5 generations
USER: GENES 19
USER: genes 0 Translation |==|  0.64218 0.58991 0.30106
USER: genes 1 Rotation |==|  0.57489 0.26070 0.06944 0.54180
USER: genes 2 Torsion [C]-N--CA-[C] |==|  0.22393
USER: genes 3 Torsion [N]-CA--C-[N] |==|  0.02813
USER: genes 4 Torsion [C]-N--CA-[CB] |==|  0.51945
USER: genes 5 Torsion [N]-CA--CB-[CG] |==|  0.71051
USER: genes 6 Torsion [CA]-CB--CG-[CD1] |==|  0.55721
USER: genes 7 Torsion [N]-CA--C-[N] |==|  0.39444
USER: genes 8 Torsion [C]-N--CA-[C] |==|  0.22101
USER: genes 9 Torsion [N]-CA--C-[OXT] |==|  0.25476
USER: genes 10 Torsion [N]-CA--CB-[CG] |==|  0.58913
USER: genes 11 Torsion [CA]-CB--CG-[CD2] |==|  0.14539
USER: genes 12 Torsion [N]-C--CA-[N] |==|  0.09173
USER: genes 13 Torsion [C]-CA--CB-[CG] |==|  0.40590
USER: genes 14 Torsion [CA]-CB--CG-[CD] |==|  0.40173
USER: genes 15 Torsion [CB]-CG--CD-[OE1] |==|  0.82872
USER: genes 16 Torsion [C]-CA--N-[C] |==|  0.17397
USER: genes 17 Torsion [N]-C--CA-[N] |==|  0.48612
USER: genes 18 Torsion [N]-C--CA-[N] |==|  0.21862
ROOT
ATOM      1  C   GLU N 233      56.960  24.233  -2.506  1.00 68.48 LIG 0.24  C 
ATOM      2 O    GLU N 233      57.790  23.471  -2.951  1.00 65.22 LIG-0.27  OA
ATOM      3  N   LEU N 234      55.845  23.780  -1.966  1.00 77.80 LIG-0.35  N 
ATOM      4 H    LEU N 234      55.210  24.283  -1.679  1.00 77.80 LIG 0.16  HD
ENDROOT
BRANCH 3 5
ATOM      5  CA  LEU N 234      55.599  22.351  -1.814  1.00 75.39 LIG 0.18  C 
BRANCH 5 6
ATOM      6  C   LEU N 234      56.296  21.780  -0.604  1.00 71.67 LIG 0.24  C 
ATOM      7 O    LEU N 234      56.340  20.593  -0.419  1.00 71.06 LIG-0.27  OA
ATOM      8  N   LEU N 235      56.828  22.648   0.228  1.00 52.85 LIG-0.35  N 
ATOM      9 H    LEU N 235      56.753  23.500   0.144  1.00 52.85 LIG 0.16  HD
BRANCH 8 10
ATOM     10  CA  LEU N 235      57.607  22.222   1.392  1.00 54.39 LIG 0.18  C 
BRANCH 10 11
ATOM     11  CB  LEU N 235      57.959  23.417   2.278  1.00 50.34 LIG 0.04  C 
BRANCH 11 12
ATOM     12  CG  LEU N 235      59.410  23.890   2.167  1.00 52.64 LIG-0.02  C 
ATOM     13  CD2 LEU N 235      60.369  22.726   1.974  1.00 52.33 LIG 0.01  C 
ATOM     14  CD1 LEU N 235      59.789  24.697   3.395  1.00 53.22 LIG 0.01  C 
ENDBRANCH 11 12
ENDBRANCH 10 11
BRANCH 10 15
ATOM     15  C   LEU N 235      56.859  21.164   2.213  1.00 52.64 LIG 0.24  C 
ATOM     16 O    LEU N 235      55.637  21.221   2.361  1.00 52.05 LIG-0.27  OA
ATOM     17  N   GLY N 236      57.613  20.194   2.726  1.00 57.75 LIG-0.35  N 
ATOM     18 H    GLY N 236      58.462  20.146   2.599  1.00 57.75 LIG 0.16  HD
BRANCH 17 19
ATOM     19  CA  GLY N 236      57.093  19.119   3.550  1.00 57.52 LIG 0.23  C 
BRANCH 19 20
ATOM     20  C   GLY N 236      56.437  18.020   2.735  1.00 60.52 LIG 0.19  C 
ATOM     21 OXT  GLY N 236      57.085  17.046   2.354  1.00 61.85 LIG-0.65  OA
ATOM     22 O    GLY N 236      55.246  18.066   2.434  1.00 62.19 LIG-0.65  OA
ENDBRANCH 19 20
ENDBRANCH 17 19
ENDBRANCH 10 15
ENDBRANCH 8 10
ENDBRANCH 5 6
BRANCH 5 23
ATOM     23  CB  LEU N 234      56.053  21.606  -3.074  1.00 79.47 LIG 0.04  C 
BRANCH 23 24
ATOM     24  CG  LEU N 234      55.285  20.346  -3.483  1.00 81.24 LIG-0.02  C 
ATOM     25  CD1 LEU N 234      55.563  19.197  -2.526  1.00 81.52 LIG 0.01  C 
ATOM     26  CD2 LEU N 234      53.791  20.635  -3.562  1.00 82.88 LIG 0.01  C 
ENDBRANCH 23 24
ENDBRANCH 5 23
ENDBRANCH 3 5
BRANCH 1 27
ATOM     27  CA  GLU N 233      57.175  25.747  -2.560  1.00 71.40 LIG 0.18  C 
BRANCH 27 28
ATOM     28  CB  GLU N 233      58.672  26.060  -2.654  1.00 70.45 LIG 0.04  C 
BRANCH 28 29
ATOM     29  CG  GLU N 233      59.013  27.287  -3.477  1.00 66.32 LIG 0.12  C 
BRANCH 29 30
ATOM     30  CD  GLU N 233      60.200  28.050  -2.919  1.00 63.12 LIG 0.17  C 
ATOM     31 OE1  GLU N 233      60.114  28.533  -1.771  1.00 63.49 LIG-0.65  OA
ATOM     32 OE2  GLU N 233      61.219  28.171  -3.631  1.00 60.69 LIG-0.65  OA
ENDBRANCH 29 30
ENDBRANCH 28 29
ENDBRANCH 27 28
BRANCH 27 33
ATOM     33  N   GLU N 233      56.564  26.396  -1.396  1.00 74.02 LIG-0.35  N 
ATOM     34 H    GLU N 233      55.933  26.942  -1.604  1.00 74.02 LIG 0.16  HD
ATOM     35  C   PRO N 232      56.937  26.170  -0.138  1.00 90.40 LIG 0.24  C 
ATOM     36 O    PRO N 232      57.812  25.387   0.180  1.00 95.63 LIG-0.27  OA
BRANCH 35 37
ATOM     37  CA  PRO N 232      56.251  26.955   0.955  1.00 87.45 LIG 0.18  C 
ATOM     38  N   PRO N 232      56.666  26.533   2.286  1.00 90.22 LIG-0.34  N 
ATOM     39  C   ALA N 231      56.066  25.681   3.126  1.00 63.79 LIG 0.26  C 
ATOM     40  CD  PRO N 232      57.667  27.459   2.845  1.00 90.52 LIG 0.13  C 
ATOM     41 O    ALA N 231      56.567  25.274   4.170  1.00 66.65 LIG-0.27  OA
ATOM     42  CG  PRO N 232      57.947  28.401   1.698  1.00 87.66 LIG 0.02  C 
ATOM     43  CB  PRO N 232      56.690  28.417   0.912  1.00 84.55 LIG 0.04  C 
BRANCH 39 44
ATOM     44  CA  ALA N 231      54.691  25.196   2.722  1.00 62.23 LIG 0.40  C 
ATOM     45  CB  ALA N 231      53.926  24.693   3.938  1.00 54.17 LIG 0.06  C 
ATOM     46  N   ALA N 231      54.790  24.151   1.716  1.00 63.17 LIG 0.61  N 
ENDBRANCH 39 44
ENDBRANCH 35 37
ENDBRANCH 27 33
ENDBRANCH 1 27
TORSDOF 17
ENDMDL
MODEL 4
USER: ADFR SOLUTION from run 194
USER: SCORE 17.540002 LL:  -3.461 LR: -15.883 RR:   0.000 FEB: -10.812
USER: RMSD 4.233820
USER: SEED 193
USER: STATUS no improvement in best in 8 clusters for 5 generations
USER: GENES 19
USER: genes 0 Translation |==|  0.60024 0.45261 0.54096
USER: genes 1 Rotation |==|  0.24322 0.29958 0.87077 0.58017
USER: genes 2 Torsion [C]-N--CA-[C] |==|  0.80879
USER: genes 3 Torsion [N]-CA--C-[N] |==|  0.75980
USER: genes 4 Torsion [C]-N--CA-[CB] |==|  0.83889
USER: genes 5 Torsion [N]-CA--CB-[CG] |==|  0.42502
USER: genes 6 Torsion [CA]-CB--CG-[CD1] |==|  0.25541
USER: genes 7 Torsion [N]-CA--C-[N] |==|  0.42714
USER: genes 8 Torsion [C]-N--CA-[C] |==|  0.74949
USER: genes 9 Torsion [N]-CA--C-[OXT] |==|  0.50217
USER: genes 10 Torsion [N]-CA--CB-[CG] |==|  0.67909
USER: genes 11 Torsion [CA]-CB--CG-[CD2] |==|  0.80056
USER: genes 12 Torsion [N]-C--CA-[N] |==|  0.83871
USER: genes 13 Torsion [C]-CA--CB-[CG] |==|  0.29738
USER: genes 14 Torsion [CA]-CB--CG-[CD] |==|  0.88636
USER: genes 15 Torsion [CB]-CG--CD-[OE1] |==|  0.26716
USER: genes 16 Torsion [C]-CA--N-[C] |==|  0.18424
USER: genes 17 Torsion [N]-C--CA-[N] |==|  0.79076
USER: genes 18 Torsion [N]-C--CA-[N] |==|  0.22080
ROOT
ATOM      1  C   GLU N 233      56.111  21.658   1.992  1.00 68.48 LIG 0.24  C 
ATOM      2 O    GLU N 233      57.308  21.807   2.111  1.00 65.22 LIG-0.27  OA
ATOM      3  N   LEU N 234      55.524  21.804   0.819  1.00 77.80 LIG-0.35  N 
ATOM      4 H    LEU N 234      54.675  21.751   0.697  1.00 77.80 LIG 0.16  HD
ENDROOT
BRANCH 3 5
ATOM      5  CA  LEU N 234      56.293  22.072  -0.389  1.00 75.39 LIG 0.18  C 
BRANCH 5 6
ATOM      6  C   LEU N 234      56.909  23.449  -0.376  1.00 71.67 LIG 0.24  C 
ATOM      7 O    LEU N 234      58.025  23.623   0.038  1.00 71.06 LIG-0.27  OA
ATOM      8  N   LEU N 235      56.157  24.431  -0.822  1.00 52.85 LIG-0.35  N 
ATOM      9 H    LEU N 235      55.338  24.335  -1.063  1.00 52.85 LIG 0.16  HD
BRANCH 8 10
ATOM     10  CA  LEU N 235      56.667  25.797  -0.944  1.00 54.39 LIG 0.18  C 
BRANCH 10 11
ATOM     11  CB  LEU N 235      57.167  26.315   0.406  1.00 50.34 LIG 0.04  C 
BRANCH 11 12
ATOM     12  CG  LEU N 235      58.259  27.384   0.316  1.00 52.64 LIG-0.02  C 
ATOM     13  CD2 LEU N 235      59.268  27.254   1.446  1.00 52.33 LIG 0.01  C 
ATOM     14  CD1 LEU N 235      57.633  28.766   0.314  1.00 53.22 LIG 0.01  C 
ENDBRANCH 11 12
ENDBRANCH 10 11
BRANCH 10 15
ATOM     15  C   LEU N 235      57.788  25.889  -1.987  1.00 52.64 LIG 0.24  C 
ATOM     16 O    LEU N 235      58.476  24.907  -2.267  1.00 52.05 LIG-0.27  OA
ATOM     17  N   GLY N 236      57.942  27.079  -2.564  1.00 57.75 LIG-0.35  N 
ATOM     18 H    GLY N 236      57.442  27.755  -2.382  1.00 57.75 LIG 0.16  HD
BRANCH 17 19
ATOM     19  CA  GLY N 236      58.962  27.368  -3.555  1.00 57.52 LIG 0.23  C 
BRANCH 19 20
ATOM     20  C   GLY N 236      60.255  27.869  -2.938  1.00 60.52 LIG 0.19  C 
ATOM     21 OXT  GLY N 236      61.214  28.172  -3.646  1.00 61.85 LIG-0.65  OA
ATOM     22 O    GLY N 236      60.384  27.988  -1.722  1.00 62.19 LIG-0.65  OA
ENDBRANCH 19 20
ENDBRANCH 17 19
ENDBRANCH 10 15
ENDBRANCH 8 10
ENDBRANCH 5 6
BRANCH 5 23
ATOM     23  CB  LEU N 234      55.399  21.915  -1.624  1.00 79.47 LIG 0.04  C 
BRANCH 23 24
ATOM     24  CG  LEU N 234      55.731  20.798  -2.617  1.00 81.24 LIG-0.02  C 
ATOM     25  CD1 LEU N 234      54.566  20.537  -3.559  1.00 81.52 LIG 0.01  C 
ATOM     26  CD2 LEU N 234      56.994  21.137  -3.398  1.00 82.88 LIG 0.01  C 
ENDBRANCH 23 24
ENDBRANCH 5 23
ENDBRANCH 3 5
BRANCH 1 27
ATOM     27  CA  GLU N 233      55.239  21.303   3.199  1.00 71.40 LIG 0.18  C 
BRANCH 27 28
ATOM     28  CB  GLU N 233      54.635  19.908   3.015  1.00 70.45 LIG 0.04  C 
BRANCH 28 29
ATOM     29  CG  GLU N 233      55.243  18.832   3.893  1.00 66.32 LIG 0.12  C 
BRANCH 29 30
ATOM     30  CD  GLU N 233      56.752  18.952   4.001  1.00 63.12 LIG 0.17  C 
ATOM     31 OE1  GLU N 233      57.234  19.550   4.986  1.00 63.49 LIG-0.65  OA
ATOM     32 OE2  GLU N 233      57.456  18.450   3.101  1.00 60.69 LIG-0.65  OA
ENDBRANCH 29 30
ENDBRANCH 28 29
ENDBRANCH 27 28
BRANCH 27 33
ATOM     33  N   GLU N 233      54.200  22.317   3.399  1.00 74.02 LIG-0.35  N 
ATOM     34 H    GLU N 233      54.296  22.762   4.128  1.00 74.02 LIG 0.16  HD
ATOM     35  C   PRO N 232      53.201  22.535   2.547  1.00 90.40 LIG 0.24  C 
ATOM     36 O    PRO N 232      53.057  21.931   1.501  1.00 95.63 LIG-0.27  OA
BRANCH 35 37
ATOM     37  CA  PRO N 232      52.171  23.578   2.914  1.00 87.45 LIG 0.18  C 
ATOM     38  N   PRO N 232      51.248  23.110   3.939  1.00 90.22 LIG-0.34  N 
ATOM     39  C   ALA N 231      50.025  22.587   3.797  1.00 63.79 LIG 0.26  C 
ATOM     40  CD  PRO N 232      51.622  23.635   5.265  1.00 90.52 LIG 0.13  C 
ATOM     41 O    ALA N 231      49.378  22.086   4.712  1.00 66.65 LIG-0.27  OA
ATOM     42  CG  PRO N 232      52.931  24.342   5.003  1.00 87.66 LIG 0.02  C 
ATOM     43  CB  PRO N 232      52.846  24.772   3.587  1.00 84.55 LIG 0.04  C 
BRANCH 39 44
ATOM     44  CA  ALA N 231      49.440  22.618   2.402  1.00 62.23 LIG 0.40  C 
ATOM     45  CB  ALA N 231      47.922  22.521   2.460  1.00 54.17 LIG 0.06  C 
ATOM     46  N   ALA N 231      49.987  21.543   1.591  1.00 63.17 LIG 0.61  N 
ENDBRANCH 39 44
ENDBRANCH 35 37
ENDBRANCH 27 33
ENDBRANCH 1 27
TORSDOF 17
ENDMDL
MODEL 5
USER: ADFR SOLUTION from run 11
USER: SCORE 18.436252 LL:  -4.159 LR: -15.778 RR:   0.000 FEB: -10.707
USER: RMSD 9.547845
USER: SEED 797765
USER: STATUS searching
USER: GENES 19
USER: genes 0 Translation |==|  0.64623 0.61023 0.33910
USER: genes 1 Rotation |==|  0.28731 0.75301 0.86786 0.57366
USER: genes 2 Torsion [C]-N--CA-[C] |==|  0.21268
USER: genes 3 Torsion [N]-CA--C-[N] |==|  0.89191
USER: genes 4 Torsion [C]-N--CA-[CB] |==|  0.81080
USER: genes 5 Torsion [N]-CA--CB-[CG] |==|  0.87713
USER: genes 6 Torsion [CA]-CB--CG-[CD1] |==|  0.57426
USER: genes 7 Torsion [N]-CA--C-[N] |==|  0.51667
USER: genes 8 Torsion [C]-N--CA-[C] |==|  0.21441
USER: genes 9 Torsion [N]-CA--C-[OXT] |==|  0.11116
USER: genes 10 Torsion [N]-CA--CB-[CG] |==|  0.56410
USER: genes 11 Torsion [CA]-CB--CG-[CD2] |==|  0.13214
USER: genes 12 Torsion [N]-C--CA-[N] |==|  0.38269
USER: genes 13 Torsion [C]-CA--CB-[CG] |==|  0.73908
USER: genes 14 Torsion [CA]-CB--CG-[CD] |==|  0.70189
USER: genes 15 Torsion [CB]-CG--CD-[OE1] |==|  0.16887
USER: genes 16 Torsion [C]-CA--N-[C] |==|  0.62219
USER: genes 17 Torsion [N]-C--CA-[N] |==|  0.64305
USER: genes 18 Torsion [N]-C--CA-[N] |==|  0.22792
ROOT
ATOM      1  C   GLU N 233      57.042  24.614  -1.793  1.00 68.48 LIG 0.24  C 
ATOM      2 O    GLU N 233      57.843  23.739  -1.543  1.00 65.22 LIG-0.27  OA
ATOM      3  N   LEU N 234      55.811  24.319  -2.166  1.00 77.80 LIG-0.35  N 
ATOM      4 H    LEU N 234      55.225  24.904  -2.394  1.00 77.80 LIG 0.16  HD
ENDROOT
BRANCH 3 5
ATOM      5  CA  LEU N 234      55.343  22.940  -2.219  1.00 75.39 LIG 0.18  C 
BRANCH 5 6
ATOM      6  C   LEU N 234      55.038  22.389  -0.848  1.00 71.67 LIG 0.24  C 
ATOM      7 O    LEU N 234      54.082  21.684  -0.664  1.00 71.06 LIG-0.27  OA
ATOM      8  N   LEU N 235      55.860  22.737   0.118  1.00 52.85 LIG-0.35  N 
ATOM      9 H    LEU N 235      56.512  23.288   0.017  1.00 52.85 LIG 0.16  HD
BRANCH 8 10
ATOM     10  CA  LEU N 235      55.727  22.201   1.473  1.00 54.39 LIG 0.18  C 
BRANCH 10 11
ATOM     11  CB  LEU N 235      54.455  22.722   2.142  1.00 50.34 LIG 0.04  C 
BRANCH 11 12
ATOM     12  CG  LEU N 235      54.198  24.219   1.949  1.00 52.64 LIG-0.02  C 
ATOM     13  CD2 LEU N 235      55.495  24.999   1.805  1.00 52.33 LIG 0.01  C 
ATOM     14  CD1 LEU N 235      53.375  24.758   3.104  1.00 53.22 LIG 0.01  C 
ENDBRANCH 11 12
ENDBRANCH 10 11
BRANCH 10 15
ATOM     15  C   LEU N 235      55.727  20.667   1.475  1.00 52.64 LIG 0.24  C 
ATOM     16 O    LEU N 235      55.956  20.031   0.444  1.00 52.05 LIG-0.27  OA
ATOM     17  N   GLY N 236      55.486  20.091   2.651  1.00 57.75 LIG-0.35  N 
ATOM     18 H    GLY N 236      55.352  20.541   3.372  1.00 57.75 LIG 0.16  HD
BRANCH 17 19
ATOM     19  CA  GLY N 236      55.422  18.655   2.848  1.00 57.52 LIG 0.23  C 
BRANCH 19 20
ATOM     20  C   GLY N 236      56.793  18.007   2.889  1.00 60.52 LIG 0.19  C 
ATOM     21 OXT  GLY N 236      57.731  18.553   3.470  1.00 61.85 LIG-0.65  OA
ATOM     22 O    GLY N 236      57.009  16.923   2.351  1.00 62.19 LIG-0.65  OA
ENDBRANCH 19 20
ENDBRANCH 17 19
ENDBRANCH 10 15
ENDBRANCH 8 10
ENDBRANCH 5 6
BRANCH 5 23
ATOM     23  CB  LEU N 234      56.389  22.059  -2.911  1.00 79.47 LIG 0.04  C 
BRANCH 23 24
ATOM     24  CG  LEU N 234      55.920  20.749  -3.550  1.00 81.24 LIG-0.02  C 
ATOM     25  CD1 LEU N 234      55.657  19.686  -2.494  1.00 81.52 LIG 0.01  C 
ATOM     26  CD2 LEU N 234      54.679  20.985  -4.401  1.00 82.88 LIG 0.01  C 
ENDBRANCH 23 24
ENDBRANCH 5 23
ENDBRANCH 3 5
BRANCH 1 27
ATOM     27  CA  GLU N 233      57.433  26.090  -1.689  1.00 71.40 LIG 0.18  C 
BRANCH 27 28
ATOM     28  CB  GLU N 233      58.183  26.522  -2.953  1.00 70.45 LIG 0.04  C 
BRANCH 28 29
ATOM     29  CG  GLU N 233      59.693  26.432  -2.857  1.00 66.32 LIG 0.12  C 
BRANCH 29 30
ATOM     30  CD  GLU N 233      60.353  27.795  -2.754  1.00 63.12 LIG 0.17  C 
ATOM     31 OE1  GLU N 233      60.068  28.524  -1.781  1.00 63.49 LIG-0.65  OA
ATOM     32 OE2  GLU N 233      61.153  28.139  -3.649  1.00 60.69 LIG-0.65  OA
ENDBRANCH 29 30
ENDBRANCH 28 29
ENDBRANCH 27 28
BRANCH 27 33
ATOM     33  N   GLU N 233      58.231  26.328  -0.484  1.00 74.02 LIG-0.35  N 
ATOM     34 H    GLU N 233      58.836  25.731  -0.353  1.00 74.02 LIG 0.16  HD
ATOM     35  C   PRO N 232      58.049  27.361   0.337  1.00 90.40 LIG 0.24  C 
ATOM     36 O    PRO N 232      57.214  28.228   0.160  1.00 95.63 LIG-0.27  OA
BRANCH 35 37
ATOM     37  CA  PRO N 232      58.914  27.445   1.572  1.00 87.45 LIG 0.18  C 
ATOM     38  N   PRO N 232      58.132  27.633   2.786  1.00 90.22 LIG-0.34  N 
ATOM     39  C   ALA N 231      57.851  28.766   3.442  1.00 63.79 LIG 0.26  C 
ATOM     40  CD  PRO N 232      57.970  26.360   3.513  1.00 90.52 LIG 0.13  C 
ATOM     41 O    ALA N 231      57.061  28.844   4.377  1.00 66.65 LIG-0.27  OA
ATOM     42  CG  PRO N 232      58.586  25.346   2.578  1.00 87.66 LIG 0.02  C 
ATOM     43  CB  PRO N 232      59.609  26.108   1.822  1.00 84.55 LIG 0.04  C 
BRANCH 39 44
ATOM     44  CA  ALA N 231      58.559  30.013   2.960  1.00 62.23 LIG 0.40  C 
ATOM     45  CB  ALA N 231      58.652  31.038   4.081  1.00 54.17 LIG 0.06  C 
ATOM     46  N   ALA N 231      57.875  30.580   1.808  1.00 63.17 LIG 0.61  N 
ENDBRANCH 39 44
ENDBRANCH 35 37
ENDBRANCH 27 33
ENDBRANCH 1 27
TORSDOF 17
ENDMDL
MODEL 6
USER: ADFR SOLUTION from run 154
USER: SCORE 18.612045 LL:  -4.015 LR: -15.768 RR:   0.000 FEB: -10.697
USER: RMSD 5.297254
USER: SEED 153
USER: STATUS no improvement in best in 7 clusters for 5 generations
USER: GENES 19
USER: genes 0 Translation |==|  0.64834 0.45521 0.49191
USER: genes 1 Rotation |==|  0.30305 0.36240 0.91658 0.63688
USER: genes 2 Torsion [C]-N--CA-[C] |==|  0.74462
USER: genes 3 Torsion [N]-CA--C-[N] |==|  0.99389
USER: genes 4 Torsion [C]-N--CA-[CB] |==|  0.51667
USER: genes 5 Torsion [N]-CA--CB-[CG] |==|  0.33424
USER: genes 6 Torsion [CA]-CB--CG-[CD1] |==|  0.37877
USER: genes 7 Torsion [N]-CA--C-[N] |==|  0.42898
USER: genes 8 Torsion [C]-N--CA-[C] |==|  0.82428
USER: genes 9 Torsion [N]-CA--C-[OXT] |==|  0.99182
USER: genes 10 Torsion [N]-CA--CB-[CG] |==|  0.60162
USER: genes 11 Torsion [CA]-CB--CG-[CD2] |==|  0.96559
USER: genes 12 Torsion [N]-C--CA-[N] |==|  0.80965
USER: genes 13 Torsion [C]-CA--CB-[CG] |==|  0.11708
USER: genes 14 Torsion [CA]-CB--CG-[CD] |==|  0.25518
USER: genes 15 Torsion [CB]-CG--CD-[OE1] |==|  0.94565
USER: genes 16 Torsion [C]-CA--N-[C] |==|  0.18693
USER: genes 17 Torsion [N]-C--CA-[N] |==|  0.77405
USER: genes 18 Torsion [N]-C--CA-[N] |==|  0.29109
ROOT
ATOM      1  C   GLU N 233      57.085  21.707   1.072  1.00 68.48 LIG 0.24  C 
ATOM      2 O    GLU N 233      58.236  21.635   0.702  1.00 65.22 LIG-0.27  OA
ATOM      3  N   LEU N 234      56.104  21.881   0.207  1.00 77.80 LIG-0.35  N 
ATOM      4 H    LEU N 234      55.280  21.982   0.428  1.00 77.80 LIG 0.16  HD
ENDROOT
BRANCH 3 5
ATOM      5  CA  LEU N 234      56.354  21.917  -1.229  1.00 75.39 LIG 0.18  C 
BRANCH 5 6
ATOM      6  C   LEU N 234      56.592  23.321  -1.729  1.00 71.67 LIG 0.24  C 
ATOM      7 O    LEU N 234      56.866  23.527  -2.881  1.00 71.06 LIG-0.27  OA
ATOM      8  N   LEU N 235      56.497  24.283  -0.839  1.00 52.85 LIG-0.35  N 
ATOM      9 H    LEU N 235      56.362  24.148  -0.000  1.00 52.85 LIG 0.16  HD
BRANCH 8 10
ATOM     10  CA  LEU N 235      56.617  25.693  -1.212  1.00 54.39 LIG 0.18  C 
BRANCH 10 11
ATOM     11  CB  LEU N 235      56.616  26.586   0.029  1.00 50.34 LIG 0.04  C 
BRANCH 11 12
ATOM     12  CG  LEU N 235      57.874  27.442   0.201  1.00 52.64 LIG-0.02  C 
ATOM     13  CD2 LEU N 235      58.834  26.836   1.212  1.00 52.33 LIG 0.01  C 
ATOM     14  CD1 LEU N 235      57.489  28.853   0.608  1.00 53.22 LIG 0.01  C 
ENDBRANCH 11 12
ENDBRANCH 10 11
BRANCH 10 15
ATOM     15  C   LEU N 235      57.882  25.950  -2.041  1.00 52.64 LIG 0.24  C 
ATOM     16 O    LEU N 235      58.859  25.206  -1.956  1.00 52.05 LIG-0.27  OA
ATOM     17  N   GLY N 236      57.834  27.004  -2.853  1.00 57.75 LIG-0.35  N 
ATOM     18 H    GLY N 236      57.139  27.506  -2.927  1.00 57.75 LIG 0.16  HD
BRANCH 17 19
ATOM     19  CA  GLY N 236      58.938  27.422  -3.697  1.00 57.52 LIG 0.23  C 
BRANCH 19 20
ATOM     20  C   GLY N 236      60.159  27.842  -2.901  1.00 60.52 LIG 0.19  C 
ATOM     21 OXT  GLY N 236      60.134  27.860  -1.671  1.00 61.85 LIG-0.65  OA
ATOM     22 O    GLY N 236      61.206  28.172  -3.455  1.00 62.19 LIG-0.65  OA
ENDBRANCH 19 20
ENDBRANCH 17 19
ENDBRANCH 10 15
ENDBRANCH 8 10
ENDBRANCH 5 6
BRANCH 5 23
ATOM     23  CB  LEU N 234      55.175  21.291  -1.981  1.00 79.47 LIG 0.04  C 
BRANCH 23 24
ATOM     24  CG  LEU N 234      55.475  20.464  -3.234  1.00 81.24 LIG-0.02  C 
ATOM     25  CD1 LEU N 234      54.510  20.802  -4.360  1.00 81.52 LIG 0.01  C 
ATOM     26  CD2 LEU N 234      56.918  20.672  -3.676  1.00 82.88 LIG 0.01  C 
ENDBRANCH 23 24
ENDBRANCH 5 23
ENDBRANCH 3 5
BRANCH 1 27
ATOM     27  CA  GLU N 233      56.729  21.605   2.558  1.00 71.40 LIG 0.18  C 
BRANCH 27 28
ATOM     28  CB  GLU N 233      55.697  20.495   2.773  1.00 70.45 LIG 0.04  C 
BRANCH 28 29
ATOM     29  CG  GLU N 233      55.953  19.227   1.981  1.00 66.32 LIG 0.12  C 
BRANCH 29 30
ATOM     30  CD  GLU N 233      56.779  18.215   2.753  1.00 63.12 LIG 0.17  C 
ATOM     31 OE1  GLU N 233      57.456  18.613   3.724  1.00 63.49 LIG-0.65  OA
ATOM     32 OE2  GLU N 233      56.754  17.021   2.387  1.00 60.69 LIG-0.65  OA
ENDBRANCH 29 30
ENDBRANCH 28 29
ENDBRANCH 27 28
BRANCH 27 33
ATOM     33  N   GLU N 233      56.245  22.894   3.061  1.00 74.02 LIG-0.35  N 
ATOM     34 H    GLU N 233      56.777  23.257   3.630  1.00 74.02 LIG 0.16  HD
ATOM     35  C   PRO N 232      55.099  23.456   2.683  1.00 90.40 LIG 0.24  C 
ATOM     36 O    PRO N 232      54.343  22.969   1.864  1.00 95.63 LIG-0.27  OA
BRANCH 35 37
ATOM     37  CA  PRO N 232      54.705  24.763   3.330  1.00 87.45 LIG 0.18  C 
ATOM     38  N   PRO N 232      54.086  24.573   4.634  1.00 90.22 LIG-0.34  N 
ATOM     39  C   ALA N 231      52.787  24.529   4.954  1.00 63.79 LIG 0.26  C 
ATOM     40  CD  PRO N 232      55.053  24.826   5.719  1.00 90.52 LIG 0.13  C 
ATOM     41 O    ALA N 231      52.359  24.219   6.061  1.00 66.65 LIG-0.27  OA
ATOM     42  CG  PRO N 232      56.353  25.042   4.981  1.00 87.66 LIG 0.02  C 
ATOM     43  CB  PRO N 232      55.949  25.584   3.662  1.00 84.55 LIG 0.04  C 
BRANCH 39 44
ATOM     44  CA  ALA N 231      51.813  24.875   3.849  1.00 62.23 LIG 0.40  C 
ATOM     45  CB  ALA N 231      50.769  25.863   4.350  1.00 54.17 LIG 0.06  C 
ATOM     46  N   ALA N 231      51.171  23.675   3.336  1.00 63.17 LIG 0.61  N 
ENDBRANCH 39 44
ENDBRANCH 35 37
ENDBRANCH 27 33
ENDBRANCH 1 27
TORSDOF 17
ENDMDL
MODEL 7
USER: ADFR SOLUTION from run 177
USER: SCORE 18.715887 LL:  -4.817 LR: -15.610 RR:   0.000 FEB: -10.539
USER: RMSD 6.483551
USER: SEED 176
USER: STATUS no improvement in best in 2 clusters for 5 generations
USER: GENES 19
USER: genes 0 Translation |==|  0.60846 0.44959 0.50523
USER: genes 1 Rotation |==|  0.50813 0.51911 0.71761 0.94968
USER: genes 2 Torsion [C]-N--CA-[C] |==|  0.83526
USER: genes 3 Torsion [N]-CA--C-[N] |==|  0.37211
USER: genes 4 Torsion [C]-N--CA-[CB] |==|  0.40861
USER: genes 5 Torsion [N]-CA--CB-[CG] |==|  0.76394
USER: genes 6 Torsion [CA]-CB--CG-[CD1] |==|  0.91013
USER: genes 7 Torsion [N]-CA--C-[N] |==|  0.09317
USER: genes 8 Torsion [C]-N--CA-[C] |==|  0.65841
USER: genes 9 Torsion [N]-CA--C-[OXT] |==|  0.43728
USER: genes 10 Torsion [N]-CA--CB-[CG] |==|  0.34105
USER: genes 11 Torsion [CA]-CB--CG-[CD2] |==|  0.73959
USER: genes 12 Torsion [N]-C--CA-[N] |==|  0.93942
USER: genes 13 Torsion [C]-CA--CB-[CG] |==|  0.38798
USER: genes 14 Torsion [CA]-CB--CG-[CD] |==|  0.01476
USER: genes 15 Torsion [CB]-CG--CD-[OE1] |==|  0.14748
USER: genes 16 Torsion [C]-CA--N-[C] |==|  0.81651
USER: genes 17 Torsion [N]-C--CA-[N] |==|  0.72193
USER: genes 18 Torsion [N]-C--CA-[N] |==|  0.42828
ROOT
ATOM      1  C   GLU N 233      56.277  21.602   1.322  1.00 68.48 LIG 0.24  C 
ATOM      2 O    GLU N 233      55.867  21.234   0.243  1.00 65.22 LIG-0.27  OA
ATOM      3  N   LEU N 234      56.426  22.885   1.589  1.00 77.80 LIG-0.35  N 
ATOM      4 H    LEU N 234      56.754  23.189   2.323  1.00 77.80 LIG 0.16  HD
ENDROOT
BRANCH 3 5
ATOM      5  CA  LEU N 234      56.035  23.912   0.631  1.00 75.39 LIG 0.18  C 
BRANCH 5 6
ATOM      6  C   LEU N 234      56.772  23.777  -0.679  1.00 71.67 LIG 0.24  C 
ATOM      7 O    LEU N 234      57.963  23.610  -0.703  1.00 71.06 LIG-0.27  OA
ATOM      8  N   LEU N 235      56.047  23.868  -1.771  1.00 52.85 LIG-0.35  N 
ATOM      9 H    LEU N 235      55.206  24.048  -1.775  1.00 52.85 LIG 0.16  HD
BRANCH 8 10
ATOM     10  CA  LEU N 235      56.626  23.667  -3.100  1.00 54.39 LIG 0.18  C 
BRANCH 10 11
ATOM     11  CB  LEU N 235      55.606  23.035  -4.048  1.00 50.34 LIG 0.04  C 
BRANCH 11 12
ATOM     12  CG  LEU N 235      55.528  21.508  -3.976  1.00 52.64 LIG-0.02  C 
ATOM     13  CD2 LEU N 235      54.491  21.044  -2.965  1.00 52.33 LIG 0.01  C 
ATOM     14  CD1 LEU N 235      56.893  20.933  -3.645  1.00 53.22 LIG 0.01  C 
ENDBRANCH 11 12
ENDBRANCH 10 11
BRANCH 10 15
ATOM     15  C   LEU N 235      57.146  24.983  -3.693  1.00 52.64 LIG 0.24  C 
ATOM     16 O    LEU N 235      57.081  25.202  -4.904  1.00 52.05 LIG-0.27  OA
ATOM     17  N   GLY N 236      57.642  25.854  -2.818  1.00 57.75 LIG-0.35  N 
ATOM     18 H    GLY N 236      57.662  25.705  -1.971  1.00 57.75 LIG 0.16  HD
BRANCH 17 19
ATOM     19  CA  GLY N 236      58.201  27.140  -3.189  1.00 57.52 LIG 0.23  C 
BRANCH 19 20
ATOM     20  C   GLY N 236      59.632  27.317  -2.717  1.00 60.52 LIG 0.19  C 
ATOM     21 OXT  GLY N 236      60.383  28.122  -3.268  1.00 61.85 LIG-0.65  OA
ATOM     22 O    GLY N 236      60.085  26.668  -1.776  1.00 62.19 LIG-0.65  OA
ENDBRANCH 19 20
ENDBRANCH 17 19
ENDBRANCH 10 15
ENDBRANCH 8 10
ENDBRANCH 5 6
BRANCH 5 23
ATOM     23  CB  LEU N 234      56.282  25.303   1.225  1.00 79.47 LIG 0.04  C 
BRANCH 23 24
ATOM     24  CG  LEU N 234      57.197  26.262   0.459  1.00 81.24 LIG-0.02  C 
ATOM     25  CD1 LEU N 234      56.693  27.694   0.552  1.00 81.52 LIG 0.01  C 
ATOM     26  CD2 LEU N 234      58.627  26.156   0.970  1.00 82.88 LIG 0.01  C 
ENDBRANCH 23 24
ENDBRANCH 5 23
ENDBRANCH 3 5
BRANCH 1 27
ATOM     27  CA  GLU N 233      56.642  20.589   2.411  1.00 71.40 LIG 0.18  C 
BRANCH 27 28
ATOM     28  CB  GLU N 233      55.370  20.076   3.093  1.00 70.45 LIG 0.04  C 
BRANCH 28 29
ATOM     29  CG  GLU N 233      55.372  18.592   3.405  1.00 66.32 LIG 0.12  C 
BRANCH 29 30
ATOM     30  CD  GLU N 233      56.701  17.932   3.088  1.00 63.12 LIG 0.17  C 
ATOM     31 OE1  GLU N 233      57.742  18.422   3.573  1.00 63.49 LIG-0.65  OA
ATOM     32 OE2  GLU N 233      56.706  16.924   2.350  1.00 60.69 LIG-0.65  OA
ENDBRANCH 29 30
ENDBRANCH 28 29
ENDBRANCH 27 28
BRANCH 27 33
ATOM     33  N   GLU N 233      57.568  21.185   3.378  1.00 74.02 LIG-0.35  N 
ATOM     34 H    GLU N 233      57.229  21.273   4.163  1.00 74.02 LIG 0.16  HD
ATOM     35  C   PRO N 232      58.812  21.556   3.084  1.00 90.40 LIG 0.24  C 
ATOM     36 O    PRO N 232      59.319  21.422   1.986  1.00 95.63 LIG-0.27  OA
BRANCH 35 37
ATOM     37  CA  PRO N 232      59.633  22.207   4.173  1.00 87.45 LIG 0.18  C 
ATOM     38  N   PRO N 232      59.672  23.658   4.047  1.00 90.22 LIG-0.34  N 
ATOM     39  C   ALA N 231      60.610  24.431   3.487  1.00 63.79 LIG 0.26  C 
ATOM     40  CD  PRO N 232      58.723  24.294   4.979  1.00 90.52 LIG 0.13  C 
ATOM     41 O    ALA N 231      60.487  25.637   3.298  1.00 66.65 LIG-0.27  OA
ATOM     42  CG  PRO N 232      57.990  23.120   5.584  1.00 87.66 LIG 0.02  C 
ATOM     43  CB  PRO N 232      58.964  22.004   5.531  1.00 84.55 LIG 0.04  C 
BRANCH 39 44
ATOM     44  CA  ALA N 231      61.882  23.736   3.055  1.00 62.23 LIG 0.40  C 
ATOM     45  CB  ALA N 231      62.832  23.584   4.235  1.00 54.17 LIG 0.06  C 
ATOM     46  N   ALA N 231      62.526  24.466   1.975  1.00 63.17 LIG 0.61  N 
ENDBRANCH 39 44
ENDBRANCH 35 37
ENDBRANCH 27 33
ENDBRANCH 1 27
TORSDOF 17
ENDMDL
MODEL 8
USER: ADFR SOLUTION from run 7
USER: SCORE 18.373596 LL:  -4.533 LR: -15.590 RR:   0.000 FEB: -10.519
USER: RMSD 7.115819
USER: SEED 101951
USER: STATUS no improvement in best in 4 clusters for 5 generations
USER: GENES 19
USER: genes 0 Translation |==|  0.67843 0.43585 0.49736
USER: genes 1 Rotation |==|  0.59562 0.72394 0.06420 0.47194
USER: genes 2 Torsion [C]-N--CA-[C] |==|  0.78625
USER: genes 3 Torsion [N]-CA--C-[N] |==|  0.33687
USER: genes 4 Torsion [C]-N--CA-[CB] |==|  0.17526
USER: genes 5 Torsion [N]-CA--CB-[CG] |==|  0.23680
USER: genes 6 Torsion [CA]-CB--CG-[CD1] |==|  0.41246
USER: genes 7 Torsion [N]-CA--C-[N] |==|  0.55606
USER: genes 8 Torsion [C]-N--CA-[C] |==|  0.75684
USER: genes 9 Torsion [N]-CA--C-[OXT] |==|  0.45585
USER: genes 10 Torsion [N]-CA--CB-[CG] |==|  0.56730
USER: genes 11 Torsion [CA]-CB--CG-[CD2] |==|  0.03322
USER: genes 12 Torsion [N]-C--CA-[N] |==|  0.56463
USER: genes 13 Torsion [C]-CA--CB-[CG] |==|  0.25811
USER: genes 14 Torsion [CA]-CB--CG-[CD] |==|  0.10071
USER: genes 15 Torsion [CB]-CG--CD-[OE1] |==|  0.06932
USER: genes 16 Torsion [C]-CA--N-[C] |==|  0.15917
USER: genes 17 Torsion [N]-C--CA-[N] |==|  0.03098
USER: genes 18 Torsion [N]-C--CA-[N] |==|  0.25451
ROOT
ATOM      1  C   GLU N 233      57.694  21.344   1.175  1.00 68.48 LIG 0.24  C 
ATOM      2 O    GLU N 233      58.567  22.043   0.707  1.00 65.22 LIG-0.27  OA
ATOM      3  N   LEU N 234      56.639  21.008   0.457  1.00 77.80 LIG-0.35  N 
ATOM      4 H    LEU N 234      55.977  20.552   0.761  1.00 77.80 LIG 0.16  HD
ENDROOT
BRANCH 3 5
ATOM      5  CA  LEU N 234      56.515  21.397  -0.942  1.00 75.39 LIG 0.18  C 
BRANCH 5 6
ATOM      6  C   LEU N 234      56.124  22.846  -1.096  1.00 71.67 LIG 0.24  C 
ATOM      7 O    LEU N 234      55.099  23.262  -0.626  1.00 71.06 LIG-0.27  OA
ATOM      8  N   LEU N 235      56.952  23.606  -1.777  1.00 52.85 LIG-0.35  N 
ATOM      9 H    LEU N 235      57.658  23.313  -2.172  1.00 52.85 LIG 0.16  HD
BRANCH 8 10
ATOM     10  CA  LEU N 235      56.734  25.046  -1.923  1.00 54.39 LIG 0.18  C 
BRANCH 10 11
ATOM     11  CB  LEU N 235      56.791  25.745  -0.564  1.00 50.34 LIG 0.04  C 
BRANCH 11 12
ATOM     12  CG  LEU N 235      58.199  26.128  -0.101  1.00 52.64 LIG-0.02  C 
ATOM     13  CD2 LEU N 235      58.864  25.000   0.671  1.00 52.33 LIG 0.01  C 
ATOM     14  CD1 LEU N 235      58.144  27.391   0.738  1.00 53.22 LIG 0.01  C 
ENDBRANCH 11 12
ENDBRANCH 10 11
BRANCH 10 15
ATOM     15  C   LEU N 235      57.754  25.677  -2.879  1.00 52.64 LIG 0.24  C 
ATOM     16 O    LEU N 235      58.359  24.990  -3.704  1.00 52.05 LIG-0.27  OA
ATOM     17  N   GLY N 236      57.915  26.993  -2.763  1.00 57.75 LIG-0.35  N 
ATOM     18 H    GLY N 236      57.471  27.471  -2.203  1.00 57.75 LIG 0.16  HD
BRANCH 17 19
ATOM     19  CA  GLY N 236      58.850  27.764  -3.562  1.00 57.52 LIG 0.23  C 
BRANCH 19 20
ATOM     20  C   GLY N 236      60.238  27.819  -2.951  1.00 60.52 LIG 0.19  C 
ATOM     21 OXT  GLY N 236      61.207  28.173  -3.621  1.00 61.85 LIG-0.65  OA
ATOM     22 O    GLY N 236      60.436  27.517  -1.776  1.00 62.19 LIG-0.65  OA
ENDBRANCH 19 20
ENDBRANCH 17 19
ENDBRANCH 10 15
ENDBRANCH 8 10
ENDBRANCH 5 6
BRANCH 5 23
ATOM     23  CB  LEU N 234      55.485  20.504  -1.643  1.00 79.47 LIG 0.04  C 
BRANCH 23 24
ATOM     24  CG  LEU N 234      55.591  20.337  -3.161  1.00 81.24 LIG-0.02  C 
ATOM     25  CD1 LEU N 234      54.424  21.007  -3.871  1.00 81.52 LIG 0.01  C 
ATOM     26  CD2 LEU N 234      56.919  20.884  -3.666  1.00 82.88 LIG 0.01  C 
ENDBRANCH 23 24
ENDBRANCH 5 23
ENDBRANCH 3 5
BRANCH 1 27
ATOM     27  CA  GLU N 233      57.784  20.832   2.614  1.00 71.40 LIG 0.18  C 
BRANCH 27 28
ATOM     28  CB  GLU N 233      56.382  20.737   3.224  1.00 70.45 LIG 0.04  C 
BRANCH 28 29
ATOM     29  CG  GLU N 233      55.719  19.380   3.083  1.00 66.32 LIG 0.12  C 
BRANCH 29 30
ATOM     30  CD  GLU N 233      56.706  18.234   3.208  1.00 63.12 LIG 0.17  C 
ATOM     31 OE1  GLU N 233      57.762  18.423   3.848  1.00 63.49 LIG-0.65  OA
ATOM     32 OE2  GLU N 233      56.428  17.146   2.663  1.00 60.69 LIG-0.65  OA
ENDBRANCH 29 30
ENDBRANCH 28 29
ENDBRANCH 27 28
BRANCH 27 33
ATOM     33  N   GLU N 233      58.660  21.694   3.413  1.00 74.02 LIG-0.35  N 
ATOM     34 H    GLU N 233      59.316  21.272   3.774  1.00 74.02 LIG 0.16  HD
ATOM     35  C   PRO N 232      58.470  23.002   3.574  1.00 90.40 LIG 0.24  C 
ATOM     36 O    PRO N 232      57.561  23.624   3.057  1.00 95.63 LIG-0.27  OA
BRANCH 35 37
ATOM     37  CA  PRO N 232      59.425  23.752   4.472  1.00 87.45 LIG 0.18  C 
ATOM     38  N   PRO N 232      60.588  22.954   4.835  1.00 90.22 LIG-0.34  N 
ATOM     39  C   ALA N 231      60.804  22.234   5.943  1.00 63.79 LIG 0.26  C 
ATOM     40  CD  PRO N 232      61.756  23.318   4.013  1.00 90.52 LIG 0.13  C 
ATOM     41 O    ALA N 231      61.756  21.475   6.098  1.00 66.65 LIG-0.27  OA
ATOM     42  CG  PRO N 232      61.186  24.298   3.014  1.00 87.66 LIG 0.02  C 
ATOM     43  CB  PRO N 232      60.044  24.928   3.720  1.00 84.55 LIG 0.04  C 
BRANCH 39 44
ATOM     44  CA  ALA N 231      59.781  22.378   7.047  1.00 62.23 LIG 0.40  C 
ATOM     45  CB  ALA N 231      60.450  22.274   8.410  1.00 54.17 LIG 0.06  C 
ATOM     46  N   ALA N 231      58.738  21.373   6.916  1.00 63.17 LIG 0.61  N 
ENDBRANCH 39 44
ENDBRANCH 35 37
ENDBRANCH 27 33
ENDBRANCH 1 27
TORSDOF 17
ENDMDL
MODEL 9
USER: ADFR SOLUTION from run 145
USER: SCORE 17.933089 LL:  -3.932 LR: -15.468 RR:   0.000 FEB: -10.397
USER: RMSD 4.403266
USER: SEED 144
USER: STATUS no improvement in best in 8 clusters for 5 generations
USER: GENES 19
USER: genes 0 Translation |==|  0.62679 0.46670 0.43924
USER: genes 1 Rotation |==|  0.27915 0.27184 0.85416 0.65408
USER: genes 2 Torsion [C]-N--CA-[C] |==|  0.74525
USER: genes 3 Torsion [N]-CA--C-[N] |==|  0.98848
USER: genes 4 Torsion [C]-N--CA-[CB] |==|  0.50000
USER: genes 5 Torsion [N]-CA--CB-[CG] |==|  0.15274
USER: genes 6 Torsion [CA]-CB--CG-[CD1] |==|  0.41862
USER: genes 7 Torsion [N]-CA--C-[N] |==|  0.36964
USER: genes 8 Torsion [C]-N--CA-[C] |==|  0.19442
USER: genes 9 Torsion [N]-CA--C-[OXT] |==|  0.89219
USER: genes 10 Torsion [N]-CA--CB-[CG] |==|  0.75841
USER: genes 11 Torsion [CA]-CB--CG-[CD2] |==|  0.30650
USER: genes 12 Torsion [N]-C--CA-[N] |==|  0.94606
USER: genes 13 Torsion [C]-CA--CB-[CG] |==|  0.45681
USER: genes 14 Torsion [CA]-CB--CG-[CD] |==|  0.65236
USER: genes 15 Torsion [CB]-CG--CD-[OE1] |==|  0.76977
USER: genes 16 Torsion [C]-CA--N-[C] |==|  0.58624
USER: genes 17 Torsion [N]-C--CA-[N] |==|  0.49281
USER: genes 18 Torsion [N]-C--CA-[N] |==|  0.41788
ROOT
ATOM      1  C   GLU N 233      56.649  21.923   0.085  1.00 68.48 LIG 0.24  C 
ATOM      2 O    GLU N 233      57.858  21.923   0.013  1.00 65.22 LIG-0.27  OA
ATOM      3  N   LEU N 234      55.913  22.453  -0.874  1.00 77.80 LIG-0.35  N 
ATOM      4 H    LEU N 234      55.056  22.514  -0.845  1.00 77.80 LIG 0.16  HD
ENDROOT
BRANCH 3 5
ATOM      5  CA  LEU N 234      56.517  22.989  -2.087  1.00 75.39 LIG 0.18  C 
BRANCH 5 6
ATOM      6  C   LEU N 234      56.824  24.462  -1.965  1.00 71.67 LIG 0.24  C 
ATOM      7 O    LEU N 234      57.404  25.046  -2.841  1.00 71.06 LIG-0.27  OA
ATOM      8  N   LEU N 235      56.437  25.050  -0.856  1.00 52.85 LIG-0.35  N 
ATOM      9 H    LEU N 235      56.076  24.636  -0.194  1.00 52.85 LIG 0.16  HD
BRANCH 8 10
ATOM     10  CA  LEU N 235      56.595  26.491  -0.652  1.00 54.39 LIG 0.18  C 
BRANCH 10 11
ATOM     11  CB  LEU N 235      56.064  26.907   0.721  1.00 50.34 LIG 0.04  C 
BRANCH 11 12
ATOM     12  CG  LEU N 235      56.675  26.147   1.901  1.00 52.64 LIG-0.02  C 
ATOM     13  CD2 LEU N 235      55.938  24.845   2.173  1.00 52.33 LIG 0.01  C 
ATOM     14  CD1 LEU N 235      56.682  27.026   3.137  1.00 53.22 LIG 0.01  C 
ENDBRANCH 11 12
ENDBRANCH 10 11
BRANCH 10 15
ATOM     15  C   LEU N 235      58.059  26.923  -0.799  1.00 52.64 LIG 0.24  C 
ATOM     16 O    LEU N 235      58.966  26.291  -0.254  1.00 52.05 LIG-0.27  OA
ATOM     17  N   GLY N 236      58.270  27.997  -1.557  1.00 57.75 LIG-0.35  N 
ATOM     18 H    GLY N 236      57.635  28.419  -1.955  1.00 57.75 LIG 0.16  HD
BRANCH 17 19
ATOM     19  CA  GLY N 236      59.581  28.571  -1.795  1.00 57.52 LIG 0.23  C 
BRANCH 19 20
ATOM     20  C   GLY N 236      60.456  27.693  -2.670  1.00 60.52 LIG 0.19  C 
ATOM     21 OXT  GLY N 236      60.444  26.469  -2.545  1.00 61.85 LIG-0.65  OA
ATOM     22 O    GLY N 236      61.198  28.172  -3.525  1.00 62.19 LIG-0.65  OA
ENDBRANCH 19 20
ENDBRANCH 17 19
ENDBRANCH 10 15
ENDBRANCH 8 10
ENDBRANCH 5 6
BRANCH 5 23
ATOM     23  CB  LEU N 234      55.589  22.750  -3.283  1.00 79.47 LIG 0.04  C 
BRANCH 23 24
ATOM     24  CG  LEU N 234      55.704  21.418  -4.030  1.00 81.24 LIG-0.02  C 
ATOM     25  CD1 LEU N 234      56.970  20.673  -3.633  1.00 81.52 LIG 0.01  C 
ATOM     26  CD2 LEU N 234      54.470  20.560  -3.783  1.00 82.88 LIG 0.01  C 
ENDBRANCH 23 24
ENDBRANCH 5 23
ENDBRANCH 3 5
BRANCH 1 27
ATOM     27  CA  GLU N 233      55.933  21.312   1.292  1.00 71.40 LIG 0.18  C 
BRANCH 27 28
ATOM     28  CB  GLU N 233      55.956  19.784   1.196  1.00 70.45 LIG 0.04  C 
BRANCH 28 29
ATOM     29  CG  GLU N 233      55.617  19.061   2.485  1.00 66.32 LIG 0.12  C 
BRANCH 29 30
ATOM     30  CD  GLU N 233      56.692  18.073   2.899  1.00 63.12 LIG 0.17  C 
ATOM     31 OE1  GLU N 233      56.688  16.936   2.383  1.00 63.49 LIG-0.65  OA
ATOM     32 OE2  GLU N 233      57.539  18.432   3.744  1.00 60.69 LIG-0.65  OA
ENDBRANCH 29 30
ENDBRANCH 28 29
ENDBRANCH 27 28
BRANCH 27 33
ATOM     33  N   GLU N 233      54.563  21.823   1.391  1.00 74.02 LIG-0.35  N 
ATOM     34 H    GLU N 233      54.214  22.012   0.628  1.00 74.02 LIG 0.16  HD
ATOM     35  C   PRO N 232      53.911  21.985   2.541  1.00 90.40 LIG 0.24  C 
ATOM     36 O    PRO N 232      54.377  21.706   3.630  1.00 95.63 LIG-0.27  OA
BRANCH 35 37
ATOM     37  CA  PRO N 232      52.521  22.575   2.490  1.00 87.45 LIG 0.18  C 
ATOM     38  N   PRO N 232      51.898  22.642   3.804  1.00 90.22 LIG-0.34  N 
ATOM     39  C   ALA N 231      51.038  21.789   4.375  1.00 63.79 LIG 0.26  C 
ATOM     40  CD  PRO N 232      51.987  24.004   4.362  1.00 90.52 LIG 0.13  C 
ATOM     41 O    ALA N 231      50.678  21.854   5.546  1.00 66.65 LIG-0.27  OA
ATOM     42  CG  PRO N 232      52.844  24.736   3.355  1.00 87.66 LIG 0.02  C 
ATOM     43  CB  PRO N 232      52.585  24.042   2.070  1.00 84.55 LIG 0.04  C 
BRANCH 39 44
ATOM     44  CA  ALA N 231      50.512  20.678   3.494  1.00 62.23 LIG 0.40  C 
ATOM     45  CB  ALA N 231      49.281  21.144   2.729  1.00 54.17 LIG 0.06  C 
ATOM     46  N   ALA N 231      50.201  19.498   4.286  1.00 63.17 LIG 0.61  N 
ENDBRANCH 39 44
ENDBRANCH 35 37
ENDBRANCH 27 33
ENDBRANCH 1 27
TORSDOF 17
ENDMDL
MODEL 10
USER: ADFR SOLUTION from run 168
USER: SCORE 17.909141 LL:  -3.851 LR: -15.474 RR:   0.000 FEB: -10.403
USER: RMSD 2.395990
USER: SEED 167
USER: STATUS no improvement in best in 8 clusters for 5 generations
USER: GENES 19
USER: genes 0 Translation |==|  0.53882 0.50608 0.53930
USER: genes 1 Rotation |==|  0.54743 0.56929 0.52724 0.99215
USER: genes 2 Torsion [C]-N--CA-[C] |==|  0.75194
USER: genes 3 Torsion [N]-CA--C-[N] |==|  0.32778
USER: genes 4 Torsion [C]-N--CA-[CB] |==|  0.41574
USER: genes 5 Torsion [N]-CA--CB-[CG] |==|  0.70693
USER: genes 6 Torsion [CA]-CB--CG-[CD1] |==|  0.91357
USER: genes 7 Torsion [N]-CA--C-[N] |==|  0.90257
USER: genes 8 Torsion [C]-N--CA-[C] |==|  0.82431
USER: genes 9 Torsion [N]-CA--C-[OXT] |==|  0.92638
USER: genes 10 Torsion [N]-CA--CB-[CG] |==|  0.55930
USER: genes 11 Torsion [CA]-CB--CG-[CD2] |==|  0.00178
USER: genes 12 Torsion [N]-C--CA-[N] |==|  0.36369
USER: genes 13 Torsion [C]-CA--CB-[CG] |==|  0.45471
USER: genes 14 Torsion [CA]-CB--CG-[CD] |==|  0.63068
USER: genes 15 Torsion [CB]-CG--CD-[OE1] |==|  0.69818
USER: genes 16 Torsion [C]-CA--N-[C] |==|  0.86376
USER: genes 17 Torsion [N]-C--CA-[N] |==|  0.94944
USER: genes 18 Torsion [N]-C--CA-[N] |==|  0.46720
ROOT
ATOM      1  C   GLU N 233      54.867  22.661   1.961  1.00 68.48 LIG 0.24  C 
ATOM      2 O    GLU N 233      54.089  22.812   1.044  1.00 65.22 LIG-0.27  OA
ATOM      3  N   LEU N 234      55.927  23.437   2.084  1.00 77.80 LIG-0.35  N 
ATOM      4 H    LEU N 234      56.527  23.339   2.691  1.00 77.80 LIG 0.16  HD
ENDROOT
BRANCH 3 5
ATOM      5  CA  LEU N 234      56.165  24.550   1.173  1.00 75.39 LIG 0.18  C 
BRANCH 5 6
ATOM      6  C   LEU N 234      56.963  24.132  -0.038  1.00 71.67 LIG 0.24  C 
ATOM      7 O    LEU N 234      58.085  23.717   0.076  1.00 71.06 LIG-0.27  OA
ATOM      8  N   LEU N 235      56.370  24.264  -1.203  1.00 52.85 LIG-0.35  N 
ATOM      9 H    LEU N 235      55.592  24.615  -1.308  1.00 52.85 LIG 0.16  HD
BRANCH 8 10
ATOM     10  CA  LEU N 235      57.001  23.813  -2.444  1.00 54.39 LIG 0.18  C 
BRANCH 10 11
ATOM     11  CB  LEU N 235      55.947  23.376  -3.463  1.00 50.34 LIG 0.04  C 
BRANCH 11 12
ATOM     12  CG  LEU N 235      55.828  21.862  -3.651  1.00 52.64 LIG-0.02  C 
ATOM     13  CD2 LEU N 235      54.776  21.261  -2.732  1.00 52.33 LIG 0.01  C 
ATOM     14  CD1 LEU N 235      57.176  21.203  -3.423  1.00 53.22 LIG 0.01  C 
ENDBRANCH 11 12
ENDBRANCH 10 11
BRANCH 10 15
ATOM     15  C   LEU N 235      57.894  24.902  -3.050  1.00 52.64 LIG 0.24  C 
ATOM     16 O    LEU N 235      58.930  24.612  -3.651  1.00 52.05 LIG-0.27  OA
ATOM     17  N   GLY N 236      57.464  26.153  -2.896  1.00 57.75 LIG-0.35  N 
ATOM     18 H    GLY N 236      56.727  26.347  -2.498  1.00 57.75 LIG 0.16  HD
BRANCH 17 19
ATOM     19  CA  GLY N 236      58.182  27.317  -3.379  1.00 57.52 LIG 0.23  C 
BRANCH 19 20
ATOM     20  C   GLY N 236      59.534  27.491  -2.713  1.00 60.52 LIG 0.19  C 
ATOM     21 OXT  GLY N 236      59.742  27.047  -1.584  1.00 61.85 LIG-0.65  OA
ATOM     22 O    GLY N 236      60.459  28.073  -3.276  1.00 62.19 LIG-0.65  OA
ENDBRANCH 19 20
ENDBRANCH 17 19
ENDBRANCH 10 15
ENDBRANCH 8 10
ENDBRANCH 5 6
BRANCH 5 23
ATOM     23  CB  LEU N 234      56.891  25.681   1.909  1.00 79.47 LIG 0.04  C 
BRANCH 23 24
ATOM     24  CG  LEU N 234      56.803  27.094   1.326  1.00 81.24 LIG-0.02  C 
ATOM     25  CD1 LEU N 234      58.186  27.660   1.043  1.00 81.52 LIG 0.01  C 
ATOM     26  CD2 LEU N 234      55.947  27.098   0.066  1.00 82.88 LIG 0.01  C 
ENDBRANCH 23 24
ENDBRANCH 5 23
ENDBRANCH 3 5
BRANCH 1 27
ATOM     27  CA  GLU N 233      54.650  21.562   3.003  1.00 71.40 LIG 0.18  C 
BRANCH 27 28
ATOM     28  CB  GLU N 233      54.990  20.195   2.401  1.00 70.45 LIG 0.04  C 
BRANCH 28 29
ATOM     29  CG  GLU N 233      55.192  19.086   3.416  1.00 66.32 LIG 0.12  C 
BRANCH 29 30
ATOM     30  CD  GLU N 233      56.443  18.271   3.148  1.00 63.12 LIG 0.17  C 
ATOM     31 OE1  GLU N 233      56.315  17.104   2.724  1.00 63.49 LIG-0.65  OA
ATOM     32 OE2  GLU N 233      57.555  18.796   3.365  1.00 60.69 LIG-0.65  OA
ENDBRANCH 29 30
ENDBRANCH 28 29
ENDBRANCH 27 28
BRANCH 27 33
ATOM     33  N   GLU N 233      53.275  21.597   3.510  1.00 74.02 LIG-0.35  N 
ATOM     34 H    GLU N 233      52.891  20.829   3.506  1.00 74.02 LIG 0.16  HD
ATOM     35  C   PRO N 232      52.669  22.703   3.938  1.00 90.40 LIG 0.24  C 
ATOM     36 O    PRO N 232      53.200  23.798   3.972  1.00 95.63 LIG-0.27  OA
BRANCH 35 37
ATOM     37  CA  PRO N 232      51.229  22.596   4.382  1.00 87.45 LIG 0.18  C 
ATOM     38  N   PRO N 232      50.584  21.387   3.887  1.00 90.22 LIG-0.34  N 
ATOM     39  C   ALA N 231      49.805  21.228   2.811  1.00 63.79 LIG 0.26  C 
ATOM     40  CD  PRO N 232      50.532  20.350   4.933  1.00 90.52 LIG 0.13  C 
ATOM     41 O    ALA N 231      49.423  20.140   2.390  1.00 66.65 LIG-0.27  OA
ATOM     42  CG  PRO N 232      51.327  20.958   6.065  1.00 87.66 LIG 0.02  C 
ATOM     43  CB  PRO N 232      51.156  22.422   5.897  1.00 84.55 LIG 0.04  C 
BRANCH 39 44
ATOM     44  CA  ALA N 231      49.401  22.490   2.081  1.00 62.23 LIG 0.40  C 
ATOM     45  CB  ALA N 231      48.439  23.310   2.930  1.00 54.17 LIG 0.06  C 
ATOM     46  N   ALA N 231      48.801  22.172   0.796  1.00 63.17 LIG 0.61  N 
ENDBRANCH 39 44
ENDBRANCH 35 37
ENDBRANCH 27 33
ENDBRANCH 1 27
TORSDOF 17
ENDMDL
MODEL 11
USER: ADFR SOLUTION from run 150
USER: SCORE 17.242276 LL:  -3.784 LR: -15.461 RR:   0.000 FEB: -10.390
USER: RMSD 1.694519
USER: SEED 149
USER: STATUS no improvement in best in 7 clusters for 5 generations
USER: GENES 19
USER: genes 0 Translation |==|  0.55963 0.50008 0.49955
USER: genes 1 Rotation |==|  0.50405 0.47081 0.63317 0.98104
USER: genes 2 Torsion [C]-N--CA-[C] |==|  0.83208
USER: genes 3 Torsion [N]-CA--C-[N] |==|  0.33333
USER: genes 4 Torsion [C]-N--CA-[CB] |==|  0.36498
USER: genes 5 Torsion [N]-CA--CB-[CG] |==|  0.81909
USER: genes 6 Torsion [CA]-CB--CG-[CD1] |==|  0.48174
USER: genes 7 Torsion [N]-CA--C-[N] |==|  0.15941
USER: genes 8 Torsion [C]-N--CA-[C] |==|  0.57963
USER: genes 9 Torsion [N]-CA--C-[OXT] |==|  0.87390
USER: genes 10 Torsion [N]-CA--CB-[CG] |==|  0.44158
USER: genes 11 Torsion [CA]-CB--CG-[CD2] |==|  0.68452
USER: genes 12 Torsion [N]-C--CA-[N] |==|  0.32410
USER: genes 13 Torsion [C]-CA--CB-[CG] |==|  0.52942
USER: genes 14 Torsion [CA]-CB--CG-[CD] |==|  0.59188
USER: genes 15 Torsion [CB]-CG--CD-[OE1] |==|  0.17581
USER: genes 16 Torsion [C]-CA--N-[C] |==|  0.72629
USER: genes 17 Torsion [N]-C--CA-[N] |==|  0.40388
USER: genes 18 Torsion [N]-C--CA-[N] |==|  0.38430
ROOT
ATOM      1  C   GLU N 233      55.289  22.549   1.216  1.00 68.48 LIG 0.24  C 
ATOM      2 O    GLU N 233      54.985  22.375   0.056  1.00 65.22 LIG-0.27  OA
ATOM      3  N   LEU N 234      55.823  23.688   1.612  1.00 77.80 LIG-0.35  N 
ATOM      4 H    LEU N 234      56.093  23.839   2.414  1.00 77.80 LIG 0.16  HD
ENDROOT
BRANCH 3 5
ATOM      5  CA  LEU N 234      55.999  24.806   0.694  1.00 75.39 LIG 0.18  C 
BRANCH 5 6
ATOM      6  C   LEU N 234      56.896  24.451  -0.467  1.00 71.67 LIG 0.24  C 
ATOM      7 O    LEU N 234      58.036  24.115  -0.285  1.00 71.06 LIG-0.27  OA
ATOM      8  N   LEU N 235      56.367  24.548  -1.666  1.00 52.85 LIG-0.35  N 
ATOM      9 H    LEU N 235      55.575  24.845  -1.818  1.00 52.85 LIG 0.16  HD
BRANCH 8 10
ATOM     10  CA  LEU N 235      57.102  24.149  -2.867  1.00 54.39 LIG 0.18  C 
BRANCH 10 11
ATOM     11  CB  LEU N 235      56.244  23.247  -3.755  1.00 50.34 LIG 0.04  C 
BRANCH 11 12
ATOM     12  CG  LEU N 235      55.885  21.894  -3.136  1.00 52.64 LIG-0.02  C 
ATOM     13  CD2 LEU N 235      57.121  21.046  -2.881  1.00 52.33 LIG 0.01  C 
ATOM     14  CD1 LEU N 235      54.906  21.156  -4.031  1.00 53.22 LIG 0.01  C 
ENDBRANCH 11 12
ENDBRANCH 10 11
BRANCH 10 15
ATOM     15  C   LEU N 235      57.580  25.367  -3.666  1.00 52.64 LIG 0.24  C 
ATOM     16 O    LEU N 235      57.242  25.529  -4.840  1.00 52.05 LIG-0.27  OA
ATOM     17  N   GLY N 236      58.353  26.225  -3.003  1.00 57.75 LIG-0.35  N 
ATOM     18 H    GLY N 236      58.565  26.119  -2.176  1.00 57.75 LIG 0.16  HD
BRANCH 17 19
ATOM     19  CA  GLY N 236      58.921  27.422  -3.594  1.00 57.52 LIG 0.23  C 
BRANCH 19 20
ATOM     20  C   GLY N 236      60.230  27.832  -2.947  1.00 60.52 LIG 0.19  C 
ATOM     21 OXT  GLY N 236      60.351  27.846  -1.723  1.00 61.85 LIG-0.65  OA
ATOM     22 O    GLY N 236      61.206  28.159  -3.620  1.00 62.19 LIG-0.65  OA
ENDBRANCH 19 20
ENDBRANCH 17 19
ENDBRANCH 10 15
ENDBRANCH 8 10
ENDBRANCH 5 6
BRANCH 5 23
ATOM     23  CB  LEU N 234      56.574  26.013   1.444  1.00 79.47 LIG 0.04  C 
BRANCH 23 24
ATOM     24  CG  LEU N 234      57.284  27.097   0.630  1.00 81.24 LIG-0.02  C 
ATOM     25  CD1 LEU N 234      56.643  28.458   0.849  1.00 81.52 LIG 0.01  C 
ATOM     26  CD2 LEU N 234      58.767  27.135   0.973  1.00 82.88 LIG 0.01  C 
ENDBRANCH 23 24
ENDBRANCH 5 23
ENDBRANCH 3 5
BRANCH 1 27
ATOM     27  CA  GLU N 233      55.068  21.450   2.259  1.00 71.40 LIG 0.18  C 
BRANCH 27 28
ATOM     28  CB  GLU N 233      55.859  20.197   1.874  1.00 70.45 LIG 0.04  C 
BRANCH 28 29
ATOM     29  CG  GLU N 233      55.527  18.961   2.688  1.00 66.32 LIG 0.12  C 
BRANCH 29 30
ATOM     30  CD  GLU N 233      56.728  18.057   2.891  1.00 63.12 LIG 0.17  C 
ATOM     31 OE1  GLU N 233      57.704  18.496   3.535  1.00 63.49 LIG-0.65  OA
ATOM     32 OE2  GLU N 233      56.699  16.908   2.403  1.00 60.69 LIG-0.65  OA
ENDBRANCH 29 30
ENDBRANCH 28 29
ENDBRANCH 27 28
BRANCH 27 33
ATOM     33  N   GLU N 233      53.639  21.159   2.405  1.00 74.02 LIG-0.35  N 
ATOM     34 H    GLU N 233      53.336  20.631   1.798  1.00 74.02 LIG 0.16  HD
ATOM     35  C   PRO N 232      52.874  21.657   3.375  1.00 90.40 LIG 0.24  C 
ATOM     36 O    PRO N 232      53.286  22.389   4.255  1.00 95.63 LIG-0.27  OA
BRANCH 35 37
ATOM     37  CA  PRO N 232      51.404  21.311   3.365  1.00 87.45 LIG 0.18  C 
ATOM     38  N   PRO N 232      50.857  21.170   4.708  1.00 90.22 LIG-0.34  N 
ATOM     39  C   ALA N 231      50.664  20.058   5.427  1.00 63.79 LIG 0.26  C 
ATOM     40  CD  PRO N 232      50.127  22.386   5.111  1.00 90.52 LIG 0.13  C 
ATOM     41 O    ALA N 231      50.332  20.050   6.609  1.00 66.65 LIG-0.27  OA
ATOM     42  CG  PRO N 232      50.391  23.343   3.972  1.00 87.66 LIG 0.02  C 
ATOM     43  CB  PRO N 232      50.593  22.470   2.790  1.00 84.55 LIG 0.04  C 
BRANCH 39 44
ATOM     44  CA  ALA N 231      50.894  18.746   4.710  1.00 62.23 LIG 0.40  C 
ATOM     45  CB  ALA N 231      49.570  18.153   4.248  1.00 54.17 LIG 0.06  C 
ATOM     46  N   ALA N 231      51.599  17.808   5.568  1.00 63.17 LIG 0.61  N 
ENDBRANCH 39 44
ENDBRANCH 35 37
ENDBRANCH 27 33
ENDBRANCH 1 27
TORSDOF 17
ENDMDL
MODEL 12
USER: ADFR SOLUTION from run 1
USER: SCORE 18.441896 LL:  -3.987 LR: -15.431 RR:   0.000 FEB: -10.360
USER: RMSD 4.762498
USER: SEED 690425
USER: STATUS no improvement in best in 2 clusters for 5 generations
USER: GENES 19
USER: genes 0 Translation |==|  0.65172 0.43235 0.56539
USER: genes 1 Rotation |==|  0.28851 0.32976 0.87657 0.68570
USER: genes 2 Torsion [C]-N--CA-[C] |==|  0.74839
USER: genes 3 Torsion [N]-CA--C-[N] |==|  0.73889
USER: genes 4 Torsion [C]-N--CA-[CB] |==|  0.82745
USER: genes 5 Torsion [N]-CA--CB-[CG] |==|  0.62072
USER: genes 6 Torsion [CA]-CB--CG-[CD1] |==|  0.43819
USER: genes 7 Torsion [N]-CA--C-[N] |==|  0.44995
USER: genes 8 Torsion [C]-N--CA-[C] |==|  0.71106
USER: genes 9 Torsion [N]-CA--C-[OXT] |==|  0.47175
USER: genes 10 Torsion [N]-CA--CB-[CG] |==|  0.65192
USER: genes 11 Torsion [CA]-CB--CG-[CD2] |==|  0.87765
USER: genes 12 Torsion [N]-C--CA-[N] |==|  0.02035
USER: genes 13 Torsion [C]-CA--CB-[CG] |==|  0.73410
USER: genes 14 Torsion [CA]-CB--CG-[CD] |==|  0.27397
USER: genes 15 Torsion [CB]-CG--CD-[OE1] |==|  0.78751
USER: genes 16 Torsion [C]-CA--N-[C] |==|  0.75917
USER: genes 17 Torsion [N]-C--CA-[N] |==|  0.61435
USER: genes 18 Torsion [N]-C--CA-[N] |==|  0.40983
ROOT
ATOM      1  C   GLU N 233      57.153  21.278   2.450  1.00 68.48 LIG 0.24  C 
ATOM      2 O    GLU N 233      58.312  21.078   2.159  1.00 65.22 LIG-0.27  OA
ATOM      3  N   LEU N 234      56.315  21.798   1.573  1.00 77.80 LIG-0.35  N 
ATOM      4 H    LEU N 234      55.498  21.997   1.749  1.00 77.80 LIG 0.16  HD
ENDROOT
BRANCH 3 5
ATOM      5  CA  LEU N 234      56.725  22.080   0.203  1.00 75.39 LIG 0.18  C 
BRANCH 5 6
ATOM      6  C   LEU N 234      57.268  23.479   0.050  1.00 71.67 LIG 0.24  C 
ATOM      7 O    LEU N 234      58.422  23.723   0.283  1.00 71.06 LIG-0.27  OA
ATOM      8  N   LEU N 235      56.411  24.400  -0.332  1.00 52.85 LIG-0.35  N 
ATOM      9 H    LEU N 235      55.571  24.256  -0.444  1.00 52.85 LIG 0.16  HD
BRANCH 8 10
ATOM     10  CA  LEU N 235      56.829  25.776  -0.604  1.00 54.39 LIG 0.18  C 
BRANCH 10 11
ATOM     11  CB  LEU N 235      57.402  26.429   0.655  1.00 50.34 LIG 0.04  C 
BRANCH 11 12
ATOM     12  CG  LEU N 235      56.933  27.865   0.901  1.00 52.64 LIG-0.02  C 
ATOM     13  CD2 LEU N 235      57.684  28.860   0.030  1.00 52.33 LIG 0.01  C 
ATOM     14  CD1 LEU N 235      57.085  28.217   2.369  1.00 53.22 LIG 0.01  C 
ENDBRANCH 11 12
ENDBRANCH 10 11
BRANCH 10 15
ATOM     15  C   LEU N 235      57.858  25.839  -1.739  1.00 52.64 LIG 0.24  C 
ATOM     16 O    LEU N 235      58.472  24.832  -2.096  1.00 52.05 LIG-0.27  OA
ATOM     17  N   GLY N 236      58.018  27.033  -2.307  1.00 57.75 LIG-0.35  N 
ATOM     18 H    GLY N 236      57.569  27.727  -2.070  1.00 57.75 LIG 0.16  HD
BRANCH 17 19
ATOM     19  CA  GLY N 236      58.960  27.296  -3.379  1.00 57.52 LIG 0.23  C 
BRANCH 19 20
ATOM     20  C   GLY N 236      60.198  28.034  -2.904  1.00 60.52 LIG 0.19  C 
ATOM     21 OXT  GLY N 236      61.173  28.169  -3.643  1.00 61.85 LIG-0.65  OA
ATOM     22 O    GLY N 236      60.267  28.518  -1.776  1.00 62.19 LIG-0.65  OA
ENDBRANCH 19 20
ENDBRANCH 17 19
ENDBRANCH 10 15
ENDBRANCH 8 10
ENDBRANCH 5 6
BRANCH 5 23
ATOM     23  CB  LEU N 234      55.542  21.874  -0.749  1.00 79.47 LIG 0.04  C 
BRANCH 23 24
ATOM     24  CG  LEU N 234      55.726  20.921  -1.932  1.00 81.24 LIG-0.02  C 
ATOM     25  CD1 LEU N 234      54.590  21.061  -2.934  1.00 81.52 LIG 0.01  C 
ATOM     26  CD2 LEU N 234      57.073  21.158  -2.604  1.00 82.88 LIG 0.01  C 
ENDBRANCH 23 24
ENDBRANCH 5 23
ENDBRANCH 3 5
BRANCH 1 27
ATOM     27  CA  GLU N 233      56.624  20.941   3.846  1.00 71.40 LIG 0.18  C 
BRANCH 27 28
ATOM     28  CB  GLU N 233      57.034  19.517   4.231  1.00 70.45 LIG 0.04  C 
BRANCH 28 29
ATOM     29  CG  GLU N 233      55.984  18.458   3.956  1.00 66.32 LIG 0.12  C 
BRANCH 29 30
ATOM     30  CD  GLU N 233      56.235  17.712   2.659  1.00 63.12 LIG 0.17  C 
ATOM     31 OE1  GLU N 233      55.956  18.278   1.581  1.00 63.49 LIG-0.65  OA
ATOM     32 OE2  GLU N 233      56.707  16.557   2.716  1.00 60.69 LIG-0.65  OA
ENDBRANCH 29 30
ENDBRANCH 28 29
ENDBRANCH 27 28
BRANCH 27 33
ATOM     33  N   GLU N 233      55.169  21.115   3.901  1.00 74.02 LIG-0.35  N 
ATOM     34 H    GLU N 233      54.735  20.391   3.738  1.00 74.02 LIG 0.16  HD
ATOM     35  C   PRO N 232      54.568  22.271   4.173  1.00 90.40 LIG 0.24  C 
ATOM     36 O    PRO N 232      55.163  23.302   4.425  1.00 95.63 LIG-0.27  OA
BRANCH 35 37
ATOM     37  CA  PRO N 232      53.058  22.310   4.139  1.00 87.45 LIG 0.18  C 
ATOM     38  N   PRO N 232      52.547  23.521   3.514  1.00 90.22 LIG-0.34  N 
ATOM     39  C   ALA N 231      52.125  24.653   4.090  1.00 63.79 LIG 0.26  C 
ATOM     40  CD  PRO N 232      52.140  23.265   2.120  1.00 90.52 LIG 0.13  C 
ATOM     41 O    ALA N 231      51.847  25.678   3.474  1.00 66.65 LIG-0.27  OA
ATOM     42  CG  PRO N 232      52.578  21.838   1.888  1.00 87.66 LIG 0.02  C 
ATOM     43  CB  PRO N 232      52.522  21.207   3.228  1.00 84.55 LIG 0.04  C 
BRANCH 39 44
ATOM     44  CA  ALA N 231      52.010  24.637   5.598  1.00 62.23 LIG 0.40  C 
ATOM     45  CB  ALA N 231      50.622  24.178   6.021  1.00 54.17 LIG 0.06  C 
ATOM     46  N   ALA N 231      52.301  25.951   6.150  1.00 63.17 LIG 0.61  N 
ENDBRANCH 39 44
ENDBRANCH 35 37
ENDBRANCH 27 33
ENDBRANCH 1 27
TORSDOF 17
ENDMDL
MODEL 13
USER: ADFR SOLUTION from run 50
USER: SCORE 18.627096 LL:  -4.159 LR: -15.417 RR:   0.000 FEB: -10.346
USER: RMSD 6.267564
USER: SEED 49
USER: STATUS no improvement in best in 3 clusters for 5 generations
USER: GENES 19
USER: genes 0 Translation |==|  0.59477 0.43952 0.48467
USER: genes 1 Rotation |==|  0.52274 0.79509 0.25127 0.81708
USER: genes 2 Torsion [C]-N--CA-[C] |==|  0.15708
USER: genes 3 Torsion [N]-CA--C-[N] |==|  0.66104
USER: genes 4 Torsion [C]-N--CA-[CB] |==|  0.80532
USER: genes 5 Torsion [N]-CA--CB-[CG] |==|  0.28417
USER: genes 6 Torsion [CA]-CB--CG-[CD1] |==|  0.36375
USER: genes 7 Torsion [N]-CA--C-[N] |==|  0.48881
USER: genes 8 Torsion [C]-N--CA-[C] |==|  0.70003
USER: genes 9 Torsion [N]-CA--C-[OXT] |==|  0.50053
USER: genes 10 Torsion [N]-CA--CB-[CG] |==|  0.62191
USER: genes 11 Torsion [CA]-CB--CG-[CD2] |==|  0.21362
USER: genes 12 Torsion [N]-C--CA-[N] |==|  0.35853
USER: genes 13 Torsion [C]-CA--CB-[CG] |==|  0.40600
USER: genes 14 Torsion [CA]-CB--CG-[CD] |==|  0.94913
USER: genes 15 Torsion [CB]-CG--CD-[OE1] |==|  0.68717
USER: genes 16 Torsion [C]-CA--N-[C] |==|  0.74328
USER: genes 17 Torsion [N]-C--CA-[N] |==|  0.03088
USER: genes 18 Torsion [N]-C--CA-[N] |==|  0.28506
ROOT
ATOM      1  C   GLU N 233      56.000  21.413   0.937  1.00 68.48 LIG 0.24  C 
ATOM      2 O    GLU N 233      55.328  22.421   0.974  1.00 65.22 LIG-0.27  OA
ATOM      3  N   LEU N 234      56.469  20.954  -0.208  1.00 77.80 LIG-0.35  N 
ATOM      4 H    LEU N 234      56.911  20.221  -0.287  1.00 77.80 LIG 0.16  HD
ENDROOT
BRANCH 3 5
ATOM      5  CA  LEU N 234      56.264  21.675  -1.458  1.00 75.39 LIG 0.18  C 
BRANCH 5 6
ATOM      6  C   LEU N 234      56.793  23.087  -1.392  1.00 71.67 LIG 0.24  C 
ATOM      7 O    LEU N 234      57.944  23.303  -1.123  1.00 71.06 LIG-0.27  OA
ATOM      8  N   LEU N 235      55.927  24.047  -1.627  1.00 52.85 LIG-0.35  N 
ATOM      9 H    LEU N 235      55.088  23.915  -1.761  1.00 52.85 LIG 0.16  HD
BRANCH 8 10
ATOM     10  CA  LEU N 235      56.331  25.453  -1.681  1.00 54.39 LIG 0.18  C 
BRANCH 10 11
ATOM     11  CB  LEU N 235      56.713  25.963  -0.290  1.00 50.34 LIG 0.04  C 
BRANCH 11 12
ATOM     12  CG  LEU N 235      58.219  26.065  -0.038  1.00 52.64 LIG-0.02  C 
ATOM     13  CD2 LEU N 235      58.713  24.954   0.876  1.00 52.33 LIG 0.01  C 
ATOM     14  CD1 LEU N 235      58.557  27.425   0.543  1.00 53.22 LIG 0.01  C 
ENDBRANCH 11 12
ENDBRANCH 10 11
BRANCH 10 15
ATOM     15  C   LEU N 235      57.497  25.667  -2.654  1.00 52.64 LIG 0.24  C 
ATOM     16 O    LEU N 235      58.021  24.716  -3.237  1.00 52.05 LIG-0.27  OA
ATOM     17  N   GLY N 236      57.876  26.931  -2.830  1.00 57.75 LIG-0.35  N 
ATOM     18 H    GLY N 236      57.490  27.593  -2.439  1.00 57.75 LIG 0.16  HD
BRANCH 17 19
ATOM     19  CA  GLY N 236      58.973  27.331  -3.691  1.00 57.52 LIG 0.23  C 
BRANCH 19 20
ATOM     20  C   GLY N 236      60.191  27.796  -2.914  1.00 60.52 LIG 0.19  C 
ATOM     21 OXT  GLY N 236      61.206  28.172  -3.499  1.00 61.85 LIG-0.65  OA
ATOM     22 O    GLY N 236      60.202  27.813  -1.685  1.00 62.19 LIG-0.65  OA
ENDBRANCH 19 20
ENDBRANCH 17 19
ENDBRANCH 10 15
ENDBRANCH 8 10
ENDBRANCH 5 6
BRANCH 5 23
ATOM     23  CB  LEU N 234      54.773  21.695  -1.812  1.00 79.47 LIG 0.04  C 
BRANCH 23 24
ATOM     24  CG  LEU N 234      54.372  21.414  -3.262  1.00 81.24 LIG-0.02  C 
ATOM     25  CD1 LEU N 234      55.231  22.209  -4.234  1.00 81.52 LIG 0.01  C 
ATOM     26  CD2 LEU N 234      54.458  19.922  -3.559  1.00 82.88 LIG 0.01  C 
ENDBRANCH 23 24
ENDBRANCH 5 23
ENDBRANCH 3 5
BRANCH 1 27
ATOM     27  CA  GLU N 233      56.323  20.636   2.215  1.00 71.40 LIG 0.18  C 
BRANCH 27 28
ATOM     28  CB  GLU N 233      55.071  19.909   2.716  1.00 70.45 LIG 0.04  C 
BRANCH 28 29
ATOM     29  CG  GLU N 233      55.337  18.574   3.383  1.00 66.32 LIG 0.12  C 
BRANCH 29 30
ATOM     30  CD  GLU N 233      56.705  18.013   3.042  1.00 63.12 LIG 0.17  C 
ATOM     31 OE1  GLU N 233      56.769  16.977   2.349  1.00 63.49 LIG-0.65  OA
ATOM     32 OE2  GLU N 233      57.716  18.607   3.470  1.00 60.69 LIG-0.65  OA
ENDBRANCH 29 30
ENDBRANCH 28 29
ENDBRANCH 27 28
BRANCH 27 33
ATOM     33  N   GLU N 233      56.869  21.532   3.238  1.00 74.02 LIG-0.35  N 
ATOM     34 H    GLU N 233      56.264  21.904   3.722  1.00 74.02 LIG 0.16  HD
ATOM     35  C   PRO N 232      58.170  21.757   3.411  1.00 90.40 LIG 0.24  C 
ATOM     36 O    PRO N 232      59.044  21.227   2.751  1.00 95.63 LIG-0.27  OA
BRANCH 35 37
ATOM     37  CA  PRO N 232      58.582  22.751   4.472  1.00 87.45 LIG 0.18  C 
ATOM     38  N   PRO N 232      57.473  23.133   5.336  1.00 90.22 LIG-0.34  N 
ATOM     39  C   ALA N 231      56.679  24.207   5.263  1.00 63.79 LIG 0.26  C 
ATOM     40  CD  PRO N 232      57.524  22.400   6.615  1.00 90.52 LIG 0.13  C 
ATOM     41 O    ALA N 231      55.676  24.371   5.950  1.00 66.65 LIG-0.27  OA
ATOM     42  CG  PRO N 232      58.664  21.429   6.414  1.00 87.66 LIG 0.02  C 
ATOM     43  CB  PRO N 232      59.564  22.104   5.448  1.00 84.55 LIG 0.04  C 
BRANCH 39 44
ATOM     44  CA  ALA N 231      57.063  25.258   4.245  1.00 62.23 LIG 0.40  C 
ATOM     45  CB  ALA N 231      56.976  26.649   4.857  1.00 54.17 LIG 0.06  C 
ATOM     46  N   ALA N 231      56.216  25.167   3.066  1.00 63.17 LIG 0.61  N 
ENDBRANCH 39 44
ENDBRANCH 35 37
ENDBRANCH 27 33
ENDBRANCH 1 27
TORSDOF 17
ENDMDL
MODEL 14
USER: ADFR SOLUTION from run 51
USER: SCORE 18.428829 LL:  -4.881 LR: -15.336 RR:   0.000 FEB: -10.265
USER: RMSD 9.233293
USER: SEED 50
USER: STATUS no improvement in best in 4 clusters for 5 generations
USER: GENES 19
USER: genes 0 Translation |==|  0.62759 0.59646 0.28506
USER: genes 1 Rotation |==|  0.46102 0.30245 0.04596 0.55748
USER: genes 2 Torsion [C]-N--CA-[C] |==|  0.46934
USER: genes 3 Torsion [N]-CA--C-[N] |==|  0.94128
USER: genes 4 Torsion [C]-N--CA-[CB] |==|  0.86478
USER: genes 5 Torsion [N]-CA--CB-[CG] |==|  0.55686
USER: genes 6 Torsion [CA]-CB--CG-[CD1] |==|  0.15253
USER: genes 7 Torsion [N]-CA--C-[N] |==|  0.85796
USER: genes 8 Torsion [C]-N--CA-[C] |==|  0.83867
USER: genes 9 Torsion [N]-CA--C-[OXT] |==|  0.42799
USER: genes 10 Torsion [N]-CA--CB-[CG] |==|  0.64321
USER: genes 11 Torsion [CA]-CB--CG-[CD2] |==|  0.31627
USER: genes 12 Torsion [N]-C--CA-[N] |==|  0.10153
USER: genes 13 Torsion [C]-CA--CB-[CG] |==|  0.48957
USER: genes 14 Torsion [CA]-CB--CG-[CD] |==|  0.30200
USER: genes 15 Torsion [CB]-CG--CD-[OE1] |==|  0.84616
USER: genes 16 Torsion [C]-CA--N-[C] |==|  0.14447
USER: genes 17 Torsion [N]-C--CA-[N] |==|  0.07671
USER: genes 18 Torsion [N]-C--CA-[N] |==|  0.22601
ROOT
ATOM      1  C   GLU N 233      56.665  24.356  -2.806  1.00 68.48 LIG 0.24  C 
ATOM      2 O    GLU N 233      57.079  23.593  -3.652  1.00 65.22 LIG-0.27  OA
ATOM      3  N   LEU N 234      55.825  23.943  -1.875  1.00 77.80 LIG-0.35  N 
ATOM      4 H    LEU N 234      55.472  24.458  -1.284  1.00 77.80 LIG 0.16  HD
ENDROOT
BRANCH 3 5
ATOM      5  CA  LEU N 234      55.423  22.546  -1.779  1.00 75.39 LIG 0.18  C 
BRANCH 5 6
ATOM      6  C   LEU N 234      54.680  22.256  -0.497  1.00 71.67 LIG 0.24  C 
ATOM      7 O    LEU N 234      53.950  21.305  -0.409  1.00 71.06 LIG-0.27  OA
ATOM      8  N   LEU N 235      54.867  23.102   0.491  1.00 52.85 LIG-0.35  N 
ATOM      9 H    LEU N 235      55.337  23.819   0.426  1.00 52.85 LIG 0.16  HD
BRANCH 8 10
ATOM     10  CA  LEU N 235      54.276  22.885   1.812  1.00 54.39 LIG 0.18  C 
BRANCH 10 11
ATOM     11  CB  LEU N 235      52.788  22.550   1.694  1.00 50.34 LIG 0.04  C 
BRANCH 11 12
ATOM     12  CG  LEU N 235      51.977  22.786   2.971  1.00 52.64 LIG-0.02  C 
ATOM     13  CD2 LEU N 235      50.503  22.474   2.766  1.00 52.33 LIG 0.01  C 
ATOM     14  CD1 LEU N 235      52.160  24.215   3.446  1.00 53.22 LIG 0.01  C 
ENDBRANCH 11 12
ENDBRANCH 10 11
BRANCH 10 15
ATOM     15  C   LEU N 235      55.003  21.774   2.580  1.00 52.64 LIG 0.24  C 
ATOM     16 O    LEU N 235      55.390  21.949   3.736  1.00 52.05 LIG-0.27  OA
ATOM     17  N   GLY N 236      55.161  20.627   1.922  1.00 57.75 LIG-0.35  N 
ATOM     18 H    GLY N 236      54.866  20.502   1.124  1.00 57.75 LIG 0.16  HD
BRANCH 17 19
ATOM     19  CA  GLY N 236      55.843  19.470   2.471  1.00 57.52 LIG 0.23  C 
BRANCH 19 20
ATOM     20  C   GLY N 236      57.273  19.770   2.878  1.00 60.52 LIG 0.19  C 
ATOM     21 OXT  GLY N 236      57.831  19.109   3.753  1.00 61.85 LIG-0.65  OA
ATOM     22 O    GLY N 236      57.917  20.674   2.348  1.00 62.19 LIG-0.65  OA
ENDBRANCH 19 20
ENDBRANCH 17 19
ENDBRANCH 10 15
ENDBRANCH 8 10
ENDBRANCH 5 6
BRANCH 5 23
ATOM     23  CB  LEU N 234      56.654  21.639  -1.881  1.00 79.47 LIG 0.04  C 
BRANCH 23 24
ATOM     24  CG  LEU N 234      56.626  20.497  -2.901  1.00 81.24 LIG-0.02  C 
ATOM     25  CD1 LEU N 234      55.236  20.324  -3.493  1.00 81.52 LIG 0.01  C 
ATOM     26  CD2 LEU N 234      57.656  20.736  -3.997  1.00 82.88 LIG 0.01  C 
ENDBRANCH 23 24
ENDBRANCH 5 23
ENDBRANCH 3 5
BRANCH 1 27
ATOM     27  CA  GLU N 233      57.096  25.824  -2.793  1.00 71.40 LIG 0.18  C 
BRANCH 27 28
ATOM     28  CB  GLU N 233      58.394  25.995  -3.588  1.00 70.45 LIG 0.04  C 
BRANCH 28 29
ATOM     29  CG  GLU N 233      58.874  27.427  -3.720  1.00 66.32 LIG 0.12  C 
BRANCH 29 30
ATOM     30  CD  GLU N 233      60.114  27.705  -2.892  1.00 63.12 LIG 0.17  C 
ATOM     31 OE1  GLU N 233      60.081  27.464  -1.668  1.00 63.49 LIG-0.65  OA
ATOM     32 OE2  GLU N 233      61.122  28.170  -3.465  1.00 60.69 LIG-0.65  OA
ENDBRANCH 29 30
ENDBRANCH 28 29
ENDBRANCH 27 28
BRANCH 27 33
ATOM     33  N   GLU N 233      57.243  26.305  -1.416  1.00 74.02 LIG-0.35  N 
ATOM     34 H    GLU N 233      56.808  27.030  -1.261  1.00 74.02 LIG 0.16  HD
ATOM     35  C   PRO N 232      57.973  25.690  -0.488  1.00 90.40 LIG 0.24  C 
ATOM     36 O    PRO N 232      58.579  24.653  -0.679  1.00 95.63 LIG-0.27  OA
BRANCH 35 37
ATOM     37  CA  PRO N 232      58.075  26.334   0.875  1.00 87.45 LIG 0.18  C 
ATOM     38  N   PRO N 232      56.910  27.148   1.193  1.00 90.22 LIG-0.34  N 
ATOM     39  C   ALA N 231      56.745  28.471   1.066  1.00 63.79 LIG 0.26  C 
ATOM     40  CD  PRO N 232      55.985  26.422   2.083  1.00 90.52 LIG 0.13  C 
ATOM     41 O    ALA N 231      55.675  29.051   1.224  1.00 66.65 LIG-0.27  OA
ATOM     42  CG  PRO N 232      56.597  25.044   2.169  1.00 87.66 LIG 0.02  C 
ATOM     43  CB  PRO N 232      58.049  25.266   1.967  1.00 84.55 LIG 0.04  C 
BRANCH 39 44
ATOM     44  CA  ALA N 231      57.974  29.267   0.687  1.00 62.23 LIG 0.40  C 
ATOM     45  CB  ALA N 231      57.832  30.713   1.140  1.00 54.17 LIG 0.06  C 
ATOM     46  N   ALA N 231      58.206  29.204  -0.747  1.00 63.17 LIG 0.61  N 
ENDBRANCH 39 44
ENDBRANCH 35 37
ENDBRANCH 27 33
ENDBRANCH 1 27
TORSDOF 17
ENDMDL
MODEL 15
USER: ADFR SOLUTION from run 190
USER: SCORE 17.409756 LL:  -4.283 LR: -15.136 RR:   0.000 FEB: -10.065
USER: RMSD 4.875347
USER: SEED 189
USER: STATUS no improvement in best in 3 clusters for 5 generations
USER: GENES 19
USER: genes 0 Translation |==|  0.57122 0.47671 0.43922
USER: genes 1 Rotation |==|  0.50289 0.70626 0.36804 0.93593
USER: genes 2 Torsion [C]-N--CA-[C] |==|  0.20453
USER: genes 3 Torsion [N]-CA--C-[N] |==|  0.03091
USER: genes 4 Torsion [C]-N--CA-[CB] |==|  0.42377
USER: genes 5 Torsion [N]-CA--CB-[CG] |==|  0.99093
USER: genes 6 Torsion [CA]-CB--CG-[CD1] |==|  0.40893
USER: genes 7 Torsion [N]-CA--C-[N] |==|  0.30560
USER: genes 8 Torsion [C]-N--CA-[C] |==|  0.20879
USER: genes 9 Torsion [N]-CA--C-[OXT] |==|  0.42587
USER: genes 10 Torsion [N]-CA--CB-[CG] |==|  0.73531
USER: genes 11 Torsion [CA]-CB--CG-[CD2] |==|  0.36473
USER: genes 12 Torsion [N]-C--CA-[N] |==|  0.48211
USER: genes 13 Torsion [C]-CA--CB-[CG] |==|  0.55401
USER: genes 14 Torsion [CA]-CB--CG-[CD] |==|  0.62836
USER: genes 15 Torsion [CB]-CG--CD-[OE1] |==|  0.73035
USER: genes 16 Torsion [C]-CA--N-[C] |==|  0.62331
USER: genes 17 Torsion [N]-C--CA-[N] |==|  0.81142
USER: genes 18 Torsion [N]-C--CA-[N] |==|  0.29669
ROOT
ATOM      1  C   GLU N 233      55.523  22.110   0.084  1.00 68.48 LIG 0.24  C 
ATOM      2 O    GLU N 233      54.488  22.605  -0.305  1.00 65.22 LIG-0.27  OA
ATOM      3  N   LEU N 234      56.614  22.152  -0.657  1.00 77.80 LIG-0.35  N 
ATOM      4 H    LEU N 234      57.357  21.777  -0.441  1.00 77.80 LIG 0.16  HD
ENDROOT
BRANCH 3 5
ATOM      5  CA  LEU N 234      56.641  22.856  -1.933  1.00 75.39 LIG 0.18  C 
BRANCH 5 6
ATOM      6  C   LEU N 234      56.656  24.354  -1.755  1.00 71.67 LIG 0.24  C 
ATOM      7 O    LEU N 234      56.493  25.089  -2.692  1.00 71.06 LIG-0.27  OA
ATOM      8  N   LEU N 235      56.872  24.796  -0.536  1.00 52.85 LIG-0.35  N 
ATOM      9 H    LEU N 235      57.051  24.288   0.134  1.00 52.85 LIG 0.16  HD
BRANCH 8 10
ATOM     10  CA  LEU N 235      56.824  26.223  -0.214  1.00 54.39 LIG 0.18  C 
BRANCH 10 11
ATOM     11  CB  LEU N 235      56.433  26.438   1.249  1.00 50.34 LIG 0.04  C 
BRANCH 11 12
ATOM     12  CG  LEU N 235      56.107  25.155   2.019  1.00 52.64 LIG-0.02  C 
ATOM     13  CD2 LEU N 235      54.634  24.794   1.913  1.00 52.33 LIG 0.01  C 
ATOM     14  CD1 LEU N 235      56.518  25.304   3.472  1.00 53.22 LIG 0.01  C 
ENDBRANCH 11 12
ENDBRANCH 10 11
BRANCH 10 15
ATOM     15  C   LEU N 235      58.163  26.912  -0.503  1.00 52.64 LIG 0.24  C 
ATOM     16 O    LEU N 235      59.161  26.671   0.178  1.00 52.05 LIG-0.27  OA
ATOM     17  N   GLY N 236      58.168  27.754  -1.535  1.00 57.75 LIG-0.35  N 
ATOM     18 H    GLY N 236      57.475  27.898  -2.022  1.00 57.75 LIG 0.16  HD
BRANCH 17 19
ATOM     19  CA  GLY N 236      59.332  28.515  -1.948  1.00 57.52 LIG 0.23  C 
BRANCH 19 20
ATOM     20  C   GLY N 236      60.361  27.668  -2.672  1.00 60.52 LIG 0.19  C 
ATOM     21 OXT  GLY N 236      61.130  28.172  -3.490  1.00 61.85 LIG-0.65  OA
ATOM     22 O    GLY N 236      60.461  26.460  -2.466  1.00 62.19 LIG-0.65  OA
ENDBRANCH 19 20
ENDBRANCH 17 19
ENDBRANCH 10 15
ENDBRANCH 8 10
ENDBRANCH 5 6
BRANCH 5 23
ATOM     23  CB  LEU N 234      55.431  22.447  -2.781  1.00 79.47 LIG 0.04  C 
BRANCH 23 24
ATOM     24  CG  LEU N 234      55.616  21.328  -3.808  1.00 81.24 LIG-0.02  C 
ATOM     25  CD1 LEU N 234      56.982  20.672  -3.667  1.00 81.52 LIG 0.01  C 
ATOM     26  CD2 LEU N 234      54.504  20.296  -3.679  1.00 82.88 LIG 0.01  C 
ENDBRANCH 23 24
ENDBRANCH 5 23
ENDBRANCH 3 5
BRANCH 1 27
ATOM     27  CA  GLU N 233      55.599  21.416   1.446  1.00 71.40 LIG 0.18  C 
BRANCH 27 28
ATOM     28  CB  GLU N 233      55.929  19.932   1.259  1.00 70.45 LIG 0.04  C 
BRANCH 28 29
ATOM     29  CG  GLU N 233      55.585  19.051   2.444  1.00 66.32 LIG 0.12  C 
BRANCH 29 30
ATOM     30  CD  GLU N 233      56.706  18.094   2.803  1.00 63.12 LIG 0.17  C 
ATOM     31 OE1  GLU N 233      56.653  16.923   2.371  1.00 63.49 LIG-0.65  OA
ATOM     32 OE2  GLU N 233      57.639  18.510   3.522  1.00 60.69 LIG-0.65  OA
ENDBRANCH 29 30
ENDBRANCH 28 29
ENDBRANCH 27 28
BRANCH 27 33
ATOM     33  N   GLU N 233      54.349  21.599   2.188  1.00 74.02 LIG-0.35  N 
ATOM     34 H    GLU N 233      53.647  21.479   1.706  1.00 74.02 LIG 0.16  HD
ATOM     35  C   PRO N 232      54.290  21.920   3.479  1.00 90.40 LIG 0.24  C 
ATOM     36 O    PRO N 232      55.269  22.075   4.184  1.00 95.63 LIG-0.27  OA
BRANCH 35 37
ATOM     37  CA  PRO N 232      52.927  22.130   4.096  1.00 87.45 LIG 0.18  C 
ATOM     38  N   PRO N 232      52.259  23.316   3.578  1.00 90.22 LIG-0.34  N 
ATOM     39  C   ALA N 231      52.199  24.546   4.101  1.00 63.79 LIG 0.26  C 
ATOM     40  CD  PRO N 232      51.263  22.955   2.553  1.00 90.52 LIG 0.13  C 
ATOM     41 O    ALA N 231      51.734  25.521   3.519  1.00 66.65 LIG-0.27  OA
ATOM     42  CG  PRO N 232      51.472  21.470   2.372  1.00 87.66 LIG 0.02  C 
ATOM     43  CB  PRO N 232      51.982  21.002   3.683  1.00 84.55 LIG 0.04  C 
BRANCH 39 44
ATOM     44  CA  ALA N 231      52.765  24.711   5.494  1.00 62.23 LIG 0.40  C 
ATOM     45  CB  ALA N 231      51.774  25.443   6.388  1.00 54.17 LIG 0.06  C 
ATOM     46  N   ALA N 231      54.033  25.422   5.453  1.00 63.17 LIG 0.61  N 
ENDBRANCH 39 44
ENDBRANCH 35 37
ENDBRANCH 27 33
ENDBRANCH 1 27
TORSDOF 17
ENDMDL
MODEL 16
USER: ADFR SOLUTION from run 114
USER: SCORE 19.347971 LL:  -4.690 LR: -15.107 RR:   0.000 FEB: -10.036
USER: RMSD 8.615618
USER: SEED 113
USER: STATUS no improvement in best in 4 clusters for 5 generations
USER: GENES 19
USER: genes 0 Translation |==|  0.63639 0.59268 0.32816
USER: genes 1 Rotation |==|  0.30010 0.76824 0.86324 0.57838
USER: genes 2 Torsion [C]-N--CA-[C] |==|  0.19607
USER: genes 3 Torsion [N]-CA--C-[N] |==|  0.01673
USER: genes 4 Torsion [C]-N--CA-[CB] |==|  0.83880
USER: genes 5 Torsion [N]-CA--CB-[CG] |==|  0.69864
USER: genes 6 Torsion [CA]-CB--CG-[CD1] |==|  0.07798
USER: genes 7 Torsion [N]-CA--C-[N] |==|  0.35793
USER: genes 8 Torsion [C]-N--CA-[C] |==|  0.81687
USER: genes 9 Torsion [N]-CA--C-[OXT] |==|  0.76710
USER: genes 10 Torsion [N]-CA--CB-[CG] |==|  0.54644
USER: genes 11 Torsion [CA]-CB--CG-[CD2] |==|  0.09191
USER: genes 12 Torsion [N]-C--CA-[N] |==|  0.33955
USER: genes 13 Torsion [C]-CA--CB-[CG] |==|  0.46603
USER: genes 14 Torsion [CA]-CB--CG-[CD] |==|  0.27739
USER: genes 15 Torsion [CB]-CG--CD-[OE1] |==|  0.32270
USER: genes 16 Torsion [C]-CA--N-[C] |==|  0.82776
USER: genes 17 Torsion [N]-C--CA-[N] |==|  0.66933
USER: genes 18 Torsion [N]-C--CA-[N] |==|  0.44686
ROOT
ATOM      1  C   GLU N 233      56.843  24.285  -1.998  1.00 68.48 LIG 0.24  C 
ATOM      2 O    GLU N 233      57.590  23.367  -1.736  1.00 65.22 LIG-0.27  OA
ATOM      3  N   LEU N 234      55.584  24.061  -2.324  1.00 77.80 LIG-0.35  N 
ATOM      4 H    LEU N 234      55.032  24.676  -2.560  1.00 77.80 LIG 0.16  HD
ENDROOT
BRANCH 3 5
ATOM      5  CA  LEU N 234      55.022  22.717  -2.310  1.00 75.39 LIG 0.18  C 
BRANCH 5 6
ATOM      6  C   LEU N 234      54.857  22.185  -0.908  1.00 71.67 LIG 0.24  C 
ATOM      7 O    LEU N 234      54.495  21.054  -0.715  1.00 71.06 LIG-0.27  OA
ATOM      8  N   LEU N 235      55.116  23.024   0.070  1.00 52.85 LIG-0.35  N 
ATOM      9 H    LEU N 235      55.316  23.851  -0.048  1.00 52.85 LIG 0.16  HD
BRANCH 8 10
ATOM     10  CA  LEU N 235      55.080  22.607   1.473  1.00 54.39 LIG 0.18  C 
BRANCH 10 11
ATOM     11  CB  LEU N 235      53.706  22.044   1.838  1.00 50.34 LIG 0.04  C 
BRANCH 11 12
ATOM     12  CG  LEU N 235      52.869  22.943   2.752  1.00 52.64 LIG-0.02  C 
ATOM     13  CD2 LEU N 235      51.378  22.740   2.531  1.00 52.33 LIG 0.01  C 
ATOM     14  CD1 LEU N 235      53.248  24.397   2.538  1.00 53.22 LIG 0.01  C 
ENDBRANCH 11 12
ENDBRANCH 10 11
BRANCH 10 15
ATOM     15  C   LEU N 235      56.168  21.570   1.780  1.00 52.64 LIG 0.24  C 
ATOM     16 O    LEU N 235      56.309  20.570   1.074  1.00 52.05 LIG-0.27  OA
ATOM     17  N   GLY N 236      56.940  21.838   2.831  1.00 57.75 LIG-0.35  N 
ATOM     18 H    GLY N 236      56.852  22.551   3.305  1.00 57.75 LIG 0.16  HD
BRANCH 17 19
ATOM     19  CA  GLY N 236      58.005  20.968   3.292  1.00 57.52 LIG 0.23  C 
BRANCH 19 20
ATOM     20  C   GLY N 236      57.492  19.641   3.819  1.00 60.52 LIG 0.19  C 
ATOM     21 OXT  GLY N 236      57.094  19.535   4.979  1.00 61.85 LIG-0.65  OA
ATOM     22 O    GLY N 236      57.456  18.637   3.111  1.00 62.19 LIG-0.65  OA
ENDBRANCH 19 20
ENDBRANCH 17 19
ENDBRANCH 10 15
ENDBRANCH 8 10
ENDBRANCH 5 6
BRANCH 5 23
ATOM     23  CB  LEU N 234      55.911  21.770  -3.124  1.00 79.47 LIG 0.04  C 
BRANCH 23 24
ATOM     24  CG  LEU N 234      55.321  20.427  -3.564  1.00 81.24 LIG-0.02  C 
ATOM     25  CD1 LEU N 234      55.581  19.346  -2.526  1.00 81.52 LIG 0.01  C 
ATOM     26  CD2 LEU N 234      53.830  20.565  -3.841  1.00 82.88 LIG 0.01  C 
ENDBRANCH 23 24
ENDBRANCH 5 23
ENDBRANCH 3 5
BRANCH 1 27
ATOM     27  CA  GLU N 233      57.336  25.733  -1.964  1.00 71.40 LIG 0.18  C 
BRANCH 27 28
ATOM     28  CB  GLU N 233      58.385  25.955  -3.058  1.00 70.45 LIG 0.04  C 
BRANCH 28 29
ATOM     29  CG  GLU N 233      58.735  27.407  -3.317  1.00 66.32 LIG 0.12  C 
BRANCH 29 30
ATOM     30  CD  GLU N 233      60.027  27.825  -2.640  1.00 63.12 LIG 0.17  C 
ATOM     31 OE1  GLU N 233      60.991  28.170  -3.355  1.00 63.49 LIG-0.65  OA
ATOM     32 OE2  GLU N 233      60.081  27.804  -1.393  1.00 60.69 LIG-0.65  OA
ENDBRANCH 29 30
ENDBRANCH 28 29
ENDBRANCH 27 28
BRANCH 27 33
ATOM     33  N   GLU N 233      57.864  26.066  -0.638  1.00 74.02 LIG-0.35  N 
ATOM     34 H    GLU N 233      58.698  26.276  -0.647  1.00 74.02 LIG 0.16  HD
ATOM     35  C   PRO N 232      57.137  26.050   0.477  1.00 90.40 LIG 0.24  C 
ATOM     36 O    PRO N 232      55.952  25.778   0.510  1.00 95.63 LIG-0.27  OA
BRANCH 35 37
ATOM     37  CA  PRO N 232      57.833  26.364   1.781  1.00 87.45 LIG 0.18  C 
ATOM     38  N   PRO N 232      57.770  25.257   2.725  1.00 90.22 LIG-0.34  N 
ATOM     39  C   ALA N 231      56.917  25.058   3.736  1.00 63.79 LIG 0.26  C 
ATOM     40  CD  PRO N 232      59.034  24.498   2.732  1.00 90.52 LIG 0.13  C 
ATOM     41 O    ALA N 231      56.851  24.021   4.389  1.00 66.65 LIG-0.27  OA
ATOM     42  CG  PRO N 232      59.827  25.132   1.613  1.00 87.66 LIG 0.02  C 
ATOM     43  CB  PRO N 232      59.334  26.529   1.552  1.00 84.55 LIG 0.04  C 
BRANCH 39 44
ATOM     44  CA  ALA N 231      55.977  26.200   4.056  1.00 62.23 LIG 0.40  C 
ATOM     45  CB  ALA N 231      56.714  27.298   4.810  1.00 54.17 LIG 0.06  C 
ATOM     46  N   ALA N 231      54.839  25.728   4.829  1.00 63.17 LIG 0.61  N 
ENDBRANCH 39 44
ENDBRANCH 35 37
ENDBRANCH 27 33
ENDBRANCH 1 27
TORSDOF 17
ENDMDL
MODEL 17
USER: ADFR SOLUTION from run 190
USER: SCORE 18.312637 LL:  -5.469 LR: -15.114 RR:   0.000 FEB: -10.043
USER: RMSD 7.011505
USER: SEED 189
USER: STATUS no improvement in best in 3 clusters for 5 generations
USER: GENES 19
USER: genes 0 Translation |==|  0.60340 0.45179 0.45715
USER: genes 1 Rotation |==|  0.48325 0.74254 0.40458 0.92637
USER: genes 2 Torsion [C]-N--CA-[C] |==|  0.20995
USER: genes 3 Torsion [N]-CA--C-[N] |==|  0.99858
USER: genes 4 Torsion [C]-N--CA-[CB] |==|  0.42717
USER: genes 5 Torsion [N]-CA--CB-[CG] |==|  0.96096
USER: genes 6 Torsion [CA]-CB--CG-[CD1] |==|  0.42324
USER: genes 7 Torsion [N]-CA--C-[N] |==|  0.30958
USER: genes 8 Torsion [C]-N--CA-[C] |==|  0.21836
USER: genes 9 Torsion [N]-CA--C-[OXT] |==|  0.39727
USER: genes 10 Torsion [N]-CA--CB-[CG] |==|  0.77808
USER: genes 11 Torsion [CA]-CB--CG-[CD2] |==|  0.90137
USER: genes 12 Torsion [N]-C--CA-[N] |==|  0.22279
USER: genes 13 Torsion [C]-CA--CB-[CG] |==|  0.52515
USER: genes 14 Torsion [CA]-CB--CG-[CD] |==|  0.90389
USER: genes 15 Torsion [CB]-CG--CD-[OE1] |==|  0.86434
USER: genes 16 Torsion [C]-CA--N-[C] |==|  0.73339
USER: genes 17 Torsion [N]-C--CA-[N] |==|  0.40501
USER: genes 18 Torsion [N]-C--CA-[N] |==|  0.34113
ROOT
ATOM      1  C   GLU N 233      56.175  21.643   0.421  1.00 68.48 LIG 0.24  C 
ATOM      2 O    GLU N 233      55.028  21.981   0.222  1.00 65.22 LIG-0.27  OA
ATOM      3  N   LEU N 234      57.112  21.863  -0.482  1.00 77.80 LIG-0.35  N 
ATOM      4 H    LEU N 234      57.927  21.602  -0.403  1.00 77.80 LIG 0.16  HD
ENDROOT
BRANCH 3 5
ATOM      5  CA  LEU N 234      56.825  22.586  -1.715  1.00 75.39 LIG 0.18  C 
BRANCH 5 6
ATOM      6  C   LEU N 234      56.696  24.072  -1.486  1.00 71.67 LIG 0.24  C 
ATOM      7 O    LEU N 234      56.483  24.821  -2.401  1.00 71.06 LIG-0.27  OA
ATOM      8  N   LEU N 235      56.844  24.488  -0.248  1.00 52.85 LIG-0.35  N 
ATOM      9 H    LEU N 235      57.057  23.974   0.408  1.00 52.85 LIG 0.16  HD
BRANCH 8 10
ATOM     10  CA  LEU N 235      56.655  25.891   0.121  1.00 54.39 LIG 0.18  C 
BRANCH 10 11
ATOM     11  CB  LEU N 235      56.246  26.017   1.589  1.00 50.34 LIG 0.04  C 
BRANCH 11 12
ATOM     12  CG  LEU N 235      55.799  24.708   2.243  1.00 52.64 LIG-0.02  C 
ATOM     13  CD2 LEU N 235      54.331  24.415   1.973  1.00 52.33 LIG 0.01  C 
ATOM     14  CD1 LEU N 235      56.068  24.754   3.736  1.00 53.22 LIG 0.01  C 
ENDBRANCH 11 12
ENDBRANCH 10 11
BRANCH 10 15
ATOM     15  C   LEU N 235      57.920  26.718  -0.141  1.00 52.64 LIG 0.24  C 
ATOM     16 O    LEU N 235      58.945  26.537   0.517  1.00 52.05 LIG-0.27  OA
ATOM     17  N   GLY N 236      57.831  27.611  -1.125  1.00 57.75 LIG-0.35  N 
ATOM     18 H    GLY N 236      57.120  27.716  -1.598  1.00 57.75 LIG 0.16  HD
BRANCH 17 19
ATOM     19  CA  GLY N 236      58.912  28.501  -1.506  1.00 57.52 LIG 0.23  C 
BRANCH 19 20
ATOM     20  C   GLY N 236      59.965  27.815  -2.355  1.00 60.52 LIG 0.19  C 
ATOM     21 OXT  GLY N 236      60.520  28.413  -3.276  1.00 61.85 LIG-0.65  OA
ATOM     22 O    GLY N 236      60.297  26.649  -2.151  1.00 62.19 LIG-0.65  OA
ENDBRANCH 19 20
ENDBRANCH 17 19
ENDBRANCH 10 15
ENDBRANCH 8 10
ENDBRANCH 5 6
BRANCH 5 23
ATOM     23  CB  LEU N 234      55.540  22.045  -2.351  1.00 79.47 LIG 0.04  C 
BRANCH 23 24
ATOM     24  CG  LEU N 234      55.626  20.748  -3.159  1.00 81.24 LIG-0.02  C 
ATOM     25  CD1 LEU N 234      54.454  20.620  -4.120  1.00 81.52 LIG 0.01  C 
ATOM     26  CD2 LEU N 234      56.950  20.672  -3.907  1.00 82.88 LIG 0.01  C 
ENDBRANCH 23 24
ENDBRANCH 5 23
ENDBRANCH 3 5
BRANCH 1 27
ATOM     27  CA  GLU N 233      56.574  20.944   1.723  1.00 71.40 LIG 0.18  C 
BRANCH 27 28
ATOM     28  CB  GLU N 233      55.352  20.264   2.347  1.00 70.45 LIG 0.04  C 
BRANCH 28 29
ATOM     29  CG  GLU N 233      55.572  19.722   3.745  1.00 66.32 LIG 0.12  C 
BRANCH 29 30
ATOM     30  CD  GLU N 233      56.979  19.190   3.949  1.00 63.12 LIG 0.17  C 
ATOM     31 OE1  GLU N 233      57.451  18.409   3.098  1.00 63.49 LIG-0.65  OA
ATOM     32 OE2  GLU N 233      57.612  19.551   4.963  1.00 60.69 LIG-0.65  OA
ENDBRANCH 29 30
ENDBRANCH 28 29
ENDBRANCH 27 28
BRANCH 27 33
ATOM     33  N   GLU N 233      57.190  21.897   2.650  1.00 74.02 LIG-0.35  N 
ATOM     34 H    GLU N 233      56.617  22.340   3.113  1.00 74.02 LIG 0.16  HD
ATOM     35  C   PRO N 232      58.505  22.070   2.773  1.00 90.40 LIG 0.24  C 
ATOM     36 O    PRO N 232      59.334  21.440   2.144  1.00 95.63 LIG-0.27  OA
BRANCH 35 37
ATOM     37  CA  PRO N 232      58.993  23.129   3.733  1.00 87.45 LIG 0.18  C 
ATOM     38  N   PRO N 232      60.241  22.756   4.385  1.00 90.22 LIG-0.34  N 
ATOM     39  C   ALA N 231      60.431  22.203   5.589  1.00 63.79 LIG 0.26  C 
ATOM     40  CD  PRO N 232      61.390  23.421   3.744  1.00 90.52 LIG 0.13  C 
ATOM     41 O    ALA N 231      61.513  21.790   5.995  1.00 66.65 LIG-0.27  OA
ATOM     42  CG  PRO N 232      60.770  24.116   2.555  1.00 87.66 LIG 0.02  C 
ATOM     43  CB  PRO N 232      59.375  24.396   2.971  1.00 84.55 LIG 0.04  C 
BRANCH 39 44
ATOM     44  CA  ALA N 231      59.209  22.081   6.472  1.00 62.23 LIG 0.40  C 
ATOM     45  CB  ALA N 231      59.355  22.960   7.706  1.00 54.17 LIG 0.06  C 
ATOM     46  N   ALA N 231      58.991  20.696   6.858  1.00 63.17 LIG 0.61  N 
ENDBRANCH 39 44
ENDBRANCH 35 37
ENDBRANCH 27 33
ENDBRANCH 1 27
TORSDOF 17
ENDMDL
MODEL 18
USER: ADFR SOLUTION from run 194
USER: SCORE 17.933663 LL:  -4.216 LR: -14.940 RR:   0.000 FEB:  -9.869
USER: RMSD 5.953815
USER: SEED 193
USER: STATUS no improvement in best in 8 clusters for 5 generations
USER: GENES 19
USER: genes 0 Translation |==|  0.62370 0.42127 0.53503
USER: genes 1 Rotation |==|  0.27543 0.33683 0.85252 0.72061
USER: genes 2 Torsion [C]-N--CA-[C] |==|  0.70987
USER: genes 3 Torsion [N]-CA--C-[N] |==|  0.71995
USER: genes 4 Torsion [C]-N--CA-[CB] |==|  0.82358
USER: genes 5 Torsion [N]-CA--CB-[CG] |==|  0.35269
USER: genes 6 Torsion [CA]-CB--CG-[CD1] |==|  0.34428
USER: genes 7 Torsion [N]-CA--C-[N] |==|  0.46559
USER: genes 8 Torsion [C]-N--CA-[C] |==|  0.73369
USER: genes 9 Torsion [N]-CA--C-[OXT] |==|  0.51666
USER: genes 10 Torsion [N]-CA--CB-[CG] |==|  0.56724
USER: genes 11 Torsion [CA]-CB--CG-[CD2] |==|  0.38752
USER: genes 12 Torsion [N]-C--CA-[N] |==|  0.86250
USER: genes 13 Torsion [C]-CA--CB-[CG] |==|  0.29424
USER: genes 14 Torsion [CA]-CB--CG-[CD] |==|  0.86390
USER: genes 15 Torsion [CB]-CG--CD-[OE1] |==|  0.69105
USER: genes 16 Torsion [C]-CA--N-[C] |==|  0.78384
USER: genes 17 Torsion [N]-C--CA-[N] |==|  0.76002
USER: genes 18 Torsion [N]-C--CA-[N] |==|  0.23413
ROOT
ATOM      1  C   GLU N 233      56.586  21.071   1.881  1.00 68.48 LIG 0.24  C 
ATOM      2 O    GLU N 233      57.701  20.690   1.600  1.00 65.22 LIG-0.27  OA
ATOM      3  N   LEU N 234      55.871  21.768   1.018  1.00 77.80 LIG-0.35  N 
ATOM      4 H    LEU N 234      55.095  22.095   1.190  1.00 77.80 LIG 0.16  HD
ENDROOT
BRANCH 3 5
ATOM      5  CA  LEU N 234      56.359  22.042  -0.328  1.00 75.39 LIG 0.18  C 
BRANCH 5 6
ATOM      6  C   LEU N 234      56.835  23.466  -0.480  1.00 71.67 LIG 0.24  C 
ATOM      7 O    LEU N 234      57.911  23.805  -0.064  1.00 71.06 LIG-0.27  OA
ATOM      8  N   LEU N 235      56.007  24.300  -1.070  1.00 52.85 LIG-0.35  N 
ATOM      9 H    LEU N 235      55.211  24.090  -1.318  1.00 52.85 LIG 0.16  HD
BRANCH 8 10
ATOM     10  CA  LEU N 235      56.384  25.685  -1.357  1.00 54.39 LIG 0.18  C 
BRANCH 10 11
ATOM     11  CB  LEU N 235      56.646  26.457  -0.064  1.00 50.34 LIG 0.04  C 
BRANCH 11 12
ATOM     12  CG  LEU N 235      58.000  27.168  -0.006  1.00 52.64 LIG-0.02  C 
ATOM     13  CD2 LEU N 235      58.915  26.552   1.041  1.00 52.33 LIG 0.01  C 
ATOM     14  CD1 LEU N 235      57.799  28.648   0.262  1.00 53.22 LIG 0.01  C 
ENDBRANCH 11 12
ENDBRANCH 10 11
BRANCH 10 15
ATOM     15  C   LEU N 235      57.616  25.756  -2.267  1.00 52.64 LIG 0.24  C 
ATOM     16 O    LEU N 235      58.294  24.753  -2.498  1.00 52.05 LIG-0.27  OA
ATOM     17  N   GLY N 236      57.879  26.953  -2.790  1.00 57.75 LIG-0.35  N 
ATOM     18 H    GLY N 236      57.387  27.643  -2.645  1.00 57.75 LIG 0.16  HD
BRANCH 17 19
ATOM     19  CA  GLY N 236      59.012  27.224  -3.654  1.00 57.52 LIG 0.23  C 
BRANCH 19 20
ATOM     20  C   GLY N 236      60.203  27.787  -2.901  1.00 60.52 LIG 0.19  C 
ATOM     21 OXT  GLY N 236      61.204  28.172  -3.503  1.00 61.85 LIG-0.65  OA
ATOM     22 O    GLY N 236      60.205  27.877  -1.675  1.00 62.19 LIG-0.65  OA
ENDBRANCH 19 20
ENDBRANCH 17 19
ENDBRANCH 10 15
ENDBRANCH 8 10
ENDBRANCH 5 6
BRANCH 5 23
ATOM     23  CB  LEU N 234      55.257  21.751  -1.353  1.00 79.47 LIG 0.04  C 
BRANCH 23 24
ATOM     24  CG  LEU N 234      55.676  21.423  -2.788  1.00 81.24 LIG-0.02  C 
ATOM     25  CD1 LEU N 234      57.152  21.063  -2.861  1.00 81.52 LIG 0.01  C 
ATOM     26  CD2 LEU N 234      54.816  20.299  -3.350  1.00 82.88 LIG 0.01  C 
ENDBRANCH 23 24
ENDBRANCH 5 23
ENDBRANCH 3 5
BRANCH 1 27
ATOM     27  CA  GLU N 233      55.970  20.761   3.248  1.00 71.40 LIG 0.18  C 
BRANCH 27 28
ATOM     28  CB  GLU N 233      54.898  19.677   3.104  1.00 70.45 LIG 0.04  C 
BRANCH 28 29
ATOM     29  CG  GLU N 233      55.306  18.309   3.618  1.00 66.32 LIG 0.12  C 
BRANCH 29 30
ATOM     30  CD  GLU N 233      56.662  17.872   3.098  1.00 63.12 LIG 0.17  C 
ATOM     31 OE1  GLU N 233      56.713  16.922   2.289  1.00 63.49 LIG-0.65  OA
ATOM     32 OE2  GLU N 233      57.679  18.475   3.501  1.00 60.69 LIG-0.65  OA
ENDBRANCH 29 30
ENDBRANCH 28 29
ENDBRANCH 27 28
BRANCH 27 33
ATOM     33  N   GLU N 233      55.425  21.979   3.854  1.00 74.02 LIG-0.35  N 
ATOM     34 H    GLU N 233      54.570  22.037   3.791  1.00 74.02 LIG 0.16  HD
ATOM     35  C   PRO N 232      56.168  22.910   4.448  1.00 90.40 LIG 0.24  C 
ATOM     36 O    PRO N 232      57.377  22.839   4.568  1.00 95.63 LIG-0.27  OA
BRANCH 35 37
ATOM     37  CA  PRO N 232      55.471  24.140   4.980  1.00 87.45 LIG 0.18  C 
ATOM     38  N   PRO N 232      55.317  25.174   3.967  1.00 90.22 LIG-0.34  N 
ATOM     39  C   ALA N 231      56.082  26.248   3.734  1.00 63.79 LIG 0.26  C 
ATOM     40  CD  PRO N 232      53.951  25.169   3.411  1.00 90.52 LIG 0.13  C 
ATOM     41 O    ALA N 231      55.956  26.987   2.763  1.00 66.65 LIG-0.27  OA
ATOM     42  CG  PRO N 232      53.319  23.957   4.053  1.00 87.66 LIG 0.02  C 
ATOM     43  CB  PRO N 232      54.026  23.809   5.348  1.00 84.55 LIG 0.04  C 
BRANCH 39 44
ATOM     44  CA  ALA N 231      57.171  26.527   4.746  1.00 62.23 LIG 0.40  C 
ATOM     45  CB  ALA N 231      57.502  28.013   4.774  1.00 54.17 LIG 0.06  C 
ATOM     46  N   ALA N 231      58.362  25.747   4.447  1.00 63.17 LIG 0.61  N 
ENDBRANCH 39 44
ENDBRANCH 35 37
ENDBRANCH 27 33
ENDBRANCH 1 27
TORSDOF 17
ENDMDL
MODEL 19
USER: ADFR SOLUTION from run 146
USER: SCORE 18.298145 LL:  -5.112 LR: -14.911 RR:   0.000 FEB:  -9.840
USER: RMSD 6.303924
USER: SEED 145
USER: STATUS no improvement in best in 9 clusters for 5 generations
USER: GENES 19
USER: genes 0 Translation |==|  0.61544 0.49332 0.51480
USER: genes 1 Rotation |==|  0.48686 0.52407 0.71328 0.95140
USER: genes 2 Torsion [C]-N--CA-[C] |==|  0.83216
USER: genes 3 Torsion [N]-CA--C-[N] |==|  0.36298
USER: genes 4 Torsion [C]-N--CA-[CB] |==|  0.41250
USER: genes 5 Torsion [N]-CA--CB-[CG] |==|  0.76333
USER: genes 6 Torsion [CA]-CB--CG-[CD1] |==|  0.90629
USER: genes 7 Torsion [N]-CA--C-[N] |==|  0.12280
USER: genes 8 Torsion [C]-N--CA-[C] |==|  0.60224
USER: genes 9 Torsion [N]-CA--C-[OXT] |==|  0.86742
USER: genes 10 Torsion [N]-CA--CB-[CG] |==|  0.31878
USER: genes 11 Torsion [CA]-CB--CG-[CD2] |==|  0.74544
USER: genes 12 Torsion [N]-C--CA-[N] |==|  0.96037
USER: genes 13 Torsion [C]-CA--CB-[CG] |==|  0.37130
USER: genes 14 Torsion [CA]-CB--CG-[CD] |==|  0.08417
USER: genes 15 Torsion [CB]-CG--CD-[OE1] |==|  0.17858
USER: genes 16 Torsion [C]-CA--N-[C] |==|  0.80757
USER: genes 17 Torsion [N]-C--CA-[N] |==|  0.34686
USER: genes 18 Torsion [N]-C--CA-[N] |==|  0.25101
ROOT
ATOM      1  C   GLU N 233      56.419  22.422   1.501  1.00 68.48 LIG 0.24  C 
ATOM      2 O    GLU N 233      56.023  21.969   0.450  1.00 65.22 LIG-0.27  OA
ATOM      3  N   LEU N 234      56.583  23.721   1.660  1.00 77.80 LIG-0.35  N 
ATOM      4 H    LEU N 234      56.902  24.083   2.371  1.00 77.80 LIG 0.16  HD
ENDROOT
BRANCH 3 5
ATOM      5  CA  LEU N 234      56.225  24.667   0.610  1.00 75.39 LIG 0.18  C 
BRANCH 5 6
ATOM      6  C   LEU N 234      57.004  24.427  -0.660  1.00 71.67 LIG 0.24  C 
ATOM      7 O    LEU N 234      58.202  24.316  -0.638  1.00 71.06 LIG-0.27  OA
ATOM      8  N   LEU N 235      56.306  24.363  -1.772  1.00 52.85 LIG-0.35  N 
ATOM      9 H    LEU N 235      55.459  24.500  -1.814  1.00 52.85 LIG 0.16  HD
BRANCH 8 10
ATOM     10  CA  LEU N 235      56.931  24.047  -3.057  1.00 54.39 LIG 0.18  C 
BRANCH 10 11
ATOM     11  CB  LEU N 235      55.956  23.296  -3.965  1.00 50.34 LIG 0.04  C 
BRANCH 11 12
ATOM     12  CG  LEU N 235      55.916  21.781  -3.747  1.00 52.64 LIG-0.02  C 
ATOM     13  CD2 LEU N 235      54.887  21.390  -2.699  1.00 52.33 LIG 0.01  C 
ATOM     14  CD1 LEU N 235      57.293  21.276  -3.359  1.00 53.22 LIG 0.01  C 
ENDBRANCH 11 12
ENDBRANCH 10 11
BRANCH 10 15
ATOM     15  C   LEU N 235      57.436  25.310  -3.764  1.00 52.64 LIG 0.24  C 
ATOM     16 O    LEU N 235      57.229  25.492  -4.965  1.00 52.05 LIG-0.27  OA
ATOM     17  N   GLY N 236      58.084  26.182  -2.994  1.00 57.75 LIG-0.35  N 
ATOM     18 H    GLY N 236      58.204  26.061  -2.151  1.00 57.75 LIG 0.16  HD
BRANCH 17 19
ATOM     19  CA  GLY N 236      58.656  27.422  -3.484  1.00 57.52 LIG 0.23  C 
BRANCH 19 20
ATOM     20  C   GLY N 236      59.969  27.770  -2.809  1.00 60.52 LIG 0.19  C 
ATOM     21 OXT  GLY N 236      60.081  27.722  -1.585  1.00 61.85 LIG-0.65  OA
ATOM     22 O    GLY N 236      60.957  28.108  -3.459  1.00 62.19 LIG-0.65  OA
ENDBRANCH 19 20
ENDBRANCH 17 19
ENDBRANCH 10 15
ENDBRANCH 8 10
ENDBRANCH 5 6
BRANCH 5 23
ATOM     23  CB  LEU N 234      56.457  26.101   1.097  1.00 79.47 LIG 0.04  C 
BRANCH 23 24
ATOM     24  CG  LEU N 234      57.536  26.934   0.400  1.00 81.24 LIG-0.02  C 
ATOM     25  CD1 LEU N 234      57.132  28.398   0.316  1.00 81.52 LIG 0.01  C 
ATOM     26  CD2 LEU N 234      58.872  26.782   1.116  1.00 82.88 LIG 0.01  C 
ENDBRANCH 23 24
ENDBRANCH 5 23
ENDBRANCH 3 5
BRANCH 1 27
ATOM     27  CA  GLU N 233      56.747  21.502   2.680  1.00 71.40 LIG 0.18  C 
BRANCH 27 28
ATOM     28  CB  GLU N 233      55.456  20.918   3.262  1.00 70.45 LIG 0.04  C 
BRANCH 28 29
ATOM     29  CG  GLU N 233      55.498  19.425   3.528  1.00 66.32 LIG 0.12  C 
BRANCH 29 30
ATOM     30  CD  GLU N 233      56.891  18.934   3.874  1.00 63.12 LIG 0.17  C 
ATOM     31 OE1  GLU N 233      57.426  19.349   4.923  1.00 63.49 LIG-0.65  OA
ATOM     32 OE2  GLU N 233      57.453  18.135   3.096  1.00 60.69 LIG-0.65  OA
ENDBRANCH 29 30
ENDBRANCH 28 29
ENDBRANCH 27 28
BRANCH 27 33
ATOM     33  N   GLU N 233      57.517  22.223   3.697  1.00 74.02 LIG-0.35  N 
ATOM     34 H    GLU N 233      57.076  22.361   4.422  1.00 74.02 LIG 0.16  HD
ATOM     35  C   PRO N 232      58.773  22.630   3.528  1.00 90.40 LIG 0.24  C 
ATOM     36 O    PRO N 232      59.422  22.427   2.519  1.00 95.63 LIG-0.27  OA
BRANCH 35 37
ATOM     37  CA  PRO N 232      59.421  23.412   4.647  1.00 87.45 LIG 0.18  C 
ATOM     38  N   PRO N 232      60.671  22.812   5.093  1.00 90.22 LIG-0.34  N 
ATOM     39  C   ALA N 231      60.892  21.994   6.129  1.00 63.79 LIG 0.26  C 
ATOM     40  CD  PRO N 232      61.830  23.515   4.512  1.00 90.52 LIG 0.13  C 
ATOM     41 O    ALA N 231      61.956  21.422   6.341  1.00 66.65 LIG-0.27  OA
ATOM     42  CG  PRO N 232      61.196  24.500   3.558  1.00 87.66 LIG 0.02  C 
ATOM     43  CB  PRO N 232      59.864  24.784   4.144  1.00 84.55 LIG 0.04  C 
BRANCH 39 44
ATOM     44  CA  ALA N 231      59.727  21.771   7.068  1.00 62.23 LIG 0.40  C 
ATOM     45  CB  ALA N 231      60.224  21.570   8.493  1.00 54.17 LIG 0.06  C 
ATOM     46  N   ALA N 231      58.933  20.630   6.640  1.00 63.17 LIG 0.61  N 
ENDBRANCH 39 44
ENDBRANCH 35 37
ENDBRANCH 27 33
ENDBRANCH 1 27
TORSDOF 17
ENDMDL
MODEL 20
USER: ADFR SOLUTION from run 3
USER: SCORE 19.580351 LL:  -5.190 LR: -14.901 RR:   0.000 FEB:  -9.830
USER: RMSD 8.946576
USER: SEED 337304
USER: STATUS no improvement in best in 2 clusters for 5 generations
USER: GENES 19
USER: genes 0 Translation |==|  0.64071 0.62896 0.34101
USER: genes 1 Rotation |==|  0.21884 0.62771 0.13238 0.63963
USER: genes 2 Torsion [C]-N--CA-[C] |==|  0.67982
USER: genes 3 Torsion [N]-CA--C-[N] |==|  0.00173
USER: genes 4 Torsion [C]-N--CA-[CB] |==|  0.82222
USER: genes 5 Torsion [N]-CA--CB-[CG] |==|  0.79493
USER: genes 6 Torsion [CA]-CB--CG-[CD1] |==|  0.61442
USER: genes 7 Torsion [N]-CA--C-[N] |==|  0.47627
USER: genes 8 Torsion [C]-N--CA-[C] |==|  0.15123
USER: genes 9 Torsion [N]-CA--C-[OXT] |==|  0.62631
USER: genes 10 Torsion [N]-CA--CB-[CG] |==|  0.55900
USER: genes 11 Torsion [CA]-CB--CG-[CD2] |==|  0.10181
USER: genes 12 Torsion [N]-C--CA-[N] |==|  0.88036
USER: genes 13 Torsion [C]-CA--CB-[CG] |==|  0.29490
USER: genes 14 Torsion [CA]-CB--CG-[CD] |==|  0.28606
USER: genes 15 Torsion [CB]-CG--CD-[OE1] |==|  0.82620
USER: genes 16 Torsion [C]-CA--N-[C] |==|  0.82885
USER: genes 17 Torsion [N]-C--CA-[N] |==|  0.93850
USER: genes 18 Torsion [N]-C--CA-[N] |==|  0.45421
ROOT
ATOM      1  C   GLU N 233      56.930  24.965  -1.757  1.00 68.48 LIG 0.24  C 
ATOM      2 O    GLU N 233      55.958  25.353  -2.368  1.00 65.22 LIG-0.27  OA
ATOM      3  N   LEU N 234      57.061  23.694  -1.429  1.00 77.80 LIG-0.35  N 
ATOM      4 H    LEU N 234      57.711  23.383  -0.959  1.00 77.80 LIG 0.16  HD
ENDROOT
BRANCH 3 5
ATOM      5  CA  LEU N 234      56.087  22.695  -1.850  1.00 75.39 LIG 0.18  C 
BRANCH 5 6
ATOM      6  C   LEU N 234      55.356  22.086  -0.679  1.00 71.67 LIG 0.24  C 
ATOM      7 O    LEU N 234      54.513  21.245  -0.847  1.00 71.06 LIG-0.27  OA
ATOM      8  N   LEU N 235      55.680  22.536   0.512  1.00 52.85 LIG-0.35  N 
ATOM      9 H    LEU N 235      56.235  23.179   0.646  1.00 52.85 LIG 0.16  HD
BRANCH 8 10
ATOM     10  CA  LEU N 235      55.110  21.967   1.733  1.00 54.39 LIG 0.18  C 
BRANCH 10 11
ATOM     11  CB  LEU N 235      53.599  22.197   1.787  1.00 50.34 LIG 0.04  C 
BRANCH 11 12
ATOM     12  CG  LEU N 235      53.182  23.636   2.102  1.00 52.64 LIG-0.02  C 
ATOM     13  CD2 LEU N 235      54.339  24.448   2.663  1.00 52.33 LIG 0.01  C 
ATOM     14  CD1 LEU N 235      52.010  23.638   3.065  1.00 53.22 LIG 0.01  C 
ENDBRANCH 11 12
ENDBRANCH 10 11
BRANCH 10 15
ATOM     15  C   LEU N 235      55.414  20.468   1.852  1.00 52.64 LIG 0.24  C 
ATOM     16 O    LEU N 235      55.942  19.852   0.925  1.00 52.05 LIG-0.27  OA
ATOM     17  N   GLY N 236      55.088  19.904   3.013  1.00 57.75 LIG-0.35  N 
ATOM     18 H    GLY N 236      54.743  20.344   3.666  1.00 57.75 LIG 0.16  HD
BRANCH 17 19
ATOM     19  CA  GLY N 236      55.277  18.495   3.305  1.00 57.52 LIG 0.23  C 
BRANCH 19 20
ATOM     20  C   GLY N 236      56.706  18.035   3.081  1.00 60.52 LIG 0.19  C 
ATOM     21 OXT  GLY N 236      56.943  16.988   2.481  1.00 61.85 LIG-0.65  OA
ATOM     22 O    GLY N 236      57.664  18.691   3.485  1.00 62.19 LIG-0.65  OA
ENDBRANCH 19 20
ENDBRANCH 17 19
ENDBRANCH 10 15
ENDBRANCH 8 10
ENDBRANCH 5 6
BRANCH 5 23
ATOM     23  CB  LEU N 234      56.783  21.593  -2.657  1.00 79.47 LIG 0.04  C 
BRANCH 23 24
ATOM     24  CG  LEU N 234      55.929  20.737  -3.595  1.00 81.24 LIG-0.02  C 
ATOM     25  CD1 LEU N 234      55.324  19.551  -2.859  1.00 81.52 LIG 0.01  C 
ATOM     26  CD2 LEU N 234      54.842  21.583  -4.246  1.00 82.88 LIG 0.01  C 
ENDBRANCH 23 24
ENDBRANCH 5 23
ENDBRANCH 3 5
BRANCH 1 27
ATOM     27  CA  GLU N 233      58.036  25.938  -1.341  1.00 71.40 LIG 0.18  C 
BRANCH 27 28
ATOM     28  CB  GLU N 233      59.210  25.845  -2.320  1.00 70.45 LIG 0.04  C 
BRANCH 28 29
ATOM     29  CG  GLU N 233      59.336  27.017  -3.273  1.00 66.32 LIG 0.12  C 
BRANCH 29 30
ATOM     30  CD  GLU N 233      60.439  27.979  -2.871  1.00 63.12 LIG 0.17  C 
ATOM     31 OE1  GLU N 233      60.343  28.573  -1.776  1.00 63.49 LIG-0.65  OA
ATOM     32 OE2  GLU N 233      61.399  28.146  -3.651  1.00 60.69 LIG-0.65  OA
ENDBRANCH 29 30
ENDBRANCH 28 29
ENDBRANCH 27 28
BRANCH 27 33
ATOM     33  N   GLU N 233      58.463  25.673   0.036  1.00 74.02 LIG-0.35  N 
ATOM     34 H    GLU N 233      59.290  25.447   0.099  1.00 74.02 LIG 0.16  HD
ATOM     35  C   PRO N 232      57.660  25.769   1.094  1.00 90.40 LIG 0.24  C 
ATOM     36 O    PRO N 232      56.493  26.107   1.032  1.00 95.63 LIG-0.27  OA
BRANCH 35 37
ATOM     37  CA  PRO N 232      58.227  25.412   2.448  1.00 87.45 LIG 0.18  C 
ATOM     38  N   PRO N 232      59.390  24.540   2.351  1.00 90.22 LIG-0.34  N 
ATOM     39  C   ALA N 231      59.457  23.208   2.461  1.00 63.79 LIG 0.26  C 
ATOM     40  CD  PRO N 232      60.639  25.307   2.511  1.00 90.52 LIG 0.13  C 
ATOM     41 O    ALA N 231      60.461  22.546   2.219  1.00 66.65 LIG-0.27  OA
ATOM     42  CG  PRO N 232      60.163  26.739   2.566  1.00 87.66 LIG 0.02  C 
ATOM     43  CB  PRO N 232      58.794  26.657   3.129  1.00 84.55 LIG 0.04  C 
BRANCH 39 44
ATOM     44  CA  ALA N 231      58.190  22.506   2.896  1.00 62.23 LIG 0.40  C 
ATOM     45  CB  ALA N 231      57.937  22.736   4.380  1.00 54.17 LIG 0.06  C 
ATOM     46  N   ALA N 231      58.265  21.083   2.608  1.00 63.17 LIG 0.61  N 
ENDBRANCH 39 44
ENDBRANCH 35 37
ENDBRANCH 27 33
ENDBRANCH 1 27
TORSDOF 17
ENDMDL
MODEL 21
USER: ADFR SOLUTION from run 185
USER: SCORE 16.984408 LL:  -4.622 LR: -14.902 RR:   0.000 FEB:  -9.831
USER: RMSD 9.338530
USER: SEED 184
USER: STATUS no improvement in best in 3 clusters for 5 generations
USER: GENES 19
USER: genes 0 Translation |==|  0.62786 0.60096 0.28900
USER: genes 1 Rotation |==|  0.44869 0.33259 0.03562 0.56078
USER: genes 2 Torsion [C]-N--CA-[C] |==|  0.48889
USER: genes 3 Torsion [N]-CA--C-[N] |==|  0.98264
USER: genes 4 Torsion [C]-N--CA-[CB] |==|  0.18341
USER: genes 5 Torsion [N]-CA--CB-[CG] |==|  0.07713
USER: genes 6 Torsion [CA]-CB--CG-[CD1] |==|  0.23434
USER: genes 7 Torsion [N]-CA--C-[N] |==|  0.45012
USER: genes 8 Torsion [C]-N--CA-[C] |==|  0.33659
USER: genes 9 Torsion [N]-CA--C-[OXT] |==|  0.67777
USER: genes 10 Torsion [N]-CA--CB-[CG] |==|  0.66415
USER: genes 11 Torsion [CA]-CB--CG-[CD2] |==|  0.32700
USER: genes 12 Torsion [N]-C--CA-[N] |==|  0.05669
USER: genes 13 Torsion [C]-CA--CB-[CG] |==|  0.43105
USER: genes 14 Torsion [CA]-CB--CG-[CD] |==|  0.36110
USER: genes 15 Torsion [CB]-CG--CD-[OE1] |==|  0.82741
USER: genes 16 Torsion [C]-CA--N-[C] |==|  0.18284
USER: genes 17 Torsion [N]-C--CA-[N] |==|  0.73109
USER: genes 18 Torsion [N]-C--CA-[N] |==|  0.23027
ROOT
ATOM      1  C   GLU N 233      56.670  24.440  -2.732  1.00 68.48 LIG 0.24  C 
ATOM      2 O    GLU N 233      57.015  23.779  -3.687  1.00 65.22 LIG-0.27  OA
ATOM      3  N   LEU N 234      55.877  23.933  -1.808  1.00 77.80 LIG-0.35  N 
ATOM      4 H    LEU N 234      55.573  24.378  -1.138  1.00 77.80 LIG 0.16  HD
ENDROOT
BRANCH 3 5
ATOM      5  CA  LEU N 234      55.446  22.541  -1.855  1.00 75.39 LIG 0.18  C 
BRANCH 5 6
ATOM      6  C   LEU N 234      54.626  22.160  -0.647  1.00 71.67 LIG 0.24  C 
ATOM      7 O    LEU N 234      54.084  21.088  -0.583  1.00 71.06 LIG-0.27  OA
ATOM      8  N   LEU N 235      54.530  23.062   0.304  1.00 52.85 LIG-0.35  N 
ATOM      9 H    LEU N 235      54.859  23.854   0.248  1.00 52.85 LIG 0.16  HD
BRANCH 8 10
ATOM     10  CA  LEU N 235      53.838  22.783   1.563  1.00 54.39 LIG 0.18  C 
BRANCH 10 11
ATOM     11  CB  LEU N 235      54.580  21.713   2.366  1.00 50.34 LIG 0.04  C 
BRANCH 11 12
ATOM     12  CG  LEU N 235      56.088  21.650   2.108  1.00 52.64 LIG-0.02  C 
ATOM     13  CD2 LEU N 235      56.643  20.256   2.350  1.00 52.33 LIG 0.01  C 
ATOM     14  CD1 LEU N 235      56.805  22.670   2.973  1.00 53.22 LIG 0.01  C 
ENDBRANCH 11 12
ENDBRANCH 10 11
BRANCH 10 15
ATOM     15  C   LEU N 235      53.675  24.052   2.409  1.00 52.64 LIG 0.24  C 
ATOM     16 O    LEU N 235      54.350  25.057   2.182  1.00 52.05 LIG-0.27  OA
ATOM     17  N   GLY N 236      52.757  23.990   3.371  1.00 57.75 LIG-0.35  N 
ATOM     18 H    GLY N 236      52.271  23.293   3.508  1.00 57.75 LIG 0.16  HD
BRANCH 17 19
ATOM     19  CA  GLY N 236      52.475  25.078   4.288  1.00 57.52 LIG 0.23  C 
BRANCH 19 20
ATOM     20  C   GLY N 236      51.031  25.540   4.224  1.00 60.52 LIG 0.19  C 
ATOM     21 OXT  GLY N 236      50.749  26.677   3.849  1.00 61.85 LIG-0.65  OA
ATOM     22 O    GLY N 236      50.103  24.798   4.541  1.00 62.19 LIG-0.65  OA
ENDBRANCH 19 20
ENDBRANCH 17 19
ENDBRANCH 10 15
ENDBRANCH 8 10
ENDBRANCH 5 6
BRANCH 5 23
ATOM     23  CB  LEU N 234      56.665  21.620  -1.967  1.00 79.47 LIG 0.04  C 
BRANCH 23 24
ATOM     24  CG  LEU N 234      56.759  20.692  -3.180  1.00 81.24 LIG-0.02  C 
ATOM     25  CD1 LEU N 234      55.496  20.762  -4.025  1.00 81.52 LIG 0.01  C 
ATOM     26  CD2 LEU N 234      57.988  21.028  -4.015  1.00 82.88 LIG 0.01  C 
ENDBRANCH 23 24
ENDBRANCH 5 23
ENDBRANCH 3 5
BRANCH 1 27
ATOM     27  CA  GLU N 233      57.139  25.888  -2.569  1.00 71.40 LIG 0.18  C 
BRANCH 27 28
ATOM     28  CB  GLU N 233      58.578  26.031  -3.072  1.00 70.45 LIG 0.04  C 
BRANCH 28 29
ATOM     29  CG  GLU N 233      58.958  27.430  -3.519  1.00 66.32 LIG 0.12  C 
BRANCH 29 30
ATOM     30  CD  GLU N 233      60.258  27.907  -2.898  1.00 63.12 LIG 0.17  C 
ATOM     31 OE1  GLU N 233      60.318  28.023  -1.656  1.00 63.49 LIG-0.65  OA
ATOM     32 OE2  GLU N 233      61.218  28.171  -3.651  1.00 60.69 LIG-0.65  OA
ENDBRANCH 29 30
ENDBRANCH 28 29
ENDBRANCH 27 28
BRANCH 27 33
ATOM     33  N   GLU N 233      57.013  26.315  -1.173  1.00 74.02 LIG-0.35  N 
ATOM     34 H    GLU N 233      56.431  26.937  -1.059  1.00 74.02 LIG 0.16  HD
ATOM     35  C   PRO N 232      57.723  25.801  -0.171  1.00 90.40 LIG 0.24  C 
ATOM     36 O    PRO N 232      58.537  24.906  -0.306  1.00 95.63 LIG-0.27  OA
BRANCH 35 37
ATOM     37  CA  PRO N 232      57.524  26.381   1.210  1.00 87.45 LIG 0.18  C 
ATOM     38  N   PRO N 232      58.530  27.379   1.543  1.00 90.22 LIG-0.34  N 
ATOM     39  C   ALA N 231      59.660  27.236   2.246  1.00 63.79 LIG 0.26  C 
ATOM     40  CD  PRO N 232      57.999  28.743   1.365  1.00 90.52 LIG 0.13  C 
ATOM     41 O    ALA N 231      60.521  28.104   2.353  1.00 66.65 LIG-0.27  OA
ATOM     42  CG  PRO N 232      56.638  28.509   0.754  1.00 87.66 LIG 0.02  C 
ATOM     43  CB  PRO N 232      56.223  27.180   1.264  1.00 84.55 LIG 0.04  C 
BRANCH 39 44
ATOM     44  CA  ALA N 231      59.863  25.899   2.925  1.00 62.23 LIG 0.40  C 
ATOM     45  CB  ALA N 231      60.775  26.050   4.134  1.00 54.17 LIG 0.06  C 
ATOM     46  N   ALA N 231      60.411  24.927   1.993  1.00 63.17 LIG 0.61  N 
ENDBRANCH 39 44
ENDBRANCH 35 37
ENDBRANCH 27 33
ENDBRANCH 1 27
TORSDOF 17
ENDMDL
MODEL 22
USER: ADFR SOLUTION from run 23
USER: SCORE 18.776721 LL:  -5.071 LR: -14.746 RR:   0.000 FEB:  -9.675
USER: RMSD 4.094944
USER: SEED 22
USER: STATUS no improvement in best in 4 clusters for 5 generations
USER: GENES 19
USER: genes 0 Translation |==|  0.64580 0.43867 0.51065
USER: genes 1 Rotation |==|  0.34096 0.29723 0.92840 0.50777
USER: genes 2 Torsion [C]-N--CA-[C] |==|  0.76101
USER: genes 3 Torsion [N]-CA--C-[N] |==|  0.33074
USER: genes 4 Torsion [C]-N--CA-[CB] |==|  0.19990
USER: genes 5 Torsion [N]-CA--CB-[CG] |==|  0.20064
USER: genes 6 Torsion [CA]-CB--CG-[CD1] |==|  0.40254
USER: genes 7 Torsion [N]-CA--C-[N] |==|  0.56424
USER: genes 8 Torsion [C]-N--CA-[C] |==|  0.74552
USER: genes 9 Torsion [N]-CA--C-[OXT] |==|  0.94923
USER: genes 10 Torsion [N]-CA--CB-[CG] |==|  0.50246
USER: genes 11 Torsion [CA]-CB--CG-[CD2] |==|  0.08409
USER: genes 12 Torsion [N]-C--CA-[N] |==|  0.94296
USER: genes 13 Torsion [C]-CA--CB-[CG] |==|  0.63784
USER: genes 14 Torsion [CA]-CB--CG-[CD] |==|  0.24683
USER: genes 15 Torsion [CB]-CG--CD-[OE1] |==|  0.69786
USER: genes 16 Torsion [C]-CA--N-[C] |==|  0.83627
USER: genes 17 Torsion [N]-C--CA-[N] |==|  0.20951
USER: genes 18 Torsion [N]-C--CA-[N] |==|  0.33723
ROOT
ATOM      1  C   GLU N 233      57.033  21.397   1.424  1.00 68.48 LIG 0.24  C 
ATOM      2 O    GLU N 233      58.044  22.004   1.143  1.00 65.22 LIG-0.27  OA
ATOM      3  N   LEU N 234      56.173  21.044   0.488  1.00 77.80 LIG-0.35  N 
ATOM      4 H    LEU N 234      55.424  20.653   0.646  1.00 77.80 LIG 0.16  HD
ENDROOT
BRANCH 3 5
ATOM      5  CA  LEU N 234      56.435  21.301  -0.923  1.00 75.39 LIG 0.18  C 
BRANCH 5 6
ATOM      6  C   LEU N 234      55.995  22.682  -1.340  1.00 71.67 LIG 0.24  C 
ATOM      7 O    LEU N 234      54.840  23.011  -1.267  1.00 71.06 LIG-0.27  OA
ATOM      8  N   LEU N 235      56.932  23.483  -1.795  1.00 52.85 LIG-0.35  N 
ATOM      9 H    LEU N 235      57.750  23.245  -1.912  1.00 52.85 LIG 0.16  HD
BRANCH 8 10
ATOM     10  CA  LEU N 235      56.652  24.875  -2.149  1.00 54.39 LIG 0.18  C 
BRANCH 10 11
ATOM     11  CB  LEU N 235      56.415  25.718  -0.895  1.00 50.34 LIG 0.04  C 
BRANCH 11 12
ATOM     12  CG  LEU N 235      57.672  26.003  -0.069  1.00 52.64 LIG-0.02  C 
ATOM     13  CD2 LEU N 235      57.886  24.955   1.012  1.00 52.33 LIG 0.01  C 
ATOM     14  CD1 LEU N 235      57.590  27.390   0.540  1.00 53.22 LIG 0.01  C 
ENDBRANCH 11 12
ENDBRANCH 10 11
BRANCH 10 15
ATOM     15  C   LEU N 235      57.787  25.484  -2.981  1.00 52.64 LIG 0.24  C 
ATOM     16 O    LEU N 235      58.544  24.771  -3.642  1.00 52.05 LIG-0.27  OA
ATOM     17  N   GLY N 236      57.877  26.812  -2.949  1.00 57.75 LIG-0.35  N 
ATOM     18 H    GLY N 236      57.331  27.307  -2.506  1.00 57.75 LIG 0.16  HD
BRANCH 17 19
ATOM     19  CA  GLY N 236      58.898  27.568  -3.651  1.00 57.52 LIG 0.23  C 
BRANCH 19 20
ATOM     20  C   GLY N 236      60.128  27.824  -2.801  1.00 60.52 LIG 0.19  C 
ATOM     21 OXT  GLY N 236      60.081  27.717  -1.576  1.00 61.85 LIG-0.65  OA
ATOM     22 O    GLY N 236      61.204  28.142  -3.305  1.00 62.19 LIG-0.65  OA
ENDBRANCH 19 20
ENDBRANCH 17 19
ENDBRANCH 10 15
ENDBRANCH 8 10
ENDBRANCH 5 6
BRANCH 5 23
ATOM     23  CB  LEU N 234      55.729  20.248  -1.785  1.00 79.47 LIG 0.04  C 
BRANCH 23 24
ATOM     24  CG  LEU N 234      55.898  20.330  -3.304  1.00 81.24 LIG-0.02  C 
ATOM     25  CD1 LEU N 234      54.771  21.128  -3.941  1.00 81.52 LIG 0.01  C 
ATOM     26  CD2 LEU N 234      57.253  20.930  -3.658  1.00 82.88 LIG 0.01  C 
ENDBRANCH 23 24
ENDBRANCH 5 23
ENDBRANCH 3 5
BRANCH 1 27
ATOM     27  CA  GLU N 233      56.719  21.024   2.874  1.00 71.40 LIG 0.18  C 
BRANCH 27 28
ATOM     28  CB  GLU N 233      57.566  19.821   3.300  1.00 70.45 LIG 0.04  C 
BRANCH 28 29
ATOM     29  CG  GLU N 233      56.787  18.697   3.956  1.00 66.32 LIG 0.12  C 
BRANCH 29 30
ATOM     30  CD  GLU N 233      56.259  17.691   2.950  1.00 63.12 LIG 0.17  C 
ATOM     31 OE1  GLU N 233      55.031  17.661   2.725  1.00 63.49 LIG-0.65  OA
ATOM     32 OE2  GLU N 233      57.071  16.926   2.388  1.00 60.69 LIG-0.65  OA
ENDBRANCH 29 30
ENDBRANCH 28 29
ENDBRANCH 27 28
BRANCH 27 33
ATOM     33  N   GLU N 233      55.287  20.758   3.039  1.00 74.02 LIG-0.35  N 
ATOM     34 H    GLU N 233      55.120  19.965   3.327  1.00 74.02 LIG 0.16  HD
ATOM     35  C   PRO N 232      54.331  21.645   2.772  1.00 90.40 LIG 0.24  C 
ATOM     36 O    PRO N 232      54.546  22.778   2.383  1.00 95.63 LIG-0.27  OA
BRANCH 35 37
ATOM     37  CA  PRO N 232      52.894  21.209   2.937  1.00 87.45 LIG 0.18  C 
ATOM     38  N   PRO N 232      52.492  21.138   4.335  1.00 90.22 LIG-0.34  N 
ATOM     39  C   ALA N 231      52.447  20.074   5.147  1.00 63.79 LIG 0.26  C 
ATOM     40  CD  PRO N 232      51.721  22.333   4.724  1.00 90.52 LIG 0.13  C 
ATOM     41 O    ALA N 231      52.233  20.136   6.353  1.00 66.65 LIG-0.27  OA
ATOM     42  CG  PRO N 232      51.806  23.214   3.500  1.00 87.66 LIG 0.02  C 
ATOM     43  CB  PRO N 232      51.952  22.268   2.368  1.00 84.55 LIG 0.04  C 
BRANCH 39 44
ATOM     44  CA  ALA N 231      52.697  18.728   4.503  1.00 62.23 LIG 0.40  C 
ATOM     45  CB  ALA N 231      51.455  17.853   4.600  1.00 54.17 LIG 0.06  C 
ATOM     46  N   ALA N 231      53.834  18.066   5.122  1.00 63.17 LIG 0.61  N 
ENDBRANCH 39 44
ENDBRANCH 35 37
ENDBRANCH 27 33
ENDBRANCH 1 27
TORSDOF 17
ENDMDL
MODEL 23
USER: ADFR SOLUTION from run 36
USER: SCORE 18.865562 LL:  -4.483 LR: -14.623 RR:   0.000 FEB:  -9.552
USER: RMSD 9.118822
USER: SEED 35
USER: STATUS no improvement in best in 5 clusters for 5 generations
USER: GENES 19
USER: genes 0 Translation |==|  0.63391 0.71680 0.43630
USER: genes 1 Rotation |==|  0.22838 0.72951 0.26688 0.76306
USER: genes 2 Torsion [C]-N--CA-[C] |==|  0.64783
USER: genes 3 Torsion [N]-CA--C-[N] |==|  0.33925
USER: genes 4 Torsion [C]-N--CA-[CB] |==|  0.83860
USER: genes 5 Torsion [N]-CA--CB-[CG] |==|  0.92094
USER: genes 6 Torsion [CA]-CB--CG-[CD1] |==|  0.36742
USER: genes 7 Torsion [N]-CA--C-[N] |==|  0.38226
USER: genes 8 Torsion [C]-N--CA-[C] |==|  0.76397
USER: genes 9 Torsion [N]-CA--C-[OXT] |==|  0.37948
USER: genes 10 Torsion [N]-CA--CB-[CG] |==|  0.01125
USER: genes 11 Torsion [CA]-CB--CG-[CD2] |==|  0.62707
USER: genes 12 Torsion [N]-C--CA-[N] |==|  0.93756
USER: genes 13 Torsion [C]-CA--CB-[CG] |==|  0.89136
USER: genes 14 Torsion [CA]-CB--CG-[CD] |==|  0.77985
USER: genes 15 Torsion [CB]-CG--CD-[OE1] |==|  0.17807
USER: genes 16 Torsion [C]-CA--N-[C] |==|  0.83889
USER: genes 17 Torsion [N]-C--CA-[N] |==|  0.30429
USER: genes 18 Torsion [N]-C--CA-[N] |==|  0.39047
ROOT
ATOM      1  C   GLU N 233      56.793  26.612   0.030  1.00 68.48 LIG 0.24  C 
ATOM      2 O    GLU N 233      55.624  26.930   0.006  1.00 65.22 LIG-0.27  OA
ATOM      3  N   LEU N 234      57.223  25.563  -0.645  1.00 77.80 LIG-0.35  N 
ATOM      4 H    LEU N 234      58.033  25.276  -0.622  1.00 77.80 LIG 0.16  HD
ENDROOT
BRANCH 3 5
ATOM      5  CA  LEU N 234      56.331  24.791  -1.502  1.00 75.39 LIG 0.18  C 
BRANCH 5 6
ATOM      6  C   LEU N 234      56.359  23.319  -1.171  1.00 71.67 LIG 0.24  C 
ATOM      7 O    LEU N 234      57.385  22.694  -1.223  1.00 71.06 LIG-0.27  OA
ATOM      8  N   LEU N 235      55.211  22.771  -0.843  1.00 52.85 LIG-0.35  N 
ATOM      9 H    LEU N 235      54.459  23.188  -0.859  1.00 52.85 LIG 0.16  HD
BRANCH 8 10
ATOM     10  CA  LEU N 235      55.117  21.375  -0.415  1.00 54.39 LIG 0.18  C 
BRANCH 10 11
ATOM     11  CB  LEU N 235      55.663  20.438  -1.493  1.00 50.34 LIG 0.04  C 
BRANCH 11 12
ATOM     12  CG  LEU N 235      55.537  20.967  -2.924  1.00 52.64 LIG-0.02  C 
ATOM     13  CD2 LEU N 235      54.414  20.278  -3.682  1.00 52.33 LIG 0.01  C 
ATOM     14  CD1 LEU N 235      56.856  20.802  -3.656  1.00 53.22 LIG 0.01  C 
ENDBRANCH 11 12
ENDBRANCH 10 11
BRANCH 10 15
ATOM     15  C   LEU N 235      55.859  21.140   0.907  1.00 52.64 LIG 0.24  C 
ATOM     16 O    LEU N 235      56.956  21.658   1.120  1.00 52.05 LIG-0.27  OA
ATOM     17  N   GLY N 236      55.232  20.367   1.791  1.00 57.75 LIG-0.35  N 
ATOM     18 H    GLY N 236      54.454  20.028   1.646  1.00 57.75 LIG 0.16  HD
BRANCH 17 19
ATOM     19  CA  GLY N 236      55.783  20.011   3.085  1.00 57.52 LIG 0.23  C 
BRANCH 19 20
ATOM     20  C   GLY N 236      56.701  18.806   3.021  1.00 60.52 LIG 0.19  C 
ATOM     21 OXT  GLY N 236      57.770  18.795   3.630  1.00 61.85 LIG-0.65  OA
ATOM     22 O    GLY N 236      56.409  17.808   2.365  1.00 62.19 LIG-0.65  OA
ENDBRANCH 19 20
ENDBRANCH 17 19
ENDBRANCH 10 15
ENDBRANCH 8 10
ENDBRANCH 5 6
BRANCH 5 23
ATOM     23  CB  LEU N 234      56.710  25.000  -2.972  1.00 79.47 LIG 0.04  C 
BRANCH 23 24
ATOM     24  CG  LEU N 234      57.944  25.849  -3.286  1.00 81.24 LIG-0.02  C 
ATOM     25  CD1 LEU N 234      59.135  24.975  -3.650  1.00 81.52 LIG 0.01  C 
ATOM     26  CD2 LEU N 234      57.639  26.841  -4.401  1.00 82.88 LIG 0.01  C 
ENDBRANCH 23 24
ENDBRANCH 5 23
ENDBRANCH 3 5
BRANCH 1 27
ATOM     27  CA  GLU N 233      57.809  27.414   0.847  1.00 71.40 LIG 0.18  C 
BRANCH 27 28
ATOM     28  CB  GLU N 233      58.206  28.683   0.086  1.00 70.45 LIG 0.04  C 
BRANCH 28 29
ATOM     29  CG  GLU N 233      58.366  28.502  -1.411  1.00 66.32 LIG 0.12  C 
BRANCH 29 30
ATOM     30  CD  GLU N 233      59.695  27.871  -1.783  1.00 63.12 LIG 0.17  C 
ATOM     31 OE1  GLU N 233      59.930  26.705  -1.401  1.00 63.49 LIG-0.65  OA
ATOM     32 OE2  GLU N 233      60.506  28.541  -2.454  1.00 60.69 LIG-0.65  OA
ENDBRANCH 29 30
ENDBRANCH 28 29
ENDBRANCH 27 28
BRANCH 27 33
ATOM     33  N   GLU N 233      58.978  26.590   1.165  1.00 74.02 LIG-0.35  N 
ATOM     34 H    GLU N 233      59.717  26.923   0.878  1.00 74.02 LIG 0.16  HD
ATOM     35  C   PRO N 232      58.917  25.440   1.832  1.00 90.40 LIG 0.24  C 
ATOM     36 O    PRO N 232      57.886  24.961   2.266  1.00 95.63 LIG-0.27  OA
BRANCH 35 37
ATOM     37  CA  PRO N 232      60.202  24.672   2.039  1.00 87.45 LIG 0.18  C 
ATOM     38  N   PRO N 232      60.644  24.691   3.426  1.00 90.22 LIG-0.34  N 
ATOM     39  C   ALA N 231      61.543  25.490   4.014  1.00 63.79 LIG 0.26  C 
ATOM     40  CD  PRO N 232      60.289  23.434   4.111  1.00 90.52 LIG 0.13  C 
ATOM     41 O    ALA N 231      61.745  25.529   5.224  1.00 66.65 LIG-0.27  OA
ATOM     42  CG  PRO N 232      59.464  22.699   3.081  1.00 87.66 LIG 0.02  C 
ATOM     43  CB  PRO N 232      59.976  23.184   1.777  1.00 84.55 LIG 0.04  C 
BRANCH 39 44
ATOM     44  CA  ALA N 231      62.330  26.402   3.099  1.00 62.23 LIG 0.40  C 
ATOM     45  CB  ALA N 231      63.678  25.782   2.761  1.00 54.17 LIG 0.06  C 
ATOM     46  N   ALA N 231      62.511  27.710   3.708  1.00 63.17 LIG 0.61  N 
ENDBRANCH 39 44
ENDBRANCH 35 37
ENDBRANCH 27 33
ENDBRANCH 1 27
TORSDOF 17
ENDMDL
MODEL 24
USER: ADFR SOLUTION from run 20
USER: SCORE 18.584050 LL:  -4.098 LR: -14.612 RR:   0.000 FEB:  -9.541
USER: RMSD 6.760532
USER: SEED 19
USER: STATUS 1 or 2 clusters left
USER: GENES 19
USER: genes 0 Translation |==|  0.62777 0.66895 0.45432
USER: genes 1 Rotation |==|  0.15251 0.50164 0.81656 0.67040
USER: genes 2 Torsion [C]-N--CA-[C] |==|  0.16001
USER: genes 3 Torsion [N]-CA--C-[N] |==|  0.11533
USER: genes 4 Torsion [C]-N--CA-[CB] |==|  0.84285
USER: genes 5 Torsion [N]-CA--CB-[CG] |==|  0.91121
USER: genes 6 Torsion [CA]-CB--CG-[CD1] |==|  0.34951
USER: genes 7 Torsion [N]-CA--C-[N] |==|  0.37666
USER: genes 8 Torsion [C]-N--CA-[C] |==|  0.75358
USER: genes 9 Torsion [N]-CA--C-[OXT] |==|  0.91054
USER: genes 10 Torsion [N]-CA--CB-[CG] |==|  0.74313
USER: genes 11 Torsion [CA]-CB--CG-[CD2] |==|  0.28606
USER: genes 12 Torsion [N]-C--CA-[N] |==|  0.35227
USER: genes 13 Torsion [C]-CA--CB-[CG] |==|  0.20891
USER: genes 14 Torsion [CA]-CB--CG-[CD] |==|  0.41051
USER: genes 15 Torsion [CB]-CG--CD-[OE1] |==|  0.72776
USER: genes 16 Torsion [C]-CA--N-[C] |==|  0.85556
USER: genes 17 Torsion [N]-C--CA-[N] |==|  0.22825
USER: genes 18 Torsion [N]-C--CA-[N] |==|  0.42304
ROOT
ATOM      1  C   GLU N 233      56.668  25.715   0.367  1.00 68.48 LIG 0.24  C 
ATOM      2 O    GLU N 233      57.537  24.958   0.744  1.00 65.22 LIG-0.27  OA
ATOM      3  N   LEU N 234      56.331  25.778  -0.907  1.00 77.80 LIG-0.35  N 
ATOM      4 H    LEU N 234      55.753  26.329  -1.224  1.00 77.80 LIG 0.16  HD
ENDROOT
BRANCH 3 5
ATOM      5  CA  LEU N 234      56.931  24.893  -1.897  1.00 75.39 LIG 0.18  C 
BRANCH 5 6
ATOM      6  C   LEU N 234      56.721  23.437  -1.559  1.00 71.67 LIG 0.24  C 
ATOM      7 O    LEU N 234      57.602  22.634  -1.715  1.00 71.06 LIG-0.27  OA
ATOM      8  N   LEU N 235      55.532  23.107  -1.106  1.00 52.85 LIG-0.35  N 
ATOM      9 H    LEU N 235      54.873  23.655  -1.046  1.00 52.85 LIG 0.16  HD
BRANCH 8 10
ATOM     10  CA  LEU N 235      55.228  21.747  -0.659  1.00 54.39 LIG 0.18  C 
BRANCH 10 11
ATOM     11  CB  LEU N 235      55.511  20.733  -1.769  1.00 50.34 LIG 0.04  C 
BRANCH 11 12
ATOM     12  CG  LEU N 235      55.283  21.260  -3.189  1.00 52.64 LIG-0.02  C 
ATOM     13  CD2 LEU N 235      54.081  20.601  -3.847  1.00 52.33 LIG 0.01  C 
ATOM     14  CD1 LEU N 235      56.532  21.053  -4.026  1.00 53.22 LIG 0.01  C 
ENDBRANCH 11 12
ENDBRANCH 10 11
BRANCH 10 15
ATOM     15  C   LEU N 235      56.022  21.377   0.600  1.00 52.64 LIG 0.24  C 
ATOM     16 O    LEU N 235      57.217  21.659   0.703  1.00 52.05 LIG-0.27  OA
ATOM     17  N   GLY N 236      55.332  20.760   1.556  1.00 57.75 LIG-0.35  N 
ATOM     18 H    GLY N 236      54.492  20.588   1.489  1.00 57.75 LIG 0.16  HD
BRANCH 17 19
ATOM     19  CA  GLY N 236      55.912  20.311   2.808  1.00 57.52 LIG 0.23  C 
BRANCH 19 20
ATOM     20  C   GLY N 236      56.475  18.905   2.724  1.00 60.52 LIG 0.19  C 
ATOM     21 OXT  GLY N 236      55.960  18.063   1.988  1.00 61.85 LIG-0.65  OA
ATOM     22 O    GLY N 236      57.456  18.563   3.381  1.00 62.19 LIG-0.65  OA
ENDBRANCH 19 20
ENDBRANCH 17 19
ENDBRANCH 10 15
ENDBRANCH 8 10
ENDBRANCH 5 6
BRANCH 5 23
ATOM     23  CB  LEU N 234      58.430  25.186  -2.021  1.00 79.47 LIG 0.04  C 
BRANCH 23 24
ATOM     24  CG  LEU N 234      58.883  26.189  -3.085  1.00 81.24 LIG-0.02  C 
ATOM     25  CD1 LEU N 234      57.828  26.356  -4.168  1.00 81.52 LIG 0.01  C 
ATOM     26  CD2 LEU N 234      59.219  27.530  -2.445  1.00 82.88 LIG 0.01  C 
ENDBRANCH 23 24
ENDBRANCH 5 23
ENDBRANCH 3 5
BRANCH 1 27
ATOM     27  CA  GLU N 233      55.937  26.626   1.356  1.00 71.40 LIG 0.18  C 
BRANCH 27 28
ATOM     28  CB  GLU N 233      56.884  27.721   1.857  1.00 70.45 LIG 0.04  C 
BRANCH 28 29
ATOM     29  CG  GLU N 233      57.157  28.830   0.859  1.00 66.32 LIG 0.12  C 
BRANCH 29 30
ATOM     30  CD  GLU N 233      57.387  30.172   1.529  1.00 63.12 LIG 0.17  C 
ATOM     31 OE1  GLU N 233      56.434  30.975   1.599  1.00 63.49 LIG-0.65  OA
ATOM     32 OE2  GLU N 233      58.523  30.426   1.981  1.00 60.69 LIG-0.65  OA
ENDBRANCH 29 30
ENDBRANCH 28 29
ENDBRANCH 27 28
BRANCH 27 33
ATOM     33  N   GLU N 233      55.385  25.844   2.466  1.00 74.02 LIG-0.35  N 
ATOM     34 H    GLU N 233      55.607  26.148   3.239  1.00 74.02 LIG 0.16  HD
ATOM     35  C   PRO N 232      54.617  24.768   2.307  1.00 90.40 LIG 0.24  C 
ATOM     36 O    PRO N 232      54.275  24.333   1.224  1.00 95.63 LIG-0.27  OA
BRANCH 35 37
ATOM     37  CA  PRO N 232      54.167  24.031   3.547  1.00 87.45 LIG 0.18  C 
ATOM     38  N   PRO N 232      53.003  24.648   4.169  1.00 90.22 LIG-0.34  N 
ATOM     39  C   ALA N 231      52.952  25.506   5.195  1.00 63.79 LIG 0.26  C 
ATOM     40  CD  PRO N 232      51.769  23.925   3.814  1.00 90.52 LIG 0.13  C 
ATOM     41 O    ALA N 231      51.933  26.087   5.558  1.00 66.65 LIG-0.27  OA
ATOM     42  CG  PRO N 232      52.242  22.903   2.807  1.00 87.66 LIG 0.02  C 
ATOM     43  CB  PRO N 232      53.654  22.641   3.176  1.00 84.55 LIG 0.04  C 
BRANCH 39 44
ATOM     44  CA  ALA N 231      54.254  25.764   5.920  1.00 62.23 LIG 0.40  C 
ATOM     45  CB  ALA N 231      54.490  24.701   6.984  1.00 54.17 LIG 0.06  C 
ATOM     46  N   ALA N 231      54.256  27.090   6.517  1.00 63.17 LIG 0.61  N 
ENDBRANCH 39 44
ENDBRANCH 35 37
ENDBRANCH 27 33
ENDBRANCH 1 27
TORSDOF 17
ENDMDL
MODEL 25
USER: ADFR SOLUTION from run 124
USER: SCORE 18.329132 LL:  -4.557 LR: -14.585 RR:   0.000 FEB:  -9.514
USER: RMSD 8.615526
USER: SEED 123
USER: STATUS no improvement in best in 3 clusters for 5 generations
USER: GENES 19
USER: genes 0 Translation |==|  0.64239 0.59582 0.32411
USER: genes 1 Rotation |==|  0.56433 0.25598 0.06837 0.50330
USER: genes 2 Torsion [C]-N--CA-[C] |==|  0.19250
USER: genes 3 Torsion [N]-CA--C-[N] |==|  0.19444
USER: genes 4 Torsion [C]-N--CA-[CB] |==|  0.84670
USER: genes 5 Torsion [N]-CA--CB-[CG] |==|  0.62788
USER: genes 6 Torsion [CA]-CB--CG-[CD1] |==|  0.16621
USER: genes 7 Torsion [N]-CA--C-[N] |==|  0.37641
USER: genes 8 Torsion [C]-N--CA-[C] |==|  0.53119
USER: genes 9 Torsion [N]-CA--C-[OXT] |==|  0.81743
USER: genes 10 Torsion [N]-CA--CB-[CG] |==|  0.53902
USER: genes 11 Torsion [CA]-CB--CG-[CD2] |==|  0.75237
USER: genes 12 Torsion [N]-C--CA-[N] |==|  0.10060
USER: genes 13 Torsion [C]-CA--CB-[CG] |==|  0.35831
USER: genes 14 Torsion [CA]-CB--CG-[CD] |==|  0.35790
USER: genes 15 Torsion [CB]-CG--CD-[OE1] |==|  0.91840
USER: genes 16 Torsion [C]-CA--N-[C] |==|  0.16549
USER: genes 17 Torsion [N]-C--CA-[N] |==|  0.62326
USER: genes 18 Torsion [N]-C--CA-[N] |==|  0.41423
ROOT
ATOM      1  C   GLU N 233      56.964  24.344  -2.074  1.00 68.48 LIG 0.24  C 
ATOM      2 O    GLU N 233      57.682  23.462  -2.494  1.00 65.22 LIG-0.27  OA
ATOM      3  N   LEU N 234      55.772  24.068  -1.580  1.00 77.80 LIG-0.35  N 
ATOM      4 H    LEU N 234      55.213  24.664  -1.313  1.00 77.80 LIG 0.16  HD
ENDROOT
BRANCH 3 5
ATOM      5  CA  LEU N 234      55.301  22.695  -1.450  1.00 75.39 LIG 0.18  C 
BRANCH 5 6
ATOM      6  C   LEU N 234      56.055  21.935  -0.386  1.00 71.67 LIG 0.24  C 
ATOM      7 O    LEU N 234      56.807  21.043  -0.680  1.00 71.06 LIG-0.27  OA
ATOM      8  N   LEU N 235      55.831  22.293   0.858  1.00 52.85 LIG-0.35  N 
ATOM      9 H    LEU N 235      55.253  22.885   1.090  1.00 52.85 LIG 0.16  HD
BRANCH 8 10
ATOM     10  CA  LEU N 235      56.565  21.696   1.976  1.00 54.39 LIG 0.18  C 
BRANCH 10 11
ATOM     11  CB  LEU N 235      56.434  20.172   1.960  1.00 50.34 LIG 0.04  C 
BRANCH 11 12
ATOM     12  CG  LEU N 235      56.109  19.544   3.317  1.00 52.64 LIG-0.02  C 
ATOM     13  CD2 LEU N 235      56.070  18.026   3.241  1.00 52.33 LIG 0.01  C 
ATOM     14  CD1 LEU N 235      54.792  20.087   3.839  1.00 53.22 LIG 0.01  C 
ENDBRANCH 11 12
ENDBRANCH 10 11
BRANCH 10 15
ATOM     15  C   LEU N 235      58.046  22.093   1.954  1.00 52.64 LIG 0.24  C 
ATOM     16 O    LEU N 235      58.689  22.089   0.904  1.00 52.05 LIG-0.27  OA
ATOM     17  N   GLY N 236      58.563  22.453   3.127  1.00 57.75 LIG-0.35  N 
ATOM     18 H    GLY N 236      58.102  22.478   3.853  1.00 57.75 LIG 0.16  HD
BRANCH 17 19
ATOM     19  CA  GLY N 236      59.950  22.838   3.312  1.00 57.52 LIG 0.23  C 
BRANCH 19 20
ATOM     20  C   GLY N 236      60.341  22.936   4.775  1.00 60.52 LIG 0.19  C 
ATOM     21 OXT  GLY N 236      59.842  23.791   5.505  1.00 61.85 LIG-0.65  OA
ATOM     22 O    GLY N 236      61.162  22.169   5.274  1.00 62.19 LIG-0.65  OA
ENDBRANCH 19 20
ENDBRANCH 17 19
ENDBRANCH 10 15
ENDBRANCH 8 10
ENDBRANCH 5 6
BRANCH 5 23
ATOM     23  CB  LEU N 234      55.427  21.969  -2.794  1.00 79.47 LIG 0.04  C 
BRANCH 23 24
ATOM     24  CG  LEU N 234      54.694  20.636  -2.964  1.00 81.24 LIG-0.02  C 
ATOM     25  CD1 LEU N 234      54.230  20.444  -4.400  1.00 81.52 LIG 0.01  C 
ATOM     26  CD2 LEU N 234      55.581  19.480  -2.522  1.00 82.88 LIG 0.01  C 
ENDBRANCH 23 24
ENDBRANCH 5 23
ENDBRANCH 3 5
BRANCH 1 27
ATOM     27  CA  GLU N 233      57.414  25.806  -2.107  1.00 71.40 LIG 0.18  C 
BRANCH 27 28
ATOM     28  CB  GLU N 233      58.939  25.882  -2.222  1.00 70.45 LIG 0.04  C 
BRANCH 28 29
ATOM     29  CG  GLU N 233      59.448  26.779  -3.334  1.00 66.32 LIG 0.12  C 
BRANCH 29 30
ATOM     30  CD  GLU N 233      60.482  27.779  -2.849  1.00 63.12 LIG 0.17  C 
ATOM     31 OE1  GLU N 233      60.420  28.174  -1.666  1.00 63.49 LIG-0.65  OA
ATOM     32 OE2  GLU N 233      61.354  28.172  -3.651  1.00 60.69 LIG-0.65  OA
ENDBRANCH 29 30
ENDBRANCH 28 29
ENDBRANCH 27 28
BRANCH 27 33
ATOM     33  N   GLU N 233      56.929  26.521  -0.923  1.00 74.02 LIG-0.35  N 
ATOM     34 H    GLU N 233      56.423  27.189  -1.112  1.00 74.02 LIG 0.16  HD
ATOM     35  C   PRO N 232      57.235  26.180   0.328  1.00 90.40 LIG 0.24  C 
ATOM     36 O    PRO N 232      57.932  25.227   0.620  1.00 95.63 LIG-0.27  OA
BRANCH 35 37
ATOM     37  CA  PRO N 232      56.704  27.045   1.447  1.00 87.45 LIG 0.18  C 
ATOM     38  N   PRO N 232      57.714  27.324   2.459  1.00 90.22 LIG-0.34  N 
ATOM     39  C   ALA N 231      57.929  26.709   3.628  1.00 63.79 LIG 0.26  C 
ATOM     40  CD  PRO N 232      58.289  28.669   2.274  1.00 90.52 LIG 0.13  C 
ATOM     41 O    ALA N 231      58.897  26.921   4.352  1.00 66.65 LIG-0.27  OA
ATOM     42  CG  PRO N 232      57.664  29.139   0.982  1.00 87.66 LIG 0.02  C 
ATOM     43  CB  PRO N 232      56.359  28.437   0.921  1.00 84.55 LIG 0.04  C 
BRANCH 39 44
ATOM     44  CA  ALA N 231      56.900  25.681   4.044  1.00 62.23 LIG 0.40  C 
ATOM     45  CB  ALA N 231      55.772  26.342   4.824  1.00 54.17 LIG 0.06  C 
ATOM     46  N   ALA N 231      57.517  24.628   4.836  1.00 63.17 LIG 0.61  N 
ENDBRANCH 39 44
ENDBRANCH 35 37
ENDBRANCH 27 33
ENDBRANCH 1 27
TORSDOF 17
ENDMDL
MODEL 26
USER: ADFR SOLUTION from run 159
USER: SCORE 17.182350 LL:  -4.763 LR: -14.574 RR:   0.000 FEB:  -9.503
USER: RMSD 4.644499
USER: SEED 158
USER: STATUS no improvement in best in 8 clusters for 5 generations
USER: GENES 19
USER: genes 0 Translation |==|  0.64331 0.42616 0.49514
USER: genes 1 Rotation |==|  0.30411 0.28741 0.89442 0.60423
USER: genes 2 Torsion [C]-N--CA-[C] |==|  0.79708
USER: genes 3 Torsion [N]-CA--C-[N] |==|  0.73732
USER: genes 4 Torsion [C]-N--CA-[CB] |==|  0.80999
USER: genes 5 Torsion [N]-CA--CB-[CG] |==|  0.30018
USER: genes 6 Torsion [CA]-CB--CG-[CD1] |==|  0.35809
USER: genes 7 Torsion [N]-CA--C-[N] |==|  0.50428
USER: genes 8 Torsion [C]-N--CA-[C] |==|  0.72618
USER: genes 9 Torsion [N]-CA--C-[OXT] |==|  0.52544
USER: genes 10 Torsion [N]-CA--CB-[CG] |==|  0.66545
USER: genes 11 Torsion [CA]-CB--CG-[CD2] |==|  0.86784
USER: genes 12 Torsion [N]-C--CA-[N] |==|  0.84286
USER: genes 13 Torsion [C]-CA--CB-[CG] |==|  0.49977
USER: genes 14 Torsion [CA]-CB--CG-[CD] |==|  0.92341
USER: genes 15 Torsion [CB]-CG--CD-[OE1] |==|  0.85843
USER: genes 16 Torsion [C]-CA--N-[C] |==|  0.19130
USER: genes 17 Torsion [N]-C--CA-[N] |==|  0.98578
USER: genes 18 Torsion [N]-C--CA-[N] |==|  0.35790
ROOT
ATOM      1  C   GLU N 233      56.983  21.163   1.133  1.00 68.48 LIG 0.24  C 
ATOM      2 O    GLU N 233      58.159  21.393   0.957  1.00 65.22 LIG-0.27  OA
ATOM      3  N   LEU N 234      56.104  21.352   0.167  1.00 77.80 LIG-0.35  N 
ATOM      4 H    LEU N 234      55.256  21.244   0.261  1.00 77.80 LIG 0.16  HD
ENDROOT
BRANCH 3 5
ATOM      5  CA  LEU N 234      56.517  21.771  -1.166  1.00 75.39 LIG 0.18  C 
BRANCH 5 6
ATOM      6  C   LEU N 234      56.943  23.218  -1.200  1.00 71.67 LIG 0.24  C 
ATOM      7 O    LEU N 234      58.065  23.538  -0.909  1.00 71.06 LIG-0.27  OA
ATOM      8  N   LEU N 235      56.023  24.091  -1.546  1.00 52.85 LIG-0.35  N 
ATOM      9 H    LEU N 235      55.202  23.887  -1.698  1.00 52.85 LIG 0.16  HD
BRANCH 8 10
ATOM     10  CA  LEU N 235      56.331  25.514  -1.703  1.00 54.39 LIG 0.18  C 
BRANCH 10 11
ATOM     11  CB  LEU N 235      56.658  26.152  -0.352  1.00 50.34 LIG 0.04  C 
BRANCH 11 12
ATOM     12  CG  LEU N 235      58.135  26.503  -0.152  1.00 52.64 LIG-0.02  C 
ATOM     13  CD2 LEU N 235      58.808  25.566   0.838  1.00 52.33 LIG 0.01  C 
ATOM     14  CD1 LEU N 235      58.268  27.945   0.301  1.00 53.22 LIG 0.01  C 
ENDBRANCH 11 12
ENDBRANCH 10 11
BRANCH 10 15
ATOM     15  C   LEU N 235      57.492  25.734  -2.680  1.00 52.64 LIG 0.24  C 
ATOM     16 O    LEU N 235      58.021  24.786  -3.263  1.00 52.05 LIG-0.27  OA
ATOM     17  N   GLY N 236      57.862  27.000  -2.860  1.00 57.75 LIG-0.35  N 
ATOM     18 H    GLY N 236      57.473  27.660  -2.470  1.00 57.75 LIG 0.16  HD
BRANCH 17 19
ATOM     19  CA  GLY N 236      58.954  27.406  -3.726  1.00 57.52 LIG 0.23  C 
BRANCH 19 20
ATOM     20  C   GLY N 236      60.241  27.663  -2.966  1.00 60.52 LIG 0.19  C 
ATOM     21 OXT  GLY N 236      61.212  28.173  -3.524  1.00 61.85 LIG-0.65  OA
ATOM     22 O    GLY N 236      60.355  27.374  -1.776  1.00 62.19 LIG-0.65  OA
ENDBRANCH 19 20
ENDBRANCH 17 19
ENDBRANCH 10 15
ENDBRANCH 8 10
ENDBRANCH 5 6
BRANCH 5 23
ATOM     23  CB  LEU N 234      55.375  21.543  -2.163  1.00 79.47 LIG 0.04  C 
BRANCH 23 24
ATOM     24  CG  LEU N 234      55.629  20.610  -3.349  1.00 81.24 LIG-0.02  C 
ATOM     25  CD1 LEU N 234      54.483  20.665  -4.348  1.00 81.52 LIG 0.01  C 
ATOM     26  CD2 LEU N 234      56.951  20.952  -4.023  1.00 82.88 LIG 0.01  C 
ENDBRANCH 23 24
ENDBRANCH 5 23
ENDBRANCH 3 5
BRANCH 1 27
ATOM     27  CA  GLU N 233      56.476  20.649   2.483  1.00 71.40 LIG 0.18  C 
BRANCH 27 28
ATOM     28  CB  GLU N 233      55.956  19.216   2.335  1.00 70.45 LIG 0.04  C 
BRANCH 28 29
ATOM     29  CG  GLU N 233      55.427  18.598   3.615  1.00 66.32 LIG 0.12  C 
BRANCH 29 30
ATOM     30  CD  GLU N 233      56.081  19.177   4.855  1.00 63.12 LIG 0.17  C 
ATOM     31 OE1  GLU N 233      57.327  19.222   4.908  1.00 63.49 LIG-0.65  OA
ATOM     32 OE2  GLU N 233      55.348  19.586   5.781  1.00 60.69 LIG-0.65  OA
ENDBRANCH 29 30
ENDBRANCH 28 29
ENDBRANCH 27 28
BRANCH 27 33
ATOM     33  N   GLU N 233      55.446  21.542   3.019  1.00 74.02 LIG-0.35  N 
ATOM     34 H    GLU N 233      55.700  21.975   3.717  1.00 74.02 LIG 0.16  HD
ATOM     35  C   PRO N 232      54.232  21.680   2.489  1.00 90.40 LIG 0.24  C 
ATOM     36 O    PRO N 232      53.858  21.093   1.491  1.00 95.63 LIG-0.27  OA
BRANCH 35 37
ATOM     37  CA  PRO N 232      53.255  22.598   3.185  1.00 87.45 LIG 0.18  C 
ATOM     38  N   PRO N 232      53.780  23.120   4.439  1.00 90.22 LIG-0.34  N 
ATOM     39  C   ALA N 231      53.576  22.679   5.687  1.00 63.79 LIG 0.26  C 
ATOM     40  CD  PRO N 232      54.285  24.494   4.269  1.00 90.52 LIG 0.13  C 
ATOM     41 O    ALA N 231      54.178  23.096   6.672  1.00 66.65 LIG-0.27  OA
ATOM     42  CG  PRO N 232      54.167  24.726   2.781  1.00 87.66 LIG 0.02  C 
ATOM     43  CB  PRO N 232      53.038  23.863   2.357  1.00 84.55 LIG 0.04  C 
BRANCH 39 44
ATOM     44  CA  ALA N 231      52.543  21.587   5.852  1.00 62.23 LIG 0.40  C 
ATOM     45  CB  ALA N 231      51.294  22.135   6.530  1.00 54.17 LIG 0.06  C 
ATOM     46  N   ALA N 231      53.088  20.475   6.614  1.00 63.17 LIG 0.61  N 
ENDBRANCH 39 44
ENDBRANCH 35 37
ENDBRANCH 27 33
ENDBRANCH 1 27
TORSDOF 17
ENDMDL
MODEL 27
USER: ADFR SOLUTION from run 195
USER: SCORE 17.391687 LL:  -4.117 LR: -14.524 RR:   0.000 FEB:  -9.452
USER: RMSD 5.353126
USER: SEED 194
USER: STATUS no improvement in best in 7 clusters for 5 generations
USER: GENES 19
USER: genes 0 Translation |==|  0.64659 0.44962 0.45628
USER: genes 1 Rotation |==|  0.26828 0.33821 0.88028 0.65973
USER: genes 2 Torsion [C]-N--CA-[C] |==|  0.76807
USER: genes 3 Torsion [N]-CA--C-[N] |==|  0.98517
USER: genes 4 Torsion [C]-N--CA-[CB] |==|  0.17222
USER: genes 5 Torsion [N]-CA--CB-[CG] |==|  0.67249
USER: genes 6 Torsion [CA]-CB--CG-[CD1] |==|  0.94287
USER: genes 7 Torsion [N]-CA--C-[N] |==|  0.66338
USER: genes 8 Torsion [C]-N--CA-[C] |==|  0.19925
USER: genes 9 Torsion [N]-CA--C-[OXT] |==|  0.28382
USER: genes 10 Torsion [N]-CA--CB-[CG] |==|  0.73566
USER: genes 11 Torsion [CA]-CB--CG-[CD2] |==|  0.46112
USER: genes 12 Torsion [N]-C--CA-[N] |==|  0.83525
USER: genes 13 Torsion [C]-CA--CB-[CG] |==|  0.38488
USER: genes 14 Torsion [CA]-CB--CG-[CD] |==|  0.79885
USER: genes 15 Torsion [CB]-CG--CD-[OE1] |==|  0.75083
USER: genes 16 Torsion [C]-CA--N-[C] |==|  0.18913
USER: genes 17 Torsion [N]-C--CA-[N] |==|  0.84651
USER: genes 18 Torsion [N]-C--CA-[N] |==|  0.25411
ROOT
ATOM      1  C   GLU N 233      57.049  21.602   0.404  1.00 68.48 LIG 0.24  C 
ATOM      2 O    GLU N 233      58.235  21.426   0.224  1.00 65.22 LIG-0.27  OA
ATOM      3  N   LEU N 234      56.265  21.990  -0.583  1.00 77.80 LIG-0.35  N 
ATOM      4 H    LEU N 234      55.429  22.169  -0.491  1.00 77.80 LIG 0.16  HD
ENDROOT
BRANCH 3 5
ATOM      5  CA  LEU N 234      56.771  22.148  -1.940  1.00 75.39 LIG 0.18  C 
BRANCH 5 6
ATOM      6  C   LEU N 234      57.426  23.492  -2.149  1.00 71.67 LIG 0.24  C 
ATOM      7 O    LEU N 234      57.995  23.748  -3.177  1.00 71.06 LIG-0.27  OA
ATOM      8  N   LEU N 235      57.351  24.341  -1.149  1.00 52.85 LIG-0.35  N 
ATOM      9 H    LEU N 235      57.002  24.153  -0.386  1.00 52.85 LIG 0.16  HD
BRANCH 8 10
ATOM     10  CA  LEU N 235      57.867  25.706  -1.257  1.00 54.39 LIG 0.18  C 
BRANCH 10 11
ATOM     11  CB  LEU N 235      57.126  26.483  -2.346  1.00 50.34 LIG 0.04  C 
BRANCH 11 12
ATOM     12  CG  LEU N 235      58.007  26.955  -3.506  1.00 52.64 LIG-0.02  C 
ATOM     13  CD2 LEU N 235      57.831  26.081  -4.738  1.00 52.33 LIG 0.01  C 
ATOM     14  CD1 LEU N 235      59.461  26.985  -3.075  1.00 53.22 LIG 0.01  C 
ENDBRANCH 11 12
ENDBRANCH 10 11
BRANCH 10 15
ATOM     15  C   LEU N 235      57.766  26.454   0.079  1.00 52.64 LIG 0.24  C 
ATOM     16 O    LEU N 235      58.340  26.035   1.085  1.00 52.05 LIG-0.27  OA
ATOM     17  N   GLY N 236      57.044  27.572   0.061  1.00 57.75 LIG-0.35  N 
ATOM     18 H    GLY N 236      56.666  27.872  -0.651  1.00 57.75 LIG 0.16  HD
BRANCH 17 19
ATOM     19  CA  GLY N 236      56.814  28.402   1.228  1.00 57.52 LIG 0.23  C 
BRANCH 19 20
ATOM     20  C   GLY N 236      58.053  29.163   1.661  1.00 60.52 LIG 0.19  C 
ATOM     21 OXT  GLY N 236      58.183  30.358   1.395  1.00 61.85 LIG-0.65  OA
ATOM     22 O    GLY N 236      58.959  28.617   2.287  1.00 62.19 LIG-0.65  OA
ENDBRANCH 19 20
ENDBRANCH 17 19
ENDBRANCH 10 15
ENDBRANCH 8 10
ENDBRANCH 5 6
BRANCH 5 23
ATOM     23  CB  LEU N 234      55.632  21.964  -2.949  1.00 79.47 LIG 0.04  C 
BRANCH 23 24
ATOM     24  CG  LEU N 234      55.435  20.579  -3.570  1.00 81.24 LIG-0.02  C 
ATOM     25  CD1 LEU N 234      55.581  19.482  -2.526  1.00 81.52 LIG 0.01  C 
ATOM     26  CD2 LEU N 234      54.081  20.492  -4.261  1.00 82.88 LIG 0.01  C 
ENDBRANCH 23 24
ENDBRANCH 5 23
ENDBRANCH 3 5
BRANCH 1 27
ATOM     27  CA  GLU N 233      56.424  21.387   1.784  1.00 71.40 LIG 0.18  C 
BRANCH 27 28
ATOM     28  CB  GLU N 233      55.416  20.235   1.727  1.00 70.45 LIG 0.04  C 
BRANCH 28 29
ATOM     29  CG  GLU N 233      55.458  19.294   2.916  1.00 66.32 LIG 0.12  C 
BRANCH 29 30
ATOM     30  CD  GLU N 233      56.688  18.405   2.912  1.00 63.12 LIG 0.17  C 
ATOM     31 OE1  GLU N 233      56.626  17.303   2.328  1.00 63.49 LIG-0.65  OA
ATOM     32 OE2  GLU N 233      57.716  18.806   3.496  1.00 60.69 LIG-0.65  OA
ENDBRANCH 29 30
ENDBRANCH 28 29
ENDBRANCH 27 28
BRANCH 27 33
ATOM     33  N   GLU N 233      55.800  22.623   2.266  1.00 74.02 LIG-0.35  N 
ATOM     34 H    GLU N 233      56.205  22.967   2.941  1.00 74.02 LIG 0.16  HD
ATOM     35  C   PRO N 232      54.715  23.169   1.721  1.00 90.40 LIG 0.24  C 
ATOM     36 O    PRO N 232      54.139  22.711   0.752  1.00 95.63 LIG-0.27  OA
BRANCH 35 37
ATOM     37  CA  PRO N 232      54.153  24.417   2.360  1.00 87.45 LIG 0.18  C 
ATOM     38  N   PRO N 232      53.862  24.233   3.775  1.00 90.22 LIG-0.34  N 
ATOM     39  C   ALA N 231      52.697  23.937   4.365  1.00 63.79 LIG 0.26  C 
ATOM     40  CD  PRO N 232      54.930  24.806   4.613  1.00 90.52 LIG 0.13  C 
ATOM     41 O    ALA N 231      52.577  23.658   5.554  1.00 66.65 LIG-0.27  OA
ATOM     42  CG  PRO N 232      55.975  25.226   3.605  1.00 87.66 LIG 0.02  C 
ATOM     43  CB  PRO N 232      55.206  25.523   2.373  1.00 84.55 LIG 0.04  C 
BRANCH 39 44
ATOM     44  CA  ALA N 231      51.474  23.940   3.474  1.00 62.23 LIG 0.40  C 
ATOM     45  CB  ALA N 231      50.255  24.424   4.246  1.00 54.17 LIG 0.06  C 
ATOM     46  N   ALA N 231      51.235  22.615   2.925  1.00 63.17 LIG 0.61  N 
ENDBRANCH 39 44
ENDBRANCH 35 37
ENDBRANCH 27 33
ENDBRANCH 1 27
TORSDOF 17
ENDMDL
MODEL 28
USER: ADFR SOLUTION from run 42
USER: SCORE 17.026386 LL:  -4.690 LR: -14.483 RR:   0.000 FEB:  -9.412
USER: RMSD 8.710716
USER: SEED 41
USER: STATUS no improvement in best in 3 clusters for 5 generations
USER: GENES 19
USER: genes 0 Translation |==|  0.62432 0.61165 0.32160
USER: genes 1 Rotation |==|  0.30861 0.42384 0.05144 0.57974
USER: genes 2 Torsion [C]-N--CA-[C] |==|  0.52268
USER: genes 3 Torsion [N]-CA--C-[N] |==|  0.79633
USER: genes 4 Torsion [C]-N--CA-[CB] |==|  0.21460
USER: genes 5 Torsion [N]-CA--CB-[CG] |==|  0.39342
USER: genes 6 Torsion [CA]-CB--CG-[CD1] |==|  0.27232
USER: genes 7 Torsion [N]-CA--C-[N] |==|  0.36108
USER: genes 8 Torsion [C]-N--CA-[C] |==|  0.73550
USER: genes 9 Torsion [N]-CA--C-[OXT] |==|  0.98591
USER: genes 10 Torsion [N]-CA--CB-[CG] |==|  0.71896
USER: genes 11 Torsion [CA]-CB--CG-[CD2] |==|  0.77839
USER: genes 12 Torsion [N]-C--CA-[N] |==|  0.97688
USER: genes 13 Torsion [C]-CA--CB-[CG] |==|  0.37884
USER: genes 14 Torsion [CA]-CB--CG-[CD] |==|  0.30388
USER: genes 15 Torsion [CB]-CG--CD-[OE1] |==|  0.86789
USER: genes 16 Torsion [C]-CA--N-[C] |==|  0.76727
USER: genes 17 Torsion [N]-C--CA-[N] |==|  0.88072
USER: genes 18 Torsion [N]-C--CA-[N] |==|  0.25809
ROOT
ATOM      1  C   GLU N 233      56.598  24.640  -2.121  1.00 68.48 LIG 0.24  C 
ATOM      2 O    GLU N 233      56.216  24.260  -3.206  1.00 65.22 LIG-0.27  OA
ATOM      3  N   LEU N 234      56.349  23.939  -1.031  1.00 77.80 LIG-0.35  N 
ATOM      4 H    LEU N 234      56.562  24.192  -0.238  1.00 77.80 LIG 0.16  HD
ENDROOT
BRANCH 3 5
ATOM      5  CA  LEU N 234      55.673  22.649  -1.095  1.00 75.39 LIG 0.18  C 
BRANCH 5 6
ATOM      6  C   LEU N 234      55.320  22.125   0.275  1.00 71.67 LIG 0.24  C 
ATOM      7 O    LEU N 234      54.184  22.142   0.669  1.00 71.06 LIG-0.27  OA
ATOM      8  N   LEU N 235      56.316  21.673   1.004  1.00 52.85 LIG-0.35  N 
ATOM      9 H    LEU N 235      57.141  21.709   0.763  1.00 52.85 LIG 0.16  HD
BRANCH 8 10
ATOM     10  CA  LEU N 235      56.096  21.057   2.313  1.00 54.39 LIG 0.18  C 
BRANCH 10 11
ATOM     11  CB  LEU N 235      55.581  19.625   2.161  1.00 50.34 LIG 0.04  C 
BRANCH 11 12
ATOM     12  CG  LEU N 235      56.142  18.632   3.182  1.00 52.64 LIG-0.02  C 
ATOM     13  CD2 LEU N 235      56.484  17.297   2.540  1.00 52.33 LIG 0.01  C 
ATOM     14  CD1 LEU N 235      55.155  18.442   4.318  1.00 53.22 LIG 0.01  C 
ENDBRANCH 11 12
ENDBRANCH 10 11
BRANCH 10 15
ATOM     15  C   LEU N 235      57.374  21.066   3.162  1.00 52.64 LIG 0.24  C 
ATOM     16 O    LEU N 235      58.446  20.672   2.699  1.00 52.05 LIG-0.27  OA
ATOM     17  N   GLY N 236      57.241  21.537   4.400  1.00 57.75 LIG-0.35  N 
ATOM     18 H    GLY N 236      56.495  21.834   4.708  1.00 57.75 LIG 0.16  HD
BRANCH 17 19
ATOM     19  CA  GLY N 236      58.328  21.604   5.358  1.00 57.52 LIG 0.23  C 
BRANCH 19 20
ATOM     20  C   GLY N 236      58.367  20.403   6.285  1.00 60.52 LIG 0.19  C 
ATOM     21 OXT  GLY N 236      57.484  19.547   6.245  1.00 61.85 LIG-0.65  OA
ATOM     22 O    GLY N 236      59.277  20.246   7.097  1.00 62.19 LIG-0.65  OA
ENDBRANCH 19 20
ENDBRANCH 17 19
ENDBRANCH 10 15
ENDBRANCH 8 10
ENDBRANCH 5 6
BRANCH 5 23
ATOM     23  CB  LEU N 234      56.556  21.633  -1.828  1.00 79.47 LIG 0.04  C 
BRANCH 23 24
ATOM     24  CG  LEU N 234      56.232  21.319  -3.290  1.00 81.24 LIG-0.02  C 
ATOM     25  CD1 LEU N 234      57.454  20.783  -4.021  1.00 81.52 LIG 0.01  C 
ATOM     26  CD2 LEU N 234      55.073  20.335  -3.380  1.00 82.88 LIG 0.01  C 
ENDBRANCH 23 24
ENDBRANCH 5 23
ENDBRANCH 3 5
BRANCH 1 27
ATOM     27  CA  GLU N 233      57.379  25.949  -1.977  1.00 71.40 LIG 0.18  C 
BRANCH 27 28
ATOM     28  CB  GLU N 233      58.727  25.835  -2.695  1.00 70.45 LIG 0.04  C 
BRANCH 28 29
ATOM     29  CG  GLU N 233      59.110  27.047  -3.521  1.00 66.32 LIG 0.12  C 
BRANCH 29 30
ATOM     30  CD  GLU N 233      60.259  27.830  -2.911  1.00 63.12 LIG 0.17  C 
ATOM     31 OE1  GLU N 233      60.213  28.106  -1.694  1.00 63.49 LIG-0.65  OA
ATOM     32 OE2  GLU N 233      61.206  28.172  -3.649  1.00 60.69 LIG-0.65  OA
ENDBRANCH 29 30
ENDBRANCH 28 29
ENDBRANCH 27 28
BRANCH 27 33
ATOM     33  N   GLU N 233      57.551  26.292  -0.562  1.00 74.02 LIG-0.35  N 
ATOM     34 H    GLU N 233      58.307  26.039  -0.241  1.00 74.02 LIG 0.16  HD
ATOM     35  C   PRO N 232      56.637  26.932   0.164  1.00 90.40 LIG 0.24  C 
ATOM     36 O    PRO N 232      55.570  27.318  -0.276  1.00 95.63 LIG-0.27  OA
BRANCH 35 37
ATOM     37  CA  PRO N 232      56.933  27.169   1.626  1.00 87.45 LIG 0.18  C 
ATOM     38  N   PRO N 232      57.516  26.001   2.272  1.00 90.22 LIG-0.34  N 
ATOM     39  C   ALA N 231      56.915  25.052   3.000  1.00 63.79 LIG 0.26  C 
ATOM     40  CD  PRO N 232      58.978  26.143   2.398  1.00 90.52 LIG 0.13  C 
ATOM     41 O    ALA N 231      57.466  24.024   3.383  1.00 66.65 LIG-0.27  OA
ATOM     42  CG  PRO N 232      59.269  27.421   1.648  1.00 87.66 LIG 0.02  C 
ATOM     43  CB  PRO N 232      58.028  28.222   1.779  1.00 84.55 LIG 0.04  C 
BRANCH 39 44
ATOM     44  CA  ALA N 231      55.460  25.287   3.339  1.00 62.23 LIG 0.40  C 
ATOM     45  CB  ALA N 231      55.145  24.754   4.730  1.00 54.17 LIG 0.06  C 
ATOM     46  N   ALA N 231      54.594  24.666   2.349  1.00 63.17 LIG 0.61  N 
ENDBRANCH 39 44
ENDBRANCH 35 37
ENDBRANCH 27 33
ENDBRANCH 1 27
TORSDOF 17
ENDMDL
MODEL 29
USER: ADFR SOLUTION from run 38
USER: SCORE 17.886556 LL:  -4.315 LR: -14.423 RR:   0.000 FEB:  -9.352
USER: RMSD 8.296897
USER: SEED 37
USER: STATUS no improvement in best in 4 clusters for 5 generations
USER: GENES 19
USER: genes 0 Translation |==|  0.70822 0.68871 0.45959
USER: genes 1 Rotation |==|  0.89348 0.78126 0.59356 0.58551
USER: genes 2 Torsion [C]-N--CA-[C] |==|  0.17507
USER: genes 3 Torsion [N]-CA--C-[N] |==|  0.11089
USER: genes 4 Torsion [C]-N--CA-[CB] |==|  0.78504
USER: genes 5 Torsion [N]-CA--CB-[CG] |==|  0.84902
USER: genes 6 Torsion [CA]-CB--CG-[CD1] |==|  0.90775
USER: genes 7 Torsion [N]-CA--C-[N] |==|  0.15085
USER: genes 8 Torsion [C]-N--CA-[C] |==|  0.76327
USER: genes 9 Torsion [N]-CA--C-[OXT] |==|  0.35294
USER: genes 10 Torsion [N]-CA--CB-[CG] |==|  0.83154
USER: genes 11 Torsion [CA]-CB--CG-[CD2] |==|  0.58446
USER: genes 12 Torsion [N]-C--CA-[N] |==|  0.51105
USER: genes 13 Torsion [C]-CA--CB-[CG] |==|  0.33478
USER: genes 14 Torsion [CA]-CB--CG-[CD] |==|  0.73299
USER: genes 15 Torsion [CB]-CG--CD-[OE1] |==|  0.52814
USER: genes 16 Torsion [C]-CA--N-[C] |==|  0.77113
USER: genes 17 Torsion [N]-C--CA-[N] |==|  0.44078
USER: genes 18 Torsion [N]-C--CA-[N] |==|  0.21614
ROOT
ATOM      1  C   GLU N 233      58.297  26.085   0.466  1.00 68.48 LIG 0.24  C 
ATOM      2 O    GLU N 233      57.633  25.684   1.397  1.00 65.22 LIG-0.27  OA
ATOM      3  N   LEU N 234      59.330  26.883   0.665  1.00 77.80 LIG-0.35  N 
ATOM      4 H    LEU N 234      59.801  27.226   0.033  1.00 77.80 LIG 0.16  HD
ENDROOT
BRANCH 3 5
ATOM      5  CA  LEU N 234      59.759  27.252   2.008  1.00 75.39 LIG 0.18  C 
BRANCH 5 6
ATOM      6  C   LEU N 234      60.217  26.056   2.806  1.00 71.67 LIG 0.24  C 
ATOM      7 O    LEU N 234      59.952  25.956   3.975  1.00 71.06 LIG-0.27  OA
ATOM      8  N   LEU N 235      60.923  25.156   2.159  1.00 52.85 LIG-0.35  N 
ATOM      9 H    LEU N 235      61.173  25.240   1.341  1.00 52.85 LIG 0.16  HD
BRANCH 8 10
ATOM     10  CA  LEU N 235      61.351  23.909   2.795  1.00 54.39 LIG 0.18  C 
BRANCH 10 11
ATOM     11  CB  LEU N 235      62.546  24.151   3.719  1.00 50.34 LIG 0.04  C 
BRANCH 11 12
ATOM     12  CG  LEU N 235      63.738  24.844   3.053  1.00 52.64 LIG-0.02  C 
ATOM     13  CD2 LEU N 235      63.646  26.357   3.168  1.00 52.33 LIG 0.01  C 
ATOM     14  CD1 LEU N 235      63.838  24.422   1.599  1.00 53.22 LIG 0.01  C 
ENDBRANCH 11 12
ENDBRANCH 10 11
BRANCH 10 15
ATOM     15  C   LEU N 235      60.207  23.256   3.581  1.00 52.64 LIG 0.24  C 
ATOM     16 O    LEU N 235      60.335  22.976   4.774  1.00 52.05 LIG-0.27  OA
ATOM     17  N   GLY N 236      59.087  23.037   2.894  1.00 57.75 LIG-0.35  N 
ATOM     18 H    GLY N 236      58.996  23.257   2.068  1.00 57.75 LIG 0.16  HD
BRANCH 17 19
ATOM     19  CA  GLY N 236      57.907  22.409   3.457  1.00 57.52 LIG 0.23  C 
BRANCH 19 20
ATOM     20  C   GLY N 236      57.965  20.894   3.400  1.00 60.52 LIG 0.19  C 
ATOM     21 OXT  GLY N 236      57.785  20.218   4.413  1.00 61.85 LIG-0.65  OA
ATOM     22 O    GLY N 236      58.188  20.297   2.349  1.00 62.19 LIG-0.65  OA
ENDBRANCH 19 20
ENDBRANCH 17 19
ENDBRANCH 10 15
ENDBRANCH 8 10
ENDBRANCH 5 6
BRANCH 5 23
ATOM     23  CB  LEU N 234      58.618  27.962   2.745  1.00 79.47 LIG 0.04  C 
BRANCH 23 24
ATOM     24  CG  LEU N 234      58.077  29.265   2.151  1.00 81.24 LIG-0.02  C 
ATOM     25  CD1 LEU N 234      56.988  28.992   1.126  1.00 81.52 LIG 0.01  C 
ATOM     26  CD2 LEU N 234      57.565  30.181   3.255  1.00 82.88 LIG 0.01  C 
ENDBRANCH 23 24
ENDBRANCH 5 23
ENDBRANCH 3 5
BRANCH 1 27
ATOM     27  CA  GLU N 233      57.958  25.685  -0.971  1.00 71.40 LIG 0.18  C 
BRANCH 27 28
ATOM     28  CB  GLU N 233      57.831  26.935  -1.846  1.00 70.45 LIG 0.04  C 
BRANCH 28 29
ATOM     29  CG  GLU N 233      58.791  26.989  -3.019  1.00 66.32 LIG 0.12  C 
BRANCH 29 30
ATOM     30  CD  GLU N 233      60.040  27.795  -2.713  1.00 63.12 LIG 0.17  C 
ATOM     31 OE1  GLU N 233      60.815  28.075  -3.651  1.00 63.49 LIG-0.65  OA
ATOM     32 OE2  GLU N 233      60.250  28.145  -1.533  1.00 60.69 LIG-0.65  OA
ENDBRANCH 29 30
ENDBRANCH 28 29
ENDBRANCH 27 28
BRANCH 27 33
ATOM     33  N   GLU N 233      56.734  24.879  -1.006  1.00 74.02 LIG-0.35  N 
ATOM     34 H    GLU N 233      56.032  25.336  -1.198  1.00 74.02 LIG 0.16  HD
ATOM     35  C   PRO N 232      56.699  23.570  -0.765  1.00 90.40 LIG 0.24  C 
ATOM     36 O    PRO N 232      57.682  22.900  -0.511  1.00 95.63 LIG-0.27  OA
BRANCH 35 37
ATOM     37  CA  PRO N 232      55.354  22.883  -0.782  1.00 87.45 LIG 0.18  C 
ATOM     38  N   PRO N 232      55.466  21.447  -1.003  1.00 90.22 LIG-0.34  N 
ATOM     39  C   ALA N 231      55.341  20.757  -2.142  1.00 63.79 LIG 0.26  C 
ATOM     40  CD  PRO N 232      55.344  20.707   0.267  1.00 90.52 LIG 0.13  C 
ATOM     41 O    ALA N 231      55.597  19.562  -2.256  1.00 66.65 LIG-0.27  OA
ATOM     42  CG  PRO N 232      55.297  21.804   1.305  1.00 87.66 LIG 0.02  C 
ATOM     43  CB  PRO N 232      54.702  22.963   0.597  1.00 84.55 LIG 0.04  C 
BRANCH 39 44
ATOM     44  CA  ALA N 231      54.869  21.535  -3.350  1.00 62.23 LIG 0.40  C 
ATOM     45  CB  ALA N 231      54.297  20.592  -4.400  1.00 54.17 LIG 0.06  C 
ATOM     46  N   ALA N 231      55.955  22.323  -3.912  1.00 63.17 LIG 0.61  N 
ENDBRANCH 39 44
ENDBRANCH 35 37
ENDBRANCH 27 33
ENDBRANCH 1 27
TORSDOF 17
ENDMDL
MODEL 30
USER: ADFR SOLUTION from run 145
USER: SCORE 16.541616 LL:  -5.342 LR: -14.409 RR:   0.000 FEB:  -9.338
USER: RMSD 2.929693
USER: SEED 144
USER: STATUS no improvement in best in 8 clusters for 5 generations
USER: GENES 19
USER: genes 0 Translation |==|  0.65092 0.57617 0.56824
USER: genes 1 Rotation |==|  0.38617 0.19763 0.85984 0.62702
USER: genes 2 Torsion [C]-N--CA-[C] |==|  0.17788
USER: genes 3 Torsion [N]-CA--C-[N] |==|  0.31359
USER: genes 4 Torsion [C]-N--CA-[CB] |==|  0.40313
USER: genes 5 Torsion [N]-CA--CB-[CG] |==|  0.84510
USER: genes 6 Torsion [CA]-CB--CG-[CD1] |==|  0.54320
USER: genes 7 Torsion [N]-CA--C-[N] |==|  0.15018
USER: genes 8 Torsion [C]-N--CA-[C] |==|  0.57519
USER: genes 9 Torsion [N]-CA--C-[OXT] |==|  0.89448
USER: genes 10 Torsion [N]-CA--CB-[CG] |==|  0.36077
USER: genes 11 Torsion [CA]-CB--CG-[CD2] |==|  0.66884
USER: genes 12 Torsion [N]-C--CA-[N] |==|  0.01215
USER: genes 13 Torsion [C]-CA--CB-[CG] |==|  0.46274
USER: genes 14 Torsion [CA]-CB--CG-[CD] |==|  0.26929
USER: genes 15 Torsion [CB]-CG--CD-[OE1] |==|  0.66901
USER: genes 16 Torsion [C]-CA--N-[C] |==|  0.19312
USER: genes 17 Torsion [N]-C--CA-[N] |==|  0.98990
USER: genes 18 Torsion [N]-C--CA-[N] |==|  0.39716
ROOT
ATOM      1  C   GLU N 233      57.137  23.975   2.504  1.00 68.48 LIG 0.24  C 
ATOM      2 O    GLU N 233      58.211  24.501   2.306  1.00 65.22 LIG-0.27  OA
ATOM      3  N   LEU N 234      56.063  24.359   1.841  1.00 77.80 LIG-0.35  N 
ATOM      4 H    LEU N 234      55.275  24.046   1.980  1.00 77.80 LIG 0.16  HD
ENDROOT
BRANCH 3 5
ATOM      5  CA  LEU N 234      56.135  25.372   0.795  1.00 75.39 LIG 0.18  C 
BRANCH 5 6
ATOM      6  C   LEU N 234      56.973  24.921  -0.376  1.00 71.67 LIG 0.24  C 
ATOM      7 O    LEU N 234      58.161  24.768  -0.262  1.00 71.06 LIG-0.27  OA
ATOM      8  N   LEU N 235      56.338  24.724  -1.509  1.00 52.85 LIG-0.35  N 
ATOM      9 H    LEU N 235      55.501  24.886  -1.624  1.00 52.85 LIG 0.16  HD
BRANCH 8 10
ATOM     10  CA  LEU N 235      57.019  24.201  -2.694  1.00 54.39 LIG 0.18  C 
BRANCH 10 11
ATOM     11  CB  LEU N 235      56.087  23.297  -3.502  1.00 50.34 LIG 0.04  C 
BRANCH 11 12
ATOM     12  CG  LEU N 235      55.483  22.132  -2.714  1.00 52.64 LIG-0.02  C 
ATOM     13  CD2 LEU N 235      56.504  21.489  -1.788  1.00 52.33 LIG 0.01  C 
ATOM     14  CD1 LEU N 235      54.904  21.104  -3.668  1.00 53.22 LIG 0.01  C 
ENDBRANCH 11 12
ENDBRANCH 10 11
BRANCH 10 15
ATOM     15  C   LEU N 235      57.551  25.332  -3.583  1.00 52.64 LIG 0.24  C 
ATOM     16 O    LEU N 235      57.244  25.401  -4.774  1.00 52.05 LIG-0.27  OA
ATOM     17  N   GLY N 236      58.335  26.221  -2.977  1.00 57.75 LIG-0.35  N 
ATOM     18 H    GLY N 236      58.525  26.182  -2.139  1.00 57.75 LIG 0.16  HD
BRANCH 17 19
ATOM     19  CA  GLY N 236      58.951  27.346  -3.655  1.00 57.52 LIG 0.23  C 
BRANCH 19 20
ATOM     20  C   GLY N 236      60.238  27.798  -2.991  1.00 60.52 LIG 0.19  C 
ATOM     21 OXT  GLY N 236      60.348  27.800  -1.765  1.00 61.85 LIG-0.65  OA
ATOM     22 O    GLY N 236      61.206  28.172  -3.651  1.00 62.19 LIG-0.65  OA
ENDBRANCH 19 20
ENDBRANCH 17 19
ENDBRANCH 10 15
ENDBRANCH 8 10
ENDBRANCH 5 6
BRANCH 5 23
ATOM     23  CB  LEU N 234      56.703  26.675   1.368  1.00 79.47 LIG 0.04  C 
BRANCH 23 24
ATOM     24  CG  LEU N 234      57.859  27.347   0.623  1.00 81.24 LIG-0.02  C 
ATOM     25  CD1 LEU N 234      57.458  28.724   0.115  1.00 81.52 LIG 0.01  C 
ATOM     26  CD2 LEU N 234      59.090  27.436   1.516  1.00 82.88 LIG 0.01  C 
ENDBRANCH 23 24
ENDBRANCH 5 23
ENDBRANCH 3 5
BRANCH 1 27
ATOM     27  CA  GLU N 233      56.990  22.852   3.533  1.00 71.40 LIG 0.18  C 
BRANCH 27 28
ATOM     28  CB  GLU N 233      58.026  21.756   3.263  1.00 70.45 LIG 0.04  C 
BRANCH 28 29
ATOM     29  CG  GLU N 233      58.196  20.753   4.387  1.00 66.32 LIG 0.12  C 
BRANCH 29 30
ATOM     30  CD  GLU N 233      57.389  19.488   4.167  1.00 63.12 LIG 0.17  C 
ATOM     31 OE1  GLU N 233      56.513  19.185   5.004  1.00 63.49 LIG-0.65  OA
ATOM     32 OE2  GLU N 233      57.632  18.793   3.158  1.00 60.69 LIG-0.65  OA
ENDBRANCH 29 30
ENDBRANCH 28 29
ENDBRANCH 27 28
BRANCH 27 33
ATOM     33  N   GLU N 233      55.626  22.316   3.519  1.00 74.02 LIG-0.35  N 
ATOM     34 H    GLU N 233      55.178  22.509   4.226  1.00 74.02 LIG 0.16  HD
ATOM     35  C   PRO N 232      55.118  21.602   2.516  1.00 90.40 LIG 0.24  C 
ATOM     36 O    PRO N 232      55.727  21.336   1.497  1.00 95.63 LIG-0.27  OA
BRANCH 35 37
ATOM     37  CA  PRO N 232      53.712  21.069   2.667  1.00 87.45 LIG 0.18  C 
ATOM     38  N   PRO N 232      53.143  21.366   3.974  1.00 90.22 LIG-0.34  N 
ATOM     39  C   ALA N 231      53.082  20.592   5.063  1.00 63.79 LIG 0.26  C 
ATOM     40  CD  PRO N 232      52.233  22.525   3.902  1.00 90.52 LIG 0.13  C 
ATOM     41 O    ALA N 231      52.711  20.981   6.167  1.00 66.65 LIG-0.27  OA
ATOM     42  CG  PRO N 232      52.401  23.010   2.481  1.00 87.66 LIG 0.02  C 
ATOM     43  CB  PRO N 232      52.767  21.796   1.713  1.00 84.55 LIG 0.04  C 
BRANCH 39 44
ATOM     44  CA  ALA N 231      53.522  19.154   4.890  1.00 62.23 LIG 0.40  C 
ATOM     45  CB  ALA N 231      52.322  18.263   4.599  1.00 54.17 LIG 0.06  C 
ATOM     46  N   ALA N 231      54.227  18.687   6.073  1.00 63.17 LIG 0.61  N 
ENDBRANCH 39 44
ENDBRANCH 35 37
ENDBRANCH 27 33
ENDBRANCH 1 27
TORSDOF 17
ENDMDL
MODEL 31
USER: ADFR SOLUTION from run 104
USER: SCORE 18.176519 LL:  -4.062 LR: -14.338 RR:   0.000 FEB:  -9.266
USER: RMSD 8.372677
USER: SEED 103
USER: STATUS no improvement in best in 4 clusters for 5 generations
USER: GENES 19
USER: genes 0 Translation |==|  0.69656 0.64141 0.51135
USER: genes 1 Rotation |==|  0.40025 0.71262 0.93558 0.57147
USER: genes 2 Torsion [C]-N--CA-[C] |==|  0.84932
USER: genes 3 Torsion [N]-CA--C-[N] |==|  0.90706
USER: genes 4 Torsion [C]-N--CA-[CB] |==|  0.18889
USER: genes 5 Torsion [N]-CA--CB-[CG] |==|  0.71521
USER: genes 6 Torsion [CA]-CB--CG-[CD1] |==|  0.54191
USER: genes 7 Torsion [N]-CA--C-[N] |==|  0.07159
USER: genes 8 Torsion [C]-N--CA-[C] |==|  0.63368
USER: genes 9 Torsion [N]-CA--C-[OXT] |==|  0.47343
USER: genes 10 Torsion [N]-CA--CB-[CG] |==|  0.51254
USER: genes 11 Torsion [CA]-CB--CG-[CD2] |==|  0.44679
USER: genes 12 Torsion [N]-C--CA-[N] |==|  0.39693
USER: genes 13 Torsion [C]-CA--CB-[CG] |==|  0.25733
USER: genes 14 Torsion [CA]-CB--CG-[CD] |==|  0.19286
USER: genes 15 Torsion [CB]-CG--CD-[OE1] |==|  0.02078
USER: genes 16 Torsion [C]-CA--N-[C] |==|  0.82050
USER: genes 17 Torsion [N]-C--CA-[N] |==|  0.67587
USER: genes 18 Torsion [N]-C--CA-[N] |==|  0.24604
ROOT
ATOM      1  C   GLU N 233      58.061  25.198   1.437  1.00 68.48 LIG 0.24  C 
ATOM      2 O    GLU N 233      58.727  24.259   1.060  1.00 65.22 LIG-0.27  OA
ATOM      3  N   LEU N 234      56.752  25.094   1.563  1.00 77.80 LIG-0.35  N 
ATOM      4 H    LEU N 234      56.237  25.745   1.785  1.00 77.80 LIG 0.16  HD
ENDROOT
BRANCH 3 5
ATOM      5  CA  LEU N 234      56.064  23.831   1.329  1.00 75.39 LIG 0.18  C 
BRANCH 5 6
ATOM      6  C   LEU N 234      56.383  23.253  -0.028  1.00 71.67 LIG 0.24  C 
ATOM      7 O    LEU N 234      56.455  22.064  -0.191  1.00 71.06 LIG-0.27  OA
ATOM      8  N   LEU N 235      56.588  24.116  -0.998  1.00 52.85 LIG-0.35  N 
ATOM      9 H    LEU N 235      56.601  24.969  -0.886  1.00 52.85 LIG 0.16  HD
BRANCH 8 10
ATOM     10  CA  LEU N 235      56.818  23.685  -2.377  1.00 54.39 LIG 0.18  C 
BRANCH 10 11
ATOM     11  CB  LEU N 235      55.553  23.063  -2.971  1.00 50.34 LIG 0.04  C 
BRANCH 11 12
ATOM     12  CG  LEU N 235      55.561  21.533  -3.032  1.00 52.64 LIG-0.02  C 
ATOM     13  CD2 LEU N 235      56.911  20.994  -3.478  1.00 52.33 LIG 0.01  C 
ATOM     14  CD1 LEU N 235      54.459  21.045  -3.953  1.00 53.22 LIG 0.01  C 
ENDBRANCH 11 12
ENDBRANCH 10 11
BRANCH 10 15
ATOM     15  C   LEU N 235      57.292  24.847  -3.259  1.00 52.64 LIG 0.24  C 
ATOM     16 O    LEU N 235      57.082  24.849  -4.473  1.00 52.05 LIG-0.27  OA
ATOM     17  N   GLY N 236      57.915  25.837  -2.623  1.00 57.75 LIG-0.35  N 
ATOM     18 H    GLY N 236      58.036  25.841  -1.772  1.00 57.75 LIG 0.16  HD
BRANCH 17 19
ATOM     19  CA  GLY N 236      58.455  27.008  -3.287  1.00 57.52 LIG 0.23  C 
BRANCH 19 20
ATOM     20  C   GLY N 236      59.877  27.322  -2.860  1.00 60.52 LIG 0.19  C 
ATOM     21 OXT  GLY N 236      60.540  28.172  -3.453  1.00 61.85 LIG-0.65  OA
ATOM     22 O    GLY N 236      60.408  26.743  -1.915  1.00 62.19 LIG-0.65  OA
ENDBRANCH 19 20
ENDBRANCH 17 19
ENDBRANCH 10 15
ENDBRANCH 8 10
ENDBRANCH 5 6
BRANCH 5 23
ATOM     23  CB  LEU N 234      54.550  24.027   1.467  1.00 79.47 LIG 0.04  C 
BRANCH 23 24
ATOM     24  CG  LEU N 234      53.650  22.793   1.362  1.00 81.24 LIG-0.02  C 
ATOM     25  CD1 LEU N 234      54.298  21.583   2.018  1.00 81.52 LIG 0.01  C 
ATOM     26  CD2 LEU N 234      52.285  23.075   1.975  1.00 82.88 LIG 0.01  C 
ENDBRANCH 23 24
ENDBRANCH 5 23
ENDBRANCH 3 5
BRANCH 1 27
ATOM     27  CA  GLU N 233      58.716  26.540   1.774  1.00 71.40 LIG 0.18  C 
BRANCH 27 28
ATOM     28  CB  GLU N 233      58.855  27.388   0.506  1.00 70.45 LIG 0.04  C 
BRANCH 28 29
ATOM     29  CG  GLU N 233      57.699  28.333   0.245  1.00 66.32 LIG 0.12  C 
BRANCH 29 30
ATOM     30  CD  GLU N 233      57.640  29.472   1.246  1.00 63.12 LIG 0.17  C 
ATOM     31 OE1  GLU N 233      58.581  29.605   2.055  1.00 63.49 LIG-0.65  OA
ATOM     32 OE2  GLU N 233      56.651  30.234   1.225  1.00 60.69 LIG-0.65  OA
ENDBRANCH 29 30
ENDBRANCH 28 29
ENDBRANCH 27 28
BRANCH 27 33
ATOM     33  N   GLU N 233      60.013  26.330   2.425  1.00 74.02 LIG-0.35  N 
ATOM     34 H    GLU N 233      60.676  26.621   1.962  1.00 74.02 LIG 0.16  HD
ATOM     35  C   PRO N 232      60.163  25.750   3.614  1.00 90.40 LIG 0.24  C 
ATOM     36 O    PRO N 232      59.237  25.351   4.295  1.00 95.63 LIG-0.27  OA
BRANCH 35 37
ATOM     37  CA  PRO N 232      61.568  25.553   4.133  1.00 87.45 LIG 0.18  C 
ATOM     38  N   PRO N 232      61.909  24.146   4.293  1.00 90.22 LIG-0.34  N 
ATOM     39  C   ALA N 231      61.866  23.388   5.396  1.00 63.79 LIG 0.26  C 
ATOM     40  CD  PRO N 232      62.723  23.668   3.161  1.00 90.52 LIG 0.13  C 
ATOM     41 O    ALA N 231      62.034  22.172   5.404  1.00 66.65 LIG-0.27  OA
ATOM     42  CG  PRO N 232      62.734  24.848   2.219  1.00 87.66 LIG 0.02  C 
ATOM     43  CB  PRO N 232      62.585  26.032   3.099  1.00 84.55 LIG 0.04  C 
BRANCH 39 44
ATOM     44  CA  ALA N 231      61.573  24.108   6.694  1.00 62.23 LIG 0.40  C 
ATOM     45  CB  ALA N 231      62.268  23.412   7.856  1.00 54.17 LIG 0.06  C 
ATOM     46  N   ALA N 231      60.140  24.181   6.929  1.00 63.17 LIG 0.61  N 
ENDBRANCH 39 44
ENDBRANCH 35 37
ENDBRANCH 27 33
ENDBRANCH 1 27
TORSDOF 17
ENDMDL
MODEL 32
USER: ADFR SOLUTION from run 15
USER: SCORE 17.664272 LL:  -4.815 LR: -14.332 RR:   0.000 FEB:  -9.261
USER: RMSD 5.437539
USER: SEED 246592
USER: STATUS no improvement in best in 6 clusters for 5 generations
USER: GENES 19
USER: genes 0 Translation |==|  0.54638 0.46376 0.43763
USER: genes 1 Rotation |==|  0.19977 0.32547 0.76846 0.73944
USER: genes 2 Torsion [C]-N--CA-[C] |==|  0.67553
USER: genes 3 Torsion [N]-CA--C-[N] |==|  0.04398
USER: genes 4 Torsion [C]-N--CA-[CB] |==|  0.56111
USER: genes 5 Torsion [N]-CA--CB-[CG] |==|  0.44511
USER: genes 6 Torsion [CA]-CB--CG-[CD1] |==|  0.16334
USER: genes 7 Torsion [N]-CA--C-[N] |==|  0.30033
USER: genes 8 Torsion [C]-N--CA-[C] |==|  0.85181
USER: genes 9 Torsion [N]-CA--C-[OXT] |==|  0.96267
USER: genes 10 Torsion [N]-CA--CB-[CG] |==|  0.71009
USER: genes 11 Torsion [CA]-CB--CG-[CD2] |==|  0.24850
USER: genes 12 Torsion [N]-C--CA-[N] |==|  0.51888
USER: genes 13 Torsion [C]-CA--CB-[CG] |==|  0.43733
USER: genes 14 Torsion [CA]-CB--CG-[CD] |==|  0.16108
USER: genes 15 Torsion [CB]-CG--CD-[OE1] |==|  0.13453
USER: genes 16 Torsion [C]-CA--N-[C] |==|  0.17026
USER: genes 17 Torsion [N]-C--CA-[N] |==|  0.02756
USER: genes 18 Torsion [N]-C--CA-[N] |==|  0.35429
ROOT
ATOM      1  C   GLU N 233      55.020  21.868   0.055  1.00 68.48 LIG 0.24  C 
ATOM      2 O    GLU N 233      56.019  21.187   0.142  1.00 65.22 LIG-0.27  OA
ATOM      3  N   LEU N 234      54.872  22.729  -0.934  1.00 77.80 LIG-0.35  N 
ATOM      4 H    LEU N 234      54.202  23.262  -1.011  1.00 77.80 LIG 0.16  HD
ENDROOT
BRANCH 3 5
ATOM      5  CA  LEU N 234      55.861  22.843  -1.999  1.00 75.39 LIG 0.18  C 
BRANCH 5 6
ATOM      6  C   LEU N 234      56.512  24.204  -2.024  1.00 71.67 LIG 0.24  C 
ATOM      7 O    LEU N 234      57.144  24.568  -2.981  1.00 71.06 LIG-0.27  OA
ATOM      8  N   LEU N 235      56.362  24.945  -0.950  1.00 52.85 LIG-0.35  N 
ATOM      9 H    LEU N 235      55.966  24.678  -0.234  1.00 52.85 LIG 0.16  HD
BRANCH 8 10
ATOM     10  CA  LEU N 235      56.868  26.317  -0.882  1.00 54.39 LIG 0.18  C 
BRANCH 10 11
ATOM     11  CB  LEU N 235      57.060  26.755   0.570  1.00 50.34 LIG 0.04  C 
BRANCH 11 12
ATOM     12  CG  LEU N 235      58.004  27.946   0.759  1.00 52.64 LIG-0.02  C 
ATOM     13  CD2 LEU N 235      58.186  28.292   2.229  1.00 52.33 LIG 0.01  C 
ATOM     14  CD1 LEU N 235      57.487  29.145  -0.013  1.00 53.22 LIG 0.01  C 
ENDBRANCH 11 12
ENDBRANCH 10 11
BRANCH 10 15
ATOM     15  C   LEU N 235      58.185  26.469  -1.653  1.00 52.64 LIG 0.24  C 
ATOM     16 O    LEU N 235      59.230  25.971  -1.230  1.00 52.05 LIG-0.27  OA
ATOM     17  N   GLY N 236      58.110  27.150  -2.795  1.00 57.75 LIG-0.35  N 
ATOM     18 H    GLY N 236      57.373  27.474  -3.097  1.00 57.75 LIG 0.16  HD
BRANCH 17 19
ATOM     19  CA  GLY N 236      59.251  27.419  -3.650  1.00 57.52 LIG 0.23  C 
BRANCH 19 20
ATOM     20  C   GLY N 236      60.400  28.073  -2.907  1.00 60.52 LIG 0.19  C 
ATOM     21 OXT  GLY N 236      60.235  28.546  -1.783  1.00 61.85 LIG-0.65  OA
ATOM     22 O    GLY N 236      61.524  28.150  -3.398  1.00 62.19 LIG-0.65  OA
ENDBRANCH 19 20
ENDBRANCH 17 19
ENDBRANCH 10 15
ENDBRANCH 8 10
ENDBRANCH 5 6
BRANCH 5 23
ATOM     23  CB  LEU N 234      55.206  22.555  -3.354  1.00 79.47 LIG 0.04  C 
BRANCH 23 24
ATOM     24  CG  LEU N 234      55.479  21.201  -4.014  1.00 81.24 LIG-0.02  C 
ATOM     25  CD1 LEU N 234      56.890  20.718  -3.713  1.00 81.52 LIG 0.01  C 
ATOM     26  CD2 LEU N 234      54.447  20.173  -3.567  1.00 82.88 LIG 0.01  C 
ENDBRANCH 23 24
ENDBRANCH 5 23
ENDBRANCH 3 5
BRANCH 1 27
ATOM     27  CA  GLU N 233      53.900  21.755   1.091  1.00 71.40 LIG 0.18  C 
BRANCH 27 28
ATOM     28  CB  GLU N 233      53.514  23.149   1.597  1.00 70.45 LIG 0.04  C 
BRANCH 28 29
ATOM     29  CG  GLU N 233      52.120  23.247   2.186  1.00 66.32 LIG 0.12  C 
BRANCH 29 30
ATOM     30  CD  GLU N 233      51.910  22.294   3.348  1.00 63.12 LIG 0.17  C 
ATOM     31 OE1  GLU N 233      52.771  22.255   4.251  1.00 63.49 LIG-0.65  OA
ATOM     32 OE2  GLU N 233      50.886  21.579   3.356  1.00 60.69 LIG-0.65  OA
ENDBRANCH 29 30
ENDBRANCH 28 29
ENDBRANCH 27 28
BRANCH 27 33
ATOM     33  N   GLU N 233      54.304  20.877   2.193  1.00 74.02 LIG-0.35  N 
ATOM     34 H    GLU N 233      53.803  20.184   2.276  1.00 74.02 LIG 0.16  HD
ATOM     35  C   PRO N 232      55.342  21.117   2.992  1.00 90.40 LIG 0.24  C 
ATOM     36 O    PRO N 232      56.077  22.080   2.879  1.00 95.63 LIG-0.27  OA
BRANCH 35 37
ATOM     37  CA  PRO N 232      55.605  20.148   4.121  1.00 87.45 LIG 0.18  C 
ATOM     38  N   PRO N 232      54.790  18.945   4.022  1.00 90.22 LIG-0.34  N 
ATOM     39  C   ALA N 231      53.633  18.657   4.631  1.00 63.79 LIG 0.26  C 
ATOM     40  CD  PRO N 232      55.567  17.826   3.458  1.00 90.52 LIG 0.13  C 
ATOM     41 O    ALA N 231      52.944  17.675   4.374  1.00 66.65 LIG-0.27  OA
ATOM     42  CG  PRO N 232      56.879  18.472   3.079  1.00 87.66 LIG 0.02  C 
ATOM     43  CB  PRO N 232      57.028  19.602   4.027  1.00 84.55 LIG 0.04  C 
BRANCH 39 44
ATOM     44  CA  ALA N 231      53.169  19.636   5.687  1.00 62.23 LIG 0.40  C 
ATOM     45  CB  ALA N 231      53.279  19.016   7.073  1.00 54.17 LIG 0.06  C 
ATOM     46  N   ALA N 231      51.803  20.062   5.428  1.00 63.17 LIG 0.61  N 
ENDBRANCH 39 44
ENDBRANCH 35 37
ENDBRANCH 27 33
ENDBRANCH 1 27
TORSDOF 17
ENDMDL
MODEL 33
USER: ADFR SOLUTION from run 29
USER: SCORE 16.893000 LL:  -4.154 LR: -14.323 RR:   0.000 FEB:  -9.252
USER: RMSD 6.963095
USER: SEED 28
USER: STATUS no improvement in best in 13 clusters for 5 generations
USER: GENES 19
USER: genes 0 Translation |==|  0.68209 0.48114 0.55975
USER: genes 1 Rotation |==|  0.31500 0.60594 0.90372 0.70387
USER: genes 2 Torsion [C]-N--CA-[C] |==|  0.76922
USER: genes 3 Torsion [N]-CA--C-[N] |==|  0.81209
USER: genes 4 Torsion [C]-N--CA-[CB] |==|  0.22640
USER: genes 5 Torsion [N]-CA--CB-[CG] |==|  0.84417
USER: genes 6 Torsion [CA]-CB--CG-[CD1] |==|  0.45170
USER: genes 7 Torsion [N]-CA--C-[N] |==|  0.38185
USER: genes 8 Torsion [C]-N--CA-[C] |==|  0.32329
USER: genes 9 Torsion [N]-CA--C-[OXT] |==|  0.92424
USER: genes 10 Torsion [N]-CA--CB-[CG] |==|  0.84158
USER: genes 11 Torsion [CA]-CB--CG-[CD2] |==|  0.28828
USER: genes 12 Torsion [N]-C--CA-[N] |==|  0.94638
USER: genes 13 Torsion [C]-CA--CB-[CG] |==|  0.15931
USER: genes 14 Torsion [CA]-CB--CG-[CD] |==|  0.73050
USER: genes 15 Torsion [CB]-CG--CD-[OE1] |==|  0.31420
USER: genes 16 Torsion [C]-CA--N-[C] |==|  0.82026
USER: genes 17 Torsion [N]-C--CA-[N] |==|  0.37284
USER: genes 18 Torsion [N]-C--CA-[N] |==|  0.32688
ROOT
ATOM      1  C   GLU N 233      57.768  22.193   2.344  1.00 68.48 LIG 0.24  C 
ATOM      2 O    GLU N 233      58.410  21.221   2.010  1.00 65.22 LIG-0.27  OA
ATOM      3  N   LEU N 234      56.653  22.517   1.718  1.00 77.80 LIG-0.35  N 
ATOM      4 H    LEU N 234      56.190  23.220   1.891  1.00 77.80 LIG 0.16  HD
ENDROOT
BRANCH 3 5
ATOM      5  CA  LEU N 234      56.109  21.682   0.654  1.00 75.39 LIG 0.18  C 
BRANCH 5 6
ATOM      6  C   LEU N 234      56.759  21.965  -0.678  1.00 71.67 LIG 0.24  C 
ATOM      7 O    LEU N 234      57.470  21.150  -1.203  1.00 71.06 LIG-0.27  OA
ATOM      8  N   LEU N 235      56.515  23.141  -1.210  1.00 52.85 LIG-0.35  N 
ATOM      9 H    LEU N 235      56.059  23.758  -0.822  1.00 52.85 LIG 0.16  HD
BRANCH 8 10
ATOM     10  CA  LEU N 235      57.012  23.505  -2.538  1.00 54.39 LIG 0.18  C 
BRANCH 10 11
ATOM     11  CB  LEU N 235      56.104  22.941  -3.632  1.00 50.34 LIG 0.04  C 
BRANCH 11 12
ATOM     12  CG  LEU N 235      55.899  21.425  -3.575  1.00 52.64 LIG-0.02  C 
ATOM     13  CD2 LEU N 235      57.132  20.672  -4.048  1.00 52.33 LIG 0.01  C 
ATOM     14  CD1 LEU N 235      54.685  21.035  -4.398  1.00 53.22 LIG 0.01  C 
ENDBRANCH 11 12
ENDBRANCH 10 11
BRANCH 10 15
ATOM     15  C   LEU N 235      57.139  25.025  -2.696  1.00 52.64 LIG 0.24  C 
ATOM     16 O    LEU N 235      56.270  25.783  -2.262  1.00 52.05 LIG-0.27  OA
ATOM     17  N   GLY N 236      58.243  25.451  -3.306  1.00 57.75 LIG-0.35  N 
ATOM     18 H    GLY N 236      58.858  24.919  -3.584  1.00 57.75 LIG 0.16  HD
BRANCH 17 19
ATOM     19  CA  GLY N 236      58.531  26.849  -3.568  1.00 57.52 LIG 0.23  C 
BRANCH 19 20
ATOM     20  C   GLY N 236      59.763  27.343  -2.833  1.00 60.52 LIG 0.19  C 
ATOM     21 OXT  GLY N 236      60.117  26.822  -1.776  1.00 61.85 LIG-0.65  OA
ATOM     22 O    GLY N 236      60.443  28.270  -3.268  1.00 62.19 LIG-0.65  OA
ENDBRANCH 19 20
ENDBRANCH 17 19
ENDBRANCH 10 15
ENDBRANCH 8 10
ENDBRANCH 5 6
BRANCH 5 23
ATOM     23  CB  LEU N 234      54.594  21.893   0.548  1.00 79.47 LIG 0.04  C 
BRANCH 23 24
ATOM     24  CG  LEU N 234      53.742  21.638   1.793  1.00 81.24 LIG-0.02  C 
ATOM     25  CD1 LEU N 234      54.480  20.763   2.795  1.00 81.52 LIG 0.01  C 
ATOM     26  CD2 LEU N 234      53.323  22.957   2.431  1.00 82.88 LIG 0.01  C 
ENDBRANCH 23 24
ENDBRANCH 5 23
ENDBRANCH 3 5
BRANCH 1 27
ATOM     27  CA  GLU N 233      58.233  23.082   3.501  1.00 71.40 LIG 0.18  C 
BRANCH 27 28
ATOM     28  CB  GLU N 233      57.943  22.393   4.838  1.00 70.45 LIG 0.04  C 
BRANCH 28 29
ATOM     29  CG  GLU N 233      58.577  21.025   4.997  1.00 66.32 LIG 0.12  C 
BRANCH 29 30
ATOM     30  CD  GLU N 233      57.618  19.896   4.666  1.00 63.12 LIG 0.17  C 
ATOM     31 OE1  GLU N 233      57.849  19.192   3.661  1.00 63.49 LIG-0.65  OA
ATOM     32 OE2  GLU N 233      56.630  19.716   5.408  1.00 60.69 LIG-0.65  OA
ENDBRANCH 29 30
ENDBRANCH 28 29
ENDBRANCH 27 28
BRANCH 27 33
ATOM     33  N   GLU N 233      57.595  24.399   3.426  1.00 74.02 LIG-0.35  N 
ATOM     34 H    GLU N 233      57.071  24.561   4.088  1.00 74.02 LIG 0.16  HD
ATOM     35  C   PRO N 232      57.797  25.268   2.438  1.00 90.40 LIG 0.24  C 
ATOM     36 O    PRO N 232      58.550  25.069   1.503  1.00 95.63 LIG-0.27  OA
BRANCH 35 37
ATOM     37  CA  PRO N 232      57.026  26.567   2.468  1.00 87.45 LIG 0.18  C 
ATOM     38  N   PRO N 232      57.870  27.720   2.187  1.00 90.22 LIG-0.34  N 
ATOM     39  C   ALA N 231      58.461  28.562   3.043  1.00 63.79 LIG 0.26  C 
ATOM     40  CD  PRO N 232      57.713  28.160   0.788  1.00 90.52 LIG 0.13  C 
ATOM     41 O    ALA N 231      59.274  29.421   2.716  1.00 66.65 LIG-0.27  OA
ATOM     42  CG  PRO N 232      56.821  27.099   0.188  1.00 87.66 LIG 0.02  C 
ATOM     43  CB  PRO N 232      56.011  26.604   1.327  1.00 84.55 LIG 0.04  C 
BRANCH 39 44
ATOM     44  CA  ALA N 231      58.092  28.403   4.502  1.00 62.23 LIG 0.40  C 
ATOM     45  CB  ALA N 231      57.464  29.684   5.034  1.00 54.17 LIG 0.06  C 
ATOM     46  N   ALA N 231      59.259  28.043   5.291  1.00 63.17 LIG 0.61  N 
ENDBRANCH 39 44
ENDBRANCH 35 37
ENDBRANCH 27 33
ENDBRANCH 1 27
TORSDOF 17
ENDMDL
MODEL 34
USER: ADFR SOLUTION from run 176
USER: SCORE 16.536764 LL:  -4.592 LR: -14.299 RR:   0.000 FEB:  -9.227
USER: RMSD 8.815407
USER: SEED 175
USER: STATUS no improvement in best in 6 clusters for 5 generations
USER: GENES 19
USER: genes 0 Translation |==|  0.62109 0.72742 0.49354
USER: genes 1 Rotation |==|  0.28264 0.49603 0.08711 0.67961
USER: genes 2 Torsion [C]-N--CA-[C] |==|  0.17005
USER: genes 3 Torsion [N]-CA--C-[N] |==|  0.72674
USER: genes 4 Torsion [C]-N--CA-[CB] |==|  0.42122
USER: genes 5 Torsion [N]-CA--CB-[CG] |==|  0.67199
USER: genes 6 Torsion [CA]-CB--CG-[CD1] |==|  0.94322
USER: genes 7 Torsion [N]-CA--C-[N] |==|  0.89664
USER: genes 8 Torsion [C]-N--CA-[C] |==|  0.82179
USER: genes 9 Torsion [N]-CA--C-[OXT] |==|  0.40795
USER: genes 10 Torsion [N]-CA--CB-[CG] |==|  0.59911
USER: genes 11 Torsion [CA]-CB--CG-[CD2] |==|  0.77855
USER: genes 12 Torsion [N]-C--CA-[N] |==|  0.05022
USER: genes 13 Torsion [C]-CA--CB-[CG] |==|  0.46535
USER: genes 14 Torsion [CA]-CB--CG-[CD] |==|  0.93225
USER: genes 15 Torsion [CB]-CG--CD-[OE1] |==|  0.23349
USER: genes 16 Torsion [C]-CA--N-[C] |==|  0.16451
USER: genes 17 Torsion [N]-C--CA-[N] |==|  0.57469
USER: genes 18 Torsion [N]-C--CA-[N] |==|  0.21531
ROOT
ATOM      1  C   GLU N 233      56.533  26.811   1.103  1.00 68.48 LIG 0.24  C 
ATOM      2 O    GLU N 233      55.932  26.714   0.055  1.00 65.22 LIG-0.27  OA
ATOM      3  N   LEU N 234      56.758  25.751   1.855  1.00 77.80 LIG-0.35  N 
ATOM      4 H    LEU N 234      57.140  25.779   2.624  1.00 77.80 LIG 0.16  HD
ENDROOT
BRANCH 3 5
ATOM      5  CA  LEU N 234      56.364  24.415   1.424  1.00 75.39 LIG 0.18  C 
BRANCH 5 6
ATOM      6  C   LEU N 234      57.056  24.003   0.148  1.00 71.67 LIG 0.24  C 
ATOM      7 O    LEU N 234      58.181  23.578   0.165  1.00 71.06 LIG-0.27  OA
ATOM      8  N   LEU N 235      56.370  24.150  -0.963  1.00 52.85 LIG-0.35  N 
ATOM      9 H    LEU N 235      55.589  24.508  -1.001  1.00 52.85 LIG 0.16  HD
BRANCH 8 10
ATOM     10  CA  LEU N 235      56.893  23.706  -2.256  1.00 54.39 LIG 0.18  C 
BRANCH 10 11
ATOM     11  CB  LEU N 235      55.752  23.333  -3.205  1.00 50.34 LIG 0.04  C 
BRANCH 11 12
ATOM     12  CG  LEU N 235      55.747  21.870  -3.654  1.00 52.64 LIG-0.02  C 
ATOM     13  CD2 LEU N 235      54.698  21.057  -2.913  1.00 52.33 LIG 0.01  C 
ATOM     14  CD1 LEU N 235      57.125  21.264  -3.465  1.00 53.22 LIG 0.01  C 
ENDBRANCH 11 12
ENDBRANCH 10 11
BRANCH 10 15
ATOM     15  C   LEU N 235      57.781  24.776  -2.902  1.00 52.64 LIG 0.24  C 
ATOM     16 O    LEU N 235      58.782  24.464  -3.550  1.00 52.05 LIG-0.27  OA
ATOM     17  N   GLY N 236      57.387  26.035  -2.728  1.00 57.75 LIG-0.35  N 
ATOM     18 H    GLY N 236      56.674  26.246  -2.295  1.00 57.75 LIG 0.16  HD
BRANCH 17 19
ATOM     19  CA  GLY N 236      58.108  27.185  -3.242  1.00 57.52 LIG 0.23  C 
BRANCH 19 20
ATOM     20  C   GLY N 236      59.484  27.339  -2.623  1.00 60.52 LIG 0.19  C 
ATOM     21 OXT  GLY N 236      60.421  27.797  -3.276  1.00 61.85 LIG-0.65  OA
ATOM     22 O    GLY N 236      59.706  27.016  -1.457  1.00 62.19 LIG-0.65  OA
ENDBRANCH 19 20
ENDBRANCH 17 19
ENDBRANCH 10 15
ENDBRANCH 8 10
ENDBRANCH 5 6
BRANCH 5 23
ATOM     23  CB  LEU N 234      54.845  24.354   1.234  1.00 79.47 LIG 0.04  C 
BRANCH 23 24
ATOM     24  CG  LEU N 234      54.124  23.055   1.602  1.00 81.24 LIG-0.02  C 
ATOM     25  CD1 LEU N 234      52.655  23.308   1.905  1.00 81.52 LIG 0.01  C 
ATOM     26  CD2 LEU N 234      54.278  22.027   0.488  1.00 82.88 LIG 0.01  C 
ENDBRANCH 23 24
ENDBRANCH 5 23
ENDBRANCH 3 5
BRANCH 1 27
ATOM     27  CA  GLU N 233      57.046  28.168   1.592  1.00 71.40 LIG 0.18  C 
BRANCH 27 28
ATOM     28  CB  GLU N 233      57.572  28.985   0.409  1.00 70.45 LIG 0.04  C 
BRANCH 28 29
ATOM     29  CG  GLU N 233      57.831  30.448   0.713  1.00 66.32 LIG 0.12  C 
BRANCH 29 30
ATOM     30  CD  GLU N 233      57.005  30.956   1.881  1.00 63.12 LIG 0.17  C 
ATOM     31 OE1  GLU N 233      57.431  30.768   3.039  1.00 63.49 LIG-0.65  OA
ATOM     32 OE2  GLU N 233      55.927  31.539   1.640  1.00 60.69 LIG-0.65  OA
ENDBRANCH 29 30
ENDBRANCH 28 29
ENDBRANCH 27 28
BRANCH 27 33
ATOM     33  N   GLU N 233      58.074  27.989   2.621  1.00 74.02 LIG-0.35  N 
ATOM     34 H    GLU N 233      57.872  28.356   3.371  1.00 74.02 LIG 0.16  HD
ATOM     35  C   PRO N 232      59.212  27.326   2.427  1.00 90.40 LIG 0.24  C 
ATOM     36 O    PRO N 232      59.510  26.781   1.381  1.00 95.63 LIG-0.27  OA
BRANCH 35 37
ATOM     37  CA  PRO N 232      60.203  27.271   3.566  1.00 87.45 LIG 0.18  C 
ATOM     38  N   PRO N 232      61.574  27.107   3.103  1.00 90.22 LIG-0.34  N 
ATOM     39  C   ALA N 231      62.301  25.989   2.998  1.00 63.79 LIG 0.26  C 
ATOM     40  CD  PRO N 232      62.291  28.395   3.112  1.00 90.52 LIG 0.13  C 
ATOM     41 O    ALA N 231      63.402  25.929   2.459  1.00 66.65 LIG-0.27  OA
ATOM     42  CG  PRO N 232      61.214  29.390   3.475  1.00 87.66 LIG 0.02  C 
ATOM     43  CB  PRO N 232      60.249  28.615   4.291  1.00 84.55 LIG 0.04  C 
BRANCH 39 44
ATOM     44  CA  ALA N 231      61.688  24.733   3.577  1.00 62.23 LIG 0.40  C 
ATOM     45  CB  ALA N 231      62.764  23.690   3.843  1.00 54.17 LIG 0.06  C 
ATOM     46  N   ALA N 231      60.671  24.198   2.686  1.00 63.17 LIG 0.61  N 
ENDBRANCH 39 44
ENDBRANCH 35 37
ENDBRANCH 27 33
ENDBRANCH 1 27
TORSDOF 17
ENDMDL
