MODEL 1
USER: ADFR SOLUTION from run 134
USER: SCORE 19.655690 LL:  -4.853 LR: -16.022 RR:   0.000 FEB:  -9.161
USER: RMSD 12.198137
USER: SEED 133
USER: STATUS no improvement in best in 5 clusters for 5 generations
USER: GENES 25
USER: genes 0 Translation |==|  0.61494 0.51994 0.45510
USER: genes 1 Rotation |==|  0.93436 0.33777 0.61728 0.64582
USER: genes 2 Torsion [C]-N--CA-[C] |==|  0.81143
USER: genes 3 Torsion [N]-CA--C-[N] |==|  0.38638
USER: genes 4 Torsion [C]-N--CA-[C] |==|  0.81535
USER: genes 5 Torsion [N]-CA--C-[N] |==|  0.36164
USER: genes 6 Torsion [C]-N--CA-[C] |==|  0.72585
USER: genes 7 Torsion [N]-CA--C-[N] |==|  0.03622
USER: genes 8 Torsion [C]-N--CA-[CB] |==|  0.52778
USER: genes 9 Torsion [N]-CA--C-[N] |==|  0.32317
USER: genes 10 Torsion [N]-CA--CB-[OG] |==|  0.63421
USER: genes 11 Torsion [CA]-CB--OG-[HG] |==|  0.83788
USER: genes 12 Torsion [N]-CA--CB-[CG] |==|  0.72451
USER: genes 13 Torsion [CA]-CB--CG-[OD2] |==|  0.13342
USER: genes 14 Torsion [N]-CA--CB-[SG] |==|  0.66268
USER: genes 15 Torsion [CA]-CB--SG-[HG] |==|  0.52545
USER: genes 16 Torsion [N]-CA--CB-[OG1] |==|  0.85977
USER: genes 17 Torsion [CA]-CB--OG1-[HG1] |==|  0.05425
USER: genes 18 Torsion [N]-C--CA-[N] |==|  0.17978
USER: genes 19 Torsion [C]-CA--N-[C] |==|  0.71805
USER: genes 20 Torsion [N]-C--CA-[N] |==|  0.40667
USER: genes 21 Torsion [C]-CA--N-[C] |==|  0.72868
USER: genes 22 Torsion [N]-C--CA-[N] |==|  0.96351
USER: genes 23 Torsion [C]-CA--CB-[CG] |==|  0.30534
USER: genes 24 Torsion [CA]-CB--CG-[CD2] |==|  0.79295
ROOT
ATOM      1  C   ALA E  68       9.496   4.008  27.024  1.00 21.38 LIG 0.24  C 
ATOM      2 O    ALA E  68      10.667   4.310  27.279  1.00 23.30 LIG-0.27  OA
ATOM      3  N   THR E  69       8.722   4.706  26.185  1.00 18.30 LIG-0.34  N 
ATOM      4 H    THR E  69       7.879   4.568  26.079  1.00 18.30 LIG 0.16  HD
ENDROOT
BRANCH 3 5
ATOM      5  CA  THR E  69       9.268   5.784  25.364  1.00 19.45 LIG 0.20  C 
BRANCH 5 6
ATOM      6  C   THR E  69       9.707   6.989  26.218  1.00 19.66 LIG 0.24  C 
ATOM      7  N   CYS E  70      10.839   7.580  25.881  1.00 18.57 LIG-0.34  N 
ATOM      8 H    CYS E  70      11.303   7.372  25.187  1.00 18.57 LIG 0.16  HD
ATOM      9 O    THR E  69       9.048   7.356  27.169  1.00 20.15 LIG-0.27  OA
BRANCH 7 10
ATOM     10  CA  CYS E  70      11.399   8.655  26.682  1.00 18.45 LIG 0.18  C 
BRANCH 10 11
ATOM     11  C   CYS E  70      10.439   9.825  26.567  1.00 19.42 LIG 0.24  C 
ATOM     12  N   ASP E  71      10.064  10.394  27.726  1.00 17.61 LIG-0.34  N 
ATOM     13 H    ASP E  71      10.314  10.105  28.496  1.00 17.61 LIG 0.16  HD
ATOM     14 O    CYS E  70      10.029  10.162  25.451  1.00 18.07 LIG-0.27  OA
BRANCH 12 15
ATOM     15  CA  ASP E  71       9.199  11.555  27.790  1.00 16.95 LIG 0.19  C 
BRANCH 15 16
ATOM     16  C   ASP E  71      10.140  12.706  27.975  1.00 18.90 LIG 0.24  C 
ATOM     17 O    ASP E  71       9.687  13.834  28.291  1.00 16.52 LIG-0.27  OA
ATOM     18  N   SER E  72      11.432  12.450  27.763  1.00 19.80 LIG-0.34  N 
ATOM     19 H    SER E  72      11.736  11.695  27.484  1.00 19.80 LIG 0.16  HD
BRANCH 18 20
ATOM     20  CA  SER E  72      12.450  13.467  27.998  1.00 20.01 LIG 0.20  C 
BRANCH 20 21
ATOM     21  C   SER E  72      12.116  14.803  27.414  1.00 24.22 LIG 0.29  C 
ATOM     22  N   NH2 E  73      11.952  15.819  28.333  1.00 28.43 LIG-0.11  N 
ATOM     23 O    SER E  72      11.780  14.912  26.256  1.00 27.83 LIG-0.27  OA
ENDBRANCH 20 21
BRANCH 20 24
ATOM     24  CB  SER E  72      13.782  13.008  27.455  1.00 25.59 LIG 0.20  C 
BRANCH 24 25
ATOM     25 OG   SER E  72      14.804  13.190  28.404  1.00 28.15 LIG-0.40  OA
ATOM     26 HG   SER E  72      14.846  14.002  28.619  1.00 28.15 LIG 0.21  HD
ENDBRANCH 24 25
ENDBRANCH 20 24
ENDBRANCH 18 20
ENDBRANCH 15 16
BRANCH 15 27
ATOM     27  CB  ASP E  71       8.187  11.428  28.940  1.00 12.80 LIG 0.15  C 
BRANCH 27 28
ATOM     28  CG  ASP E  71       6.840  10.962  28.457  1.00 14.21 LIG 0.17  C 
ATOM     29 OD2  ASP E  71       6.738   9.988  27.697  1.00 15.44 LIG-0.65  OA
ATOM     30 OD1  ASP E  71       5.843  11.600  28.822  1.00 16.80 LIG-0.65  OA
ENDBRANCH 27 28
ENDBRANCH 15 27
ENDBRANCH 12 15
ENDBRANCH 10 11
BRANCH 10 31
ATOM     31  CB  CYS E  70      12.826   9.033  26.197  1.00 19.19 LIG 0.10  C 
BRANCH 31 32
ATOM     32 SG   CYS E  70      14.160   8.895  27.409  1.00 25.14 LIG-0.18  SA
ATOM     33 HG   CYS E  70      15.161   9.382  26.961  1.00 25.14 LIG 0.10  HD
ENDBRANCH 31 32
ENDBRANCH 10 31
ENDBRANCH 7 10
ENDBRANCH 5 6
BRANCH 5 34
ATOM     34  CB  THR E  69       8.260   6.190  24.273  1.00 17.77 LIG 0.15  C 
ATOM     35  CG2 THR E  69       8.915   7.089  23.282  1.00 20.71 LIG 0.04  C 
BRANCH 34 36
ATOM     36 OG1  THR E  69       7.795   5.057  23.564  1.00 16.43 LIG-0.39  OA
ATOM     37 HG1  THR E  69       7.934   4.365  24.019  1.00 16.43 LIG 0.21  HD
ENDBRANCH 34 36
ENDBRANCH 5 34
ENDBRANCH 3 5
BRANCH 1 38
ATOM     38  CA  ALA E  68       8.878   2.778  27.681  1.00 20.08 LIG 0.17  C 
ATOM     39  CB  ALA E  68       9.816   2.205  28.716  1.00 20.16 LIG 0.04  C 
BRANCH 38 40
ATOM     40  N   ALA E  68       8.564   1.780  26.695  1.00 18.16 LIG-0.35  N 
ATOM     41 H    ALA E  68       9.236   1.318  26.421  1.00 18.16 LIG 0.16  HD
ATOM     42  C   TRP E  67       7.326   1.618  26.272  1.00 18.88 LIG 0.24  C 
ATOM     43 O    TRP E  67       6.364   2.321  26.621  1.00 21.47 LIG-0.27  OA
BRANCH 42 44
ATOM     44  CA  TRP E  67       7.164   0.565  25.237  1.00 17.18 LIG 0.18  C 
BRANCH 44 45
ATOM     45  N   TRP E  67       5.841  -0.146  25.351  1.00 16.72 LIG-0.35  N 
ATOM     46  C   PRO E  66       5.661  -1.324  25.969  1.00 16.87 LIG 0.24  C 
ATOM     47 O    PRO E  66       6.580  -2.024  26.388  1.00 18.41 LIG-0.27  OA
ATOM     48 H    TRP E  67       5.196   0.281  24.975  1.00 16.72 LIG 0.16  HD
BRANCH 46 49
ATOM     49  CA  PRO E  66       4.212  -1.847  26.122  1.00 17.04 LIG 0.18  C 
ATOM     50  CB  PRO E  66       3.903  -2.982  25.131  1.00 18.40 LIG 0.04  C 
ATOM     51  CG  PRO E  66       3.043  -2.384  24.056  1.00 18.41 LIG 0.02  C 
ATOM     52  CD  PRO E  66       2.290  -1.260  24.711  1.00 21.21 LIG 0.13  C 
ATOM     53  N   PRO E  66       3.141  -0.869  25.843  1.00 19.82 LIG-0.34  N 
ATOM     54  C   ACE E  65       2.980   0.181  26.709  1.00 17.72 LIG 0.22  C 
ATOM     55  CH3 ACE E  65       1.869   1.111  26.438  1.00 22.93 LIG 0.12  C 
ATOM     56 O    ACE E  65       3.717   0.403  27.640  1.00 18.13 LIG-0.27  OA
ENDBRANCH 46 49
ENDBRANCH 44 45
BRANCH 44 57
ATOM     57  CB  TRP E  67       7.362   1.139  23.810  1.00 18.36 LIG 0.07  C 
BRANCH 57 58
ATOM     58  CG  TRP E  67       8.572   0.701  23.158  1.00 19.51 LIG-0.03  A 
ATOM     59  CD1 TRP E  67       8.676  -0.194  22.150  1.00 20.71 LIG 0.10  A 
ATOM     60  NE1 TRP E  67       9.982  -0.344  21.788  1.00 21.73 LIG-0.36  N 
ATOM     61  CE2 TRP E  67      10.751   0.467  22.572  1.00 22.59 LIG 0.04  A 
ATOM     62 HE1  TRP E  67      10.273  -0.864  21.168  1.00 21.73 LIG 0.17  HD
ATOM     63  CD2 TRP E  67       9.884   1.145  23.448  1.00 20.57 LIG-0.00  A 
ATOM     64  CZ2 TRP E  67      12.123   0.667  22.585  1.00 23.91 LIG 0.03  A 
ATOM     65  CE3 TRP E  67      10.419   2.052  24.363  1.00 19.56 LIG 0.01  A 
ATOM     66  CZ3 TRP E  67      11.758   2.249  24.377  1.00 20.82 LIG 0.00  A 
ATOM     67  CH2 TRP E  67      12.609   1.565  23.495  1.00 24.07 LIG 0.00  A 
ENDBRANCH 57 58
ENDBRANCH 44 57
ENDBRANCH 42 44
ENDBRANCH 38 40
ENDBRANCH 1 38
TORSDOF 23
ENDMDL
MODEL 2
USER: ADFR SOLUTION from run 114
USER: SCORE 19.489776 LL:  -4.650 LR: -15.976 RR:   0.000 FEB:  -9.115
USER: RMSD 2.657693
USER: SEED 113
USER: STATUS no improvement in best in 8 clusters for 5 generations
USER: GENES 25
USER: genes 0 Translation |==|  0.55096 0.58470 0.28474
USER: genes 1 Rotation |==|  0.47763 0.82856 0.51711 0.87584
USER: genes 2 Torsion [C]-N--CA-[C] |==|  0.83827
USER: genes 3 Torsion [N]-CA--C-[N] |==|  0.42592
USER: genes 4 Torsion [C]-N--CA-[C] |==|  0.73295
USER: genes 5 Torsion [N]-CA--C-[N] |==|  0.39478
USER: genes 6 Torsion [C]-N--CA-[C] |==|  0.77257
USER: genes 7 Torsion [N]-CA--C-[N] |==|  0.87869
USER: genes 8 Torsion [C]-N--CA-[CB] |==|  0.84196
USER: genes 9 Torsion [N]-CA--C-[N] |==|  0.41658
USER: genes 10 Torsion [N]-CA--CB-[OG] |==|  0.59958
USER: genes 11 Torsion [CA]-CB--OG-[HG] |==|  0.92720
USER: genes 12 Torsion [N]-CA--CB-[CG] |==|  0.71195
USER: genes 13 Torsion [CA]-CB--CG-[OD2] |==|  0.79202
USER: genes 14 Torsion [N]-CA--CB-[SG] |==|  0.80574
USER: genes 15 Torsion [CA]-CB--SG-[HG] |==|  0.90639
USER: genes 16 Torsion [N]-CA--CB-[OG1] |==|  0.01650
USER: genes 17 Torsion [CA]-CB--OG1-[HG1] |==|  0.15485
USER: genes 18 Torsion [N]-C--CA-[N] |==|  0.05475
USER: genes 19 Torsion [C]-CA--N-[C] |==|  0.16445
USER: genes 20 Torsion [N]-C--CA-[N] |==|  0.18404
USER: genes 21 Torsion [C]-CA--N-[C] |==|  0.73889
USER: genes 22 Torsion [N]-C--CA-[N] |==|  0.42342
USER: genes 23 Torsion [C]-CA--CB-[CG] |==|  0.32410
USER: genes 24 Torsion [CA]-CB--CG-[CD2] |==|  0.09725
ROOT
ATOM      1  C   ALA E  68       8.200   5.854  24.468  1.00 21.38 LIG 0.24  C 
ATOM      2 O    ALA E  68       8.286   4.923  23.660  1.00 23.30 LIG-0.27  OA
ATOM      3  N   THR E  69       8.019   5.675  25.781  1.00 18.30 LIG-0.34  N 
ATOM      4 H    THR E  69       7.854   6.311  26.336  1.00 18.30 LIG 0.16  HD
ENDROOT
BRANCH 3 5
ATOM      5  CA  THR E  69       8.089   4.346  26.385  1.00 19.45 LIG 0.20  C 
BRANCH 5 6
ATOM      6  C   THR E  69       7.066   3.378  25.761  1.00 19.66 LIG 0.24  C 
ATOM      7  N   CYS E  70       7.361   2.092  25.796  1.00 18.57 LIG-0.34  N 
ATOM      8 H    CYS E  70       8.049   1.766  26.196  1.00 18.57 LIG 0.16  HD
ATOM      9 O    THR E  69       6.048   3.791  25.241  1.00 20.15 LIG-0.27  OA
BRANCH 7 10
ATOM     10  CA  CYS E  70       6.519   1.104  25.143  1.00 18.45 LIG 0.18  C 
BRANCH 10 11
ATOM     11  C   CYS E  70       5.591   0.553  26.210  1.00 19.42 LIG 0.24  C 
ATOM     12  N   ASP E  71       4.331   0.294  25.817  1.00 17.61 LIG-0.34  N 
ATOM     13 H    ASP E  71       4.041   0.457  25.024  1.00 17.61 LIG 0.16  HD
ATOM     14 O    CYS E  70       6.013   0.411  27.362  1.00 18.07 LIG-0.27  OA
BRANCH 12 15
ATOM     15  CA  ASP E  71       3.336  -0.288  26.696  1.00 16.95 LIG 0.19  C 
BRANCH 15 16
ATOM     16  C   ASP E  71       3.622  -1.758  26.653  1.00 18.90 LIG 0.24  C 
ATOM     17 O    ASP E  71       3.634  -2.419  27.721  1.00 16.52 LIG-0.27  OA
ATOM     18  N   SER E  72       3.873  -2.274  25.449  1.00 19.80 LIG-0.34  N 
ATOM     19 H    SER E  72       3.928  -1.811  24.726  1.00 19.80 LIG 0.16  HD
BRANCH 18 20
ATOM     20  CA  SER E  72       4.077  -3.708  25.272  1.00 20.01 LIG 0.20  C 
BRANCH 20 21
ATOM     21  C   SER E  72       2.859  -4.531  25.551  1.00 24.22 LIG 0.29  C 
ATOM     22  N   NH2 E  73       2.766  -5.702  24.828  1.00 28.43 LIG-0.11  N 
ATOM     23 O    SER E  72       1.927  -4.076  26.176  1.00 27.83 LIG-0.27  OA
ENDBRANCH 20 21
BRANCH 20 24
ATOM     24  CB  SER E  72       5.210  -4.185  26.150  1.00 25.59 LIG 0.20  C 
BRANCH 24 25
ATOM     25 OG   SER E  72       5.952  -5.194  25.510  1.00 28.15 LIG-0.40  OA
ATOM     26 HG   SER E  72       5.463  -5.593  24.955  1.00 28.15 LIG 0.21  HD
ENDBRANCH 24 25
ENDBRANCH 20 24
ENDBRANCH 18 20
ENDBRANCH 15 16
BRANCH 15 27
ATOM     27  CB  ASP E  71       1.914   0.052  26.221  1.00 12.80 LIG 0.15  C 
BRANCH 27 28
ATOM     28  CG  ASP E  71       1.281   1.129  27.060  1.00 14.21 LIG 0.17  C 
ATOM     29 OD2  ASP E  71       0.862   0.884  28.201  1.00 15.44 LIG-0.65  OA
ATOM     30 OD1  ASP E  71       1.169   2.259  26.564  1.00 16.80 LIG-0.65  OA
ENDBRANCH 27 28
ENDBRANCH 15 27
ENDBRANCH 12 15
ENDBRANCH 10 11
BRANCH 10 31
ATOM     31  CB  CYS E  70       7.372  -0.018  24.489  1.00 19.19 LIG 0.10  C 
BRANCH 31 32
ATOM     32 SG   CYS E  70       8.343   0.442  23.035  1.00 25.14 LIG-0.18  SA
ATOM     33 HG   CYS E  70       7.751   1.274  22.404  1.00 25.14 LIG 0.10  HD
ENDBRANCH 31 32
ENDBRANCH 10 31
ENDBRANCH 7 10
ENDBRANCH 5 6
BRANCH 5 34
ATOM     34  CB  THR E  69       7.929   4.443  27.913  1.00 17.77 LIG 0.15  C 
ATOM     35  CG2 THR E  69       9.205   4.068  28.584  1.00 20.71 LIG 0.04  C 
BRANCH 34 36
ATOM     36 OG1  THR E  69       7.623   5.767  28.309  1.00 16.43 LIG-0.39  OA
ATOM     37 HG1  THR E  69       6.937   6.029  27.903  1.00 16.43 LIG 0.21  HD
ENDBRANCH 34 36
ENDBRANCH 5 34
ENDBRANCH 3 5
BRANCH 1 38
ATOM     38  CA  ALA E  68       8.309   7.292  23.970  1.00 20.08 LIG 0.17  C 
ATOM     39  CB  ALA E  68       9.341   7.394  22.872  1.00 20.16 LIG 0.04  C 
BRANCH 38 40
ATOM     40  N   ALA E  68       8.648   8.179  25.049  1.00 18.16 LIG-0.35  N 
ATOM     41 H    ALA E  68       8.077   8.805  25.195  1.00 18.16 LIG 0.16  HD
ATOM     42  C   TRP E  67       9.760   8.009  25.736  1.00 18.88 LIG 0.24  C 
ATOM     43 O    TRP E  67      10.615   7.142  25.490  1.00 21.47 LIG-0.27  OA
BRANCH 42 44
ATOM     44  CA  TRP E  67       9.983   9.018  26.803  1.00 17.18 LIG 0.18  C 
BRANCH 44 45
ATOM     45  N   TRP E  67       8.959   8.917  27.904  1.00 16.72 LIG-0.35  N 
ATOM     46  C   PRO E  66       7.828   9.635  27.959  1.00 16.87 LIG 0.24  C 
ATOM     47 O    PRO E  66       7.567  10.560  27.192  1.00 18.41 LIG-0.27  OA
ATOM     48 H    TRP E  67       9.171   8.343  28.508  1.00 16.72 LIG 0.16  HD
BRANCH 46 49
ATOM     49  CA  PRO E  66       6.814   9.307  29.082  1.00 17.04 LIG 0.18  C 
ATOM     50  CB  PRO E  66       5.795   8.242  28.643  1.00 18.40 LIG 0.04  C 
ATOM     51  CG  PRO E  66       4.509   8.970  28.381  1.00 18.41 LIG 0.02  C 
ATOM     52  CD  PRO E  66       4.526  10.172  29.284  1.00 21.21 LIG 0.13  C 
ATOM     53  N   PRO E  66       5.954  10.424  29.520  1.00 19.82 LIG-0.34  N 
ATOM     54  C   ACE E  65       6.536  11.469  30.187  1.00 17.72 LIG 0.22  C 
ATOM     55  CH3 ACE E  65       5.646  12.544  30.661  1.00 22.93 LIG 0.12  C 
ATOM     56 O    ACE E  65       7.727  11.573  30.364  1.00 18.13 LIG-0.27  OA
ENDBRANCH 46 49
ENDBRANCH 44 45
BRANCH 44 57
ATOM     57  CB  TRP E  67      11.422   8.927  27.376  1.00 18.36 LIG 0.07  C 
BRANCH 57 58
ATOM     58  CG  TRP E  67      12.221  10.109  27.158  1.00 19.51 LIG-0.03  A 
ATOM     59  CD1 TRP E  67      13.547  10.159  26.902  1.00 20.71 LIG 0.10  A 
ATOM     60  NE1 TRP E  67      13.946  11.454  26.743  1.00 21.73 LIG-0.36  N 
ATOM     61  CE2 TRP E  67      12.862  12.269  26.898  1.00 22.59 LIG 0.04  A 
ATOM     62 HE1  TRP E  67      14.748  11.713  26.573  1.00 21.73 LIG 0.17  HD
ATOM     63  CD2 TRP E  67      11.753  11.444  27.159  1.00 20.57 LIG-0.00  A 
ATOM     64  CZ2 TRP E  67      12.758  13.650  26.828  1.00 23.91 LIG 0.03  A 
ATOM     65  CE3 TRP E  67      10.503  12.032  27.353  1.00 19.56 LIG 0.01  A 
ATOM     66  CZ3 TRP E  67      10.399  13.380  27.285  1.00 20.82 LIG 0.00  A 
ATOM     67  CH2 TRP E  67      11.517  14.189  27.022  1.00 24.07 LIG 0.00  A 
ENDBRANCH 57 58
ENDBRANCH 44 57
ENDBRANCH 42 44
ENDBRANCH 38 40
ENDBRANCH 1 38
TORSDOF 23
ENDMDL
MODEL 3
USER: ADFR SOLUTION from run 95
USER: SCORE 19.063534 LL:  -5.115 LR: -15.926 RR:   0.000 FEB:  -9.065
USER: RMSD 4.461304
USER: SEED 94
USER: STATUS no improvement in best in 9 clusters for 5 generations
USER: GENES 25
USER: genes 0 Translation |==|  0.55480 0.58066 0.29066
USER: genes 1 Rotation |==|  0.48758 0.84899 0.52960 0.85662
USER: genes 2 Torsion [C]-N--CA-[C] |==|  0.86356
USER: genes 3 Torsion [N]-CA--C-[N] |==|  0.36194
USER: genes 4 Torsion [C]-N--CA-[C] |==|  0.74972
USER: genes 5 Torsion [N]-CA--C-[N] |==|  0.11700
USER: genes 6 Torsion [C]-N--CA-[C] |==|  0.75887
USER: genes 7 Torsion [N]-CA--C-[N] |==|  0.99788
USER: genes 8 Torsion [C]-N--CA-[CB] |==|  0.77629
USER: genes 9 Torsion [N]-CA--C-[N] |==|  0.69307
USER: genes 10 Torsion [N]-CA--CB-[OG] |==|  0.92865
USER: genes 11 Torsion [CA]-CB--OG-[HG] |==|  0.92370
USER: genes 12 Torsion [N]-CA--CB-[CG] |==|  0.88045
USER: genes 13 Torsion [CA]-CB--CG-[OD2] |==|  0.88800
USER: genes 14 Torsion [N]-CA--CB-[SG] |==|  0.90485
USER: genes 15 Torsion [CA]-CB--SG-[HG] |==|  0.79422
USER: genes 16 Torsion [N]-CA--CB-[OG1] |==|  0.99778
USER: genes 17 Torsion [CA]-CB--OG1-[HG1] |==|  0.22705
USER: genes 18 Torsion [N]-C--CA-[N] |==|  0.07836
USER: genes 19 Torsion [C]-CA--N-[C] |==|  0.16279
USER: genes 20 Torsion [N]-C--CA-[N] |==|  0.98545
USER: genes 21 Torsion [C]-CA--N-[C] |==|  0.71213
USER: genes 22 Torsion [N]-C--CA-[N] |==|  0.11422
USER: genes 23 Torsion [C]-CA--CB-[CG] |==|  0.31131
USER: genes 24 Torsion [CA]-CB--CG-[CD2] |==|  0.12818
ROOT
ATOM      1  C   ALA E  68       8.278   5.739  24.557  1.00 21.38 LIG 0.24  C 
ATOM      2 O    ALA E  68       8.276   4.855  23.693  1.00 23.30 LIG-0.27  OA
ATOM      3  N   THR E  69       8.250   5.484  25.870  1.00 18.30 LIG-0.34  N 
ATOM      4 H    THR E  69       8.147   6.086  26.476  1.00 18.30 LIG 0.16  HD
ENDROOT
BRANCH 3 5
ATOM      5  CA  THR E  69       8.400   4.125  26.385  1.00 19.45 LIG 0.20  C 
BRANCH 5 6
ATOM      6  C   THR E  69       7.467   3.133  25.663  1.00 19.66 LIG 0.24  C 
ATOM      7  N   CYS E  70       8.015   2.022  25.207  1.00 18.57 LIG-0.34  N 
ATOM      8 H    CYS E  70       8.834   1.797  25.342  1.00 18.57 LIG 0.16  HD
ATOM      9 O    THR E  69       6.289   3.382  25.505  1.00 20.15 LIG-0.27  OA
BRANCH 7 10
ATOM     10  CA  CYS E  70       7.250   1.069  24.420  1.00 18.45 LIG 0.18  C 
BRANCH 10 11
ATOM     11  C   CYS E  70       6.633   0.092  25.402  1.00 19.42 LIG 0.24  C 
ATOM     12  N   ASP E  71       6.123   0.628  26.524  1.00 17.61 LIG-0.34  N 
ATOM     13 H    ASP E  71       6.166   1.467  26.709  1.00 17.61 LIG 0.16  HD
ATOM     14 O    CYS E  70       6.664  -1.117  25.150  1.00 18.07 LIG-0.27  OA
BRANCH 12 15
ATOM     15  CA  ASP E  71       5.449  -0.158  27.538  1.00 16.95 LIG 0.19  C 
BRANCH 15 16
ATOM     16  C   ASP E  71       4.024  -0.212  27.075  1.00 18.90 LIG 0.24  C 
ATOM     17 O    ASP E  71       3.180  -0.864  27.738  1.00 16.52 LIG-0.27  OA
ATOM     18  N   SER E  72       3.748   0.440  25.944  1.00 19.80 LIG-0.34  N 
ATOM     19 H    SER E  72       4.338   0.832  25.456  1.00 19.80 LIG 0.16  HD
BRANCH 18 20
ATOM     20  CA  SER E  72       2.381   0.533  25.443  1.00 20.01 LIG 0.20  C 
BRANCH 20 21
ATOM     21  C   SER E  72       1.367   0.815  26.506  1.00 24.22 LIG 0.29  C 
ATOM     22  N   NH2 E  73       0.512  -0.230  26.790  1.00 28.43 LIG-0.11  N 
ATOM     23 O    SER E  72       1.168   1.943  26.896  1.00 27.83 LIG-0.27  OA
ENDBRANCH 20 21
BRANCH 20 24
ATOM     24  CB  SER E  72       2.003  -0.739  24.721  1.00 25.59 LIG 0.20  C 
BRANCH 24 25
ATOM     25 OG   SER E  72       3.144  -1.390  24.217  1.00 28.15 LIG-0.40  OA
ATOM     26 HG   SER E  72       3.747  -0.824  24.067  1.00 28.15 LIG 0.21  HD
ENDBRANCH 24 25
ENDBRANCH 20 24
ENDBRANCH 18 20
ENDBRANCH 15 16
BRANCH 15 27
ATOM     27  CB  ASP E  71       5.596   0.486  28.926  1.00 12.80 LIG 0.15  C 
BRANCH 27 28
ATOM     28  CG  ASP E  71       6.994   0.983  29.172  1.00 14.21 LIG 0.17  C 
ATOM     29 OD2  ASP E  71       7.978   0.323  28.806  1.00 15.44 LIG-0.65  OA
ATOM     30 OD1  ASP E  71       7.129   2.056  29.776  1.00 16.80 LIG-0.65  OA
ENDBRANCH 27 28
ENDBRANCH 15 27
ENDBRANCH 12 15
ENDBRANCH 10 11
BRANCH 10 31
ATOM     31  CB  CYS E  70       8.151   0.347  23.380  1.00 19.19 LIG 0.10  C 
BRANCH 31 32
ATOM     32 SG   CYS E  70       9.494   1.316  22.656  1.00 25.14 LIG-0.18  SA
ATOM     33 HG   CYS E  70       9.043   2.099  21.865  1.00 25.14 LIG 0.10  HD
ENDBRANCH 31 32
ENDBRANCH 10 31
ENDBRANCH 7 10
ENDBRANCH 5 6
BRANCH 5 34
ATOM     34  CB  THR E  69       8.191   4.104  27.910  1.00 17.77 LIG 0.15  C 
ATOM     35  CG2 THR E  69       9.424   3.616  28.588  1.00 20.71 LIG 0.04  C 
BRANCH 34 36
ATOM     36 OG1  THR E  69       7.929   5.404  28.404  1.00 16.43 LIG-0.39  OA
ATOM     37 HG1  THR E  69       7.118   5.590  28.290  1.00 16.43 LIG 0.21  HD
ENDBRANCH 34 36
ENDBRANCH 5 34
ENDBRANCH 3 5
BRANCH 1 38
ATOM     38  CA  ALA E  68       8.318   7.204  24.132  1.00 20.08 LIG 0.17  C 
ATOM     39  CB  ALA E  68       9.043   7.352  22.816  1.00 20.16 LIG 0.04  C 
BRANCH 38 40
ATOM     40  N   ALA E  68       8.956   8.006  25.139  1.00 18.16 LIG-0.35  N 
ATOM     41 H    ALA E  68       8.471   8.641  25.457  1.00 18.16 LIG 0.16  HD
ATOM     42  C   TRP E  67      10.194   7.754  25.517  1.00 18.88 LIG 0.24  C 
ATOM     43 O    TRP E  67      10.918   6.877  25.020  1.00 21.47 LIG-0.27  OA
BRANCH 42 44
ATOM     44  CA  TRP E  67      10.722   8.684  26.548  1.00 17.18 LIG 0.18  C 
BRANCH 44 45
ATOM     45  N   TRP E  67       9.760   9.803  26.851  1.00 16.72 LIG-0.35  N 
ATOM     46  C   PRO E  66       9.895  11.062  26.408  1.00 16.87 LIG 0.24  C 
ATOM     47 O    PRO E  66      10.892  11.479  25.823  1.00 18.41 LIG-0.27  OA
ATOM     48 H    TRP E  67       9.102   9.556  27.345  1.00 16.72 LIG 0.16  HD
BRANCH 46 49
ATOM     49  CA  PRO E  66       8.742  12.057  26.691  1.00 17.04 LIG 0.18  C 
ATOM     50  CB  PRO E  66       9.214  13.519  26.620  1.00 18.40 LIG 0.04  C 
ATOM     51  CG  PRO E  66       9.310  14.001  28.039  1.00 18.41 LIG 0.02  C 
ATOM     52  CD  PRO E  66       8.294  13.208  28.812  1.00 21.21 LIG 0.13  C 
ATOM     53  N   PRO E  66       8.134  11.972  28.034  1.00 19.82 LIG-0.34  N 
ATOM     54  C   ACE E  65       7.407  10.855  28.348  1.00 17.72 LIG 0.22  C 
ATOM     55  CH3 ACE E  65       6.765  10.821  29.675  1.00 22.93 LIG 0.12  C 
ATOM     56 O    ACE E  65       7.304   9.894  27.622  1.00 18.13 LIG-0.27  OA
ENDBRANCH 46 49
ENDBRANCH 44 45
BRANCH 44 57
ATOM     57  CB  TRP E  67      11.115   7.927  27.844  1.00 18.36 LIG 0.07  C 
BRANCH 57 58
ATOM     58  CG  TRP E  67      12.533   7.906  28.110  1.00 19.51 LIG-0.03  A 
ATOM     59  CD1 TRP E  67      13.280   6.836  28.463  1.00 20.71 LIG 0.10  A 
ATOM     60  NE1 TRP E  67      14.584   7.205  28.619  1.00 21.73 LIG-0.36  N 
ATOM     61  CE2 TRP E  67      14.697   8.541  28.364  1.00 22.59 LIG 0.04  A 
ATOM     62 HE1  TRP E  67      15.229   6.681  28.842  1.00 21.73 LIG 0.17  HD
ATOM     63  CD2 TRP E  67      13.412   9.013  28.035  1.00 20.57 LIG-0.00  A 
ATOM     64  CZ2 TRP E  67      15.806   9.371  28.388  1.00 23.91 LIG 0.03  A 
ATOM     65  CE3 TRP E  67      13.246  10.361  27.720  1.00 19.56 LIG 0.01  A 
ATOM     66  CZ3 TRP E  67      14.329  11.173  27.743  1.00 20.82 LIG 0.00  A 
ATOM     67  CH2 TRP E  67      15.604  10.686  28.072  1.00 24.07 LIG 0.00  A 
ENDBRANCH 57 58
ENDBRANCH 44 57
ENDBRANCH 42 44
ENDBRANCH 38 40
ENDBRANCH 1 38
TORSDOF 23
ENDMDL
MODEL 4
USER: ADFR SOLUTION from run 95
USER: SCORE 18.751544 LL:  -4.838 LR: -15.884 RR:   0.000 FEB:  -9.023
USER: RMSD 4.875834
USER: SEED 94
USER: STATUS no improvement in best in 9 clusters for 5 generations
USER: GENES 25
USER: genes 0 Translation |==|  0.55808 0.58381 0.29108
USER: genes 1 Rotation |==|  0.49794 0.85828 0.54021 0.84643
USER: genes 2 Torsion [C]-N--CA-[C] |==|  0.85518
USER: genes 3 Torsion [N]-CA--C-[N] |==|  0.36466
USER: genes 4 Torsion [C]-N--CA-[C] |==|  0.75427
USER: genes 5 Torsion [N]-CA--C-[N] |==|  0.13513
USER: genes 6 Torsion [C]-N--CA-[C] |==|  0.75803
USER: genes 7 Torsion [N]-CA--C-[N] |==|  0.98923
USER: genes 8 Torsion [C]-N--CA-[CB] |==|  0.78854
USER: genes 9 Torsion [N]-CA--C-[N] |==|  0.67378
USER: genes 10 Torsion [N]-CA--CB-[OG] |==|  0.91610
USER: genes 11 Torsion [CA]-CB--OG-[HG] |==|  0.91804
USER: genes 12 Torsion [N]-CA--CB-[CG] |==|  0.88765
USER: genes 13 Torsion [CA]-CB--CG-[OD2] |==|  0.40266
USER: genes 14 Torsion [N]-CA--CB-[SG] |==|  0.93605
USER: genes 15 Torsion [CA]-CB--SG-[HG] |==|  0.74653
USER: genes 16 Torsion [N]-CA--CB-[OG1] |==|  0.04779
USER: genes 17 Torsion [CA]-CB--OG1-[HG1] |==|  0.37501
USER: genes 18 Torsion [N]-C--CA-[N] |==|  0.08080
USER: genes 19 Torsion [C]-CA--N-[C] |==|  0.15013
USER: genes 20 Torsion [N]-C--CA-[N] |==|  0.46635
USER: genes 21 Torsion [C]-CA--N-[C] |==|  0.63285
USER: genes 22 Torsion [N]-C--CA-[N] |==|  0.24157
USER: genes 23 Torsion [C]-CA--CB-[CG] |==|  0.29826
USER: genes 24 Torsion [CA]-CB--CG-[CD2] |==|  0.39071
ROOT
ATOM      1  C   ALA E  68       8.344   5.828  24.563  1.00 21.38 LIG 0.24  C 
ATOM      2 O    ALA E  68       8.293   4.994  23.652  1.00 23.30 LIG-0.27  OA
ATOM      3  N   THR E  69       8.394   5.501  25.859  1.00 18.30 LIG-0.34  N 
ATOM      4 H    THR E  69       8.325   6.068  26.503  1.00 18.30 LIG 0.16  HD
ENDROOT
BRANCH 3 5
ATOM      5  CA  THR E  69       8.574   4.115  26.287  1.00 19.45 LIG 0.20  C 
BRANCH 5 6
ATOM      6  C   THR E  69       7.554   3.173  25.623  1.00 19.66 LIG 0.24  C 
ATOM      7  N   CYS E  70       8.028   2.069  25.073  1.00 18.57 LIG-0.34  N 
ATOM      8 H    CYS E  70       8.850   1.823  25.120  1.00 18.57 LIG 0.16  HD
ATOM      9 O    THR E  69       6.372   3.451  25.590  1.00 20.15 LIG-0.27  OA
BRANCH 7 10
ATOM     10  CA  CYS E  70       7.168   1.165  24.329  1.00 18.45 LIG 0.18  C 
BRANCH 10 11
ATOM     11  C   CYS E  70       6.593   0.186  25.336  1.00 19.42 LIG 0.24  C 
ATOM     12  N   ASP E  71       6.069   0.728  26.449  1.00 17.61 LIG-0.34  N 
ATOM     13 H    ASP E  71       6.081   1.572  26.615  1.00 17.61 LIG 0.16  HD
ATOM     14 O    CYS E  70       6.669  -1.026  25.110  1.00 18.07 LIG-0.27  OA
BRANCH 12 15
ATOM     15  CA  ASP E  71       5.430  -0.062  27.484  1.00 16.95 LIG 0.19  C 
BRANCH 15 16
ATOM     16  C   ASP E  71       4.005  -0.172  27.034  1.00 18.90 LIG 0.24  C 
ATOM     17 O    ASP E  71       3.202  -0.888  27.684  1.00 16.52 LIG-0.27  OA
ATOM     18  N   SER E  72       3.683   0.501  25.928  1.00 19.80 LIG-0.34  N 
ATOM     19 H    SER E  72       4.246   0.938  25.447  1.00 19.80 LIG 0.16  HD
BRANCH 18 20
ATOM     20  CA  SER E  72       2.307   0.540  25.445  1.00 20.01 LIG 0.20  C 
BRANCH 20 21
ATOM     21  C   SER E  72       1.301   0.840  26.511  1.00 24.22 LIG 0.29  C 
ATOM     22  N   NH2 E  73       0.381  -0.161  26.744  1.00 28.43 LIG-0.11  N 
ATOM     23 O    SER E  72       1.168   1.961  26.947  1.00 27.83 LIG-0.27  OA
ENDBRANCH 20 21
BRANCH 20 24
ATOM     24  CB  SER E  72       1.950  -0.768  24.780  1.00 25.59 LIG 0.20  C 
BRANCH 24 25
ATOM     25 OG   SER E  72       3.083  -1.361  24.195  1.00 28.15 LIG-0.40  OA
ATOM     26 HG   SER E  72       3.624  -0.762  23.961  1.00 28.15 LIG 0.21  HD
ENDBRANCH 24 25
ENDBRANCH 20 24
ENDBRANCH 18 20
ENDBRANCH 15 16
BRANCH 15 27
ATOM     27  CB  ASP E  71       5.566   0.614  28.858  1.00 12.80 LIG 0.15  C 
BRANCH 27 28
ATOM     28  CG  ASP E  71       6.930   1.217  29.057  1.00 14.21 LIG 0.17  C 
ATOM     29 OD2  ASP E  71       7.073   2.270  29.696  1.00 15.44 LIG-0.65  OA
ATOM     30 OD1  ASP E  71       7.898   0.643  28.540  1.00 16.80 LIG-0.65  OA
ENDBRANCH 27 28
ENDBRANCH 15 27
ENDBRANCH 12 15
ENDBRANCH 10 11
BRANCH 10 31
ATOM     31  CB  CYS E  70       7.957   0.437  23.206  1.00 19.19 LIG 0.10  C 
BRANCH 31 32
ATOM     32 SG   CYS E  70       9.463   1.243  22.616  1.00 25.14 LIG-0.18  SA
ATOM     33 HG   CYS E  70       9.199   1.957  21.687  1.00 25.14 LIG 0.10  HD
ENDBRANCH 31 32
ENDBRANCH 10 31
ENDBRANCH 7 10
ENDBRANCH 5 6
BRANCH 5 34
ATOM     34  CB  THR E  69       8.530   4.020  27.823  1.00 17.77 LIG 0.15  C 
ATOM     35  CG2 THR E  69       9.912   3.912  28.368  1.00 20.71 LIG 0.04  C 
BRANCH 34 36
ATOM     36 OG1  THR E  69       7.949   5.181  28.388  1.00 16.43 LIG-0.39  OA
ATOM     37 HG1  THR E  69       7.399   4.958  28.983  1.00 16.43 LIG 0.21  HD
ENDBRANCH 34 36
ENDBRANCH 5 34
ENDBRANCH 3 5
BRANCH 1 38
ATOM     38  CA  ALA E  68       8.358   7.315  24.219  1.00 20.08 LIG 0.17  C 
ATOM     39  CB  ALA E  68       8.985   7.538  22.864  1.00 20.16 LIG 0.04  C 
BRANCH 38 40
ATOM     40  N   ALA E  68       9.070   8.061  25.220  1.00 18.16 LIG-0.35  N 
ATOM     41 H    ALA E  68       8.631   8.715  25.565  1.00 18.16 LIG 0.16  HD
ATOM     42  C   TRP E  67      10.302   7.732  25.556  1.00 18.88 LIG 0.24  C 
ATOM     43 O    TRP E  67      10.960   6.825  25.020  1.00 21.47 LIG-0.27  OA
BRANCH 42 44
ATOM     44  CA  TRP E  67      10.913   8.610  26.586  1.00 17.18 LIG 0.18  C 
BRANCH 44 45
ATOM     45  N   TRP E  67      12.188   8.032  27.143  1.00 16.72 LIG-0.35  N 
ATOM     46  C   PRO E  66      12.476   7.944  28.451  1.00 16.87 LIG 0.24  C 
ATOM     47 O    PRO E  66      11.795   8.455  29.337  1.00 18.41 LIG-0.27  OA
ATOM     48 H    TRP E  67      12.727   7.756  26.533  1.00 16.72 LIG 0.16  HD
BRANCH 46 49
ATOM     49  CA  PRO E  66      13.766   7.192  28.859  1.00 17.04 LIG 0.18  C 
ATOM     50  CB  PRO E  66      13.684   6.647  30.295  1.00 18.40 LIG 0.04  C 
ATOM     51  CG  PRO E  66      14.537   7.548  31.139  1.00 18.41 LIG 0.02  C 
ATOM     52  CD  PRO E  66      15.604   8.079  30.224  1.00 21.21 LIG 0.13  C 
ATOM     53  N   PRO E  66      15.002   8.001  28.886  1.00 19.82 LIG-0.34  N 
ATOM     54  C   ACE E  65      15.504   8.460  27.697  1.00 17.72 LIG 0.22  C 
ATOM     55  CH3 ACE E  65      16.767   9.217  27.748  1.00 22.93 LIG 0.12  C 
ATOM     56 O    ACE E  65      14.948   8.315  26.633  1.00 18.13 LIG-0.27  OA
ENDBRANCH 46 49
ENDBRANCH 44 45
BRANCH 44 57
ATOM     57  CB  TRP E  67      11.147  10.043  26.041  1.00 18.36 LIG 0.07  C 
BRANCH 57 58
ATOM     58  CG  TRP E  67      10.242  11.033  26.572  1.00 19.51 LIG-0.03  A 
ATOM     59  CD1 TRP E  67       8.925  10.877  26.832  1.00 20.71 LIG 0.10  A 
ATOM     60  NE1 TRP E  67       8.406  12.032  27.337  1.00 21.73 LIG-0.36  N 
ATOM     61  CE2 TRP E  67       9.399  12.966  27.410  1.00 22.59 LIG 0.04  A 
ATOM     62 HE1  TRP E  67       7.586  12.152  27.570  1.00 21.73 LIG 0.17  HD
ATOM     63  CD2 TRP E  67      10.577  12.360  26.935  1.00 20.57 LIG-0.00  A 
ATOM     64  CZ2 TRP E  67       9.369  14.278  27.854  1.00 23.91 LIG 0.03  A 
ATOM     65  CE3 TRP E  67      11.757  13.102  26.909  1.00 19.56 LIG 0.01  A 
ATOM     66  CZ3 TRP E  67      11.730  14.384  27.342  1.00 20.82 LIG 0.00  A 
ATOM     67  CH2 TRP E  67      10.546  14.973  27.815  1.00 24.07 LIG 0.00  A 
ENDBRANCH 57 58
ENDBRANCH 44 57
ENDBRANCH 42 44
ENDBRANCH 38 40
ENDBRANCH 1 38
TORSDOF 23
ENDMDL
MODEL 5
USER: ADFR SOLUTION from run 157
USER: SCORE 19.129479 LL:  -4.432 LR: -15.765 RR:   0.000 FEB:  -8.904
USER: RMSD 12.895830
USER: SEED 156
USER: STATUS no improvement in best in 3 clusters for 5 generations
USER: GENES 25
USER: genes 0 Translation |==|  0.57378 0.51441 0.39989
USER: genes 1 Rotation |==|  0.86958 0.24035 0.32964 0.63027
USER: genes 2 Torsion [C]-N--CA-[C] |==|  0.59250
USER: genes 3 Torsion [N]-CA--C-[N] |==|  0.38565
USER: genes 4 Torsion [C]-N--CA-[C] |==|  0.82693
USER: genes 5 Torsion [N]-CA--C-[N] |==|  0.34444
USER: genes 6 Torsion [C]-N--CA-[C] |==|  0.76732
USER: genes 7 Torsion [N]-CA--C-[N] |==|  0.89525
USER: genes 8 Torsion [C]-N--CA-[CB] |==|  0.81353
USER: genes 9 Torsion [N]-CA--C-[N] |==|  0.42947
USER: genes 10 Torsion [N]-CA--CB-[OG] |==|  0.75417
USER: genes 11 Torsion [CA]-CB--OG-[HG] |==|  0.79028
USER: genes 12 Torsion [N]-CA--CB-[CG] |==|  0.75184
USER: genes 13 Torsion [CA]-CB--CG-[OD2] |==|  0.54793
USER: genes 14 Torsion [N]-CA--CB-[SG] |==|  0.81010
USER: genes 15 Torsion [CA]-CB--SG-[HG] |==|  0.32227
USER: genes 16 Torsion [N]-CA--CB-[OG1] |==|  0.84807
USER: genes 17 Torsion [CA]-CB--OG1-[HG1] |==|  0.18673
USER: genes 18 Torsion [N]-C--CA-[N] |==|  0.42200
USER: genes 19 Torsion [C]-CA--N-[C] |==|  0.73902
USER: genes 20 Torsion [N]-C--CA-[N] |==|  0.86406
USER: genes 21 Torsion [C]-CA--N-[C] |==|  0.88740
USER: genes 22 Torsion [N]-C--CA-[N] |==|  0.19522
USER: genes 23 Torsion [C]-CA--CB-[CG] |==|  0.10488
USER: genes 24 Torsion [CA]-CB--CG-[CD2] |==|  0.20265
ROOT
ATOM      1  C   ALA E  68       8.662   3.851  26.195  1.00 21.38 LIG 0.24  C 
ATOM      2 O    ALA E  68       9.489   3.378  25.407  1.00 23.30 LIG-0.27  OA
ATOM      3  N   THR E  69       8.489   5.164  26.382  1.00 18.30 LIG-0.34  N 
ATOM      4 H    THR E  69       7.994   5.502  26.998  1.00 18.30 LIG 0.16  HD
ENDROOT
BRANCH 3 5
ATOM      5  CA  THR E  69       9.149   6.147  25.525  1.00 19.45 LIG 0.20  C 
BRANCH 5 6
ATOM      6  C   THR E  69       9.513   7.428  26.298  1.00 19.66 LIG 0.24  C 
ATOM      7  N   CYS E  70      10.691   7.968  26.041  1.00 18.57 LIG-0.34  N 
ATOM      8 H    CYS E  70      11.228   7.684  25.432  1.00 18.57 LIG 0.16  HD
ATOM      9 O    THR E  69       8.756   7.900  27.122  1.00 20.15 LIG-0.27  OA
BRANCH 7 10
ATOM     10  CA  CYS E  70      11.178   9.114  26.789  1.00 18.45 LIG 0.18  C 
BRANCH 10 11
ATOM     11  C   CYS E  70      10.206  10.249  26.524  1.00 19.42 LIG 0.24  C 
ATOM     12  N   ASP E  71       9.648  10.811  27.611  1.00 17.61 LIG-0.34  N 
ATOM     13 H    ASP E  71       9.793  10.535  28.412  1.00 17.61 LIG 0.16  HD
ATOM     14 O    CYS E  70       9.952  10.565  25.358  1.00 18.07 LIG-0.27  OA
BRANCH 12 15
ATOM     15  CA  ASP E  71       8.743  11.941  27.536  1.00 16.95 LIG 0.19  C 
BRANCH 15 16
ATOM     16  C   ASP E  71       9.649  13.133  27.468  1.00 18.90 LIG 0.24  C 
ATOM     17 O    ASP E  71       9.351  14.099  26.722  1.00 16.52 LIG-0.27  OA
ATOM     18  N   SER E  72      10.755  13.075  28.212  1.00 19.80 LIG-0.34  N 
ATOM     19 H    SER E  72      10.993  12.388  28.673  1.00 19.80 LIG 0.16  HD
BRANCH 18 20
ATOM     20  CA  SER E  72      11.667  14.211  28.296  1.00 20.01 LIG 0.20  C 
BRANCH 20 21
ATOM     21  C   SER E  72      11.013  15.478  28.748  1.00 24.22 LIG 0.29  C 
ATOM     22  N   NH2 E  73      11.856  16.386  29.354  1.00 28.43 LIG-0.11  N 
ATOM     23 O    SER E  72       9.808  15.578  28.792  1.00 27.83 LIG-0.27  OA
ENDBRANCH 20 21
BRANCH 20 24
ATOM     24  CB  SER E  72      12.332  14.445  26.960  1.00 25.59 LIG 0.20  C 
BRANCH 24 25
ATOM     25 OG   SER E  72      13.512  13.688  26.846  1.00 28.15 LIG-0.40  OA
ATOM     26 HG   SER E  72      14.119  14.043  27.306  1.00 28.15 LIG 0.21  HD
ENDBRANCH 24 25
ENDBRANCH 20 24
ENDBRANCH 18 20
ENDBRANCH 15 16
BRANCH 15 27
ATOM     27  CB  ASP E  71       7.805  11.980  28.753  1.00 12.80 LIG 0.15  C 
BRANCH 27 28
ATOM     28  CG  ASP E  71       6.543  11.195  28.517  1.00 14.21 LIG 0.17  C 
ATOM     29 OD2  ASP E  71       5.546  11.363  29.234  1.00 15.44 LIG-0.65  OA
ATOM     30 OD1  ASP E  71       6.544  10.359  27.604  1.00 16.80 LIG-0.65  OA
ENDBRANCH 27 28
ENDBRANCH 15 27
ENDBRANCH 12 15
ENDBRANCH 10 11
BRANCH 10 31
ATOM     31  CB  CYS E  70      12.626   9.487  26.367  1.00 19.19 LIG 0.10  C 
BRANCH 31 32
ATOM     32 SG   CYS E  70      13.929   8.315  26.808  1.00 25.14 LIG-0.18  SA
ATOM     33 HG   CYS E  70      14.422   7.868  25.808  1.00 25.14 LIG 0.10  HD
ENDBRANCH 31 32
ENDBRANCH 10 31
ENDBRANCH 7 10
ENDBRANCH 5 6
BRANCH 5 34
ATOM     34  CB  THR E  69       8.281   6.449  24.290  1.00 17.77 LIG 0.15  C 
ATOM     35  CG2 THR E  69       9.028   7.321  23.341  1.00 20.71 LIG 0.04  C 
BRANCH 34 36
ATOM     36 OG1  THR E  69       7.956   5.259  23.594  1.00 16.43 LIG-0.39  OA
ATOM     37 HG1  THR E  69       7.447   4.788  24.068  1.00 16.43 LIG 0.21  HD
ENDBRANCH 34 36
ENDBRANCH 5 34
ENDBRANCH 3 5
BRANCH 1 38
ATOM     38  CA  ALA E  68       7.776   2.910  27.006  1.00 20.08 LIG 0.17  C 
ATOM     39  CB  ALA E  68       8.388   2.643  28.360  1.00 20.16 LIG 0.04  C 
BRANCH 38 40
ATOM     40  N   ALA E  68       7.575   1.672  26.305  1.00 18.16 LIG-0.35  N 
ATOM     41 H    ALA E  68       8.186   1.080  26.432  1.00 18.16 LIG 0.16  HD
ATOM     42  C   TRP E  67       6.519   1.498  25.534  1.00 18.88 LIG 0.24  C 
ATOM     43 O    TRP E  67       5.665   2.369  25.302  1.00 21.47 LIG-0.27  OA
BRANCH 42 44
ATOM     44  CA  TRP E  67       6.463   0.176  24.859  1.00 17.18 LIG 0.18  C 
BRANCH 44 45
ATOM     45  N   TRP E  67       7.762  -0.172  24.182  1.00 16.72 LIG-0.35  N 
ATOM     46  C   PRO E  66       8.520   0.697  23.496  1.00 16.87 LIG 0.24  C 
ATOM     47 O    PRO E  66       8.169   1.843  23.222  1.00 18.41 LIG-0.27  OA
ATOM     48 H    TRP E  67       7.980  -0.998  24.277  1.00 16.72 LIG 0.16  HD
BRANCH 46 49
ATOM     49  CA  PRO E  66       9.898   0.211  22.984  1.00 17.04 LIG 0.18  C 
ATOM     50  CB  PRO E  66      10.728   1.360  22.388  1.00 18.40 LIG 0.04  C 
ATOM     51  CG  PRO E  66      10.673   1.193  20.898  1.00 18.41 LIG 0.02  C 
ATOM     52  CD  PRO E  66      10.501  -0.280  20.656  1.00 21.21 LIG 0.13  C 
ATOM     53  N   PRO E  66       9.865  -0.774  21.885  1.00 19.82 LIG-0.34  N 
ATOM     54  C   ACE E  65       9.388  -2.030  22.152  1.00 17.72 LIG 0.22  C 
ATOM     55  CH3 ACE E  65       9.418  -3.009  21.051  1.00 22.93 LIG 0.12  C 
ATOM     56 O    ACE E  65       8.911  -2.355  23.214  1.00 18.13 LIG-0.27  OA
ENDBRANCH 46 49
ENDBRANCH 44 45
BRANCH 44 57
ATOM     57  CB  TRP E  67       6.034  -0.944  25.843  1.00 18.36 LIG 0.07  C 
BRANCH 57 58
ATOM     58  CG  TRP E  67       5.028  -0.541  26.795  1.00 19.51 LIG-0.03  A 
ATOM     59  CD1 TRP E  67       5.205  -0.297  28.113  1.00 20.71 LIG 0.10  A 
ATOM     60  NE1 TRP E  67       4.023   0.071  28.685  1.00 21.73 LIG-0.36  N 
ATOM     61  CE2 TRP E  67       3.051   0.068  27.727  1.00 22.59 LIG 0.04  A 
ATOM     62 HE1  TRP E  67       3.910   0.272  29.514  1.00 21.73 LIG 0.17  HD
ATOM     63  CD2 TRP E  67       3.659  -0.313  26.517  1.00 20.57 LIG-0.00  A 
ATOM     64  CZ2 TRP E  67       1.701   0.370  27.815  1.00 23.91 LIG 0.03  A 
ATOM     65  CE3 TRP E  67       2.880  -0.390  25.363  1.00 19.56 LIG 0.01  A 
ATOM     66  CZ3 TRP E  67       1.562  -0.096  25.446  1.00 20.82 LIG 0.00  A 
ATOM     67  CH2 TRP E  67       0.971   0.284  26.662  1.00 24.07 LIG 0.00  A 
ENDBRANCH 57 58
ENDBRANCH 44 57
ENDBRANCH 42 44
ENDBRANCH 38 40
ENDBRANCH 1 38
TORSDOF 23
ENDMDL
MODEL 6
USER: ADFR SOLUTION from run 114
USER: SCORE 19.451466 LL:  -4.525 LR: -15.763 RR:   0.000 FEB:  -8.902
USER: RMSD 3.545768
USER: SEED 113
USER: STATUS no improvement in best in 8 clusters for 5 generations
USER: GENES 25
USER: genes 0 Translation |==|  0.55236 0.58229 0.28650
USER: genes 1 Rotation |==|  0.48222 0.83221 0.50944 0.87313
USER: genes 2 Torsion [C]-N--CA-[C] |==|  0.84385
USER: genes 3 Torsion [N]-CA--C-[N] |==|  0.42202
USER: genes 4 Torsion [C]-N--CA-[C] |==|  0.73165
USER: genes 5 Torsion [N]-CA--C-[N] |==|  0.39665
USER: genes 6 Torsion [C]-N--CA-[C] |==|  0.77300
USER: genes 7 Torsion [N]-CA--C-[N] |==|  0.88012
USER: genes 8 Torsion [C]-N--CA-[CB] |==|  0.84291
USER: genes 9 Torsion [N]-CA--C-[N] |==|  0.41581
USER: genes 10 Torsion [N]-CA--CB-[OG] |==|  0.59711
USER: genes 11 Torsion [CA]-CB--OG-[HG] |==|  0.92612
USER: genes 12 Torsion [N]-CA--CB-[CG] |==|  0.71362
USER: genes 13 Torsion [CA]-CB--CG-[OD2] |==|  0.78869
USER: genes 14 Torsion [N]-CA--CB-[SG] |==|  0.80625
USER: genes 15 Torsion [CA]-CB--SG-[HG] |==|  0.90595
USER: genes 16 Torsion [N]-CA--CB-[OG1] |==|  0.01560
USER: genes 17 Torsion [CA]-CB--OG1-[HG1] |==|  0.15444
USER: genes 18 Torsion [N]-C--CA-[N] |==|  0.08239
USER: genes 19 Torsion [C]-CA--N-[C] |==|  0.15867
USER: genes 20 Torsion [N]-C--CA-[N] |==|  0.00289
USER: genes 21 Torsion [C]-CA--N-[C] |==|  0.69865
USER: genes 22 Torsion [N]-C--CA-[N] |==|  0.13858
USER: genes 23 Torsion [C]-CA--CB-[CG] |==|  0.30589
USER: genes 24 Torsion [CA]-CB--CG-[CD2] |==|  0.13605
ROOT
ATOM      1  C   ALA E  68       8.228   5.785  24.495  1.00 21.38 LIG 0.24  C 
ATOM      2 O    ALA E  68       8.267   4.846  23.692  1.00 23.30 LIG-0.27  OA
ATOM      3  N   THR E  69       8.064   5.622  25.812  1.00 18.30 LIG-0.34  N 
ATOM      4 H    THR E  69       7.931   6.268  26.365  1.00 18.30 LIG 0.16  HD
ENDROOT
BRANCH 3 5
ATOM      5  CA  THR E  69       8.097   4.296  26.424  1.00 19.45 LIG 0.20  C 
BRANCH 5 6
ATOM      6  C   THR E  69       7.064   3.345  25.791  1.00 19.66 LIG 0.24  C 
ATOM      7  N   CYS E  70       7.345   2.055  25.813  1.00 18.57 LIG-0.34  N 
ATOM      8 H    CYS E  70       8.030   1.718  26.209  1.00 18.57 LIG 0.16  HD
ATOM      9 O    THR E  69       6.050   3.774  25.276  1.00 20.15 LIG-0.27  OA
BRANCH 7 10
ATOM     10  CA  CYS E  70       6.492   1.083  25.151  1.00 18.45 LIG 0.18  C 
BRANCH 10 11
ATOM     11  C   CYS E  70       5.566   0.523  26.214  1.00 19.42 LIG 0.24  C 
ATOM     12  N   ASP E  71       4.306   0.266  25.822  1.00 17.61 LIG-0.34  N 
ATOM     13 H    ASP E  71       4.014   0.435  25.031  1.00 17.61 LIG 0.16  HD
ATOM     14 O    CYS E  70       5.991   0.373  27.365  1.00 18.07 LIG-0.27  OA
BRANCH 12 15
ATOM     15  CA  ASP E  71       3.313  -0.324  26.698  1.00 16.95 LIG 0.19  C 
BRANCH 15 16
ATOM     16  C   ASP E  71       3.603  -1.793  26.647  1.00 18.90 LIG 0.24  C 
ATOM     17 O    ASP E  71       3.608  -2.463  27.710  1.00 16.52 LIG-0.27  OA
ATOM     18  N   SER E  72       3.865  -2.299  25.441  1.00 19.80 LIG-0.34  N 
ATOM     19 H    SER E  72       3.925  -1.831  24.722  1.00 19.80 LIG 0.16  HD
BRANCH 18 20
ATOM     20  CA  SER E  72       4.074  -3.731  25.255  1.00 20.01 LIG 0.20  C 
BRANCH 20 21
ATOM     21  C   SER E  72       2.854  -4.558  25.510  1.00 24.22 LIG 0.29  C 
ATOM     22  N   NH2 E  73       2.771  -5.720  24.771  1.00 28.43 LIG-0.11  N 
ATOM     23 O    SER E  72       1.915  -4.112  26.130  1.00 27.83 LIG-0.27  OA
ENDBRANCH 20 21
BRANCH 20 24
ATOM     24  CB  SER E  72       5.196  -4.214  26.144  1.00 25.59 LIG 0.20  C 
BRANCH 24 25
ATOM     25 OG   SER E  72       5.936  -5.230  25.514  1.00 28.15 LIG-0.40  OA
ATOM     26 HG   SER E  72       5.448  -5.631  24.959  1.00 28.15 LIG 0.21  HD
ENDBRANCH 24 25
ENDBRANCH 20 24
ENDBRANCH 18 20
ENDBRANCH 15 16
BRANCH 15 27
ATOM     27  CB  ASP E  71       1.890   0.015  26.227  1.00 12.80 LIG 0.15  C 
BRANCH 27 28
ATOM     28  CG  ASP E  71       1.260   1.096  27.064  1.00 14.21 LIG 0.17  C 
ATOM     29 OD2  ASP E  71       0.825   0.849  28.198  1.00 15.44 LIG-0.65  OA
ATOM     30 OD1  ASP E  71       1.168   2.229  26.572  1.00 16.80 LIG-0.65  OA
ENDBRANCH 27 28
ENDBRANCH 15 27
ENDBRANCH 12 15
ENDBRANCH 10 11
BRANCH 10 31
ATOM     31  CB  CYS E  70       7.333  -0.034  24.474  1.00 19.19 LIG 0.10  C 
BRANCH 31 32
ATOM     32 SG   CYS E  70       8.302   0.442  23.025  1.00 25.14 LIG-0.18  SA
ATOM     33 HG   CYS E  70       7.713   1.288  22.409  1.00 25.14 LIG 0.10  HD
ENDBRANCH 31 32
ENDBRANCH 10 31
ENDBRANCH 7 10
ENDBRANCH 5 6
BRANCH 5 34
ATOM     34  CB  THR E  69       7.918   4.405  27.949  1.00 17.77 LIG 0.15  C 
ATOM     35  CG2 THR E  69       9.173   4.001  28.642  1.00 20.71 LIG 0.04  C 
BRANCH 34 36
ATOM     36 OG1  THR E  69       7.641   5.740  28.333  1.00 16.43 LIG-0.39  OA
ATOM     37 HG1  THR E  69       6.969   6.018  27.914  1.00 16.43 LIG 0.21  HD
ENDBRANCH 34 36
ENDBRANCH 5 34
ENDBRANCH 3 5
BRANCH 1 38
ATOM     38  CA  ALA E  68       8.380   7.215  23.983  1.00 20.08 LIG 0.17  C 
ATOM     39  CB  ALA E  68       9.203   7.239  22.718  1.00 20.16 LIG 0.04  C 
BRANCH 38 40
ATOM     40  N   ALA E  68       8.987   8.050  24.983  1.00 18.16 LIG-0.35  N 
ATOM     41 H    ALA E  68       8.524   8.739  25.209  1.00 18.16 LIG 0.16  HD
ATOM     42  C   TRP E  67      10.166   7.745  25.489  1.00 18.88 LIG 0.24  C 
ATOM     43 O    TRP E  67      10.863   6.785  25.124  1.00 21.47 LIG-0.27  OA
BRANCH 42 44
ATOM     44  CA  TRP E  67      10.672   8.716  26.494  1.00 17.18 LIG 0.18  C 
BRANCH 44 45
ATOM     45  N   TRP E  67       9.700   9.841  26.737  1.00 16.72 LIG-0.35  N 
ATOM     46  C   PRO E  66       9.883  11.106  26.328  1.00 16.87 LIG 0.24  C 
ATOM     47 O    PRO E  66      10.929  11.520  25.833  1.00 18.41 LIG-0.27  OA
ATOM     48 H    TRP E  67       9.001   9.593  27.172  1.00 16.72 LIG 0.16  HD
BRANCH 46 49
ATOM     49  CA  PRO E  66       8.721  12.108  26.534  1.00 17.04 LIG 0.18  C 
ATOM     50  CB  PRO E  66       9.171  13.562  26.313  1.00 18.40 LIG 0.04  C 
ATOM     51  CG  PRO E  66       9.285  14.181  27.676  1.00 18.41 LIG 0.02  C 
ATOM     52  CD  PRO E  66       8.293  13.456  28.541  1.00 21.21 LIG 0.13  C 
ATOM     53  N   PRO E  66       8.137  12.148  27.889  1.00 19.82 LIG-0.34  N 
ATOM     54  C   ACE E  65       7.431  11.057  28.325  1.00 17.72 LIG 0.22  C 
ATOM     55  CH3 ACE E  65       6.813  11.146  29.659  1.00 22.93 LIG 0.12  C 
ATOM     56 O    ACE E  65       7.330  10.029  27.698  1.00 18.13 LIG-0.27  OA
ENDBRANCH 46 49
ENDBRANCH 44 45
BRANCH 44 57
ATOM     57  CB  TRP E  67      11.045   8.010  27.824  1.00 18.36 LIG 0.07  C 
BRANCH 57 58
ATOM     58  CG  TRP E  67      12.461   7.967  28.094  1.00 19.51 LIG-0.03  A 
ATOM     59  CD1 TRP E  67      13.190   6.885  28.446  1.00 20.71 LIG 0.10  A 
ATOM     60  NE1 TRP E  67      14.499   7.233  28.607  1.00 21.73 LIG-0.36  N 
ATOM     61  CE2 TRP E  67      14.633   8.568  28.356  1.00 22.59 LIG 0.04  A 
ATOM     62 HE1  TRP E  67      15.136   6.698  28.830  1.00 21.73 LIG 0.17  HD
ATOM     63  CD2 TRP E  67      13.357   9.060  28.024  1.00 20.57 LIG-0.00  A 
ATOM     64  CZ2 TRP E  67      15.755   9.380  28.385  1.00 23.91 LIG 0.03  A 
ATOM     65  CE3 TRP E  67      13.213  10.412  27.713  1.00 19.56 LIG 0.01  A 
ATOM     66  CZ3 TRP E  67      14.307  11.207  27.740  1.00 20.82 LIG 0.00  A 
ATOM     67  CH2 TRP E  67      15.574  10.699  28.072  1.00 24.07 LIG 0.00  A 
ENDBRANCH 57 58
ENDBRANCH 44 57
ENDBRANCH 42 44
ENDBRANCH 38 40
ENDBRANCH 1 38
TORSDOF 23
ENDMDL
MODEL 7
USER: ADFR SOLUTION from run 58
USER: SCORE 18.006950 LL:  -4.831 LR: -15.630 RR:   0.000 FEB:  -8.769
USER: RMSD 7.303997
USER: SEED 57
USER: STATUS no improvement in best in 11 clusters for 5 generations
USER: GENES 25
USER: genes 0 Translation |==|  0.58335 0.60089 0.36783
USER: genes 1 Rotation |==|  0.34716 0.14218 0.61710 0.79137
USER: genes 2 Torsion [C]-N--CA-[C] |==|  0.73341
USER: genes 3 Torsion [N]-CA--C-[N] |==|  0.43714
USER: genes 4 Torsion [C]-N--CA-[C] |==|  0.78666
USER: genes 5 Torsion [N]-CA--C-[N] |==|  0.26318
USER: genes 6 Torsion [C]-N--CA-[C] |==|  0.20515
USER: genes 7 Torsion [N]-CA--C-[N] |==|  0.04702
USER: genes 8 Torsion [C]-N--CA-[CB] |==|  0.85024
USER: genes 9 Torsion [N]-CA--C-[N] |==|  0.38482
USER: genes 10 Torsion [N]-CA--CB-[OG] |==|  0.92395
USER: genes 11 Torsion [CA]-CB--OG-[HG] |==|  0.32393
USER: genes 12 Torsion [N]-CA--CB-[CG] |==|  0.61833
USER: genes 13 Torsion [CA]-CB--CG-[OD2] |==|  0.76106
USER: genes 14 Torsion [N]-CA--CB-[SG] |==|  0.11464
USER: genes 15 Torsion [CA]-CB--SG-[HG] |==|  0.61557
USER: genes 16 Torsion [N]-CA--CB-[OG1] |==|  0.01653
USER: genes 17 Torsion [CA]-CB--OG1-[HG1] |==|  0.45968
USER: genes 18 Torsion [N]-C--CA-[N] |==|  0.61210
USER: genes 19 Torsion [C]-CA--N-[C] |==|  0.53754
USER: genes 20 Torsion [N]-C--CA-[N] |==|  0.16118
USER: genes 21 Torsion [C]-CA--N-[C] |==|  0.62356
USER: genes 22 Torsion [N]-C--CA-[N] |==|  0.42787
USER: genes 23 Torsion [C]-CA--CB-[CG] |==|  0.52728
USER: genes 24 Torsion [CA]-CB--CG-[CD2] |==|  0.69437
ROOT
ATOM      1  C   ALA E  68       8.856   6.315  25.715  1.00 21.38 LIG 0.24  C 
ATOM      2 O    ALA E  68       8.719   6.250  26.941  1.00 23.30 LIG-0.27  OA
ATOM      3  N   THR E  69       9.027   5.243  24.934  1.00 18.30 LIG-0.34  N 
ATOM      4 H    THR E  69       9.226   5.281  24.098  1.00 18.30 LIG 0.16  HD
ENDROOT
BRANCH 3 5
ATOM      5  CA  THR E  69       8.884   3.887  25.462  1.00 19.45 LIG 0.20  C 
BRANCH 5 6
ATOM      6  C   THR E  69      10.242   3.282  25.863  1.00 19.66 LIG 0.24  C 
ATOM      7  N   CYS E  70      10.222   2.300  26.746  1.00 18.57 LIG-0.34  N 
ATOM      8 H    CYS E  70       9.502   1.946  27.056  1.00 18.57 LIG 0.16  HD
ATOM      9 O    THR E  69      11.280   3.710  25.401  1.00 20.15 LIG-0.27  OA
BRANCH 7 10
ATOM     10  CA  CYS E  70      11.451   1.731  27.273  1.00 18.45 LIG 0.18  C 
BRANCH 10 11
ATOM     11  C   CYS E  70      12.006   0.824  26.191  1.00 19.42 LIG 0.24  C 
ATOM     12  N   ASP E  71      12.923   1.375  25.376  1.00 17.61 LIG-0.34  N 
ATOM     13 H    ASP E  71      13.166   2.198  25.426  1.00 17.61 LIG 0.16  HD
ATOM     14 O    CYS E  70      11.574  -0.328  26.089  1.00 18.07 LIG-0.27  OA
BRANCH 12 15
ATOM     15  CA  ASP E  71      13.593   0.630  24.328  1.00 16.95 LIG 0.19  C 
BRANCH 15 16
ATOM     16  C   ASP E  71      12.546   0.463  23.268  1.00 18.90 LIG 0.24  C 
ATOM     17 O    ASP E  71      12.713  -0.388  22.360  1.00 16.52 LIG-0.27  OA
ATOM     18  N   SER E  72      11.488   1.271  23.354  1.00 19.80 LIG-0.34  N 
ATOM     19 H    SER E  72      11.404   1.898  23.937  1.00 19.80 LIG 0.16  HD
BRANCH 18 20
ATOM     20  CA  SER E  72      10.365   1.140  22.432  1.00 20.01 LIG 0.20  C 
BRANCH 20 21
ATOM     21  C   SER E  72       9.563  -0.107  22.630  1.00 24.22 LIG 0.29  C 
ATOM     22  N   NH2 E  73       8.196   0.057  22.543  1.00 28.43 LIG-0.11  N 
ATOM     23 O    SER E  72      10.072  -1.113  23.070  1.00 27.83 LIG-0.27  OA
ENDBRANCH 20 21
BRANCH 20 24
ATOM     24  CB  SER E  72      10.854   1.195  21.004  1.00 25.59 LIG 0.20  C 
BRANCH 24 25
ATOM     25 OG   SER E  72      12.043   1.940  20.907  1.00 28.15 LIG-0.40  OA
ATOM     26 HG   SER E  72      12.666   1.441  20.644  1.00 28.15 LIG 0.21  HD
ENDBRANCH 24 25
ENDBRANCH 20 24
ENDBRANCH 18 20
ENDBRANCH 15 16
BRANCH 15 27
ATOM     27  CB  ASP E  71      14.121  -0.713  24.855  1.00 12.80 LIG 0.15  C 
BRANCH 27 28
ATOM     28  CG  ASP E  71      15.506  -1.014  24.348  1.00 14.21 LIG 0.17  C 
ATOM     29 OD2  ASP E  71      15.676  -1.571  23.254  1.00 15.44 LIG-0.65  OA
ATOM     30 OD1  ASP E  71      16.465  -0.711  25.072  1.00 16.80 LIG-0.65  OA
ENDBRANCH 27 28
ENDBRANCH 15 27
ENDBRANCH 12 15
ENDBRANCH 10 11
BRANCH 10 31
ATOM     31  CB  CYS E  70      11.190   0.956  28.594  1.00 19.19 LIG 0.10  C 
BRANCH 31 32
ATOM     32 SG   CYS E  70       9.700  -0.066  28.657  1.00 25.14 LIG-0.18  SA
ATOM     33 HG   CYS E  70       9.172   0.061  29.728  1.00 25.14 LIG 0.10  HD
ENDBRANCH 31 32
ENDBRANCH 10 31
ENDBRANCH 7 10
ENDBRANCH 5 6
BRANCH 5 34
ATOM     34  CB  THR E  69       8.133   2.997  24.455  1.00 17.77 LIG 0.15  C 
ATOM     35  CG2 THR E  69       6.800   2.619  25.002  1.00 20.71 LIG 0.04  C 
BRANCH 34 36
ATOM     36 OG1  THR E  69       7.904   3.686  23.240  1.00 16.43 LIG-0.39  OA
ATOM     37 HG1  THR E  69       7.679   3.138  22.645  1.00 16.43 LIG 0.21  HD
ENDBRANCH 34 36
ENDBRANCH 5 34
ENDBRANCH 3 5
BRANCH 1 38
ATOM     38  CA  ALA E  68       8.826   7.678  25.028  1.00 20.08 LIG 0.17  C 
ATOM     39  CB  ALA E  68       9.417   7.585  23.642  1.00 20.16 LIG 0.04  C 
BRANCH 38 40
ATOM     40  N   ALA E  68       9.541   8.653  25.804  1.00 18.16 LIG-0.35  N 
ATOM     41 H    ALA E  68      10.034   8.327  26.430  1.00 18.16 LIG 0.16  HD
ATOM     42  C   TRP E  67       9.424   9.940  25.544  1.00 18.88 LIG 0.24  C 
ATOM     43 O    TRP E  67       8.670  10.418  24.681  1.00 21.47 LIG-0.27  OA
BRANCH 42 44
ATOM     44  CA  TRP E  67      10.206  10.823  26.446  1.00 17.18 LIG 0.18  C 
BRANCH 44 45
ATOM     45  N   TRP E  67      11.678  10.504  26.418  1.00 16.72 LIG-0.35  N 
ATOM     46  C   PRO E  66      12.458  10.413  27.506  1.00 16.87 LIG 0.24  C 
ATOM     47 O    PRO E  66      12.090  10.719  28.639  1.00 18.41 LIG-0.27  OA
ATOM     48 H    TRP E  67      11.981  10.383  25.623  1.00 16.72 LIG 0.16  HD
BRANCH 46 49
ATOM     49  CA  PRO E  66      13.917   9.935  27.314  1.00 17.04 LIG 0.18  C 
ATOM     50  CB  PRO E  66      14.036   8.403  27.392  1.00 18.40 LIG 0.04  C 
ATOM     51  CG  PRO E  66      14.637   8.093  28.732  1.00 18.41 LIG 0.02  C 
ATOM     52  CD  PRO E  66      15.486   9.282  29.086  1.00 21.21 LIG 0.13  C 
ATOM     53  N   PRO E  66      14.883  10.391  28.334  1.00 19.82 LIG-0.34  N 
ATOM     54  C   ACE E  65      15.200  11.723  28.379  1.00 17.72 LIG 0.22  C 
ATOM     55  CH3 ACE E  65      16.208  12.141  29.370  1.00 22.93 LIG 0.12  C 
ATOM     56 O    ACE E  65      14.670  12.563  27.690  1.00 18.13 LIG-0.27  OA
ENDBRANCH 46 49
ENDBRANCH 44 45
BRANCH 44 57
ATOM     57  CB  TRP E  67       9.959  12.321  26.125  1.00 18.36 LIG 0.07  C 
BRANCH 57 58
ATOM     58  CG  TRP E  67      10.850  13.227  26.808  1.00 19.51 LIG-0.03  A 
ATOM     59  CD1 TRP E  67      12.169  13.404  26.572  1.00 20.71 LIG 0.10  A 
ATOM     60  NE1 TRP E  67      12.672  14.355  27.410  1.00 21.73 LIG-0.36  N 
ATOM     61  CE2 TRP E  67      11.666  14.812  28.212  1.00 22.59 LIG 0.04  A 
ATOM     62 HE1  TRP E  67      13.489  14.623  27.430  1.00 21.73 LIG 0.17  HD
ATOM     63  CD2 TRP E  67      10.497  14.117  27.851  1.00 20.57 LIG-0.00  A 
ATOM     64  CZ2 TRP E  67      11.677  15.771  29.212  1.00 23.91 LIG 0.03  A 
ATOM     65  CE3 TRP E  67       9.306  14.401  28.519  1.00 19.56 LIG 0.01  A 
ATOM     66  CZ3 TRP E  67       9.315  15.337  29.496  1.00 20.82 LIG 0.00  A 
ATOM     67  CH2 TRP E  67      10.491  16.023  29.844  1.00 24.07 LIG 0.00  A 
ENDBRANCH 57 58
ENDBRANCH 44 57
ENDBRANCH 42 44
ENDBRANCH 38 40
ENDBRANCH 1 38
TORSDOF 23
ENDMDL
MODEL 8
USER: ADFR SOLUTION from run 165
USER: SCORE 18.793409 LL:  -4.769 LR: -15.618 RR:   0.000 FEB:  -8.757
USER: RMSD 12.749267
USER: SEED 164
USER: STATUS no improvement in best in 4 clusters for 5 generations
USER: GENES 25
USER: genes 0 Translation |==|  0.65023 0.51022 0.40893
USER: genes 1 Rotation |==|  0.95305 0.35043 0.47924 0.64815
USER: genes 2 Torsion [C]-N--CA-[C] |==|  0.73695
USER: genes 3 Torsion [N]-CA--C-[N] |==|  0.34492
USER: genes 4 Torsion [C]-N--CA-[C] |==|  0.81396
USER: genes 5 Torsion [N]-CA--C-[N] |==|  0.34824
USER: genes 6 Torsion [C]-N--CA-[C] |==|  0.75732
USER: genes 7 Torsion [N]-CA--C-[N] |==|  0.91733
USER: genes 8 Torsion [C]-N--CA-[CB] |==|  0.50895
USER: genes 9 Torsion [N]-CA--C-[N] |==|  0.38477
USER: genes 10 Torsion [N]-CA--CB-[OG] |==|  0.33651
USER: genes 11 Torsion [CA]-CB--OG-[HG] |==|  0.29885
USER: genes 12 Torsion [N]-CA--CB-[CG] |==|  0.72070
USER: genes 13 Torsion [CA]-CB--CG-[OD2] |==|  0.62042
USER: genes 14 Torsion [N]-CA--CB-[SG] |==|  0.54042
USER: genes 15 Torsion [CA]-CB--SG-[HG] |==|  0.51938
USER: genes 16 Torsion [N]-CA--CB-[OG1] |==|  0.84895
USER: genes 17 Torsion [CA]-CB--OG1-[HG1] |==|  0.17870
USER: genes 18 Torsion [N]-C--CA-[N] |==|  0.19991
USER: genes 19 Torsion [C]-CA--N-[C] |==|  0.79598
USER: genes 20 Torsion [N]-C--CA-[N] |==|  0.89002
USER: genes 21 Torsion [C]-CA--N-[C] |==|  0.87555
USER: genes 22 Torsion [N]-C--CA-[N] |==|  0.76994
USER: genes 23 Torsion [C]-CA--CB-[CG] |==|  0.27753
USER: genes 24 Torsion [CA]-CB--CG-[CD2] |==|  0.37730
ROOT
ATOM      1  C   ALA E  68      10.210   3.731  26.331  1.00 21.38 LIG 0.24  C 
ATOM      2 O    ALA E  68      11.386   3.924  26.004  1.00 23.30 LIG-0.27  OA
ATOM      3  N   THR E  69       9.231   4.615  26.111  1.00 18.30 LIG-0.34  N 
ATOM      4 H    THR E  69       8.433   4.539  26.425  1.00 18.30 LIG 0.16  HD
ENDROOT
BRANCH 3 5
ATOM      5  CA  THR E  69       9.452   5.809  25.298  1.00 19.45 LIG 0.20  C 
BRANCH 5 6
ATOM      6  C   THR E  69       9.817   7.031  26.162  1.00 19.66 LIG 0.24  C 
ATOM      7  N   CYS E  70      10.948   7.650  25.875  1.00 18.57 LIG-0.34  N 
ATOM      8 H    CYS E  70      11.450   7.451  25.206  1.00 18.57 LIG 0.16  HD
ATOM      9 O    THR E  69       9.103   7.387  27.078  1.00 20.15 LIG-0.27  OA
BRANCH 7 10
ATOM     10  CA  CYS E  70      11.439   8.746  26.693  1.00 18.45 LIG 0.18  C 
BRANCH 10 11
ATOM     11  C   CYS E  70      10.462   9.893  26.513  1.00 19.42 LIG 0.24  C 
ATOM     12  N   ASP E  71       9.935  10.399  27.641  1.00 17.61 LIG-0.34  N 
ATOM     13 H    ASP E  71      10.101  10.083  28.424  1.00 17.61 LIG 0.16  HD
ATOM     14 O    CYS E  70      10.176  10.268  25.371  1.00 18.07 LIG-0.27  OA
BRANCH 12 15
ATOM     15  CA  ASP E  71       9.030  11.532  27.649  1.00 16.95 LIG 0.19  C 
BRANCH 15 16
ATOM     16  C   ASP E  71       9.935  12.725  27.708  1.00 18.90 LIG 0.24  C 
ATOM     17 O    ASP E  71       9.578  13.802  27.169  1.00 16.52 LIG-0.27  OA
ATOM     18  N   SER E  72      11.102  12.548  28.330  1.00 19.80 LIG-0.34  N 
ATOM     19 H    SER E  72      11.374  11.794  28.642  1.00 19.80 LIG 0.16  HD
BRANCH 18 20
ATOM     20  CA  SER E  72      12.025  13.660  28.527  1.00 20.01 LIG 0.20  C 
BRANCH 20 21
ATOM     21  C   SER E  72      12.371  14.389  27.267  1.00 24.22 LIG 0.29  C 
ATOM     22  N   NH2 E  73      12.418  15.763  27.382  1.00 28.43 LIG-0.11  N 
ATOM     23 O    SER E  72      12.365  13.825  26.197  1.00 27.83 LIG-0.27  OA
ENDBRANCH 20 21
BRANCH 20 24
ATOM     24  CB  SER E  72      13.296  13.172  29.182  1.00 25.59 LIG 0.20  C 
BRANCH 24 25
ATOM     25 OG   SER E  72      14.416  13.448  28.378  1.00 28.15 LIG-0.40  OA
ATOM     26 HG   SER E  72      14.862  14.071  28.724  1.00 28.15 LIG 0.21  HD
ENDBRANCH 24 25
ENDBRANCH 20 24
ENDBRANCH 18 20
ENDBRANCH 15 16
BRANCH 15 27
ATOM     27  CB  ASP E  71       8.066  11.461  28.844  1.00 12.80 LIG 0.15  C 
BRANCH 27 28
ATOM     28  CG  ASP E  71       6.709  10.945  28.445  1.00 14.21 LIG 0.17  C 
ATOM     29 OD2  ASP E  71       5.675  11.479  28.871  1.00 15.44 LIG-0.65  OA
ATOM     30 OD1  ASP E  71       6.663   9.956  27.701  1.00 16.80 LIG-0.65  OA
ENDBRANCH 27 28
ENDBRANCH 15 27
ENDBRANCH 12 15
ENDBRANCH 10 11
BRANCH 10 31
ATOM     31  CB  CYS E  70      12.882   9.151  26.283  1.00 19.19 LIG 0.10  C 
BRANCH 31 32
ATOM     32 SG   CYS E  70      13.791  10.203  27.438  1.00 25.14 LIG-0.18  SA
ATOM     33 HG   CYS E  70      14.827  10.547  26.937  1.00 25.14 LIG 0.10  HD
ENDBRANCH 31 32
ENDBRANCH 10 31
ENDBRANCH 7 10
ENDBRANCH 5 6
BRANCH 5 34
ATOM     34  CB  THR E  69       8.228   6.083  24.405  1.00 17.77 LIG 0.15  C 
ATOM     35  CG2 THR E  69       8.526   7.193  23.457  1.00 20.71 LIG 0.04  C 
BRANCH 34 36
ATOM     36 OG1  THR E  69       7.904   4.946  23.626  1.00 16.43 LIG-0.39  OA
ATOM     37 HG1  THR E  69       7.671   4.317  24.132  1.00 16.43 LIG 0.21  HD
ENDBRANCH 34 36
ENDBRANCH 5 34
ENDBRANCH 3 5
BRANCH 1 38
ATOM     38  CA  ALA E  68       9.827   2.423  27.017  1.00 20.08 LIG 0.17  C 
ATOM     39  CB  ALA E  68      11.061   1.699  27.499  1.00 20.16 LIG 0.04  C 
BRANCH 38 40
ATOM     40  N   ALA E  68       9.079   1.582  26.125  1.00 18.16 LIG-0.35  N 
ATOM     41 H    ALA E  68       9.510   0.903  25.820  1.00 18.16 LIG 0.16  HD
ATOM     42  C   TRP E  67       7.827   1.865  25.823  1.00 18.88 LIG 0.24  C 
ATOM     43 O    TRP E  67       7.219   2.875  26.214  1.00 21.47 LIG-0.27  OA
BRANCH 42 44
ATOM     44  CA  TRP E  67       7.195   0.916  24.871  1.00 17.18 LIG 0.18  C 
BRANCH 44 45
ATOM     45  N   TRP E  67       8.144   0.487  23.782  1.00 16.72 LIG-0.35  N 
ATOM     46  C   PRO E  66       8.950   1.318  23.104  1.00 16.87 LIG 0.24  C 
ATOM     47 O    PRO E  66       8.903   2.543  23.196  1.00 18.41 LIG-0.27  OA
ATOM     48 H    TRP E  67       8.121  -0.359  23.631  1.00 16.72 LIG 0.16  HD
BRANCH 46 49
ATOM     49  CA  PRO E  66       9.967   0.695  22.117  1.00 17.04 LIG 0.18  C 
ATOM     50  CB  PRO E  66       9.407  -0.562  21.431  1.00 18.40 LIG 0.04  C 
ATOM     51  CG  PRO E  66      10.078  -1.735  22.084  1.00 18.41 LIG 0.02  C 
ATOM     52  CD  PRO E  66      11.420  -1.238  22.543  1.00 21.21 LIG 0.13  C 
ATOM     53  N   PRO E  66      11.228   0.209  22.714  1.00 19.82 LIG-0.34  N 
ATOM     54  C   ACE E  65      12.104   1.132  23.222  1.00 17.72 LIG 0.22  C 
ATOM     55  CH3 ACE E  65      13.378   0.623  23.761  1.00 22.93 LIG 0.12  C 
ATOM     56 O    ACE E  65      11.869   2.315  23.289  1.00 18.13 LIG-0.27  OA
ENDBRANCH 46 49
ENDBRANCH 44 45
BRANCH 44 57
ATOM     57  CB  TRP E  67       6.605  -0.315  25.607  1.00 18.36 LIG 0.07  C 
BRANCH 57 58
ATOM     58  CG  TRP E  67       5.179  -0.249  25.822  1.00 19.51 LIG-0.03  A 
ATOM     59  CD1 TRP E  67       4.467   0.822  26.238  1.00 20.71 LIG 0.10  A 
ATOM     60  NE1 TRP E  67       3.143   0.505  26.313  1.00 21.73 LIG-0.36  N 
ATOM     61  CE2 TRP E  67       2.981  -0.798  25.939  1.00 22.59 LIG 0.04  A 
ATOM     62 HE1  TRP E  67       2.514   1.038  26.556  1.00 21.73 LIG 0.17  HD
ATOM     63  CD2 TRP E  67       4.256  -1.301  25.618  1.00 20.57 LIG-0.00  A 
ATOM     64  CZ2 TRP E  67       1.836  -1.573  25.849  1.00 23.91 LIG 0.03  A 
ATOM     65  CE3 TRP E  67       4.374  -2.625  25.194  1.00 19.56 LIG 0.01  A 
ATOM     66  CZ3 TRP E  67       3.256  -3.383  25.105  1.00 20.82 LIG 0.00  A 
ATOM     67  CH2 TRP E  67       1.991  -2.864  25.428  1.00 24.07 LIG 0.00  A 
ENDBRANCH 57 58
ENDBRANCH 44 57
ENDBRANCH 42 44
ENDBRANCH 38 40
ENDBRANCH 1 38
TORSDOF 23
ENDMDL
MODEL 9
USER: ADFR SOLUTION from run 95
USER: SCORE 18.916286 LL:  -4.043 LR: -15.600 RR:   0.000 FEB:  -8.739
USER: RMSD 4.109245
USER: SEED 94
USER: STATUS no improvement in best in 9 clusters for 5 generations
USER: GENES 25
USER: genes 0 Translation |==|  0.55255 0.57966 0.29840
USER: genes 1 Rotation |==|  0.48984 0.83418 0.52031 0.87122
USER: genes 2 Torsion [C]-N--CA-[C] |==|  0.84983
USER: genes 3 Torsion [N]-CA--C-[N] |==|  0.40441
USER: genes 4 Torsion [C]-N--CA-[C] |==|  0.74570
USER: genes 5 Torsion [N]-CA--C-[N] |==|  0.40374
USER: genes 6 Torsion [C]-N--CA-[C] |==|  0.73357
USER: genes 7 Torsion [N]-CA--C-[N] |==|  0.36828
USER: genes 8 Torsion [C]-N--CA-[CB] |==|  0.83281
USER: genes 9 Torsion [N]-CA--C-[N] |==|  0.42728
USER: genes 10 Torsion [N]-CA--CB-[OG] |==|  0.38355
USER: genes 11 Torsion [CA]-CB--OG-[HG] |==|  0.82474
USER: genes 12 Torsion [N]-CA--CB-[CG] |==|  0.73859
USER: genes 13 Torsion [CA]-CB--CG-[OD2] |==|  0.87684
USER: genes 14 Torsion [N]-CA--CB-[SG] |==|  0.84018
USER: genes 15 Torsion [CA]-CB--SG-[HG] |==|  0.78323
USER: genes 16 Torsion [N]-CA--CB-[OG1] |==|  0.99357
USER: genes 17 Torsion [CA]-CB--OG1-[HG1] |==|  0.22137
USER: genes 18 Torsion [N]-C--CA-[N] |==|  0.09868
USER: genes 19 Torsion [C]-CA--N-[C] |==|  0.15739
USER: genes 20 Torsion [N]-C--CA-[N] |==|  0.47593
USER: genes 21 Torsion [C]-CA--N-[C] |==|  0.63090
USER: genes 22 Torsion [N]-C--CA-[N] |==|  0.25219
USER: genes 23 Torsion [C]-CA--CB-[CG] |==|  0.29485
USER: genes 24 Torsion [CA]-CB--CG-[CD2] |==|  0.39081
ROOT
ATOM      1  C   ALA E  68       8.232   5.710  24.673  1.00 21.38 LIG 0.24  C 
ATOM      2 O    ALA E  68       8.271   4.814  23.823  1.00 23.30 LIG-0.27  OA
ATOM      3  N   THR E  69       8.087   5.478  25.982  1.00 18.30 LIG-0.34  N 
ATOM      4 H    THR E  69       7.955   6.093  26.569  1.00 18.30 LIG 0.16  HD
ENDROOT
BRANCH 3 5
ATOM      5  CA  THR E  69       8.145   4.122  26.525  1.00 19.45 LIG 0.20  C 
BRANCH 5 6
ATOM      6  C   THR E  69       7.151   3.180  25.821  1.00 19.66 LIG 0.24  C 
ATOM      7  N   CYS E  70       7.524   1.923  25.668  1.00 18.57 LIG-0.34  N 
ATOM      8 H    CYS E  70       8.251   1.593  25.989  1.00 18.57 LIG 0.16  HD
ATOM      9 O    THR E  69       6.084   3.589  25.407  1.00 20.15 LIG-0.27  OA
BRANCH 7 10
ATOM     10  CA  CYS E  70       6.710   0.976  24.924  1.00 18.45 LIG 0.18  C 
BRANCH 10 11
ATOM     11  C   CYS E  70       5.793   0.309  25.931  1.00 19.42 LIG 0.24  C 
ATOM     12  N   ASP E  71       4.563  -0.006  25.488  1.00 17.61 LIG-0.34  N 
ATOM     13 H    ASP E  71       4.283   0.182  24.697  1.00 17.61 LIG 0.16  HD
ATOM     14 O    CYS E  70       6.193   0.130  27.086  1.00 18.07 LIG-0.27  OA
BRANCH 12 15
ATOM     15  CA  ASP E  71       3.585  -0.698  26.304  1.00 16.95 LIG 0.19  C 
BRANCH 15 16
ATOM     16  C   ASP E  71       3.737  -2.139  25.919  1.00 18.90 LIG 0.24  C 
ATOM     17 O    ASP E  71       3.763  -2.457  24.705  1.00 16.52 LIG-0.27  OA
ATOM     18  N   SER E  72       3.816  -3.011  26.925  1.00 19.80 LIG-0.34  N 
ATOM     19 H    SER E  72       3.733  -2.801  27.756  1.00 19.80 LIG 0.16  HD
BRANCH 18 20
ATOM     20  CA  SER E  72       4.054  -4.428  26.675  1.00 20.01 LIG 0.20  C 
BRANCH 20 21
ATOM     21  C   SER E  72       5.372  -4.714  26.028  1.00 24.22 LIG 0.29  C 
ATOM     22  N   NH2 E  73       5.885  -5.971  26.277  1.00 28.43 LIG-0.11  N 
ATOM     23 O    SER E  72       6.032  -3.827  25.537  1.00 27.83 LIG-0.27  OA
ENDBRANCH 20 21
BRANCH 20 24
ATOM     24  CB  SER E  72       2.947  -5.001  25.821  1.00 25.59 LIG 0.20  C 
BRANCH 24 25
ATOM     25 OG   SER E  72       3.464  -5.863  24.838  1.00 28.15 LIG-0.40  OA
ATOM     26 HG   SER E  72       3.961  -5.429  24.317  1.00 28.15 LIG 0.21  HD
ENDBRANCH 24 25
ENDBRANCH 20 24
ENDBRANCH 18 20
ENDBRANCH 15 16
BRANCH 15 27
ATOM     27  CB  ASP E  71       2.168  -0.162  26.042  1.00 12.80 LIG 0.15  C 
BRANCH 27 28
ATOM     28  CG  ASP E  71       1.783   0.915  27.019  1.00 14.21 LIG 0.17  C 
ATOM     29 OD2  ASP E  71       2.018   0.790  28.230  1.00 15.44 LIG-0.65  OA
ATOM     30 OD1  ASP E  71       1.200   1.915  26.577  1.00 16.80 LIG-0.65  OA
ENDBRANCH 27 28
ENDBRANCH 15 27
ENDBRANCH 12 15
ENDBRANCH 10 11
BRANCH 10 31
ATOM     31  CB  CYS E  70       7.594  -0.060  24.177  1.00 19.19 LIG 0.10  C 
BRANCH 31 32
ATOM     32 SG   CYS E  70       8.811   0.597  23.013  1.00 25.14 LIG-0.18  SA
ATOM     33 HG   CYS E  70       8.262   0.908  21.992  1.00 25.14 LIG 0.10  HD
ENDBRANCH 31 32
ENDBRANCH 10 31
ENDBRANCH 7 10
ENDBRANCH 5 6
BRANCH 5 34
ATOM     34  CB  THR E  69       7.931   4.147  28.050  1.00 17.77 LIG 0.15  C 
ATOM     35  CG2 THR E  69       9.112   3.560  28.741  1.00 20.71 LIG 0.04  C 
BRANCH 34 36
ATOM     36 OG1  THR E  69       7.789   5.474  28.521  1.00 16.43 LIG-0.39  OA
ATOM     37 HG1  THR E  69       7.007   5.742  28.375  1.00 16.43 LIG 0.21  HD
ENDBRANCH 34 36
ENDBRANCH 5 34
ENDBRANCH 3 5
BRANCH 1 38
ATOM     38  CA  ALA E  68       8.360   7.166  24.234  1.00 20.08 LIG 0.17  C 
ATOM     39  CB  ALA E  68       9.041   7.255  22.890  1.00 20.16 LIG 0.04  C 
BRANCH 38 40
ATOM     40  N   ALA E  68       9.092   7.928  25.208  1.00 18.16 LIG-0.35  N 
ATOM     41 H    ALA E  68       8.675   8.612  25.520  1.00 18.16 LIG 0.16  HD
ATOM     42  C   TRP E  67      10.308   7.568  25.569  1.00 18.88 LIG 0.24  C 
ATOM     43 O    TRP E  67      10.936   6.615  25.080  1.00 21.47 LIG-0.27  OA
BRANCH 42 44
ATOM     44  CA  TRP E  67      10.943   8.467  26.567  1.00 17.18 LIG 0.18  C 
BRANCH 44 45
ATOM     45  N   TRP E  67      12.235   7.904  27.098  1.00 16.72 LIG-0.35  N 
ATOM     46  C   PRO E  66      12.565   7.854  28.398  1.00 16.87 LIG 0.24  C 
ATOM     47 O    PRO E  66      11.913   8.390  29.291  1.00 18.41 LIG-0.27  OA
ATOM     48 H    TRP E  67      12.754   7.611  26.479  1.00 16.72 LIG 0.16  HD
BRANCH 46 49
ATOM     49  CA  PRO E  66      13.868   7.112  28.786  1.00 17.04 LIG 0.18  C 
ATOM     50  CB  PRO E  66      13.794   6.527  30.206  1.00 18.40 LIG 0.04  C 
ATOM     51  CG  PRO E  66      14.633   7.419  31.075  1.00 18.41 LIG 0.02  C 
ATOM     52  CD  PRO E  66      15.691   7.993  30.175  1.00 21.21 LIG 0.13  C 
ATOM     53  N   PRO E  66      15.089   7.941  28.835  1.00 19.82 LIG-0.34  N 
ATOM     54  C   ACE E  65      15.583   8.440  27.659  1.00 17.72 LIG 0.22  C 
ATOM     55  CH3 ACE E  65      16.834   9.217  27.731  1.00 22.93 LIG 0.12  C 
ATOM     56 O    ACE E  65      15.030   8.315  26.592  1.00 18.13 LIG-0.27  OA
ENDBRANCH 46 49
ENDBRANCH 44 45
BRANCH 44 57
ATOM     57  CB  TRP E  67      11.156   9.891  25.990  1.00 18.36 LIG 0.07  C 
BRANCH 57 58
ATOM     58  CG  TRP E  67      10.244  10.882  26.506  1.00 19.51 LIG-0.03  A 
ATOM     59  CD1 TRP E  67       8.931  10.715  26.780  1.00 20.71 LIG 0.10  A 
ATOM     60  NE1 TRP E  67       8.401  11.875  27.265  1.00 21.73 LIG-0.36  N 
ATOM     61  CE2 TRP E  67       9.384  12.822  27.310  1.00 22.59 LIG 0.04  A 
ATOM     62 HE1  TRP E  67       7.582  11.991  27.502  1.00 21.73 LIG 0.17  HD
ATOM     63  CD2 TRP E  67      10.565  12.220  26.838  1.00 20.57 LIG-0.00  A 
ATOM     64  CZ2 TRP E  67       9.341  14.143  27.725  1.00 23.91 LIG 0.03  A 
ATOM     65  CE3 TRP E  67      11.736  12.975  26.786  1.00 19.56 LIG 0.01  A 
ATOM     66  CZ3 TRP E  67      11.697  14.266  27.192  1.00 20.82 LIG 0.00  A 
ATOM     67  CH2 TRP E  67      10.509  14.851  27.661  1.00 24.07 LIG 0.00  A 
ENDBRANCH 57 58
ENDBRANCH 44 57
ENDBRANCH 42 44
ENDBRANCH 38 40
ENDBRANCH 1 38
TORSDOF 23
ENDMDL
MODEL 10
USER: ADFR SOLUTION from run 130
USER: SCORE 19.215693 LL:  -5.171 LR: -15.564 RR:   0.000 FEB:  -8.703
USER: RMSD 12.911165
USER: SEED 129
USER: STATUS searching
USER: GENES 25
USER: genes 0 Translation |==|  0.57225 0.53454 0.38593
USER: genes 1 Rotation |==|  0.91656 0.23862 0.52552 0.58666
USER: genes 2 Torsion [C]-N--CA-[C] |==|  0.71659
USER: genes 3 Torsion [N]-CA--C-[N] |==|  0.41628
USER: genes 4 Torsion [C]-N--CA-[C] |==|  0.79493
USER: genes 5 Torsion [N]-CA--C-[N] |==|  0.32634
USER: genes 6 Torsion [C]-N--CA-[C] |==|  0.84947
USER: genes 7 Torsion [N]-CA--C-[N] |==|  0.86667
USER: genes 8 Torsion [C]-N--CA-[CB] |==|  0.83530
USER: genes 9 Torsion [N]-CA--C-[N] |==|  0.40390
USER: genes 10 Torsion [N]-CA--CB-[OG] |==|  0.71438
USER: genes 11 Torsion [CA]-CB--OG-[HG] |==|  0.74520
USER: genes 12 Torsion [N]-CA--CB-[CG] |==|  0.80171
USER: genes 13 Torsion [CA]-CB--CG-[OD2] |==|  0.30900
USER: genes 14 Torsion [N]-CA--CB-[SG] |==|  0.33420
USER: genes 15 Torsion [CA]-CB--SG-[HG] |==|  0.57860
USER: genes 16 Torsion [N]-CA--CB-[OG1] |==|  0.69237
USER: genes 17 Torsion [CA]-CB--OG1-[HG1] |==|  0.69972
USER: genes 18 Torsion [N]-C--CA-[N] |==|  0.32439
USER: genes 19 Torsion [C]-CA--N-[C] |==|  0.84723
USER: genes 20 Torsion [N]-C--CA-[N] |==|  0.68543
USER: genes 21 Torsion [C]-CA--N-[C] |==|  0.10564
USER: genes 22 Torsion [N]-C--CA-[N] |==|  0.67058
USER: genes 23 Torsion [C]-CA--CB-[CG] |==|  0.70114
USER: genes 24 Torsion [CA]-CB--CG-[CD2] |==|  0.75565
ROOT
ATOM      1  C   ALA E  68       8.631   4.424  25.986  1.00 21.38 LIG 0.24  C 
ATOM      2 O    ALA E  68       9.825   4.130  26.107  1.00 23.30 LIG-0.27  OA
ATOM      3  N   THR E  69       8.206   5.636  25.613  1.00 18.30 LIG-0.34  N 
ATOM      4 H    THR E  69       7.382   5.884  25.625  1.00 18.30 LIG 0.16  HD
ENDROOT
BRANCH 3 5
ATOM      5  CA  THR E  69       9.139   6.658  25.143  1.00 19.45 LIG 0.20  C 
BRANCH 5 6
ATOM      6  C   THR E  69       9.436   7.707  26.231  1.00 19.66 LIG 0.24  C 
ATOM      7  N   CYS E  70      10.627   8.277  26.203  1.00 18.57 LIG-0.34  N 
ATOM      8 H    CYS E  70      11.211   8.143  25.586  1.00 18.57 LIG 0.16  HD
ATOM      9 O    THR E  69       8.615   7.975  27.085  1.00 20.15 LIG-0.27  OA
BRANCH 7 10
ATOM     10  CA  CYS E  70      11.049   9.199  27.244  1.00 18.45 LIG 0.18  C 
BRANCH 10 11
ATOM     11  C   CYS E  70      10.292  10.493  27.009  1.00 19.42 LIG 0.24  C 
ATOM     12  N   ASP E  71       9.457  10.873  27.992  1.00 17.61 LIG-0.34  N 
ATOM     13 H    ASP E  71       9.320  10.407  28.702  1.00 17.61 LIG 0.16  HD
ATOM     14 O    CYS E  70      10.443  11.095  25.941  1.00 18.07 LIG-0.27  OA
BRANCH 12 15
ATOM     15  CA  ASP E  71       8.702  12.110  27.951  1.00 16.95 LIG 0.19  C 
BRANCH 15 16
ATOM     16  C   ASP E  71       9.740  13.166  27.721  1.00 18.90 LIG 0.24  C 
ATOM     17 O    ASP E  71       9.567  14.022  26.818  1.00 16.52 LIG-0.27  OA
ATOM     18  N   SER E  72      10.820  13.110  28.503  1.00 19.80 LIG-0.34  N 
ATOM     19 H    SER E  72      10.969  12.487  29.078  1.00 19.80 LIG 0.16  HD
BRANCH 18 20
ATOM     20  CA  SER E  72      11.854  14.136  28.433  1.00 20.01 LIG 0.20  C 
BRANCH 20 21
ATOM     21  C   SER E  72      11.382  15.499  28.830  1.00 24.22 LIG 0.29  C 
ATOM     22  N   NH2 E  73      12.317  16.274  29.484  1.00 28.43 LIG-0.11  N 
ATOM     23 O    SER E  72      10.207  15.788  28.793  1.00 27.83 LIG-0.27  OA
ENDBRANCH 20 21
BRANCH 20 24
ATOM     24  CB  SER E  72      12.433  14.198  27.039  1.00 25.59 LIG 0.20  C 
BRANCH 24 25
ATOM     25 OG   SER E  72      13.687  13.565  26.985  1.00 28.15 LIG-0.40  OA
ATOM     26 HG   SER E  72      14.293  14.130  27.128  1.00 28.15 LIG 0.21  HD
ENDBRANCH 24 25
ENDBRANCH 20 24
ENDBRANCH 18 20
ENDBRANCH 15 16
BRANCH 15 27
ATOM     27  CB  ASP E  71       7.919  12.323  29.256  1.00 12.80 LIG 0.15  C 
BRANCH 27 28
ATOM     28  CG  ASP E  71       6.760  11.371  29.381  1.00 14.21 LIG 0.17  C 
ATOM     29 OD2  ASP E  71       6.765  10.471  30.233  1.00 15.44 LIG-0.65  OA
ATOM     30 OD1  ASP E  71       5.818  11.501  28.588  1.00 16.80 LIG-0.65  OA
ENDBRANCH 27 28
ENDBRANCH 15 27
ENDBRANCH 12 15
ENDBRANCH 10 11
BRANCH 10 31
ATOM     31  CB  CYS E  70      12.587   9.420  27.210  1.00 19.19 LIG 0.10  C 
BRANCH 31 32
ATOM     32 SG   CYS E  70      13.160  11.114  26.947  1.00 25.14 LIG-0.18  SA
ATOM     33 HG   CYS E  70      14.232  11.096  26.407  1.00 25.14 LIG 0.10  HD
ENDBRANCH 31 32
ENDBRANCH 10 31
ENDBRANCH 7 10
ENDBRANCH 5 6
BRANCH 5 34
ATOM     34  CB  THR E  69       8.616   7.306  23.848  1.00 17.77 LIG 0.15  C 
ATOM     35  CG2 THR E  69       8.669   8.790  23.962  1.00 20.71 LIG 0.04  C 
BRANCH 34 36
ATOM     36 OG1  THR E  69       9.418   6.944  22.739  1.00 16.43 LIG-0.39  OA
ATOM     37 HG1  THR E  69       9.873   7.606  22.494  1.00 16.43 LIG 0.21  HD
ENDBRANCH 34 36
ENDBRANCH 5 34
ENDBRANCH 3 5
BRANCH 1 38
ATOM     38  CA  ALA E  68       7.566   3.368  26.265  1.00 20.08 LIG 0.17  C 
ATOM     39  CB  ALA E  68       7.682   2.863  27.683  1.00 20.16 LIG 0.04  C 
BRANCH 38 40
ATOM     40  N   ALA E  68       7.682   2.274  25.341  1.00 18.16 LIG-0.35  N 
ATOM     41 H    ALA E  68       7.762   1.499  25.706  1.00 18.16 LIG 0.16  HD
ATOM     42  C   TRP E  67       7.661   2.486  24.040  1.00 18.88 LIG 0.24  C 
ATOM     43 O    TRP E  67       7.604   3.607  23.509  1.00 21.47 LIG-0.27  OA
BRANCH 42 44
ATOM     44  CA  TRP E  67       7.814   1.260  23.215  1.00 17.18 LIG 0.18  C 
BRANCH 44 45
ATOM     45  N   TRP E  67       9.110   1.250  22.447  1.00 16.72 LIG-0.35  N 
ATOM     46  C   PRO E  66      10.279   1.706  22.921  1.00 16.87 LIG 0.24  C 
ATOM     47 O    PRO E  66      10.396   2.313  23.983  1.00 18.41 LIG-0.27  OA
ATOM     48 H    TRP E  67       9.031   0.917  21.658  1.00 16.72 LIG 0.16  HD
BRANCH 46 49
ATOM     49  CA  PRO E  66      11.545   1.489  22.057  1.00 17.04 LIG 0.18  C 
ATOM     50  CB  PRO E  66      11.231   0.731  20.756  1.00 18.40 LIG 0.04  C 
ATOM     51  CG  PRO E  66      11.733  -0.670  20.952  1.00 18.41 LIG 0.02  C 
ATOM     52  CD  PRO E  66      12.883  -0.564  21.914  1.00 21.21 LIG 0.13  C 
ATOM     53  N   PRO E  66      12.609   0.667  22.668  1.00 19.82 LIG-0.34  N 
ATOM     54  C   ACE E  65      13.286   1.176  23.745  1.00 17.72 LIG 0.22  C 
ATOM     55  CH3 ACE E  65      14.379   0.358  24.299  1.00 22.93 LIG 0.12  C 
ATOM     56 O    ACE E  65      13.007   2.223  24.279  1.00 18.13 LIG-0.27  OA
ENDBRANCH 46 49
ENDBRANCH 44 45
BRANCH 44 57
ATOM     57  CB  TRP E  67       7.672  -0.022  24.077  1.00 18.36 LIG 0.07  C 
BRANCH 57 58
ATOM     58  CG  TRP E  67       8.911  -0.727  24.299  1.00 19.51 LIG-0.03  A 
ATOM     59  CD1 TRP E  67       9.754  -0.580  25.345  1.00 20.71 LIG 0.10  A 
ATOM     60  NE1 TRP E  67      10.817  -1.425  25.214  1.00 21.73 LIG-0.36  N 
ATOM     61  CE2 TRP E  67      10.669  -2.141  24.061  1.00 22.59 LIG 0.04  A 
ATOM     62 HE1  TRP E  67      11.472  -1.495  25.767  1.00 21.73 LIG 0.17  HD
ATOM     63  CD2 TRP E  67       9.467  -1.722  23.461  1.00 20.57 LIG-0.00  A 
ATOM     64  CZ2 TRP E  67      11.476  -3.116  23.498  1.00 23.91 LIG 0.03  A 
ATOM     65  CE3 TRP E  67       9.070  -2.307  22.259  1.00 19.56 LIG 0.01  A 
ATOM     66  CZ3 TRP E  67       9.857  -3.260  21.707  1.00 20.82 LIG 0.00  A 
ATOM     67  CH2 TRP E  67      11.054  -3.668  22.320  1.00 24.07 LIG 0.00  A 
ENDBRANCH 57 58
ENDBRANCH 44 57
ENDBRANCH 42 44
ENDBRANCH 38 40
ENDBRANCH 1 38
TORSDOF 23
ENDMDL
MODEL 11
USER: ADFR SOLUTION from run 45
USER: SCORE 19.593575 LL:  -5.823 LR: -15.521 RR:   0.000 FEB:  -8.660
USER: RMSD 4.801232
USER: SEED 44
USER: STATUS searching
USER: GENES 25
USER: genes 0 Translation |==|  0.57668 0.59307 0.29616
USER: genes 1 Rotation |==|  0.54555 0.90163 0.61309 0.77171
USER: genes 2 Torsion [C]-N--CA-[C] |==|  0.83163
USER: genes 3 Torsion [N]-CA--C-[N] |==|  0.42550
USER: genes 4 Torsion [C]-N--CA-[C] |==|  0.77203
USER: genes 5 Torsion [N]-CA--C-[N] |==|  0.21356
USER: genes 6 Torsion [C]-N--CA-[C] |==|  0.71525
USER: genes 7 Torsion [N]-CA--C-[N] |==|  0.96111
USER: genes 8 Torsion [C]-N--CA-[CB] |==|  0.79432
USER: genes 9 Torsion [N]-CA--C-[N] |==|  0.70659
USER: genes 10 Torsion [N]-CA--CB-[OG] |==|  0.94761
USER: genes 11 Torsion [CA]-CB--OG-[HG] |==|  0.87527
USER: genes 12 Torsion [N]-CA--CB-[CG] |==|  0.79354
USER: genes 13 Torsion [CA]-CB--CG-[OD2] |==|  0.20695
USER: genes 14 Torsion [N]-CA--CB-[SG] |==|  0.96635
USER: genes 15 Torsion [CA]-CB--SG-[HG] |==|  0.75062
USER: genes 16 Torsion [N]-CA--CB-[OG1] |==|  0.89855
USER: genes 17 Torsion [CA]-CB--OG1-[HG1] |==|  0.54599
USER: genes 18 Torsion [N]-C--CA-[N] |==|  0.03684
USER: genes 19 Torsion [C]-CA--N-[C] |==|  0.76552
USER: genes 20 Torsion [N]-C--CA-[N] |==|  0.01087
USER: genes 21 Torsion [C]-CA--N-[C] |==|  0.74948
USER: genes 22 Torsion [N]-C--CA-[N] |==|  0.10101
USER: genes 23 Torsion [C]-CA--CB-[CG] |==|  0.72804
USER: genes 24 Torsion [CA]-CB--CG-[CD2] |==|  0.15365
ROOT
ATOM      1  C   ALA E  68       8.721   6.092  24.639  1.00 21.38 LIG 0.24  C 
ATOM      2 O    ALA E  68       8.374   5.572  23.573  1.00 23.30 LIG-0.27  OA
ATOM      3  N   THR E  69       9.237   5.402  25.662  1.00 18.30 LIG-0.34  N 
ATOM      4 H    THR E  69       9.384   5.733  26.442  1.00 18.30 LIG 0.16  HD
ENDROOT
BRANCH 3 5
ATOM      5  CA  THR E  69       9.597   3.992  25.523  1.00 19.45 LIG 0.20  C 
BRANCH 5 6
ATOM      6  C   THR E  69       8.380   3.123  25.156  1.00 19.66 LIG 0.24  C 
ATOM      7  N   CYS E  70       8.621   2.008  24.491  1.00 18.57 LIG-0.34  N 
ATOM      8 H    CYS E  70       9.409   1.715  24.309  1.00 18.57 LIG 0.16  HD
ATOM      9 O    THR E  69       7.253   3.466  25.450  1.00 20.15 LIG-0.27  OA
BRANCH 7 10
ATOM     10  CA  CYS E  70       7.539   1.169  24.003  1.00 18.45 LIG 0.18  C 
BRANCH 10 11
ATOM     11  C   CYS E  70       7.095   0.311  25.173  1.00 19.42 LIG 0.24  C 
ATOM     12  N   ASP E  71       6.333   0.923  26.096  1.00 17.61 LIG-0.34  N 
ATOM     13 H    ASP E  71       6.127   1.757  26.061  1.00 17.61 LIG 0.16  HD
ATOM     14 O    CYS E  70       7.478  -0.862  25.240  1.00 18.07 LIG-0.27  OA
BRANCH 12 15
ATOM     15  CA  ASP E  71       5.779   0.233  27.244  1.00 16.95 LIG 0.19  C 
BRANCH 15 16
ATOM     16  C   ASP E  71       4.342   0.009  26.881  1.00 18.90 LIG 0.24  C 
ATOM     17 O    ASP E  71       3.656  -0.812  27.540  1.00 16.52 LIG-0.27  OA
ATOM     18  N   SER E  72       3.884   0.702  25.838  1.00 19.80 LIG-0.34  N 
ATOM     19 H    SER E  72       4.370   1.215  25.346  1.00 19.80 LIG 0.16  HD
BRANCH 18 20
ATOM     20  CA  SER E  72       2.480   0.634  25.447  1.00 20.01 LIG 0.20  C 
BRANCH 20 21
ATOM     21  C   SER E  72       1.526   0.832  26.582  1.00 24.22 LIG 0.29  C 
ATOM     22  N   NH2 E  73       0.895  -0.313  27.021  1.00 28.43 LIG-0.11  N 
ATOM     23 O    SER E  72       1.169   1.940  26.912  1.00 27.83 LIG-0.27  OA
ENDBRANCH 20 21
BRANCH 20 24
ATOM     24  CB  SER E  72       2.189  -0.689  24.779  1.00 25.59 LIG 0.20  C 
BRANCH 24 25
ATOM     25 OG   SER E  72       3.374  -1.300  24.332  1.00 28.15 LIG-0.40  OA
ATOM     26 HG   SER E  72       3.856  -0.729  23.947  1.00 28.15 LIG 0.21  HD
ENDBRANCH 24 25
ENDBRANCH 20 24
ENDBRANCH 18 20
ENDBRANCH 15 16
BRANCH 15 27
ATOM     27  CB  ASP E  71       5.943   1.069  28.523  1.00 12.80 LIG 0.15  C 
BRANCH 27 28
ATOM     28  CG  ASP E  71       7.363   1.068  29.020  1.00 14.21 LIG 0.17  C 
ATOM     29 OD2  ASP E  71       8.239   1.731  28.445  1.00 15.44 LIG-0.65  OA
ATOM     30 OD1  ASP E  71       7.632   0.364  30.003  1.00 16.80 LIG-0.65  OA
ENDBRANCH 27 28
ENDBRANCH 15 27
ENDBRANCH 12 15
ENDBRANCH 10 11
BRANCH 10 31
ATOM     31  CB  CYS E  70       7.998   0.304  22.797  1.00 19.19 LIG 0.10  C 
BRANCH 31 32
ATOM     32 SG   CYS E  70       9.586   0.732  22.046  1.00 25.14 LIG-0.18  SA
ATOM     33 HG   CYS E  70       9.412   1.539  21.174  1.00 25.14 LIG 0.10  HD
ENDBRANCH 31 32
ENDBRANCH 10 31
ENDBRANCH 7 10
ENDBRANCH 5 6
BRANCH 5 34
ATOM     34  CB  THR E  69      10.298   3.491  26.799  1.00 17.77 LIG 0.15  C 
ATOM     35  CG2 THR E  69      11.175   2.331  26.478  1.00 20.71 LIG 0.04  C 
BRANCH 34 36
ATOM     36 OG1  THR E  69      11.125   4.497  27.353  1.00 16.43 LIG-0.39  OA
ATOM     37 HG1  THR E  69      11.662   4.150  27.898  1.00 16.43 LIG 0.21  HD
ENDBRANCH 34 36
ENDBRANCH 5 34
ENDBRANCH 3 5
BRANCH 1 38
ATOM     38  CA  ALA E  68       8.569   7.600  24.823  1.00 20.08 LIG 0.17  C 
ATOM     39  CB  ALA E  68       9.043   8.332  23.591  1.00 20.16 LIG 0.04  C 
BRANCH 38 40
ATOM     40  N   ALA E  68       9.302   8.047  25.975  1.00 18.16 LIG-0.35  N 
ATOM     41 H    ALA E  68      10.090   8.348  25.808  1.00 18.16 LIG 0.16  HD
ATOM     42  C   TRP E  67       8.769   7.983  27.179  1.00 18.88 LIG 0.24  C 
ATOM     43 O    TRP E  67       7.655   7.495  27.432  1.00 21.47 LIG-0.27  OA
BRANCH 42 44
ATOM     44  CA  TRP E  67       9.657   8.460  28.270  1.00 17.18 LIG 0.18  C 
BRANCH 44 45
ATOM     45  N   TRP E  67      10.958   9.008  27.745  1.00 16.72 LIG-0.35  N 
ATOM     46  C   PRO E  66      12.069   8.280  27.555  1.00 16.87 LIG 0.24  C 
ATOM     47 O    PRO E  66      12.193   7.113  27.921  1.00 18.41 LIG-0.27  OA
ATOM     48 H    TRP E  67      10.924   9.850  27.574  1.00 16.72 LIG 0.16  HD
BRANCH 46 49
ATOM     49  CA  PRO E  66      13.277   8.967  26.873  1.00 17.04 LIG 0.18  C 
ATOM     50  CB  PRO E  66      14.611   8.316  27.276  1.00 18.40 LIG 0.04  C 
ATOM     51  CG  PRO E  66      15.263   9.255  28.249  1.00 18.41 LIG 0.02  C 
ATOM     52  CD  PRO E  66      14.775  10.628  27.884  1.00 21.21 LIG 0.13  C 
ATOM     53  N   PRO E  66      13.488  10.387  27.217  1.00 19.82 LIG-0.34  N 
ATOM     54  C   ACE E  65      12.569  11.305  26.781  1.00 17.72 LIG 0.22  C 
ATOM     55  CH3 ACE E  65      12.834  12.721  27.090  1.00 22.93 LIG 0.12  C 
ATOM     56 O    ACE E  65      11.548  11.011  26.204  1.00 18.13 LIG-0.27  OA
ENDBRANCH 46 49
ENDBRANCH 44 45
BRANCH 44 57
ATOM     57  CB  TRP E  67       8.940   9.502  29.168  1.00 18.36 LIG 0.07  C 
BRANCH 57 58
ATOM     58  CG  TRP E  67       9.245  10.874  28.843  1.00 19.51 LIG-0.03  A 
ATOM     59  CD1 TRP E  67       9.743  11.816  29.673  1.00 20.71 LIG 0.10  A 
ATOM     60  NE1 TRP E  67       9.910  12.992  29.003  1.00 21.73 LIG-0.36  N 
ATOM     61  CE2 TRP E  67       9.513  12.820  27.708  1.00 22.59 LIG 0.04  A 
ATOM     62 HE1  TRP E  67      10.214  13.722  29.342  1.00 21.73 LIG 0.17  HD
ATOM     63  CD2 TRP E  67       9.089  11.485  27.576  1.00 20.57 LIG-0.00  A 
ATOM     64  CZ2 TRP E  67       9.494  13.712  26.648  1.00 23.91 LIG 0.03  A 
ATOM     65  CE3 TRP E  67       8.634  11.039  26.335  1.00 19.56 LIG 0.01  A 
ATOM     66  CZ3 TRP E  67       8.615  11.908  25.298  1.00 20.82 LIG 0.00  A 
ATOM     67  CH2 TRP E  67       9.043  13.238  25.447  1.00 24.07 LIG 0.00  A 
ENDBRANCH 57 58
ENDBRANCH 44 57
ENDBRANCH 42 44
ENDBRANCH 38 40
ENDBRANCH 1 38
TORSDOF 23
ENDMDL
MODEL 12
USER: ADFR SOLUTION from run 156
USER: SCORE 18.836617 LL:  -5.802 LR: -15.431 RR:   0.000 FEB:  -8.570
USER: RMSD 4.818815
USER: SEED 155
USER: STATUS searching
USER: GENES 25
USER: genes 0 Translation |==|  0.56676 0.58850 0.31343
USER: genes 1 Rotation |==|  0.50395 0.82667 0.55019 0.87517
USER: genes 2 Torsion [C]-N--CA-[C] |==|  0.84339
USER: genes 3 Torsion [N]-CA--C-[N] |==|  0.38316
USER: genes 4 Torsion [C]-N--CA-[C] |==|  0.72708
USER: genes 5 Torsion [N]-CA--C-[N] |==|  0.11426
USER: genes 6 Torsion [C]-N--CA-[C] |==|  0.77009
USER: genes 7 Torsion [N]-CA--C-[N] |==|  0.98772
USER: genes 8 Torsion [C]-N--CA-[CB] |==|  0.79578
USER: genes 9 Torsion [N]-CA--C-[N] |==|  0.70382
USER: genes 10 Torsion [N]-CA--CB-[OG] |==|  0.93243
USER: genes 11 Torsion [CA]-CB--OG-[HG] |==|  0.92259
USER: genes 12 Torsion [N]-CA--CB-[CG] |==|  0.88555
USER: genes 13 Torsion [CA]-CB--CG-[OD2] |==|  0.40202
USER: genes 14 Torsion [N]-CA--CB-[SG] |==|  0.92398
USER: genes 15 Torsion [CA]-CB--SG-[HG] |==|  0.68802
USER: genes 16 Torsion [N]-CA--CB-[OG1] |==|  0.97767
USER: genes 17 Torsion [CA]-CB--OG1-[HG1] |==|  0.84995
USER: genes 18 Torsion [N]-C--CA-[N] |==|  0.09074
USER: genes 19 Torsion [C]-CA--N-[C] |==|  0.15278
USER: genes 20 Torsion [N]-C--CA-[N] |==|  0.82845
USER: genes 21 Torsion [C]-CA--N-[C] |==|  0.65157
USER: genes 22 Torsion [N]-C--CA-[N] |==|  0.12148
USER: genes 23 Torsion [C]-CA--CB-[CG] |==|  0.72967
USER: genes 24 Torsion [CA]-CB--CG-[CD2] |==|  0.31779
ROOT
ATOM      1  C   ALA E  68       8.520   5.962  24.899  1.00 21.38 LIG 0.24  C 
ATOM      2 O    ALA E  68       8.627   5.180  23.947  1.00 23.30 LIG-0.27  OA
ATOM      3  N   THR E  69       8.355   5.563  26.164  1.00 18.30 LIG-0.34  N 
ATOM      4 H    THR E  69       8.176   6.093  26.818  1.00 18.30 LIG 0.16  HD
ENDROOT
BRANCH 3 5
ATOM      5  CA  THR E  69       8.470   4.155  26.539  1.00 19.45 LIG 0.20  C 
BRANCH 5 6
ATOM      6  C   THR E  69       7.503   3.266  25.733  1.00 19.66 LIG 0.24  C 
ATOM      7  N   CYS E  70       7.976   2.115  25.293  1.00 18.57 LIG-0.34  N 
ATOM      8 H    CYS E  70       8.759   1.811  25.481  1.00 18.57 LIG 0.16  HD
ATOM      9 O    THR E  69       6.367   3.627  25.499  1.00 20.15 LIG-0.27  OA
BRANCH 7 10
ATOM     10  CA  CYS E  70       7.184   1.250  24.434  1.00 18.45 LIG 0.18  C 
BRANCH 10 11
ATOM     11  C   CYS E  70       6.571   0.192  25.332  1.00 19.42 LIG 0.24  C 
ATOM     12  N   ASP E  71       6.107   0.624  26.518  1.00 17.61 LIG-0.34  N 
ATOM     13 H    ASP E  71       6.176   1.439  26.784  1.00 17.61 LIG 0.16  HD
ATOM     14 O    CYS E  70       6.564  -0.985  24.959  1.00 18.07 LIG-0.27  OA
BRANCH 12 15
ATOM     15  CA  ASP E  71       5.442  -0.246  27.468  1.00 16.95 LIG 0.19  C 
BRANCH 15 16
ATOM     16  C   ASP E  71       4.023  -0.301  26.986  1.00 18.90 LIG 0.24  C 
ATOM     17 O    ASP E  71       3.205  -1.069  27.550  1.00 16.52 LIG-0.27  OA
ATOM     18  N   SER E  72       3.725   0.478  25.945  1.00 19.80 LIG-0.34  N 
ATOM     19 H    SER E  72       4.300   0.956  25.518  1.00 19.80 LIG 0.16  HD
BRANCH 18 20
ATOM     20  CA  SER E  72       2.358   0.576  25.445  1.00 20.01 LIG 0.20  C 
BRANCH 20 21
ATOM     21  C   SER E  72       1.343   0.841  26.511  1.00 24.22 LIG 0.29  C 
ATOM     22  N   NH2 E  73       0.545  -0.236  26.839  1.00 28.43 LIG-0.11  N 
ATOM     23 O    SER E  72       1.092   1.970  26.868  1.00 27.83 LIG-0.27  OA
ENDBRANCH 20 21
BRANCH 20 24
ATOM     24  CB  SER E  72       1.983  -0.686  24.705  1.00 25.59 LIG 0.20  C 
BRANCH 24 25
ATOM     25 OG   SER E  72       3.127  -1.344  24.218  1.00 28.15 LIG-0.40  OA
ATOM     26 HG   SER E  72       3.737  -0.782  24.080  1.00 28.15 LIG 0.21  HD
ENDBRANCH 24 25
ENDBRANCH 20 24
ENDBRANCH 18 20
ENDBRANCH 15 16
BRANCH 15 27
ATOM     27  CB  ASP E  71       5.559   0.304  28.898  1.00 12.80 LIG 0.15  C 
BRANCH 27 28
ATOM     28  CG  ASP E  71       6.931   0.857  29.179  1.00 14.21 LIG 0.17  C 
ATOM     29 OD2  ASP E  71       7.080   1.849  29.907  1.00 15.44 LIG-0.65  OA
ATOM     30 OD1  ASP E  71       7.898   0.304  28.639  1.00 16.80 LIG-0.65  OA
ENDBRANCH 27 28
ENDBRANCH 15 27
ENDBRANCH 12 15
ENDBRANCH 10 11
BRANCH 10 31
ATOM     31  CB  CYS E  70       8.057   0.618  23.315  1.00 19.19 LIG 0.10  C 
BRANCH 31 32
ATOM     32 SG   CYS E  70       9.514   1.552  22.794  1.00 25.14 LIG-0.18  SA
ATOM     33 HG   CYS E  70       9.359   1.944  21.670  1.00 25.14 LIG 0.10  HD
ENDBRANCH 31 32
ENDBRANCH 10 31
ENDBRANCH 7 10
ENDBRANCH 5 6
BRANCH 5 34
ATOM     34  CB  THR E  69       8.274   3.987  28.057  1.00 17.77 LIG 0.15  C 
ATOM     35  CG2 THR E  69       9.425   3.243  28.641  1.00 20.71 LIG 0.04  C 
BRANCH 34 36
ATOM     36 OG1  THR E  69       8.220   5.245  28.704  1.00 16.43 LIG-0.39  OA
ATOM     37 HG1  THR E  69       8.901   5.693  28.503  1.00 16.43 LIG 0.21  HD
ENDBRANCH 34 36
ENDBRANCH 5 34
ENDBRANCH 3 5
BRANCH 1 38
ATOM     38  CA  ALA E  68       8.582   7.466  24.645  1.00 20.08 LIG 0.17  C 
ATOM     39  CB  ALA E  68       9.352   7.757  23.379  1.00 20.16 LIG 0.04  C 
BRANCH 38 40
ATOM     40  N   ALA E  68       9.188   8.143  25.757  1.00 18.16 LIG-0.35  N 
ATOM     41 H    ALA E  68       8.715   8.775  26.099  1.00 18.16 LIG 0.16  HD
ATOM     42  C   TRP E  67      10.383   7.791  26.190  1.00 18.88 LIG 0.24  C 
ATOM     43 O    TRP E  67      11.095   6.920  25.665  1.00 21.47 LIG-0.27  OA
BRANCH 42 44
ATOM     44  CA  TRP E  67      10.885   8.599  27.331  1.00 17.18 LIG 0.18  C 
BRANCH 44 45
ATOM     45  N   TRP E  67      11.040  10.054  26.973  1.00 16.72 LIG-0.35  N 
ATOM     46  C   PRO E  66      12.172  10.758  27.123  1.00 16.87 LIG 0.24  C 
ATOM     47 O    PRO E  66      13.170  10.334  27.701  1.00 18.41 LIG-0.27  OA
ATOM     48 H    TRP E  67      10.319  10.401  26.657  1.00 16.72 LIG 0.16  HD
BRANCH 46 49
ATOM     49  CA  PRO E  66      12.204  12.205  26.572  1.00 17.04 LIG 0.18  C 
ATOM     50  CB  PRO E  66      13.339  13.033  27.197  1.00 18.40 LIG 0.04  C 
ATOM     51  CG  PRO E  66      12.693  13.956  28.188  1.00 18.41 LIG 0.02  C 
ATOM     52  CD  PRO E  66      11.304  14.207  27.672  1.00 21.21 LIG 0.13  C 
ATOM     53  N   PRO E  66      11.008  13.025  26.849  1.00 19.82 LIG-0.34  N 
ATOM     54  C   ACE E  65       9.831  12.689  26.232  1.00 17.72 LIG 0.22  C 
ATOM     55  CH3 ACE E  65       8.668  13.558  26.484  1.00 22.93 LIG 0.12  C 
ATOM     56 O    ACE E  65       9.693  11.708  25.540  1.00 18.13 LIG-0.27  OA
ENDBRANCH 46 49
ENDBRANCH 44 45
BRANCH 44 57
ATOM     57  CB  TRP E  67       9.985   8.430  28.583  1.00 18.36 LIG 0.07  C 
BRANCH 57 58
ATOM     58  CG  TRP E  67       9.008   9.477  28.756  1.00 19.51 LIG-0.03  A 
ATOM     59  CD1 TRP E  67       9.250  10.784  29.002  1.00 20.71 LIG 0.10  A 
ATOM     60  NE1 TRP E  67       8.075  11.470  29.092  1.00 21.73 LIG-0.36  N 
ATOM     61  CE2 TRP E  67       7.041  10.599  28.902  1.00 22.59 LIG 0.04  A 
ATOM     62 HE1  TRP E  67       7.998  12.314  29.244  1.00 21.73 LIG 0.17  HD
ATOM     63  CD2 TRP E  67       7.602   9.327  28.683  1.00 20.57 LIG-0.00  A 
ATOM     64  CZ2 TRP E  67       5.672  10.814  28.898  1.00 23.91 LIG 0.03  A 
ATOM     65  CE3 TRP E  67       6.755   8.244  28.452  1.00 19.56 LIG 0.01  A 
ATOM     66  CZ3 TRP E  67       5.418   8.452  28.447  1.00 20.82 LIG 0.00  A 
ATOM     67  CH2 TRP E  67       4.874   9.728  28.667  1.00 24.07 LIG 0.00  A 
ENDBRANCH 57 58
ENDBRANCH 44 57
ENDBRANCH 42 44
ENDBRANCH 38 40
ENDBRANCH 1 38
TORSDOF 23
ENDMDL
MODEL 13
USER: ADFR SOLUTION from run 174
USER: SCORE 19.664500 LL:  -5.032 LR: -15.380 RR:   0.000 FEB:  -8.519
USER: RMSD 3.770164
USER: SEED 173
USER: STATUS no improvement in best in 7 clusters for 5 generations
USER: GENES 25
USER: genes 0 Translation |==|  0.57073 0.57408 0.33850
USER: genes 1 Rotation |==|  0.50572 0.78801 0.56253 0.90386
USER: genes 2 Torsion [C]-N--CA-[C] |==|  0.81863
USER: genes 3 Torsion [N]-CA--C-[N] |==|  0.42222
USER: genes 4 Torsion [C]-N--CA-[C] |==|  0.72991
USER: genes 5 Torsion [N]-CA--C-[N] |==|  0.30436
USER: genes 6 Torsion [C]-N--CA-[C] |==|  0.85050
USER: genes 7 Torsion [N]-CA--C-[N] |==|  0.38219
USER: genes 8 Torsion [C]-N--CA-[CB] |==|  0.82663
USER: genes 9 Torsion [N]-CA--C-[N] |==|  0.43213
USER: genes 10 Torsion [N]-CA--CB-[OG] |==|  0.22919
USER: genes 11 Torsion [CA]-CB--OG-[HG] |==|  0.19499
USER: genes 12 Torsion [N]-CA--CB-[CG] |==|  0.72393
USER: genes 13 Torsion [CA]-CB--CG-[OD2] |==|  0.37346
USER: genes 14 Torsion [N]-CA--CB-[SG] |==|  0.81639
USER: genes 15 Torsion [CA]-CB--SG-[HG] |==|  0.93554
USER: genes 16 Torsion [N]-CA--CB-[OG1] |==|  0.89028
USER: genes 17 Torsion [CA]-CB--OG1-[HG1] |==|  0.58073
USER: genes 18 Torsion [N]-C--CA-[N] |==|  0.13896
USER: genes 19 Torsion [C]-CA--N-[C] |==|  0.77657
USER: genes 20 Torsion [N]-C--CA-[N] |==|  0.04336
USER: genes 21 Torsion [C]-CA--N-[C] |==|  0.71093
USER: genes 22 Torsion [N]-C--CA-[N] |==|  0.15349
USER: genes 23 Torsion [C]-CA--CB-[CG] |==|  0.71480
USER: genes 24 Torsion [CA]-CB--CG-[CD2] |==|  0.16053
ROOT
ATOM      1  C   ALA E  68       8.600   5.551  25.274  1.00 21.38 LIG 0.24  C 
ATOM      2 O    ALA E  68       8.905   4.824  24.323  1.00 23.30 LIG-0.27  OA
ATOM      3  N   THR E  69       8.208   5.082  26.464  1.00 18.30 LIG-0.34  N 
ATOM      4 H    THR E  69       7.896   5.574  27.097  1.00 18.30 LIG 0.16  HD
ENDROOT
BRANCH 3 5
ATOM      5  CA  THR E  69       8.285   3.658  26.783  1.00 19.45 LIG 0.20  C 
BRANCH 5 6
ATOM      6  C   THR E  69       7.337   2.822  25.903  1.00 19.66 LIG 0.24  C 
ATOM      7  N   CYS E  70       7.687   1.570  25.669  1.00 18.57 LIG-0.34  N 
ATOM      8 H    CYS E  70       8.369   1.185  26.026  1.00 18.57 LIG 0.16  HD
ATOM      9 O    THR E  69       6.329   3.307  25.430  1.00 20.15 LIG-0.27  OA
BRANCH 7 10
ATOM     10  CA  CYS E  70       6.922   0.726  24.767  1.00 18.45 LIG 0.18  C 
BRANCH 10 11
ATOM     11  C   CYS E  70       5.988  -0.099  25.632  1.00 19.42 LIG 0.24  C 
ATOM     12  N   ASP E  71       4.683   0.213  25.552  1.00 17.61 LIG-0.34  N 
ATOM     13 H    ASP E  71       4.380   0.860  25.072  1.00 17.61 LIG 0.16  HD
ATOM     14 O    CYS E  70       6.461  -0.963  26.377  1.00 18.07 LIG-0.27  OA
BRANCH 12 15
ATOM     15  CA  ASP E  71       3.653  -0.513  26.269  1.00 16.95 LIG 0.19  C 
BRANCH 15 16
ATOM     16  C   ASP E  71       3.871  -1.944  25.877  1.00 18.90 LIG 0.24  C 
ATOM     17 O    ASP E  71       4.104  -2.229  24.676  1.00 16.52 LIG-0.27  OA
ATOM     18  N   SER E  72       3.779  -2.843  26.857  1.00 19.80 LIG-0.34  N 
ATOM     19 H    SER E  72       3.557  -2.655  27.667  1.00 19.80 LIG 0.16  HD
BRANCH 18 20
ATOM     20  CA  SER E  72       4.059  -4.254  26.613  1.00 20.01 LIG 0.20  C 
BRANCH 20 21
ATOM     21  C   SER E  72       5.454  -4.520  26.141  1.00 24.22 LIG 0.29  C 
ATOM     22  N   NH2 E  73       5.925  -5.791  26.397  1.00 28.43 LIG-0.11  N 
ATOM     23 O    SER E  72       6.178  -3.616  25.789  1.00 27.83 LIG-0.27  OA
ENDBRANCH 20 21
BRANCH 20 24
ATOM     24  CB  SER E  72       3.080  -4.813  25.608  1.00 25.59 LIG 0.20  C 
BRANCH 24 25
ATOM     25 OG   SER E  72       3.484  -4.519  24.294  1.00 28.15 LIG-0.40  OA
ATOM     26 HG   SER E  72       4.168  -4.969  24.103  1.00 28.15 LIG 0.21  HD
ENDBRANCH 24 25
ENDBRANCH 20 24
ENDBRANCH 18 20
ENDBRANCH 15 16
BRANCH 15 27
ATOM     27  CB  ASP E  71       2.253  -0.004  25.892  1.00 12.80 LIG 0.15  C 
BRANCH 27 28
ATOM     28  CG  ASP E  71       1.706   0.953  26.917  1.00 14.21 LIG 0.17  C 
ATOM     29 OD2  ASP E  71       1.165   2.014  26.572  1.00 15.44 LIG-0.65  OA
ATOM     30 OD1  ASP E  71       1.840   0.659  28.113  1.00 16.80 LIG-0.65  OA
ENDBRANCH 27 28
ENDBRANCH 15 27
ENDBRANCH 12 15
ENDBRANCH 10 11
BRANCH 10 31
ATOM     31  CB  CYS E  70       7.856  -0.173  23.911  1.00 19.19 LIG 0.10  C 
BRANCH 31 32
ATOM     32 SG   CYS E  70       8.930   0.667  22.724  1.00 25.14 LIG-0.18  SA
ATOM     33 HG   CYS E  70       8.462   1.737  22.447  1.00 25.14 LIG 0.10  HD
ENDBRANCH 31 32
ENDBRANCH 10 31
ENDBRANCH 7 10
ENDBRANCH 5 6
BRANCH 5 34
ATOM     34  CB  THR E  69       8.025   3.431  28.283  1.00 17.77 LIG 0.15  C 
ATOM     35  CG2 THR E  69       8.607   2.128  28.711  1.00 20.71 LIG 0.04  C 
BRANCH 34 36
ATOM     36 OG1  THR E  69       8.641   4.438  29.064  1.00 16.43 LIG-0.39  OA
ATOM     37 HG1  THR E  69       8.842   4.126  29.817  1.00 16.43 LIG 0.21  HD
ENDBRANCH 34 36
ENDBRANCH 5 34
ENDBRANCH 3 5
BRANCH 1 38
ATOM     38  CA  ALA E  68       8.672   7.067  25.113  1.00 20.08 LIG 0.17  C 
ATOM     39  CB  ALA E  68       9.308   7.428  23.792  1.00 20.16 LIG 0.04  C 
BRANCH 38 40
ATOM     40  N   ALA E  68       9.412   7.658  26.193  1.00 18.16 LIG-0.35  N 
ATOM     41 H    ALA E  68      10.230   7.851  26.009  1.00 18.16 LIG 0.16  HD
ATOM     42  C   TRP E  67       8.842   7.872  27.363  1.00 18.88 LIG 0.24  C 
ATOM     43 O    TRP E  67       7.680   7.542  27.651  1.00 21.47 LIG-0.27  OA
BRANCH 42 44
ATOM     44  CA  TRP E  67       9.741   8.467  28.385  1.00 17.18 LIG 0.18  C 
BRANCH 44 45
ATOM     45  N   TRP E  67      10.992   9.043  27.775  1.00 16.72 LIG-0.35  N 
ATOM     46  C   PRO E  66      12.201   8.464  27.828  1.00 16.87 LIG 0.24  C 
ATOM     47 O    PRO E  66      12.453   7.467  28.501  1.00 18.41 LIG-0.27  OA
ATOM     48 H    TRP E  67      10.858   9.796  27.381  1.00 16.72 LIG 0.16  HD
BRANCH 46 49
ATOM     49  CA  PRO E  66      13.353   9.118  27.026  1.00 17.04 LIG 0.18  C 
ATOM     50  CB  PRO E  66      14.708   8.454  27.323  1.00 18.40 LIG 0.04  C 
ATOM     51  CG  PRO E  66      15.457   9.402  28.214  1.00 18.41 LIG 0.02  C 
ATOM     52  CD  PRO E  66      14.958  10.775  27.864  1.00 21.21 LIG 0.13  C 
ATOM     53  N   PRO E  66      13.614  10.541  27.319  1.00 19.82 LIG-0.34  N 
ATOM     54  C   ACE E  65      12.672  11.464  26.947  1.00 17.72 LIG 0.22  C 
ATOM     55  CH3 ACE E  65      12.983  12.882  27.201  1.00 22.93 LIG 0.12  C 
ATOM     56 O    ACE E  65      11.600  11.175  26.470  1.00 18.13 LIG-0.27  OA
ENDBRANCH 46 49
ENDBRANCH 44 45
BRANCH 44 57
ATOM     57  CB  TRP E  67       9.001   9.529  29.239  1.00 18.36 LIG 0.07  C 
BRANCH 57 58
ATOM     58  CG  TRP E  67       9.306  10.894  28.881  1.00 19.51 LIG-0.03  A 
ATOM     59  CD1 TRP E  67       9.826  11.849  29.683  1.00 20.71 LIG 0.10  A 
ATOM     60  NE1 TRP E  67       9.984  13.011  28.987  1.00 21.73 LIG-0.36  N 
ATOM     61  CE2 TRP E  67       9.559  12.817  27.704  1.00 22.59 LIG 0.04  A 
ATOM     62 HE1  TRP E  67      10.299  13.746  29.305  1.00 21.73 LIG 0.17  HD
ATOM     63  CD2 TRP E  67       9.126  11.482  27.606  1.00 20.57 LIG-0.00  A 
ATOM     64  CZ2 TRP E  67       9.521  13.688  26.627  1.00 23.91 LIG 0.03  A 
ATOM     65  CE3 TRP E  67       8.643  11.015  26.384  1.00 19.56 LIG 0.01  A 
ATOM     66  CZ3 TRP E  67       8.606  11.864  25.331  1.00 20.82 LIG 0.00  A 
ATOM     67  CH2 TRP E  67       9.043  13.194  25.446  1.00 24.07 LIG 0.00  A 
ENDBRANCH 57 58
ENDBRANCH 44 57
ENDBRANCH 42 44
ENDBRANCH 38 40
ENDBRANCH 1 38
TORSDOF 23
ENDMDL
MODEL 14
USER: ADFR SOLUTION from run 114
USER: SCORE 19.032211 LL:  -5.277 LR: -15.355 RR:   0.000 FEB:  -8.494
USER: RMSD 3.811646
USER: SEED 113
USER: STATUS no improvement in best in 8 clusters for 5 generations
USER: GENES 25
USER: genes 0 Translation |==|  0.55244 0.58705 0.28452
USER: genes 1 Rotation |==|  0.47851 0.83567 0.52125 0.86934
USER: genes 2 Torsion [C]-N--CA-[C] |==|  0.85960
USER: genes 3 Torsion [N]-CA--C-[N] |==|  0.35573
USER: genes 4 Torsion [C]-N--CA-[C] |==|  0.74134
USER: genes 5 Torsion [N]-CA--C-[N] |==|  0.11633
USER: genes 6 Torsion [C]-N--CA-[C] |==|  0.76952
USER: genes 7 Torsion [N]-CA--C-[N] |==|  0.97183
USER: genes 8 Torsion [C]-N--CA-[CB] |==|  0.79442
USER: genes 9 Torsion [N]-CA--C-[N] |==|  0.19560
USER: genes 10 Torsion [N]-CA--CB-[OG] |==|  0.93001
USER: genes 11 Torsion [CA]-CB--OG-[HG] |==|  0.93324
USER: genes 12 Torsion [N]-CA--CB-[CG] |==|  0.88973
USER: genes 13 Torsion [CA]-CB--CG-[OD2] |==|  0.91374
USER: genes 14 Torsion [N]-CA--CB-[SG] |==|  0.92316
USER: genes 15 Torsion [CA]-CB--SG-[HG] |==|  0.76904
USER: genes 16 Torsion [N]-CA--CB-[OG1] |==|  0.00722
USER: genes 17 Torsion [CA]-CB--OG1-[HG1] |==|  0.15452
USER: genes 18 Torsion [N]-C--CA-[N] |==|  0.05058
USER: genes 19 Torsion [C]-CA--N-[C] |==|  0.16325
USER: genes 20 Torsion [N]-C--CA-[N] |==|  0.18277
USER: genes 21 Torsion [C]-CA--N-[C] |==|  0.73941
USER: genes 22 Torsion [N]-C--CA-[N] |==|  0.42379
USER: genes 23 Torsion [C]-CA--CB-[CG] |==|  0.32381
USER: genes 24 Torsion [CA]-CB--CG-[CD2] |==|  0.09726
ROOT
ATOM      1  C   ALA E  68       8.230   5.921  24.465  1.00 21.38 LIG 0.24  C 
ATOM      2 O    ALA E  68       8.293   5.000  23.643  1.00 23.30 LIG-0.27  OA
ATOM      3  N   THR E  69       8.102   5.726  25.782  1.00 18.30 LIG-0.34  N 
ATOM      4 H    THR E  69       7.953   6.354  26.350  1.00 18.30 LIG 0.16  HD
ENDROOT
BRANCH 3 5
ATOM      5  CA  THR E  69       8.209   4.390  26.367  1.00 19.45 LIG 0.20  C 
BRANCH 5 6
ATOM      6  C   THR E  69       7.305   3.374  25.643  1.00 19.66 LIG 0.24  C 
ATOM      7  N   CYS E  70       7.875   2.257  25.229  1.00 18.57 LIG-0.34  N 
ATOM      8 H    CYS E  70       8.691   2.042  25.393  1.00 18.57 LIG 0.16  HD
ATOM      9 O    THR E  69       6.130   3.608  25.447  1.00 20.15 LIG-0.27  OA
BRANCH 7 10
ATOM     10  CA  CYS E  70       7.141   1.279  24.444  1.00 18.45 LIG 0.18  C 
BRANCH 10 11
ATOM     11  C   CYS E  70       6.567   0.276  25.427  1.00 19.42 LIG 0.24  C 
ATOM     12  N   ASP E  71       6.050   0.789  26.557  1.00 17.61 LIG-0.34  N 
ATOM     13 H    ASP E  71       6.066   1.628  26.745  1.00 17.61 LIG 0.16  HD
ATOM     14 O    CYS E  70       6.638  -0.930  25.168  1.00 18.07 LIG-0.27  OA
BRANCH 12 15
ATOM     15  CA  ASP E  71       5.413  -0.025  27.573  1.00 16.95 LIG 0.19  C 
BRANCH 15 16
ATOM     16  C   ASP E  71       4.011  -0.206  27.074  1.00 18.90 LIG 0.24  C 
ATOM     17 O    ASP E  71       3.258  -1.045  27.628  1.00 16.52 LIG-0.27  OA
ATOM     18  N   SER E  72       3.657   0.545  26.029  1.00 19.80 LIG-0.34  N 
ATOM     19 H    SER E  72       4.192   1.072  25.609  1.00 19.80 LIG 0.16  HD
BRANCH 18 20
ATOM     20  CA  SER E  72       2.293   0.520  25.513  1.00 20.01 LIG 0.20  C 
BRANCH 20 21
ATOM     21  C   SER E  72       1.245   0.681  26.568  1.00 24.22 LIG 0.29  C 
ATOM     22  N   NH2 E  73       1.168   1.940  27.127  1.00 28.43 LIG-0.11  N 
ATOM     23 O    SER E  72       0.689  -0.280  27.048  1.00 27.83 LIG-0.27  OA
ENDBRANCH 20 21
BRANCH 20 24
ATOM     24  CB  SER E  72       2.045  -0.764  24.758  1.00 25.59 LIG 0.20  C 
BRANCH 24 25
ATOM     25 OG   SER E  72       3.248  -1.300  24.264  1.00 28.15 LIG-0.40  OA
ATOM     26 HG   SER E  72       3.815  -0.685  24.182  1.00 28.15 LIG 0.21  HD
ENDBRANCH 24 25
ENDBRANCH 20 24
ENDBRANCH 18 20
ENDBRANCH 15 16
BRANCH 15 27
ATOM     27  CB  ASP E  71       5.468   0.662  28.946  1.00 12.80 LIG 0.15  C 
BRANCH 27 28
ATOM     28  CG  ASP E  71       6.787   1.346  29.183  1.00 14.21 LIG 0.17  C 
ATOM     29 OD2  ASP E  71       7.832   0.904  28.684  1.00 15.44 LIG-0.65  OA
ATOM     30 OD1  ASP E  71       6.796   2.347  29.913  1.00 16.80 LIG-0.65  OA
ENDBRANCH 27 28
ENDBRANCH 15 27
ENDBRANCH 12 15
ENDBRANCH 10 11
BRANCH 10 31
ATOM     31  CB  CYS E  70       8.061   0.595  23.395  1.00 19.19 LIG 0.10  C 
BRANCH 31 32
ATOM     32 SG   CYS E  70       9.473   1.555  22.802  1.00 25.14 LIG-0.18  SA
ATOM     33 HG   CYS E  70       9.117   2.290  21.921  1.00 25.14 LIG 0.10  HD
ENDBRANCH 31 32
ENDBRANCH 10 31
ENDBRANCH 7 10
ENDBRANCH 5 6
BRANCH 5 34
ATOM     34  CB  THR E  69       7.918   4.443  27.878  1.00 17.77 LIG 0.15  C 
ATOM     35  CG2 THR E  69       9.135   4.057  28.645  1.00 20.71 LIG 0.04  C 
BRANCH 34 36
ATOM     36 OG1  THR E  69       7.569   5.754  28.282  1.00 16.43 LIG-0.39  OA
ATOM     37 HG1  THR E  69       6.919   6.025  27.825  1.00 16.43 LIG 0.21  HD
ENDBRANCH 34 36
ENDBRANCH 5 34
ENDBRANCH 3 5
BRANCH 1 38
ATOM     38  CA  ALA E  68       8.306   7.366  23.979  1.00 20.08 LIG 0.17  C 
ATOM     39  CB  ALA E  68       9.320   7.497  22.868  1.00 20.16 LIG 0.04  C 
BRANCH 38 40
ATOM     40  N   ALA E  68       8.644   8.248  25.062  1.00 18.16 LIG-0.35  N 
ATOM     41 H    ALA E  68       8.067   8.866  25.219  1.00 18.16 LIG 0.16  HD
ATOM     42  C   TRP E  67       9.765   8.086  25.737  1.00 18.88 LIG 0.24  C 
ATOM     43 O    TRP E  67      10.629   7.233  25.476  1.00 21.47 LIG-0.27  OA
BRANCH 42 44
ATOM     44  CA  TRP E  67       9.986   9.090  26.810  1.00 17.18 LIG 0.18  C 
BRANCH 44 45
ATOM     45  N   TRP E  67       8.968   8.974  27.914  1.00 16.72 LIG-0.35  N 
ATOM     46  C   PRO E  66       7.830   9.682  27.978  1.00 16.87 LIG 0.24  C 
ATOM     47 O    PRO E  66       7.557  10.607  27.216  1.00 18.41 LIG-0.27  OA
ATOM     48 H    TRP E  67       9.187   8.399  28.515  1.00 16.72 LIG 0.16  HD
BRANCH 46 49
ATOM     49  CA  PRO E  66       6.825   9.339  29.104  1.00 17.04 LIG 0.18  C 
ATOM     50  CB  PRO E  66       5.815   8.264  28.665  1.00 18.40 LIG 0.04  C 
ATOM     51  CG  PRO E  66       4.520   8.979  28.410  1.00 18.41 LIG 0.02  C 
ATOM     52  CD  PRO E  66       4.527  10.178  29.317  1.00 21.21 LIG 0.13  C 
ATOM     53  N   PRO E  66       5.954  10.445  29.548  1.00 19.82 LIG-0.34  N 
ATOM     54  C   ACE E  65       6.527  11.495  30.217  1.00 17.72 LIG 0.22  C 
ATOM     55  CH3 ACE E  65       5.627  12.558  30.697  1.00 22.93 LIG 0.12  C 
ATOM     56 O    ACE E  65       7.717  11.611  30.389  1.00 18.13 LIG-0.27  OA
ENDBRANCH 46 49
ENDBRANCH 44 45
BRANCH 44 57
ATOM     57  CB  TRP E  67      11.428   9.005  27.375  1.00 18.36 LIG 0.07  C 
BRANCH 57 58
ATOM     58  CG  TRP E  67      12.218  10.193  27.160  1.00 19.51 LIG-0.03  A 
ATOM     59  CD1 TRP E  67      13.543  10.252  26.898  1.00 20.71 LIG 0.10  A 
ATOM     60  NE1 TRP E  67      13.933  11.550  26.744  1.00 21.73 LIG-0.36  N 
ATOM     61  CE2 TRP E  67      12.846  12.358  26.909  1.00 22.59 LIG 0.04  A 
ATOM     62 HE1  TRP E  67      14.734  11.815  26.572  1.00 21.73 LIG 0.17  HD
ATOM     63  CD2 TRP E  67      11.742  11.525  27.171  1.00 20.57 LIG-0.00  A 
ATOM     64  CZ2 TRP E  67      12.733  13.738  26.846  1.00 23.91 LIG 0.03  A 
ATOM     65  CE3 TRP E  67      10.490  12.104  27.373  1.00 19.56 LIG 0.01  A 
ATOM     66  CZ3 TRP E  67      10.377  13.451  27.312  1.00 20.82 LIG 0.00  A 
ATOM     67  CH2 TRP E  67      11.489  14.269  27.049  1.00 24.07 LIG 0.00  A 
ENDBRANCH 57 58
ENDBRANCH 44 57
ENDBRANCH 42 44
ENDBRANCH 38 40
ENDBRANCH 1 38
TORSDOF 23
ENDMDL
MODEL 15
USER: ADFR SOLUTION from run 33
USER: SCORE 19.170198 LL:  -5.293 LR: -15.299 RR:   0.000 FEB:  -8.438
USER: RMSD 3.866273
USER: SEED 32
USER: STATUS searching
USER: GENES 25
USER: genes 0 Translation |==|  0.55557 0.58257 0.30640
USER: genes 1 Rotation |==|  0.50508 0.83906 0.54863 0.86421
USER: genes 2 Torsion [C]-N--CA-[C] |==|  0.83889
USER: genes 3 Torsion [N]-CA--C-[N] |==|  0.41046
USER: genes 4 Torsion [C]-N--CA-[C] |==|  0.72151
USER: genes 5 Torsion [N]-CA--C-[N] |==|  0.31032
USER: genes 6 Torsion [C]-N--CA-[C] |==|  0.75674
USER: genes 7 Torsion [N]-CA--C-[N] |==|  0.47051
USER: genes 8 Torsion [C]-N--CA-[CB] |==|  0.19371
USER: genes 9 Torsion [N]-CA--C-[N] |==|  0.04273
USER: genes 10 Torsion [N]-CA--CB-[OG] |==|  0.49266
USER: genes 11 Torsion [CA]-CB--OG-[HG] |==|  0.41505
USER: genes 12 Torsion [N]-CA--CB-[CG] |==|  0.14948
USER: genes 13 Torsion [CA]-CB--CG-[OD2] |==|  0.05053
USER: genes 14 Torsion [N]-CA--CB-[SG] |==|  0.91671
USER: genes 15 Torsion [CA]-CB--SG-[HG] |==|  0.77571
USER: genes 16 Torsion [N]-CA--CB-[OG1] |==|  0.98808
USER: genes 17 Torsion [CA]-CB--OG1-[HG1] |==|  0.58210
USER: genes 18 Torsion [N]-C--CA-[N] |==|  0.08871
USER: genes 19 Torsion [C]-CA--N-[C] |==|  0.15511
USER: genes 20 Torsion [N]-C--CA-[N] |==|  0.84681
USER: genes 21 Torsion [C]-CA--N-[C] |==|  0.60929
USER: genes 22 Torsion [N]-C--CA-[N] |==|  0.20323
USER: genes 23 Torsion [C]-CA--CB-[CG] |==|  0.67734
USER: genes 24 Torsion [CA]-CB--CG-[CD2] |==|  0.26053
ROOT
ATOM      1  C   ALA E  68       8.293   5.793  24.793  1.00 21.38 LIG 0.24  C 
ATOM      2 O    ALA E  68       8.335   5.006  23.841  1.00 23.30 LIG-0.27  OA
ATOM      3  N   THR E  69       8.211   5.401  26.069  1.00 18.30 LIG-0.34  N 
ATOM      4 H    THR E  69       8.077   5.935  26.730  1.00 18.30 LIG 0.16  HD
ENDROOT
BRANCH 3 5
ATOM      5  CA  THR E  69       8.347   3.995  26.443  1.00 19.45 LIG 0.20  C 
BRANCH 5 6
ATOM      6  C   THR E  69       7.301   3.110  25.739  1.00 19.66 LIG 0.24  C 
ATOM      7  N   CYS E  70       7.663   1.875  25.444  1.00 18.57 LIG-0.34  N 
ATOM      8 H    CYS E  70       8.414   1.525  25.675  1.00 18.57 LIG 0.16  HD
ATOM      9 O    THR E  69       6.204   3.546  25.450  1.00 20.15 LIG-0.27  OA
BRANCH 7 10
ATOM     10  CA  CYS E  70       6.793   0.992  24.686  1.00 18.45 LIG 0.18  C 
BRANCH 10 11
ATOM     11  C   CYS E  70       6.121   0.078  25.692  1.00 19.42 LIG 0.24  C 
ATOM     12  N   ASP E  71       4.798   0.256  25.858  1.00 17.61 LIG-0.34  N 
ATOM     13 H    ASP E  71       4.350   0.869  25.454  1.00 17.61 LIG 0.16  HD
ATOM     14 O    CYS E  70       6.806  -0.735  26.322  1.00 18.07 LIG-0.27  OA
BRANCH 12 15
ATOM     15  CA  ASP E  71       3.996  -0.570  26.738  1.00 16.95 LIG 0.19  C 
BRANCH 15 16
ATOM     16  C   ASP E  71       3.581  -1.727  25.880  1.00 18.90 LIG 0.24  C 
ATOM     17 O    ASP E  71       3.764  -1.675  24.638  1.00 16.52 LIG-0.27  OA
ATOM     18  N   SER E  72       3.010  -2.753  26.512  1.00 19.80 LIG-0.34  N 
ATOM     19 H    SER E  72       2.826  -2.762  27.352  1.00 19.80 LIG 0.16  HD
BRANCH 18 20
ATOM     20  CA  SER E  72       2.646  -3.970  25.794  1.00 20.01 LIG 0.20  C 
BRANCH 20 21
ATOM     21  C   SER E  72       1.755  -4.887  26.572  1.00 24.22 LIG 0.29  C 
ATOM     22  N   NH2 E  73       1.153  -4.318  27.675  1.00 28.43 LIG-0.11  N 
ATOM     23 O    SER E  72       1.766  -6.081  26.379  1.00 27.83 LIG-0.27  OA
ENDBRANCH 20 21
BRANCH 20 24
ATOM     24  CB  SER E  72       3.889  -4.721  25.378  1.00 25.59 LIG 0.20  C 
BRANCH 24 25
ATOM     25 OG   SER E  72       3.557  -5.928  24.737  1.00 28.15 LIG-0.40  OA
ATOM     26 HG   SER E  72       4.150  -6.117  24.172  1.00 28.15 LIG 0.21  HD
ENDBRANCH 24 25
ENDBRANCH 20 24
ENDBRANCH 18 20
ENDBRANCH 15 16
BRANCH 15 27
ATOM     27  CB  ASP E  71       2.797   0.215  27.293  1.00 12.80 LIG 0.15  C 
BRANCH 27 28
ATOM     28  CG  ASP E  71       1.975   0.838  26.197  1.00 14.21 LIG 0.17  C 
ATOM     29 OD2  ASP E  71       2.068   0.440  25.027  1.00 15.44 LIG-0.65  OA
ATOM     30 OD1  ASP E  71       1.226   1.777  26.499  1.00 16.80 LIG-0.65  OA
ENDBRANCH 27 28
ENDBRANCH 15 27
ENDBRANCH 12 15
ENDBRANCH 10 11
BRANCH 10 31
ATOM     31  CB  CYS E  70       7.594   0.188  23.625  1.00 19.19 LIG 0.10  C 
BRANCH 31 32
ATOM     32 SG   CYS E  70       9.067   0.985  22.942  1.00 25.14 LIG-0.18  SA
ATOM     33 HG   CYS E  70       8.742   1.759  22.084  1.00 25.14 LIG 0.10  HD
ENDBRANCH 31 32
ENDBRANCH 10 31
ENDBRANCH 7 10
ENDBRANCH 5 6
BRANCH 5 34
ATOM     34  CB  THR E  69       8.293   3.840  27.974  1.00 17.77 LIG 0.15  C 
ATOM     35  CG2 THR E  69       9.529   3.168  28.464  1.00 20.71 LIG 0.04  C 
BRANCH 34 36
ATOM     36 OG1  THR E  69       8.225   5.103  28.610  1.00 16.43 LIG-0.39  OA
ATOM     37 HG1  THR E  69       8.588   5.056  29.365  1.00 16.43 LIG 0.21  HD
ENDBRANCH 34 36
ENDBRANCH 5 34
ENDBRANCH 3 5
BRANCH 1 38
ATOM     38  CA  ALA E  68       8.342   7.295  24.528  1.00 20.08 LIG 0.17  C 
ATOM     39  CB  ALA E  68       9.043   7.578  23.221  1.00 20.16 LIG 0.04  C 
BRANCH 38 40
ATOM     40  N   ALA E  68       9.008   7.979  25.602  1.00 18.16 LIG-0.35  N 
ATOM     41 H    ALA E  68       8.549   8.605  25.972  1.00 18.16 LIG 0.16  HD
ATOM     42  C   TRP E  67      10.230   7.639  25.961  1.00 18.88 LIG 0.24  C 
ATOM     43 O    TRP E  67      10.918   6.775  25.393  1.00 21.47 LIG-0.27  OA
BRANCH 42 44
ATOM     44  CA  TRP E  67      10.792   8.452  27.071  1.00 17.18 LIG 0.18  C 
BRANCH 44 45
ATOM     45  N   TRP E  67      10.762   9.927  26.767  1.00 16.72 LIG-0.35  N 
ATOM     46  C   PRO E  66      11.740  10.789  27.084  1.00 16.87 LIG 0.24  C 
ATOM     47 O    PRO E  66      12.707  10.499  27.785  1.00 18.41 LIG-0.27  OA
ATOM     48 H    TRP E  67      10.045  10.172  26.362  1.00 16.72 LIG 0.16  HD
BRANCH 46 49
ATOM     49  CA  PRO E  66      11.616  12.245  26.572  1.00 17.04 LIG 0.18  C 
ATOM     50  CB  PRO E  66      12.915  13.041  26.783  1.00 18.40 LIG 0.04  C 
ATOM     51  CG  PRO E  66      12.665  13.957  27.946  1.00 18.41 LIG 0.02  C 
ATOM     52  CD  PRO E  66      11.190  14.241  27.935  1.00 21.21 LIG 0.13  C 
ATOM     53  N   PRO E  66      10.605  13.081  27.249  1.00 19.82 LIG-0.34  N 
ATOM     54  C   ACE E  65       9.281  12.778  27.064  1.00 17.72 LIG 0.22  C 
ATOM     55  CH3 ACE E  65       8.293  13.662  27.706  1.00 22.93 LIG 0.12  C 
ATOM     56 O    ACE E  65       8.894  11.813  26.449  1.00 18.13 LIG-0.27  OA
ENDBRANCH 46 49
ENDBRANCH 44 45
BRANCH 44 57
ATOM     57  CB  TRP E  67      10.076   8.148  28.413  1.00 18.36 LIG 0.07  C 
BRANCH 57 58
ATOM     58  CG  TRP E  67       9.358   9.270  28.967  1.00 19.51 LIG-0.03  A 
ATOM     59  CD1 TRP E  67       9.858  10.250  29.752  1.00 20.71 LIG 0.10  A 
ATOM     60  NE1 TRP E  67       8.878  11.143  30.071  1.00 21.73 LIG-0.36  N 
ATOM     61  CE2 TRP E  67       7.712  10.743  29.485  1.00 22.59 LIG 0.04  A 
ATOM     62 HE1  TRP E  67       8.979  11.843  30.560  1.00 21.73 LIG 0.17  HD
ATOM     63  CD2 TRP E  67       7.986   9.559  28.775  1.00 20.57 LIG-0.00  A 
ATOM     64  CZ2 TRP E  67       6.450  11.315  29.511  1.00 23.91 LIG 0.03  A 
ATOM     65  CE3 TRP E  67       6.955   8.937  28.072  1.00 19.56 LIG 0.01  A 
ATOM     66  CZ3 TRP E  67       5.721   9.494  28.096  1.00 20.82 LIG 0.00  A 
ATOM     67  CH2 TRP E  67       5.465  10.677  28.809  1.00 24.07 LIG 0.00  A 
ENDBRANCH 57 58
ENDBRANCH 44 57
ENDBRANCH 42 44
ENDBRANCH 38 40
ENDBRANCH 1 38
TORSDOF 23
ENDMDL
MODEL 16
USER: ADFR SOLUTION from run 130
USER: SCORE 19.154709 LL:  -5.724 LR: -15.182 RR:   0.000 FEB:  -8.321
USER: RMSD 13.011818
USER: SEED 129
USER: STATUS searching
USER: GENES 25
USER: genes 0 Translation |==|  0.60590 0.55832 0.40363
USER: genes 1 Rotation |==|  0.88850 0.20217 0.45609 0.59183
USER: genes 2 Torsion [C]-N--CA-[C] |==|  0.69071
USER: genes 3 Torsion [N]-CA--C-[N] |==|  0.41007
USER: genes 4 Torsion [C]-N--CA-[C] |==|  0.73530
USER: genes 5 Torsion [N]-CA--C-[N] |==|  0.22010
USER: genes 6 Torsion [C]-N--CA-[C] |==|  0.81154
USER: genes 7 Torsion [N]-CA--C-[N] |==|  0.89490
USER: genes 8 Torsion [C]-N--CA-[CB] |==|  0.77778
USER: genes 9 Torsion [N]-CA--C-[N] |==|  0.54207
USER: genes 10 Torsion [N]-CA--CB-[OG] |==|  0.07250
USER: genes 11 Torsion [CA]-CB--OG-[HG] |==|  0.19635
USER: genes 12 Torsion [N]-CA--CB-[CG] |==|  0.78059
USER: genes 13 Torsion [CA]-CB--CG-[OD2] |==|  0.69439
USER: genes 14 Torsion [N]-CA--CB-[SG] |==|  0.41289
USER: genes 15 Torsion [CA]-CB--SG-[HG] |==|  0.80996
USER: genes 16 Torsion [N]-CA--CB-[OG1] |==|  0.22751
USER: genes 17 Torsion [CA]-CB--OG1-[HG1] |==|  0.60220
USER: genes 18 Torsion [N]-C--CA-[N] |==|  0.36136
USER: genes 19 Torsion [C]-CA--N-[C] |==|  0.84368
USER: genes 20 Torsion [N]-C--CA-[N] |==|  0.67666
USER: genes 21 Torsion [C]-CA--N-[C] |==|  0.12314
USER: genes 22 Torsion [N]-C--CA-[N] |==|  0.64462
USER: genes 23 Torsion [C]-CA--CB-[CG] |==|  0.69031
USER: genes 24 Torsion [CA]-CB--CG-[CD2] |==|  0.24400
ROOT
ATOM      1  C   ALA E  68       9.312   5.102  26.251  1.00 21.38 LIG 0.24  C 
ATOM      2 O    ALA E  68      10.402   4.545  26.078  1.00 23.30 LIG-0.27  OA
ATOM      3  N   THR E  69       9.124   6.417  26.092  1.00 18.30 LIG-0.34  N 
ATOM      4 H    THR E  69       8.402   6.830  26.309  1.00 18.30 LIG 0.16  HD
ENDROOT
BRANCH 3 5
ATOM      5  CA  THR E  69      10.164   7.270  25.521  1.00 19.45 LIG 0.20  C 
BRANCH 5 6
ATOM      6  C   THR E  69      10.751   8.236  26.568  1.00 19.66 LIG 0.24  C 
ATOM      7  N   CYS E  70      12.025   8.558  26.436  1.00 18.57 LIG-0.34  N 
ATOM      8 H    CYS E  70      12.519   8.312  25.776  1.00 18.57 LIG 0.16  HD
ATOM      9 O    THR E  69      10.072   8.659  27.481  1.00 20.15 LIG-0.27  OA
BRANCH 7 10
ATOM     10  CA  CYS E  70      12.705   9.375  27.427  1.00 18.45 LIG 0.18  C 
BRANCH 10 11
ATOM     11  C   CYS E  70      12.645  10.805  26.923  1.00 19.42 LIG 0.24  C 
ATOM     12  N   ASP E  71      11.481  11.449  27.120  1.00 17.61 LIG-0.34  N 
ATOM     13 H    ASP E  71      10.791  11.080  27.475  1.00 17.61 LIG 0.16  HD
ATOM     14 O    CYS E  70      13.624  11.281  26.339  1.00 18.07 LIG-0.27  OA
BRANCH 12 15
ATOM     15  CA  ASP E  71      11.276  12.836  26.750  1.00 16.95 LIG 0.19  C 
BRANCH 15 16
ATOM     16  C   ASP E  71      12.159  13.602  27.689  1.00 18.90 LIG 0.24  C 
ATOM     17 O    ASP E  71      12.790  14.604  27.270  1.00 16.52 LIG-0.27  OA
ATOM     18  N   SER E  72      12.231  13.138  28.938  1.00 19.80 LIG-0.34  N 
ATOM     19 H    SER E  72      11.851  12.415  29.208  1.00 19.80 LIG 0.16  HD
BRANCH 18 20
ATOM     20  CA  SER E  72      12.987  13.850  29.962  1.00 20.01 LIG 0.20  C 
BRANCH 20 21
ATOM     21  C   SER E  72      12.785  15.332  29.942  1.00 24.22 LIG 0.29  C 
ATOM     22  N   NH2 E  73      13.712  16.058  30.661  1.00 28.43 LIG-0.11  N 
ATOM     23 O    SER E  72      11.754  15.816  29.531  1.00 27.83 LIG-0.27  OA
ENDBRANCH 20 21
BRANCH 20 24
ATOM     24  CB  SER E  72      14.461  13.548  29.827  1.00 25.59 LIG 0.20  C 
BRANCH 24 25
ATOM     25 OG   SER E  72      14.784  13.198  28.503  1.00 28.15 LIG-0.40  OA
ATOM     26 HG   SER E  72      14.730  13.878  28.012  1.00 28.15 LIG 0.21  HD
ENDBRANCH 24 25
ENDBRANCH 20 24
ENDBRANCH 18 20
ENDBRANCH 15 16
BRANCH 15 27
ATOM     27  CB  ASP E  71       9.796  13.229  26.877  1.00 12.80 LIG 0.15  C 
BRANCH 27 28
ATOM     28  CG  ASP E  71       8.982  12.749  25.706  1.00 14.21 LIG 0.17  C 
ATOM     29 OD2  ASP E  71       8.525  13.550  24.877  1.00 15.44 LIG-0.65  OA
ATOM     30 OD1  ASP E  71       8.762  11.533  25.614  1.00 16.80 LIG-0.65  OA
ENDBRANCH 27 28
ENDBRANCH 15 27
ENDBRANCH 12 15
ENDBRANCH 10 11
BRANCH 10 31
ATOM     31  CB  CYS E  70      14.170   8.902  27.637  1.00 19.19 LIG 0.10  C 
BRANCH 31 32
ATOM     32 SG   CYS E  70      15.380  10.171  28.075  1.00 25.14 LIG-0.18  SA
ATOM     33 HG   CYS E  70      15.548  10.905  27.140  1.00 25.14 LIG 0.10  HD
ENDBRANCH 31 32
ENDBRANCH 10 31
ENDBRANCH 7 10
ENDBRANCH 5 6
BRANCH 5 34
ATOM     34  CB  THR E  69       9.626   8.018  24.288  1.00 17.77 LIG 0.15  C 
ATOM     35  CG2 THR E  69       8.695   7.140  23.525  1.00 20.71 LIG 0.04  C 
BRANCH 34 36
ATOM     36 OG1  THR E  69       8.894   9.168  24.670  1.00 16.43 LIG-0.39  OA
ATOM     37 HG1  THR E  69       8.240   9.269  24.153  1.00 16.43 LIG 0.21  HD
ENDBRANCH 34 36
ENDBRANCH 5 34
ENDBRANCH 3 5
BRANCH 1 38
ATOM     38  CA  ALA E  68       8.101   4.270  26.663  1.00 20.08 LIG 0.17  C 
ATOM     39  CB  ALA E  68       8.230   3.826  28.101  1.00 20.16 LIG 0.04  C 
BRANCH 38 40
ATOM     40  N   ALA E  68       7.956   3.126  25.806  1.00 18.16 LIG-0.35  N 
ATOM     41 H    ALA E  68       7.943   2.368  26.212  1.00 18.16 LIG 0.16  HD
ATOM     42  C   TRP E  67       7.854   3.273  24.499  1.00 18.88 LIG 0.24  C 
ATOM     43 O    TRP E  67       7.931   4.359  23.903  1.00 21.47 LIG-0.27  OA
BRANCH 42 44
ATOM     44  CA  TRP E  67       7.733   1.997  23.747  1.00 17.18 LIG 0.18  C 
BRANCH 44 45
ATOM     45  N   TRP E  67       8.900   1.770  22.822  1.00 16.72 LIG-0.35  N 
ATOM     46  C   PRO E  66      10.185   1.970  23.155  1.00 16.87 LIG 0.24  C 
ATOM     47 O    PRO E  66      10.545   2.497  24.206  1.00 18.41 LIG-0.27  OA
ATOM     48 H    TRP E  67       8.664   1.494  22.043  1.00 16.72 LIG 0.16  HD
BRANCH 46 49
ATOM     49  CA  PRO E  66      11.271   1.551  22.135  1.00 17.04 LIG 0.18  C 
ATOM     50  CB  PRO E  66      10.686   0.722  20.980  1.00 18.40 LIG 0.04  C 
ATOM     51  CG  PRO E  66      11.086  -0.702  21.237  1.00 18.41 LIG 0.02  C 
ATOM     52  CD  PRO E  66      12.380  -0.635  21.997  1.00 21.21 LIG 0.13  C 
ATOM     53  N   PRO E  66      12.341   0.677  22.657  1.00 19.82 LIG-0.34  N 
ATOM     54  C   ACE E  65      13.225   1.202  23.563  1.00 17.72 LIG 0.22  C 
ATOM     55  CH3 ACE E  65      14.315   0.325  24.025  1.00 22.93 LIG 0.12  C 
ATOM     56 O    ACE E  65      13.130   2.314  24.027  1.00 18.13 LIG-0.27  OA
ENDBRANCH 46 49
ENDBRANCH 44 45
BRANCH 44 57
ATOM     57  CB  TRP E  67       7.542   0.792  24.704  1.00 18.36 LIG 0.07  C 
BRANCH 57 58
ATOM     58  CG  TRP E  67       8.665  -0.114  24.746  1.00 19.51 LIG-0.03  A 
ATOM     59  CD1 TRP E  67       8.854  -1.212  23.981  1.00 20.71 LIG 0.10  A 
ATOM     60  NE1 TRP E  67      10.037  -1.809  24.302  1.00 21.73 LIG-0.36  N 
ATOM     61  CE2 TRP E  67      10.637  -1.091  25.296  1.00 22.59 LIG 0.04  A 
ATOM     62 HE1  TRP E  67      10.353  -2.522  23.937  1.00 21.73 LIG 0.17  HD
ATOM     63  CD2 TRP E  67       9.791  -0.007  25.596  1.00 20.57 LIG-0.00  A 
ATOM     64  CZ2 TRP E  67      11.842  -1.292  25.950  1.00 23.91 LIG 0.03  A 
ATOM     65  CE3 TRP E  67      10.175   0.898  26.585  1.00 19.56 LIG 0.01  A 
ATOM     66  CZ3 TRP E  67      11.352   0.703  27.225  1.00 20.82 LIG 0.00  A 
ATOM     67  CH2 TRP E  67      12.185  -0.383  26.912  1.00 24.07 LIG 0.00  A 
ENDBRANCH 57 58
ENDBRANCH 44 57
ENDBRANCH 42 44
ENDBRANCH 38 40
ENDBRANCH 1 38
TORSDOF 23
ENDMDL
MODEL 17
USER: ADFR SOLUTION from run 109
USER: SCORE 17.315808 LL:  -5.152 LR: -15.152 RR:   0.000 FEB:  -8.291
USER: RMSD 6.652148
USER: SEED 108
USER: STATUS no improvement in best in 2 clusters for 5 generations
USER: GENES 25
USER: genes 0 Translation |==|  0.55979 0.55404 0.29471
USER: genes 1 Rotation |==|  0.52075 0.91552 0.63863 0.74019
USER: genes 2 Torsion [C]-N--CA-[C] |==|  0.84835
USER: genes 3 Torsion [N]-CA--C-[N] |==|  0.46790
USER: genes 4 Torsion [C]-N--CA-[C] |==|  0.59057
USER: genes 5 Torsion [N]-CA--C-[N] |==|  0.72386
USER: genes 6 Torsion [C]-N--CA-[C] |==|  0.67818
USER: genes 7 Torsion [N]-CA--C-[N] |==|  0.00445
USER: genes 8 Torsion [C]-N--CA-[CB] |==|  0.80341
USER: genes 9 Torsion [N]-CA--C-[N] |==|  0.47746
USER: genes 10 Torsion [N]-CA--CB-[OG] |==|  0.65134
USER: genes 11 Torsion [CA]-CB--OG-[HG] |==|  0.28897
USER: genes 12 Torsion [N]-CA--CB-[CG] |==|  0.17245
USER: genes 13 Torsion [CA]-CB--CG-[OD2] |==|  0.91093
USER: genes 14 Torsion [N]-CA--CB-[SG] |==|  0.13157
USER: genes 15 Torsion [CA]-CB--SG-[HG] |==|  0.63379
USER: genes 16 Torsion [N]-CA--CB-[OG1] |==|  0.93318
USER: genes 17 Torsion [CA]-CB--OG1-[HG1] |==|  0.54243
USER: genes 18 Torsion [N]-C--CA-[N] |==|  0.02628
USER: genes 19 Torsion [C]-CA--N-[C] |==|  0.18616
USER: genes 20 Torsion [N]-C--CA-[N] |==|  0.57652
USER: genes 21 Torsion [C]-CA--N-[C] |==|  0.62068
USER: genes 22 Torsion [N]-C--CA-[N] |==|  0.23352
USER: genes 23 Torsion [C]-CA--CB-[CG] |==|  0.67775
USER: genes 24 Torsion [CA]-CB--CG-[CD2] |==|  0.25456
ROOT
ATOM      1  C   ALA E  68       8.379   4.980  24.618  1.00 21.38 LIG 0.24  C 
ATOM      2 O    ALA E  68       8.017   4.429  23.572  1.00 23.30 LIG-0.27  OA
ATOM      3  N   THR E  69       9.103   4.368  25.560  1.00 18.30 LIG-0.34  N 
ATOM      4 H    THR E  69       9.272   4.705  26.334  1.00 18.30 LIG 0.16  HD
ENDROOT
BRANCH 3 5
ATOM      5  CA  THR E  69       9.678   3.043  25.337  1.00 19.45 LIG 0.20  C 
BRANCH 5 6
ATOM      6  C   THR E  69       8.609   2.018  24.914  1.00 19.66 LIG 0.24  C 
ATOM      7  N   CYS E  70       9.041   0.856  24.461  1.00 18.57 LIG-0.34  N 
ATOM      8 H    CYS E  70       9.868   0.620  24.448  1.00 18.57 LIG 0.16  HD
ATOM      9 O    THR E  69       7.425   2.285  24.976  1.00 20.15 LIG-0.27  OA
BRANCH 7 10
ATOM     10  CA  CYS E  70       8.122  -0.140  23.936  1.00 18.45 LIG 0.18  C 
BRANCH 10 11
ATOM     11  C   CYS E  70       8.714  -1.496  24.273  1.00 19.42 LIG 0.24  C 
ATOM     12  N   ASP E  71       9.382  -2.110  23.281  1.00 17.61 LIG-0.34  N 
ATOM     13 H    ASP E  71       9.450  -1.787  22.487  1.00 17.61 LIG 0.16  HD
ATOM     14 O    CYS E  70       8.525  -1.974  25.397  1.00 18.07 LIG-0.27  OA
BRANCH 12 15
ATOM     15  CA  ASP E  71      10.055  -3.383  23.453  1.00 16.95 LIG 0.19  C 
BRANCH 15 16
ATOM     16  C   ASP E  71      11.504  -3.064  23.239  1.00 18.90 LIG 0.24  C 
ATOM     17 O    ASP E  71      12.359  -3.981  23.314  1.00 16.52 LIG-0.27  OA
ATOM     18  N   SER E  72      11.796  -1.785  22.998  1.00 19.80 LIG-0.34  N 
ATOM     19 H    SER E  72      11.219  -1.146  23.011  1.00 19.80 LIG 0.16  HD
BRANCH 18 20
ATOM     20  CA  SER E  72      13.159  -1.370  22.687  1.00 20.01 LIG 0.20  C 
BRANCH 20 21
ATOM     21  C   SER E  72      13.788  -2.147  21.574  1.00 24.22 LIG 0.29  C 
ATOM     22  N   NH2 E  73      15.006  -1.665  21.141  1.00 28.43 LIG-0.11  N 
ATOM     23 O    SER E  72      13.158  -2.974  20.956  1.00 27.83 LIG-0.27  OA
ENDBRANCH 20 21
BRANCH 20 24
ATOM     24  CB  SER E  72      14.029  -1.473  23.918  1.00 25.59 LIG 0.20  C 
BRANCH 24 25
ATOM     25 OG   SER E  72      14.670  -0.251  24.186  1.00 28.15 LIG-0.40  OA
ATOM     26 HG   SER E  72      14.289   0.130  24.831  1.00 28.15 LIG 0.21  HD
ENDBRANCH 24 25
ENDBRANCH 20 24
ENDBRANCH 18 20
ENDBRANCH 15 16
BRANCH 15 27
ATOM     27  CB  ASP E  71       9.526  -4.427  22.457  1.00 12.80 LIG 0.15  C 
BRANCH 27 28
ATOM     28  CG  ASP E  71       9.778  -4.024  21.030  1.00 14.21 LIG 0.17  C 
ATOM     29 OD2  ASP E  71       9.782  -2.830  20.697  1.00 15.44 LIG-0.65  OA
ATOM     30 OD1  ASP E  71       9.953  -4.924  20.197  1.00 16.80 LIG-0.65  OA
ENDBRANCH 27 28
ENDBRANCH 15 27
ENDBRANCH 12 15
ENDBRANCH 10 11
BRANCH 10 31
ATOM     31  CB  CYS E  70       7.920   0.033  22.405  1.00 19.19 LIG 0.10  C 
BRANCH 31 32
ATOM     32 SG   CYS E  70       9.412   0.242  21.406  1.00 25.14 LIG-0.18  SA
ATOM     33 HG   CYS E  70       9.270   1.174  20.663  1.00 25.14 LIG 0.10  HD
ENDBRANCH 31 32
ENDBRANCH 10 31
ENDBRANCH 7 10
ENDBRANCH 5 6
BRANCH 5 34
ATOM     34  CB  THR E  69      10.456   2.580  26.583  1.00 17.77 LIG 0.15  C 
ATOM     35  CG2 THR E  69      11.679   1.836  26.174  1.00 20.71 LIG 0.04  C 
BRANCH 34 36
ATOM     36 OG1  THR E  69      10.880   3.687  27.357  1.00 16.43 LIG-0.39  OA
ATOM     37 HG1  THR E  69      11.467   3.438  27.903  1.00 16.43 LIG 0.21  HD
ENDBRANCH 34 36
ENDBRANCH 5 34
ENDBRANCH 3 5
BRANCH 1 38
ATOM     38  CA  ALA E  68       7.997   6.436  24.868  1.00 20.08 LIG 0.17  C 
ATOM     39  CB  ALA E  68       8.302   7.279  23.654  1.00 20.16 LIG 0.04  C 
BRANCH 38 40
ATOM     40  N   ALA E  68       8.694   6.953  26.014  1.00 18.16 LIG-0.35  N 
ATOM     41 H    ALA E  68       8.193   7.138  26.689  1.00 18.16 LIG 0.16  HD
ATOM     42  C   TRP E  67      10.002   7.115  25.991  1.00 18.88 LIG 0.24  C 
ATOM     43 O    TRP E  67      10.720   6.905  25.000  1.00 21.47 LIG-0.27  OA
BRANCH 42 44
ATOM     44  CA  TRP E  67      10.573   7.680  27.240  1.00 17.18 LIG 0.18  C 
BRANCH 44 45
ATOM     45  N   TRP E  67      11.845   8.446  26.989  1.00 16.72 LIG-0.35  N 
ATOM     46  C   PRO E  66      12.948   8.360  27.748  1.00 16.87 LIG 0.24  C 
ATOM     47 O    PRO E  66      12.997   7.754  28.817  1.00 18.41 LIG-0.27  OA
ATOM     48 H    TRP E  67      11.800   8.956  26.298  1.00 16.72 LIG 0.16  HD
BRANCH 46 49
ATOM     49  CA  PRO E  66      14.218   9.104  27.269  1.00 17.04 LIG 0.18  C 
ATOM     50  CB  PRO E  66      15.496   8.521  27.893  1.00 18.40 LIG 0.04  C 
ATOM     51  CG  PRO E  66      15.932   9.492  28.952  1.00 18.41 LIG 0.02  C 
ATOM     52  CD  PRO E  66      15.445  10.839  28.498  1.00 21.21 LIG 0.13  C 
ATOM     53  N   PRO E  66      14.300  10.534  27.629  1.00 19.82 LIG-0.34  N 
ATOM     54  C   ACE E  65      13.422  11.405  27.039  1.00 17.72 LIG 0.22  C 
ATOM     55  CH3 ACE E  65      13.563  12.833  27.375  1.00 22.93 LIG 0.12  C 
ATOM     56 O    ACE E  65      12.527  11.060  26.305  1.00 18.13 LIG-0.27  OA
ENDBRANCH 46 49
ENDBRANCH 44 45
BRANCH 44 57
ATOM     57  CB  TRP E  67       9.537   8.558  27.989  1.00 18.36 LIG 0.07  C 
BRANCH 57 58
ATOM     58  CG  TRP E  67       9.903   9.950  28.088  1.00 19.51 LIG-0.03  A 
ATOM     59  CD1 TRP E  67      10.652  10.529  29.054  1.00 20.71 LIG 0.10  A 
ATOM     60  NE1 TRP E  67      10.792  11.862  28.803  1.00 21.73 LIG-0.36  N 
ATOM     61  CE2 TRP E  67      10.124  12.166  27.653  1.00 22.59 LIG 0.04  A 
ATOM     62 HE1  TRP E  67      11.230  12.419  29.291  1.00 21.73 LIG 0.17  HD
ATOM     63  CD2 TRP E  67       9.552  10.972  27.175  1.00 20.57 LIG-0.00  A 
ATOM     64  CZ2 TRP E  67       9.975  13.375  26.991  1.00 23.91 LIG 0.03  A 
ATOM     65  CE3 TRP E  67       8.811  11.002  25.994  1.00 19.56 LIG 0.01  A 
ATOM     66  CZ3 TRP E  67       8.665  12.182  25.346  1.00 20.82 LIG 0.00  A 
ATOM     67  CH2 TRP E  67       9.244  13.364  25.836  1.00 24.07 LIG 0.00  A 
ENDBRANCH 57 58
ENDBRANCH 44 57
ENDBRANCH 42 44
ENDBRANCH 38 40
ENDBRANCH 1 38
TORSDOF 23
ENDMDL
MODEL 18
USER: ADFR SOLUTION from run 38
USER: SCORE 18.169614 LL:  -5.779 LR: -15.099 RR:   0.000 FEB:  -8.238
USER: RMSD 12.849687
USER: SEED 37
USER: STATUS no improvement in best in 4 clusters for 5 generations
USER: GENES 25
USER: genes 0 Translation |==|  0.64982 0.51043 0.36419
USER: genes 1 Rotation |==|  0.97313 0.36224 0.54925 0.56888
USER: genes 2 Torsion [C]-N--CA-[C] |==|  0.81195
USER: genes 3 Torsion [N]-CA--C-[N] |==|  0.40355
USER: genes 4 Torsion [C]-N--CA-[C] |==|  0.79887
USER: genes 5 Torsion [N]-CA--C-[N] |==|  0.92411
USER: genes 6 Torsion [C]-N--CA-[C] |==|  0.24384
USER: genes 7 Torsion [N]-CA--C-[N] |==|  0.81918
USER: genes 8 Torsion [C]-N--CA-[CB] |==|  0.27222
USER: genes 9 Torsion [N]-CA--C-[N] |==|  0.49225
USER: genes 10 Torsion [N]-CA--CB-[OG] |==|  0.89972
USER: genes 11 Torsion [CA]-CB--OG-[HG] |==|  0.66659
USER: genes 12 Torsion [N]-CA--CB-[CG] |==|  0.60895
USER: genes 13 Torsion [CA]-CB--CG-[OD2] |==|  0.71407
USER: genes 14 Torsion [N]-CA--CB-[SG] |==|  0.56111
USER: genes 15 Torsion [CA]-CB--SG-[HG] |==|  0.51293
USER: genes 16 Torsion [N]-CA--CB-[OG1] |==|  0.87219
USER: genes 17 Torsion [CA]-CB--OG1-[HG1] |==|  0.21318
USER: genes 18 Torsion [N]-C--CA-[N] |==|  0.25467
USER: genes 19 Torsion [C]-CA--N-[C] |==|  0.81973
USER: genes 20 Torsion [N]-C--CA-[N] |==|  0.93782
USER: genes 21 Torsion [C]-CA--N-[C] |==|  0.74728
USER: genes 22 Torsion [N]-C--CA-[N] |==|  0.89545
USER: genes 23 Torsion [C]-CA--CB-[CG] |==|  0.62415
USER: genes 24 Torsion [CA]-CB--CG-[CD2] |==|  0.24955
ROOT
ATOM      1  C   ALA E  68      10.202   3.737  25.660  1.00 21.38 LIG 0.24  C 
ATOM      2 O    ALA E  68      11.370   4.115  25.805  1.00 23.30 LIG-0.27  OA
ATOM      3  N   THR E  69       9.204   4.551  25.298  1.00 18.30 LIG-0.34  N 
ATOM      4 H    THR E  69       8.374   4.325  25.294  1.00 18.30 LIG 0.16  HD
ENDROOT
BRANCH 3 5
ATOM      5  CA  THR E  69       9.461   5.924  24.869  1.00 19.45 LIG 0.20  C 
BRANCH 5 6
ATOM      6  C   THR E  69       9.975   6.800  26.027  1.00 19.66 LIG 0.24  C 
ATOM      7  N   CYS E  70      10.859   7.733  25.724  1.00 18.57 LIG-0.34  N 
ATOM      8 H    CYS E  70      11.111   7.916  24.922  1.00 18.57 LIG 0.16  HD
ATOM      9 O    THR E  69       9.597   6.618  27.167  1.00 20.15 LIG-0.27  OA
BRANCH 7 10
ATOM     10  CA  CYS E  70      11.489   8.542  26.754  1.00 18.45 LIG 0.18  C 
BRANCH 10 11
ATOM     11  C   CYS E  70      10.427   9.500  27.260  1.00 19.42 LIG 0.24  C 
ATOM     12  N   ASP E  71       9.458   9.821  26.385  1.00 17.61 LIG-0.34  N 
ATOM     13 H    ASP E  71       9.443   9.538  25.573  1.00 17.61 LIG 0.16  HD
ATOM     14 O    CYS E  70      10.524   9.958  28.404  1.00 18.07 LIG-0.27  OA
BRANCH 12 15
ATOM     15  CA  ASP E  71       8.340  10.678  26.727  1.00 16.95 LIG 0.19  C 
BRANCH 15 16
ATOM     16  C   ASP E  71       8.839  12.063  26.446  1.00 18.90 LIG 0.24  C 
ATOM     17 O    ASP E  71       8.319  12.735  25.521  1.00 16.52 LIG-0.27  OA
ATOM     18  N   SER E  72       9.846  12.491  27.209  1.00 19.80 LIG-0.34  N 
ATOM     19 H    SER E  72      10.245  12.009  27.799  1.00 19.80 LIG 0.16  HD
BRANCH 18 20
ATOM     20  CA  SER E  72      10.356  13.853  27.089  1.00 20.01 LIG 0.20  C 
BRANCH 20 21
ATOM     21  C   SER E  72      11.847  13.948  27.158  1.00 24.22 LIG 0.29  C 
ATOM     22  N   NH2 E  73      12.360  15.217  26.986  1.00 28.43 LIG-0.11  N 
ATOM     23 O    SER E  72      12.539  12.955  27.122  1.00 27.83 LIG-0.27  OA
ENDBRANCH 20 21
BRANCH 20 24
ATOM     24  CB  SER E  72       9.752  14.732  28.159  1.00 25.59 LIG 0.20  C 
BRANCH 24 25
ATOM     25 OG   SER E  72       8.416  14.373  28.410  1.00 28.15 LIG-0.40  OA
ATOM     26 HG   SER E  72       7.915  15.030  28.253  1.00 28.15 LIG 0.21  HD
ENDBRANCH 24 25
ENDBRANCH 20 24
ENDBRANCH 18 20
ENDBRANCH 15 16
BRANCH 15 27
ATOM     27  CB  ASP E  71       7.923  10.485  28.193  1.00 12.80 LIG 0.15  C 
BRANCH 27 28
ATOM     28  CG  ASP E  71       6.428  10.515  28.364  1.00 14.21 LIG 0.17  C 
ATOM     29 OD2  ASP E  71       5.860  11.520  28.816  1.00 15.44 LIG-0.65  OA
ATOM     30 OD1  ASP E  71       5.791   9.496  28.064  1.00 16.80 LIG-0.65  OA
ENDBRANCH 27 28
ENDBRANCH 15 27
ENDBRANCH 12 15
ENDBRANCH 10 11
BRANCH 10 31
ATOM     31  CB  CYS E  70      12.726   9.298  26.197  1.00 19.19 LIG 0.10  C 
BRANCH 31 32
ATOM     32 SG   CYS E  70      13.960   9.838  27.403  1.00 25.14 LIG-0.18  SA
ATOM     33 HG   CYS E  70      14.808  10.483  26.848  1.00 25.14 LIG 0.10  HD
ENDBRANCH 31 32
ENDBRANCH 10 31
ENDBRANCH 7 10
ENDBRANCH 5 6
BRANCH 5 34
ATOM     34  CB  THR E  69       8.204   6.523  24.211  1.00 17.77 LIG 0.15  C 
ATOM     35  CG2 THR E  69       8.563   7.752  23.450  1.00 20.71 LIG 0.04  C 
BRANCH 34 36
ATOM     36 OG1  THR E  69       7.632   5.614  23.288  1.00 16.43 LIG-0.39  OA
ATOM     37 HG1  THR E  69       7.213   5.018  23.706  1.00 16.43 LIG 0.21  HD
ENDBRANCH 34 36
ENDBRANCH 5 34
ENDBRANCH 3 5
BRANCH 1 38
ATOM     38  CA  ALA E  68       9.854   2.270  25.894  1.00 20.08 LIG 0.17  C 
ATOM     39  CB  ALA E  68      10.708   1.694  26.998  1.00 20.16 LIG 0.04  C 
BRANCH 38 40
ATOM     40  N   ALA E  68      10.028   1.509  24.688  1.00 18.16 LIG-0.35  N 
ATOM     41 H    ALA E  68      10.647   0.912  24.723  1.00 18.16 LIG 0.16  HD
ATOM     42  C   TRP E  67       9.275   1.739  23.631  1.00 18.88 LIG 0.24  C 
ATOM     43 O    TRP E  67       8.421   2.638  23.556  1.00 21.47 LIG-0.27  OA
BRANCH 42 44
ATOM     44  CA  TRP E  67       9.590   0.888  22.455  1.00 17.18 LIG 0.18  C 
BRANCH 44 45
ATOM     45  N   TRP E  67      10.992   0.342  22.508  1.00 16.72 LIG-0.35  N 
ATOM     46  C   PRO E  66      12.065   0.946  21.973  1.00 16.87 LIG 0.24  C 
ATOM     47 O    PRO E  66      12.002   1.943  21.256  1.00 18.41 LIG-0.27  OA
ATOM     48 H    TRP E  67      11.046  -0.410  22.921  1.00 16.72 LIG 0.16  HD
BRANCH 46 49
ATOM     49  CA  PRO E  66      13.456   0.322  22.241  1.00 17.04 LIG 0.18  C 
ATOM     50  CB  PRO E  66      13.734  -0.880  21.323  1.00 18.40 LIG 0.04  C 
ATOM     51  CG  PRO E  66      13.573  -2.107  22.173  1.00 18.41 LIG 0.02  C 
ATOM     52  CD  PRO E  66      13.925  -1.686  23.572  1.00 21.21 LIG 0.13  C 
ATOM     53  N   PRO E  66      13.660  -0.241  23.591  1.00 19.82 LIG-0.34  N 
ATOM     54  C   ACE E  65      13.709   0.622  24.654  1.00 17.72 LIG 0.22  C 
ATOM     55  CH3 ACE E  65      13.969   0.038  25.982  1.00 22.93 LIG 0.12  C 
ATOM     56 O    ACE E  65      13.510   1.810  24.564  1.00 18.13 LIG-0.27  OA
ENDBRANCH 46 49
ENDBRANCH 44 45
BRANCH 44 57
ATOM     57  CB  TRP E  67       8.556  -0.257  22.293  1.00 18.36 LIG 0.07  C 
BRANCH 57 58
ATOM     58  CG  TRP E  67       9.140  -1.546  22.009  1.00 19.51 LIG-0.03  A 
ATOM     59  CD1 TRP E  67       9.418  -2.064  20.792  1.00 20.71 LIG 0.10  A 
ATOM     60  NE1 TRP E  67       9.975  -3.302  20.925  1.00 21.73 LIG-0.36  N 
ATOM     61  CE2 TRP E  67      10.064  -3.603  22.253  1.00 22.59 LIG 0.04  A 
ATOM     62 HE1  TRP E  67      10.228  -3.808  20.277  1.00 21.73 LIG 0.17  HD
ATOM     63  CD2 TRP E  67       9.545  -2.507  22.966  1.00 20.57 LIG-0.00  A 
ATOM     64  CZ2 TRP E  67      10.556  -4.733  22.888  1.00 23.91 LIG 0.03  A 
ATOM     65  CE3 TRP E  67       9.524  -2.554  24.360  1.00 19.56 LIG 0.01  A 
ATOM     66  CZ3 TRP E  67      10.005  -3.656  24.981  1.00 20.82 LIG 0.00  A 
ATOM     67  CH2 TRP E  67      10.521  -4.741  24.254  1.00 24.07 LIG 0.00  A 
ENDBRANCH 57 58
ENDBRANCH 44 57
ENDBRANCH 42 44
ENDBRANCH 38 40
ENDBRANCH 1 38
TORSDOF 23
ENDMDL
MODEL 19
USER: ADFR SOLUTION from run 109
USER: SCORE 17.860287 LL:  -5.164 LR: -15.087 RR:   0.000 FEB:  -8.226
USER: RMSD 6.309972
USER: SEED 108
USER: STATUS no improvement in best in 2 clusters for 5 generations
USER: GENES 25
USER: genes 0 Translation |==|  0.55602 0.54406 0.30602
USER: genes 1 Rotation |==|  0.46808 0.85933 0.59288 0.83352
USER: genes 2 Torsion [C]-N--CA-[C] |==|  0.85392
USER: genes 3 Torsion [N]-CA--C-[N] |==|  0.38910
USER: genes 4 Torsion [C]-N--CA-[C] |==|  0.55771
USER: genes 5 Torsion [N]-CA--C-[N] |==|  0.61461
USER: genes 6 Torsion [C]-N--CA-[C] |==|  0.72011
USER: genes 7 Torsion [N]-CA--C-[N] |==|  0.08061
USER: genes 8 Torsion [C]-N--CA-[CB] |==|  0.51111
USER: genes 9 Torsion [N]-CA--C-[N] |==|  0.36144
USER: genes 10 Torsion [N]-CA--CB-[OG] |==|  0.61556
USER: genes 11 Torsion [CA]-CB--OG-[HG] |==|  0.12487
USER: genes 12 Torsion [N]-CA--CB-[CG] |==|  0.23452
USER: genes 13 Torsion [CA]-CB--CG-[OD2] |==|  0.36400
USER: genes 14 Torsion [N]-CA--CB-[SG] |==|  0.15605
USER: genes 15 Torsion [CA]-CB--SG-[HG] |==|  0.65853
USER: genes 16 Torsion [N]-CA--CB-[OG1] |==|  0.91697
USER: genes 17 Torsion [CA]-CB--OG1-[HG1] |==|  0.23101
USER: genes 18 Torsion [N]-C--CA-[N] |==|  0.19117
USER: genes 19 Torsion [C]-CA--N-[C] |==|  0.73454
USER: genes 20 Torsion [N]-C--CA-[N] |==|  0.36976
USER: genes 21 Torsion [C]-CA--N-[C] |==|  0.80957
USER: genes 22 Torsion [N]-C--CA-[N] |==|  0.06671
USER: genes 23 Torsion [C]-CA--CB-[CG] |==|  0.60986
USER: genes 24 Torsion [CA]-CB--CG-[CD2] |==|  0.86122
ROOT
ATOM      1  C   ALA E  68       8.302   4.696  24.787  1.00 21.38 LIG 0.24  C 
ATOM      2 O    ALA E  68       8.411   3.933  23.821  1.00 23.30 LIG-0.27  OA
ATOM      3  N   THR E  69       8.477   4.308  26.055  1.00 18.30 LIG-0.34  N 
ATOM      4 H    THR E  69       8.304   4.800  26.739  1.00 18.30 LIG 0.16  HD
ENDROOT
BRANCH 3 5
ATOM      5  CA  THR E  69       8.992   2.979  26.380  1.00 19.45 LIG 0.20  C 
BRANCH 5 6
ATOM      6  C   THR E  69       8.187   1.866  25.683  1.00 19.66 LIG 0.24  C 
ATOM      7  N   CYS E  70       8.872   0.846  25.198  1.00 18.57 LIG-0.34  N 
ATOM      8 H    CYS E  70       9.719   0.741  25.303  1.00 18.57 LIG 0.16  HD
ATOM      9 O    THR E  69       6.980   1.943  25.569  1.00 20.15 LIG-0.27  OA
BRANCH 7 10
ATOM     10  CA  CYS E  70       8.224  -0.203  24.430  1.00 18.45 LIG 0.18  C 
BRANCH 10 11
ATOM     11  C   CYS E  70       9.140  -1.411  24.489  1.00 19.42 LIG 0.24  C 
ATOM     12  N   ASP E  71       9.282  -2.098  23.342  1.00 17.61 LIG-0.34  N 
ATOM     13 H    ASP E  71       8.862  -1.901  22.618  1.00 17.61 LIG 0.16  HD
ATOM     14 O    CYS E  70       9.662  -1.720  25.565  1.00 18.07 LIG-0.27  OA
BRANCH 12 15
ATOM     15  CA  ASP E  71      10.163  -3.242  23.213  1.00 16.95 LIG 0.19  C 
BRANCH 15 16
ATOM     16  C   ASP E  71      11.382  -2.693  22.535  1.00 18.90 LIG 0.24  C 
ATOM     17 O    ASP E  71      12.087  -3.448  21.819  1.00 16.52 LIG-0.27  OA
ATOM     18  N   SER E  72      11.653  -1.407  22.763  1.00 19.80 LIG-0.34  N 
ATOM     19 H    SER E  72      11.208  -0.907  23.303  1.00 19.80 LIG 0.16  HD
BRANCH 18 20
ATOM     20  CA  SER E  72      12.761  -0.741  22.087  1.00 20.01 LIG 0.20  C 
BRANCH 20 21
ATOM     21  C   SER E  72      14.070  -1.451  22.229  1.00 24.22 LIG 0.29  C 
ATOM     22  N   NH2 E  73      14.754  -1.655  21.048  1.00 28.43 LIG-0.11  N 
ATOM     23 O    SER E  72      14.371  -2.006  23.261  1.00 27.83 LIG-0.27  OA
ENDBRANCH 20 21
BRANCH 20 24
ATOM     24  CB  SER E  72      12.906   0.674  22.596  1.00 25.59 LIG 0.20  C 
BRANCH 24 25
ATOM     25 OG   SER E  72      13.168   1.565  21.539  1.00 28.15 LIG-0.40  OA
ATOM     26 HG   SER E  72      12.653   1.397  20.897  1.00 28.15 LIG 0.21  HD
ENDBRANCH 24 25
ENDBRANCH 20 24
ENDBRANCH 18 20
ENDBRANCH 15 16
BRANCH 15 27
ATOM     27  CB  ASP E  71       9.494  -4.367  22.408  1.00 12.80 LIG 0.15  C 
BRANCH 27 28
ATOM     28  CG  ASP E  71       9.655  -4.172  20.924  1.00 14.21 LIG 0.17  C 
ATOM     29 OD2  ASP E  71      10.048  -5.099  20.200  1.00 15.44 LIG-0.65  OA
ATOM     30 OD1  ASP E  71       9.410  -3.051  20.458  1.00 16.80 LIG-0.65  OA
ENDBRANCH 27 28
ENDBRANCH 15 27
ENDBRANCH 12 15
ENDBRANCH 10 11
BRANCH 10 31
ATOM     31  CB  CYS E  70       7.965   0.250  22.967  1.00 19.19 LIG 0.10  C 
BRANCH 31 32
ATOM     32 SG   CYS E  70       9.401   0.808  22.021  1.00 25.14 LIG-0.18  SA
ATOM     33 HG   CYS E  70       9.211   1.925  21.626  1.00 25.14 LIG 0.10  HD
ENDBRANCH 31 32
ENDBRANCH 10 31
ENDBRANCH 7 10
ENDBRANCH 5 6
BRANCH 5 34
ATOM     34  CB  THR E  69       9.042   2.782  27.906  1.00 17.77 LIG 0.15  C 
ATOM     35  CG2 THR E  69      10.175   1.887  28.269  1.00 20.71 LIG 0.04  C 
BRANCH 34 36
ATOM     36 OG1  THR E  69       9.254   4.014  28.570  1.00 16.43 LIG-0.39  OA
ATOM     37 HG1  THR E  69       8.522   4.415  28.658  1.00 16.43 LIG 0.21  HD
ENDBRANCH 34 36
ENDBRANCH 5 34
ENDBRANCH 3 5
BRANCH 1 38
ATOM     38  CA  ALA E  68       7.956   6.163  24.549  1.00 20.08 LIG 0.17  C 
ATOM     39  CB  ALA E  68       7.532   6.380  23.117  1.00 20.16 LIG 0.04  C 
BRANCH 38 40
ATOM     40  N   ALA E  68       9.077   7.006  24.864  1.00 18.16 LIG-0.35  N 
ATOM     41 H    ALA E  68       9.650   7.098  24.230  1.00 18.16 LIG 0.16  HD
ATOM     42  C   TRP E  67       9.179   7.576  26.049  1.00 18.88 LIG 0.24  C 
ATOM     43 O    TRP E  67       8.384   7.400  26.986  1.00 21.47 LIG-0.27  OA
BRANCH 42 44
ATOM     44  CA  TRP E  67      10.403   8.398  26.230  1.00 17.18 LIG 0.18  C 
BRANCH 44 45
ATOM     45  N   TRP E  67      10.099   9.743  26.837  1.00 16.72 LIG-0.35  N 
ATOM     46  C   PRO E  66       9.427  10.724  26.215  1.00 16.87 LIG 0.24  C 
ATOM     47 O    PRO E  66       9.107  10.688  25.028  1.00 18.41 LIG-0.27  OA
ATOM     48 H    TRP E  67      10.403   9.828  27.637  1.00 16.72 LIG 0.16  HD
BRANCH 46 49
ATOM     49  CA  PRO E  66       9.075  11.992  27.031  1.00 17.04 LIG 0.18  C 
ATOM     50  CB  PRO E  66       9.215  13.273  26.192  1.00 18.40 LIG 0.04  C 
ATOM     51  CG  PRO E  66      10.482  13.939  26.645  1.00 18.41 LIG 0.02  C 
ATOM     52  CD  PRO E  66      10.664  13.540  28.083  1.00 21.21 LIG 0.13  C 
ATOM     53  N   PRO E  66       9.939  12.267  28.197  1.00 19.82 LIG-0.34  N 
ATOM     54  C   ACE E  65       9.875  11.415  29.268  1.00 17.72 LIG 0.22  C 
ATOM     55  CH3 ACE E  65      10.707  11.745  30.439  1.00 22.93 LIG 0.12  C 
ATOM     56 O    ACE E  65       9.217  10.401  29.281  1.00 18.13 LIG-0.27  OA
ENDBRANCH 46 49
ENDBRANCH 44 45
BRANCH 44 57
ATOM     57  CB  TRP E  67      11.471   7.644  27.064  1.00 18.36 LIG 0.07  C 
BRANCH 57 58
ATOM     58  CG  TRP E  67      12.182   8.475  28.006  1.00 19.51 LIG-0.03  A 
ATOM     59  CD1 TRP E  67      12.398   8.219  29.315  1.00 20.71 LIG 0.10  A 
ATOM     60  NE1 TRP E  67      13.118   9.231  29.879  1.00 21.73 LIG-0.36  N 
ATOM     61  CE2 TRP E  67      13.381  10.169  28.922  1.00 22.59 LIG 0.04  A 
ATOM     62 HE1  TRP E  67      13.366   9.271  30.701  1.00 21.73 LIG 0.17  HD
ATOM     63  CD2 TRP E  67      12.802   9.715  27.723  1.00 20.57 LIG-0.00  A 
ATOM     64  CZ2 TRP E  67      14.075  11.366  29.002  1.00 23.91 LIG 0.03  A 
ATOM     65  CE3 TRP E  67      12.930  10.493  26.572  1.00 19.56 LIG 0.01  A 
ATOM     66  CZ3 TRP E  67      13.608  11.662  26.648  1.00 20.82 LIG 0.00  A 
ATOM     67  CH2 TRP E  67      14.180  12.100  27.853  1.00 24.07 LIG 0.00  A 
ENDBRANCH 57 58
ENDBRANCH 44 57
ENDBRANCH 42 44
ENDBRANCH 38 40
ENDBRANCH 1 38
TORSDOF 23
ENDMDL
MODEL 20
USER: ADFR SOLUTION from run 58
USER: SCORE 17.330265 LL:  -4.344 LR: -15.002 RR:   0.000 FEB:  -8.141
USER: RMSD 7.279332
USER: SEED 57
USER: STATUS no improvement in best in 11 clusters for 5 generations
USER: GENES 25
USER: genes 0 Translation |==|  0.57242 0.60447 0.36382
USER: genes 1 Rotation |==|  0.33873 0.08850 0.60587 0.70846
USER: genes 2 Torsion [C]-N--CA-[C] |==|  0.63155
USER: genes 3 Torsion [N]-CA--C-[N] |==|  0.45218
USER: genes 4 Torsion [C]-N--CA-[C] |==|  0.72155
USER: genes 5 Torsion [N]-CA--C-[N] |==|  0.08617
USER: genes 6 Torsion [C]-N--CA-[C] |==|  0.84782
USER: genes 7 Torsion [N]-CA--C-[N] |==|  0.85451
USER: genes 8 Torsion [C]-N--CA-[CB] |==|  0.82867
USER: genes 9 Torsion [N]-CA--C-[N] |==|  0.36126
USER: genes 10 Torsion [N]-CA--CB-[OG] |==|  0.80308
USER: genes 11 Torsion [CA]-CB--OG-[HG] |==|  0.92619
USER: genes 12 Torsion [N]-CA--CB-[CG] |==|  0.41348
USER: genes 13 Torsion [CA]-CB--CG-[OD2] |==|  0.20695
USER: genes 14 Torsion [N]-CA--CB-[SG] |==|  0.73907
USER: genes 15 Torsion [CA]-CB--SG-[HG] |==|  0.80483
USER: genes 16 Torsion [N]-CA--CB-[OG1] |==|  0.08027
USER: genes 17 Torsion [CA]-CB--OG1-[HG1] |==|  0.46129
USER: genes 18 Torsion [N]-C--CA-[N] |==|  0.67043
USER: genes 19 Torsion [C]-CA--N-[C] |==|  0.55233
USER: genes 20 Torsion [N]-C--CA-[N] |==|  0.16504
USER: genes 21 Torsion [C]-CA--N-[C] |==|  0.62945
USER: genes 22 Torsion [N]-C--CA-[N] |==|  0.42280
USER: genes 23 Torsion [C]-CA--CB-[CG] |==|  0.53085
USER: genes 24 Torsion [CA]-CB--CG-[CD2] |==|  0.68591
ROOT
ATOM      1  C   ALA E  68       8.634   6.417  25.654  1.00 21.38 LIG 0.24  C 
ATOM      2 O    ALA E  68       8.050   6.363  26.742  1.00 23.30 LIG-0.27  OA
ATOM      3  N   THR E  69       9.177   5.351  25.056  1.00 18.30 LIG-0.34  N 
ATOM      4 H    THR E  69       9.673   5.393  24.355  1.00 18.30 LIG 0.16  HD
ENDROOT
BRANCH 3 5
ATOM      5  CA  THR E  69       8.959   3.999  25.566  1.00 19.45 LIG 0.20  C 
BRANCH 5 6
ATOM      6  C   THR E  69      10.274   3.204  25.662  1.00 19.66 LIG 0.24  C 
ATOM      7  N   CYS E  70      10.265   2.122  26.420  1.00 18.57 LIG-0.34  N 
ATOM      8 H    CYS E  70       9.562   1.809  26.805  1.00 18.57 LIG 0.16  HD
ATOM      9 O    THR E  69      11.275   3.574  25.082  1.00 20.15 LIG-0.27  OA
BRANCH 7 10
ATOM     10  CA  CYS E  70      11.477   1.359  26.664  1.00 18.45 LIG 0.18  C 
BRANCH 10 11
ATOM     11  C   CYS E  70      11.431   0.162  25.733  1.00 19.42 LIG 0.24  C 
ATOM     12  N   ASP E  71      10.798   0.352  24.562  1.00 17.61 LIG-0.34  N 
ATOM     13 H    ASP E  71      10.406   1.088  24.351  1.00 17.61 LIG 0.16  HD
ATOM     14 O    CYS E  70      11.927  -0.908  26.101  1.00 18.07 LIG-0.27  OA
BRANCH 12 15
ATOM     15  CA  ASP E  71      10.712  -0.670  23.538  1.00 16.95 LIG 0.19  C 
BRANCH 15 16
ATOM     16  C   ASP E  71      12.139  -1.054  23.282  1.00 18.90 LIG 0.24  C 
ATOM     17 O    ASP E  71      12.478  -2.262  23.351  1.00 16.52 LIG-0.27  OA
ATOM     18  N   SER E  72      12.978  -0.053  23.012  1.00 19.80 LIG-0.34  N 
ATOM     19 H    SER E  72      12.760   0.779  23.028  1.00 19.80 LIG 0.16  HD
BRANCH 18 20
ATOM     20  CA  SER E  72      14.370  -0.312  22.659  1.00 20.01 LIG 0.20  C 
BRANCH 20 21
ATOM     21  C   SER E  72      14.536  -1.122  21.412  1.00 24.22 LIG 0.29  C 
ATOM     22  N   NH2 E  73      15.418  -0.599  20.489  1.00 28.43 LIG-0.11  N 
ATOM     23 O    SER E  72      13.774  -2.024  21.147  1.00 27.83 LIG-0.27  OA
ENDBRANCH 20 21
BRANCH 20 24
ATOM     24  CB  SER E  72      15.076  -1.006  23.800  1.00 25.59 LIG 0.20  C 
BRANCH 24 25
ATOM     25 OG   SER E  72      15.273  -0.127  24.880  1.00 28.15 LIG-0.40  OA
ATOM     26 HG   SER E  72      15.308   0.663  24.595  1.00 28.15 LIG 0.21  HD
ENDBRANCH 24 25
ENDBRANCH 20 24
ENDBRANCH 18 20
ENDBRANCH 15 16
BRANCH 15 27
ATOM     27  CB  ASP E  71      10.009  -0.136  22.280  1.00 12.80 LIG 0.15  C 
BRANCH 27 28
ATOM     28  CG  ASP E  71      10.523  -0.789  21.026  1.00 14.21 LIG 0.17  C 
ATOM     29 OD2  ASP E  71      10.206  -1.952  20.738  1.00 15.44 LIG-0.65  OA
ATOM     30 OD1  ASP E  71      11.292  -0.135  20.307  1.00 16.80 LIG-0.65  OA
ENDBRANCH 27 28
ENDBRANCH 15 27
ENDBRANCH 12 15
ENDBRANCH 10 11
BRANCH 10 31
ATOM     31  CB  CYS E  70      11.578   0.925  28.152  1.00 19.19 LIG 0.10  C 
BRANCH 31 32
ATOM     32 SG   CYS E  70      12.515   2.010  29.254  1.00 25.14 LIG-0.18  SA
ATOM     33 HG   CYS E  70      13.683   1.941  28.987  1.00 25.14 LIG 0.10  HD
ENDBRANCH 31 32
ENDBRANCH 10 31
ENDBRANCH 7 10
ENDBRANCH 5 6
BRANCH 5 34
ATOM     34  CB  THR E  69       7.906   3.269  24.713  1.00 17.77 LIG 0.15  C 
ATOM     35  CG2 THR E  69       6.543   3.515  25.262  1.00 20.71 LIG 0.04  C 
BRANCH 34 36
ATOM     36 OG1  THR E  69       7.911   3.746  23.381  1.00 16.43 LIG-0.39  OA
ATOM     37 HG1  THR E  69       7.478   3.219  22.892  1.00 16.43 LIG 0.21  HD
ENDBRANCH 34 36
ENDBRANCH 5 34
ENDBRANCH 3 5
BRANCH 1 38
ATOM     38  CA  ALA E  68       8.752   7.756  24.932  1.00 20.08 LIG 0.17  C 
ATOM     39  CB  ALA E  68       9.418   7.576  23.589  1.00 20.16 LIG 0.04  C 
BRANCH 38 40
ATOM     40  N   ALA E  68       9.493   8.698  25.726  1.00 18.16 LIG-0.35  N 
ATOM     41 H    ALA E  68       9.976   8.348  26.345  1.00 18.16 LIG 0.16  HD
ATOM     42  C   TRP E  67       9.409   9.992  25.489  1.00 18.88 LIG 0.24  C 
ATOM     43 O    TRP E  67       8.668  10.506  24.635  1.00 21.47 LIG-0.27  OA
BRANCH 42 44
ATOM     44  CA  TRP E  67      10.214  10.838  26.407  1.00 17.18 LIG 0.18  C 
BRANCH 44 45
ATOM     45  N   TRP E  67      11.681  10.503  26.349  1.00 16.72 LIG-0.35  N 
ATOM     46  C   PRO E  66      12.465  10.330  27.424  1.00 16.87 LIG 0.24  C 
ATOM     47 O    PRO E  66      12.107  10.563  28.576  1.00 18.41 LIG-0.27  OA
ATOM     48 H    TRP E  67      11.978  10.432  25.545  1.00 16.72 LIG 0.16  HD
BRANCH 46 49
ATOM     49  CA  PRO E  66      13.918   9.848  27.190  1.00 17.04 LIG 0.18  C 
ATOM     50  CB  PRO E  66      14.025   8.314  27.209  1.00 18.40 LIG 0.04  C 
ATOM     51  CG  PRO E  66      14.645   7.949  28.526  1.00 18.41 LIG 0.02  C 
ATOM     52  CD  PRO E  66      15.508   9.117  28.912  1.00 21.21 LIG 0.13  C 
ATOM     53  N   PRO E  66      14.903  10.258  28.211  1.00 19.82 LIG-0.34  N 
ATOM     54  C   ACE E  65      15.231  11.585  28.302  1.00 17.72 LIG 0.22  C 
ATOM     55  CH3 ACE E  65      16.258  11.958  29.291  1.00 22.93 LIG 0.12  C 
ATOM     56 O    ACE E  65      14.698  12.454  27.653  1.00 18.13 LIG-0.27  OA
ENDBRANCH 46 49
ENDBRANCH 44 45
BRANCH 44 57
ATOM     57  CB  TRP E  67       9.979  12.347  26.137  1.00 18.36 LIG 0.07  C 
BRANCH 57 58
ATOM     58  CG  TRP E  67      10.908  13.221  26.812  1.00 19.51 LIG-0.03  A 
ATOM     59  CD1 TRP E  67      12.232  13.343  26.572  1.00 20.71 LIG 0.10  A 
ATOM     60  NE1 TRP E  67      12.776  14.277  27.403  1.00 21.73 LIG-0.36  N 
ATOM     61  CE2 TRP E  67      11.791  14.779  28.205  1.00 22.59 LIG 0.04  A 
ATOM     62 HE1  TRP E  67      13.604  14.512  27.420  1.00 21.73 LIG 0.17  HD
ATOM     63  CD2 TRP E  67      10.594  14.130  27.851  1.00 20.57 LIG-0.00  A 
ATOM     64  CZ2 TRP E  67      11.845  15.742  29.200  1.00 23.91 LIG 0.03  A 
ATOM     65  CE3 TRP E  67       9.418  14.465  28.521  1.00 19.56 LIG 0.01  A 
ATOM     66  CZ3 TRP E  67       9.468  15.406  29.493  1.00 20.82 LIG 0.00  A 
ATOM     67  CH2 TRP E  67      10.672  16.045  29.833  1.00 24.07 LIG 0.00  A 
ENDBRANCH 57 58
ENDBRANCH 44 57
ENDBRANCH 42 44
ENDBRANCH 38 40
ENDBRANCH 1 38
TORSDOF 23
ENDMDL
MODEL 21
USER: ADFR SOLUTION from run 157
USER: SCORE 18.959384 LL:  -5.145 LR: -14.935 RR:   0.000 FEB:  -8.074
USER: RMSD 12.789958
USER: SEED 156
USER: STATUS no improvement in best in 3 clusters for 5 generations
USER: GENES 25
USER: genes 0 Translation |==|  0.64815 0.52413 0.36084
USER: genes 1 Rotation |==|  0.96660 0.34429 0.49895 0.58965
USER: genes 2 Torsion [C]-N--CA-[C] |==|  0.73864
USER: genes 3 Torsion [N]-CA--C-[N] |==|  0.45143
USER: genes 4 Torsion [C]-N--CA-[C] |==|  0.70906
USER: genes 5 Torsion [N]-CA--C-[N] |==|  0.40787
USER: genes 6 Torsion [C]-N--CA-[C] |==|  0.72795
USER: genes 7 Torsion [N]-CA--C-[N] |==|  0.91669
USER: genes 8 Torsion [C]-N--CA-[CB] |==|  0.80685
USER: genes 9 Torsion [N]-CA--C-[N] |==|  0.45536
USER: genes 10 Torsion [N]-CA--CB-[OG] |==|  0.77824
USER: genes 11 Torsion [CA]-CB--OG-[HG] |==|  0.79916
USER: genes 12 Torsion [N]-CA--CB-[CG] |==|  0.80554
USER: genes 13 Torsion [CA]-CB--CG-[OD2] |==|  0.13294
USER: genes 14 Torsion [N]-CA--CB-[SG] |==|  0.84468
USER: genes 15 Torsion [CA]-CB--SG-[HG] |==|  0.42426
USER: genes 16 Torsion [N]-CA--CB-[OG1] |==|  0.92718
USER: genes 17 Torsion [CA]-CB--OG1-[HG1] |==|  0.68153
USER: genes 18 Torsion [N]-C--CA-[N] |==|  0.29122
USER: genes 19 Torsion [C]-CA--N-[C] |==|  0.82683
USER: genes 20 Torsion [N]-C--CA-[N] |==|  0.91736
USER: genes 21 Torsion [C]-CA--N-[C] |==|  0.73922
USER: genes 22 Torsion [N]-C--CA-[N] |==|  0.92755
USER: genes 23 Torsion [C]-CA--CB-[CG] |==|  0.85892
USER: genes 24 Torsion [CA]-CB--CG-[CD2] |==|  0.23147
ROOT
ATOM      1  C   ALA E  68      10.168   4.128  25.610  1.00 21.38 LIG 0.24  C 
ATOM      2 O    ALA E  68      11.375   4.374  25.509  1.00 23.30 LIG-0.27  OA
ATOM      3  N   THR E  69       9.212   5.045  25.428  1.00 18.30 LIG-0.34  N 
ATOM      4 H    THR E  69       8.379   4.914  25.596  1.00 18.30 LIG 0.16  HD
ENDROOT
BRANCH 3 5
ATOM      5  CA  THR E  69       9.525   6.378  24.914  1.00 19.45 LIG 0.20  C 
BRANCH 5 6
ATOM      6  C   THR E  69       9.743   7.393  26.052  1.00 19.66 LIG 0.24  C 
ATOM      7  N   CYS E  70      10.368   8.514  25.740  1.00 18.57 LIG-0.34  N 
ATOM      8 H    CYS E  70      10.598   8.732  24.941  1.00 18.57 LIG 0.16  HD
ATOM      9 O    THR E  69       9.376   7.155  27.185  1.00 20.15 LIG-0.27  OA
BRANCH 7 10
ATOM     10  CA  CYS E  70      10.720   9.492  26.756  1.00 18.45 LIG 0.18  C 
BRANCH 10 11
ATOM     11  C   CYS E  70       9.736  10.638  26.614  1.00 19.42 LIG 0.24  C 
ATOM     12  N   ASP E  71       9.398  11.267  27.753  1.00 17.61 LIG-0.34  N 
ATOM     13 H    ASP E  71       9.684  11.028  28.528  1.00 17.61 LIG 0.16  HD
ATOM     14 O    CYS E  70       9.275  10.903  25.499  1.00 18.07 LIG-0.27  OA
BRANCH 12 15
ATOM     15  CA  ASP E  71       8.515  12.417  27.786  1.00 16.95 LIG 0.19  C 
BRANCH 15 16
ATOM     16  C   ASP E  71       9.443  13.592  27.847  1.00 18.90 LIG 0.24  C 
ATOM     17 O    ASP E  71       9.102  14.681  27.321  1.00 16.52 LIG-0.27  OA
ATOM     18  N   SER E  72      10.613  13.387  28.455  1.00 19.80 LIG-0.34  N 
ATOM     19 H    SER E  72      10.874  12.625  28.758  1.00 19.80 LIG 0.16  HD
BRANCH 18 20
ATOM     20  CA  SER E  72      11.559  14.479  28.653  1.00 20.01 LIG 0.20  C 
BRANCH 20 21
ATOM     21  C   SER E  72      10.971  15.671  29.339  1.00 24.22 LIG 0.29  C 
ATOM     22  N   NH2 E  73      11.891  16.565  29.849  1.00 28.43 LIG-0.11  N 
ATOM     23 O    SER E  72       9.796  15.710  29.628  1.00 27.83 LIG-0.27  OA
ENDBRANCH 20 21
BRANCH 20 24
ATOM     24  CB  SER E  72      12.145  14.908  27.329  1.00 25.59 LIG 0.20  C 
BRANCH 24 25
ATOM     25 OG   SER E  72      13.171  14.034  26.925  1.00 28.15 LIG-0.40  OA
ATOM     26 HG   SER E  72      13.849  14.156  27.406  1.00 28.15 LIG 0.21  HD
ENDBRANCH 24 25
ENDBRANCH 20 24
ENDBRANCH 18 20
ENDBRANCH 15 16
BRANCH 15 27
ATOM     27  CB  ASP E  71       7.565  12.350  28.993  1.00 12.80 LIG 0.15  C 
BRANCH 27 28
ATOM     28  CG  ASP E  71       6.539  11.260  28.844  1.00 14.21 LIG 0.17  C 
ATOM     29 OD2  ASP E  71       6.871  10.115  28.503  1.00 15.44 LIG-0.65  OA
ATOM     30 OD1  ASP E  71       5.352  11.552  29.045  1.00 16.80 LIG-0.65  OA
ENDBRANCH 27 28
ENDBRANCH 15 27
ENDBRANCH 12 15
ENDBRANCH 10 11
BRANCH 10 31
ATOM     31  CB  CYS E  70      12.188   9.972  26.590  1.00 19.19 LIG 0.10  C 
BRANCH 31 32
ATOM     32 SG   CYS E  70      13.467   8.693  26.590  1.00 25.14 LIG-0.18  SA
ATOM     33 HG   CYS E  70      14.413   9.071  25.955  1.00 25.14 LIG 0.10  HD
ENDBRANCH 31 32
ENDBRANCH 10 31
ENDBRANCH 7 10
ENDBRANCH 5 6
BRANCH 5 34
ATOM     34  CB  THR E  69       8.434   6.842  23.932  1.00 17.77 LIG 0.15  C 
ATOM     35  CG2 THR E  69       9.043   7.645  22.835  1.00 20.71 LIG 0.04  C 
BRANCH 34 36
ATOM     36 OG1  THR E  69       7.789   5.736  23.329  1.00 16.43 LIG-0.39  OA
ATOM     37 HG1  THR E  69       7.952   5.731  22.505  1.00 16.43 LIG 0.21  HD
ENDBRANCH 34 36
ENDBRANCH 5 34
ENDBRANCH 3 5
BRANCH 1 38
ATOM     38  CA  ALA E  68       9.717   2.711  25.953  1.00 20.08 LIG 0.17  C 
ATOM     39  CB  ALA E  68      10.515   2.170  27.115  1.00 20.16 LIG 0.04  C 
BRANCH 38 40
ATOM     40  N   ALA E  68       9.855   1.845  24.815  1.00 18.16 LIG-0.35  N 
ATOM     41 H    ALA E  68      10.405   1.192  24.921  1.00 18.16 LIG 0.16  HD
ATOM     42  C   TRP E  67       9.170   2.069  23.711  1.00 18.88 LIG 0.24  C 
ATOM     43 O    TRP E  67       8.419   3.042  23.532  1.00 21.47 LIG-0.27  OA
BRANCH 42 44
ATOM     44  CA  TRP E  67       9.437   1.102  22.616  1.00 17.18 LIG 0.18  C 
BRANCH 44 45
ATOM     45  N   TRP E  67      10.839   0.553  22.671  1.00 16.72 LIG-0.35  N 
ATOM     46  C   PRO E  66      11.881   1.058  21.995  1.00 16.87 LIG 0.24  C 
ATOM     47 O    PRO E  66      11.782   1.940  21.144  1.00 18.41 LIG-0.27  OA
ATOM     48 H    TRP E  67      10.912  -0.131  23.187  1.00 16.72 LIG 0.16  HD
BRANCH 46 49
ATOM     49  CA  PRO E  66      13.283   0.465  22.275  1.00 17.04 LIG 0.18  C 
ATOM     50  CB  PRO E  66      13.616  -0.697  21.324  1.00 18.40 LIG 0.04  C 
ATOM     51  CG  PRO E  66      13.470  -1.957  22.128  1.00 18.41 LIG 0.02  C 
ATOM     52  CD  PRO E  66      13.778  -1.575  23.548  1.00 21.21 LIG 0.13  C 
ATOM     53  N   PRO E  66      13.472  -0.139  23.609  1.00 19.82 LIG-0.34  N 
ATOM     54  C   ACE E  65      13.472   0.687  24.702  1.00 17.72 LIG 0.22  C 
ATOM     55  CH3 ACE E  65      13.718   0.065  26.015  1.00 22.93 LIG 0.12  C 
ATOM     56 O    ACE E  65      13.242   1.872  24.648  1.00 18.13 LIG-0.27  OA
ENDBRANCH 46 49
ENDBRANCH 44 45
BRANCH 44 57
ATOM     57  CB  TRP E  67       8.393  -0.046  22.608  1.00 18.36 LIG 0.07  C 
BRANCH 57 58
ATOM     58  CG  TRP E  67       8.209  -0.687  23.887  1.00 19.51 LIG-0.03  A 
ATOM     59  CD1 TRP E  67       8.804  -1.819  24.324  1.00 20.71 LIG 0.10  A 
ATOM     60  NE1 TRP E  67       8.388  -2.110  25.590  1.00 21.73 LIG-0.36  N 
ATOM     61  CE2 TRP E  67       7.504  -1.151  25.993  1.00 22.59 LIG 0.04  A 
ATOM     62 HE1  TRP E  67       8.642  -2.786  26.057  1.00 21.73 LIG 0.17  HD
ATOM     63  CD2 TRP E  67       7.373  -0.233  24.935  1.00 20.57 LIG-0.00  A 
ATOM     64  CZ2 TRP E  67       6.817  -1.007  27.188  1.00 23.91 LIG 0.03  A 
ATOM     65  CE3 TRP E  67       6.524   0.862  25.090  1.00 19.56 LIG 0.01  A 
ATOM     66  CZ3 TRP E  67       5.851   1.005  26.256  1.00 20.82 LIG 0.00  A 
ATOM     67  CH2 TRP E  67       5.995   0.080  27.303  1.00 24.07 LIG 0.00  A 
ENDBRANCH 57 58
ENDBRANCH 44 57
ENDBRANCH 42 44
ENDBRANCH 38 40
ENDBRANCH 1 38
TORSDOF 23
ENDMDL
MODEL 22
USER: ADFR SOLUTION from run 134
USER: SCORE 18.986184 LL:  -4.967 LR: -14.919 RR:   0.000 FEB:  -8.058
USER: RMSD 12.774607
USER: SEED 133
USER: STATUS no improvement in best in 5 clusters for 5 generations
USER: GENES 25
USER: genes 0 Translation |==|  0.63121 0.52120 0.44610
USER: genes 1 Rotation |==|  0.94426 0.35755 0.61551 0.63784
USER: genes 2 Torsion [C]-N--CA-[C] |==|  0.81881
USER: genes 3 Torsion [N]-CA--C-[N] |==|  0.36869
USER: genes 4 Torsion [C]-N--CA-[C] |==|  0.81861
USER: genes 5 Torsion [N]-CA--C-[N] |==|  0.34684
USER: genes 6 Torsion [C]-N--CA-[C] |==|  0.74592
USER: genes 7 Torsion [N]-CA--C-[N] |==|  0.02865
USER: genes 8 Torsion [C]-N--CA-[CB] |==|  0.52989
USER: genes 9 Torsion [N]-CA--C-[N] |==|  0.35179
USER: genes 10 Torsion [N]-CA--CB-[OG] |==|  0.63808
USER: genes 11 Torsion [CA]-CB--OG-[HG] |==|  0.74389
USER: genes 12 Torsion [N]-CA--CB-[CG] |==|  0.71320
USER: genes 13 Torsion [CA]-CB--CG-[OD2] |==|  0.15314
USER: genes 14 Torsion [N]-CA--CB-[SG] |==|  0.69065
USER: genes 15 Torsion [CA]-CB--SG-[HG] |==|  0.50591
USER: genes 16 Torsion [N]-CA--CB-[OG1] |==|  0.86094
USER: genes 17 Torsion [CA]-CB--OG1-[HG1] |==|  0.93654
USER: genes 18 Torsion [N]-C--CA-[N] |==|  0.33400
USER: genes 19 Torsion [C]-CA--N-[C] |==|  0.83996
USER: genes 20 Torsion [N]-C--CA-[N] |==|  0.38175
USER: genes 21 Torsion [C]-CA--N-[C] |==|  0.84503
USER: genes 22 Torsion [N]-C--CA-[N] |==|  0.96198
USER: genes 23 Torsion [C]-CA--CB-[CG] |==|  0.72258
USER: genes 24 Torsion [CA]-CB--CG-[CD2] |==|  0.68512
ROOT
ATOM      1  C   ALA E  68       9.825   4.044  26.889  1.00 21.38 LIG 0.24  C 
ATOM      2 O    ALA E  68      10.973   4.441  27.119  1.00 23.30 LIG-0.27  OA
ATOM      3  N   THR E  69       8.969   4.690  26.089  1.00 18.30 LIG-0.34  N 
ATOM      4 H    THR E  69       8.139   4.481  26.002  1.00 18.30 LIG 0.16  HD
ENDROOT
BRANCH 3 5
ATOM      5  CA  THR E  69       9.397   5.829  25.279  1.00 19.45 LIG 0.20  C 
BRANCH 5 6
ATOM      6  C   THR E  69       9.817   7.027  26.152  1.00 19.66 LIG 0.24  C 
ATOM      7  N   CYS E  70      10.957   7.618  25.846  1.00 18.57 LIG-0.34  N 
ATOM      8 H    CYS E  70      11.437   7.416  25.162  1.00 18.57 LIG 0.16  HD
ATOM      9 O    THR E  69       9.136   7.388  27.091  1.00 20.15 LIG-0.27  OA
BRANCH 7 10
ATOM     10  CA  CYS E  70      11.499   8.687  26.668  1.00 18.45 LIG 0.18  C 
BRANCH 10 11
ATOM     11  C   CYS E  70      10.529   9.849  26.563  1.00 19.42 LIG 0.24  C 
ATOM     12  N   ASP E  71      10.052  10.324  27.727  1.00 17.61 LIG-0.34  N 
ATOM     13 H    ASP E  71      10.246   9.982  28.492  1.00 17.61 LIG 0.16  HD
ATOM     14 O    CYS E  70      10.201  10.262  25.446  1.00 18.07 LIG-0.27  OA
BRANCH 12 15
ATOM     15  CA  ASP E  71       9.161  11.465  27.807  1.00 16.95 LIG 0.19  C 
BRANCH 15 16
ATOM     16  C   ASP E  71      10.080  12.638  27.970  1.00 18.90 LIG 0.24  C 
ATOM     17 O    ASP E  71       9.602  13.767  28.243  1.00 16.52 LIG-0.27  OA
ATOM     18  N   SER E  72      11.379  12.398  27.787  1.00 19.80 LIG-0.34  N 
ATOM     19 H    SER E  72      11.701  11.640  27.537  1.00 19.80 LIG 0.16  HD
BRANCH 18 20
ATOM     20  CA  SER E  72      12.375  13.441  28.007  1.00 20.01 LIG 0.20  C 
BRANCH 20 21
ATOM     21  C   SER E  72      12.019  14.757  27.390  1.00 24.22 LIG 0.29  C 
ATOM     22  N   NH2 E  73      12.046  15.833  28.253  1.00 28.43 LIG-0.11  N 
ATOM     23 O    SER E  72      11.515  14.816  26.292  1.00 27.83 LIG-0.27  OA
ENDBRANCH 20 21
BRANCH 20 24
ATOM     24  CB  SER E  72      13.720  12.996  27.483  1.00 25.59 LIG 0.20  C 
BRANCH 24 25
ATOM     25 OG   SER E  72      14.726  13.190  28.447  1.00 28.15 LIG-0.40  OA
ATOM     26 HG   SER E  72      15.078  13.945  28.337  1.00 28.15 LIG 0.21  HD
ENDBRANCH 24 25
ENDBRANCH 20 24
ENDBRANCH 18 20
ENDBRANCH 15 16
BRANCH 15 27
ATOM     27  CB  ASP E  71       8.176  11.317  28.977  1.00 12.80 LIG 0.15  C 
BRANCH 27 28
ATOM     28  CG  ASP E  71       6.803  10.914  28.512  1.00 14.21 LIG 0.17  C 
ATOM     29 OD2  ASP E  71       6.639   9.900  27.818  1.00 15.44 LIG-0.65  OA
ATOM     30 OD1  ASP E  71       5.851  11.642  28.822  1.00 16.80 LIG-0.65  OA
ENDBRANCH 27 28
ENDBRANCH 15 27
ENDBRANCH 12 15
ENDBRANCH 10 11
BRANCH 10 31
ATOM     31  CB  CYS E  70      12.926   9.087  26.201  1.00 19.19 LIG 0.10  C 
BRANCH 31 32
ATOM     32 SG   CYS E  70      14.290   8.683  27.317  1.00 25.14 LIG-0.18  SA
ATOM     33 HG   CYS E  70      15.321   9.084  26.851  1.00 25.14 LIG 0.10  HD
ENDBRANCH 31 32
ENDBRANCH 10 31
ENDBRANCH 7 10
ENDBRANCH 5 6
BRANCH 5 34
ATOM     34  CB  THR E  69       8.298   6.211  24.271  1.00 17.77 LIG 0.15  C 
ATOM     35  CG2 THR E  69       8.835   7.177  23.272  1.00 20.71 LIG 0.04  C 
BRANCH 34 36
ATOM     36 OG1  THR E  69       7.850   5.076  23.553  1.00 16.43 LIG-0.39  OA
ATOM     37 HG1  THR E  69       8.445   4.483  23.567  1.00 16.43 LIG 0.21  HD
ENDBRANCH 34 36
ENDBRANCH 5 34
ENDBRANCH 3 5
BRANCH 1 38
ATOM     38  CA  ALA E  68       9.336   2.750  27.532  1.00 20.08 LIG 0.17  C 
ATOM     39  CB  ALA E  68       9.318   2.882  29.036  1.00 20.16 LIG 0.04  C 
BRANCH 38 40
ATOM     40  N   ALA E  68      10.167   1.644  27.145  1.00 18.16 LIG-0.35  N 
ATOM     41 H    ALA E  68      10.532   1.219  27.798  1.00 18.16 LIG 0.16  HD
ATOM     42  C   TRP E  67      10.332   1.339  25.873  1.00 18.88 LIG 0.24  C 
ATOM     43 O    TRP E  67       9.855   1.984  24.925  1.00 21.47 LIG-0.27  OA
BRANCH 42 44
ATOM     44  CA  TRP E  67      11.238   0.186  25.631  1.00 17.18 LIG 0.18  C 
BRANCH 44 45
ATOM     45  N   TRP E  67      10.705  -0.743  24.572  1.00 16.72 LIG-0.35  N 
ATOM     46  C   PRO E  66       9.498  -1.328  24.610  1.00 16.87 LIG 0.24  C 
ATOM     47 O    PRO E  66       8.747  -1.284  25.583  1.00 18.41 LIG-0.27  OA
ATOM     48 H    TRP E  67      11.257  -0.868  23.925  1.00 16.72 LIG 0.16  HD
BRANCH 46 49
ATOM     49  CA  PRO E  66       9.047  -2.141  23.372  1.00 17.04 LIG 0.18  C 
ATOM     50  CB  PRO E  66       9.156  -3.657  23.609  1.00 18.40 LIG 0.04  C 
ATOM     51  CG  PRO E  66      10.366  -4.117  22.849  1.00 18.41 LIG 0.02  C 
ATOM     52  CD  PRO E  66      10.508  -3.171  21.690  1.00 21.21 LIG 0.13  C 
ATOM     53  N   PRO E  66       9.845  -1.942  22.146  1.00 19.82 LIG-0.34  N 
ATOM     54  C   ACE E  65       9.780  -0.725  21.519  1.00 17.72 LIG 0.22  C 
ATOM     55  CH3 ACE E  65      10.543  -0.572  20.268  1.00 22.93 LIG 0.12  C 
ATOM     56 O    ACE E  65       9.175   0.224  21.958  1.00 18.13 LIG-0.27  OA
ENDBRANCH 46 49
ENDBRANCH 44 45
BRANCH 44 57
ATOM     57  CB  TRP E  67      12.673   0.659  25.280  1.00 18.36 LIG 0.07  C 
BRANCH 57 58
ATOM     58  CG  TRP E  67      12.974   0.643  23.869  1.00 19.51 LIG-0.03  A 
ATOM     59  CD1 TRP E  67      12.433   1.430  22.912  1.00 20.71 LIG 0.10  A 
ATOM     60  NE1 TRP E  67      12.974   1.130  21.697  1.00 21.73 LIG-0.36  N 
ATOM     61  CE2 TRP E  67      13.887   0.128  21.857  1.00 22.59 LIG 0.04  A 
ATOM     62 HE1  TRP E  67      12.773   1.511  20.952  1.00 21.73 LIG 0.17  HD
ATOM     63  CD2 TRP E  67      13.911  -0.200  23.225  1.00 20.57 LIG-0.00  A 
ATOM     64  CZ2 TRP E  67      14.692  -0.512  20.929  1.00 23.91 LIG 0.03  A 
ATOM     65  CE3 TRP E  67      14.774  -1.202  23.667  1.00 19.56 LIG 0.01  A 
ATOM     66  CZ3 TRP E  67      15.562  -1.828  22.762  1.00 20.82 LIG 0.00  A 
ATOM     67  CH2 TRP E  67      15.526  -1.488  21.399  1.00 24.07 LIG 0.00  A 
ENDBRANCH 57 58
ENDBRANCH 44 57
ENDBRANCH 42 44
ENDBRANCH 38 40
ENDBRANCH 1 38
TORSDOF 23
ENDMDL
MODEL 23
USER: ADFR SOLUTION from run 49
USER: SCORE 18.184900 LL:  -5.985 LR: -14.918 RR:   0.000 FEB:  -8.057
USER: RMSD 5.870506
USER: SEED 48
USER: STATUS 1 or 2 clusters left
USER: GENES 25
USER: genes 0 Translation |==|  0.66254 0.55955 0.40132
USER: genes 1 Rotation |==|  0.52285 0.50475 0.73566 0.94036
USER: genes 2 Torsion [C]-N--CA-[C] |==|  0.75189
USER: genes 3 Torsion [N]-CA--C-[N] |==|  0.43070
USER: genes 4 Torsion [C]-N--CA-[C] |==|  0.85061
USER: genes 5 Torsion [N]-CA--C-[N] |==|  0.88559
USER: genes 6 Torsion [C]-N--CA-[C] |==|  0.67778
USER: genes 7 Torsion [N]-CA--C-[N] |==|  0.16801
USER: genes 8 Torsion [C]-N--CA-[CB] |==|  0.11144
USER: genes 9 Torsion [N]-CA--C-[N] |==|  0.56127
USER: genes 10 Torsion [N]-CA--CB-[OG] |==|  0.72293
USER: genes 11 Torsion [CA]-CB--OG-[HG] |==|  0.37475
USER: genes 12 Torsion [N]-CA--CB-[CG] |==|  0.77099
USER: genes 13 Torsion [CA]-CB--CG-[OD2] |==|  0.26811
USER: genes 14 Torsion [N]-CA--CB-[SG] |==|  0.33034
USER: genes 15 Torsion [CA]-CB--SG-[HG] |==|  0.63722
USER: genes 16 Torsion [N]-CA--CB-[OG1] |==|  0.89982
USER: genes 17 Torsion [CA]-CB--OG1-[HG1] |==|  0.81589
USER: genes 18 Torsion [N]-C--CA-[N] |==|  0.55833
USER: genes 19 Torsion [C]-CA--N-[C] |==|  0.75096
USER: genes 20 Torsion [N]-C--CA-[N] |==|  0.24345
USER: genes 21 Torsion [C]-CA--N-[C] |==|  0.78220
USER: genes 22 Torsion [N]-C--CA-[N] |==|  0.89863
USER: genes 23 Torsion [C]-CA--CB-[CG] |==|  0.62309
USER: genes 24 Torsion [CA]-CB--CG-[CD2] |==|  0.20633
ROOT
ATOM      1  C   ALA E  68      10.460   5.137  26.217  1.00 21.38 LIG 0.24  C 
ATOM      2 O    ALA E  68      11.667   5.321  26.030  1.00 23.30 LIG-0.27  OA
ATOM      3  N   THR E  69       9.878   3.935  26.140  1.00 18.30 LIG-0.34  N 
ATOM      4 H    THR E  69       9.027   3.809  26.165  1.00 18.30 LIG 0.16  HD
ENDROOT
BRANCH 3 5
ATOM      5  CA  THR E  69      10.669   2.714  26.005  1.00 19.45 LIG 0.20  C 
BRANCH 5 6
ATOM      6  C   THR E  69      10.934   2.364  24.529  1.00 19.66 LIG 0.24  C 
ATOM      7  N   CYS E  70      12.003   1.633  24.270  1.00 18.57 LIG-0.34  N 
ATOM      8 H    CYS E  70      12.515   1.296  24.875  1.00 18.57 LIG 0.16  HD
ATOM      9 O    THR E  69      10.201   2.765  23.647  1.00 20.15 LIG-0.27  OA
BRANCH 7 10
ATOM     10  CA  CYS E  70      12.405   1.336  22.906  1.00 18.45 LIG 0.18  C 
BRANCH 10 11
ATOM     11  C   CYS E  70      11.196   0.726  22.222  1.00 19.42 LIG 0.24  C 
ATOM     12  N   ASP E  71      10.485  -0.150  22.953  1.00 17.61 LIG-0.34  N 
ATOM     13 H    ASP E  71      10.706  -0.390  23.749  1.00 17.61 LIG 0.16  HD
ATOM     14 O    CYS E  70      10.953   1.024  21.047  1.00 18.07 LIG-0.27  OA
BRANCH 12 15
ATOM     15  CA  ASP E  71       9.272  -0.779  22.470  1.00 16.95 LIG 0.19  C 
BRANCH 15 16
ATOM     16  C   ASP E  71       8.203  -0.271  23.390  1.00 18.90 LIG 0.24  C 
ATOM     17 O    ASP E  71       7.529  -1.086  24.068  1.00 16.52 LIG-0.27  OA
ATOM     18  N   SER E  72       8.022   1.051  23.408  1.00 19.80 LIG-0.34  N 
ATOM     19 H    SER E  72       8.438   1.603  22.897  1.00 19.80 LIG 0.16  HD
BRANCH 18 20
ATOM     20  CA  SER E  72       7.072   1.667  24.328  1.00 20.01 LIG 0.20  C 
BRANCH 20 21
ATOM     21  C   SER E  72       7.272   3.140  24.505  1.00 24.22 LIG 0.29  C 
ATOM     22  N   NH2 E  73       6.750   3.664  25.669  1.00 28.43 LIG-0.11  N 
ATOM     23 O    SER E  72       7.641   3.835  23.586  1.00 27.83 LIG-0.27  OA
ENDBRANCH 20 21
BRANCH 20 24
ATOM     24  CB  SER E  72       7.141   0.992  25.677  1.00 25.59 LIG 0.20  C 
BRANCH 24 25
ATOM     25 OG   SER E  72       6.096   0.062  25.829  1.00 28.15 LIG-0.40  OA
ATOM     26 HG   SER E  72       6.400  -0.651  26.154  1.00 28.15 LIG 0.21  HD
ENDBRANCH 24 25
ENDBRANCH 20 24
ENDBRANCH 18 20
ENDBRANCH 15 16
BRANCH 15 27
ATOM     27  CB  ASP E  71       9.395  -2.310  22.495  1.00 12.80 LIG 0.15  C 
BRANCH 27 28
ATOM     28  CG  ASP E  71      10.114  -2.839  21.283  1.00 14.21 LIG 0.17  C 
ATOM     29 OD2  ASP E  71      11.327  -3.092  21.322  1.00 15.44 LIG-0.65  OA
ATOM     30 OD1  ASP E  71       9.460  -2.985  20.241  1.00 16.80 LIG-0.65  OA
ENDBRANCH 27 28
ENDBRANCH 15 27
ENDBRANCH 12 15
ENDBRANCH 10 11
BRANCH 10 31
ATOM     31  CB  CYS E  70      13.626   0.376  22.876  1.00 19.19 LIG 0.10  C 
BRANCH 31 32
ATOM     32 SG   CYS E  70      13.385  -1.222  22.065  1.00 25.14 LIG-0.18  SA
ATOM     33 HG   CYS E  70      13.779  -2.100  22.783  1.00 25.14 LIG 0.10  HD
ENDBRANCH 31 32
ENDBRANCH 10 31
ENDBRANCH 7 10
ENDBRANCH 5 6
BRANCH 5 34
ATOM     34  CB  THR E  69       9.995   1.553  26.759  1.00 17.77 LIG 0.15  C 
ATOM     35  CG2 THR E  69      11.013   0.540  27.152  1.00 20.71 LIG 0.04  C 
BRANCH 34 36
ATOM     36 OG1  THR E  69       9.379   2.010  27.949  1.00 16.43 LIG-0.39  OA
ATOM     37 HG1  THR E  69       9.969   2.276  28.485  1.00 16.43 LIG 0.21  HD
ENDBRANCH 34 36
ENDBRANCH 5 34
ENDBRANCH 3 5
BRANCH 1 38
ATOM     38  CA  ALA E  68       9.564   6.324  26.560  1.00 20.08 LIG 0.17  C 
ATOM     39  CB  ALA E  68       8.210   6.169  25.911  1.00 20.16 LIG 0.04  C 
BRANCH 38 40
ATOM     40  N   ALA E  68      10.173   7.556  26.141  1.00 18.16 LIG-0.35  N 
ATOM     41 H    ALA E  68       9.972   7.806  25.343  1.00 18.16 LIG 0.16  HD
ATOM     42  C   TRP E  67      10.972   8.223  26.951  1.00 18.88 LIG 0.24  C 
ATOM     43 O    TRP E  67      11.310   7.837  28.082  1.00 21.47 LIG-0.27  OA
BRANCH 42 44
ATOM     44  CA  TRP E  67      11.541   9.464  26.368  1.00 17.18 LIG 0.18  C 
BRANCH 44 45
ATOM     45  N   TRP E  67      10.642  10.654  26.574  1.00 16.72 LIG-0.35  N 
ATOM     46  C   PRO E  66       9.544  10.914  25.847  1.00 16.87 LIG 0.24  C 
ATOM     47 O    PRO E  66       9.228  10.286  24.838  1.00 18.41 LIG-0.27  OA
ATOM     48 H    TRP E  67      10.901  11.165  27.215  1.00 16.72 LIG 0.16  HD
BRANCH 46 49
ATOM     49  CA  PRO E  66       8.650  12.101  26.281  1.00 17.04 LIG 0.18  C 
ATOM     50  CB  PRO E  66       9.206  13.448  25.792  1.00 18.40 LIG 0.04  C 
ATOM     51  CG  PRO E  66       9.815  14.115  26.991  1.00 18.41 LIG 0.02  C 
ATOM     52  CD  PRO E  66       9.046  13.608  28.178  1.00 21.21 LIG 0.13  C 
ATOM     53  N   PRO E  66       8.521  12.309  27.738  1.00 19.82 LIG-0.34  N 
ATOM     54  C   ACE E  65       7.839  11.372  28.470  1.00 17.72 LIG 0.22  C 
ATOM     55  CH3 ACE E  65       7.677  11.633  29.911  1.00 22.93 LIG 0.12  C 
ATOM     56 O    ACE E  65       7.411  10.341  28.008  1.00 18.13 LIG-0.27  OA
ENDBRANCH 46 49
ENDBRANCH 44 45
BRANCH 44 57
ATOM     57  CB  TRP E  67      12.965   9.745  26.916  1.00 18.36 LIG 0.07  C 
BRANCH 57 58
ATOM     58  CG  TRP E  67      13.196  11.121  27.287  1.00 19.51 LIG-0.03  A 
ATOM     59  CD1 TRP E  67      13.919  12.037  26.605  1.00 20.71 LIG 0.10  A 
ATOM     60  NE1 TRP E  67      13.901  13.232  27.261  1.00 21.73 LIG-0.36  N 
ATOM     61  CE2 TRP E  67      13.152  13.099  28.396  1.00 22.59 LIG 0.04  A 
ATOM     62 HE1  TRP E  67      14.296  13.951  27.003  1.00 21.73 LIG 0.17  HD
ATOM     63  CD2 TRP E  67      12.689  11.771  28.437  1.00 20.57 LIG-0.00  A 
ATOM     64  CZ2 TRP E  67      12.840  14.023  29.380  1.00 23.91 LIG 0.03  A 
ATOM     65  CE3 TRP E  67      11.886  11.367  29.503  1.00 19.56 LIG 0.01  A 
ATOM     66  CZ3 TRP E  67      11.579  12.268  30.465  1.00 20.82 LIG 0.00  A 
ATOM     67  CH2 TRP E  67      12.049  13.590  30.408  1.00 24.07 LIG 0.00  A 
ENDBRANCH 57 58
ENDBRANCH 44 57
ENDBRANCH 42 44
ENDBRANCH 38 40
ENDBRANCH 1 38
TORSDOF 23
ENDMDL
MODEL 24
USER: ADFR SOLUTION from run 140
USER: SCORE 16.919931 LL:  -4.839 LR: -14.865 RR:   0.000 FEB:  -8.004
USER: RMSD 6.611854
USER: SEED 139
USER: STATUS no improvement in best in 2 clusters for 5 generations
USER: GENES 25
USER: genes 0 Translation |==|  0.60041 0.51195 0.29955
USER: genes 1 Rotation |==|  0.71611 0.88089 0.71868 0.60201
USER: genes 2 Torsion [C]-N--CA-[C] |==|  0.70842
USER: genes 3 Torsion [N]-CA--C-[N] |==|  0.92441
USER: genes 4 Torsion [C]-N--CA-[C] |==|  0.19152
USER: genes 5 Torsion [N]-CA--C-[N] |==|  0.01861
USER: genes 6 Torsion [C]-N--CA-[C] |==|  0.51138
USER: genes 7 Torsion [N]-CA--C-[N] |==|  0.29201
USER: genes 8 Torsion [C]-N--CA-[CB] |==|  0.81667
USER: genes 9 Torsion [N]-CA--C-[N] |==|  0.17111
USER: genes 10 Torsion [N]-CA--CB-[OG] |==|  0.51415
USER: genes 11 Torsion [CA]-CB--OG-[HG] |==|  0.12006
USER: genes 12 Torsion [N]-CA--CB-[CG] |==|  0.49785
USER: genes 13 Torsion [CA]-CB--CG-[OD2] |==|  0.96759
USER: genes 14 Torsion [N]-CA--CB-[SG] |==|  0.83314
USER: genes 15 Torsion [CA]-CB--SG-[HG] |==|  0.38760
USER: genes 16 Torsion [N]-CA--CB-[OG1] |==|  0.93319
USER: genes 17 Torsion [CA]-CB--OG1-[HG1] |==|  0.33721
USER: genes 18 Torsion [N]-C--CA-[N] |==|  0.49427
USER: genes 19 Torsion [C]-CA--N-[C] |==|  0.59988
USER: genes 20 Torsion [N]-C--CA-[N] |==|  0.34102
USER: genes 21 Torsion [C]-CA--N-[C] |==|  0.60106
USER: genes 22 Torsion [N]-C--CA-[N] |==|  0.57119
USER: genes 23 Torsion [C]-CA--CB-[CG] |==|  0.65880
USER: genes 24 Torsion [CA]-CB--CG-[CD2] |==|  0.20831
ROOT
ATOM      1  C   ALA E  68       9.201   3.781  24.690  1.00 21.38 LIG 0.24  C 
ATOM      2 O    ALA E  68       8.229   4.180  24.040  1.00 23.30 LIG-0.27  OA
ATOM      3  N   THR E  69       9.813   2.615  24.457  1.00 18.30 LIG-0.34  N 
ATOM      4 H    THR E  69      10.421   2.279  24.965  1.00 18.30 LIG 0.16  HD
ENDROOT
BRANCH 3 5
ATOM      5  CA  THR E  69       9.484   1.803  23.287  1.00 19.45 LIG 0.20  C 
BRANCH 5 6
ATOM      6  C   THR E  69       8.631   0.576  23.663  1.00 19.66 LIG 0.24  C 
ATOM      7  N   CYS E  70       8.770   0.103  24.888  1.00 18.57 LIG-0.34  N 
ATOM      8 H    CYS E  70       9.255   0.473  25.495  1.00 18.57 LIG 0.16  HD
ATOM      9 O    THR E  69       7.885   0.060  22.855  1.00 20.15 LIG-0.27  OA
BRANCH 7 10
ATOM     10  CA  CYS E  70       8.095  -1.111  25.312  1.00 18.45 LIG 0.18  C 
BRANCH 10 11
ATOM     11  C   CYS E  70       8.748  -2.255  24.558  1.00 19.42 LIG 0.24  C 
ATOM     12  N   ASP E  71       9.831  -1.936  23.828  1.00 17.61 LIG-0.34  N 
ATOM     13 H    ASP E  71      10.130  -1.133  23.752  1.00 17.61 LIG 0.16  HD
ATOM     14 O    CYS E  70       8.245  -3.382  24.618  1.00 18.07 LIG-0.27  OA
BRANCH 12 15
ATOM     15  CA  ASP E  71      10.604  -2.919  23.095  1.00 16.95 LIG 0.19  C 
BRANCH 15 16
ATOM     16  C   ASP E  71      11.751  -2.137  22.529  1.00 18.90 LIG 0.24  C 
ATOM     17 O    ASP E  71      11.563  -1.390  21.536  1.00 16.52 LIG-0.27  OA
ATOM     18  N   SER E  72      12.932  -2.311  23.124  1.00 19.80 LIG-0.34  N 
ATOM     19 H    SER E  72      13.075  -2.870  23.761  1.00 19.80 LIG 0.16  HD
BRANCH 18 20
ATOM     20  CA  SER E  72      14.100  -1.537  22.718  1.00 20.01 LIG 0.20  C 
BRANCH 20 21
ATOM     21  C   SER E  72      13.905  -0.056  22.806  1.00 24.22 LIG 0.29  C 
ATOM     22  N   NH2 E  73      13.643   0.423  24.073  1.00 28.43 LIG-0.11  N 
ATOM     23 O    SER E  72      13.750   0.614  21.811  1.00 27.83 LIG-0.27  OA
ENDBRANCH 20 21
BRANCH 20 24
ATOM     24  CB  SER E  72      14.502  -1.901  21.308  1.00 25.59 LIG 0.20  C 
BRANCH 24 25
ATOM     25 OG   SER E  72      15.694  -1.251  20.940  1.00 28.15 LIG-0.40  OA
ATOM     26 HG   SER E  72      16.242  -1.289  21.576  1.00 28.15 LIG 0.21  HD
ENDBRANCH 24 25
ENDBRANCH 20 24
ENDBRANCH 18 20
ENDBRANCH 15 16
BRANCH 15 27
ATOM     27  CB  ASP E  71       9.753  -3.593  22.007  1.00 12.80 LIG 0.15  C 
BRANCH 27 28
ATOM     28  CG  ASP E  71      10.541  -4.605  21.220  1.00 14.21 LIG 0.17  C 
ATOM     29 OD2  ASP E  71      11.774  -4.670  21.322  1.00 15.44 LIG-0.65  OA
ATOM     30 OD1  ASP E  71       9.919  -5.348  20.448  1.00 16.80 LIG-0.65  OA
ENDBRANCH 27 28
ENDBRANCH 15 27
ENDBRANCH 12 15
ENDBRANCH 10 11
BRANCH 10 31
ATOM     31  CB  CYS E  70       6.569  -1.034  25.028  1.00 19.19 LIG 0.10  C 
BRANCH 31 32
ATOM     32 SG   CYS E  70       5.658   0.301  25.838  1.00 25.14 LIG-0.18  SA
ATOM     33 HG   CYS E  70       4.857   0.762  25.072  1.00 25.14 LIG 0.10  HD
ENDBRANCH 31 32
ENDBRANCH 10 31
ENDBRANCH 7 10
ENDBRANCH 5 6
BRANCH 5 34
ATOM     34  CB  THR E  69      10.766   1.402  22.535  1.00 17.77 LIG 0.15  C 
ATOM     35  CG2 THR E  69      10.524   1.425  21.065  1.00 20.71 LIG 0.04  C 
BRANCH 34 36
ATOM     36 OG1  THR E  69      11.816   2.315  22.799  1.00 16.43 LIG-0.39  OA
ATOM     37 HG1  THR E  69      12.467   1.904  23.133  1.00 16.43 LIG 0.21  HD
ENDBRANCH 34 36
ENDBRANCH 5 34
ENDBRANCH 3 5
BRANCH 1 38
ATOM     38  CA  ALA E  68       9.756   4.645  25.819  1.00 20.08 LIG 0.17  C 
ATOM     39  CB  ALA E  68       9.694   3.903  27.132  1.00 20.16 LIG 0.04  C 
BRANCH 38 40
ATOM     40  N   ALA E  68       9.029   5.880  25.916  1.00 18.16 LIG-0.35  N 
ATOM     41 H    ALA E  68       8.187   5.818  25.751  1.00 18.16 LIG 0.16  HD
ATOM     42  C   TRP E  67       9.644   7.001  26.237  1.00 18.88 LIG 0.24  C 
ATOM     43 O    TRP E  67      10.868   7.106  26.419  1.00 21.47 LIG-0.27  OA
BRANCH 42 44
ATOM     44  CA  TRP E  67       8.763   8.196  26.275  1.00 17.18 LIG 0.18  C 
BRANCH 44 45
ATOM     45  N   TRP E  67       8.792   8.882  27.616  1.00 16.72 LIG-0.35  N 
ATOM     46  C   PRO E  66       7.730   9.462  28.197  1.00 16.87 LIG 0.24  C 
ATOM     47 O    PRO E  66       6.648   9.624  27.637  1.00 18.41 LIG-0.27  OA
ATOM     48 H    TRP E  67       9.568   8.868  27.985  1.00 16.72 LIG 0.16  HD
BRANCH 46 49
ATOM     49  CA  PRO E  66       7.896   9.995  29.641  1.00 17.04 LIG 0.18  C 
ATOM     50  CB  PRO E  66       8.797   9.084  30.490  1.00 18.40 LIG 0.04  C 
ATOM     51  CG  PRO E  66       7.884   8.324  31.408  1.00 18.41 LIG 0.02  C 
ATOM     52  CD  PRO E  66       6.694   9.214  31.633  1.00 21.21 LIG 0.13  C 
ATOM     53  N   PRO E  66       6.659  10.075  30.443  1.00 19.82 LIG-0.34  N 
ATOM     54  C   ACE E  65       5.709  10.995  30.085  1.00 17.72 LIG 0.22  C 
ATOM     55  CH3 ACE E  65       4.510  11.090  30.936  1.00 22.93 LIG 0.12  C 
ATOM     56 O    ACE E  65       5.786  11.689  29.098  1.00 18.13 LIG-0.27  OA
ENDBRANCH 46 49
ENDBRANCH 44 45
BRANCH 44 57
ATOM     57  CB  TRP E  67       9.111   9.192  25.137  1.00 18.36 LIG 0.07  C 
BRANCH 57 58
ATOM     58  CG  TRP E  67       9.447  10.519  25.594  1.00 19.51 LIG-0.03  A 
ATOM     59  CD1 TRP E  67       8.668  11.622  25.535  1.00 20.71 LIG 0.10  A 
ATOM     60  NE1 TRP E  67       9.323  12.689  26.074  1.00 21.73 LIG-0.36  N 
ATOM     61  CE2 TRP E  67      10.556  12.281  26.496  1.00 22.59 LIG 0.04  A 
ATOM     62 HE1  TRP E  67       9.011  13.488  26.138  1.00 21.73 LIG 0.17  HD
ATOM     63  CD2 TRP E  67      10.662  10.908  26.207  1.00 20.57 LIG-0.00  A 
ATOM     64  CZ2 TRP E  67      11.579  12.990  27.105  1.00 23.91 LIG 0.03  A 
ATOM     65  CE3 TRP E  67      11.834  10.233  26.546  1.00 19.56 LIG 0.01  A 
ATOM     66  CZ3 TRP E  67      12.834  10.923  27.142  1.00 20.82 LIG 0.00  A 
ATOM     67  CH2 TRP E  67      12.712  12.294  27.424  1.00 24.07 LIG 0.00  A 
ENDBRANCH 57 58
ENDBRANCH 44 57
ENDBRANCH 42 44
ENDBRANCH 38 40
ENDBRANCH 1 38
TORSDOF 23
ENDMDL
MODEL 25
USER: ADFR SOLUTION from run 167
USER: SCORE 19.377168 LL:  -5.787 LR: -14.873 RR:   0.000 FEB:  -8.012
USER: RMSD 13.078520
USER: SEED 166
USER: STATUS searching
USER: GENES 25
USER: genes 0 Translation |==|  0.66124 0.53410 0.37350
USER: genes 1 Rotation |==|  0.95591 0.30665 0.50503 0.56882
USER: genes 2 Torsion [C]-N--CA-[C] |==|  0.77106
USER: genes 3 Torsion [N]-CA--C-[N] |==|  0.32341
USER: genes 4 Torsion [C]-N--CA-[C] |==|  0.75601
USER: genes 5 Torsion [N]-CA--C-[N] |==|  0.43519
USER: genes 6 Torsion [C]-N--CA-[C] |==|  0.14880
USER: genes 7 Torsion [N]-CA--C-[N] |==|  0.11789
USER: genes 8 Torsion [C]-N--CA-[CB] |==|  0.55089
USER: genes 9 Torsion [N]-CA--C-[N] |==|  0.32493
USER: genes 10 Torsion [N]-CA--CB-[OG] |==|  0.75748
USER: genes 11 Torsion [CA]-CB--OG-[HG] |==|  0.14556
USER: genes 12 Torsion [N]-CA--CB-[CG] |==|  0.83425
USER: genes 13 Torsion [CA]-CB--CG-[OD2] |==|  0.64008
USER: genes 14 Torsion [N]-CA--CB-[SG] |==|  0.69892
USER: genes 15 Torsion [CA]-CB--SG-[HG] |==|  0.41772
USER: genes 16 Torsion [N]-CA--CB-[OG1] |==|  0.71744
USER: genes 17 Torsion [CA]-CB--OG1-[HG1] |==|  0.89563
USER: genes 18 Torsion [N]-C--CA-[N] |==|  0.30815
USER: genes 19 Torsion [C]-CA--N-[C] |==|  0.78061
USER: genes 20 Torsion [N]-C--CA-[N] |==|  0.92907
USER: genes 21 Torsion [C]-CA--N-[C] |==|  0.69668
USER: genes 22 Torsion [N]-C--CA-[N] |==|  0.98662
USER: genes 23 Torsion [C]-CA--CB-[CG] |==|  0.58786
USER: genes 24 Torsion [CA]-CB--CG-[CD2] |==|  0.25497
ROOT
ATOM      1  C   ALA E  68      10.433   4.412  25.800  1.00 21.38 LIG 0.24  C 
ATOM      2 O    ALA E  68      11.667   4.477  25.801  1.00 23.30 LIG-0.27  OA
ATOM      3  N   THR E  69       9.640   5.472  25.613  1.00 18.30 LIG-0.34  N 
ATOM      4 H    THR E  69       8.785   5.459  25.712  1.00 18.30 LIG 0.16  HD
ENDROOT
BRANCH 3 5
ATOM      5  CA  THR E  69      10.184   6.769  25.214  1.00 19.45 LIG 0.20  C 
BRANCH 5 6
ATOM      6  C   THR E  69      10.725   7.559  26.421  1.00 19.66 LIG 0.24  C 
ATOM      7  N   CYS E  70      12.020   7.818  26.434  1.00 18.57 LIG-0.34  N 
ATOM      8 H    CYS E  70      12.556   7.629  25.789  1.00 18.57 LIG 0.16  HD
ATOM      9 O    THR E  69       9.991   7.903  27.325  1.00 20.15 LIG-0.27  OA
BRANCH 7 10
ATOM     10  CA  CYS E  70      12.651   8.463  27.573  1.00 18.45 LIG 0.18  C 
BRANCH 10 11
ATOM     11  C   CYS E  70      12.536   9.958  27.344  1.00 19.42 LIG 0.24  C 
ATOM     12  N   ASP E  71      12.600  10.729  28.444  1.00 17.61 LIG-0.34  N 
ATOM     13 H    ASP E  71      12.666  10.411  29.240  1.00 17.61 LIG 0.16  HD
ATOM     14 O    CYS E  70      12.353  10.380  26.197  1.00 18.07 LIG-0.27  OA
BRANCH 12 15
ATOM     15  CA  ASP E  71      12.562  12.177  28.395  1.00 16.95 LIG 0.19  C 
BRANCH 15 16
ATOM     16  C   ASP E  71      11.324  12.487  27.609  1.00 18.90 LIG 0.24  C 
ATOM     17 O    ASP E  71      11.346  13.406  26.753  1.00 16.52 LIG-0.27  OA
ATOM     18  N   SER E  72      10.246  11.756  27.897  1.00 19.80 LIG-0.34  N 
ATOM     19 H    SER E  72      10.213  11.171  28.527  1.00 19.80 LIG 0.16  HD
BRANCH 18 20
ATOM     20  CA  SER E  72       9.010  11.906  27.138  1.00 20.01 LIG 0.20  C 
BRANCH 20 21
ATOM     21  C   SER E  72       8.698  13.321  26.764  1.00 24.22 LIG 0.29  C 
ATOM     22  N   NH2 E  73       8.672  13.574  25.408  1.00 28.43 LIG-0.11  N 
ATOM     23 O    SER E  72       8.713  14.203  27.592  1.00 27.83 LIG-0.27  OA
ENDBRANCH 20 21
BRANCH 20 24
ATOM     24  CB  SER E  72       7.849  11.330  27.913  1.00 25.59 LIG 0.20  C 
BRANCH 24 25
ATOM     25 OG   SER E  72       7.703   9.955  27.655  1.00 28.15 LIG-0.40  OA
ATOM     26 HG   SER E  72       8.438   9.566  27.783  1.00 28.15 LIG 0.21  HD
ENDBRANCH 24 25
ENDBRANCH 20 24
ENDBRANCH 18 20
ENDBRANCH 15 16
BRANCH 15 27
ATOM     27  CB  ASP E  71      13.834  12.741  27.741  1.00 12.80 LIG 0.15  C 
BRANCH 27 28
ATOM     28  CG  ASP E  71      15.077  12.343  28.491  1.00 14.21 LIG 0.17  C 
ATOM     29 OD2  ASP E  71      15.919  13.191  28.821  1.00 15.44 LIG-0.65  OA
ATOM     30 OD1  ASP E  71      15.243  11.141  28.740  1.00 16.80 LIG-0.65  OA
ENDBRANCH 27 28
ENDBRANCH 15 27
ENDBRANCH 12 15
ENDBRANCH 10 11
BRANCH 10 31
ATOM     31  CB  CYS E  70      14.132   8.017  27.722  1.00 19.19 LIG 0.10  C 
BRANCH 31 32
ATOM     32 SG   CYS E  70      14.516   6.923  29.109  1.00 25.14 LIG-0.18  SA
ATOM     33 HG   CYS E  70      15.445   6.219  28.819  1.00 25.14 LIG 0.10  HD
ENDBRANCH 31 32
ENDBRANCH 10 31
ENDBRANCH 7 10
ENDBRANCH 5 6
BRANCH 5 34
ATOM     34  CB  THR E  69       9.133   7.572  24.427  1.00 17.77 LIG 0.15  C 
ATOM     35  CG2 THR E  69       9.180   9.006  24.827  1.00 20.71 LIG 0.04  C 
BRANCH 34 36
ATOM     36 OG1  THR E  69       9.391   7.519  23.035  1.00 16.43 LIG-0.39  OA
ATOM     37 HG1  THR E  69      10.220   7.544  22.903  1.00 16.43 LIG 0.21  HD
ENDBRANCH 34 36
ENDBRANCH 5 34
ENDBRANCH 3 5
BRANCH 1 38
ATOM     38  CA  ALA E  68       9.753   3.063  26.014  1.00 20.08 LIG 0.17  C 
ATOM     39  CB  ALA E  68      10.263   2.409  27.275  1.00 20.16 LIG 0.04  C 
BRANCH 38 40
ATOM     40  N   ALA E  68       9.974   2.199  24.887  1.00 18.16 LIG-0.35  N 
ATOM     41 H    ALA E  68      10.587   1.605  25.000  1.00 18.16 LIG 0.16  HD
ATOM     42  C   TRP E  67       9.269   2.339  23.782  1.00 18.88 LIG 0.24  C 
ATOM     43 O    TRP E  67       8.425   3.230  23.593  1.00 21.47 LIG-0.27  OA
BRANCH 42 44
ATOM     44  CA  TRP E  67       9.628   1.388  22.699  1.00 17.18 LIG 0.18  C 
BRANCH 44 45
ATOM     45  N   TRP E  67      11.049   0.902  22.818  1.00 16.72 LIG-0.35  N 
ATOM     46  C   PRO E  66      12.044   1.250  21.987  1.00 16.87 LIG 0.24  C 
ATOM     47 O    PRO E  66      11.878   1.891  20.951  1.00 18.41 LIG-0.27  OA
ATOM     48 H    TRP E  67      11.169   0.369  23.482  1.00 16.72 LIG 0.16  HD
BRANCH 46 49
ATOM     49  CA  PRO E  66      13.477   0.776  22.333  1.00 17.04 LIG 0.18  C 
ATOM     50  CB  PRO E  66      14.004  -0.250  21.317  1.00 18.40 LIG 0.04  C 
ATOM     51  CG  PRO E  66      13.935  -1.589  21.993  1.00 18.41 LIG 0.02  C 
ATOM     52  CD  PRO E  66      14.090  -1.315  23.463  1.00 21.21 LIG 0.13  C 
ATOM     53  N   PRO E  66      13.627   0.070  23.622  1.00 19.82 LIG-0.34  N 
ATOM     54  C   ACE E  65      13.455   0.784  24.778  1.00 17.72 LIG 0.22  C 
ATOM     55  CH3 ACE E  65      13.665   0.067  26.048  1.00 22.93 LIG 0.12  C 
ATOM     56 O    ACE E  65      13.102   1.940  24.807  1.00 18.13 LIG-0.27  OA
ENDBRANCH 46 49
ENDBRANCH 44 45
BRANCH 44 57
ATOM     57  CB  TRP E  67       8.639   0.194  22.643  1.00 18.36 LIG 0.07  C 
BRANCH 57 58
ATOM     58  CG  TRP E  67       9.230  -1.045  22.202  1.00 19.51 LIG-0.03  A 
ATOM     59  CD1 TRP E  67       9.365  -1.475  20.927  1.00 20.71 LIG 0.10  A 
ATOM     60  NE1 TRP E  67       9.983  -2.690  20.904  1.00 21.73 LIG-0.36  N 
ATOM     61  CE2 TRP E  67      10.260  -3.067  22.187  1.00 22.59 LIG 0.04  A 
ATOM     62 HE1  TRP E  67      10.168  -3.144  20.197  1.00 21.73 LIG 0.17  HD
ATOM     63  CD2 TRP E  67       9.797  -2.041  23.032  1.00 20.57 LIG-0.00  A 
ATOM     64  CZ2 TRP E  67      10.877  -4.207  22.676  1.00 23.91 LIG 0.03  A 
ATOM     65  CE3 TRP E  67       9.964  -2.173  24.410  1.00 19.56 LIG 0.01  A 
ATOM     66  CZ3 TRP E  67      10.566  -3.286  24.890  1.00 20.82 LIG 0.00  A 
ATOM     67  CH2 TRP E  67      11.024  -4.300  24.032  1.00 24.07 LIG 0.00  A 
ENDBRANCH 57 58
ENDBRANCH 44 57
ENDBRANCH 42 44
ENDBRANCH 38 40
ENDBRANCH 1 38
TORSDOF 23
ENDMDL
MODEL 26
USER: ADFR SOLUTION from run 104
USER: SCORE 17.839842 LL:  -5.167 LR: -14.822 RR:   0.000 FEB:  -7.961
USER: RMSD 13.510738
USER: SEED 103
USER: STATUS searching
USER: GENES 25
USER: genes 0 Translation |==|  0.59531 0.56808 0.30060
USER: genes 1 Rotation |==|  0.73843 0.38524 0.07592 0.51181
USER: genes 2 Torsion [C]-N--CA-[C] |==|  0.50000
USER: genes 3 Torsion [N]-CA--C-[N] |==|  0.37968
USER: genes 4 Torsion [C]-N--CA-[C] |==|  0.77160
USER: genes 5 Torsion [N]-CA--C-[N] |==|  0.57125
USER: genes 6 Torsion [C]-N--CA-[C] |==|  0.83914
USER: genes 7 Torsion [N]-CA--C-[N] |==|  0.35377
USER: genes 8 Torsion [C]-N--CA-[CB] |==|  0.84308
USER: genes 9 Torsion [N]-CA--C-[N] |==|  0.38522
USER: genes 10 Torsion [N]-CA--CB-[OG] |==|  0.81739
USER: genes 11 Torsion [CA]-CB--OG-[HG] |==|  0.34518
USER: genes 12 Torsion [N]-CA--CB-[CG] |==|  0.14755
USER: genes 13 Torsion [CA]-CB--CG-[OD2] |==|  0.79262
USER: genes 14 Torsion [N]-CA--CB-[SG] |==|  0.56102
USER: genes 15 Torsion [CA]-CB--SG-[HG] |==|  0.30651
USER: genes 16 Torsion [N]-CA--CB-[OG1] |==|  0.73820
USER: genes 17 Torsion [CA]-CB--OG1-[HG1] |==|  0.93620
USER: genes 18 Torsion [N]-C--CA-[N] |==|  0.70929
USER: genes 19 Torsion [C]-CA--N-[C] |==|  0.64972
USER: genes 20 Torsion [N]-C--CA-[N] |==|  0.04909
USER: genes 21 Torsion [C]-CA--N-[C] |==|  0.71313
USER: genes 22 Torsion [N]-C--CA-[N] |==|  0.97527
USER: genes 23 Torsion [C]-CA--CB-[CG] |==|  0.67041
USER: genes 24 Torsion [CA]-CB--CG-[CD2] |==|  0.66714
ROOT
ATOM      1  C   ALA E  68       9.098   5.380  24.706  1.00 21.38 LIG 0.24  C 
ATOM      2 O    ALA E  68       8.921   5.941  23.619  1.00 23.30 LIG-0.27  OA
ATOM      3  N   THR E  69       9.872   5.881  25.675  1.00 18.30 LIG-0.34  N 
ATOM      4 H    THR E  69      10.086   5.454  26.390  1.00 18.30 LIG 0.16  HD
ENDROOT
BRANCH 3 5
ATOM      5  CA  THR E  69      10.427   7.230  25.584  1.00 19.45 LIG 0.20  C 
BRANCH 5 6
ATOM      6  C   THR E  69      11.284   7.581  26.815  1.00 19.66 LIG 0.24  C 
ATOM      7  N   CYS E  70      12.430   8.197  26.590  1.00 18.57 LIG-0.34  N 
ATOM      8 H    CYS E  70      12.690   8.463  25.815  1.00 18.57 LIG 0.16  HD
ATOM      9 O    THR E  69      10.924   7.281  27.936  1.00 20.15 LIG-0.27  OA
BRANCH 7 10
ATOM     10  CA  CYS E  70      13.362   8.479  27.669  1.00 18.45 LIG 0.18  C 
BRANCH 10 11
ATOM     11  C   CYS E  70      12.877   9.750  28.340  1.00 19.42 LIG 0.24  C 
ATOM     12  N   ASP E  71      13.815  10.476  28.973  1.00 17.61 LIG-0.34  N 
ATOM     13 H    ASP E  71      14.638  10.233  29.036  1.00 17.61 LIG 0.16  HD
ATOM     14 O    CYS E  70      11.673  10.028  28.308  1.00 18.07 LIG-0.27  OA
BRANCH 12 15
ATOM     15  CA  ASP E  71      13.530  11.744  29.616  1.00 16.95 LIG 0.19  C 
BRANCH 15 16
ATOM     16  C   ASP E  71      12.971  12.596  28.516  1.00 18.90 LIG 0.24  C 
ATOM     17 O    ASP E  71      13.621  12.740  27.451  1.00 16.52 LIG-0.27  OA
ATOM     18  N   SER E  72      11.795  13.177  28.762  1.00 19.80 LIG-0.34  N 
ATOM     19 H    SER E  72      11.381  13.131  29.515  1.00 19.80 LIG 0.16  HD
BRANCH 18 20
ATOM     20  CA  SER E  72      11.112  13.956  27.736  1.00 20.01 LIG 0.20  C 
BRANCH 20 21
ATOM     21  C   SER E  72      10.642  13.141  26.572  1.00 24.22 LIG 0.29  C 
ATOM     22  N   NH2 E  73       9.387  13.467  26.100  1.00 28.43 LIG-0.11  N 
ATOM     23 O    SER E  72      11.218  12.129  26.245  1.00 27.83 LIG-0.27  OA
ENDBRANCH 20 21
BRANCH 20 24
ATOM     24  CB  SER E  72      12.010  15.062  27.236  1.00 25.59 LIG 0.20  C 
BRANCH 24 25
ATOM     25 OG   SER E  72      12.265  16.002  28.251  1.00 28.15 LIG-0.40  OA
ATOM     26 HG   SER E  72      13.095  16.081  28.358  1.00 28.15 LIG 0.21  HD
ENDBRANCH 24 25
ENDBRANCH 20 24
ENDBRANCH 18 20
ENDBRANCH 15 16
BRANCH 15 27
ATOM     27  CB  ASP E  71      14.798  12.344  30.242  1.00 12.80 LIG 0.15  C 
BRANCH 27 28
ATOM     28  CG  ASP E  71      15.926  12.439  29.251  1.00 14.21 LIG 0.17  C 
ATOM     29 OD2  ASP E  71      16.551  11.428  28.899  1.00 15.44 LIG-0.65  OA
ATOM     30 OD1  ASP E  71      16.226  13.561  28.822  1.00 16.80 LIG-0.65  OA
ENDBRANCH 27 28
ENDBRANCH 15 27
ENDBRANCH 12 15
ENDBRANCH 10 11
BRANCH 10 31
ATOM     31  CB  CYS E  70      14.813   8.629  27.134  1.00 19.19 LIG 0.10  C 
BRANCH 31 32
ATOM     32 SG   CYS E  70      16.149   8.371  28.323  1.00 25.14 LIG-0.18  SA
ATOM     33 HG   CYS E  70      16.728   7.352  28.061  1.00 25.14 LIG 0.10  HD
ENDBRANCH 31 32
ENDBRANCH 10 31
ENDBRANCH 7 10
ENDBRANCH 5 6
BRANCH 5 34
ATOM     34  CB  THR E  69       9.304   8.257  25.354  1.00 17.77 LIG 0.15  C 
ATOM     35  CG2 THR E  69       9.649   9.548  26.012  1.00 20.71 LIG 0.04  C 
BRANCH 34 36
ATOM     36 OG1  THR E  69       9.135   8.525  23.974  1.00 16.43 LIG-0.39  OA
ATOM     37 HG1  THR E  69       9.844   8.339  23.564  1.00 16.43 LIG 0.21  HD
ENDBRANCH 34 36
ENDBRANCH 5 34
ENDBRANCH 3 5
BRANCH 1 38
ATOM     38  CA  ALA E  68       8.405   4.050  24.986  1.00 20.08 LIG 0.17  C 
ATOM     39  CB  ALA E  68       8.395   3.761  26.468  1.00 20.16 LIG 0.04  C 
BRANCH 38 40
ATOM     40  N   ALA E  68       9.056   2.980  24.281  1.00 18.16 LIG-0.35  N 
ATOM     41 H    ALA E  68       9.902   2.916  24.422  1.00 18.16 LIG 0.16  HD
ATOM     42  C   TRP E  67       8.371   2.181  23.487  1.00 18.88 LIG 0.24  C 
ATOM     43 O    TRP E  67       7.161   2.306  23.235  1.00 21.47 LIG-0.27  OA
BRANCH 42 44
ATOM     44  CA  TRP E  67       9.187   1.140  22.812  1.00 17.18 LIG 0.18  C 
BRANCH 44 45
ATOM     45  N   TRP E  67      10.521   0.940  23.481  1.00 16.72 LIG-0.35  N 
ATOM     46  C   PRO E  66      11.686   1.412  23.012  1.00 16.87 LIG 0.24  C 
ATOM     47 O    PRO E  66      11.816   1.940  21.909  1.00 18.41 LIG-0.27  OA
ATOM     48 H    TRP E  67      10.468   0.484  24.208  1.00 16.72 LIG 0.16  HD
BRANCH 46 49
ATOM     49  CA  PRO E  66      12.946   1.241  23.895  1.00 17.04 LIG 0.18  C 
ATOM     50  CB  PRO E  66      13.912   0.192  23.322  1.00 18.40 LIG 0.04  C 
ATOM     51  CG  PRO E  66      13.759  -1.035  24.173  1.00 18.41 LIG 0.02  C 
ATOM     52  CD  PRO E  66      13.350  -0.543  25.533  1.00 21.21 LIG 0.13  C 
ATOM     53  N   PRO E  66      12.707   0.752  25.268  1.00 19.82 LIG-0.34  N 
ATOM     54  C   ACE E  65      12.056   1.576  26.148  1.00 17.72 LIG 0.22  C 
ATOM     55  CH3 ACE E  65      11.881   1.084  27.526  1.00 22.93 LIG 0.12  C 
ATOM     56 O    ACE E  65      11.588   2.648  25.843  1.00 18.13 LIG-0.27  OA
ENDBRANCH 46 49
ENDBRANCH 44 45
BRANCH 44 57
ATOM     57  CB  TRP E  67       8.415  -0.202  22.704  1.00 18.36 LIG 0.07  C 
BRANCH 57 58
ATOM     58  CG  TRP E  67       9.043  -1.303  23.393  1.00 19.51 LIG-0.03  A 
ATOM     59  CD1 TRP E  67       9.304  -1.393  24.716  1.00 20.71 LIG 0.10  A 
ATOM     60  NE1 TRP E  67       9.896  -2.589  24.998  1.00 21.73 LIG-0.36  N 
ATOM     61  CE2 TRP E  67      10.026  -3.298  23.839  1.00 22.59 LIG 0.04  A 
ATOM     62 HE1  TRP E  67      10.146  -2.852  25.778  1.00 21.73 LIG 0.17  HD
ATOM     63  CD2 TRP E  67       9.491  -2.509  22.804  1.00 20.57 LIG-0.00  A 
ATOM     64  CZ2 TRP E  67      10.559  -4.557  23.610  1.00 23.91 LIG 0.03  A 
ATOM     65  CE3 TRP E  67       9.493  -3.008  21.502  1.00 19.56 LIG 0.01  A 
ATOM     66  CZ3 TRP E  67      10.013  -4.237  21.276  1.00 20.82 LIG 0.00  A 
ATOM     67  CH2 TRP E  67      10.543  -5.012  22.320  1.00 24.07 LIG 0.00  A 
ENDBRANCH 57 58
ENDBRANCH 44 57
ENDBRANCH 42 44
ENDBRANCH 38 40
ENDBRANCH 1 38
TORSDOF 23
ENDMDL
MODEL 27
USER: ADFR SOLUTION from run 186
USER: SCORE 17.245128 LL:  -5.348 LR: -14.818 RR:   0.000 FEB:  -7.957
USER: RMSD 6.887114
USER: SEED 185
USER: STATUS no improvement in best in 4 clusters for 5 generations
USER: GENES 25
USER: genes 0 Translation |==|  0.58178 0.57317 0.32157
USER: genes 1 Rotation |==|  0.51167 0.85759 0.60356 0.83357
USER: genes 2 Torsion [C]-N--CA-[C] |==|  0.17477
USER: genes 3 Torsion [N]-CA--C-[N] |==|  0.52799
USER: genes 4 Torsion [C]-N--CA-[C] |==|  0.73123
USER: genes 5 Torsion [N]-CA--C-[N] |==|  0.58826
USER: genes 6 Torsion [C]-N--CA-[C] |==|  0.83434
USER: genes 7 Torsion [N]-CA--C-[N] |==|  0.92204
USER: genes 8 Torsion [C]-N--CA-[CB] |==|  0.77068
USER: genes 9 Torsion [N]-CA--C-[N] |==|  0.22494
USER: genes 10 Torsion [N]-CA--CB-[OG] |==|  0.85098
USER: genes 11 Torsion [CA]-CB--OG-[HG] |==|  0.79821
USER: genes 12 Torsion [N]-CA--CB-[CG] |==|  0.22622
USER: genes 13 Torsion [CA]-CB--CG-[OD2] |==|  0.75459
USER: genes 14 Torsion [N]-CA--CB-[SG] |==|  0.51394
USER: genes 15 Torsion [CA]-CB--SG-[HG] |==|  0.27537
USER: genes 16 Torsion [N]-CA--CB-[OG1] |==|  0.94144
USER: genes 17 Torsion [CA]-CB--OG1-[HG1] |==|  0.74558
USER: genes 18 Torsion [N]-C--CA-[N] |==|  0.06216
USER: genes 19 Torsion [C]-CA--N-[C] |==|  0.17806
USER: genes 20 Torsion [N]-C--CA-[N] |==|  0.65821
USER: genes 21 Torsion [C]-CA--N-[C] |==|  0.69760
USER: genes 22 Torsion [N]-C--CA-[N] |==|  0.16061
USER: genes 23 Torsion [C]-CA--CB-[CG] |==|  0.70367
USER: genes 24 Torsion [CA]-CB--CG-[CD2] |==|  0.19073
ROOT
ATOM      1  C   ALA E  68       8.824   5.525  25.021  1.00 21.38 LIG 0.24  C 
ATOM      2 O    ALA E  68       8.835   4.908  23.950  1.00 23.30 LIG-0.27  OA
ATOM      3  N   THR E  69       8.989   4.938  26.211  1.00 18.30 LIG-0.34  N 
ATOM      4 H    THR E  69       8.881   5.337  26.965  1.00 18.30 LIG 0.16  HD
ENDROOT
BRANCH 3 5
ATOM      5  CA  THR E  69       9.378   3.533  26.318  1.00 19.45 LIG 0.20  C 
BRANCH 5 6
ATOM      6  C   THR E  69      10.769   3.275  25.708  1.00 19.66 LIG 0.24  C 
ATOM      7  N   CYS E  70      11.135   2.014  25.565  1.00 18.57 LIG-0.34  N 
ATOM      8 H    CYS E  70      10.624   1.343  25.732  1.00 18.57 LIG 0.16  HD
ATOM      9 O    THR E  69      11.499   4.196  25.399  1.00 20.15 LIG-0.27  OA
BRANCH 7 10
ATOM     10  CA  CYS E  70      12.465   1.661  25.100  1.00 18.45 LIG 0.18  C 
BRANCH 10 11
ATOM     11  C   CYS E  70      12.350   1.408  23.609  1.00 19.42 LIG 0.24  C 
ATOM     12  N   ASP E  71      13.187   0.486  23.102  1.00 17.61 LIG-0.34  N 
ATOM     13 H    ASP E  71      13.782   0.079  23.572  1.00 17.61 LIG 0.16  HD
ATOM     14 O    CYS E  70      11.546   2.070  22.945  1.00 18.07 LIG-0.27  OA
BRANCH 12 15
ATOM     15  CA  ASP E  71      13.169   0.085  21.709  1.00 16.95 LIG 0.19  C 
BRANCH 15 16
ATOM     16  C   ASP E  71      11.784  -0.448  21.498  1.00 18.90 LIG 0.24  C 
ATOM     17 O    ASP E  71      11.255  -0.369  20.362  1.00 16.52 LIG-0.27  OA
ATOM     18  N   SER E  72      11.184  -0.967  22.571  1.00 19.80 LIG-0.34  N 
ATOM     19 H    SER E  72      11.520  -0.963  23.363  1.00 19.80 LIG 0.16  HD
BRANCH 18 20
ATOM     20  CA  SER E  72       9.872  -1.596  22.468  1.00 20.01 LIG 0.20  C 
BRANCH 20 21
ATOM     21  C   SER E  72       9.699  -2.438  21.243  1.00 24.22 LIG 0.29  C 
ATOM     22  N   NH2 E  73      10.238  -3.705  21.325  1.00 28.43 LIG-0.11  N 
ATOM     23 O    SER E  72       9.335  -1.951  20.197  1.00 27.83 LIG-0.27  OA
ENDBRANCH 20 21
BRANCH 20 24
ATOM     24  CB  SER E  72       8.786  -0.547  22.506  1.00 25.59 LIG 0.20  C 
BRANCH 24 25
ATOM     25 OG   SER E  72       8.921   0.277  23.638  1.00 28.15 LIG-0.40  OA
ATOM     26 HG   SER E  72       8.698  -0.152  24.326  1.00 28.15 LIG 0.21  HD
ENDBRANCH 24 25
ENDBRANCH 20 24
ENDBRANCH 18 20
ENDBRANCH 15 16
BRANCH 15 27
ATOM     27  CB  ASP E  71      14.256  -0.961  21.420  1.00 12.80 LIG 0.15  C 
BRANCH 27 28
ATOM     28  CG  ASP E  71      13.825  -2.348  21.815  1.00 14.21 LIG 0.17  C 
ATOM     29 OD2  ASP E  71      14.018  -2.772  22.963  1.00 15.44 LIG-0.65  OA
ATOM     30 OD1  ASP E  71      13.296  -3.057  20.948  1.00 16.80 LIG-0.65  OA
ENDBRANCH 27 28
ENDBRANCH 15 27
ENDBRANCH 12 15
ENDBRANCH 10 11
BRANCH 10 31
ATOM     31  CB  CYS E  70      13.011   0.416  25.853  1.00 19.19 LIG 0.10  C 
BRANCH 31 32
ATOM     32 SG   CYS E  70      14.714  -0.071  25.492  1.00 25.14 LIG-0.18  SA
ATOM     33 HG   CYS E  70      15.441   0.343  26.352  1.00 25.14 LIG 0.10  HD
ENDBRANCH 31 32
ENDBRANCH 10 31
ENDBRANCH 7 10
ENDBRANCH 5 6
BRANCH 5 34
ATOM     34  CB  THR E  69       8.300   2.630  25.692  1.00 17.77 LIG 0.15  C 
ATOM     35  CG2 THR E  69       8.101   1.416  26.532  1.00 20.71 LIG 0.04  C 
BRANCH 34 36
ATOM     36 OG1  THR E  69       7.054   3.298  25.623  1.00 16.43 LIG-0.39  OA
ATOM     37 HG1  THR E  69       6.612   3.138  26.319  1.00 16.43 LIG 0.21  HD
ENDBRANCH 34 36
ENDBRANCH 5 34
ENDBRANCH 3 5
BRANCH 1 38
ATOM     38  CA  ALA E  68       8.619   7.037  25.013  1.00 20.08 LIG 0.17  C 
ATOM     39  CB  ALA E  68       9.278   7.654  23.803  1.00 20.16 LIG 0.04  C 
BRANCH 38 40
ATOM     40  N   ALA E  68       9.143   7.627  26.214  1.00 18.16 LIG-0.35  N 
ATOM     41 H    ALA E  68       8.556   8.000  26.720  1.00 18.16 LIG 0.16  HD
ATOM     42  C   TRP E  67      10.433   7.576  26.481  1.00 18.88 LIG 0.24  C 
ATOM     43 O    TRP E  67      11.291   7.090  25.727  1.00 21.47 LIG-0.27  OA
BRANCH 42 44
ATOM     44  CA  TRP E  67      10.825   8.249  27.746  1.00 17.18 LIG 0.18  C 
BRANCH 44 45
ATOM     45  N   TRP E  67      11.861   9.319  27.524  1.00 16.72 LIG-0.35  N 
ATOM     46  C   PRO E  66      13.145   9.226  27.902  1.00 16.87 LIG 0.24  C 
ATOM     47 O    PRO E  66      13.588   8.315  28.600  1.00 18.41 LIG-0.27  OA
ATOM     48 H    TRP E  67      11.548  10.013  27.123  1.00 16.72 LIG 0.16  HD
BRANCH 46 49
ATOM     49  CA  PRO E  66      14.112  10.355  27.470  1.00 17.04 LIG 0.18  C 
ATOM     50  CB  PRO E  66      15.515  10.171  28.072  1.00 18.40 LIG 0.04  C 
ATOM     51  CG  PRO E  66      15.634  11.175  29.181  1.00 18.41 LIG 0.02  C 
ATOM     52  CD  PRO E  66      14.744  12.323  28.794  1.00 21.21 LIG 0.13  C 
ATOM     53  N   PRO E  66      13.744  11.718  27.903  1.00 19.82 LIG-0.34  N 
ATOM     54  C   ACE E  65      12.632  12.297  27.352  1.00 17.72 LIG 0.22  C 
ATOM     55  CH3 ACE E  65      12.320  13.678  27.762  1.00 22.93 LIG 0.12  C 
ATOM     56 O    ACE E  65      11.883  11.726  26.596  1.00 18.13 LIG-0.27  OA
ENDBRANCH 46 49
ENDBRANCH 44 45
BRANCH 44 57
ATOM     57  CB  TRP E  67       9.588   8.821  28.488  1.00 18.36 LIG 0.07  C 
BRANCH 57 58
ATOM     58  CG  TRP E  67       9.473  10.258  28.426  1.00 19.51 LIG-0.03  A 
ATOM     59  CD1 TRP E  67       9.636  11.133  29.443  1.00 20.71 LIG 0.10  A 
ATOM     60  NE1 TRP E  67       9.459  12.410  28.998  1.00 21.73 LIG-0.36  N 
ATOM     61  CE2 TRP E  67       9.175  12.374  27.663  1.00 22.59 LIG 0.04  A 
ATOM     62 HE1  TRP E  67       9.516  13.120  29.479  1.00 21.73 LIG 0.17  HD
ATOM     63  CD2 TRP E  67       9.180  11.022  27.271  1.00 20.57 LIG-0.00  A 
ATOM     64  CZ2 TRP E  67       8.920  13.402  26.769  1.00 23.91 LIG 0.03  A 
ATOM     65  CE3 TRP E  67       8.923  10.702  25.938  1.00 19.56 LIG 0.01  A 
ATOM     66  CZ3 TRP E  67       8.674  11.705  25.064  1.00 20.82 LIG 0.00  A 
ATOM     67  CH2 TRP E  67       8.673  13.050  25.472  1.00 24.07 LIG 0.00  A 
ENDBRANCH 57 58
ENDBRANCH 44 57
ENDBRANCH 42 44
ENDBRANCH 38 40
ENDBRANCH 1 38
TORSDOF 23
ENDMDL
MODEL 28
USER: ADFR SOLUTION from run 21
USER: SCORE 19.132441 LL:  -5.020 LR: -14.747 RR:   0.000 FEB:  -7.886
USER: RMSD 5.799911
USER: SEED 20
USER: STATUS no improvement in best in 1 clusters for 5 generations
USER: GENES 25
USER: genes 0 Translation |==|  0.60773 0.60524 0.33983
USER: genes 1 Rotation |==|  0.44573 0.55422 0.67974 0.96023
USER: genes 2 Torsion [C]-N--CA-[C] |==|  0.76705
USER: genes 3 Torsion [N]-CA--C-[N] |==|  0.38392
USER: genes 4 Torsion [C]-N--CA-[C] |==|  0.73531
USER: genes 5 Torsion [N]-CA--C-[N] |==|  0.35457
USER: genes 6 Torsion [C]-N--CA-[C] |==|  0.17521
USER: genes 7 Torsion [N]-CA--C-[N] |==|  0.10555
USER: genes 8 Torsion [C]-N--CA-[CB] |==|  0.84995
USER: genes 9 Torsion [N]-CA--C-[N] |==|  0.87252
USER: genes 10 Torsion [N]-CA--CB-[OG] |==|  0.72902
USER: genes 11 Torsion [CA]-CB--OG-[HG] |==|  0.11943
USER: genes 12 Torsion [N]-CA--CB-[CG] |==|  0.76570
USER: genes 13 Torsion [CA]-CB--CG-[OD2] |==|  0.38475
USER: genes 14 Torsion [N]-CA--CB-[SG] |==|  0.49569
USER: genes 15 Torsion [CA]-CB--SG-[HG] |==|  0.40302
USER: genes 16 Torsion [N]-CA--CB-[OG1] |==|  0.51914
USER: genes 17 Torsion [CA]-CB--OG1-[HG1] |==|  0.29323
USER: genes 18 Torsion [N]-C--CA-[N] |==|  0.32479
USER: genes 19 Torsion [C]-CA--N-[C] |==|  0.78700
USER: genes 20 Torsion [N]-C--CA-[N] |==|  0.91695
USER: genes 21 Torsion [C]-CA--N-[C] |==|  0.80637
USER: genes 22 Torsion [N]-C--CA-[N] |==|  0.20016
USER: genes 23 Torsion [C]-CA--CB-[CG] |==|  0.70401
USER: genes 24 Torsion [CA]-CB--CG-[CD2] |==|  0.73207
ROOT
ATOM      1  C   ALA E  68       9.350   6.439  25.294  1.00 21.38 LIG 0.24  C 
ATOM      2 O    ALA E  68      10.551   6.268  25.058  1.00 23.30 LIG-0.27  OA
ATOM      3  N   THR E  69       8.524   5.453  25.661  1.00 18.30 LIG-0.34  N 
ATOM      4 H    THR E  69       7.670   5.538  25.727  1.00 18.30 LIG 0.16  HD
ENDROOT
BRANCH 3 5
ATOM      5  CA  THR E  69       9.028   4.120  25.985  1.00 19.45 LIG 0.20  C 
BRANCH 5 6
ATOM      6  C   THR E  69       9.224   3.259  24.723  1.00 19.66 LIG 0.24  C 
ATOM      7  N   CYS E  70      10.318   2.521  24.667  1.00 18.57 LIG-0.34  N 
ATOM      8 H    CYS E  70      10.885   2.449  25.310  1.00 18.57 LIG 0.16  HD
ATOM      9 O    THR E  69       8.416   3.282  23.817  1.00 20.15 LIG-0.27  OA
BRANCH 7 10
ATOM     10  CA  CYS E  70      10.654   1.756  23.479  1.00 18.45 LIG 0.18  C 
BRANCH 10 11
ATOM     11  C   CYS E  70      10.129   0.351  23.706  1.00 19.42 LIG 0.24  C 
ATOM     12  N   ASP E  71       9.344  -0.149  22.735  1.00 17.61 LIG-0.34  N 
ATOM     13 H    ASP E  71       9.114   0.298  22.038  1.00 17.61 LIG 0.16  HD
ATOM     14 O    CYS E  70      10.406  -0.234  24.759  1.00 18.07 LIG-0.27  OA
BRANCH 12 15
ATOM     15  CA  ASP E  71       8.807  -1.495  22.770  1.00 16.95 LIG 0.19  C 
BRANCH 15 16
ATOM     16  C   ASP E  71       7.922  -1.506  23.980  1.00 18.90 LIG 0.24  C 
ATOM     17 O    ASP E  71       7.859  -2.538  24.693  1.00 16.52 LIG-0.27  OA
ATOM     18  N   SER E  72       7.225  -0.392  24.209  1.00 19.80 LIG-0.34  N 
ATOM     19 H    SER E  72       7.218   0.290  23.686  1.00 19.80 LIG 0.16  HD
BRANCH 18 20
ATOM     20  CA  SER E  72       6.399  -0.254  25.404  1.00 20.01 LIG 0.20  C 
BRANCH 20 21
ATOM     21  C   SER E  72       7.184  -0.154  26.673  1.00 24.22 LIG 0.29  C 
ATOM     22  N   NH2 E  73       8.206  -1.071  26.802  1.00 28.43 LIG-0.11  N 
ATOM     23 O    SER E  72       6.790   0.517  27.600  1.00 27.83 LIG-0.27  OA
ENDBRANCH 20 21
BRANCH 20 24
ATOM     24  CB  SER E  72       5.434  -1.412  25.507  1.00 25.59 LIG 0.20  C 
BRANCH 24 25
ATOM     25 OG   SER E  72       4.169  -1.061  25.002  1.00 28.15 LIG-0.40  OA
ATOM     26 HG   SER E  72       4.263  -0.628  24.288  1.00 28.15 LIG 0.21  HD
ENDBRANCH 24 25
ENDBRANCH 20 24
ENDBRANCH 18 20
ENDBRANCH 15 16
BRANCH 15 27
ATOM     27  CB  ASP E  71       9.933  -2.537  22.851  1.00 12.80 LIG 0.15  C 
BRANCH 27 28
ATOM     28  CG  ASP E  71      10.489  -2.875  21.494  1.00 14.21 LIG 0.17  C 
ATOM     29 OD2  ASP E  71      11.709  -3.011  21.322  1.00 15.44 LIG-0.65  OA
ATOM     30 OD1  ASP E  71       9.691  -2.984  20.553  1.00 16.80 LIG-0.65  OA
ENDBRANCH 27 28
ENDBRANCH 15 27
ENDBRANCH 12 15
ENDBRANCH 10 11
BRANCH 10 31
ATOM     31  CB  CYS E  70      12.186   1.761  23.221  1.00 19.19 LIG 0.10  C 
BRANCH 31 32
ATOM     32 SG   CYS E  70      12.775   0.813  21.798  1.00 25.14 LIG-0.18  SA
ATOM     33 HG   CYS E  70      13.713   1.375  21.302  1.00 25.14 LIG 0.10  HD
ENDBRANCH 31 32
ENDBRANCH 10 31
ENDBRANCH 7 10
ENDBRANCH 5 6
BRANCH 5 34
ATOM     34  CB  THR E  69       8.107   3.434  27.011  1.00 17.77 LIG 0.15  C 
ATOM     35  CG2 THR E  69       6.793   3.118  26.386  1.00 20.71 LIG 0.04  C 
BRANCH 34 36
ATOM     36 OG1  THR E  69       8.663   2.210  27.454  1.00 16.43 LIG-0.39  OA
ATOM     37 HG1  THR E  69       8.961   2.303  28.233  1.00 16.43 LIG 0.21  HD
ENDBRANCH 34 36
ENDBRANCH 5 34
ENDBRANCH 3 5
BRANCH 1 38
ATOM     38  CA  ALA E  68       8.753   7.839  25.176  1.00 20.08 LIG 0.17  C 
ATOM     39  CB  ALA E  68       8.933   8.372  23.775  1.00 20.16 LIG 0.04  C 
BRANCH 38 40
ATOM     40  N   ALA E  68       9.361   8.731  26.124  1.00 18.16 LIG-0.35  N 
ATOM     41 H    ALA E  68       9.940   9.273  25.791  1.00 18.16 LIG 0.16  HD
ATOM     42  C   TRP E  67       9.025   8.690  27.399  1.00 18.88 LIG 0.24  C 
ATOM     43 O    TRP E  67       8.233   7.871  27.893  1.00 21.47 LIG-0.27  OA
BRANCH 42 44
ATOM     44  CA  TRP E  67       9.756   9.657  28.257  1.00 17.18 LIG 0.18  C 
BRANCH 44 45
ATOM     45  N   TRP E  67      11.137   9.952  27.734  1.00 16.72 LIG-0.35  N 
ATOM     46  C   PRO E  66      12.155   9.077  27.737  1.00 16.87 LIG 0.24  C 
ATOM     47 O    PRO E  66      12.115   7.983  28.297  1.00 18.41 LIG-0.27  OA
ATOM     48 H    TRP E  67      11.217  10.750  27.426  1.00 16.72 LIG 0.16  HD
BRANCH 46 49
ATOM     49  CA  PRO E  66      13.469   9.491  27.031  1.00 17.04 LIG 0.18  C 
ATOM     50  CB  PRO E  66      14.452   8.315  26.910  1.00 18.40 LIG 0.04  C 
ATOM     51  CG  PRO E  66      15.518   8.548  27.941  1.00 18.41 LIG 0.02  C 
ATOM     52  CD  PRO E  66      15.601  10.038  28.117  1.00 21.21 LIG 0.13  C 
ATOM     53  N   PRO E  66      14.272  10.522  27.719  1.00 19.82 LIG-0.34  N 
ATOM     54  C   ACE E  65      13.771  11.795  27.793  1.00 17.72 LIG 0.22  C 
ATOM     55  CH3 ACE E  65      14.618  12.814  28.437  1.00 22.93 LIG 0.12  C 
ATOM     56 O    ACE E  65      12.670  12.106  27.404  1.00 18.13 LIG-0.27  OA
ENDBRANCH 46 49
ENDBRANCH 44 45
BRANCH 44 57
ATOM     57  CB  TRP E  67       8.946  10.966  28.449  1.00 18.36 LIG 0.07  C 
BRANCH 57 58
ATOM     58  CG  TRP E  67       9.463  12.095  27.714  1.00 19.51 LIG-0.03  A 
ATOM     59  CD1 TRP E  67       9.213  12.410  26.424  1.00 20.71 LIG 0.10  A 
ATOM     60  NE1 TRP E  67       9.871  13.556  26.084  1.00 21.73 LIG-0.36  N 
ATOM     61  CE2 TRP E  67      10.565  14.002  27.172  1.00 22.59 LIG 0.04  A 
ATOM     62 HE1  TRP E  67       9.851  13.934  25.312  1.00 21.73 LIG 0.17  HD
ATOM     63  CD2 TRP E  67      10.323  13.098  28.222  1.00 20.57 LIG-0.00  A 
ATOM     64  CZ2 TRP E  67      11.376  15.116  27.326  1.00 23.91 LIG 0.03  A 
ATOM     65  CE3 TRP E  67      10.916  13.327  29.463  1.00 19.56 LIG 0.01  A 
ATOM     66  CZ3 TRP E  67      11.707  14.414  29.616  1.00 20.82 LIG 0.00  A 
ATOM     67  CH2 TRP E  67      11.938  15.308  28.558  1.00 24.07 LIG 0.00  A 
ENDBRANCH 57 58
ENDBRANCH 44 57
ENDBRANCH 42 44
ENDBRANCH 38 40
ENDBRANCH 1 38
TORSDOF 23
ENDMDL
MODEL 29
USER: ADFR SOLUTION from run 104
USER: SCORE 17.451764 LL:  -4.948 LR: -14.707 RR:   0.000 FEB:  -7.846
USER: RMSD 13.381439
USER: SEED 103
USER: STATUS searching
USER: GENES 25
USER: genes 0 Translation |==|  0.57609 0.57425 0.29163
USER: genes 1 Rotation |==|  0.29504 0.61051 0.94247 0.50019
USER: genes 2 Torsion [C]-N--CA-[C] |==|  0.47133
USER: genes 3 Torsion [N]-CA--C-[N] |==|  0.37958
USER: genes 4 Torsion [C]-N--CA-[C] |==|  0.78139
USER: genes 5 Torsion [N]-CA--C-[N] |==|  0.55891
USER: genes 6 Torsion [C]-N--CA-[C] |==|  0.85128
USER: genes 7 Torsion [N]-CA--C-[N] |==|  0.36703
USER: genes 8 Torsion [C]-N--CA-[CB] |==|  0.82778
USER: genes 9 Torsion [N]-CA--C-[N] |==|  0.43715
USER: genes 10 Torsion [N]-CA--CB-[OG] |==|  0.85323
USER: genes 11 Torsion [CA]-CB--OG-[HG] |==|  0.24248
USER: genes 12 Torsion [N]-CA--CB-[CG] |==|  0.15147
USER: genes 13 Torsion [CA]-CB--CG-[OD2] |==|  0.74293
USER: genes 14 Torsion [N]-CA--CB-[SG] |==|  0.55620
USER: genes 15 Torsion [CA]-CB--SG-[HG] |==|  0.21387
USER: genes 16 Torsion [N]-CA--CB-[OG1] |==|  0.74517
USER: genes 17 Torsion [CA]-CB--OG1-[HG1] |==|  0.90150
USER: genes 18 Torsion [N]-C--CA-[N] |==|  0.87382
USER: genes 19 Torsion [C]-CA--N-[C] |==|  0.74126
USER: genes 20 Torsion [N]-C--CA-[N] |==|  0.37442
USER: genes 21 Torsion [C]-CA--N-[C] |==|  0.81911
USER: genes 22 Torsion [N]-C--CA-[N] |==|  0.94856
USER: genes 23 Torsion [C]-CA--CB-[CG] |==|  0.74280
USER: genes 24 Torsion [CA]-CB--CG-[CD2] |==|  0.68608
ROOT
ATOM      1  C   ALA E  68       8.709   5.556  24.572  1.00 21.38 LIG 0.24  C 
ATOM      2 O    ALA E  68       8.424   6.186  23.547  1.00 23.30 LIG-0.27  OA
ATOM      3  N   THR E  69       9.640   5.954  25.445  1.00 18.30 LIG-0.34  N 
ATOM      4 H    THR E  69       9.919   5.476  26.104  1.00 18.30 LIG 0.16  HD
ENDROOT
BRANCH 3 5
ATOM      5  CA  THR E  69      10.269   7.270  25.341  1.00 19.45 LIG 0.20  C 
BRANCH 5 6
ATOM      6  C   THR E  69      11.111   7.603  26.587  1.00 19.66 LIG 0.24  C 
ATOM      7  N   CYS E  70      12.294   8.151  26.380  1.00 18.57 LIG-0.34  N 
ATOM      8 H    CYS E  70      12.588   8.385  25.606  1.00 18.57 LIG 0.16  HD
ATOM      9 O    THR E  69      10.706   7.348  27.703  1.00 20.15 LIG-0.27  OA
BRANCH 7 10
ATOM     10  CA  CYS E  70      13.212   8.407  27.477  1.00 18.45 LIG 0.18  C 
BRANCH 10 11
ATOM     11  C   CYS E  70      12.726   9.671  28.162  1.00 19.42 LIG 0.24  C 
ATOM     12  N   ASP E  71      13.639  10.329  28.898  1.00 17.61 LIG-0.34  N 
ATOM     13 H    ASP E  71      14.443  10.048  29.014  1.00 17.61 LIG 0.16  HD
ATOM     14 O    CYS E  70      11.542  10.002  28.047  1.00 18.07 LIG-0.27  OA
BRANCH 12 15
ATOM     15  CA  ASP E  71      13.355  11.581  29.570  1.00 16.95 LIG 0.19  C 
BRANCH 15 16
ATOM     16  C   ASP E  71      12.817  12.467  28.487  1.00 18.90 LIG 0.24  C 
ATOM     17 O    ASP E  71      13.437  12.563  27.399  1.00 16.52 LIG-0.27  OA
ATOM     18  N   SER E  72      11.693  13.128  28.770  1.00 19.80 LIG-0.34  N 
ATOM     19 H    SER E  72      11.303  13.112  29.537  1.00 19.80 LIG 0.16  HD
BRANCH 18 20
ATOM     20  CA  SER E  72      11.029  13.949  27.764  1.00 20.01 LIG 0.20  C 
BRANCH 20 21
ATOM     21  C   SER E  72      10.579  13.183  26.560  1.00 24.22 LIG 0.29  C 
ATOM     22  N   NH2 E  73       9.559  13.771  25.842  1.00 28.43 LIG-0.11  N 
ATOM     23 O    SER E  72      10.921  12.035  26.386  1.00 27.83 LIG-0.27  OA
ENDBRANCH 20 21
BRANCH 20 24
ATOM     24  CB  SER E  72      11.938  15.073  27.326  1.00 25.59 LIG 0.20  C 
BRANCH 24 25
ATOM     25 OG   SER E  72      12.411  15.799  28.434  1.00 28.15 LIG-0.40  OA
ATOM     26 HG   SER E  72      13.110  15.437  28.729  1.00 28.15 LIG 0.21  HD
ENDBRANCH 24 25
ENDBRANCH 20 24
ENDBRANCH 18 20
ENDBRANCH 15 16
BRANCH 15 27
ATOM     27  CB  ASP E  71      14.619  12.154  30.229  1.00 12.80 LIG 0.15  C 
BRANCH 27 28
ATOM     28  CG  ASP E  71      15.751  12.299  29.248  1.00 14.21 LIG 0.17  C 
ATOM     29 OD2  ASP E  71      16.583  11.392  29.099  1.00 15.44 LIG-0.65  OA
ATOM     30 OD1  ASP E  71      15.838  13.362  28.618  1.00 16.80 LIG-0.65  OA
ENDBRANCH 27 28
ENDBRANCH 15 27
ENDBRANCH 12 15
ENDBRANCH 10 11
BRANCH 10 31
ATOM     31  CB  CYS E  70      14.671   8.556  26.965  1.00 19.19 LIG 0.10  C 
BRANCH 31 32
ATOM     32 SG   CYS E  70      15.987   8.314  28.181  1.00 25.14 LIG-0.18  SA
ATOM     33 HG   CYS E  70      16.130   7.141  28.390  1.00 25.14 LIG 0.10  HD
ENDBRANCH 31 32
ENDBRANCH 10 31
ENDBRANCH 7 10
ENDBRANCH 5 6
BRANCH 5 34
ATOM     34  CB  THR E  69       9.208   8.349  25.059  1.00 17.77 LIG 0.15  C 
ATOM     35  CG2 THR E  69       9.634   9.650  25.646  1.00 20.71 LIG 0.04  C 
BRANCH 34 36
ATOM     36 OG1  THR E  69       9.048   8.553  23.667  1.00 16.43 LIG-0.39  OA
ATOM     37 HG1  THR E  69       9.791   8.468  23.284  1.00 16.43 LIG 0.21  HD
ENDBRANCH 34 36
ENDBRANCH 5 34
ENDBRANCH 3 5
BRANCH 1 38
ATOM     38  CA  ALA E  68       7.971   4.257  24.883  1.00 20.08 LIG 0.17  C 
ATOM     39  CB  ALA E  68       6.935   4.483  25.958  1.00 20.16 LIG 0.04  C 
BRANCH 38 40
ATOM     40  N   ALA E  68       8.894   3.236  25.295  1.00 18.16 LIG-0.35  N 
ATOM     41 H    ALA E  68       9.077   3.231  26.136  1.00 18.16 LIG 0.16  HD
ATOM     42  C   TRP E  67       9.399   2.391  24.418  1.00 18.88 LIG 0.24  C 
ATOM     43 O    TRP E  67       9.185   2.431  23.196  1.00 21.47 LIG-0.27  OA
BRANCH 42 44
ATOM     44  CA  TRP E  67      10.355   1.409  24.992  1.00 17.18 LIG 0.18  C 
BRANCH 44 45
ATOM     45  N   TRP E  67      10.101   0.010  24.495  1.00 16.72 LIG-0.35  N 
ATOM     46  C   PRO E  66       8.992  -0.700  24.755  1.00 16.87 LIG 0.24  C 
ATOM     47 O    PRO E  66       8.121  -0.343  25.546  1.00 18.41 LIG-0.27  OA
ATOM     48 H    TRP E  67      10.745  -0.300  24.018  1.00 16.72 LIG 0.16  HD
BRANCH 46 49
ATOM     49  CA  PRO E  66       8.825  -2.067  24.049  1.00 17.04 LIG 0.18  C 
ATOM     50  CB  PRO E  66       9.227  -3.238  24.961  1.00 18.40 LIG 0.04  C 
ATOM     51  CG  PRO E  66      10.565  -3.713  24.476  1.00 18.41 LIG 0.02  C 
ATOM     52  CD  PRO E  66      10.605  -3.400  23.006  1.00 21.21 LIG 0.13  C 
ATOM     53  N   PRO E  66       9.665  -2.280  22.853  1.00 19.82 LIG-0.34  N 
ATOM     54  C   ACE E  65       9.402  -1.536  21.733  1.00 17.72 LIG 0.22  C 
ATOM     55  CH3 ACE E  65      10.219  -1.808  20.537  1.00 22.93 LIG 0.12  C 
ATOM     56 O    ACE E  65       8.579  -0.652  21.693  1.00 18.13 LIG-0.27  OA
ENDBRANCH 46 49
ENDBRANCH 44 45
BRANCH 44 57
ATOM     57  CB  TRP E  67      11.825   1.831  24.730  1.00 18.36 LIG 0.07  C 
BRANCH 57 58
ATOM     58  CG  TRP E  67      12.395   1.273  23.527  1.00 19.51 LIG-0.03  A 
ATOM     59  CD1 TRP E  67      12.045   1.556  22.253  1.00 20.71 LIG 0.10  A 
ATOM     60  NE1 TRP E  67      12.815   0.840  21.384  1.00 21.73 LIG-0.36  N 
ATOM     61  CE2 TRP E  67      13.687   0.072  22.101  1.00 22.59 LIG 0.04  A 
ATOM     62 HE1  TRP E  67      12.760   0.868  20.526  1.00 21.73 LIG 0.17  HD
ATOM     63  CD2 TRP E  67      13.446   0.328  23.463  1.00 20.57 LIG-0.00  A 
ATOM     64  CZ2 TRP E  67      14.663  -0.816  21.676  1.00 23.91 LIG 0.03  A 
ATOM     65  CE3 TRP E  67      14.215  -0.332  24.422  1.00 19.56 LIG 0.01  A 
ATOM     66  CZ3 TRP E  67      15.169  -1.198  24.009  1.00 20.82 LIG 0.00  A 
ATOM     67  CH2 TRP E  67      15.397  -1.441  22.645  1.00 24.07 LIG 0.00  A 
ENDBRANCH 57 58
ENDBRANCH 44 57
ENDBRANCH 42 44
ENDBRANCH 38 40
ENDBRANCH 1 38
TORSDOF 23
ENDMDL
MODEL 30
USER: ADFR SOLUTION from run 39
USER: SCORE 19.684611 LL:  -6.549 LR: -14.684 RR:   0.000 FEB:  -7.823
USER: RMSD 6.011807
USER: SEED 38
USER: STATUS no improvement in best in 1 clusters for 5 generations
USER: GENES 25
USER: genes 0 Translation |==|  0.55160 0.57900 0.41832
USER: genes 1 Rotation |==|  0.76843 0.78565 0.65740 0.76754
USER: genes 2 Torsion [C]-N--CA-[C] |==|  0.46880
USER: genes 3 Torsion [N]-CA--C-[N] |==|  0.44089
USER: genes 4 Torsion [C]-N--CA-[C] |==|  0.74173
USER: genes 5 Torsion [N]-CA--C-[N] |==|  0.97310
USER: genes 6 Torsion [C]-N--CA-[C] |==|  0.66211
USER: genes 7 Torsion [N]-CA--C-[N] |==|  0.33966
USER: genes 8 Torsion [C]-N--CA-[CB] |==|  0.77196
USER: genes 9 Torsion [N]-CA--C-[N] |==|  0.15556
USER: genes 10 Torsion [N]-CA--CB-[OG] |==|  0.19194
USER: genes 11 Torsion [CA]-CB--OG-[HG] |==|  0.88093
USER: genes 12 Torsion [N]-CA--CB-[CG] |==|  0.54449
USER: genes 13 Torsion [CA]-CB--CG-[OD2] |==|  0.28589
USER: genes 14 Torsion [N]-CA--CB-[SG] |==|  0.74723
USER: genes 15 Torsion [CA]-CB--SG-[HG] |==|  0.07613
USER: genes 16 Torsion [N]-CA--CB-[OG1] |==|  0.50104
USER: genes 17 Torsion [CA]-CB--OG1-[HG1] |==|  0.61524
USER: genes 18 Torsion [N]-C--CA-[N] |==|  0.43362
USER: genes 19 Torsion [C]-CA--N-[C] |==|  0.80186
USER: genes 20 Torsion [N]-C--CA-[N] |==|  0.97283
USER: genes 21 Torsion [C]-CA--N-[C] |==|  0.79332
USER: genes 22 Torsion [N]-C--CA-[N] |==|  0.95527
USER: genes 23 Torsion [C]-CA--CB-[CG] |==|  0.72402
USER: genes 24 Torsion [CA]-CB--CG-[CD2] |==|  0.77763
ROOT
ATOM      1  C   ALA E  68       8.213   5.691  26.472  1.00 21.38 LIG 0.24  C 
ATOM      2 O    ALA E  68       7.961   6.290  25.420  1.00 23.30 LIG-0.27  OA
ATOM      3  N   THR E  69       7.940   4.396  26.665  1.00 18.30 LIG-0.34  N 
ATOM      4 H    THR E  69       8.014   3.996  27.422  1.00 18.30 LIG 0.16  HD
ENDROOT
BRANCH 3 5
ATOM      5  CA  THR E  69       7.483   3.544  25.569  1.00 19.45 LIG 0.20  C 
BRANCH 5 6
ATOM      6  C   THR E  69       7.500   2.053  25.958  1.00 19.66 LIG 0.24  C 
ATOM      7  N   CYS E  70       6.730   1.243  25.254  1.00 18.57 LIG-0.34  N 
ATOM      8 H    CYS E  70       6.277   1.487  24.565  1.00 18.57 LIG 0.16  HD
ATOM      9 O    THR E  69       8.176   1.655  26.885  1.00 20.15 LIG-0.27  OA
BRANCH 7 10
ATOM     10  CA  CYS E  70       6.590  -0.160  25.603  1.00 18.45 LIG 0.18  C 
BRANCH 10 11
ATOM     11  C   CYS E  70       7.627  -0.914  24.793  1.00 19.42 LIG 0.24  C 
ATOM     12  N   ASP E  71       8.257  -0.206  23.839  1.00 17.61 LIG-0.34  N 
ATOM     13 H    ASP E  71       8.073   0.615  23.661  1.00 17.61 LIG 0.16  HD
ATOM     14 O    CYS E  70       7.809  -2.116  25.013  1.00 18.07 LIG-0.27  OA
BRANCH 12 15
ATOM     15  CA  ASP E  71       9.314  -0.759  23.015  1.00 16.95 LIG 0.19  C 
BRANCH 15 16
ATOM     16  C   ASP E  71      10.488   0.136  23.272  1.00 18.90 LIG 0.24  C 
ATOM     17 O    ASP E  71      10.397   1.365  23.027  1.00 16.52 LIG-0.27  OA
ATOM     18  N   SER E  72      11.589  -0.457  23.736  1.00 19.80 LIG-0.34  N 
ATOM     19 H    SER E  72      11.673  -1.306  23.843  1.00 19.80 LIG 0.16  HD
BRANCH 18 20
ATOM     20  CA  SER E  72      12.764   0.324  24.107  1.00 20.01 LIG 0.20  C 
BRANCH 20 21
ATOM     21  C   SER E  72      12.443   1.590  24.836  1.00 24.22 LIG 0.29  C 
ATOM     22  N   NH2 E  73      11.687   1.432  25.979  1.00 28.43 LIG-0.11  N 
ATOM     23 O    SER E  72      12.628   2.670  24.322  1.00 27.83 LIG-0.27  OA
ENDBRANCH 20 21
BRANCH 20 24
ATOM     24  CB  SER E  72      13.582   0.650  22.880  1.00 25.59 LIG 0.20  C 
BRANCH 24 25
ATOM     25 OG   SER E  72      12.905   1.565  22.053  1.00 28.15 LIG-0.40  OA
ATOM     26 HG   SER E  72      12.095   1.349  21.999  1.00 28.15 LIG 0.21  HD
ENDBRANCH 24 25
ENDBRANCH 20 24
ENDBRANCH 18 20
ENDBRANCH 15 16
BRANCH 15 27
ATOM     27  CB  ASP E  71       8.903  -0.786  21.534  1.00 12.80 LIG 0.15  C 
BRANCH 27 28
ATOM     28  CG  ASP E  71       9.789  -1.687  20.718  1.00 14.21 LIG 0.17  C 
ATOM     29 OD2  ASP E  71       9.403  -2.812  20.369  1.00 15.44 LIG-0.65  OA
ATOM     30 OD1  ASP E  71      10.923  -1.279  20.433  1.00 16.80 LIG-0.65  OA
ENDBRANCH 27 28
ENDBRANCH 15 27
ENDBRANCH 12 15
ENDBRANCH 10 11
BRANCH 10 31
ATOM     31  CB  CYS E  70       5.152  -0.671  25.313  1.00 19.19 LIG 0.10  C 
BRANCH 31 32
ATOM     32 SG   CYS E  70       3.956  -0.547  26.664  1.00 25.14 LIG-0.18  SA
ATOM     33 HG   CYS E  70       4.262   0.360  27.388  1.00 25.14 LIG 0.10  HD
ENDBRANCH 31 32
ENDBRANCH 10 31
ENDBRANCH 7 10
ENDBRANCH 5 6
BRANCH 5 34
ATOM     34  CB  THR E  69       8.308   3.816  24.299  1.00 17.77 LIG 0.15  C 
ATOM     35  CG2 THR E  69       9.741   3.489  24.541  1.00 20.71 LIG 0.04  C 
BRANCH 34 36
ATOM     36 OG1  THR E  69       7.871   3.003  23.225  1.00 16.43 LIG-0.39  OA
ATOM     37 HG1  THR E  69       8.537   2.713  22.804  1.00 16.43 LIG 0.21  HD
ENDBRANCH 34 36
ENDBRANCH 5 34
ENDBRANCH 3 5
BRANCH 1 38
ATOM     38  CA  ALA E  68       8.875   6.443  27.623  1.00 20.08 LIG 0.17  C 
ATOM     39  CB  ALA E  68       7.841   6.874  28.636  1.00 20.16 LIG 0.04  C 
BRANCH 38 40
ATOM     40  N   ALA E  68       9.594   7.587  27.135  1.00 18.16 LIG-0.35  N 
ATOM     41 H    ALA E  68       9.237   8.347  27.324  1.00 18.16 LIG 0.16  HD
ATOM     42  C   TRP E  67      10.713   7.439  26.454  1.00 18.88 LIG 0.24  C 
ATOM     43 O    TRP E  67      11.201   6.345  26.129  1.00 21.47 LIG-0.27  OA
BRANCH 42 44
ATOM     44  CA  TRP E  67      11.327   8.713  25.998  1.00 17.18 LIG 0.18  C 
BRANCH 44 45
ATOM     45  N   TRP E  67      10.414   9.892  26.211  1.00 16.72 LIG-0.35  N 
ATOM     46  C   PRO E  66       9.332  10.161  25.465  1.00 16.87 LIG 0.24  C 
ATOM     47 O    PRO E  66       9.043   9.555  24.435  1.00 18.41 LIG-0.27  OA
ATOM     48 H    TRP E  67      10.655  10.390  26.869  1.00 16.72 LIG 0.16  HD
BRANCH 46 49
ATOM     49  CA  PRO E  66       8.420  11.332  25.906  1.00 17.04 LIG 0.18  C 
ATOM     50  CB  PRO E  66       8.668  12.600  25.072  1.00 18.40 LIG 0.04  C 
ATOM     51  CG  PRO E  66       9.450  13.536  25.947  1.00 18.41 LIG 0.02  C 
ATOM     52  CD  PRO E  66       9.052  13.207  27.359  1.00 21.21 LIG 0.13  C 
ATOM     53  N   PRO E  66       8.609  11.808  27.291  1.00 19.82 LIG-0.34  N 
ATOM     54  C   ACE E  65       8.244  10.979  28.319  1.00 17.72 LIG 0.22  C 
ATOM     55  CH3 ACE E  65       8.392  11.501  29.689  1.00 22.93 LIG 0.12  C 
ATOM     56 O    ACE E  65       7.855   9.845  28.161  1.00 18.13 LIG-0.27  OA
ENDBRANCH 46 49
ENDBRANCH 44 45
BRANCH 44 57
ATOM     57  CB  TRP E  67      12.703   8.950  26.672  1.00 18.36 LIG 0.07  C 
BRANCH 57 58
ATOM     58  CG  TRP E  67      12.665   9.855  27.795  1.00 19.51 LIG-0.03  A 
ATOM     59  CD1 TRP E  67      12.662   9.526  29.106  1.00 20.71 LIG 0.10  A 
ATOM     60  NE1 TRP E  67      12.631  10.653  29.873  1.00 21.73 LIG-0.36  N 
ATOM     61  CE2 TRP E  67      12.613  11.743  29.052  1.00 22.59 LIG 0.04  A 
ATOM     62 HE1  TRP E  67      12.624  10.673  30.734  1.00 21.73 LIG 0.17  HD
ATOM     63  CD2 TRP E  67      12.637  11.268  27.728  1.00 20.57 LIG-0.00  A 
ATOM     64  CZ2 TRP E  67      12.583  13.096  29.353  1.00 23.91 LIG 0.03  A 
ATOM     65  CE3 TRP E  67      12.632  12.187  26.679  1.00 19.56 LIG 0.01  A 
ATOM     66  CZ3 TRP E  67      12.603  13.508  26.970  1.00 20.82 LIG 0.00  A 
ATOM     67  CH2 TRP E  67      12.581  13.966  28.298  1.00 24.07 LIG 0.00  A 
ENDBRANCH 57 58
ENDBRANCH 44 57
ENDBRANCH 42 44
ENDBRANCH 38 40
ENDBRANCH 1 38
TORSDOF 23
ENDMDL
MODEL 31
USER: ADFR SOLUTION from run 122
USER: SCORE 18.844476 LL:  -5.537 LR: -14.684 RR:   0.000 FEB:  -7.823
USER: RMSD 5.890331
USER: SEED 121
USER: STATUS no improvement in best in 1 clusters for 5 generations
USER: GENES 25
USER: genes 0 Translation |==|  0.54334 0.53961 0.40530
USER: genes 1 Rotation |==|  0.75310 0.88635 0.64475 0.62541
USER: genes 2 Torsion [C]-N--CA-[C] |==|  0.57230
USER: genes 3 Torsion [N]-CA--C-[N] |==|  0.46317
USER: genes 4 Torsion [C]-N--CA-[C] |==|  0.78148
USER: genes 5 Torsion [N]-CA--C-[N] |==|  0.89393
USER: genes 6 Torsion [C]-N--CA-[C] |==|  0.63800
USER: genes 7 Torsion [N]-CA--C-[N] |==|  0.36556
USER: genes 8 Torsion [C]-N--CA-[CB] |==|  0.77680
USER: genes 9 Torsion [N]-CA--C-[N] |==|  0.14916
USER: genes 10 Torsion [N]-CA--CB-[OG] |==|  0.17838
USER: genes 11 Torsion [CA]-CB--OG-[HG] |==|  0.12914
USER: genes 12 Torsion [N]-CA--CB-[CG] |==|  0.35824
USER: genes 13 Torsion [CA]-CB--CG-[OD2] |==|  0.67639
USER: genes 14 Torsion [N]-CA--CB-[SG] |==|  0.88178
USER: genes 15 Torsion [CA]-CB--SG-[HG] |==|  0.17276
USER: genes 16 Torsion [N]-CA--CB-[OG1] |==|  0.79133
USER: genes 17 Torsion [CA]-CB--OG1-[HG1] |==|  0.63999
USER: genes 18 Torsion [N]-C--CA-[N] |==|  0.49264
USER: genes 19 Torsion [C]-CA--N-[C] |==|  0.55871
USER: genes 20 Torsion [N]-C--CA-[N] |==|  0.34724
USER: genes 21 Torsion [C]-CA--N-[C] |==|  0.62779
USER: genes 22 Torsion [N]-C--CA-[N] |==|  0.07424
USER: genes 23 Torsion [C]-CA--CB-[CG] |==|  0.60786
USER: genes 24 Torsion [CA]-CB--CG-[CD2] |==|  0.22899
ROOT
ATOM      1  C   ALA E  68       8.046   4.569  26.276  1.00 21.38 LIG 0.24  C 
ATOM      2 O    ALA E  68       7.079   5.010  25.646  1.00 23.30 LIG-0.27  OA
ATOM      3  N   THR E  69       8.388   3.276  26.288  1.00 18.30 LIG-0.34  N 
ATOM      4 H    THR E  69       8.992   2.942  26.802  1.00 18.30 LIG 0.16  HD
ENDROOT
BRANCH 3 5
ATOM      5  CA  THR E  69       7.743   2.310  25.402  1.00 19.45 LIG 0.20  C 
BRANCH 5 6
ATOM      6  C   THR E  69       7.786   0.883  25.980  1.00 19.66 LIG 0.24  C 
ATOM      7  N   CYS E  70       7.009  -0.018  25.408  1.00 18.57 LIG-0.34  N 
ATOM      8 H    CYS E  70       6.537   0.129  24.705  1.00 18.57 LIG 0.16  HD
ATOM      9 O    THR E  69       8.489   0.614  26.935  1.00 20.15 LIG-0.27  OA
BRANCH 7 10
ATOM     10  CA  CYS E  70       6.893  -1.365  25.941  1.00 18.45 LIG 0.18  C 
BRANCH 10 11
ATOM     11  C   CYS E  70       8.131  -2.118  25.489  1.00 19.42 LIG 0.24  C 
ATOM     12  N   ASP E  71       8.563  -1.846  24.245  1.00 17.61 LIG-0.34  N 
ATOM     13 H    ASP E  71       8.157  -1.308  23.711  1.00 17.61 LIG 0.16  HD
ATOM     14 O    CYS E  70       8.642  -2.949  26.247  1.00 18.07 LIG-0.27  OA
BRANCH 12 15
ATOM     15  CA  ASP E  71       9.762  -2.435  23.681  1.00 16.95 LIG 0.19  C 
BRANCH 15 16
ATOM     16  C   ASP E  71      10.523  -1.266  23.132  1.00 18.90 LIG 0.24  C 
ATOM     17 O    ASP E  71       9.937  -0.435  22.395  1.00 16.52 LIG-0.27  OA
ATOM     18  N   SER E  72      11.815  -1.201  23.457  1.00 19.80 LIG-0.34  N 
ATOM     19 H    SER E  72      12.232  -1.804  23.908  1.00 19.80 LIG 0.16  HD
BRANCH 18 20
ATOM     20  CA  SER E  72      12.635  -0.063  23.056  1.00 20.01 LIG 0.20  C 
BRANCH 20 21
ATOM     21  C   SER E  72      11.957   1.260  23.225  1.00 24.22 LIG 0.29  C 
ATOM     22  N   NH2 E  73      11.455   1.502  24.486  1.00 28.43 LIG-0.11  N 
ATOM     23 O    SER E  72      11.668   1.940  22.267  1.00 27.83 LIG-0.27  OA
ENDBRANCH 20 21
BRANCH 20 24
ATOM     24  CB  SER E  72      13.072  -0.218  21.618  1.00 25.59 LIG 0.20  C 
BRANCH 24 25
ATOM     25 OG   SER E  72      11.966  -0.191  20.750  1.00 28.15 LIG-0.40  OA
ATOM     26 HG   SER E  72      11.462   0.449  20.958  1.00 28.15 LIG 0.21  HD
ENDBRANCH 24 25
ENDBRANCH 20 24
ENDBRANCH 18 20
ENDBRANCH 15 16
BRANCH 15 27
ATOM     27  CB  ASP E  71       9.412  -3.473  22.603  1.00 12.80 LIG 0.15  C 
BRANCH 27 28
ATOM     28  CG  ASP E  71      10.164  -3.231  21.322  1.00 14.21 LIG 0.17  C 
ATOM     29 OD2  ASP E  71       9.563  -2.946  20.276  1.00 15.44 LIG-0.65  OA
ATOM     30 OD1  ASP E  71      11.397  -3.353  21.343  1.00 16.80 LIG-0.65  OA
ENDBRANCH 27 28
ENDBRANCH 15 27
ENDBRANCH 12 15
ENDBRANCH 10 11
BRANCH 10 31
ATOM     31  CB  CYS E  70       5.590  -2.054  25.449  1.00 19.19 LIG 0.10  C 
BRANCH 31 32
ATOM     32 SG   CYS E  70       4.089  -1.047  25.447  1.00 25.14 LIG-0.18  SA
ATOM     33 HG   CYS E  70       4.229  -0.120  24.697  1.00 25.14 LIG 0.10  HD
ENDBRANCH 31 32
ENDBRANCH 10 31
ENDBRANCH 7 10
ENDBRANCH 5 6
BRANCH 5 34
ATOM     34  CB  THR E  69       8.362   2.378  23.994  1.00 17.77 LIG 0.15  C 
ATOM     35  CG2 THR E  69       7.945   1.192  23.195  1.00 20.71 LIG 0.04  C 
BRANCH 34 36
ATOM     36 OG1  THR E  69       7.917   3.527  23.298  1.00 16.43 LIG-0.39  OA
ATOM     37 HG1  THR E  69       7.637   3.304  22.539  1.00 16.43 LIG 0.21  HD
ENDBRANCH 34 36
ENDBRANCH 5 34
ENDBRANCH 3 5
BRANCH 1 38
ATOM     38  CA  ALA E  68       8.913   5.527  27.087  1.00 20.08 LIG 0.17  C 
ATOM     39  CB  ALA E  68       8.899   5.145  28.548  1.00 20.16 LIG 0.04  C 
BRANCH 38 40
ATOM     40  N   ALA E  68       8.460   6.881  26.928  1.00 18.16 LIG-0.35  N 
ATOM     41 H    ALA E  68       7.644   6.961  26.665  1.00 18.16 LIG 0.16  HD
ATOM     42  C   TRP E  67       9.265   7.895  27.177  1.00 18.88 LIG 0.24  C 
ATOM     43 O    TRP E  67      10.458   7.784  27.501  1.00 21.47 LIG-0.27  OA
BRANCH 42 44
ATOM     44  CA  TRP E  67       8.659   9.231  26.945  1.00 17.18 LIG 0.18  C 
BRANCH 44 45
ATOM     45  N   TRP E  67       8.747  10.115  28.161  1.00 16.72 LIG-0.35  N 
ATOM     46  C   PRO E  66       7.732  10.849  28.644  1.00 16.87 LIG 0.24  C 
ATOM     47 O    PRO E  66       6.657  10.993  28.066  1.00 18.41 LIG-0.27  OA
ATOM     48 H    TRP E  67       9.525  10.107  28.527  1.00 16.72 LIG 0.16  HD
BRANCH 46 49
ATOM     49  CA  PRO E  66       7.948  11.590  29.986  1.00 17.04 LIG 0.18  C 
ATOM     50  CB  PRO E  66       7.238  12.954  30.010  1.00 18.40 LIG 0.04  C 
ATOM     51  CG  PRO E  66       8.309  13.992  29.837  1.00 18.41 LIG 0.02  C 
ATOM     52  CD  PRO E  66       9.559  13.392  30.416  1.00 21.21 LIG 0.13  C 
ATOM     53  N   PRO E  66       9.346  11.942  30.309  1.00 19.82 LIG-0.34  N 
ATOM     54  C   ACE E  65      10.222  10.928  30.591  1.00 17.72 LIG 0.22  C 
ATOM     55  CH3 ACE E  65      11.596  11.311  30.964  1.00 22.93 LIG 0.12  C 
ATOM     56 O    ACE E  65       9.942   9.755  30.507  1.00 18.13 LIG-0.27  OA
ENDBRANCH 46 49
ENDBRANCH 44 45
BRANCH 44 57
ATOM     57  CB  TRP E  67       9.285   9.928  25.708  1.00 18.36 LIG 0.07  C 
BRANCH 57 58
ATOM     58  CG  TRP E  67       9.486  11.348  25.867  1.00 19.51 LIG-0.03  A 
ATOM     59  CD1 TRP E  67       8.668  12.338  25.446  1.00 20.71 LIG 0.10  A 
ATOM     60  NE1 TRP E  67       9.187  13.552  25.787  1.00 21.73 LIG-0.36  N 
ATOM     61  CE2 TRP E  67      10.367  13.357  26.445  1.00 22.59 LIG 0.04  A 
ATOM     62 HE1  TRP E  67       8.829  14.316  25.616  1.00 21.73 LIG 0.17  HD
ATOM     63  CD2 TRP E  67      10.581  11.968  26.514  1.00 20.57 LIG-0.00  A 
ATOM     64  CZ2 TRP E  67      11.257  14.271  26.986  1.00 23.91 LIG 0.03  A 
ATOM     65  CE3 TRP E  67      11.727  11.490  27.149  1.00 19.56 LIG 0.01  A 
ATOM     66  CZ3 TRP E  67      12.598  12.381  27.679  1.00 20.82 LIG 0.00  A 
ATOM     67  CH2 TRP E  67      12.368  13.765  27.602  1.00 24.07 LIG 0.00  A 
ENDBRANCH 57 58
ENDBRANCH 44 57
ENDBRANCH 42 44
ENDBRANCH 38 40
ENDBRANCH 1 38
TORSDOF 23
ENDMDL
MODEL 32
USER: ADFR SOLUTION from run 145
USER: SCORE 17.545564 LL:  -4.441 LR: -14.672 RR:   0.000 FEB:  -7.811
USER: RMSD 3.495512
USER: SEED 144
USER: STATUS no improvement in best in 8 clusters for 5 generations
USER: GENES 25
USER: genes 0 Translation |==|  0.58823 0.50759 0.30090
USER: genes 1 Rotation |==|  0.70708 0.85327 0.75538 0.63076
USER: genes 2 Torsion [C]-N--CA-[C] |==|  0.71819
USER: genes 3 Torsion [N]-CA--C-[N] |==|  0.97367
USER: genes 4 Torsion [C]-N--CA-[C] |==|  0.60359
USER: genes 5 Torsion [N]-CA--C-[N] |==|  0.33606
USER: genes 6 Torsion [C]-N--CA-[C] |==|  0.71829
USER: genes 7 Torsion [N]-CA--C-[N] |==|  0.80930
USER: genes 8 Torsion [C]-N--CA-[CB] |==|  0.77192
USER: genes 9 Torsion [N]-CA--C-[N] |==|  0.17229
USER: genes 10 Torsion [N]-CA--CB-[OG] |==|  0.88053
USER: genes 11 Torsion [CA]-CB--OG-[HG] |==|  0.53717
USER: genes 12 Torsion [N]-CA--CB-[CG] |==|  0.51893
USER: genes 13 Torsion [CA]-CB--CG-[OD2] |==|  0.38418
USER: genes 14 Torsion [N]-CA--CB-[SG] |==|  0.83537
USER: genes 15 Torsion [CA]-CB--SG-[HG] |==|  0.35351
USER: genes 16 Torsion [N]-CA--CB-[OG1] |==|  0.89910
USER: genes 17 Torsion [CA]-CB--OG1-[HG1] |==|  0.21196
USER: genes 18 Torsion [N]-C--CA-[N] |==|  0.45263
USER: genes 19 Torsion [C]-CA--N-[C] |==|  0.54760
USER: genes 20 Torsion [N]-C--CA-[N] |==|  0.41210
USER: genes 21 Torsion [C]-CA--N-[C] |==|  0.60371
USER: genes 22 Torsion [N]-C--CA-[N] |==|  0.63627
USER: genes 23 Torsion [C]-CA--CB-[CG] |==|  0.69044
USER: genes 24 Torsion [CA]-CB--CG-[CD2] |==|  0.74164
ROOT
ATOM      1  C   ALA E  68       8.955   3.656  24.710  1.00 21.38 LIG 0.24  C 
ATOM      2 O    ALA E  68       8.136   4.166  23.937  1.00 23.30 LIG-0.27  OA
ATOM      3  N   THR E  69       9.564   2.490  24.473  1.00 18.30 LIG-0.34  N 
ATOM      4 H    THR E  69      10.054   2.076  25.046  1.00 18.30 LIG 0.16  HD
ENDROOT
BRANCH 3 5
ATOM      5  CA  THR E  69       9.438   1.815  23.182  1.00 19.45 LIG 0.20  C 
BRANCH 5 6
ATOM      6  C   THR E  69       8.427   0.655  23.239  1.00 19.66 LIG 0.24  C 
ATOM      7  N   CYS E  70       7.978   0.310  24.432  1.00 18.57 LIG-0.34  N 
ATOM      8 H    CYS E  70       8.168   0.730  25.158  1.00 18.57 LIG 0.16  HD
ATOM      9 O    THR E  69       8.081   0.075  22.229  1.00 20.15 LIG-0.27  OA
BRANCH 7 10
ATOM     10  CA  CYS E  70       7.104  -0.838  24.609  1.00 18.45 LIG 0.18  C 
BRANCH 10 11
ATOM     11  C   CYS E  70       6.104  -0.458  25.685  1.00 19.42 LIG 0.24  C 
ATOM     12  N   ASP E  71       4.810  -0.496  25.325  1.00 17.61 LIG-0.34  N 
ATOM     13 H    ASP E  71       4.546  -0.687  24.529  1.00 17.61 LIG 0.16  HD
ATOM     14 O    CYS E  70       6.517  -0.105  26.795  1.00 18.07 LIG-0.27  OA
BRANCH 12 15
ATOM     15  CA  ASP E  71       3.726  -0.218  26.248  1.00 16.95 LIG 0.19  C 
BRANCH 15 16
ATOM     16  C   ASP E  71       3.204  -1.573  26.620  1.00 18.90 LIG 0.24  C 
ATOM     17 O    ASP E  71       3.388  -2.010  27.783  1.00 16.52 LIG-0.27  OA
ATOM     18  N   SER E  72       2.580  -2.249  25.654  1.00 19.80 LIG-0.34  N 
ATOM     19 H    SER E  72       2.511  -1.978  24.841  1.00 19.80 LIG 0.16  HD
BRANCH 18 20
ATOM     20  CA  SER E  72       1.953  -3.538  25.923  1.00 20.01 LIG 0.20  C 
BRANCH 20 21
ATOM     21  C   SER E  72       1.222  -3.595  27.228  1.00 24.22 LIG 0.29  C 
ATOM     22  N   NH2 E  73       0.165  -2.716  27.344  1.00 28.43 LIG-0.11  N 
ATOM     23 O    SER E  72       1.683  -4.189  28.176  1.00 27.83 LIG-0.27  OA
ENDBRANCH 20 21
BRANCH 20 24
ATOM     24  CB  SER E  72       2.986  -4.639  25.885  1.00 25.59 LIG 0.20  C 
BRANCH 24 25
ATOM     25 OG   SER E  72       3.863  -4.469  24.799  1.00 28.15 LIG-0.40  OA
ATOM     26 HG   SER E  72       4.308  -5.173  24.684  1.00 28.15 LIG 0.21  HD
ENDBRANCH 24 25
ENDBRANCH 20 24
ENDBRANCH 18 20
ENDBRANCH 15 16
BRANCH 15 27
ATOM     27  CB  ASP E  71       2.656   0.669  25.592  1.00 12.80 LIG 0.15  C 
BRANCH 27 28
ATOM     28  CG  ASP E  71       1.605   1.106  26.577  1.00 14.21 LIG 0.17  C 
ATOM     29 OD2  ASP E  71       1.172   2.267  26.570  1.00 15.44 LIG-0.65  OA
ATOM     30 OD1  ASP E  71       1.211   0.277  27.408  1.00 16.80 LIG-0.65  OA
ENDBRANCH 27 28
ENDBRANCH 15 27
ENDBRANCH 12 15
ENDBRANCH 10 11
BRANCH 10 31
ATOM     31  CB  CYS E  70       7.914  -2.105  24.998  1.00 19.19 LIG 0.10  C 
BRANCH 31 32
ATOM     32 SG   CYS E  70       9.182  -2.650  23.831  1.00 25.14 LIG-0.18  SA
ATOM     33 HG   CYS E  70      10.229  -2.777  24.406  1.00 25.14 LIG 0.10  HD
ENDBRANCH 31 32
ENDBRANCH 10 31
ENDBRANCH 7 10
ENDBRANCH 5 6
BRANCH 5 34
ATOM     34  CB  THR E  69      10.819   1.349  22.685  1.00 17.77 LIG 0.15  C 
ATOM     35  CG2 THR E  69      10.815   1.235  21.200  1.00 20.71 LIG 0.04  C 
BRANCH 34 36
ATOM     36 OG1  THR E  69      11.825   2.285  23.028  1.00 16.43 LIG-0.39  OA
ATOM     37 HG1  THR E  69      12.010   2.210  23.844  1.00 16.43 LIG 0.21  HD
ENDBRANCH 34 36
ENDBRANCH 5 34
ENDBRANCH 3 5
BRANCH 1 38
ATOM     38  CA  ALA E  68       9.311   4.376  26.008  1.00 20.08 LIG 0.17  C 
ATOM     39  CB  ALA E  68       8.657   3.696  27.186  1.00 20.16 LIG 0.04  C 
BRANCH 38 40
ATOM     40  N   ALA E  68       8.909   5.755  25.950  1.00 18.16 LIG-0.35  N 
ATOM     41 H    ALA E  68       8.337   5.939  25.334  1.00 18.16 LIG 0.16  HD
ATOM     42  C   TRP E  67       9.403   6.637  26.797  1.00 18.88 LIG 0.24  C 
ATOM     43 O    TRP E  67      10.270   6.386  27.649  1.00 21.47 LIG-0.27  OA
BRANCH 42 44
ATOM     44  CA  TRP E  67       8.908   8.023  26.596  1.00 17.18 LIG 0.18  C 
BRANCH 44 45
ATOM     45  N   TRP E  67       8.833   8.792  27.889  1.00 16.72 LIG-0.35  N 
ATOM     46  C   PRO E  66       7.867   9.672  28.196  1.00 16.87 LIG 0.24  C 
ATOM     47 O    PRO E  66       7.013  10.056  27.399  1.00 18.41 LIG-0.27  OA
ATOM     48 H    TRP E  67       9.480   8.612  28.426  1.00 16.72 LIG 0.16  HD
BRANCH 46 49
ATOM     49  CA  PRO E  66       7.858  10.269  29.624  1.00 17.04 LIG 0.18  C 
ATOM     50  CB  PRO E  66       8.785   9.495  30.577  1.00 18.40 LIG 0.04  C 
ATOM     51  CG  PRO E  66       7.894   8.667  31.455  1.00 18.41 LIG 0.02  C 
ATOM     52  CD  PRO E  66       6.598   9.421  31.553  1.00 21.21 LIG 0.13  C 
ATOM     53  N   PRO E  66       6.561  10.232  30.328  1.00 19.82 LIG-0.34  N 
ATOM     54  C   ACE E  65       5.546  11.026  29.862  1.00 17.72 LIG 0.22  C 
ATOM     55  CH3 ACE E  65       4.280  11.011  30.616  1.00 22.93 LIG 0.12  C 
ATOM     56 O    ACE E  65       5.622  11.690  28.855  1.00 18.13 LIG-0.27  OA
ENDBRANCH 46 49
ENDBRANCH 44 45
BRANCH 44 57
ATOM     57  CB  TRP E  67       9.765   8.783  25.550  1.00 18.36 LIG 0.07  C 
BRANCH 57 58
ATOM     58  CG  TRP E  67      10.558   9.856  26.100  1.00 19.51 LIG-0.03  A 
ATOM     59  CD1 TRP E  67      11.803   9.766  26.616  1.00 20.71 LIG 0.10  A 
ATOM     60  NE1 TRP E  67      12.231  10.994  27.028  1.00 21.73 LIG-0.36  N 
ATOM     61  CE2 TRP E  67      11.248  11.908  26.778  1.00 22.59 LIG 0.04  A 
ATOM     62 HE1  TRP E  67      12.994  11.163  27.387  1.00 21.73 LIG 0.17  HD
ATOM     63  CD2 TRP E  67      10.176  11.216  26.186  1.00 20.57 LIG-0.00  A 
ATOM     64  CZ2 TRP E  67      11.209  13.273  27.013  1.00 23.91 LIG 0.03  A 
ATOM     65  CE3 TRP E  67       9.032  11.925  25.820  1.00 19.56 LIG 0.01  A 
ATOM     66  CZ3 TRP E  67       8.992  13.258  26.048  1.00 20.82 LIG 0.00  A 
ATOM     67  CH2 TRP E  67      10.072  13.934  26.639  1.00 24.07 LIG 0.00  A 
ENDBRANCH 57 58
ENDBRANCH 44 57
ENDBRANCH 42 44
ENDBRANCH 38 40
ENDBRANCH 1 38
TORSDOF 23
ENDMDL
MODEL 33
USER: ADFR SOLUTION from run 117
USER: SCORE 17.628114 LL:  -5.510 LR: -14.653 RR:   0.000 FEB:  -7.792
USER: RMSD 6.760137
USER: SEED 116
USER: STATUS no improvement in best in 8 clusters for 5 generations
USER: GENES 25
USER: genes 0 Translation |==|  0.57847 0.55684 0.30121
USER: genes 1 Rotation |==|  0.39609 0.35329 0.65829 0.93889
USER: genes 2 Torsion [C]-N--CA-[C] |==|  0.61974
USER: genes 3 Torsion [N]-CA--C-[N] |==|  0.25741
USER: genes 4 Torsion [C]-N--CA-[C] |==|  0.74595
USER: genes 5 Torsion [N]-CA--C-[N] |==|  0.56405
USER: genes 6 Torsion [C]-N--CA-[C] |==|  0.70449
USER: genes 7 Torsion [N]-CA--C-[N] |==|  0.24574
USER: genes 8 Torsion [C]-N--CA-[CB] |==|  0.84346
USER: genes 9 Torsion [N]-CA--C-[N] |==|  0.30816
USER: genes 10 Torsion [N]-CA--CB-[OG] |==|  0.84605
USER: genes 11 Torsion [CA]-CB--OG-[HG] |==|  0.35349
USER: genes 12 Torsion [N]-CA--CB-[CG] |==|  0.48257
USER: genes 13 Torsion [CA]-CB--CG-[OD2] |==|  0.05779
USER: genes 14 Torsion [N]-CA--CB-[SG] |==|  0.12366
USER: genes 15 Torsion [CA]-CB--SG-[HG] |==|  0.47776
USER: genes 16 Torsion [N]-CA--CB-[OG1] |==|  0.15207
USER: genes 17 Torsion [CA]-CB--OG1-[HG1] |==|  0.16478
USER: genes 18 Torsion [N]-C--CA-[N] |==|  0.54391
USER: genes 19 Torsion [C]-CA--N-[C] |==|  0.76197
USER: genes 20 Torsion [N]-C--CA-[N] |==|  0.38137
USER: genes 21 Torsion [C]-CA--N-[C] |==|  0.81422
USER: genes 22 Torsion [N]-C--CA-[N] |==|  0.02129
USER: genes 23 Torsion [C]-CA--CB-[CG] |==|  0.66044
USER: genes 24 Torsion [CA]-CB--CG-[CD2] |==|  0.81384
ROOT
ATOM      1  C   ALA E  68       8.757   5.060  24.715  1.00 21.38 LIG 0.24  C 
ATOM      2 O    ALA E  68       9.751   4.938  25.440  1.00 23.30 LIG-0.27  OA
ATOM      3  N   THR E  69       8.024   4.025  24.292  1.00 18.30 LIG-0.34  N 
ATOM      4 H    THR E  69       7.396   4.086  23.707  1.00 18.30 LIG 0.16  HD
ENDROOT
BRANCH 3 5
ATOM      5  CA  THR E  69       8.243   2.675  24.809  1.00 19.45 LIG 0.20  C 
BRANCH 5 6
ATOM      6  C   THR E  69       8.210   1.620  23.687  1.00 19.66 LIG 0.24  C 
ATOM      7  N   CYS E  70       9.366   1.300  23.134  1.00 18.57 LIG-0.34  N 
ATOM      8 H    CYS E  70      10.128   1.596  23.403  1.00 18.57 LIG 0.16  HD
ATOM      9 O    THR E  69       7.163   1.128  23.319  1.00 20.15 LIG-0.27  OA
BRANCH 7 10
ATOM     10  CA  CYS E  70       9.437   0.396  21.998  1.00 18.45 LIG 0.18  C 
BRANCH 10 11
ATOM     11  C   CYS E  70       9.615  -1.000  22.565  1.00 19.42 LIG 0.24  C 
ATOM     12  N   ASP E  71      10.172  -1.903  21.740  1.00 17.61 LIG-0.34  N 
ATOM     13 H    ASP E  71      10.388  -1.729  20.926  1.00 17.61 LIG 0.16  HD
ATOM     14 O    CYS E  70       9.215  -1.242  23.709  1.00 18.07 LIG-0.27  OA
BRANCH 12 15
ATOM     15  CA  ASP E  71      10.463  -3.265  22.144  1.00 16.95 LIG 0.19  C 
BRANCH 15 16
ATOM     16  C   ASP E  71      11.954  -3.293  22.294  1.00 18.90 LIG 0.24  C 
ATOM     17 O    ASP E  71      12.670  -3.641  21.322  1.00 16.52 LIG-0.27  OA
ATOM     18  N   SER E  72      12.431  -2.955  23.493  1.00 19.80 LIG-0.34  N 
ATOM     19 H    SER E  72      11.940  -2.779  24.177  1.00 19.80 LIG 0.16  HD
BRANCH 18 20
ATOM     20  CA  SER E  72      13.867  -2.860  23.733  1.00 20.01 LIG 0.20  C 
BRANCH 20 21
ATOM     21  C   SER E  72      14.531  -1.747  22.986  1.00 24.22 LIG 0.29  C 
ATOM     22  N   NH2 E  73      14.986  -0.707  23.770  1.00 28.43 LIG-0.11  N 
ATOM     23 O    SER E  72      14.449  -1.666  21.781  1.00 27.83 LIG-0.27  OA
ENDBRANCH 20 21
BRANCH 20 24
ATOM     24  CB  SER E  72      14.542  -4.165  23.382  1.00 25.59 LIG 0.20  C 
BRANCH 24 25
ATOM     25 OG   SER E  72      13.962  -5.237  24.084  1.00 28.15 LIG-0.40  OA
ATOM     26 HG   SER E  72      13.741  -5.840  23.542  1.00 28.15 LIG 0.21  HD
ENDBRANCH 24 25
ENDBRANCH 20 24
ENDBRANCH 18 20
ENDBRANCH 15 16
BRANCH 15 27
ATOM     27  CB  ASP E  71       9.955  -4.272  21.100  1.00 12.80 LIG 0.15  C 
BRANCH 27 28
ATOM     28  CG  ASP E  71      10.378  -5.680  21.421  1.00 14.21 LIG 0.17  C 
ATOM     29 OD2  ASP E  71      10.709  -5.998  22.572  1.00 15.44 LIG-0.65  OA
ATOM     30 OD1  ASP E  71      10.411  -6.499  20.493  1.00 16.80 LIG-0.65  OA
ENDBRANCH 27 28
ENDBRANCH 15 27
ENDBRANCH 12 15
ENDBRANCH 10 11
BRANCH 10 31
ATOM     31  CB  CYS E  70      10.601   0.782  21.045  1.00 19.19 LIG 0.10  C 
BRANCH 31 32
ATOM     32 SG   CYS E  70      12.185   1.187  21.818  1.00 25.14 LIG-0.18  SA
ATOM     33 HG   CYS E  70      13.025   1.310  20.970  1.00 25.14 LIG 0.10  HD
ENDBRANCH 31 32
ENDBRANCH 10 31
ENDBRANCH 7 10
ENDBRANCH 5 6
BRANCH 5 34
ATOM     34  CB  THR E  69       7.230   2.359  25.925  1.00 17.77 LIG 0.15  C 
ATOM     35  CG2 THR E  69       7.442   3.273  27.081  1.00 20.71 LIG 0.04  C 
BRANCH 34 36
ATOM     36 OG1  THR E  69       5.902   2.555  25.476  1.00 16.43 LIG-0.39  OA
ATOM     37 HG1  THR E  69       5.752   2.056  24.817  1.00 16.43 LIG 0.21  HD
ENDBRANCH 34 36
ENDBRANCH 5 34
ENDBRANCH 3 5
BRANCH 1 38
ATOM     38  CA  ALA E  68       8.319   6.452  24.270  1.00 20.08 LIG 0.17  C 
ATOM     39  CB  ALA E  68       7.913   6.439  22.816  1.00 20.16 LIG 0.04  C 
BRANCH 38 40
ATOM     40  N   ALA E  68       9.372   7.407  24.479  1.00 18.16 LIG-0.35  N 
ATOM     41 H    ALA E  68       9.875   7.547  23.794  1.00 18.16 LIG 0.16  HD
ATOM     42  C   TRP E  67       9.523   8.000  25.646  1.00 18.88 LIG 0.24  C 
ATOM     43 O    TRP E  67       8.837   7.759  26.653  1.00 21.47 LIG-0.27  OA
BRANCH 42 44
ATOM     44  CA  TRP E  67      10.669   8.943  25.713  1.00 17.18 LIG 0.18  C 
BRANCH 44 45
ATOM     45  N   TRP E  67      10.315  10.220  26.429  1.00 16.72 LIG-0.35  N 
ATOM     46  C   PRO E  66       9.443  11.132  25.971  1.00 16.87 LIG 0.24  C 
ATOM     47 O    PRO E  66       8.943  11.096  24.849  1.00 18.41 LIG-0.27  OA
ATOM     48 H    TRP E  67      10.731  10.314  27.175  1.00 16.72 LIG 0.16  HD
BRANCH 46 49
ATOM     49  CA  PRO E  66       9.084  12.319  26.897  1.00 17.04 LIG 0.18  C 
ATOM     50  CB  PRO E  66       9.330  13.675  26.215  1.00 18.40 LIG 0.04  C 
ATOM     51  CG  PRO E  66      10.587  14.231  26.820  1.00 18.41 LIG 0.02  C 
ATOM     52  CD  PRO E  66      10.654  13.672  28.213  1.00 21.21 LIG 0.13  C 
ATOM     53  N   PRO E  66       9.874  12.429  28.139  1.00 19.82 LIG-0.34  N 
ATOM     54  C   ACE E  65       9.705  11.470  29.104  1.00 17.72 LIG 0.22  C 
ATOM     55  CH3 ACE E  65      10.465  11.635  30.356  1.00 22.93 LIG 0.12  C 
ATOM     56 O    ACE E  65       9.010  10.492  28.963  1.00 18.13 LIG-0.27  OA
ENDBRANCH 46 49
ENDBRANCH 44 45
BRANCH 44 57
ATOM     57  CB  TRP E  67      11.913   8.275  26.356  1.00 18.36 LIG 0.07  C 
BRANCH 57 58
ATOM     58  CG  TRP E  67      12.412   8.956  27.527  1.00 19.51 LIG-0.03  A 
ATOM     59  CD1 TRP E  67      12.417   8.494  28.797  1.00 20.71 LIG 0.10  A 
ATOM     60  NE1 TRP E  67      12.980   9.416  29.629  1.00 21.73 LIG-0.36  N 
ATOM     61  CE2 TRP E  67      13.351  10.504  28.893  1.00 22.59 LIG 0.04  A 
ATOM     62 HE1  TRP E  67      13.084   9.326  30.479  1.00 21.73 LIG 0.17  HD
ATOM     63  CD2 TRP E  67      13.006  10.240  27.555  1.00 20.57 LIG-0.00  A 
ATOM     64  CZ2 TRP E  67      13.959  11.688  29.281  1.00 23.91 LIG 0.03  A 
ATOM     65  CE3 TRP E  67      13.285  11.199  26.581  1.00 19.56 LIG 0.01  A 
ATOM     66  CZ3 TRP E  67      13.879  12.355  26.958  1.00 20.82 LIG 0.00  A 
ATOM     67  CH2 TRP E  67      14.218  12.602  28.298  1.00 24.07 LIG 0.00  A 
ENDBRANCH 57 58
ENDBRANCH 44 57
ENDBRANCH 42 44
ENDBRANCH 38 40
ENDBRANCH 1 38
TORSDOF 23
ENDMDL
MODEL 34
USER: ADFR SOLUTION from run 125
USER: SCORE 17.956964 LL:  -5.556 LR: -14.620 RR:   0.000 FEB:  -7.759
USER: RMSD 13.152961
USER: SEED 124
USER: STATUS no improvement in best in 3 clusters for 5 generations
USER: GENES 25
USER: genes 0 Translation |==|  0.56084 0.53901 0.37464
USER: genes 1 Rotation |==|  0.36234 0.49721 0.02172 0.54785
USER: genes 2 Torsion [C]-N--CA-[C] |==|  0.19378
USER: genes 3 Torsion [N]-CA--C-[N] |==|  0.32117
USER: genes 4 Torsion [C]-N--CA-[C] |==|  0.63773
USER: genes 5 Torsion [N]-CA--C-[N] |==|  0.28730
USER: genes 6 Torsion [C]-N--CA-[C] |==|  0.84821
USER: genes 7 Torsion [N]-CA--C-[N] |==|  0.88275
USER: genes 8 Torsion [C]-N--CA-[CB] |==|  0.78320
USER: genes 9 Torsion [N]-CA--C-[N] |==|  0.19412
USER: genes 10 Torsion [N]-CA--CB-[OG] |==|  0.15615
USER: genes 11 Torsion [CA]-CB--OG-[HG] |==|  0.76881
USER: genes 12 Torsion [N]-CA--CB-[CG] |==|  0.81380
USER: genes 13 Torsion [CA]-CB--CG-[OD2] |==|  0.69083
USER: genes 14 Torsion [N]-CA--CB-[SG] |==|  0.30453
USER: genes 15 Torsion [CA]-CB--SG-[HG] |==|  0.56012
USER: genes 16 Torsion [N]-CA--CB-[OG1] |==|  0.88000
USER: genes 17 Torsion [CA]-CB--OG1-[HG1] |==|  0.18516
USER: genes 18 Torsion [N]-C--CA-[N] |==|  0.90014
USER: genes 19 Torsion [C]-CA--N-[C] |==|  0.85549
USER: genes 20 Torsion [N]-C--CA-[N] |==|  0.93102
USER: genes 21 Torsion [C]-CA--N-[C] |==|  0.67329
USER: genes 22 Torsion [N]-C--CA-[N] |==|  0.99531
USER: genes 23 Torsion [C]-CA--CB-[CG] |==|  0.56980
USER: genes 24 Torsion [CA]-CB--CG-[CD2] |==|  0.29404
ROOT
ATOM      1  C   ALA E  68       8.400   4.552  25.817  1.00 21.38 LIG 0.24  C 
ATOM      2 O    ALA E  68       7.483   5.296  26.180  1.00 23.30 LIG-0.27  OA
ATOM      3  N   THR E  69       9.451   4.972  25.104  1.00 18.30 LIG-0.34  N 
ATOM      4 H    THR E  69      10.040   4.449  24.759  1.00 18.30 LIG 0.16  HD
ENDROOT
BRANCH 3 5
ATOM      5  CA  THR E  69       9.682   6.394  24.855  1.00 19.45 LIG 0.20  C 
BRANCH 5 6
ATOM      6  C   THR E  69      10.094   7.141  26.137  1.00 19.66 LIG 0.24  C 
ATOM      7  N   CYS E  70      11.307   7.663  26.162  1.00 18.57 LIG-0.34  N 
ATOM      8 H    CYS E  70      11.845   7.663  25.491  1.00 18.57 LIG 0.16  HD
ATOM      9 O    THR E  69       9.340   7.221  27.087  1.00 20.15 LIG-0.27  OA
BRANCH 7 10
ATOM     10  CA  CYS E  70      11.835   8.295  27.359  1.00 18.45 LIG 0.18  C 
BRANCH 10 11
ATOM     11  C   CYS E  70      12.386   9.642  26.931  1.00 19.42 LIG 0.24  C 
ATOM     12  N   ASP E  71      11.627  10.710  27.232  1.00 17.61 LIG-0.34  N 
ATOM     13 H    ASP E  71      10.858  10.651  27.612  1.00 17.61 LIG 0.16  HD
ATOM     14 O    CYS E  70      13.452   9.688  26.309  1.00 18.07 LIG-0.27  OA
BRANCH 12 15
ATOM     15  CA  ASP E  71      12.033  12.072  26.944  1.00 16.95 LIG 0.19  C 
BRANCH 15 16
ATOM     16  C   ASP E  71      13.374  12.202  27.601  1.00 18.90 LIG 0.24  C 
ATOM     17 O    ASP E  71      14.310  12.777  26.992  1.00 16.52 LIG-0.27  OA
ATOM     18  N   SER E  72      13.489  11.663  28.816  1.00 19.80 LIG-0.34  N 
ATOM     19 H    SER E  72      12.868  11.213  29.207  1.00 19.80 LIG 0.16  HD
BRANCH 18 20
ATOM     20  CA  SER E  72      14.717  11.805  29.589  1.00 20.01 LIG 0.20  C 
BRANCH 20 21
ATOM     21  C   SER E  72      15.278  13.192  29.583  1.00 24.22 LIG 0.29  C 
ATOM     22  N   NH2 E  73      14.542  14.123  30.286  1.00 28.43 LIG-0.11  N 
ATOM     23 O    SER E  72      16.166  13.503  28.822  1.00 27.83 LIG-0.27  OA
ENDBRANCH 20 21
BRANCH 20 24
ATOM     24  CB  SER E  72      15.766  10.843  29.083  1.00 25.59 LIG 0.20  C 
BRANCH 24 25
ATOM     25 OG   SER E  72      16.001  11.032  27.709  1.00 28.15 LIG-0.40  OA
ATOM     26 HG   SER E  72      15.423  10.614  27.265  1.00 28.15 LIG 0.21  HD
ENDBRANCH 24 25
ENDBRANCH 20 24
ENDBRANCH 18 20
ENDBRANCH 15 16
BRANCH 15 27
ATOM     27  CB  ASP E  71      11.008  13.081  27.486  1.00 12.80 LIG 0.15  C 
BRANCH 27 28
ATOM     28  CG  ASP E  71       9.693  12.995  26.759  1.00 14.21 LIG 0.17  C 
ATOM     29 OD2  ASP E  71       9.313  13.915  26.021  1.00 15.44 LIG-0.65  OA
ATOM     30 OD1  ASP E  71       8.994  11.989  26.946  1.00 16.80 LIG-0.65  OA
ENDBRANCH 27 28
ENDBRANCH 15 27
ENDBRANCH 12 15
ENDBRANCH 10 11
BRANCH 10 31
ATOM     31  CB  CYS E  70      12.928   7.413  28.024  1.00 19.19 LIG 0.10  C 
BRANCH 31 32
ATOM     32 SG   CYS E  70      14.630   8.015  27.927  1.00 25.14 LIG-0.18  SA
ATOM     33 HG   CYS E  70      15.389   7.098  28.079  1.00 25.14 LIG 0.10  HD
ENDBRANCH 31 32
ENDBRANCH 10 31
ENDBRANCH 7 10
ENDBRANCH 5 6
BRANCH 5 34
ATOM     34  CB  THR E  69       8.446   7.029  24.193  1.00 17.77 LIG 0.15  C 
ATOM     35  CG2 THR E  69       8.818   8.317  23.546  1.00 20.71 LIG 0.04  C 
BRANCH 34 36
ATOM     36 OG1  THR E  69       7.924   6.189  23.179  1.00 16.43 LIG-0.39  OA
ATOM     37 HG1  THR E  69       7.618   5.488  23.526  1.00 16.43 LIG 0.21  HD
ENDBRANCH 34 36
ENDBRANCH 5 34
ENDBRANCH 3 5
BRANCH 1 38
ATOM     38  CA  ALA E  68       8.359   3.073  26.192  1.00 20.08 LIG 0.17  C 
ATOM     39  CB  ALA E  68       9.123   2.832  27.472  1.00 20.16 LIG 0.04  C 
BRANCH 38 40
ATOM     40  N   ALA E  68       8.903   2.266  25.134  1.00 18.16 LIG-0.35  N 
ATOM     41 H    ALA E  68       9.517   1.716  25.378  1.00 18.16 LIG 0.16  HD
ATOM     42  C   TRP E  67       8.464   2.393  23.897  1.00 18.88 LIG 0.24  C 
ATOM     43 O    TRP E  67       7.620   3.226  23.530  1.00 21.47 LIG-0.27  OA
BRANCH 42 44
ATOM     44  CA  TRP E  67       9.139   1.507  22.913  1.00 17.18 LIG 0.18  C 
BRANCH 44 45
ATOM     45  N   TRP E  67      10.521   1.109  23.361  1.00 16.72 LIG-0.35  N 
ATOM     46  C   PRO E  66      11.651   1.418  22.708  1.00 16.87 LIG 0.24  C 
ATOM     47 O    PRO E  66      11.677   1.940  21.595  1.00 18.41 LIG-0.27  OA
ATOM     48 H    TRP E  67      10.520   0.654  24.091  1.00 16.72 LIG 0.16  HD
BRANCH 46 49
ATOM     49  CA  PRO E  66      12.999   1.056  23.379  1.00 17.04 LIG 0.18  C 
ATOM     50  CB  PRO E  66      13.784   0.013  22.566  1.00 18.40 LIG 0.04  C 
ATOM     51  CG  PRO E  66      13.640  -1.290  23.297  1.00 18.41 LIG 0.02  C 
ATOM     52  CD  PRO E  66      13.462  -0.931  24.745  1.00 21.21 LIG 0.13  C 
ATOM     53  N   PRO E  66      12.905   0.428  24.713  1.00 19.82 LIG-0.34  N 
ATOM     54  C   ACE E  65      12.452   1.190  25.758  1.00 17.72 LIG 0.22  C 
ATOM     55  CH3 ACE E  65      12.422   0.555  27.088  1.00 22.93 LIG 0.12  C 
ATOM     56 O    ACE E  65      12.043   2.320  25.638  1.00 18.13 LIG-0.27  OA
ENDBRANCH 46 49
ENDBRANCH 44 45
BRANCH 44 57
ATOM     57  CB  TRP E  67       8.278   0.257  22.595  1.00 18.36 LIG 0.07  C 
BRANCH 57 58
ATOM     58  CG  TRP E  67       9.037  -0.884  22.140  1.00 19.51 LIG-0.03  A 
ATOM     59  CD1 TRP E  67       9.621  -1.043  20.932  1.00 20.71 LIG 0.10  A 
ATOM     60  NE1 TRP E  67      10.258  -2.248  20.874  1.00 21.73 LIG-0.36  N 
ATOM     61  CE2 TRP E  67      10.090  -2.892  22.066  1.00 22.59 LIG 0.04  A 
ATOM     62 HE1  TRP E  67      10.694  -2.551  20.197  1.00 21.73 LIG 0.17  HD
ATOM     63  CD2 TRP E  67       9.322  -2.049  22.891  1.00 20.57 LIG-0.00  A 
ATOM     64  CZ2 TRP E  67      10.546  -4.129  22.492  1.00 23.91 LIG 0.03  A 
ATOM     65  CE3 TRP E  67       9.007  -2.469  24.183  1.00 19.56 LIG 0.01  A 
ATOM     66  CZ3 TRP E  67       9.452  -3.677  24.601  1.00 20.82 LIG 0.00  A 
ATOM     67  CH2 TRP E  67      10.219  -4.506  23.765  1.00 24.07 LIG 0.00  A 
ENDBRANCH 57 58
ENDBRANCH 44 57
ENDBRANCH 42 44
ENDBRANCH 38 40
ENDBRANCH 1 38
TORSDOF 23
ENDMDL
MODEL 35
USER: ADFR SOLUTION from run 167
USER: SCORE 18.832169 LL:  -5.452 LR: -14.622 RR:   0.000 FEB:  -7.762
USER: RMSD 12.628600
USER: SEED 166
USER: STATUS searching
USER: GENES 25
USER: genes 0 Translation |==|  0.66049 0.53365 0.37337
USER: genes 1 Rotation |==|  0.95492 0.30463 0.50444 0.56967
USER: genes 2 Torsion [C]-N--CA-[C] |==|  0.76956
USER: genes 3 Torsion [N]-CA--C-[N] |==|  0.32364
USER: genes 4 Torsion [C]-N--CA-[C] |==|  0.75704
USER: genes 5 Torsion [N]-CA--C-[N] |==|  0.43460
USER: genes 6 Torsion [C]-N--CA-[C] |==|  0.14905
USER: genes 7 Torsion [N]-CA--C-[N] |==|  0.11718
USER: genes 8 Torsion [C]-N--CA-[CB] |==|  0.55014
USER: genes 9 Torsion [N]-CA--C-[N] |==|  0.32543
USER: genes 10 Torsion [N]-CA--CB-[OG] |==|  0.75772
USER: genes 11 Torsion [CA]-CB--OG-[HG] |==|  0.14554
USER: genes 12 Torsion [N]-CA--CB-[CG] |==|  0.83350
USER: genes 13 Torsion [CA]-CB--CG-[OD2] |==|  0.64022
USER: genes 14 Torsion [N]-CA--CB-[SG] |==|  0.69943
USER: genes 15 Torsion [CA]-CB--SG-[HG] |==|  0.41727
USER: genes 16 Torsion [N]-CA--CB-[OG1] |==|  0.71789
USER: genes 17 Torsion [CA]-CB--OG1-[HG1] |==|  0.89509
USER: genes 18 Torsion [N]-C--CA-[N] |==|  0.30639
USER: genes 19 Torsion [C]-CA--N-[C] |==|  0.78571
USER: genes 20 Torsion [N]-C--CA-[N] |==|  0.93475
USER: genes 21 Torsion [C]-CA--N-[C] |==|  0.70982
USER: genes 22 Torsion [N]-C--CA-[N] |==|  0.96243
USER: genes 23 Torsion [C]-CA--CB-[CG] |==|  0.84807
USER: genes 24 Torsion [CA]-CB--CG-[CD2] |==|  0.22747
ROOT
ATOM      1  C   ALA E  68      10.418   4.399  25.798  1.00 21.38 LIG 0.24  C 
ATOM      2 O    ALA E  68      11.653   4.453  25.796  1.00 23.30 LIG-0.27  OA
ATOM      3  N   THR E  69       9.634   5.466  25.610  1.00 18.30 LIG-0.34  N 
ATOM      4 H    THR E  69       8.780   5.461  25.711  1.00 18.30 LIG 0.16  HD
ENDROOT
BRANCH 3 5
ATOM      5  CA  THR E  69      10.190   6.757  25.207  1.00 19.45 LIG 0.20  C 
BRANCH 5 6
ATOM      6  C   THR E  69      10.728   7.550  26.411  1.00 19.66 LIG 0.24  C 
ATOM      7  N   CYS E  70      12.025   7.803  26.430  1.00 18.57 LIG-0.34  N 
ATOM      8 H    CYS E  70      12.563   7.607  25.789  1.00 18.57 LIG 0.16  HD
ATOM      9 O    THR E  69       9.991   7.904  27.310  1.00 20.15 LIG-0.27  OA
BRANCH 7 10
ATOM     10  CA  CYS E  70      12.653   8.450  27.569  1.00 18.45 LIG 0.18  C 
BRANCH 10 11
ATOM     11  C   CYS E  70      12.539   9.945  27.335  1.00 19.42 LIG 0.24  C 
ATOM     12  N   ASP E  71      12.596  10.718  28.433  1.00 17.61 LIG-0.34  N 
ATOM     13 H    ASP E  71      12.658  10.402  29.231  1.00 17.61 LIG 0.16  HD
ATOM     14 O    CYS E  70      12.364  10.364  26.186  1.00 18.07 LIG-0.27  OA
BRANCH 12 15
ATOM     15  CA  ASP E  71      12.560  12.167  28.380  1.00 16.95 LIG 0.19  C 
BRANCH 15 16
ATOM     16  C   ASP E  71      11.325  12.474  27.587  1.00 18.90 LIG 0.24  C 
ATOM     17 O    ASP E  71      11.349  13.394  26.733  1.00 16.52 LIG-0.27  OA
ATOM     18  N   SER E  72      10.247  11.741  27.870  1.00 19.80 LIG-0.34  N 
ATOM     19 H    SER E  72      10.211  11.155  28.499  1.00 19.80 LIG 0.16  HD
BRANCH 18 20
ATOM     20  CA  SER E  72       9.015  11.888  27.103  1.00 20.01 LIG 0.20  C 
BRANCH 20 21
ATOM     21  C   SER E  72       8.698  13.303  26.735  1.00 24.22 LIG 0.29  C 
ATOM     22  N   NH2 E  73       8.675  13.563  25.380  1.00 28.43 LIG-0.11  N 
ATOM     23 O    SER E  72       8.708  14.183  27.566  1.00 27.83 LIG-0.27  OA
ENDBRANCH 20 21
BRANCH 20 24
ATOM     24  CB  SER E  72       7.852  11.303  27.869  1.00 25.59 LIG 0.20  C 
BRANCH 24 25
ATOM     25 OG   SER E  72       7.716   9.928  27.605  1.00 28.15 LIG-0.40  OA
ATOM     26 HG   SER E  72       8.451   9.543  27.736  1.00 28.15 LIG 0.21  HD
ENDBRANCH 24 25
ENDBRANCH 20 24
ENDBRANCH 18 20
ENDBRANCH 15 16
BRANCH 15 27
ATOM     27  CB  ASP E  71      13.834  12.728  27.731  1.00 12.80 LIG 0.15  C 
BRANCH 27 28
ATOM     28  CG  ASP E  71      15.073  12.338  28.491  1.00 14.21 LIG 0.17  C 
ATOM     29 OD2  ASP E  71      15.911  13.190  28.822  1.00 15.44 LIG-0.65  OA
ATOM     30 OD1  ASP E  71      15.240  11.138  28.748  1.00 16.80 LIG-0.65  OA
ENDBRANCH 27 28
ENDBRANCH 15 27
ENDBRANCH 12 15
ENDBRANCH 10 11
BRANCH 10 31
ATOM     31  CB  CYS E  70      14.134   8.004  27.722  1.00 19.19 LIG 0.10  C 
BRANCH 31 32
ATOM     32 SG   CYS E  70      14.513   6.909  29.110  1.00 25.14 LIG-0.18  SA
ATOM     33 HG   CYS E  70      15.440   6.203  28.822  1.00 25.14 LIG 0.10  HD
ENDBRANCH 31 32
ENDBRANCH 10 31
ENDBRANCH 7 10
ENDBRANCH 5 6
BRANCH 5 34
ATOM     34  CB  THR E  69       9.148   7.562  24.408  1.00 17.77 LIG 0.15  C 
ATOM     35  CG2 THR E  69       9.206   8.998  24.796  1.00 20.71 LIG 0.04  C 
BRANCH 34 36
ATOM     36 OG1  THR E  69       9.412   7.495  23.018  1.00 16.43 LIG-0.39  OA
ATOM     37 HG1  THR E  69      10.241   7.515  22.889  1.00 16.43 LIG 0.21  HD
ENDBRANCH 34 36
ENDBRANCH 5 34
ENDBRANCH 3 5
BRANCH 1 38
ATOM     38  CA  ALA E  68       9.726   3.057  26.017  1.00 20.08 LIG 0.17  C 
ATOM     39  CB  ALA E  68      10.244   2.394  27.271  1.00 20.16 LIG 0.04  C 
BRANCH 38 40
ATOM     40  N   ALA E  68       9.924   2.193  24.886  1.00 18.16 LIG-0.35  N 
ATOM     41 H    ALA E  68      10.514   1.577  24.999  1.00 18.16 LIG 0.16  HD
ATOM     42  C   TRP E  67       9.232   2.366  23.777  1.00 18.88 LIG 0.24  C 
ATOM     43 O    TRP E  67       8.423   3.288  23.588  1.00 21.47 LIG-0.27  OA
BRANCH 42 44
ATOM     44  CA  TRP E  67       9.565   1.410  22.690  1.00 17.18 LIG 0.18  C 
BRANCH 44 45
ATOM     45  N   TRP E  67      10.949   0.835  22.842  1.00 16.72 LIG-0.35  N 
ATOM     46  C   PRO E  66      12.010   1.199  22.105  1.00 16.87 LIG 0.24  C 
ATOM     47 O    PRO E  66      11.941   1.940  21.127  1.00 18.41 LIG-0.27  OA
ATOM     48 H    TRP E  67      11.000   0.238  23.459  1.00 16.72 LIG 0.16  HD
BRANCH 46 49
ATOM     49  CA  PRO E  66      13.392   0.615  22.487  1.00 17.04 LIG 0.18  C 
ATOM     50  CB  PRO E  66      13.830  -0.501  21.523  1.00 18.40 LIG 0.04  C 
ATOM     51  CG  PRO E  66      13.636  -1.795  22.259  1.00 18.41 LIG 0.02  C 
ATOM     52  CD  PRO E  66      13.808  -1.469  23.716  1.00 21.21 LIG 0.13  C 
ATOM     53  N   PRO E  66      13.471  -0.042  23.807  1.00 19.82 LIG-0.34  N 
ATOM     54  C   ACE E  65      13.358   0.738  24.928  1.00 17.72 LIG 0.22  C 
ATOM     55  CH3 ACE E  65      13.496   0.065  26.232  1.00 22.93 LIG 0.12  C 
ATOM     56 O    ACE E  65      13.111   1.921  24.901  1.00 18.13 LIG-0.27  OA
ENDBRANCH 46 49
ENDBRANCH 44 45
BRANCH 44 57
ATOM     57  CB  TRP E  67       8.506   0.282  22.585  1.00 18.36 LIG 0.07  C 
BRANCH 57 58
ATOM     58  CG  TRP E  67       8.279  -0.433  23.818  1.00 19.51 LIG-0.03  A 
ATOM     59  CD1 TRP E  67       8.826  -1.613  24.187  1.00 20.71 LIG 0.10  A 
ATOM     60  NE1 TRP E  67       8.381  -1.969  25.426  1.00 21.73 LIG-0.36  N 
ATOM     61  CE2 TRP E  67       7.526  -1.006  25.880  1.00 22.59 LIG 0.04  A 
ATOM     62 HE1  TRP E  67       8.603  -2.683  25.852  1.00 21.73 LIG 0.17  HD
ATOM     63  CD2 TRP E  67       7.445  -0.017  24.882  1.00 20.57 LIG-0.00  A 
ATOM     64  CZ2 TRP E  67       6.827  -0.914  27.073  1.00 23.91 LIG 0.03  A 
ATOM     65  CE3 TRP E  67       6.633   1.097  25.098  1.00 19.56 LIG 0.01  A 
ATOM     66  CZ3 TRP E  67       5.949   1.189  26.262  1.00 20.82 LIG 0.00  A 
ATOM     67  CH2 TRP E  67       6.043   0.193  27.248  1.00 24.07 LIG 0.00  A 
ENDBRANCH 57 58
ENDBRANCH 44 57
ENDBRANCH 42 44
ENDBRANCH 38 40
ENDBRANCH 1 38
TORSDOF 23
ENDMDL
MODEL 36
USER: ADFR SOLUTION from run 26
USER: SCORE 16.882856 LL:  -5.336 LR: -14.617 RR:   0.000 FEB:  -7.756
USER: RMSD 6.740843
USER: SEED 25
USER: STATUS no improvement in best in 7 clusters for 5 generations
USER: GENES 25
USER: genes 0 Translation |==|  0.63534 0.66245 0.41318
USER: genes 1 Rotation |==|  0.25667 0.12231 0.47838 0.71834
USER: genes 2 Torsion [C]-N--CA-[C] |==|  0.65350
USER: genes 3 Torsion [N]-CA--C-[N] |==|  0.54708
USER: genes 4 Torsion [C]-N--CA-[C] |==|  0.83879
USER: genes 5 Torsion [N]-CA--C-[N] |==|  0.39884
USER: genes 6 Torsion [C]-N--CA-[C] |==|  0.87421
USER: genes 7 Torsion [N]-CA--C-[N] |==|  0.83947
USER: genes 8 Torsion [C]-N--CA-[CB] |==|  0.37941
USER: genes 9 Torsion [N]-CA--C-[N] |==|  0.71103
USER: genes 10 Torsion [N]-CA--CB-[OG] |==|  0.72731
USER: genes 11 Torsion [CA]-CB--OG-[HG] |==|  0.38752
USER: genes 12 Torsion [N]-CA--CB-[CG] |==|  0.46865
USER: genes 13 Torsion [CA]-CB--CG-[OD2] |==|  0.85856
USER: genes 14 Torsion [N]-CA--CB-[SG] |==|  0.16903
USER: genes 15 Torsion [CA]-CB--SG-[HG] |==|  0.34668
USER: genes 16 Torsion [N]-CA--CB-[OG1] |==|  0.31376
USER: genes 17 Torsion [CA]-CB--OG1-[HG1] |==|  0.48619
USER: genes 18 Torsion [N]-C--CA-[N] |==|  0.41975
USER: genes 19 Torsion [C]-CA--N-[C] |==|  0.77576
USER: genes 20 Torsion [N]-C--CA-[N] |==|  0.91936
USER: genes 21 Torsion [C]-CA--N-[C] |==|  0.73260
USER: genes 22 Torsion [N]-C--CA-[N] |==|  0.03322
USER: genes 23 Torsion [C]-CA--CB-[CG] |==|  0.74024
USER: genes 24 Torsion [CA]-CB--CG-[CD2] |==|  0.77524
ROOT
ATOM      1  C   ALA E  68       9.909   8.070  26.395  1.00 21.38 LIG 0.24  C 
ATOM      2 O    ALA E  68       9.160   8.099  27.377  1.00 23.30 LIG-0.27  OA
ATOM      3  N   THR E  69       9.971   7.036  25.548  1.00 18.30 LIG-0.34  N 
ATOM      4 H    THR E  69      10.559   6.959  24.924  1.00 18.30 LIG 0.16  HD
ENDROOT
BRANCH 3 5
ATOM      5  CA  THR E  69       9.018   5.931  25.625  1.00 19.45 LIG 0.20  C 
BRANCH 5 6
ATOM      6  C   THR E  69       9.727   4.571  25.767  1.00 19.66 LIG 0.24  C 
ATOM      7  N   CYS E  70       9.012   3.493  25.502  1.00 18.57 LIG-0.34  N 
ATOM      8 H    CYS E  70       8.207   3.511  25.200  1.00 18.57 LIG 0.16  HD
ATOM      9 O    THR E  69      10.885   4.502  26.130  1.00 20.15 LIG-0.27  OA
BRANCH 7 10
ATOM     10  CA  CYS E  70       9.550   2.159  25.707  1.00 18.45 LIG 0.18  C 
BRANCH 10 11
ATOM     11  C   CYS E  70      10.805   2.063  24.860  1.00 19.42 LIG 0.24  C 
ATOM     12  N   ASP E  71      11.818   1.354  25.388  1.00 17.61 LIG-0.34  N 
ATOM     13 H    ASP E  71      11.789   0.999  26.171  1.00 17.61 LIG 0.16  HD
ATOM     14 O    CYS E  70      10.849   2.657  23.777  1.00 18.07 LIG-0.27  OA
BRANCH 12 15
ATOM     15  CA  ASP E  71      13.064   1.118  24.686  1.00 16.95 LIG 0.19  C 
BRANCH 15 16
ATOM     16  C   ASP E  71      12.639   0.729  23.303  1.00 18.90 LIG 0.24  C 
ATOM     17 O    ASP E  71      13.027   1.407  22.319  1.00 16.52 LIG-0.27  OA
ATOM     18  N   SER E  72      11.835  -0.332  23.211  1.00 19.80 LIG-0.34  N 
ATOM     19 H    SER E  72      11.517  -0.758  23.888  1.00 19.80 LIG 0.16  HD
BRANCH 18 20
ATOM     20  CA  SER E  72      11.428  -0.858  21.913  1.00 20.01 LIG 0.20  C 
BRANCH 20 21
ATOM     21  C   SER E  72      10.054  -0.438  21.495  1.00 24.22 LIG 0.29  C 
ATOM     22  N   NH2 E  73       9.083  -1.411  21.617  1.00 28.43 LIG-0.11  N 
ATOM     23 O    SER E  72       9.875   0.586  20.877  1.00 27.83 LIG-0.27  OA
ENDBRANCH 20 21
BRANCH 20 24
ATOM     24  CB  SER E  72      11.507  -2.366  21.914  1.00 25.59 LIG 0.20  C 
BRANCH 24 25
ATOM     25 OG   SER E  72      12.706  -2.808  21.325  1.00 28.15 LIG-0.40  OA
ATOM     26 HG   SER E  72      13.012  -3.456  21.764  1.00 28.15 LIG 0.21  HD
ENDBRANCH 24 25
ENDBRANCH 20 24
ENDBRANCH 18 20
ENDBRANCH 15 16
BRANCH 15 27
ATOM     27  CB  ASP E  71      13.892   0.025  25.381  1.00 12.80 LIG 0.15  C 
BRANCH 27 28
ATOM     28  CG  ASP E  71      15.050  -0.430  24.534  1.00 14.21 LIG 0.17  C 
ATOM     29 OD2  ASP E  71      14.881  -0.769  23.354  1.00 15.44 LIG-0.65  OA
ATOM     30 OD1  ASP E  71      16.168  -0.480  25.064  1.00 16.80 LIG-0.65  OA
ENDBRANCH 27 28
ENDBRANCH 15 27
ENDBRANCH 12 15
ENDBRANCH 10 11
BRANCH 10 31
ATOM     31  CB  CYS E  70       8.512   1.069  25.322  1.00 19.19 LIG 0.10  C 
BRANCH 31 32
ATOM     32 SG   CYS E  70       7.947   1.056  23.604  1.00 25.14 LIG-0.18  SA
ATOM     33 HG   CYS E  70       8.132  -0.032  23.130  1.00 25.14 LIG 0.10  HD
ENDBRANCH 31 32
ENDBRANCH 10 31
ENDBRANCH 7 10
ENDBRANCH 5 6
BRANCH 5 34
ATOM     34  CB  THR E  69       8.068   5.959  24.414  1.00 17.77 LIG 0.15  C 
ATOM     35  CG2 THR E  69       8.318   7.179  23.596  1.00 20.71 LIG 0.04  C 
BRANCH 34 36
ATOM     36 OG1  THR E  69       8.284   4.842  23.572  1.00 16.43 LIG-0.39  OA
ATOM     37 HG1  THR E  69       7.713   4.839  22.957  1.00 16.43 LIG 0.21  HD
ENDBRANCH 34 36
ENDBRANCH 5 34
ENDBRANCH 3 5
BRANCH 1 38
ATOM     38  CA  ALA E  68      10.815   9.263  26.106  1.00 20.08 LIG 0.17  C 
ATOM     39  CB  ALA E  68      12.175   9.056  26.727  1.00 20.16 LIG 0.04  C 
BRANCH 38 40
ATOM     40  N   ALA E  68      10.227  10.478  26.600  1.00 18.16 LIG-0.35  N 
ATOM     41 H    ALA E  68      10.532  10.744  27.359  1.00 18.16 LIG 0.16  HD
ATOM     42  C   TRP E  67       9.295  11.104  25.909  1.00 18.88 LIG 0.24  C 
ATOM     43 O    TRP E  67       8.812  10.692  24.842  1.00 21.47 LIG-0.27  OA
BRANCH 42 44
ATOM     44  CA  TRP E  67       8.770  12.332  26.560  1.00 17.18 LIG 0.18  C 
BRANCH 44 45
ATOM     45  N   TRP E  67       8.843  12.254  28.063  1.00 16.72 LIG-0.35  N 
ATOM     46  C   PRO E  66       7.827  11.881  28.856  1.00 16.87 LIG 0.24  C 
ATOM     47 O    PRO E  66       6.679  11.697  28.457  1.00 18.41 LIG-0.27  OA
ATOM     48 H    TRP E  67       9.613  12.476  28.374  1.00 16.72 LIG 0.16  HD
BRANCH 46 49
ATOM     49  CA  PRO E  66       8.112  11.716  30.369  1.00 17.04 LIG 0.18  C 
ATOM     50  CB  PRO E  66       7.094  12.479  31.232  1.00 18.40 LIG 0.04  C 
ATOM     51  CG  PRO E  66       7.801  13.702  31.741  1.00 18.41 LIG 0.02  C 
ATOM     52  CD  PRO E  66       9.255  13.330  31.824  1.00 21.21 LIG 0.13  C 
ATOM     53  N   PRO E  66       9.406  12.248  30.842  1.00 19.82 LIG-0.34  N 
ATOM     54  C   ACE E  65      10.554  11.620  30.436  1.00 17.72 LIG 0.22  C 
ATOM     55  CH3 ACE E  65      11.828  12.137  30.967  1.00 22.93 LIG 0.12  C 
ATOM     56 O    ACE E  65      10.576  10.708  29.643  1.00 18.13 LIG-0.27  OA
ENDBRANCH 46 49
ENDBRANCH 44 45
BRANCH 44 57
ATOM     57  CB  TRP E  67       9.489  13.602  26.036  1.00 18.36 LIG 0.07  C 
BRANCH 57 58
ATOM     58  CG  TRP E  67      10.618  14.015  26.833  1.00 19.51 LIG-0.03  A 
ATOM     59  CD1 TRP E  67      11.925  13.782  26.576  1.00 20.71 LIG 0.10  A 
ATOM     60  NE1 TRP E  67      12.701  14.336  27.551  1.00 21.73 LIG-0.36  N 
ATOM     61  CE2 TRP E  67      11.890  14.943  28.466  1.00 22.59 LIG 0.04  A 
ATOM     62 HE1  TRP E  67      13.560  14.306  27.584  1.00 21.73 LIG 0.17  HD
ATOM     63  CD2 TRP E  67      10.564  14.759  28.036  1.00 20.57 LIG-0.00  A 
ATOM     64  CZ2 TRP E  67      12.203  15.638  29.624  1.00 23.91 LIG 0.03  A 
ATOM     65  CE3 TRP E  67       9.524  15.294  28.796  1.00 19.56 LIG 0.01  A 
ATOM     66  CZ3 TRP E  67       9.827  15.973  29.927  1.00 20.82 LIG 0.00  A 
ATOM     67  CH2 TRP E  67      11.158  16.149  30.342  1.00 24.07 LIG 0.00  A 
ENDBRANCH 57 58
ENDBRANCH 44 57
ENDBRANCH 42 44
ENDBRANCH 38 40
ENDBRANCH 1 38
TORSDOF 23
ENDMDL
MODEL 37
USER: ADFR SOLUTION from run 50
USER: SCORE 18.627697 LL:  -5.672 LR: -14.620 RR:   0.000 FEB:  -7.759
USER: RMSD 13.508873
USER: SEED 49
USER: STATUS no improvement in best in 10 clusters for 5 generations
USER: GENES 25
USER: genes 0 Translation |==|  0.64853 0.53364 0.36678
USER: genes 1 Rotation |==|  0.94259 0.28622 0.44643 0.57443
USER: genes 2 Torsion [C]-N--CA-[C] |==|  0.75169
USER: genes 3 Torsion [N]-CA--C-[N] |==|  0.38195
USER: genes 4 Torsion [C]-N--CA-[C] |==|  0.73060
USER: genes 5 Torsion [N]-CA--C-[N] |==|  0.13616
USER: genes 6 Torsion [C]-N--CA-[C] |==|  0.81854
USER: genes 7 Torsion [N]-CA--C-[N] |==|  0.37498
USER: genes 8 Torsion [C]-N--CA-[CB] |==|  0.25361
USER: genes 9 Torsion [N]-CA--C-[N] |==|  0.03713
USER: genes 10 Torsion [N]-CA--CB-[OG] |==|  0.06448
USER: genes 11 Torsion [CA]-CB--OG-[HG] |==|  0.11020
USER: genes 12 Torsion [N]-CA--CB-[CG] |==|  0.54882
USER: genes 13 Torsion [CA]-CB--CG-[OD2] |==|  0.78575
USER: genes 14 Torsion [N]-CA--CB-[SG] |==|  0.45166
USER: genes 15 Torsion [CA]-CB--SG-[HG] |==|  0.78821
USER: genes 16 Torsion [N]-CA--CB-[OG1] |==|  0.71468
USER: genes 17 Torsion [CA]-CB--OG1-[HG1] |==|  0.78172
USER: genes 18 Torsion [N]-C--CA-[N] |==|  0.35588
USER: genes 19 Torsion [C]-CA--N-[C] |==|  0.78137
USER: genes 20 Torsion [N]-C--CA-[N] |==|  0.92268
USER: genes 21 Torsion [C]-CA--N-[C] |==|  0.74445
USER: genes 22 Torsion [N]-C--CA-[N] |==|  0.94054
USER: genes 23 Torsion [C]-CA--CB-[CG] |==|  0.70615
USER: genes 24 Torsion [CA]-CB--CG-[CD2] |==|  0.72226
ROOT
ATOM      1  C   ALA E  68      10.176   4.399  25.699  1.00 21.38 LIG 0.24  C 
ATOM      2 O    ALA E  68      11.382   4.316  25.440  1.00 23.30 LIG-0.27  OA
ATOM      3  N   THR E  69       9.510   5.558  25.738  1.00 18.30 LIG-0.34  N 
ATOM      4 H    THR E  69       8.700   5.640  26.017  1.00 18.30 LIG 0.16  HD
ENDROOT
BRANCH 3 5
ATOM      5  CA  THR E  69      10.129   6.807  25.298  1.00 19.45 LIG 0.20  C 
BRANCH 5 6
ATOM      6  C   THR E  69      10.864   7.519  26.449  1.00 19.66 LIG 0.24  C 
ATOM      7  N   CYS E  70      12.046   8.039  26.172  1.00 18.57 LIG-0.34  N 
ATOM      8 H    CYS E  70      12.393   8.056  25.385  1.00 18.57 LIG 0.16  HD
ATOM      9 O    THR E  69      10.381   7.574  27.562  1.00 20.15 LIG-0.27  OA
BRANCH 7 10
ATOM     10  CA  CYS E  70      12.870   8.639  27.208  1.00 18.45 LIG 0.18  C 
BRANCH 10 11
ATOM     11  C   CYS E  70      12.619  10.134  27.150  1.00 19.42 LIG 0.24  C 
ATOM     12  N   ASP E  71      11.329  10.513  27.126  1.00 17.61 LIG-0.34  N 
ATOM     13 H    ASP E  71      10.673   9.957  27.108  1.00 17.61 LIG 0.16  HD
ATOM     14 O    CYS E  70      13.582  10.905  27.088  1.00 18.07 LIG-0.27  OA
BRANCH 12 15
ATOM     15  CA  ASP E  71      10.917  11.903  27.127  1.00 16.95 LIG 0.19  C 
BRANCH 15 16
ATOM     16  C   ASP E  71      11.366  12.419  28.461  1.00 18.90 LIG 0.24  C 
ATOM     17 O    ASP E  71      11.140  11.744  29.496  1.00 16.52 LIG-0.27  OA
ATOM     18  N   SER E  72      11.975  13.606  28.458  1.00 19.80 LIG-0.34  N 
ATOM     19 H    SER E  72      12.072  14.098  27.759  1.00 19.80 LIG 0.16  HD
BRANCH 18 20
ATOM     20  CA  SER E  72      12.534  14.168  29.683  1.00 20.01 LIG 0.20  C 
BRANCH 20 21
ATOM     21  C   SER E  72      12.433  15.658  29.765  1.00 24.22 LIG 0.29  C 
ATOM     22  N   NH2 E  73      11.590  16.238  28.839  1.00 28.43 LIG-0.11  N 
ATOM     23 O    SER E  72      13.215  16.302  30.427  1.00 27.83 LIG-0.27  OA
ENDBRANCH 20 21
BRANCH 20 24
ATOM     24  CB  SER E  72      13.981  13.759  29.830  1.00 25.59 LIG 0.20  C 
BRANCH 24 25
ATOM     25 OG   SER E  72      14.541  13.431  28.582  1.00 28.15 LIG-0.40  OA
ATOM     26 HG   SER E  72      14.263  13.969  28.000  1.00 28.15 LIG 0.21  HD
ENDBRANCH 24 25
ENDBRANCH 20 24
ENDBRANCH 18 20
ENDBRANCH 15 16
BRANCH 15 27
ATOM     27  CB  ASP E  71       9.398  12.029  26.925  1.00 12.80 LIG 0.15  C 
BRANCH 27 28
ATOM     28  CG  ASP E  71       8.999  13.417  26.502  1.00 14.21 LIG 0.17  C 
ATOM     29 OD2  ASP E  71       8.947  14.343  27.325  1.00 15.44 LIG-0.65  OA
ATOM     30 OD1  ASP E  71       8.698  13.596  25.314  1.00 16.80 LIG-0.65  OA
ENDBRANCH 27 28
ENDBRANCH 15 27
ENDBRANCH 12 15
ENDBRANCH 10 11
BRANCH 10 31
ATOM     31  CB  CYS E  70      14.371   8.300  26.998  1.00 19.19 LIG 0.10  C 
BRANCH 31 32
ATOM     32 SG   CYS E  70      15.568   9.331  27.876  1.00 25.14 LIG-0.18  SA
ATOM     33 HG   CYS E  70      15.668  10.391  27.321  1.00 25.14 LIG 0.10  HD
ENDBRANCH 31 32
ENDBRANCH 10 31
ENDBRANCH 7 10
ENDBRANCH 5 6
BRANCH 5 34
ATOM     34  CB  THR E  69       9.081   7.718  24.634  1.00 17.77 LIG 0.15  C 
ATOM     35  CG2 THR E  69       9.289   9.130  25.060  1.00 20.71 LIG 0.04  C 
BRANCH 34 36
ATOM     36 OG1  THR E  69       9.201   7.687  23.223  1.00 16.43 LIG-0.39  OA
ATOM     37 HG1  THR E  69       9.843   8.174  22.986  1.00 16.43 LIG 0.21  HD
ENDBRANCH 34 36
ENDBRANCH 5 34
ENDBRANCH 3 5
BRANCH 1 38
ATOM     38  CA  ALA E  68       9.380   3.128  25.986  1.00 20.08 LIG 0.17  C 
ATOM     39  CB  ALA E  68       9.781   2.544  27.319  1.00 20.16 LIG 0.04  C 
BRANCH 38 40
ATOM     40  N   ALA E  68       9.580   2.159  24.944  1.00 18.16 LIG-0.35  N 
ATOM     41 H    ALA E  68      10.134   1.530  25.136  1.00 18.16 LIG 0.16  HD
ATOM     42  C   TRP E  67       8.940   2.264  23.795  1.00 18.88 LIG 0.24  C 
ATOM     43 O    TRP E  67       8.185   3.201  23.492  1.00 21.47 LIG-0.27  OA
BRANCH 42 44
ATOM     44  CA  TRP E  67       9.268   1.200  22.811  1.00 17.18 LIG 0.18  C 
BRANCH 44 45
ATOM     45  N   TRP E  67      10.657   0.652  23.008  1.00 16.72 LIG-0.35  N 
ATOM     46  C   PRO E  66      11.753   1.114  22.386  1.00 16.87 LIG 0.24  C 
ATOM     47 O    PRO E  66      11.725   1.943  21.478  1.00 18.41 LIG-0.27  OA
ATOM     48 H    TRP E  67      10.685   0.001  23.568  1.00 16.72 LIG 0.16  HD
BRANCH 46 49
ATOM     49  CA  PRO E  66      13.124   0.535  22.808  1.00 17.04 LIG 0.18  C 
ATOM     50  CB  PRO E  66      13.575  -0.609  21.884  1.00 18.40 LIG 0.04  C 
ATOM     51  CG  PRO E  66      13.361  -1.882  22.651  1.00 18.41 LIG 0.02  C 
ATOM     52  CD  PRO E  66      13.508  -1.516  24.102  1.00 21.21 LIG 0.13  C 
ATOM     53  N   PRO E  66      13.176  -0.086  24.147  1.00 19.82 LIG-0.34  N 
ATOM     54  C   ACE E  65      13.046   0.725  25.244  1.00 17.72 LIG 0.22  C 
ATOM     55  CH3 ACE E  65      13.157   0.087  26.568  1.00 22.93 LIG 0.12  C 
ATOM     56 O    ACE E  65      12.806   1.907  25.181  1.00 18.13 LIG-0.27  OA
ENDBRANCH 46 49
ENDBRANCH 44 45
BRANCH 44 57
ATOM     57  CB  TRP E  67       8.215   0.062  22.838  1.00 18.36 LIG 0.07  C 
BRANCH 57 58
ATOM     58  CG  TRP E  67       8.671  -1.152  23.472  1.00 19.51 LIG-0.03  A 
ATOM     59  CD1 TRP E  67       8.721  -1.407  24.798  1.00 20.71 LIG 0.10  A 
ATOM     60  NE1 TRP E  67       9.199  -2.666  25.015  1.00 21.73 LIG-0.36  N 
ATOM     61  CE2 TRP E  67       9.467  -3.249  23.810  1.00 22.59 LIG 0.04  A 
ATOM     62 HE1  TRP E  67       9.312  -3.033  25.785  1.00 21.73 LIG 0.17  HD
ATOM     63  CD2 TRP E  67       9.139  -2.313  22.812  1.00 20.57 LIG-0.00  A 
ATOM     64  CZ2 TRP E  67       9.961  -4.508  23.509  1.00 23.91 LIG 0.03  A 
ATOM     65  CE3 TRP E  67       9.314  -2.661  21.473  1.00 19.56 LIG 0.01  A 
ATOM     66  CZ3 TRP E  67       9.796  -3.890  21.177  1.00 20.82 LIG 0.00  A 
ATOM     67  CH2 TRP E  67      10.118  -4.814  22.186  1.00 24.07 LIG 0.00  A 
ENDBRANCH 57 58
ENDBRANCH 44 57
ENDBRANCH 42 44
ENDBRANCH 38 40
ENDBRANCH 1 38
TORSDOF 23
ENDMDL
MODEL 38
USER: ADFR SOLUTION from run 64
USER: SCORE 19.573463 LL:  -6.074 LR: -14.601 RR:   0.000 FEB:  -7.740
USER: RMSD 5.853267
USER: SEED 63
USER: STATUS no improvement in best in 3 clusters for 5 generations
USER: GENES 25
USER: genes 0 Translation |==|  0.63623 0.65225 0.41540
USER: genes 1 Rotation |==|  0.24741 0.10743 0.45559 0.67352
USER: genes 2 Torsion [C]-N--CA-[C] |==|  0.59706
USER: genes 3 Torsion [N]-CA--C-[N] |==|  0.51290
USER: genes 4 Torsion [C]-N--CA-[C] |==|  0.72535
USER: genes 5 Torsion [N]-CA--C-[N] |==|  0.35499
USER: genes 6 Torsion [C]-N--CA-[C] |==|  0.82785
USER: genes 7 Torsion [N]-CA--C-[N] |==|  0.85914
USER: genes 8 Torsion [C]-N--CA-[CB] |==|  0.19354
USER: genes 9 Torsion [N]-CA--C-[N] |==|  0.02364
USER: genes 10 Torsion [N]-CA--CB-[OG] |==|  0.72716
USER: genes 11 Torsion [CA]-CB--OG-[HG] |==|  0.07701
USER: genes 12 Torsion [N]-CA--CB-[CG] |==|  0.25653
USER: genes 13 Torsion [CA]-CB--CG-[OD2] |==|  0.25518
USER: genes 14 Torsion [N]-CA--CB-[SG] |==|  0.17814
USER: genes 15 Torsion [CA]-CB--SG-[HG] |==|  0.99329
USER: genes 16 Torsion [N]-CA--CB-[OG1] |==|  0.36038
USER: genes 17 Torsion [CA]-CB--OG1-[HG1] |==|  0.44427
USER: genes 18 Torsion [N]-C--CA-[N] |==|  0.42628
USER: genes 19 Torsion [C]-CA--N-[C] |==|  0.79047
USER: genes 20 Torsion [N]-C--CA-[N] |==|  0.92043
USER: genes 21 Torsion [C]-CA--N-[C] |==|  0.79322
USER: genes 22 Torsion [N]-C--CA-[N] |==|  0.96682
USER: genes 23 Torsion [C]-CA--CB-[CG] |==|  0.74299
USER: genes 24 Torsion [CA]-CB--CG-[CD2] |==|  0.77536
ROOT
ATOM      1  C   ALA E  68       9.927   7.779  26.428  1.00 21.38 LIG 0.24  C 
ATOM      2 O    ALA E  68       8.997   7.882  27.236  1.00 23.30 LIG-0.27  OA
ATOM      3  N   THR E  69      10.107   6.710  25.646  1.00 18.30 LIG-0.34  N 
ATOM      4 H    THR E  69      10.804   6.581  25.157  1.00 18.30 LIG 0.16  HD
ENDROOT
BRANCH 3 5
ATOM      5  CA  THR E  69       9.104   5.650  25.562  1.00 19.45 LIG 0.20  C 
BRANCH 5 6
ATOM      6  C   THR E  69       9.749   4.263  25.387  1.00 19.66 LIG 0.24  C 
ATOM      7  N   CYS E  70       8.932   3.242  25.205  1.00 18.57 LIG-0.34  N 
ATOM      8 H    CYS E  70       8.079   3.316  25.118  1.00 18.57 LIG 0.16  HD
ATOM      9 O    THR E  69      10.954   4.120  25.440  1.00 20.15 LIG-0.27  OA
BRANCH 7 10
ATOM     10  CA  CYS E  70       9.428   1.878  25.137  1.00 18.45 LIG 0.18  C 
BRANCH 10 11
ATOM     11  C   CYS E  70       9.523   1.525  23.664  1.00 19.42 LIG 0.24  C 
ATOM     12  N   ASP E  71      10.707   1.041  23.250  1.00 17.61 LIG-0.34  N 
ATOM     13 H    ASP E  71      11.391   0.962  23.766  1.00 17.61 LIG 0.16  HD
ATOM     14 O    CYS E  70       8.550   1.730  22.931  1.00 18.07 LIG-0.27  OA
BRANCH 12 15
ATOM     15  CA  ASP E  71      10.947   0.603  21.889  1.00 16.95 LIG 0.19  C 
BRANCH 15 16
ATOM     16  C   ASP E  71       9.991  -0.535  21.695  1.00 18.90 LIG 0.24  C 
ATOM     17 O    ASP E  71       9.223  -0.537  20.701  1.00 16.52 LIG-0.27  OA
ATOM     18  N   SER E  72      10.007  -1.484  22.632  1.00 19.80 LIG-0.34  N 
ATOM     19 H    SER E  72      10.486  -1.450  23.346  1.00 19.80 LIG 0.16  HD
BRANCH 18 20
ATOM     20  CA  SER E  72       9.185  -2.682  22.504  1.00 20.01 LIG 0.20  C 
BRANCH 20 21
ATOM     21  C   SER E  72       9.092  -3.488  23.762  1.00 24.22 LIG 0.29  C 
ATOM     22  N   NH2 E  73       9.634  -2.890  24.880  1.00 28.43 LIG-0.11  N 
ATOM     23 O    SER E  72       8.787  -4.659  23.732  1.00 27.83 LIG-0.27  OA
ENDBRANCH 20 21
BRANCH 20 24
ATOM     24  CB  SER E  72       9.710  -3.558  21.391  1.00 25.59 LIG 0.20  C 
BRANCH 24 25
ATOM     25 OG   SER E  72       8.980  -3.357  20.206  1.00 28.15 LIG-0.40  OA
ATOM     26 HG   SER E  72       8.669  -2.576  20.197  1.00 28.15 LIG 0.21  HD
ENDBRANCH 24 25
ENDBRANCH 20 24
ENDBRANCH 18 20
ENDBRANCH 15 16
BRANCH 15 27
ATOM     27  CB  ASP E  71      12.413   0.184  21.694  1.00 12.80 LIG 0.15  C 
BRANCH 27 28
ATOM     28  CG  ASP E  71      12.615  -1.289  21.930  1.00 14.21 LIG 0.17  C 
ATOM     29 OD2  ASP E  71      12.542  -2.099  20.995  1.00 15.44 LIG-0.65  OA
ATOM     30 OD1  ASP E  71      12.828  -1.664  23.091  1.00 16.80 LIG-0.65  OA
ENDBRANCH 27 28
ENDBRANCH 15 27
ENDBRANCH 12 15
ENDBRANCH 10 11
BRANCH 10 31
ATOM     31  CB  CYS E  70       8.494   0.900  25.903  1.00 19.19 LIG 0.10  C 
BRANCH 31 32
ATOM     32 SG   CYS E  70       6.815   0.708  25.260  1.00 25.14 LIG-0.18  SA
ATOM     33 HG   CYS E  70       6.660   1.437  24.318  1.00 25.14 LIG 0.10  HD
ENDBRANCH 31 32
ENDBRANCH 10 31
ENDBRANCH 7 10
ENDBRANCH 5 6
BRANCH 5 34
ATOM     34  CB  THR E  69       8.093   5.958  24.442  1.00 17.77 LIG 0.15  C 
ATOM     35  CG2 THR E  69       8.585   7.088  23.606  1.00 20.71 LIG 0.04  C 
BRANCH 34 36
ATOM     36 OG1  THR E  69       7.930   4.844  23.584  1.00 16.43 LIG-0.39  OA
ATOM     37 HG1  THR E  69       7.206   4.916  23.165  1.00 16.43 LIG 0.21  HD
ENDBRANCH 34 36
ENDBRANCH 5 34
ENDBRANCH 3 5
BRANCH 1 38
ATOM     38  CA  ALA E  68      10.931   8.920  26.292  1.00 20.08 LIG 0.17  C 
ATOM     39  CB  ALA E  68      12.151   8.653  27.140  1.00 20.16 LIG 0.04  C 
BRANCH 38 40
ATOM     40  N   ALA E  68      10.333  10.171  26.668  1.00 18.16 LIG-0.35  N 
ATOM     41 H    ALA E  68      10.572  10.469  27.439  1.00 18.16 LIG 0.16  HD
ATOM     42  C   TRP E  67       9.486  10.782  25.864  1.00 18.88 LIG 0.24  C 
ATOM     43 O    TRP E  67       9.093  10.327  24.777  1.00 21.47 LIG-0.27  OA
BRANCH 42 44
ATOM     44  CA  TRP E  67       8.935  12.052  26.402  1.00 17.18 LIG 0.18  C 
BRANCH 44 45
ATOM     45  N   TRP E  67       8.875  12.053  27.907  1.00 16.72 LIG-0.35  N 
ATOM     46  C   PRO E  66       7.977  11.370  28.634  1.00 16.87 LIG 0.24  C 
ATOM     47 O    PRO E  66       7.013  10.780  28.150  1.00 18.41 LIG-0.27  OA
ATOM     48 H    TRP E  67       9.483  12.542  28.268  1.00 16.72 LIG 0.16  HD
BRANCH 46 49
ATOM     49  CA  PRO E  66       8.143  11.364  30.173  1.00 17.04 LIG 0.18  C 
ATOM     50  CB  PRO E  66       7.111  12.269  30.866  1.00 18.40 LIG 0.04  C 
ATOM     51  CG  PRO E  66       7.848  13.505  31.290  1.00 18.41 LIG 0.02  C 
ATOM     52  CD  PRO E  66       9.269  13.075  31.527  1.00 21.21 LIG 0.13  C 
ATOM     53  N   PRO E  66       9.428  11.882  30.683  1.00 19.82 LIG-0.34  N 
ATOM     54  C   ACE E  65      10.565  11.157  30.438  1.00 17.72 LIG 0.22  C 
ATOM     55  CH3 ACE E  65      11.824  11.669  31.006  1.00 22.93 LIG 0.12  C 
ATOM     56 O    ACE E  65      10.591  10.161  29.754  1.00 18.13 LIG-0.27  OA
ENDBRANCH 46 49
ENDBRANCH 44 45
BRANCH 44 57
ATOM     57  CB  TRP E  67       9.728  13.278  25.879  1.00 18.36 LIG 0.07  C 
BRANCH 57 58
ATOM     58  CG  TRP E  67      10.807  13.697  26.741  1.00 19.51 LIG-0.03  A 
ATOM     59  CD1 TRP E  67      12.122  13.420  26.592  1.00 20.71 LIG 0.10  A 
ATOM     60  NE1 TRP E  67      12.840  13.996  27.598  1.00 21.73 LIG-0.36  N 
ATOM     61  CE2 TRP E  67      11.982  14.664  28.423  1.00 22.59 LIG 0.04  A 
ATOM     62 HE1  TRP E  67      13.693  13.946  27.696  1.00 21.73 LIG 0.17  HD
ATOM     63  CD2 TRP E  67      10.686  14.495  27.903  1.00 20.57 LIG-0.00  A 
ATOM     64  CZ2 TRP E  67      12.229  15.401  29.571  1.00 23.91 LIG 0.03  A 
ATOM     65  CE3 TRP E  67       9.609  15.089  28.561  1.00 19.56 LIG 0.01  A 
ATOM     66  CZ3 TRP E  67       9.848  15.809  29.682  1.00 20.82 LIG 0.00  A 
ATOM     67  CH2 TRP E  67      11.149  15.969  30.187  1.00 24.07 LIG 0.00  A 
ENDBRANCH 57 58
ENDBRANCH 44 57
ENDBRANCH 42 44
ENDBRANCH 38 40
ENDBRANCH 1 38
TORSDOF 23
ENDMDL
MODEL 39
USER: ADFR SOLUTION from run 29
USER: SCORE 18.251165 LL:  -5.088 LR: -14.605 RR:   0.000 FEB:  -7.744
USER: RMSD 4.047109
USER: SEED 28
USER: STATUS no improvement in best in 3 clusters for 5 generations
USER: GENES 25
USER: genes 0 Translation |==|  0.53333 0.52904 0.38461
USER: genes 1 Rotation |==|  0.77227 0.82011 0.61828 0.74373
USER: genes 2 Torsion [C]-N--CA-[C] |==|  0.56279
USER: genes 3 Torsion [N]-CA--C-[N] |==|  0.37489
USER: genes 4 Torsion [C]-N--CA-[C] |==|  0.73872
USER: genes 5 Torsion [N]-CA--C-[N] |==|  0.29098
USER: genes 6 Torsion [C]-N--CA-[C] |==|  0.76225
USER: genes 7 Torsion [N]-CA--C-[N] |==|  0.36799
USER: genes 8 Torsion [C]-N--CA-[CB] |==|  0.16122
USER: genes 9 Torsion [N]-CA--C-[N] |==|  0.07465
USER: genes 10 Torsion [N]-CA--CB-[OG] |==|  0.55337
USER: genes 11 Torsion [CA]-CB--OG-[HG] |==|  0.80864
USER: genes 12 Torsion [N]-CA--CB-[CG] |==|  0.59698
USER: genes 13 Torsion [CA]-CB--CG-[OD2] |==|  0.73044
USER: genes 14 Torsion [N]-CA--CB-[SG] |==|  0.16171
USER: genes 15 Torsion [CA]-CB--SG-[HG] |==|  0.89002
USER: genes 16 Torsion [N]-CA--CB-[OG1] |==|  0.75767
USER: genes 17 Torsion [CA]-CB--OG1-[HG1] |==|  0.62498
USER: genes 18 Torsion [N]-C--CA-[N] |==|  0.56053
USER: genes 19 Torsion [C]-CA--N-[C] |==|  0.70198
USER: genes 20 Torsion [N]-C--CA-[N] |==|  0.10000
USER: genes 21 Torsion [C]-CA--N-[C] |==|  0.14147
USER: genes 22 Torsion [N]-C--CA-[N] |==|  0.86433
USER: genes 23 Torsion [C]-CA--CB-[CG] |==|  0.53990
USER: genes 24 Torsion [CA]-CB--CG-[CD2] |==|  0.39100
ROOT
ATOM      1  C   ALA E  68       7.843   4.268  25.966  1.00 21.38 LIG 0.24  C 
ATOM      2 O    ALA E  68       7.359   4.786  24.954  1.00 23.30 LIG-0.27  OA
ATOM      3  N   THR E  69       7.643   2.990  26.306  1.00 18.30 LIG-0.34  N 
ATOM      4 H    THR E  69       7.887   2.646  27.056  1.00 18.30 LIG 0.16  HD
ENDROOT
BRANCH 3 5
ATOM      5  CA  THR E  69       6.978   2.057  25.399  1.00 19.45 LIG 0.20  C 
BRANCH 5 6
ATOM      6  C   THR E  69       6.366   0.861  26.154  1.00 19.66 LIG 0.24  C 
ATOM      7  N   CYS E  70       5.140   0.505  25.818  1.00 18.57 LIG-0.34  N 
ATOM      8 H    CYS E  70       4.697   0.857  25.170  1.00 18.57 LIG 0.16  HD
ATOM      9 O    THR E  69       6.983   0.294  27.034  1.00 20.15 LIG-0.27  OA
BRANCH 7 10
ATOM     10  CA  CYS E  70       4.430  -0.538  26.538  1.00 18.45 LIG 0.18  C 
BRANCH 10 11
ATOM     11  C   CYS E  70       4.676  -1.830  25.782  1.00 19.42 LIG 0.24  C 
ATOM     12  N   ASP E  71       5.551  -2.683  26.343  1.00 17.61 LIG-0.34  N 
ATOM     13 H    ASP E  71       5.982  -2.510  27.067  1.00 17.61 LIG 0.16  HD
ATOM     14 O    CYS E  70       4.108  -2.013  24.700  1.00 18.07 LIG-0.27  OA
BRANCH 12 15
ATOM     15  CA  ASP E  71       5.855  -3.984  25.779  1.00 16.95 LIG 0.19  C 
BRANCH 15 16
ATOM     16  C   ASP E  71       4.789  -4.882  26.331  1.00 18.90 LIG 0.24  C 
ATOM     17 O    ASP E  71       4.538  -4.863  27.562  1.00 16.52 LIG-0.27  OA
ATOM     18  N   SER E  72       4.179  -5.679  25.453  1.00 19.80 LIG-0.34  N 
ATOM     19 H    SER E  72       4.395  -5.739  24.622  1.00 19.80 LIG 0.16  HD
BRANCH 18 20
ATOM     20  CA  SER E  72       3.066  -6.531  25.857  1.00 20.01 LIG 0.20  C 
BRANCH 20 21
ATOM     21  C   SER E  72       2.519  -7.375  24.750  1.00 24.22 LIG 0.29  C 
ATOM     22  N   NH2 E  73       3.418  -7.682  23.750  1.00 28.43 LIG-0.11  N 
ATOM     23 O    SER E  72       1.328  -7.558  24.634  1.00 27.83 LIG-0.27  OA
ENDBRANCH 20 21
BRANCH 20 24
ATOM     24  CB  SER E  72       1.952  -5.693  26.439  1.00 25.59 LIG 0.20  C 
BRANCH 24 25
ATOM     25 OG   SER E  72       1.083  -6.479  27.217  1.00 28.15 LIG-0.40  OA
ATOM     26 HG   SER E  72       0.654  -7.001  26.717  1.00 28.15 LIG 0.21  HD
ENDBRANCH 24 25
ENDBRANCH 20 24
ENDBRANCH 18 20
ENDBRANCH 15 16
BRANCH 15 27
ATOM     27  CB  ASP E  71       7.271  -4.437  26.169  1.00 12.80 LIG 0.15  C 
BRANCH 27 28
ATOM     28  CG  ASP E  71       7.935  -5.222  25.069  1.00 14.21 LIG 0.17  C 
ATOM     29 OD2  ASP E  71       7.926  -6.461  25.077  1.00 15.44 LIG-0.65  OA
ATOM     30 OD1  ASP E  71       8.511  -4.589  24.174  1.00 16.80 LIG-0.65  OA
ENDBRANCH 27 28
ENDBRANCH 15 27
ENDBRANCH 12 15
ENDBRANCH 10 11
BRANCH 10 31
ATOM     31  CB  CYS E  70       2.915  -0.215  26.647  1.00 19.19 LIG 0.10  C 
BRANCH 31 32
ATOM     32 SG   CYS E  70       2.019   0.016  25.093  1.00 25.14 LIG-0.18  SA
ATOM     33 HG   CYS E  70       2.707   0.625  24.321  1.00 25.14 LIG 0.10  HD
ENDBRANCH 31 32
ENDBRANCH 10 31
ENDBRANCH 7 10
ENDBRANCH 5 6
BRANCH 5 34
ATOM     34  CB  THR E  69       7.946   1.602  24.293  1.00 17.77 LIG 0.15  C 
ATOM     35  CG2 THR E  69       7.539   0.267  23.774  1.00 20.71 LIG 0.04  C 
BRANCH 34 36
ATOM     36 OG1  THR E  69       7.924   2.499  23.197  1.00 16.43 LIG-0.39  OA
ATOM     37 HG1  THR E  69       7.890   2.064  22.480  1.00 16.43 LIG 0.21  HD
ENDBRANCH 34 36
ENDBRANCH 5 34
ENDBRANCH 3 5
BRANCH 1 38
ATOM     38  CA  ALA E  68       8.722   5.105  26.891  1.00 20.08 LIG 0.17  C 
ATOM     39  CB  ALA E  68       8.501   4.710  28.331  1.00 20.16 LIG 0.04  C 
BRANCH 38 40
ATOM     40  N   ALA E  68       8.452   6.505  26.717  1.00 18.16 LIG-0.35  N 
ATOM     41 H    ALA E  68       7.702   6.773  27.042  1.00 18.16 LIG 0.16  HD
ATOM     42  C   TRP E  67       9.317   7.286  26.099  1.00 18.88 LIG 0.24  C 
ATOM     43 O    TRP E  67      10.374   6.895  25.578  1.00 21.47 LIG-0.27  OA
BRANCH 42 44
ATOM     44  CA  TRP E  67       8.886   8.703  25.977  1.00 17.18 LIG 0.18  C 
BRANCH 44 45
ATOM     45  N   TRP E  67       8.118   9.170  27.186  1.00 16.72 LIG-0.35  N 
ATOM     46  C   PRO E  66       8.536   9.031  28.453  1.00 16.87 LIG 0.24  C 
ATOM     47 O    PRO E  66       9.527   8.380  28.780  1.00 18.41 LIG-0.27  OA
ATOM     48 H    TRP E  67       7.370   9.543  26.986  1.00 16.72 LIG 0.16  HD
BRANCH 46 49
ATOM     49  CA  PRO E  66       7.695   9.695  29.571  1.00 17.04 LIG 0.18  C 
ATOM     50  CB  PRO E  66       6.329   9.011  29.745  1.00 18.40 LIG 0.04  C 
ATOM     51  CG  PRO E  66       5.314   9.927  29.125  1.00 18.41 LIG 0.02  C 
ATOM     52  CD  PRO E  66       5.876  11.314  29.263  1.00 21.21 LIG 0.13  C 
ATOM     53  N   PRO E  66       7.328  11.108  29.347  1.00 19.82 LIG-0.34  N 
ATOM     54  C   ACE E  65       8.323  12.049  29.373  1.00 17.72 LIG 0.22  C 
ATOM     55  CH3 ACE E  65       7.922  13.457  29.202  1.00 22.93 LIG 0.12  C 
ATOM     56 O    ACE E  65       9.497  11.783  29.482  1.00 18.13 LIG-0.27  OA
ENDBRANCH 46 49
ENDBRANCH 44 45
BRANCH 44 57
ATOM     57  CB  TRP E  67      10.091   9.638  25.692  1.00 18.36 LIG 0.07  C 
BRANCH 57 58
ATOM     58  CG  TRP E  67       9.811  11.040  25.883  1.00 19.51 LIG-0.03  A 
ATOM     59  CD1 TRP E  67       8.669  11.692  25.570  1.00 20.71 LIG 0.10  A 
ATOM     60  NE1 TRP E  67       8.773  13.009  25.908  1.00 21.73 LIG-0.36  N 
ATOM     61  CE2 TRP E  67      10.005  13.227  26.453  1.00 22.59 LIG 0.04  A 
ATOM     62 HE1  TRP E  67       8.162  13.605  25.795  1.00 21.73 LIG 0.17  HD
ATOM     63  CD2 TRP E  67      10.685  11.995  26.454  1.00 20.57 LIG-0.00  A 
ATOM     64  CZ2 TRP E  67      10.578  14.389  26.947  1.00 23.91 LIG 0.03  A 
ATOM     65  CE3 TRP E  67      11.979  11.936  26.970  1.00 19.56 LIG 0.01  A 
ATOM     66  CZ3 TRP E  67      12.540  13.069  27.454  1.00 20.82 LIG 0.00  A 
ATOM     67  CH2 TRP E  67      11.847  14.291  27.447  1.00 24.07 LIG 0.00  A 
ENDBRANCH 57 58
ENDBRANCH 44 57
ENDBRANCH 42 44
ENDBRANCH 38 40
ENDBRANCH 1 38
TORSDOF 23
ENDMDL
MODEL 40
USER: ADFR SOLUTION from run 117
USER: SCORE 17.148005 LL:  -4.882 LR: -14.596 RR:   0.000 FEB:  -7.735
USER: RMSD 7.012091
USER: SEED 116
USER: STATUS no improvement in best in 8 clusters for 5 generations
USER: GENES 25
USER: genes 0 Translation |==|  0.62620 0.59639 0.32528
USER: genes 1 Rotation |==|  0.45032 0.42788 0.65625 0.96682
USER: genes 2 Torsion [C]-N--CA-[C] |==|  0.62794
USER: genes 3 Torsion [N]-CA--C-[N] |==|  0.40810
USER: genes 4 Torsion [C]-N--CA-[C] |==|  0.62334
USER: genes 5 Torsion [N]-CA--C-[N] |==|  0.68386
USER: genes 6 Torsion [C]-N--CA-[C] |==|  0.51772
USER: genes 7 Torsion [N]-CA--C-[N] |==|  0.38688
USER: genes 8 Torsion [C]-N--CA-[CB] |==|  0.82145
USER: genes 9 Torsion [N]-CA--C-[N] |==|  0.44164
USER: genes 10 Torsion [N]-CA--CB-[OG] |==|  0.75980
USER: genes 11 Torsion [CA]-CB--OG-[HG] |==|  0.48099
USER: genes 12 Torsion [N]-CA--CB-[CG] |==|  0.28782
USER: genes 13 Torsion [CA]-CB--CG-[OD2] |==|  0.22637
USER: genes 14 Torsion [N]-CA--CB-[SG] |==|  0.11779
USER: genes 15 Torsion [CA]-CB--SG-[HG] |==|  0.53598
USER: genes 16 Torsion [N]-CA--CB-[OG1] |==|  0.99104
USER: genes 17 Torsion [CA]-CB--OG1-[HG1] |==|  0.16786
USER: genes 18 Torsion [N]-C--CA-[N] |==|  0.49610
USER: genes 19 Torsion [C]-CA--N-[C] |==|  0.71629
USER: genes 20 Torsion [N]-C--CA-[N] |==|  0.32604
USER: genes 21 Torsion [C]-CA--N-[C] |==|  0.57262
USER: genes 22 Torsion [N]-C--CA-[N] |==|  0.07956
USER: genes 23 Torsion [C]-CA--CB-[CG] |==|  0.65889
USER: genes 24 Torsion [CA]-CB--CG-[CD2] |==|  0.72521
ROOT
ATOM      1  C   ALA E  68       9.723   6.187  25.076  1.00 21.38 LIG 0.24  C 
ATOM      2 O    ALA E  68      10.899   5.956  25.380  1.00 23.30 LIG-0.27  OA
ATOM      3  N   THR E  69       8.825   5.227  24.830  1.00 18.30 LIG-0.34  N 
ATOM      4 H    THR E  69       8.037   5.373  24.518  1.00 18.30 LIG 0.16  HD
ENDROOT
BRANCH 3 5
ATOM      5  CA  THR E  69       9.128   3.820  25.080  1.00 19.45 LIG 0.20  C 
BRANCH 5 6
ATOM      6  C   THR E  69       8.703   2.924  23.901  1.00 19.66 LIG 0.24  C 
ATOM      7  N   CYS E  70       9.446   1.859  23.660  1.00 18.57 LIG-0.34  N 
ATOM      8 H    CYS E  70      10.105   1.610  24.154  1.00 18.57 LIG 0.16  HD
ATOM      9 O    THR E  69       7.740   3.205  23.216  1.00 20.15 LIG-0.27  OA
BRANCH 7 10
ATOM     10  CA  CYS E  70       9.198   1.007  22.510  1.00 18.45 LIG 0.18  C 
BRANCH 10 11
ATOM     11  C   CYS E  70       9.284  -0.424  23.005  1.00 19.42 LIG 0.24  C 
ATOM     12  N   ASP E  71      10.305  -1.153  22.521  1.00 17.61 LIG-0.34  N 
ATOM     13 H    ASP E  71      10.864  -0.856  21.940  1.00 17.61 LIG 0.16  HD
ATOM     14 O    CYS E  70       8.415  -0.851  23.773  1.00 18.07 LIG-0.27  OA
BRANCH 12 15
ATOM     15  CA  ASP E  71      10.564  -2.519  22.934  1.00 16.95 LIG 0.19  C 
BRANCH 15 16
ATOM     16  C   ASP E  71      11.864  -2.863  22.273  1.00 18.90 LIG 0.24  C 
ATOM     17 O    ASP E  71      12.070  -2.507  21.086  1.00 16.52 LIG-0.27  OA
ATOM     18  N   SER E  72      12.729  -3.564  23.006  1.00 19.80 LIG-0.34  N 
ATOM     19 H    SER E  72      12.564  -3.864  23.795  1.00 19.80 LIG 0.16  HD
BRANCH 18 20
ATOM     20  CA  SER E  72      14.061  -3.881  22.501  1.00 20.01 LIG 0.20  C 
BRANCH 20 21
ATOM     21  C   SER E  72      14.876  -2.676  22.150  1.00 24.22 LIG 0.29  C 
ATOM     22  N   NH2 E  73      16.239  -2.885  22.110  1.00 28.43 LIG-0.11  N 
ATOM     23 O    SER E  72      14.386  -1.570  22.147  1.00 27.83 LIG-0.27  OA
ENDBRANCH 20 21
BRANCH 20 24
ATOM     24  CB  SER E  72      13.959  -4.780  21.292  1.00 25.59 LIG 0.20  C 
BRANCH 24 25
ATOM     25 OG   SER E  72      13.890  -6.132  21.673  1.00 28.15 LIG-0.40  OA
ATOM     26 HG   SER E  72      13.740  -6.607  20.997  1.00 28.15 LIG 0.21  HD
ENDBRANCH 24 25
ENDBRANCH 20 24
ENDBRANCH 18 20
ENDBRANCH 15 16
BRANCH 15 27
ATOM     27  CB  ASP E  71       9.418  -3.451  22.509  1.00 12.80 LIG 0.15  C 
BRANCH 27 28
ATOM     28  CG  ASP E  71       9.784  -4.285  21.312  1.00 14.21 LIG 0.17  C 
ATOM     29 OD2  ASP E  71      10.455  -5.320  21.438  1.00 15.44 LIG-0.65  OA
ATOM     30 OD1  ASP E  71       9.417  -3.889  20.197  1.00 16.80 LIG-0.65  OA
ENDBRANCH 27 28
ENDBRANCH 15 27
ENDBRANCH 12 15
ENDBRANCH 10 11
BRANCH 10 31
ATOM     31  CB  CYS E  70      10.220   1.285  21.374  1.00 19.19 LIG 0.10  C 
BRANCH 31 32
ATOM     32 SG   CYS E  70      11.945   1.508  21.868  1.00 25.14 LIG-0.18  SA
ATOM     33 HG   CYS E  70      12.571   1.959  20.948  1.00 25.14 LIG 0.10  HD
ENDBRANCH 31 32
ENDBRANCH 10 31
ENDBRANCH 7 10
ENDBRANCH 5 6
BRANCH 5 34
ATOM     34  CB  THR E  69       8.494   3.363  26.406  1.00 17.77 LIG 0.15  C 
ATOM     35  CG2 THR E  69       9.547   2.854  27.328  1.00 20.71 LIG 0.04  C 
BRANCH 34 36
ATOM     36 OG1  THR E  69       7.853   4.442  27.061  1.00 16.43 LIG-0.39  OA
ATOM     37 HG1  THR E  69       7.245   4.747  26.569  1.00 16.43 LIG 0.21  HD
ENDBRANCH 34 36
ENDBRANCH 5 34
ENDBRANCH 3 5
BRANCH 1 38
ATOM     38  CA  ALA E  68       9.244   7.632  24.976  1.00 20.08 LIG 0.17  C 
ATOM     39  CB  ALA E  68       8.718   7.920  23.591  1.00 20.16 LIG 0.04  C 
BRANCH 38 40
ATOM     40  N   ALA E  68      10.308   8.543  25.298  1.00 18.16 LIG-0.35  N 
ATOM     41 H    ALA E  68      10.883   8.664  24.671  1.00 18.16 LIG 0.16  HD
ATOM     42  C   TRP E  67      10.359   9.128  26.479  1.00 18.88 LIG 0.24  C 
ATOM     43 O    TRP E  67       9.564   8.913  27.407  1.00 21.47 LIG-0.27  OA
BRANCH 42 44
ATOM     44  CA  TRP E  67      11.529  10.024  26.669  1.00 17.18 LIG 0.18  C 
BRANCH 44 45
ATOM     45  N   TRP E  67      11.119  11.456  26.892  1.00 16.72 LIG-0.35  N 
ATOM     46  C   PRO E  66      11.883  12.520  26.602  1.00 16.87 LIG 0.24  C 
ATOM     47 O    PRO E  66      13.060  12.443  26.254  1.00 18.41 LIG-0.27  OA
ATOM     48 H    TRP E  67      10.332  11.532  27.230  1.00 16.72 LIG 0.16  HD
BRANCH 46 49
ATOM     49  CA  PRO E  66      11.255  13.927  26.758  1.00 17.04 LIG 0.18  C 
ATOM     50  CB  PRO E  66      12.288  14.969  27.218  1.00 18.40 LIG 0.04  C 
ATOM     51  CG  PRO E  66      12.008  15.230  28.670  1.00 18.41 LIG 0.02  C 
ATOM     52  CD  PRO E  66      10.537  14.982  28.855  1.00 21.21 LIG 0.13  C 
ATOM     53  N   PRO E  66      10.191  14.048  27.775  1.00 19.82 LIG-0.34  N 
ATOM     54  C   ACE E  65       9.000  13.411  27.547  1.00 17.72 LIG 0.22  C 
ATOM     55  CH3 ACE E  65       7.937  13.594  28.552  1.00 22.93 LIG 0.12  C 
ATOM     56 O    ACE E  65       8.797  12.684  26.604  1.00 18.13 LIG-0.27  OA
ENDBRANCH 46 49
ENDBRANCH 44 45
BRANCH 44 57
ATOM     57  CB  TRP E  67      12.441   9.524  27.820  1.00 18.36 LIG 0.07  C 
BRANCH 57 58
ATOM     58  CG  TRP E  67      12.648  10.489  28.873  1.00 19.51 LIG-0.03  A 
ATOM     59  CD1 TRP E  67      11.820  10.755  29.907  1.00 20.71 LIG 0.10  A 
ATOM     60  NE1 TRP E  67      12.359  11.722  30.704  1.00 21.73 LIG-0.36  N 
ATOM     61  CE2 TRP E  67      13.564  12.098  30.184  1.00 22.59 LIG 0.04  A 
ATOM     62 HE1  TRP E  67      11.999  12.042  31.416  1.00 21.73 LIG 0.17  HD
ATOM     63  CD2 TRP E  67      13.776  11.330  29.024  1.00 20.57 LIG-0.00  A 
ATOM     64  CZ2 TRP E  67      14.483  13.035  30.629  1.00 23.91 LIG 0.03  A 
ATOM     65  CE3 TRP E  67      14.951  11.515  28.295  1.00 19.56 LIG 0.01  A 
ATOM     66  CZ3 TRP E  67      15.850  12.428  28.728  1.00 20.82 LIG 0.00  A 
ATOM     67  CH2 TRP E  67      15.623  13.186  29.889  1.00 24.07 LIG 0.00  A 
ENDBRANCH 57 58
ENDBRANCH 44 57
ENDBRANCH 42 44
ENDBRANCH 38 40
ENDBRANCH 1 38
TORSDOF 23
ENDMDL
MODEL 41
USER: ADFR SOLUTION from run 58
USER: SCORE 18.340493 LL:  -5.635 LR: -14.551 RR:   0.000 FEB:  -7.691
USER: RMSD 7.256335
USER: SEED 57
USER: STATUS no improvement in best in 11 clusters for 5 generations
USER: GENES 25
USER: genes 0 Translation |==|  0.59599 0.60720 0.35226
USER: genes 1 Rotation |==|  0.33588 0.18881 0.63355 0.82923
USER: genes 2 Torsion [C]-N--CA-[C] |==|  0.77060
USER: genes 3 Torsion [N]-CA--C-[N] |==|  0.45753
USER: genes 4 Torsion [C]-N--CA-[C] |==|  0.77039
USER: genes 5 Torsion [N]-CA--C-[N] |==|  0.26104
USER: genes 6 Torsion [C]-N--CA-[C] |==|  0.21286
USER: genes 7 Torsion [N]-CA--C-[N] |==|  0.03889
USER: genes 8 Torsion [C]-N--CA-[CB] |==|  0.84909
USER: genes 9 Torsion [N]-CA--C-[N] |==|  0.43155
USER: genes 10 Torsion [N]-CA--CB-[OG] |==|  0.92671
USER: genes 11 Torsion [CA]-CB--OG-[HG] |==|  0.28210
USER: genes 12 Torsion [N]-CA--CB-[CG] |==|  0.60765
USER: genes 13 Torsion [CA]-CB--CG-[OD2] |==|  0.75596
USER: genes 14 Torsion [N]-CA--CB-[SG] |==|  0.04205
USER: genes 15 Torsion [CA]-CB--SG-[HG] |==|  0.57294
USER: genes 16 Torsion [N]-CA--CB-[OG1] |==|  0.00602
USER: genes 17 Torsion [CA]-CB--OG1-[HG1] |==|  0.41614
USER: genes 18 Torsion [N]-C--CA-[N] |==|  0.63460
USER: genes 19 Torsion [C]-CA--N-[C] |==|  0.70499
USER: genes 20 Torsion [N]-C--CA-[N] |==|  0.45524
USER: genes 21 Torsion [C]-CA--N-[C] |==|  0.57589
USER: genes 22 Torsion [N]-C--CA-[N] |==|  0.09830
USER: genes 23 Torsion [C]-CA--CB-[CG] |==|  0.65532
USER: genes 24 Torsion [CA]-CB--CG-[CD2] |==|  0.73102
ROOT
ATOM      1  C   ALA E  68       9.112   6.495  25.481  1.00 21.38 LIG 0.24  C 
ATOM      2 O    ALA E  68       9.254   6.517  26.709  1.00 23.30 LIG-0.27  OA
ATOM      3  N   THR E  69       9.017   5.366  24.771  1.00 18.30 LIG-0.34  N 
ATOM      4 H    THR E  69       9.022   5.335  23.911  1.00 18.30 LIG 0.16  HD
ENDROOT
BRANCH 3 5
ATOM      5  CA  THR E  69       8.893   4.065  25.424  1.00 19.45 LIG 0.20  C 
BRANCH 5 6
ATOM      6  C   THR E  69      10.262   3.509  25.859  1.00 19.66 LIG 0.24  C 
ATOM      7  N   CYS E  70      10.254   2.509  26.721  1.00 18.57 LIG-0.34  N 
ATOM      8 H    CYS E  70       9.541   2.117  26.999  1.00 18.57 LIG 0.16  HD
ATOM      9 O    THR E  69      11.296   3.990  25.441  1.00 20.15 LIG-0.27  OA
BRANCH 7 10
ATOM     10  CA  CYS E  70      11.488   1.981  27.278  1.00 18.45 LIG 0.18  C 
BRANCH 10 11
ATOM     11  C   CYS E  70      12.043   1.007  26.256  1.00 19.42 LIG 0.24  C 
ATOM     12  N   ASP E  71      12.941   1.510  25.391  1.00 17.61 LIG-0.34  N 
ATOM     13 H    ASP E  71      13.173   2.339  25.379  1.00 17.61 LIG 0.16  HD
ATOM     14 O    CYS E  70      11.626  -0.156  26.241  1.00 18.07 LIG-0.27  OA
BRANCH 12 15
ATOM     15  CA  ASP E  71      13.609   0.703  24.389  1.00 16.95 LIG 0.19  C 
BRANCH 15 16
ATOM     16  C   ASP E  71      12.572   0.505  23.325  1.00 18.90 LIG 0.24  C 
ATOM     17 O    ASP E  71      12.758  -0.355  22.429  1.00 16.52 LIG-0.27  OA
ATOM     18  N   SER E  72      11.501   1.297  23.393  1.00 19.80 LIG-0.34  N 
ATOM     19 H    SER E  72      11.403   1.930  23.968  1.00 19.80 LIG 0.16  HD
BRANCH 18 20
ATOM     20  CA  SER E  72      10.386   1.137  22.466  1.00 20.01 LIG 0.20  C 
BRANCH 20 21
ATOM     21  C   SER E  72       9.609  -0.125  22.669  1.00 24.22 LIG 0.29  C 
ATOM     22  N   NH2 E  73       8.303  -0.084  22.225  1.00 28.43 LIG-0.11  N 
ATOM     23 O    SER E  72      10.027  -1.009  23.381  1.00 27.83 LIG-0.27  OA
ENDBRANCH 20 21
BRANCH 20 24
ATOM     24  CB  SER E  72      10.882   1.191  21.041  1.00 25.59 LIG 0.20  C 
BRANCH 24 25
ATOM     25 OG   SER E  72      12.068   1.940  20.948  1.00 28.15 LIG-0.40  OA
ATOM     26 HG   SER E  72      12.726   1.419  20.893  1.00 28.15 LIG 0.21  HD
ENDBRANCH 24 25
ENDBRANCH 20 24
ENDBRANCH 18 20
ENDBRANCH 15 16
BRANCH 15 27
ATOM     27  CB  ASP E  71      14.103  -0.624  24.987  1.00 12.80 LIG 0.15  C 
BRANCH 27 28
ATOM     28  CG  ASP E  71      15.448  -1.023  24.443  1.00 14.21 LIG 0.17  C 
ATOM     29 OD2  ASP E  71      15.540  -1.691  23.403  1.00 15.44 LIG-0.65  OA
ATOM     30 OD1  ASP E  71      16.454  -0.685  25.082  1.00 16.80 LIG-0.65  OA
ENDBRANCH 27 28
ENDBRANCH 15 27
ENDBRANCH 12 15
ENDBRANCH 10 11
BRANCH 10 31
ATOM     31  CB  CYS E  70      11.238   1.293  28.649  1.00 19.19 LIG 0.10  C 
BRANCH 31 32
ATOM     32 SG   CYS E  70       9.521   0.906  29.062  1.00 25.14 LIG-0.18  SA
ATOM     33 HG   CYS E  70       9.393   0.876  30.256  1.00 25.14 LIG 0.10  HD
ENDBRANCH 31 32
ENDBRANCH 10 31
ENDBRANCH 7 10
ENDBRANCH 5 6
BRANCH 5 34
ATOM     34  CB  THR E  69       8.135   3.079  24.515  1.00 17.77 LIG 0.15  C 
ATOM     35  CG2 THR E  69       6.855   2.673  25.157  1.00 20.71 LIG 0.04  C 
BRANCH 34 36
ATOM     36 OG1  THR E  69       7.808   3.681  23.276  1.00 16.43 LIG-0.39  OA
ATOM     37 HG1  THR E  69       7.789   3.094  22.676  1.00 16.43 LIG 0.21  HD
ENDBRANCH 34 36
ENDBRANCH 5 34
ENDBRANCH 3 5
BRANCH 1 38
ATOM     38  CA  ALA E  68       9.032   7.811  24.712  1.00 20.08 LIG 0.17  C 
ATOM     39  CB  ALA E  68       9.085   7.557  23.224  1.00 20.16 LIG 0.04  C 
BRANCH 38 40
ATOM     40  N   ALA E  68      10.100   8.691  25.099  1.00 18.16 LIG-0.35  N 
ATOM     41 H    ALA E  68      10.876   8.473  24.798  1.00 18.16 LIG 0.16  HD
ATOM     42  C   TRP E  67       9.864   9.741  25.861  1.00 18.88 LIG 0.24  C 
ATOM     43 O    TRP E  67       8.758  10.026  26.346  1.00 21.47 LIG-0.27  OA
BRANCH 42 44
ATOM     44  CA  TRP E  67      11.071  10.540  26.195  1.00 17.18 LIG 0.18  C 
BRANCH 44 45
ATOM     45  N   TRP E  67      10.721  11.908  26.720  1.00 16.72 LIG-0.35  N 
ATOM     46  C   PRO E  66      11.507  12.989  26.612  1.00 16.87 LIG 0.24  C 
ATOM     47 O    PRO E  66      12.664  12.955  26.197  1.00 18.41 LIG-0.27  OA
ATOM     48 H    TRP E  67       9.952  11.933  27.105  1.00 16.72 LIG 0.16  HD
BRANCH 46 49
ATOM     49  CA  PRO E  66      10.935  14.351  27.077  1.00 17.04 LIG 0.18  C 
ATOM     50  CB  PRO E  66      12.044  15.315  27.530  1.00 18.40 LIG 0.04  C 
ATOM     51  CG  PRO E  66      11.992  15.345  29.030  1.00 18.41 LIG 0.02  C 
ATOM     52  CD  PRO E  66      10.562  15.062  29.397  1.00 21.21 LIG 0.13  C 
ATOM     53  N   PRO E  66      10.040  14.305  28.250  1.00 19.82 LIG-0.34  N 
ATOM     54  C   ACE E  65       8.817  13.704  28.112  1.00 17.72 LIG 0.22  C 
ATOM     55  CH3 ACE E  65       7.922  13.722  29.282  1.00 22.93 LIG 0.12  C 
ATOM     56 O    ACE E  65       8.460  13.132  27.109  1.00 18.13 LIG-0.27  OA
ENDBRANCH 46 49
ENDBRANCH 44 45
BRANCH 44 57
ATOM     57  CB  TRP E  67      11.992   9.785  27.189  1.00 18.36 LIG 0.07  C 
BRANCH 57 58
ATOM     58  CG  TRP E  67      12.284  10.517  28.398  1.00 19.51 LIG-0.03  A 
ATOM     59  CD1 TRP E  67      11.523  10.584  29.513  1.00 20.71 LIG 0.10  A 
ATOM     60  NE1 TRP E  67      12.132  11.363  30.451  1.00 21.73 LIG-0.36  N 
ATOM     61  CE2 TRP E  67      13.316  11.817  29.944  1.00 22.59 LIG 0.04  A 
ATOM     62 HE1  TRP E  67      11.821  11.540  31.234  1.00 21.73 LIG 0.17  HD
ATOM     63  CD2 TRP E  67      13.441  11.293  28.644  1.00 20.57 LIG-0.00  A 
ATOM     64  CZ2 TRP E  67      14.284  12.631  30.511  1.00 23.91 LIG 0.03  A 
ATOM     65  CE3 TRP E  67      14.577  11.601  27.897  1.00 19.56 LIG 0.01  A 
ATOM     66  CZ3 TRP E  67      15.524  12.396  28.448  1.00 20.82 LIG 0.00  A 
ATOM     67  CH2 TRP E  67      15.384  12.909  29.748  1.00 24.07 LIG 0.00  A 
ENDBRANCH 57 58
ENDBRANCH 44 57
ENDBRANCH 42 44
ENDBRANCH 38 40
ENDBRANCH 1 38
TORSDOF 23
ENDMDL
MODEL 42
USER: ADFR SOLUTION from run 3
USER: SCORE 18.016634 LL:  -4.846 LR: -14.457 RR:   0.000 FEB:  -7.596
USER: RMSD 5.946753
USER: SEED 827810
USER: STATUS no improvement in best in 11 clusters for 5 generations
USER: GENES 25
USER: genes 0 Translation |==|  0.58064 0.54114 0.33914
USER: genes 1 Rotation |==|  0.39503 0.80743 0.67844 0.83560
USER: genes 2 Torsion [C]-N--CA-[C] |==|  0.81787
USER: genes 3 Torsion [N]-CA--C-[N] |==|  0.95705
USER: genes 4 Torsion [C]-N--CA-[C] |==|  0.72309
USER: genes 5 Torsion [N]-CA--C-[N] |==|  0.25170
USER: genes 6 Torsion [C]-N--CA-[C] |==|  0.64444
USER: genes 7 Torsion [N]-CA--C-[N] |==|  0.07463
USER: genes 8 Torsion [C]-N--CA-[CB] |==|  0.82155
USER: genes 9 Torsion [N]-CA--C-[N] |==|  0.31508
USER: genes 10 Torsion [N]-CA--CB-[OG] |==|  0.94740
USER: genes 11 Torsion [CA]-CB--OG-[HG] |==|  0.06264
USER: genes 12 Torsion [N]-CA--CB-[CG] |==|  0.13295
USER: genes 13 Torsion [CA]-CB--CG-[OD2] |==|  0.87559
USER: genes 14 Torsion [N]-CA--CB-[SG] |==|  0.05891
USER: genes 15 Torsion [CA]-CB--SG-[HG] |==|  0.33613
USER: genes 16 Torsion [N]-CA--CB-[OG1] |==|  0.02670
USER: genes 17 Torsion [CA]-CB--OG1-[HG1] |==|  0.09940
USER: genes 18 Torsion [N]-C--CA-[N] |==|  0.16251
USER: genes 19 Torsion [C]-CA--N-[C] |==|  0.17184
USER: genes 20 Torsion [N]-C--CA-[N] |==|  0.40456
USER: genes 21 Torsion [C]-CA--N-[C] |==|  0.82234
USER: genes 22 Torsion [N]-C--CA-[N] |==|  0.14525
USER: genes 23 Torsion [C]-CA--CB-[CG] |==|  0.41936
USER: genes 24 Torsion [CA]-CB--CG-[CD2] |==|  0.29387
ROOT
ATOM      1  C   ALA E  68       8.801   4.612  25.284  1.00 21.38 LIG 0.24  C 
ATOM      2 O    ALA E  68       9.382   4.099  24.322  1.00 23.30 LIG-0.27  OA
ATOM      3  N   THR E  69       8.936   4.179  26.542  1.00 18.30 LIG-0.34  N 
ATOM      4 H    THR E  69       8.461   4.458  27.202  1.00 18.30 LIG 0.16  HD
ENDROOT
BRANCH 3 5
ATOM      5  CA  THR E  69       9.932   3.169  26.896  1.00 19.45 LIG 0.20  C 
BRANCH 5 6
ATOM      6  C   THR E  69       9.627   1.809  26.241  1.00 19.66 LIG 0.24  C 
ATOM      7  N   CYS E  70       8.414   1.642  25.746  1.00 18.57 LIG-0.34  N 
ATOM      8 H    CYS E  70       7.817   2.261  25.715  1.00 18.57 LIG 0.16  HD
ATOM      9 O    THR E  69      10.462   0.928  26.206  1.00 20.15 LIG-0.27  OA
BRANCH 7 10
ATOM     10  CA  CYS E  70       7.987   0.364  25.203  1.00 18.45 LIG 0.18  C 
BRANCH 10 11
ATOM     11  C   CYS E  70       8.114   0.470  23.695  1.00 19.42 LIG 0.24  C 
ATOM     12  N   ASP E  71       9.295   0.092  23.176  1.00 17.61 LIG-0.34  N 
ATOM     13 H    ASP E  71       9.962  -0.164  23.655  1.00 17.61 LIG 0.16  HD
ATOM     14 O    CYS E  70       7.169   0.924  23.040  1.00 18.07 LIG-0.27  OA
BRANCH 12 15
ATOM     15  CA  ASP E  71       9.562   0.079  21.751  1.00 16.95 LIG 0.19  C 
BRANCH 15 16
ATOM     16  C   ASP E  71      10.087  -1.301  21.488  1.00 18.90 LIG 0.24  C 
ATOM     17 O    ASP E  71      10.846  -1.499  20.507  1.00 16.52 LIG-0.27  OA
ATOM     18  N   SER E  72       9.681  -2.254  22.327  1.00 19.80 LIG-0.34  N 
ATOM     19 H    SER E  72       9.111  -2.132  22.960  1.00 19.80 LIG 0.16  HD
BRANCH 18 20
ATOM     20  CA  SER E  72      10.195  -3.616  22.225  1.00 20.01 LIG 0.20  C 
BRANCH 20 21
ATOM     21  C   SER E  72      11.682  -3.712  22.363  1.00 24.22 LIG 0.29  C 
ATOM     22  N   NH2 E  73      12.122  -4.371  23.493  1.00 28.43 LIG-0.11  N 
ATOM     23 O    SER E  72      12.418  -3.052  21.666  1.00 27.83 LIG-0.27  OA
ENDBRANCH 20 21
BRANCH 20 24
ATOM     24  CB  SER E  72       9.778  -4.233  20.911  1.00 25.59 LIG 0.20  C 
BRANCH 24 25
ATOM     25 OG   SER E  72       8.691  -3.539  20.351  1.00 28.15 LIG-0.40  OA
ATOM     26 HG   SER E  72       8.666  -2.758  20.662  1.00 28.15 LIG 0.21  HD
ENDBRANCH 24 25
ENDBRANCH 20 24
ENDBRANCH 18 20
ENDBRANCH 15 16
BRANCH 15 27
ATOM     27  CB  ASP E  71      10.565   1.177  21.366  1.00 12.80 LIG 0.15  C 
BRANCH 27 28
ATOM     28  CG  ASP E  71      11.766   1.187  22.272  1.00 14.21 LIG 0.17  C 
ATOM     29 OD2  ASP E  71      11.637   1.091  23.501  1.00 15.44 LIG-0.65  OA
ATOM     30 OD1  ASP E  71      12.882   1.322  21.752  1.00 16.80 LIG-0.65  OA
ENDBRANCH 27 28
ENDBRANCH 15 27
ENDBRANCH 12 15
ENDBRANCH 10 11
BRANCH 10 31
ATOM     31  CB  CYS E  70       6.533   0.027  25.634  1.00 19.19 LIG 0.10  C 
BRANCH 31 32
ATOM     32 SG   CYS E  70       5.495   1.414  26.151  1.00 25.14 LIG-0.18  SA
ATOM     33 HG   CYS E  70       4.524   1.472  25.447  1.00 25.14 LIG 0.10  HD
ENDBRANCH 31 32
ENDBRANCH 10 31
ENDBRANCH 7 10
ENDBRANCH 5 6
BRANCH 5 34
ATOM     34  CB  THR E  69      10.057   3.054  28.426  1.00 17.77 LIG 0.15  C 
ATOM     35  CG2 THR E  69      11.357   3.624  28.876  1.00 20.71 LIG 0.04  C 
BRANCH 34 36
ATOM     36 OG1  THR E  69       9.034   3.786  29.076  1.00 16.43 LIG-0.39  OA
ATOM     37 HG1  THR E  69       8.325   3.734  28.628  1.00 16.43 LIG 0.21  HD
ENDBRANCH 34 36
ENDBRANCH 5 34
ENDBRANCH 3 5
BRANCH 1 38
ATOM     38  CA  ALA E  68       7.880   5.807  25.054  1.00 20.08 LIG 0.17  C 
ATOM     39  CB  ALA E  68       7.826   6.158  23.587  1.00 20.16 LIG 0.04  C 
BRANCH 38 40
ATOM     40  N   ALA E  68       8.322   6.942  25.816  1.00 18.16 LIG-0.35  N 
ATOM     41 H    ALA E  68       7.761   7.225  26.403  1.00 18.16 LIG 0.16  HD
ATOM     42  C   TRP E  67       9.507   7.479  25.599  1.00 18.88 LIG 0.24  C 
ATOM     43 O    TRP E  67      10.296   7.111  24.714  1.00 21.47 LIG-0.27  OA
BRANCH 42 44
ATOM     44  CA  TRP E  67       9.811   8.659  26.449  1.00 17.18 LIG 0.18  C 
BRANCH 44 45
ATOM     45  N   TRP E  67      11.270   8.738  26.812  1.00 16.72 LIG-0.35  N 
ATOM     46  C   PRO E  66      11.918   7.830  27.558  1.00 16.87 LIG 0.24  C 
ATOM     47 O    PRO E  66      11.361   6.906  28.148  1.00 18.41 LIG-0.27  OA
ATOM     48 H    TRP E  67      11.660   9.433  26.491  1.00 16.72 LIG 0.16  HD
BRANCH 46 49
ATOM     49  CA  PRO E  66      13.450   7.984  27.718  1.00 17.04 LIG 0.18  C 
ATOM     50  CB  PRO E  66      14.015   7.036  28.790  1.00 18.40 LIG 0.04  C 
ATOM     51  CG  PRO E  66      14.305   7.884  29.994  1.00 18.41 LIG 0.02  C 
ATOM     52  CD  PRO E  66      14.615   9.256  29.465  1.00 21.21 LIG 0.13  C 
ATOM     53  N   PRO E  66      13.920   9.309  28.172  1.00 19.82 LIG-0.34  N 
ATOM     54  C   ACE E  65      13.781  10.374  27.321  1.00 17.72 LIG 0.22  C 
ATOM     55  CH3 ACE E  65      14.309  11.672  27.777  1.00 22.93 LIG 0.12  C 
ATOM     56 O    ACE E  65      13.219  10.311  26.253  1.00 18.13 LIG-0.27  OA
ENDBRANCH 46 49
ENDBRANCH 44 45
BRANCH 44 57
ATOM     57  CB  TRP E  67       9.336   9.975  25.779  1.00 18.36 LIG 0.07  C 
BRANCH 57 58
ATOM     58  CG  TRP E  67       8.977  11.018  26.709  1.00 19.51 LIG-0.03  A 
ATOM     59  CD1 TRP E  67       7.869  11.075  27.481  1.00 20.71 LIG 0.10  A 
ATOM     60  NE1 TRP E  67       7.883  12.207  28.240  1.00 21.73 LIG-0.36  N 
ATOM     61  CE2 TRP E  67       9.021  12.908  27.963  1.00 22.59 LIG 0.04  A 
ATOM     62 HE1  TRP E  67       7.274  12.441  28.801  1.00 21.73 LIG 0.17  HD
ATOM     63  CD2 TRP E  67       9.737  12.176  26.998  1.00 20.57 LIG-0.00  A 
ATOM     64  CZ2 TRP E  67       9.485  14.110  28.475  1.00 23.91 LIG 0.03  A 
ATOM     65  CE3 TRP E  67      10.957  12.673  26.538  1.00 19.56 LIG 0.01  A 
ATOM     66  CZ3 TRP E  67      11.411  13.846  27.037  1.00 20.82 LIG 0.00  A 
ATOM     67  CH2 TRP E  67      10.685  14.564  28.001  1.00 24.07 LIG 0.00  A 
ENDBRANCH 57 58
ENDBRANCH 44 57
ENDBRANCH 42 44
ENDBRANCH 38 40
ENDBRANCH 1 38
TORSDOF 23
ENDMDL
MODEL 43
USER: ADFR SOLUTION from run 27
USER: SCORE 19.273262 LL:  -6.473 LR: -14.445 RR:   0.000 FEB:  -7.584
USER: RMSD 13.101490
USER: SEED 26
USER: STATUS no improvement in best in 3 clusters for 5 generations
USER: GENES 25
USER: genes 0 Translation |==|  0.29185 0.37769 0.39446
USER: genes 1 Rotation |==|  0.42338 0.50975 0.97484 0.63624
USER: genes 2 Torsion [C]-N--CA-[C] |==|  0.75641
USER: genes 3 Torsion [N]-CA--C-[N] |==|  0.41897
USER: genes 4 Torsion [C]-N--CA-[C] |==|  0.83620
USER: genes 5 Torsion [N]-CA--C-[N] |==|  0.38776
USER: genes 6 Torsion [C]-N--CA-[C] |==|  0.75191
USER: genes 7 Torsion [N]-CA--C-[N] |==|  0.41948
USER: genes 8 Torsion [C]-N--CA-[CB] |==|  0.21946
USER: genes 9 Torsion [N]-CA--C-[N] |==|  0.82624
USER: genes 10 Torsion [N]-CA--CB-[OG] |==|  0.15383
USER: genes 11 Torsion [CA]-CB--OG-[HG] |==|  0.35508
USER: genes 12 Torsion [N]-CA--CB-[CG] |==|  0.56711
USER: genes 13 Torsion [CA]-CB--CG-[OD2] |==|  0.92757
USER: genes 14 Torsion [N]-CA--CB-[SG] |==|  0.93558
USER: genes 15 Torsion [CA]-CB--SG-[HG] |==|  0.83826
USER: genes 16 Torsion [N]-CA--CB-[OG1] |==|  0.88548
USER: genes 17 Torsion [CA]-CB--OG1-[HG1] |==|  0.27035
USER: genes 18 Torsion [N]-C--CA-[N] |==|  0.93848
USER: genes 19 Torsion [C]-CA--N-[C] |==|  0.81805
USER: genes 20 Torsion [N]-C--CA-[N] |==|  0.70997
USER: genes 21 Torsion [C]-CA--N-[C] |==|  0.15860
USER: genes 22 Torsion [N]-C--CA-[N] |==|  0.96290
USER: genes 23 Torsion [C]-CA--CB-[CG] |==|  0.52917
USER: genes 24 Torsion [CA]-CB--CG-[CD2] |==|  0.85797
ROOT
ATOM      1  C   ALA E  68       2.953  -0.046  26.114  1.00 21.38 LIG 0.24  C 
ATOM      2 O    ALA E  68       2.810   1.138  25.788  1.00 23.30 LIG-0.27  OA
ATOM      3  N   THR E  69       4.123  -0.567  26.498  1.00 18.30 LIG-0.34  N 
ATOM      4 H    THR E  69       4.258  -1.407  26.626  1.00 18.30 LIG 0.16  HD
ENDROOT
BRANCH 3 5
ATOM      5  CA  THR E  69       5.292   0.278  26.735  1.00 19.45 LIG 0.20  C 
BRANCH 5 6
ATOM      6  C   THR E  69       6.103   0.510  25.446  1.00 19.66 LIG 0.24  C 
ATOM      7  N   CYS E  70       6.772   1.645  25.356  1.00 18.57 LIG-0.34  N 
ATOM      8 H    CYS E  70       6.829   2.222  25.991  1.00 18.57 LIG 0.16  HD
ATOM      9 O    THR E  69       6.102  -0.310  24.550  1.00 20.15 LIG-0.27  OA
BRANCH 7 10
ATOM     10  CA  CYS E  70       7.481   2.010  24.142  1.00 18.45 LIG 0.18  C 
BRANCH 10 11
ATOM     11  C   CYS E  70       8.495   0.911  23.885  1.00 19.42 LIG 0.24  C 
ATOM     12  N   ASP E  71       8.644   0.536  22.602  1.00 17.61 LIG-0.34  N 
ATOM     13 H    ASP E  71       8.178   0.863  21.958  1.00 17.61 LIG 0.16  HD
ATOM     14 O    CYS E  70       9.086   0.400  24.842  1.00 18.07 LIG-0.27  OA
BRANCH 12 15
ATOM     15  CA  ASP E  71       9.609  -0.459  22.179  1.00 16.95 LIG 0.19  C 
BRANCH 15 16
ATOM     16  C   ASP E  71      10.852   0.330  21.899  1.00 18.90 LIG 0.24  C 
ATOM     17 O    ASP E  71      10.757   1.518  21.504  1.00 16.52 LIG-0.27  OA
ATOM     18  N   SER E  72      12.008  -0.313  22.074  1.00 19.80 LIG-0.34  N 
ATOM     19 H    SER E  72      12.073  -1.145  22.282  1.00 19.80 LIG 0.16  HD
BRANCH 18 20
ATOM     20  CA  SER E  72      13.284   0.378  21.918  1.00 20.01 LIG 0.20  C 
BRANCH 20 21
ATOM     21  C   SER E  72      14.434  -0.535  21.632  1.00 24.22 LIG 0.29  C 
ATOM     22  N   NH2 E  73      14.717  -1.448  22.626  1.00 28.43 LIG-0.11  N 
ATOM     23 O    SER E  72      15.191  -0.316  20.714  1.00 27.83 LIG-0.27  OA
ENDBRANCH 20 21
BRANCH 20 24
ATOM     24  CB  SER E  72      13.591   1.190  23.154  1.00 25.59 LIG 0.20  C 
BRANCH 24 25
ATOM     25 OG   SER E  72      13.566   0.383  24.306  1.00 28.15 LIG-0.40  OA
ATOM     26 HG   SER E  72      14.280   0.488  24.737  1.00 28.15 LIG 0.21  HD
ENDBRANCH 24 25
ENDBRANCH 20 24
ENDBRANCH 18 20
ENDBRANCH 15 16
BRANCH 15 27
ATOM     27  CB  ASP E  71       9.106  -1.228  20.947  1.00 12.80 LIG 0.15  C 
BRANCH 27 28
ATOM     28  CG  ASP E  71       9.742  -2.587  20.831  1.00 14.21 LIG 0.17  C 
ATOM     29 OD2  ASP E  71      10.858  -2.811  21.322  1.00 15.44 LIG-0.65  OA
ATOM     30 OD1  ASP E  71       9.127  -3.462  20.205  1.00 16.80 LIG-0.65  OA
ENDBRANCH 27 28
ENDBRANCH 15 27
ENDBRANCH 12 15
ENDBRANCH 10 11
BRANCH 10 31
ATOM     31  CB  CYS E  70       8.165   3.398  24.287  1.00 19.19 LIG 0.10  C 
BRANCH 31 32
ATOM     32 SG   CYS E  70       7.473   4.520  25.524  1.00 25.14 LIG-0.18  SA
ATOM     33 HG   CYS E  70       6.314   4.722  25.280  1.00 25.14 LIG 0.10  HD
ENDBRANCH 31 32
ENDBRANCH 10 31
ENDBRANCH 7 10
ENDBRANCH 5 6
BRANCH 5 34
ATOM     34  CB  THR E  69       6.159  -0.311  27.862  1.00 17.77 LIG 0.15  C 
ATOM     35  CG2 THR E  69       7.039   0.745  28.435  1.00 20.71 LIG 0.04  C 
BRANCH 34 36
ATOM     36 OG1  THR E  69       5.355  -0.802  28.919  1.00 16.43 LIG-0.39  OA
ATOM     37 HG1  THR E  69       5.252  -1.630  28.831  1.00 16.43 LIG 0.21  HD
ENDBRANCH 34 36
ENDBRANCH 5 34
ENDBRANCH 3 5
BRANCH 1 38
ATOM     38  CA  ALA E  68       1.748  -0.981  26.091  1.00 20.08 LIG 0.17  C 
ATOM     39  CB  ALA E  68       0.904  -0.786  27.327  1.00 20.16 LIG 0.04  C 
BRANCH 38 40
ATOM     40  N   ALA E  68       2.171  -2.351  25.994  1.00 18.16 LIG-0.35  N 
ATOM     41 H    ALA E  68       1.988  -2.836  26.681  1.00 18.16 LIG 0.16  HD
ATOM     42  C   TRP E  67       2.789  -2.791  24.916  1.00 18.88 LIG 0.24  C 
ATOM     43 O    TRP E  67       3.106  -2.083  23.947  1.00 21.47 LIG-0.27  OA
BRANCH 42 44
ATOM     44  CA  TRP E  67       3.184  -4.222  24.975  1.00 17.18 LIG 0.18  C 
BRANCH 44 45
ATOM     45  N   TRP E  67       4.660  -4.395  25.218  1.00 16.72 LIG-0.35  N 
ATOM     46  C   PRO E  66       5.323  -3.890  26.270  1.00 16.87 LIG 0.24  C 
ATOM     47 O    PRO E  66       4.827  -3.109  27.080  1.00 18.41 LIG-0.27  OA
ATOM     48 H    TRP E  67       5.050  -4.858  24.608  1.00 16.72 LIG 0.16  HD
BRANCH 46 49
ATOM     49  CA  PRO E  66       6.810  -4.281  26.446  1.00 17.04 LIG 0.18  C 
ATOM     50  CB  PRO E  66       7.757  -3.141  26.037  1.00 18.40 LIG 0.04  C 
ATOM     51  CG  PRO E  66       8.330  -3.524  24.703  1.00 18.41 LIG 0.02  C 
ATOM     52  CD  PRO E  66       8.343  -5.027  24.679  1.00 21.21 LIG 0.13  C 
ATOM     53  N   PRO E  66       7.280  -5.411  25.619  1.00 19.82 LIG-0.34  N 
ATOM     54  C   ACE E  65       6.795  -6.662  25.892  1.00 17.72 LIG 0.22  C 
ATOM     55  CH3 ACE E  65       7.323  -7.779  25.088  1.00 22.93 LIG 0.12  C 
ATOM     56 O    ACE E  65       5.938  -6.885  26.715  1.00 18.13 LIG-0.27  OA
ENDBRANCH 46 49
ENDBRANCH 44 45
BRANCH 44 57
ATOM     57  CB  TRP E  67       2.354  -4.994  26.035  1.00 18.36 LIG 0.07  C 
BRANCH 57 58
ATOM     58  CG  TRP E  67       2.842  -6.322  26.316  1.00 19.51 LIG-0.03  A 
ATOM     59  CD1 TRP E  67       3.094  -6.857  27.532  1.00 20.71 LIG 0.10  A 
ATOM     60  NE1 TRP E  67       3.533  -8.141  27.398  1.00 21.73 LIG-0.36  N 
ATOM     61  CE2 TRP E  67       3.570  -8.457  26.070  1.00 22.59 LIG 0.04  A 
ATOM     62 HE1  TRP E  67       3.751  -8.666  28.044  1.00 21.73 LIG 0.17  HD
ATOM     63  CD2 TRP E  67       3.134  -7.323  25.360  1.00 20.57 LIG-0.00  A 
ATOM     64  CZ2 TRP E  67       3.941  -9.631  25.435  1.00 23.91 LIG 0.03  A 
ATOM     65  CE3 TRP E  67       3.070  -7.380  23.968  1.00 19.56 LIG 0.01  A 
ATOM     66  CZ3 TRP E  67       3.431  -8.526  23.345  1.00 20.82 LIG 0.00  A 
ATOM     67  CH2 TRP E  67       3.864  -9.649  24.070  1.00 24.07 LIG 0.00  A 
ENDBRANCH 57 58
ENDBRANCH 44 57
ENDBRANCH 42 44
ENDBRANCH 38 40
ENDBRANCH 1 38
TORSDOF 23
ENDMDL
MODEL 44
USER: ADFR SOLUTION from run 29
USER: SCORE 18.156115 LL:  -5.628 LR: -14.453 RR:   0.000 FEB:  -7.592
USER: RMSD 4.202360
USER: SEED 28
USER: STATUS no improvement in best in 3 clusters for 5 generations
USER: GENES 25
USER: genes 0 Translation |==|  0.55341 0.55869 0.38997
USER: genes 1 Rotation |==|  0.78141 0.78090 0.60657 0.78380
USER: genes 2 Torsion [C]-N--CA-[C] |==|  0.52375
USER: genes 3 Torsion [N]-CA--C-[N] |==|  0.37639
USER: genes 4 Torsion [C]-N--CA-[C] |==|  0.75095
USER: genes 5 Torsion [N]-CA--C-[N] |==|  0.25602
USER: genes 6 Torsion [C]-N--CA-[C] |==|  0.79774
USER: genes 7 Torsion [N]-CA--C-[N] |==|  0.34439
USER: genes 8 Torsion [C]-N--CA-[CB] |==|  0.80358
USER: genes 9 Torsion [N]-CA--C-[N] |==|  0.53320
USER: genes 10 Torsion [N]-CA--CB-[OG] |==|  0.87715
USER: genes 11 Torsion [CA]-CB--OG-[HG] |==|  0.91179
USER: genes 12 Torsion [N]-CA--CB-[CG] |==|  0.59138
USER: genes 13 Torsion [CA]-CB--CG-[OD2] |==|  0.70578
USER: genes 14 Torsion [N]-CA--CB-[SG] |==|  0.25578
USER: genes 15 Torsion [CA]-CB--SG-[HG] |==|  0.90220
USER: genes 16 Torsion [N]-CA--CB-[OG1] |==|  0.73155
USER: genes 17 Torsion [CA]-CB--OG1-[HG1] |==|  0.65967
USER: genes 18 Torsion [N]-C--CA-[N] |==|  0.47934
USER: genes 19 Torsion [C]-CA--N-[C] |==|  0.58136
USER: genes 20 Torsion [N]-C--CA-[N] |==|  0.17522
USER: genes 21 Torsion [C]-CA--N-[C] |==|  0.75556
USER: genes 22 Torsion [N]-C--CA-[N] |==|  0.91793
USER: genes 23 Torsion [C]-CA--CB-[CG] |==|  0.66886
USER: genes 24 Torsion [CA]-CB--CG-[CD2] |==|  0.17788
ROOT
ATOM      1  C   ALA E  68       8.250   5.113  26.047  1.00 21.38 LIG 0.24  C 
ATOM      2 O    ALA E  68       8.008   5.627  24.949  1.00 23.30 LIG-0.27  OA
ATOM      3  N   THR E  69       7.787   3.913  26.416  1.00 18.30 LIG-0.34  N 
ATOM      4 H    THR E  69       7.861   3.592  27.210  1.00 18.30 LIG 0.16  HD
ENDROOT
BRANCH 3 5
ATOM      5  CA  THR E  69       7.102   3.037  25.467  1.00 19.45 LIG 0.20  C 
BRANCH 5 6
ATOM      6  C   THR E  69       6.478   1.814  26.164  1.00 19.66 LIG 0.24  C 
ATOM      7  N   CYS E  70       5.249   1.486  25.811  1.00 18.57 LIG-0.34  N 
ATOM      8 H    CYS E  70       4.809   1.873  25.180  1.00 18.57 LIG 0.16  HD
ATOM      9 O    THR E  69       7.088   1.199  27.016  1.00 20.15 LIG-0.27  OA
BRANCH 7 10
ATOM     10  CA  CYS E  70       4.528   0.417  26.481  1.00 18.45 LIG 0.18  C 
BRANCH 10 11
ATOM     11  C   CYS E  70       4.851  -0.860  25.728  1.00 19.42 LIG 0.24  C 
ATOM     12  N   ASP E  71       5.899  -1.566  26.189  1.00 17.61 LIG-0.34  N 
ATOM     13 H    ASP E  71       6.390  -1.308  26.846  1.00 17.61 LIG 0.16  HD
ATOM     14 O    CYS E  70       4.181  -1.161  24.735  1.00 18.07 LIG-0.27  OA
BRANCH 12 15
ATOM     15  CA  ASP E  71       6.305  -2.836  25.620  1.00 16.95 LIG 0.19  C 
BRANCH 15 16
ATOM     16  C   ASP E  71       5.250  -3.798  26.078  1.00 18.90 LIG 0.24  C 
ATOM     17 O    ASP E  71       5.027  -3.936  27.307  1.00 16.52 LIG-0.27  OA
ATOM     18  N   SER E  72       4.617  -4.476  25.120  1.00 19.80 LIG-0.34  N 
ATOM     19 H    SER E  72       4.813  -4.430  24.284  1.00 19.80 LIG 0.16  HD
BRANCH 18 20
ATOM     20  CA  SER E  72       3.511  -5.374  25.438  1.00 20.01 LIG 0.20  C 
BRANCH 20 21
ATOM     21  C   SER E  72       2.437  -4.739  26.264  1.00 24.22 LIG 0.29  C 
ATOM     22  N   NH2 E  73       1.515  -5.617  26.796  1.00 28.43 LIG-0.11  N 
ATOM     23 O    SER E  72       2.265  -3.542  26.252  1.00 27.83 LIG-0.27  OA
ENDBRANCH 20 21
BRANCH 20 24
ATOM     24  CB  SER E  72       4.026  -6.601  26.152  1.00 25.59 LIG 0.20  C 
BRANCH 24 25
ATOM     25 OG   SER E  72       5.185  -7.097  25.529  1.00 28.15 LIG-0.40  OA
ATOM     26 HG   SER E  72       5.149  -6.942  24.704  1.00 28.15 LIG 0.21  HD
ENDBRANCH 24 25
ENDBRANCH 20 24
ENDBRANCH 18 20
ENDBRANCH 15 16
BRANCH 15 27
ATOM     27  CB  ASP E  71       7.712  -3.230  26.096  1.00 12.80 LIG 0.15  C 
BRANCH 27 28
ATOM     28  CG  ASP E  71       8.469  -3.997  25.046  1.00 14.21 LIG 0.17  C 
ATOM     29 OD2  ASP E  71       8.646  -5.219  25.154  1.00 15.44 LIG-0.65  OA
ATOM     30 OD1  ASP E  71       8.931  -3.363  24.087  1.00 16.80 LIG-0.65  OA
ENDBRANCH 27 28
ENDBRANCH 15 27
ENDBRANCH 12 15
ENDBRANCH 10 11
BRANCH 10 31
ATOM     31  CB  CYS E  70       3.000   0.698  26.506  1.00 19.19 LIG 0.10  C 
BRANCH 31 32
ATOM     32 SG   CYS E  70       2.027   0.025  25.140  1.00 25.14 LIG-0.18  SA
ATOM     33 HG   CYS E  70       2.673   0.063  24.129  1.00 25.14 LIG 0.10  HD
ENDBRANCH 31 32
ENDBRANCH 10 31
ENDBRANCH 7 10
ENDBRANCH 5 6
BRANCH 5 34
ATOM     34  CB  THR E  69       8.057   2.626  24.332  1.00 17.77 LIG 0.15  C 
ATOM     35  CG2 THR E  69       7.769   1.230  23.902  1.00 20.71 LIG 0.04  C 
BRANCH 34 36
ATOM     36 OG1  THR E  69       7.885   3.456  23.198  1.00 16.43 LIG-0.39  OA
ATOM     37 HG1  THR E  69       7.692   2.982  22.531  1.00 16.43 LIG 0.21  HD
ENDBRANCH 34 36
ENDBRANCH 5 34
ENDBRANCH 3 5
BRANCH 1 38
ATOM     38  CA  ALA E  68       9.124   5.861  27.049  1.00 20.08 LIG 0.17  C 
ATOM     39  CB  ALA E  68       8.324   6.229  28.275  1.00 20.16 LIG 0.04  C 
BRANCH 38 40
ATOM     40  N   ALA E  68       9.683   7.042  26.452  1.00 18.16 LIG-0.35  N 
ATOM     41 H    ALA E  68       9.203   7.396  25.832  1.00 18.16 LIG 0.16  HD
ATOM     42  C   TRP E  67      10.846   7.515  26.856  1.00 18.88 LIG 0.24  C 
ATOM     43 O    TRP E  67      11.568   6.975  27.709  1.00 21.47 LIG-0.27  OA
BRANCH 42 44
ATOM     44  CA  TRP E  67      11.301   8.727  26.128  1.00 17.18 LIG 0.18  C 
BRANCH 44 45
ATOM     45  N   TRP E  67      10.371   9.895  26.330  1.00 16.72 LIG-0.35  N 
ATOM     46  C   PRO E  66       9.296  10.151  25.571  1.00 16.87 LIG 0.24  C 
ATOM     47 O    PRO E  66       9.028   9.543  24.536  1.00 18.41 LIG-0.27  OA
ATOM     48 H    TRP E  67      10.597  10.394  26.993  1.00 16.72 LIG 0.16  HD
BRANCH 46 49
ATOM     49  CA  PRO E  66       8.364  11.310  26.001  1.00 17.04 LIG 0.18  C 
ATOM     50  CB  PRO E  66       8.817  12.659  25.420  1.00 18.40 LIG 0.04  C 
ATOM     51  CG  PRO E  66       9.454  13.414  26.550  1.00 18.41 LIG 0.02  C 
ATOM     52  CD  PRO E  66       8.779  12.926  27.802  1.00 21.21 LIG 0.13  C 
ATOM     53  N   PRO E  66       8.303  11.581  27.452  1.00 19.82 LIG-0.34  N 
ATOM     54  C   ACE E  65       7.714  10.647  28.263  1.00 17.72 LIG 0.22  C 
ATOM     55  CH3 ACE E  65       7.618  10.968  29.698  1.00 22.93 LIG 0.12  C 
ATOM     56 O    ACE E  65       7.318   9.574  27.874  1.00 18.13 LIG-0.27  OA
ENDBRANCH 46 49
ENDBRANCH 44 45
BRANCH 44 57
ATOM     57  CB  TRP E  67      12.756   9.105  26.514  1.00 18.36 LIG 0.07  C 
BRANCH 57 58
ATOM     58  CG  TRP E  67      12.889  10.411  27.113  1.00 19.51 LIG-0.03  A 
ATOM     59  CD1 TRP E  67      13.550  11.475  26.606  1.00 20.71 LIG 0.10  A 
ATOM     60  NE1 TRP E  67      13.447  12.539  27.452  1.00 21.73 LIG-0.36  N 
ATOM     61  CE2 TRP E  67      12.703  12.168  28.536  1.00 22.59 LIG 0.04  A 
ATOM     62 HE1  TRP E  67      13.793  13.316  27.324  1.00 21.73 LIG 0.17  HD
ATOM     63  CD2 TRP E  67      12.333  10.824  28.346  1.00 20.57 LIG-0.00  A 
ATOM     64  CZ2 TRP E  67      12.322  12.890  29.655  1.00 23.91 LIG 0.03  A 
ATOM     65  CE3 TRP E  67      11.554  10.193  29.316  1.00 19.56 LIG 0.01  A 
ATOM     66  CZ3 TRP E  67      11.180  10.897  30.410  1.00 20.82 LIG 0.00  A 
ATOM     67  CH2 TRP E  67      11.558  12.239  30.583  1.00 24.07 LIG 0.00  A 
ENDBRANCH 57 58
ENDBRANCH 44 57
ENDBRANCH 42 44
ENDBRANCH 38 40
ENDBRANCH 1 38
TORSDOF 23
ENDMDL
MODEL 45
USER: ADFR SOLUTION from run 65
USER: SCORE 18.797687 LL:  -5.879 LR: -14.450 RR:   0.000 FEB:  -7.589
USER: RMSD 3.423469
USER: SEED 64
USER: STATUS no improvement in best in 7 clusters for 5 generations
USER: GENES 25
USER: genes 0 Translation |==|  0.57508 0.51580 0.30180
USER: genes 1 Rotation |==|  0.72545 0.83900 0.74563 0.65465
USER: genes 2 Torsion [C]-N--CA-[C] |==|  0.67798
USER: genes 3 Torsion [N]-CA--C-[N] |==|  0.98207
USER: genes 4 Torsion [C]-N--CA-[C] |==|  0.60993
USER: genes 5 Torsion [N]-CA--C-[N] |==|  0.28698
USER: genes 6 Torsion [C]-N--CA-[C] |==|  0.78994
USER: genes 7 Torsion [N]-CA--C-[N] |==|  0.84444
USER: genes 8 Torsion [C]-N--CA-[CB] |==|  0.20401
USER: genes 9 Torsion [N]-CA--C-[N] |==|  0.01972
USER: genes 10 Torsion [N]-CA--CB-[OG] |==|  0.07148
USER: genes 11 Torsion [CA]-CB--OG-[HG] |==|  0.84093
USER: genes 12 Torsion [N]-CA--CB-[CG] |==|  0.52026
USER: genes 13 Torsion [CA]-CB--CG-[OD2] |==|  0.77652
USER: genes 14 Torsion [N]-CA--CB-[SG] |==|  0.80738
USER: genes 15 Torsion [CA]-CB--SG-[HG] |==|  0.95592
USER: genes 16 Torsion [N]-CA--CB-[OG1] |==|  0.57054
USER: genes 17 Torsion [CA]-CB--OG1-[HG1] |==|  0.97401
USER: genes 18 Torsion [N]-C--CA-[N] |==|  0.47063
USER: genes 19 Torsion [C]-CA--N-[C] |==|  0.74620
USER: genes 20 Torsion [N]-C--CA-[N] |==|  0.10270
USER: genes 21 Torsion [C]-CA--N-[C] |==|  0.16345
USER: genes 22 Torsion [N]-C--CA-[N] |==|  0.82979
USER: genes 23 Torsion [C]-CA--CB-[CG] |==|  0.53539
USER: genes 24 Torsion [CA]-CB--CG-[CD2] |==|  0.40141
ROOT
ATOM      1  C   ALA E  68       8.688   3.890  24.724  1.00 21.38 LIG 0.24  C 
ATOM      2 O    ALA E  68       7.968   4.489  23.918  1.00 23.30 LIG-0.27  OA
ATOM      3  N   THR E  69       9.142   2.648  24.524  1.00 18.30 LIG-0.34  N 
ATOM      4 H    THR E  69       9.555   2.184  25.119  1.00 18.30 LIG 0.16  HD
ENDROOT
BRANCH 3 5
ATOM      5  CA  THR E  69       8.962   1.970  23.242  1.00 19.45 LIG 0.20  C 
BRANCH 5 6
ATOM      6  C   THR E  69       8.064   0.725  23.374  1.00 19.66 LIG 0.24  C 
ATOM      7  N   CYS E  70       7.704   0.374  24.595  1.00 18.57 LIG-0.34  N 
ATOM      8 H    CYS E  70       7.888   0.829  25.301  1.00 18.57 LIG 0.16  HD
ATOM      9 O    THR E  69       7.727   0.089  22.395  1.00 20.15 LIG-0.27  OA
BRANCH 7 10
ATOM     10  CA  CYS E  70       6.948  -0.843  24.840  1.00 18.45 LIG 0.18  C 
BRANCH 10 11
ATOM     11  C   CYS E  70       5.929  -0.510  25.914  1.00 19.42 LIG 0.24  C 
ATOM     12  N   ASP E  71       4.666  -0.330  25.491  1.00 17.61 LIG-0.34  N 
ATOM     13 H    ASP E  71       4.436  -0.362  24.663  1.00 17.61 LIG 0.16  HD
ATOM     14 O    CYS E  70       6.305  -0.385  27.084  1.00 18.07 LIG-0.27  OA
BRANCH 12 15
ATOM     15  CA  ASP E  71       3.563  -0.062  26.393  1.00 16.95 LIG 0.19  C 
BRANCH 15 16
ATOM     16  C   ASP E  71       3.272  -1.391  27.022  1.00 18.90 LIG 0.24  C 
ATOM     17 O    ASP E  71       3.310  -1.508  28.272  1.00 16.52 LIG-0.27  OA
ATOM     18  N   SER E  72       3.006  -2.394  26.183  1.00 19.80 LIG-0.34  N 
ATOM     19 H    SER E  72       3.043  -2.330  25.326  1.00 19.80 LIG 0.16  HD
BRANCH 18 20
ATOM     20  CA  SER E  72       2.621  -3.710  26.680  1.00 20.01 LIG 0.20  C 
BRANCH 20 21
ATOM     21  C   SER E  72       2.737  -4.799  25.661  1.00 24.22 LIG 0.29  C 
ATOM     22  N   NH2 E  73       3.329  -4.425  24.472  1.00 28.43 LIG-0.11  N 
ATOM     23 O    SER E  72       2.140  -5.843  25.792  1.00 27.83 LIG-0.27  OA
ENDBRANCH 20 21
BRANCH 20 24
ATOM     24  CB  SER E  72       1.206  -3.674  27.209  1.00 25.59 LIG 0.20  C 
BRANCH 24 25
ATOM     25 OG   SER E  72       0.463  -2.653  26.591  1.00 28.15 LIG-0.40  OA
ATOM     26 HG   SER E  72       0.847  -1.914  26.711  1.00 28.15 LIG 0.21  HD
ENDBRANCH 24 25
ENDBRANCH 20 24
ENDBRANCH 18 20
ENDBRANCH 15 16
BRANCH 15 27
ATOM     27  CB  ASP E  71       2.355   0.511  25.635  1.00 12.80 LIG 0.15  C 
BRANCH 27 28
ATOM     28  CG  ASP E  71       1.264   0.960  26.569  1.00 14.21 LIG 0.17  C 
ATOM     29 OD2  ASP E  71       0.472   0.144  27.062  1.00 15.44 LIG-0.65  OA
ATOM     30 OD1  ASP E  71       1.168   2.172  26.806  1.00 16.80 LIG-0.65  OA
ENDBRANCH 27 28
ENDBRANCH 15 27
ENDBRANCH 12 15
ENDBRANCH 10 11
BRANCH 10 31
ATOM     31  CB  CYS E  70       7.881  -2.007  25.274  1.00 19.19 LIG 0.10  C 
BRANCH 31 32
ATOM     32 SG   CYS E  70       8.994  -2.670  24.013  1.00 25.14 LIG-0.18  SA
ATOM     33 HG   CYS E  70       8.630  -2.310  22.927  1.00 25.14 LIG 0.10  HD
ENDBRANCH 31 32
ENDBRANCH 10 31
ENDBRANCH 7 10
ENDBRANCH 5 6
BRANCH 5 34
ATOM     34  CB  THR E  69      10.328   1.629  22.621  1.00 17.77 LIG 0.15  C 
ATOM     35  CG2 THR E  69      10.806   0.312  23.127  1.00 20.71 LIG 0.04  C 
BRANCH 34 36
ATOM     36 OG1  THR E  69      10.233   1.524  21.212  1.00 16.43 LIG-0.39  OA
ATOM     37 HG1  THR E  69       9.425   1.541  20.983  1.00 16.43 LIG 0.21  HD
ENDBRANCH 34 36
ENDBRANCH 5 34
ENDBRANCH 3 5
BRANCH 1 38
ATOM     38  CA  ALA E  68       9.102   4.583  26.019  1.00 20.08 LIG 0.17  C 
ATOM     39  CB  ALA E  68       8.451   3.916  27.207  1.00 20.16 LIG 0.04  C 
BRANCH 38 40
ATOM     40  N   ALA E  68       8.753   5.976  25.984  1.00 18.16 LIG-0.35  N 
ATOM     41 H    ALA E  68       7.962   6.158  26.270  1.00 18.16 LIG 0.16  HD
ATOM     42  C   TRP E  67       9.609   6.875  25.540  1.00 18.88 LIG 0.24  C 
ATOM     43 O    TRP E  67      10.729   6.611  25.072  1.00 21.47 LIG-0.27  OA
BRANCH 42 44
ATOM     44  CA  TRP E  67       9.094   8.268  25.543  1.00 17.18 LIG 0.18  C 
BRANCH 44 45
ATOM     45  N   TRP E  67       8.219   8.548  26.737  1.00 16.72 LIG-0.35  N 
ATOM     46  C   PRO E  66       8.615   8.433  28.014  1.00 16.87 LIG 0.24  C 
ATOM     47 O    PRO E  66       9.692   7.949  28.355  1.00 18.41 LIG-0.27  OA
ATOM     48 H    TRP E  67       7.424   8.794  26.521  1.00 16.72 LIG 0.16  HD
BRANCH 46 49
ATOM     49  CA  PRO E  66       7.637   8.897  29.120  1.00 17.04 LIG 0.18  C 
ATOM     50  CB  PRO E  66       6.278   8.184  29.023  1.00 18.40 LIG 0.04  C 
ATOM     51  CG  PRO E  66       5.316   9.182  28.448  1.00 18.41 LIG 0.02  C 
ATOM     52  CD  PRO E  66       5.822  10.532  28.873  1.00 21.21 LIG 0.13  C 
ATOM     53  N   PRO E  66       7.261  10.325  29.089  1.00 19.82 LIG-0.34  N 
ATOM     54  C   ACE E  65       8.222  11.256  29.382  1.00 17.72 LIG 0.22  C 
ATOM     55  CH3 ACE E  65       7.805  12.670  29.397  1.00 22.93 LIG 0.12  C 
ATOM     56 O    ACE E  65       9.382  10.984  29.580  1.00 18.13 LIG-0.27  OA
ENDBRANCH 46 49
ENDBRANCH 44 45
BRANCH 44 57
ATOM     57  CB  TRP E  67      10.250   9.298  25.451  1.00 18.36 LIG 0.07  C 
BRANCH 57 58
ATOM     58  CG  TRP E  67       9.857  10.657  25.738  1.00 19.51 LIG-0.03  A 
ATOM     59  CD1 TRP E  67       8.675  11.242  25.443  1.00 20.71 LIG 0.10  A 
ATOM     60  NE1 TRP E  67       8.669  12.534  25.881  1.00 21.73 LIG-0.36  N 
ATOM     61  CE2 TRP E  67       9.868  12.802  26.475  1.00 22.59 LIG 0.04  A 
ATOM     62 HE1  TRP E  67       8.016  13.087  25.797  1.00 21.73 LIG 0.17  HD
ATOM     63  CD2 TRP E  67      10.642  11.629  26.402  1.00 20.57 LIG-0.00  A 
ATOM     64  CZ2 TRP E  67      10.337  13.963  27.070  1.00 23.91 LIG 0.03  A 
ATOM     65  CE3 TRP E  67      11.925  11.630  26.948  1.00 19.56 LIG 0.01  A 
ATOM     66  CZ3 TRP E  67      12.385  12.762  27.530  1.00 20.82 LIG 0.00  A 
ATOM     67  CH2 TRP E  67      11.599  13.924  27.595  1.00 24.07 LIG 0.00  A 
ENDBRANCH 57 58
ENDBRANCH 44 57
ENDBRANCH 42 44
ENDBRANCH 38 40
ENDBRANCH 1 38
TORSDOF 23
ENDMDL
MODEL 46
USER: ADFR SOLUTION from run 98
USER: SCORE 18.545511 LL:  -5.449 LR: -14.441 RR:   0.000 FEB:  -7.581
USER: RMSD 3.646781
USER: SEED 97
USER: STATUS no improvement in best in 5 clusters for 5 generations
USER: GENES 25
USER: genes 0 Translation |==|  0.60814 0.53241 0.32698
USER: genes 1 Rotation |==|  0.60657 0.87927 0.76053 0.66407
USER: genes 2 Torsion [C]-N--CA-[C] |==|  0.82062
USER: genes 3 Torsion [N]-CA--C-[N] |==|  0.88656
USER: genes 4 Torsion [C]-N--CA-[C] |==|  0.56053
USER: genes 5 Torsion [N]-CA--C-[N] |==|  0.46288
USER: genes 6 Torsion [C]-N--CA-[C] |==|  0.57564
USER: genes 7 Torsion [N]-CA--C-[N] |==|  0.40142
USER: genes 8 Torsion [C]-N--CA-[CB] |==|  0.19444
USER: genes 9 Torsion [N]-CA--C-[N] |==|  0.09181
USER: genes 10 Torsion [N]-CA--CB-[OG] |==|  0.73291
USER: genes 11 Torsion [CA]-CB--OG-[HG] |==|  0.40250
USER: genes 12 Torsion [N]-CA--CB-[CG] |==|  0.45362
USER: genes 13 Torsion [CA]-CB--CG-[OD2] |==|  0.10888
USER: genes 14 Torsion [N]-CA--CB-[SG] |==|  0.79767
USER: genes 15 Torsion [CA]-CB--SG-[HG] |==|  0.13562
USER: genes 16 Torsion [N]-CA--CB-[OG1] |==|  0.74683
USER: genes 17 Torsion [CA]-CB--OG1-[HG1] |==|  0.28718
USER: genes 18 Torsion [N]-C--CA-[N] |==|  0.28344
USER: genes 19 Torsion [C]-CA--N-[C] |==|  0.69658
USER: genes 20 Torsion [N]-C--CA-[N] |==|  0.18700
USER: genes 21 Torsion [C]-CA--N-[C] |==|  0.76271
USER: genes 22 Torsion [N]-C--CA-[N] |==|  0.00888
USER: genes 23 Torsion [C]-CA--CB-[CG] |==|  0.70224
USER: genes 24 Torsion [CA]-CB--CG-[CD2] |==|  0.77294
ROOT
ATOM      1  C   ALA E  68       9.358   4.364  25.102  1.00 21.38 LIG 0.24  C 
ATOM      2 O    ALA E  68       8.715   4.490  24.053  1.00 23.30 LIG-0.27  OA
ATOM      3  N   THR E  69      10.262   3.398  25.299  1.00 18.30 LIG-0.34  N 
ATOM      4 H    THR E  69      10.638   3.237  26.055  1.00 18.30 LIG 0.16  HD
ENDROOT
BRANCH 3 5
ATOM      5  CA  THR E  69      10.689   2.522  24.210  1.00 19.45 LIG 0.20  C 
BRANCH 5 6
ATOM      6  C   THR E  69       9.532   1.646  23.692  1.00 19.66 LIG 0.24  C 
ATOM      7  N   CYS E  70       8.719   1.133  24.598  1.00 18.57 LIG-0.34  N 
ATOM      8 H    CYS E  70       8.762   1.309  25.439  1.00 18.57 LIG 0.16  HD
ATOM      9 O    THR E  69       9.396   1.423  22.506  1.00 20.15 LIG-0.27  OA
BRANCH 7 10
ATOM     10  CA  CYS E  70       7.661   0.208  24.228  1.00 18.45 LIG 0.18  C 
BRANCH 10 11
ATOM     11  C   CYS E  70       6.633   0.257  25.342  1.00 19.42 LIG 0.24  C 
ATOM     12  N   ASP E  71       5.445  -0.311  25.072  1.00 17.61 LIG-0.34  N 
ATOM     13 H    ASP E  71       5.248  -0.654  24.308  1.00 17.61 LIG 0.16  HD
ATOM     14 O    CYS E  70       6.915   0.834  26.398  1.00 18.07 LIG-0.27  OA
BRANCH 12 15
ATOM     15  CA  ASP E  71       4.374  -0.399  26.045  1.00 16.95 LIG 0.19  C 
BRANCH 15 16
ATOM     16  C   ASP E  71       3.594  -1.608  25.625  1.00 18.90 LIG 0.24  C 
ATOM     17 O    ASP E  71       3.449  -1.859  24.403  1.00 16.52 LIG-0.27  OA
ATOM     18  N   SER E  72       3.074  -2.345  26.608  1.00 19.80 LIG-0.34  N 
ATOM     19 H    SER E  72       3.119  -2.138  27.442  1.00 19.80 LIG 0.16  HD
BRANCH 18 20
ATOM     20  CA  SER E  72       2.372  -3.591  26.325  1.00 20.01 LIG 0.20  C 
BRANCH 20 21
ATOM     21  C   SER E  72       1.595  -4.125  27.487  1.00 24.22 LIG 0.29  C 
ATOM     22  N   NH2 E  73       1.058  -3.166  28.320  1.00 28.43 LIG-0.11  N 
ATOM     23 O    SER E  72       1.652  -5.295  27.791  1.00 27.83 LIG-0.27  OA
ENDBRANCH 20 21
BRANCH 20 24
ATOM     24  CB  SER E  72       3.347  -4.644  25.854  1.00 25.59 LIG 0.20  C 
BRANCH 24 25
ATOM     25 OG   SER E  72       3.385  -4.703  24.449  1.00 28.15 LIG-0.40  OA
ATOM     26 HG   SER E  72       4.168  -4.878  24.197  1.00 28.15 LIG 0.21  HD
ENDBRANCH 24 25
ENDBRANCH 20 24
ENDBRANCH 18 20
ENDBRANCH 15 16
BRANCH 15 27
ATOM     27  CB  ASP E  71       3.524   0.881  26.050  1.00 12.80 LIG 0.15  C 
BRANCH 27 28
ATOM     28  CG  ASP E  71       2.199   0.676  26.733  1.00 14.21 LIG 0.17  C 
ATOM     29 OD2  ASP E  71       2.111  -0.017  27.757  1.00 15.44 LIG-0.65  OA
ATOM     30 OD1  ASP E  71       1.198   1.199  26.223  1.00 16.80 LIG-0.65  OA
ENDBRANCH 27 28
ENDBRANCH 15 27
ENDBRANCH 12 15
ENDBRANCH 10 11
BRANCH 10 31
ATOM     31  CB  CYS E  70       8.217  -1.228  24.022  1.00 19.19 LIG 0.10  C 
BRANCH 31 32
ATOM     32 SG   CYS E  70       9.196  -1.515  22.529  1.00 25.14 LIG-0.18  SA
ATOM     33 HG   CYS E  70      10.026  -0.654  22.422  1.00 25.14 LIG 0.10  HD
ENDBRANCH 31 32
ENDBRANCH 10 31
ENDBRANCH 7 10
ENDBRANCH 5 6
BRANCH 5 34
ATOM     34  CB  THR E  69      11.899   1.676  24.646  1.00 17.77 LIG 0.15  C 
ATOM     35  CG2 THR E  69      11.898   0.373  23.925  1.00 20.71 LIG 0.04  C 
BRANCH 34 36
ATOM     36 OG1  THR E  69      13.115   2.327  24.328  1.00 16.43 LIG-0.39  OA
ATOM     37 HG1  THR E  69      13.443   2.662  25.024  1.00 16.43 LIG 0.21  HD
ENDBRANCH 34 36
ENDBRANCH 5 34
ENDBRANCH 3 5
BRANCH 1 38
ATOM     38  CA  ALA E  68       9.132   5.350  26.244  1.00 20.08 LIG 0.17  C 
ATOM     39  CB  ALA E  68       7.656   5.593  26.447  1.00 20.16 LIG 0.04  C 
BRANCH 38 40
ATOM     40  N   ALA E  68       9.804   6.592  25.982  1.00 18.16 LIG-0.35  N 
ATOM     41 H    ALA E  68       9.457   7.067  25.354  1.00 18.16 LIG 0.16  HD
ATOM     42  C   TRP E  67      10.870   6.941  26.676  1.00 18.88 LIG 0.24  C 
ATOM     43 O    TRP E  67      11.409   6.234  27.543  1.00 21.47 LIG-0.27  OA
BRANCH 42 44
ATOM     44  CA  TRP E  67      11.467   8.241  26.274  1.00 17.18 LIG 0.18  C 
BRANCH 44 45
ATOM     45  N   TRP E  67      10.564   9.404  26.591  1.00 16.72 LIG-0.35  N 
ATOM     46  C   PRO E  66       9.579   9.843  25.793  1.00 16.87 LIG 0.24  C 
ATOM     47 O    PRO E  66       9.395   9.436  24.647  1.00 18.41 LIG-0.27  OA
ATOM     48 H    TRP E  67      10.740   9.769  27.349  1.00 16.72 LIG 0.16  HD
BRANCH 46 49
ATOM     49  CA  PRO E  66       8.651  10.958  26.333  1.00 17.04 LIG 0.18  C 
ATOM     50  CB  PRO E  66       8.688  12.215  25.448  1.00 18.40 LIG 0.04  C 
ATOM     51  CG  PRO E  66       9.509  13.230  26.188  1.00 18.41 LIG 0.02  C 
ATOM     52  CD  PRO E  66       9.333  12.917  27.647  1.00 21.21 LIG 0.13  C 
ATOM     53  N   PRO E  66       8.991  11.487  27.669  1.00 19.82 LIG-0.34  N 
ATOM     54  C   ACE E  65       8.832  10.665  28.753  1.00 17.72 LIG 0.22  C 
ATOM     55  CH3 ACE E  65       9.126  11.237  30.079  1.00 22.93 LIG 0.12  C 
ATOM     56 O    ACE E  65       8.512   9.503  28.673  1.00 18.13 LIG-0.27  OA
ENDBRANCH 46 49
ENDBRANCH 44 45
BRANCH 44 57
ATOM     57  CB  TRP E  67      12.868   8.439  26.907  1.00 18.36 LIG 0.07  C 
BRANCH 57 58
ATOM     58  CG  TRP E  67      12.905   9.413  27.971  1.00 19.51 LIG-0.03  A 
ATOM     59  CD1 TRP E  67      12.879   9.168  29.300  1.00 20.71 LIG 0.10  A 
ATOM     60  NE1 TRP E  67      12.940  10.340  29.995  1.00 21.73 LIG-0.36  N 
ATOM     61  CE2 TRP E  67      13.007  11.374  29.107  1.00 22.59 LIG 0.04  A 
ATOM     62 HE1  TRP E  67      12.937  10.414  30.852  1.00 21.73 LIG 0.17  HD
ATOM     63  CD2 TRP E  67      12.989  10.817  27.815  1.00 20.57 LIG-0.00  A 
ATOM     64  CZ2 TRP E  67      13.085  12.741  29.322  1.00 23.91 LIG 0.03  A 
ATOM     65  CE3 TRP E  67      13.055  11.666  26.710  1.00 19.56 LIG 0.01  A 
ATOM     66  CZ3 TRP E  67      13.132  13.001  26.918  1.00 20.82 LIG 0.00  A 
ATOM     67  CH2 TRP E  67      13.149  13.541  28.215  1.00 24.07 LIG 0.00  A 
ENDBRANCH 57 58
ENDBRANCH 44 57
ENDBRANCH 42 44
ENDBRANCH 38 40
ENDBRANCH 1 38
TORSDOF 23
ENDMDL
MODEL 47
USER: ADFR SOLUTION from run 77
USER: SCORE 18.692941 LL:  -5.412 LR: -14.427 RR:   0.000 FEB:  -7.566
USER: RMSD 12.920499
USER: SEED 76
USER: STATUS no improvement in best in 3 clusters for 5 generations
USER: GENES 25
USER: genes 0 Translation |==|  0.66500 0.50617 0.37945
USER: genes 1 Rotation |==|  0.96532 0.37096 0.47386 0.62706
USER: genes 2 Torsion [C]-N--CA-[C] |==|  0.73713
USER: genes 3 Torsion [N]-CA--C-[N] |==|  0.40540
USER: genes 4 Torsion [C]-N--CA-[C] |==|  0.72760
USER: genes 5 Torsion [N]-CA--C-[N] |==|  0.39125
USER: genes 6 Torsion [C]-N--CA-[C] |==|  0.75018
USER: genes 7 Torsion [N]-CA--C-[N] |==|  0.99168
USER: genes 8 Torsion [C]-N--CA-[CB] |==|  0.15334
USER: genes 9 Torsion [N]-CA--C-[N] |==|  0.15000
USER: genes 10 Torsion [N]-CA--CB-[OG] |==|  0.12911
USER: genes 11 Torsion [CA]-CB--OG-[HG] |==|  0.52142
USER: genes 12 Torsion [N]-CA--CB-[CG] |==|  0.79454
USER: genes 13 Torsion [CA]-CB--CG-[OD2] |==|  0.59603
USER: genes 14 Torsion [N]-CA--CB-[SG] |==|  0.78170
USER: genes 15 Torsion [CA]-CB--SG-[HG] |==|  0.30946
USER: genes 16 Torsion [N]-CA--CB-[OG1] |==|  0.88490
USER: genes 17 Torsion [CA]-CB--OG1-[HG1] |==|  0.95998
USER: genes 18 Torsion [N]-C--CA-[N] |==|  0.17135
USER: genes 19 Torsion [C]-CA--N-[C] |==|  0.77934
USER: genes 20 Torsion [N]-C--CA-[N] |==|  0.94997
USER: genes 21 Torsion [C]-CA--N-[C] |==|  0.85923
USER: genes 22 Torsion [N]-C--CA-[N] |==|  0.75423
USER: genes 23 Torsion [C]-CA--CB-[CG] |==|  0.75714
USER: genes 24 Torsion [CA]-CB--CG-[CD2] |==|  0.56354
ROOT
ATOM      1  C   ALA E  68      10.509   3.616  25.889  1.00 21.38 LIG 0.24  C 
ATOM      2 O    ALA E  68      11.660   3.934  25.568  1.00 23.30 LIG-0.27  OA
ATOM      3  N   THR E  69       9.459   4.436  25.772  1.00 18.30 LIG-0.34  N 
ATOM      4 H    THR E  69       8.677   4.266  26.086  1.00 18.30 LIG 0.16  HD
ENDROOT
BRANCH 3 5
ATOM      5  CA  THR E  69       9.570   5.719  25.081  1.00 19.45 LIG 0.20  C 
BRANCH 5 6
ATOM      6  C   THR E  69       9.857   6.874  26.060  1.00 19.66 LIG 0.24  C 
ATOM      7  N   CYS E  70      10.623   7.855  25.619  1.00 18.57 LIG-0.34  N 
ATOM      8 H    CYS E  70      10.912   7.915  24.811  1.00 18.57 LIG 0.16  HD
ATOM      9 O    THR E  69       9.415   6.862  27.191  1.00 20.15 LIG-0.27  OA
BRANCH 7 10
ATOM     10  CA  CYS E  70      11.043   8.938  26.491  1.00 18.45 LIG 0.18  C 
BRANCH 10 11
ATOM     11  C   CYS E  70      10.099  10.096  26.231  1.00 19.42 LIG 0.24  C 
ATOM     12  N   ASP E  71       9.722  10.802  27.311  1.00 17.61 LIG-0.34  N 
ATOM     13 H    ASP E  71       9.963  10.604  28.113  1.00 17.61 LIG 0.16  HD
ATOM     14 O    CYS E  70       9.700  10.303  25.080  1.00 18.07 LIG-0.27  OA
BRANCH 12 15
ATOM     15  CA  ASP E  71       8.869  11.972  27.230  1.00 16.95 LIG 0.19  C 
BRANCH 15 16
ATOM     16  C   ASP E  71       9.826  13.114  27.064  1.00 18.90 LIG 0.24  C 
ATOM     17 O    ASP E  71       9.382  14.275  26.886  1.00 16.52 LIG-0.27  OA
ATOM     18  N   SER E  72      11.123  12.804  27.096  1.00 19.80 LIG-0.34  N 
ATOM     19 H    SER E  72      11.428  12.001  27.154  1.00 19.80 LIG 0.16  HD
BRANCH 18 20
ATOM     20  CA  SER E  72      12.147  13.841  27.035  1.00 20.01 LIG 0.20  C 
BRANCH 20 21
ATOM     21  C   SER E  72      13.545  13.317  27.125  1.00 24.22 LIG 0.29  C 
ATOM     22  N   NH2 E  73      13.862  12.337  26.208  1.00 28.43 LIG-0.11  N 
ATOM     23 O    SER E  72      14.245  13.565  28.081  1.00 27.83 LIG-0.27  OA
ENDBRANCH 20 21
BRANCH 20 24
ATOM     24  CB  SER E  72      11.926  14.857  28.130  1.00 25.59 LIG 0.20  C 
BRANCH 24 25
ATOM     25 OG   SER E  72      11.680  14.225  29.362  1.00 28.15 LIG-0.40  OA
ATOM     26 HG   SER E  72      11.456  14.799  29.933  1.00 28.15 LIG 0.21  HD
ENDBRANCH 24 25
ENDBRANCH 20 24
ENDBRANCH 18 20
ENDBRANCH 15 16
BRANCH 15 27
ATOM     27  CB  ASP E  71       7.998  12.109  28.488  1.00 12.80 LIG 0.15  C 
BRANCH 27 28
ATOM     28  CG  ASP E  71       6.880  11.102  28.513  1.00 14.21 LIG 0.17  C 
ATOM     29 OD2  ASP E  71       5.777  11.388  29.001  1.00 15.44 LIG-0.65  OA
ATOM     30 OD1  ASP E  71       7.108   9.974  28.056  1.00 16.80 LIG-0.65  OA
ENDBRANCH 27 28
ENDBRANCH 15 27
ENDBRANCH 12 15
ENDBRANCH 10 11
BRANCH 10 31
ATOM     31  CB  CYS E  70      12.522   9.332  26.225  1.00 19.19 LIG 0.10  C 
BRANCH 31 32
ATOM     32 SG   CYS E  70      13.791   8.260  26.939  1.00 25.14 LIG-0.18  SA
ATOM     33 HG   CYS E  70      14.365   7.678  26.059  1.00 25.14 LIG 0.10  HD
ENDBRANCH 31 32
ENDBRANCH 10 31
ENDBRANCH 7 10
ENDBRANCH 5 6
BRANCH 5 34
ATOM     34  CB  THR E  69       8.310   5.983  24.237  1.00 17.77 LIG 0.15  C 
ATOM     35  CG2 THR E  69       8.602   6.997  23.186  1.00 20.71 LIG 0.04  C 
BRANCH 34 36
ATOM     36 OG1  THR E  69       7.888   4.806  23.573  1.00 16.43 LIG-0.39  OA
ATOM     37 HG1  THR E  69       8.502   4.233  23.600  1.00 16.43 LIG 0.21  HD
ENDBRANCH 34 36
ENDBRANCH 5 34
ENDBRANCH 3 5
BRANCH 1 38
ATOM     38  CA  ALA E  68      10.244   2.219  26.444  1.00 20.08 LIG 0.17  C 
ATOM     39  CB  ALA E  68      11.538   1.458  26.599  1.00 20.16 LIG 0.04  C 
BRANCH 38 40
ATOM     40  N   ALA E  68       9.345   1.495  25.587  1.00 18.16 LIG-0.35  N 
ATOM     41 H    ALA E  68       9.724   0.929  25.063  1.00 18.16 LIG 0.16  HD
ATOM     42  C   TRP E  67       8.046   1.714  25.636  1.00 18.88 LIG 0.24  C 
ATOM     43 O    TRP E  67       7.501   2.572  26.349  1.00 21.47 LIG-0.27  OA
BRANCH 42 44
ATOM     44  CA  TRP E  67       7.252   0.906  24.675  1.00 17.18 LIG 0.18  C 
BRANCH 44 45
ATOM     45  N   TRP E  67       8.103   0.339  23.569  1.00 16.72 LIG-0.35  N 
ATOM     46  C   PRO E  66       8.954   1.057  22.820  1.00 16.87 LIG 0.24  C 
ATOM     47 O    PRO E  66       9.032   2.283  22.858  1.00 18.41 LIG-0.27  OA
ATOM     48 H    TRP E  67       7.991  -0.506  23.457  1.00 16.72 LIG 0.16  HD
BRANCH 46 49
ATOM     49  CA  PRO E  66       9.860   0.295  21.821  1.00 17.04 LIG 0.18  C 
ATOM     50  CB  PRO E  66       9.202  -1.002  21.323  1.00 18.40 LIG 0.04  C 
ATOM     51  CG  PRO E  66       9.892  -2.128  22.037  1.00 18.41 LIG 0.02  C 
ATOM     52  CD  PRO E  66      11.284  -1.640  22.324  1.00 21.21 LIG 0.13  C 
ATOM     53  N   PRO E  66      11.153  -0.177  22.356  1.00 19.82 LIG-0.34  N 
ATOM     54  C   ACE E  65      12.099   0.757  22.686  1.00 17.72 LIG 0.22  C 
ATOM     55  CH3 ACE E  65      13.400   0.256  23.165  1.00 22.93 LIG 0.12  C 
ATOM     56 O    ACE E  65      11.908   1.949  22.647  1.00 18.13 LIG-0.27  OA
ENDBRANCH 46 49
ENDBRANCH 44 45
BRANCH 44 57
ATOM     57  CB  TRP E  67       6.463  -0.217  25.397  1.00 18.36 LIG 0.07  C 
BRANCH 57 58
ATOM     58  CG  TRP E  67       7.203  -1.444  25.568  1.00 19.51 LIG-0.03  A 
ATOM     59  CD1 TRP E  67       8.547  -1.588  25.594  1.00 20.71 LIG 0.10  A 
ATOM     60  NE1 TRP E  67       8.875  -2.897  25.786  1.00 21.73 LIG-0.36  N 
ATOM     61  CE2 TRP E  67       7.727  -3.628  25.888  1.00 22.59 LIG 0.04  A 
ATOM     62 HE1  TRP E  67       9.675  -3.211  25.834  1.00 21.73 LIG 0.17  HD
ATOM     63  CD2 TRP E  67       6.649  -2.733  25.757  1.00 20.57 LIG-0.00  A 
ATOM     64  CZ2 TRP E  67       7.540  -4.987  26.087  1.00 23.91 LIG 0.03  A 
ATOM     65  CE3 TRP E  67       5.347  -3.225  25.832  1.00 19.56 LIG 0.01  A 
ATOM     66  CZ3 TRP E  67       5.162  -4.552  26.027  1.00 20.82 LIG 0.00  A 
ATOM     67  CH2 TRP E  67       6.249  -5.432  26.156  1.00 24.07 LIG 0.00  A 
ENDBRANCH 57 58
ENDBRANCH 44 57
ENDBRANCH 42 44
ENDBRANCH 38 40
ENDBRANCH 1 38
TORSDOF 23
ENDMDL
MODEL 48
USER: ADFR SOLUTION from run 24
USER: SCORE 18.753860 LL:  -5.522 LR: -14.421 RR:   0.000 FEB:  -7.560
USER: RMSD 5.605948
USER: SEED 23
USER: STATUS no improvement in best in 5 clusters for 5 generations
USER: GENES 25
USER: genes 0 Translation |==|  0.60068 0.60343 0.49117
USER: genes 1 Rotation |==|  0.26660 0.11108 0.29712 0.55571
USER: genes 2 Torsion [C]-N--CA-[C] |==|  0.60030
USER: genes 3 Torsion [N]-CA--C-[N] |==|  0.44295
USER: genes 4 Torsion [C]-N--CA-[C] |==|  0.64528
USER: genes 5 Torsion [N]-CA--C-[N] |==|  0.34735
USER: genes 6 Torsion [C]-N--CA-[C] |==|  0.68812
USER: genes 7 Torsion [N]-CA--C-[N] |==|  0.95717
USER: genes 8 Torsion [C]-N--CA-[CB] |==|  0.73901
USER: genes 9 Torsion [N]-CA--C-[N] |==|  0.22792
USER: genes 10 Torsion [N]-CA--CB-[OG] |==|  0.59814
USER: genes 11 Torsion [CA]-CB--OG-[HG] |==|  0.65510
USER: genes 12 Torsion [N]-CA--CB-[CG] |==|  0.09256
USER: genes 13 Torsion [CA]-CB--CG-[OD2] |==|  0.70152
USER: genes 14 Torsion [N]-CA--CB-[SG] |==|  0.26475
USER: genes 15 Torsion [CA]-CB--SG-[HG] |==|  0.81525
USER: genes 16 Torsion [N]-CA--CB-[OG1] |==|  0.98255
USER: genes 17 Torsion [CA]-CB--OG1-[HG1] |==|  0.09887
USER: genes 18 Torsion [N]-C--CA-[N] |==|  0.24556
USER: genes 19 Torsion [C]-CA--N-[C] |==|  0.79655
USER: genes 20 Torsion [N]-C--CA-[N] |==|  0.91458
USER: genes 21 Torsion [C]-CA--N-[C] |==|  0.84670
USER: genes 22 Torsion [N]-C--CA-[N] |==|  0.83336
USER: genes 23 Torsion [C]-CA--CB-[CG] |==|  0.73283
USER: genes 24 Torsion [CA]-CB--CG-[CD2] |==|  0.76380
ROOT
ATOM      1  C   ALA E  68       9.207   6.388  27.564  1.00 21.38 LIG 0.24  C 
ATOM      2 O    ALA E  68       7.990   6.600  27.615  1.00 23.30 LIG-0.27  OA
ATOM      3  N   THR E  69       9.763   5.484  26.751  1.00 18.30 LIG-0.34  N 
ATOM      4 H    THR E  69      10.592   5.254  26.780  1.00 18.30 LIG 0.16  HD
ENDROOT
BRANCH 3 5
ATOM      5  CA  THR E  69       8.979   4.800  25.724  1.00 19.45 LIG 0.20  C 
BRANCH 5 6
ATOM      6  C   THR E  69       9.424   3.337  25.543  1.00 19.66 LIG 0.24  C 
ATOM      7  N   CYS E  70       8.560   2.515  24.976  1.00 18.57 LIG-0.34  N 
ATOM      8 H    CYS E  70       7.802   2.761  24.653  1.00 18.57 LIG 0.16  HD
ATOM      9 O    THR E  69      10.513   2.960  25.928  1.00 20.15 LIG-0.27  OA
BRANCH 7 10
ATOM     10  CA  CYS E  70       8.835   1.093  24.854  1.00 18.45 LIG 0.18  C 
BRANCH 10 11
ATOM     11  C   CYS E  70       8.628   0.736  23.395  1.00 19.42 LIG 0.24  C 
ATOM     12  N   ASP E  71       9.665   0.137  22.782  1.00 17.61 LIG-0.34  N 
ATOM     13 H    ASP E  71      10.419  -0.010  23.167  1.00 17.61 LIG 0.16  HD
ATOM     14 O    CYS E  70       7.564   1.038  22.844  1.00 18.07 LIG-0.27  OA
BRANCH 12 15
ATOM     15  CA  ASP E  71       9.611  -0.320  21.408  1.00 16.95 LIG 0.19  C 
BRANCH 15 16
ATOM     16  C   ASP E  71       9.671  -1.814  21.514  1.00 18.90 LIG 0.24  C 
ATOM     17 O    ASP E  71       9.336  -2.520  20.531  1.00 16.52 LIG-0.27  OA
ATOM     18  N   SER E  72      10.067  -2.304  22.690  1.00 19.80 LIG-0.34  N 
ATOM     19 H    SER E  72      10.235  -1.823  23.383  1.00 19.80 LIG 0.16  HD
BRANCH 18 20
ATOM     20  CA  SER E  72      10.249  -3.739  22.884  1.00 20.01 LIG 0.20  C 
BRANCH 20 21
ATOM     21  C   SER E  72      10.634  -4.473  21.638  1.00 24.22 LIG 0.29  C 
ATOM     22  N   NH2 E  73      11.976  -4.424  21.322  1.00 28.43 LIG-0.11  N 
ATOM     23 O    SER E  72       9.794  -4.861  20.857  1.00 27.83 LIG-0.27  OA
ENDBRANCH 20 21
BRANCH 20 24
ATOM     24  CB  SER E  72       8.991  -4.351  23.453  1.00 25.59 LIG 0.20  C 
BRANCH 24 25
ATOM     25 OG   SER E  72       9.298  -5.391  24.349  1.00 28.15 LIG-0.40  OA
ATOM     26 HG   SER E  72       8.911  -6.095  24.104  1.00 28.15 LIG 0.21  HD
ENDBRANCH 24 25
ENDBRANCH 20 24
ENDBRANCH 18 20
ENDBRANCH 15 16
BRANCH 15 27
ATOM     27  CB  ASP E  71      10.773   0.262  20.586  1.00 12.80 LIG 0.15  C 
BRANCH 27 28
ATOM     28  CG  ASP E  71      12.018   0.434  21.413  1.00 14.21 LIG 0.17  C 
ATOM     29 OD2  ASP E  71      12.403   1.561  21.756  1.00 15.44 LIG-0.65  OA
ATOM     30 OD1  ASP E  71      12.657  -0.583  21.715  1.00 16.80 LIG-0.65  OA
ENDBRANCH 27 28
ENDBRANCH 15 27
ENDBRANCH 12 15
ENDBRANCH 10 11
BRANCH 10 31
ATOM     31  CB  CYS E  70       7.913   0.260  25.787  1.00 19.19 LIG 0.10  C 
BRANCH 31 32
ATOM     32 SG   CYS E  70       6.405  -0.412  25.050  1.00 25.14 LIG-0.18  SA
ATOM     33 HG   CYS E  70       5.668   0.488  24.754  1.00 25.14 LIG 0.10  HD
ENDBRANCH 31 32
ENDBRANCH 10 31
ENDBRANCH 7 10
ENDBRANCH 5 6
BRANCH 5 34
ATOM     34  CB  THR E  69       9.032   5.585  24.400  1.00 17.77 LIG 0.15  C 
ATOM     35  CG2 THR E  69       7.652   5.892  23.933  1.00 20.71 LIG 0.04  C 
BRANCH 34 36
ATOM     36 OG1  THR E  69       9.700   6.821  24.569  1.00 16.43 LIG-0.39  OA
ATOM     37 HG1  THR E  69      10.326   6.729  25.121  1.00 16.43 LIG 0.21  HD
ENDBRANCH 34 36
ENDBRANCH 5 34
ENDBRANCH 3 5
BRANCH 1 38
ATOM     38  CA  ALA E  68      10.146   7.189  28.461  1.00 20.08 LIG 0.17  C 
ATOM     39  CB  ALA E  68       9.454   7.564  29.750  1.00 20.16 LIG 0.04  C 
BRANCH 38 40
ATOM     40  N   ALA E  68      10.605   8.372  27.787  1.00 18.16 LIG-0.35  N 
ATOM     41 H    ALA E  68      10.259   9.107  28.069  1.00 18.16 LIG 0.16  HD
ATOM     42  C   TRP E  67      11.492   8.291  26.814  1.00 18.88 LIG 0.24  C 
ATOM     43 O    TRP E  67      11.951   7.228  26.365  1.00 21.47 LIG-0.27  OA
BRANCH 42 44
ATOM     44  CA  TRP E  67      11.850   9.596  26.200  1.00 17.18 LIG 0.18  C 
BRANCH 44 45
ATOM     45  N   TRP E  67      10.706  10.574  26.237  1.00 16.72 LIG-0.35  N 
ATOM     46  C   PRO E  66       9.484  10.336  25.736  1.00 16.87 LIG 0.24  C 
ATOM     47 O    PRO E  66       9.201   9.345  25.065  1.00 18.41 LIG-0.27  OA
ATOM     48 H    TRP E  67      10.911  11.318  26.617  1.00 16.72 LIG 0.16  HD
BRANCH 46 49
ATOM     49  CA  PRO E  66       8.380  11.392  25.985  1.00 17.04 LIG 0.18  C 
ATOM     50  CB  PRO E  66       8.778  12.777  25.447  1.00 18.40 LIG 0.04  C 
ATOM     51  CG  PRO E  66       9.144  13.606  26.643  1.00 18.41 LIG 0.02  C 
ATOM     52  CD  PRO E  66       8.333  13.061  27.785  1.00 21.21 LIG 0.13  C 
ATOM     53  N   PRO E  66       8.060  11.669  27.399  1.00 19.82 LIG-0.34  N 
ATOM     54  C   ACE E  65       7.450  10.685  28.132  1.00 17.72 LIG 0.22  C 
ATOM     55  CH3 ACE E  65       7.093  11.008  29.525  1.00 22.93 LIG 0.12  C 
ATOM     56 O    ACE E  65       7.235   9.572  27.714  1.00 18.13 LIG-0.27  OA
ENDBRANCH 46 49
ENDBRANCH 44 45
BRANCH 44 57
ATOM     57  CB  TRP E  67      13.117  10.201  26.858  1.00 18.36 LIG 0.07  C 
BRANCH 57 58
ATOM     58  CG  TRP E  67      12.843  11.162  27.898  1.00 19.51 LIG-0.03  A 
ATOM     59  CD1 TRP E  67      12.792  10.930  29.229  1.00 20.71 LIG 0.10  A 
ATOM     60  NE1 TRP E  67      12.516  12.086  29.898  1.00 21.73 LIG-0.36  N 
ATOM     61  CE2 TRP E  67      12.383  13.097  28.990  1.00 22.59 LIG 0.04  A 
ATOM     62 HE1  TRP E  67      12.439  12.165  30.751  1.00 21.73 LIG 0.17  HD
ATOM     63  CD2 TRP E  67      12.588  12.542  27.714  1.00 20.57 LIG-0.00  A 
ATOM     64  CZ2 TRP E  67      12.107  14.442  29.177  1.00 23.91 LIG 0.03  A 
ATOM     65  CE3 TRP E  67      12.513  13.371  26.595  1.00 19.56 LIG 0.01  A 
ATOM     66  CZ3 TRP E  67      12.244  14.685  26.775  1.00 20.82 LIG 0.00  A 
ATOM     67  CH2 TRP E  67      12.043  15.224  28.056  1.00 24.07 LIG 0.00  A 
ENDBRANCH 57 58
ENDBRANCH 44 57
ENDBRANCH 42 44
ENDBRANCH 38 40
ENDBRANCH 1 38
TORSDOF 23
ENDMDL
MODEL 49
USER: ADFR SOLUTION from run 68
USER: SCORE 18.739492 LL:  -5.914 LR: -14.424 RR:   0.000 FEB:  -7.563
USER: RMSD 5.726328
USER: SEED 67
USER: STATUS no improvement in best in 7 clusters for 5 generations
USER: GENES 25
USER: genes 0 Translation |==|  0.57878 0.55689 0.31566
USER: genes 1 Rotation |==|  0.45679 0.45508 0.65346 0.97177
USER: genes 2 Torsion [C]-N--CA-[C] |==|  0.73742
USER: genes 3 Torsion [N]-CA--C-[N] |==|  0.25890
USER: genes 4 Torsion [C]-N--CA-[C] |==|  0.86049
USER: genes 5 Torsion [N]-CA--C-[N] |==|  0.84444
USER: genes 6 Torsion [C]-N--CA-[C] |==|  0.66663
USER: genes 7 Torsion [N]-CA--C-[N] |==|  0.13742
USER: genes 8 Torsion [C]-N--CA-[CB] |==|  0.77054
USER: genes 9 Torsion [N]-CA--C-[N] |==|  0.53597
USER: genes 10 Torsion [N]-CA--CB-[OG] |==|  0.80997
USER: genes 11 Torsion [CA]-CB--OG-[HG] |==|  0.82786
USER: genes 12 Torsion [N]-CA--CB-[CG] |==|  0.75885
USER: genes 13 Torsion [CA]-CB--CG-[OD2] |==|  0.82251
USER: genes 14 Torsion [N]-CA--CB-[SG] |==|  0.02037
USER: genes 15 Torsion [CA]-CB--SG-[HG] |==|  0.24819
USER: genes 16 Torsion [N]-CA--CB-[OG1] |==|  0.10203
USER: genes 17 Torsion [CA]-CB--OG1-[HG1] |==|  0.30768
USER: genes 18 Torsion [N]-C--CA-[N] |==|  0.36835
USER: genes 19 Torsion [C]-CA--N-[C] |==|  0.82694
USER: genes 20 Torsion [N]-C--CA-[N] |==|  0.02019
USER: genes 21 Torsion [C]-CA--N-[C] |==|  0.75460
USER: genes 22 Torsion [N]-C--CA-[N] |==|  0.03445
USER: genes 23 Torsion [C]-CA--CB-[CG] |==|  0.73194
USER: genes 24 Torsion [CA]-CB--CG-[CD2] |==|  0.78058
ROOT
ATOM      1  C   ALA E  68       8.763   5.061  24.932  1.00 21.38 LIG 0.24  C 
ATOM      2 O    ALA E  68       9.960   4.804  25.104  1.00 23.30 LIG-0.27  OA
ATOM      3  N   THR E  69       7.821   4.122  24.794  1.00 18.30 LIG-0.34  N 
ATOM      4 H    THR E  69       7.006   4.286  24.571  1.00 18.30 LIG 0.16  HD
ENDROOT
BRANCH 3 5
ATOM      5  CA  THR E  69       8.117   2.709  25.020  1.00 19.45 LIG 0.20  C 
BRANCH 5 6
ATOM      6  C   THR E  69       8.473   1.982  23.709  1.00 19.66 LIG 0.24  C 
ATOM      7  N   CYS E  70       9.753   1.907  23.396  1.00 18.57 LIG-0.34  N 
ATOM      8 H    CYS E  70      10.391   2.181  23.904  1.00 18.57 LIG 0.16  HD
ATOM      9 O    THR E  69       7.607   1.522  22.992  1.00 20.15 LIG-0.27  OA
BRANCH 7 10
ATOM     10  CA  CYS E  70      10.191   1.338  22.133  1.00 18.45 LIG 0.18  C 
BRANCH 10 11
ATOM     11  C   CYS E  70       9.493  -0.002  21.996  1.00 19.42 LIG 0.24  C 
ATOM     12  N   ASP E  71       9.683  -0.870  23.005  1.00 17.61 LIG-0.34  N 
ATOM     13 H    ASP E  71      10.193  -0.708  23.677  1.00 17.61 LIG 0.16  HD
ATOM     14 O    CYS E  70       8.836  -0.239  20.976  1.00 18.07 LIG-0.27  OA
BRANCH 12 15
ATOM     15  CA  ASP E  71       9.043  -2.170  23.057  1.00 16.95 LIG 0.19  C 
BRANCH 15 16
ATOM     16  C   ASP E  71       8.237  -2.133  24.320  1.00 18.90 LIG 0.24  C 
ATOM     17 O    ASP E  71       8.309  -3.090  25.131  1.00 16.52 LIG-0.27  OA
ATOM     18  N   SER E  72       7.459  -1.063  24.490  1.00 19.80 LIG-0.34  N 
ATOM     19 H    SER E  72       7.360  -0.439  23.907  1.00 19.80 LIG 0.16  HD
BRANCH 18 20
ATOM     20  CA  SER E  72       6.698  -0.874  25.720  1.00 20.01 LIG 0.20  C 
BRANCH 20 21
ATOM     21  C   SER E  72       7.449  -1.249  26.959  1.00 24.22 LIG 0.29  C 
ATOM     22  N   NH2 E  73       6.680  -1.350  28.100  1.00 28.43 LIG-0.11  N 
ATOM     23 O    SER E  72       8.658  -1.222  26.989  1.00 27.83 LIG-0.27  OA
ENDBRANCH 20 21
BRANCH 20 24
ATOM     24  CB  SER E  72       5.410  -1.660  25.663  1.00 25.59 LIG 0.20  C 
BRANCH 24 25
ATOM     25 OG   SER E  72       4.532  -1.121  24.705  1.00 28.15 LIG-0.40  OA
ATOM     26 HG   SER E  72       4.332  -0.334  24.921  1.00 28.15 LIG 0.21  HD
ENDBRANCH 24 25
ENDBRANCH 20 24
ENDBRANCH 18 20
ENDBRANCH 15 16
BRANCH 15 27
ATOM     27  CB  ASP E  71      10.085  -3.300  23.053  1.00 12.80 LIG 0.15  C 
BRANCH 27 28
ATOM     28  CG  ASP E  71      10.481  -3.697  21.657  1.00 14.21 LIG 0.17  C 
ATOM     29 OD2  ASP E  71       9.655  -4.191  20.877  1.00 15.44 LIG-0.65  OA
ATOM     30 OD1  ASP E  71      11.664  -3.539  21.325  1.00 16.80 LIG-0.65  OA
ENDBRANCH 27 28
ENDBRANCH 15 27
ENDBRANCH 12 15
ENDBRANCH 10 11
BRANCH 10 31
ATOM     31  CB  CYS E  70      11.737   1.186  22.090  1.00 19.19 LIG 0.10  C 
BRANCH 31 32
ATOM     32 SG   CYS E  70      12.631   1.530  23.623  1.00 25.14 LIG-0.18  SA
ATOM     33 HG   CYS E  70      12.720   0.522  24.270  1.00 25.14 LIG 0.10  HD
ENDBRANCH 31 32
ENDBRANCH 10 31
ENDBRANCH 7 10
ENDBRANCH 5 6
BRANCH 5 34
ATOM     34  CB  THR E  69       6.948   2.028  25.755  1.00 17.77 LIG 0.15  C 
ATOM     35  CG2 THR E  69       7.042   2.293  27.218  1.00 20.71 LIG 0.04  C 
BRANCH 34 36
ATOM     36 OG1  THR E  69       5.704   2.542  25.317  1.00 16.43 LIG-0.39  OA
ATOM     37 HG1  THR E  69       5.295   1.952  24.881  1.00 16.43 LIG 0.21  HD
ENDBRANCH 34 36
ENDBRANCH 5 34
ENDBRANCH 3 5
BRANCH 1 38
ATOM     38  CA  ALA E  68       8.309   6.517  24.875  1.00 20.08 LIG 0.17  C 
ATOM     39  CB  ALA E  68       8.694   7.139  23.554  1.00 20.16 LIG 0.04  C 
BRANCH 38 40
ATOM     40  N   ALA E  68       8.880   7.269  25.959  1.00 18.16 LIG-0.35  N 
ATOM     41 H    ALA E  68       9.399   7.911  25.719  1.00 18.16 LIG 0.16  HD
ATOM     42  C   TRP E  67       8.601   6.964  27.211  1.00 18.88 LIG 0.24  C 
ATOM     43 O    TRP E  67       7.899   6.002  27.562  1.00 21.47 LIG-0.27  OA
BRANCH 42 44
ATOM     44  CA  TRP E  67       9.284   7.816  28.217  1.00 17.18 LIG 0.18  C 
BRANCH 44 45
ATOM     45  N   TRP E  67      10.019   8.967  27.582  1.00 16.72 LIG-0.35  N 
ATOM     46  C   PRO E  66      11.287   8.913  27.148  1.00 16.87 LIG 0.24  C 
ATOM     47 O    PRO E  66      12.039   7.961  27.348  1.00 18.41 LIG-0.27  OA
ATOM     48 H    TRP E  67       9.541   9.680  27.522  1.00 16.72 LIG 0.16  HD
BRANCH 46 49
ATOM     49  CA  PRO E  66      11.846  10.141  26.389  1.00 17.04 LIG 0.18  C 
ATOM     50  CB  PRO E  66      13.200  10.601  26.956  1.00 18.40 LIG 0.04  C 
ATOM     51  CG  PRO E  66      12.925  11.844  27.752  1.00 18.41 LIG 0.02  C 
ATOM     52  CD  PRO E  66      11.726  12.484  27.112  1.00 21.21 LIG 0.13  C 
ATOM     53  N   PRO E  66      11.028  11.368  26.459  1.00 19.82 LIG-0.34  N 
ATOM     54  C   ACE E  65       9.815  11.377  25.822  1.00 17.72 LIG 0.22  C 
ATOM     55  CH3 ACE E  65       9.044  12.633  25.861  1.00 22.93 LIG 0.12  C 
ATOM     56 O    ACE E  65       9.335  10.411  25.278  1.00 18.13 LIG-0.27  OA
ENDBRANCH 46 49
ENDBRANCH 44 45
BRANCH 44 57
ATOM     57  CB  TRP E  67       8.291   8.322  29.297  1.00 18.36 LIG 0.07  C 
BRANCH 57 58
ATOM     58  CG  TRP E  67       7.772   9.646  29.050  1.00 19.51 LIG-0.03  A 
ATOM     59  CD1 TRP E  67       6.557   9.964  28.552  1.00 20.71 LIG 0.10  A 
ATOM     60  NE1 TRP E  67       6.423  11.319  28.472  1.00 21.73 LIG-0.36  N 
ATOM     61  CE2 TRP E  67       7.570  11.902  28.926  1.00 22.59 LIG 0.04  A 
ATOM     62 HE1  TRP E  67       5.728  11.736  28.183  1.00 21.73 LIG 0.17  HD
ATOM     63  CD2 TRP E  67       8.444  10.865  29.303  1.00 20.57 LIG-0.00  A 
ATOM     64  CZ2 TRP E  67       7.915  13.239  29.042  1.00 23.91 LIG 0.03  A 
ATOM     65  CE3 TRP E  67       9.700  11.191  29.813  1.00 19.56 LIG 0.01  A 
ATOM     66  CZ3 TRP E  67      10.038  12.496  29.928  1.00 20.82 LIG 0.00  A 
ATOM     67  CH2 TRP E  67       9.154  13.519  29.548  1.00 24.07 LIG 0.00  A 
ENDBRANCH 57 58
ENDBRANCH 44 57
ENDBRANCH 42 44
ENDBRANCH 38 40
ENDBRANCH 1 38
TORSDOF 23
ENDMDL
MODEL 50
USER: ADFR SOLUTION from run 171
USER: SCORE 17.137378 LL:  -4.323 LR: -14.377 RR:   0.000 FEB:  -7.516
USER: RMSD 3.928191
USER: SEED 170
USER: STATUS no improvement in best in 6 clusters for 5 generations
USER: GENES 25
USER: genes 0 Translation |==|  0.55050 0.53803 0.31145
USER: genes 1 Rotation |==|  0.47141 0.80087 0.59168 0.88762
USER: genes 2 Torsion [C]-N--CA-[C] |==|  0.81667
USER: genes 3 Torsion [N]-CA--C-[N] |==|  0.47001
USER: genes 4 Torsion [C]-N--CA-[C] |==|  0.77606
USER: genes 5 Torsion [N]-CA--C-[N] |==|  0.24836
USER: genes 6 Torsion [C]-N--CA-[C] |==|  0.83011
USER: genes 7 Torsion [N]-CA--C-[N] |==|  0.35672
USER: genes 8 Torsion [C]-N--CA-[CB] |==|  0.22765
USER: genes 9 Torsion [N]-CA--C-[N] |==|  0.86681
USER: genes 10 Torsion [N]-CA--CB-[OG] |==|  0.67766
USER: genes 11 Torsion [CA]-CB--OG-[HG] |==|  0.24742
USER: genes 12 Torsion [N]-CA--CB-[CG] |==|  0.62825
USER: genes 13 Torsion [CA]-CB--CG-[OD2] |==|  0.42146
USER: genes 14 Torsion [N]-CA--CB-[SG] |==|  0.30243
USER: genes 15 Torsion [CA]-CB--SG-[HG] |==|  0.39780
USER: genes 16 Torsion [N]-CA--CB-[OG1] |==|  0.22372
USER: genes 17 Torsion [CA]-CB--OG1-[HG1] |==|  0.06127
USER: genes 18 Torsion [N]-C--CA-[N] |==|  0.24970
USER: genes 19 Torsion [C]-CA--N-[C] |==|  0.74636
USER: genes 20 Torsion [N]-C--CA-[N] |==|  0.36976
USER: genes 21 Torsion [C]-CA--N-[C] |==|  0.77979
USER: genes 22 Torsion [N]-C--CA-[N] |==|  0.30075
USER: genes 23 Torsion [C]-CA--CB-[CG] |==|  0.53524
USER: genes 24 Torsion [CA]-CB--CG-[CD2] |==|  0.38738
ROOT
ATOM      1  C   ALA E  68       8.191   4.524  24.869  1.00 21.38 LIG 0.24  C 
ATOM      2 O    ALA E  68       8.569   3.812  23.932  1.00 23.30 LIG-0.27  OA
ATOM      3  N   THR E  69       7.958   4.058  26.100  1.00 18.30 LIG-0.34  N 
ATOM      4 H    THR E  69       7.597   4.519  26.730  1.00 18.30 LIG 0.16  HD
ENDROOT
BRANCH 3 5
ATOM      5  CA  THR E  69       8.311   2.690  26.476  1.00 19.45 LIG 0.20  C 
BRANCH 5 6
ATOM      6  C   THR E  69       7.472   1.650  25.708  1.00 19.66 LIG 0.24  C 
ATOM      7  N   CYS E  70       7.852   0.389  25.801  1.00 18.57 LIG-0.34  N 
ATOM      8 H    CYS E  70       8.491   0.114  26.307  1.00 18.57 LIG 0.16  HD
ATOM      9 O    THR E  69       6.521   1.988  25.032  1.00 20.15 LIG-0.27  OA
BRANCH 7 10
ATOM     10  CA  CYS E  70       7.197  -0.657  25.034  1.00 18.45 LIG 0.18  C 
BRANCH 10 11
ATOM     11  C   CYS E  70       5.924  -1.009  25.781  1.00 19.42 LIG 0.24  C 
ATOM     12  N   ASP E  71       4.832  -0.299  25.449  1.00 17.61 LIG-0.34  N 
ATOM     13 H    ASP E  71       4.842   0.343  24.877  1.00 17.61 LIG 0.16  HD
ATOM     14 O    CYS E  70       5.961  -1.877  26.659  1.00 18.07 LIG-0.27  OA
BRANCH 12 15
ATOM     15  CA  ASP E  71       3.525  -0.547  26.026  1.00 16.95 LIG 0.19  C 
BRANCH 15 16
ATOM     16  C   ASP E  71       3.208  -1.957  25.625  1.00 18.90 LIG 0.24  C 
ATOM     17 O    ASP E  71       3.282  -2.290  24.416  1.00 16.52 LIG-0.27  OA
ATOM     18  N   SER E  72       2.838  -2.779  26.609  1.00 19.80 LIG-0.34  N 
ATOM     19 H    SER E  72       2.726  -2.535  27.426  1.00 19.80 LIG 0.16  HD
BRANCH 18 20
ATOM     20  CA  SER E  72       2.592  -4.194  26.354  1.00 20.01 LIG 0.20  C 
BRANCH 20 21
ATOM     21  C   SER E  72       1.659  -4.831  27.335  1.00 24.22 LIG 0.29  C 
ATOM     22  N   NH2 E  73       1.941  -4.572  28.661  1.00 28.43 LIG-0.11  N 
ATOM     23 O    SER E  72       0.882  -5.691  26.990  1.00 27.83 LIG-0.27  OA
ENDBRANCH 20 21
BRANCH 20 24
ATOM     24  CB  SER E  72       3.896  -4.956  26.342  1.00 25.59 LIG 0.20  C 
BRANCH 24 25
ATOM     25 OG   SER E  72       4.145  -5.508  25.072  1.00 28.15 LIG-0.40  OA
ATOM     26 HG   SER E  72       4.567  -4.953  24.603  1.00 28.15 LIG 0.21  HD
ENDBRANCH 24 25
ENDBRANCH 20 24
ENDBRANCH 18 20
ENDBRANCH 15 16
BRANCH 15 27
ATOM     27  CB  ASP E  71       2.490   0.462  25.505  1.00 12.80 LIG 0.15  C 
BRANCH 27 28
ATOM     28  CG  ASP E  71       1.647   1.029  26.615  1.00 14.21 LIG 0.17  C 
ATOM     29 OD2  ASP E  71       1.155   2.164  26.524  1.00 15.44 LIG-0.65  OA
ATOM     30 OD1  ASP E  71       1.485   0.337  27.629  1.00 16.80 LIG-0.65  OA
ENDBRANCH 27 28
ENDBRANCH 15 27
ENDBRANCH 12 15
ENDBRANCH 10 11
BRANCH 10 31
ATOM     31  CB  CYS E  70       8.124  -1.892  24.863  1.00 19.19 LIG 0.10  C 
BRANCH 31 32
ATOM     32 SG   CYS E  70       7.677  -3.378  25.791  1.00 25.14 LIG-0.18  SA
ATOM     33 HG   CYS E  70       7.917  -4.351  25.130  1.00 25.14 LIG 0.10  HD
ENDBRANCH 31 32
ENDBRANCH 10 31
ENDBRANCH 7 10
ENDBRANCH 5 6
BRANCH 5 34
ATOM     34  CB  THR E  69       8.198   2.507  28.000  1.00 17.77 LIG 0.15  C 
ATOM     35  CG2 THR E  69       8.667   3.736  28.698  1.00 20.71 LIG 0.04  C 
BRANCH 34 36
ATOM     36 OG1  THR E  69       6.853   2.295  28.388  1.00 16.43 LIG-0.39  OA
ATOM     37 HG1  THR E  69       6.413   2.011  27.731  1.00 16.43 LIG 0.21  HD
ENDBRANCH 34 36
ENDBRANCH 5 34
ENDBRANCH 3 5
BRANCH 1 38
ATOM     38  CA  ALA E  68       7.975   6.017  24.637  1.00 20.08 LIG 0.17  C 
ATOM     39  CB  ALA E  68       7.507   6.269  23.224  1.00 20.16 LIG 0.04  C 
BRANCH 38 40
ATOM     40  N   ALA E  68       9.184   6.749  24.894  1.00 18.16 LIG-0.35  N 
ATOM     41 H    ALA E  68       9.708   6.833  24.216  1.00 18.16 LIG 0.16  HD
ATOM     42  C   TRP E  67       9.433   7.239  26.092  1.00 18.88 LIG 0.24  C 
ATOM     43 O    TRP E  67       8.709   7.071  27.087  1.00 21.47 LIG-0.27  OA
BRANCH 42 44
ATOM     44  CA  TRP E  67      10.732   7.951  26.207  1.00 17.18 LIG 0.18  C 
BRANCH 44 45
ATOM     45  N   TRP E  67      10.593   9.278  26.907  1.00 16.72 LIG-0.35  N 
ATOM     46  C   PRO E  66      10.140  10.400  26.328  1.00 16.87 LIG 0.24  C 
ATOM     47 O    PRO E  66       9.921  10.507  25.123  1.00 18.41 LIG-0.27  OA
ATOM     48 H    TRP E  67      10.837   9.251  27.731  1.00 16.72 LIG 0.16  HD
BRANCH 46 49
ATOM     49  CA  PRO E  66       9.924  11.643  27.226  1.00 17.04 LIG 0.18  C 
ATOM     50  CB  PRO E  66       8.575  12.326  26.945  1.00 18.40 LIG 0.04  C 
ATOM     51  CG  PRO E  66       8.886  13.567  26.159  1.00 18.41 LIG 0.02  C 
ATOM     52  CD  PRO E  66      10.265  13.987  26.582  1.00 21.21 LIG 0.13  C 
ATOM     53  N   PRO E  66      10.893  12.742  27.047  1.00 19.82 LIG-0.34  N 
ATOM     54  C   ACE E  65      12.189  12.536  27.440  1.00 17.72 LIG 0.22  C 
ATOM     55  CH3 ACE E  65      13.122  13.669  27.302  1.00 22.93 LIG 0.12  C 
ATOM     56 O    ACE E  65      12.607  11.477  27.845  1.00 18.13 LIG-0.27  OA
ENDBRANCH 46 49
ENDBRANCH 44 45
BRANCH 44 57
ATOM     57  CB  TRP E  67      11.801   7.068  26.902  1.00 18.36 LIG 0.07  C 
BRANCH 57 58
ATOM     58  CG  TRP E  67      12.988   7.783  27.305  1.00 19.51 LIG-0.03  A 
ATOM     59  CD1 TRP E  67      13.626   8.755  26.617  1.00 20.71 LIG 0.10  A 
ATOM     60  NE1 TRP E  67      14.705   9.200  27.324  1.00 21.73 LIG-0.36  N 
ATOM     61  CE2 TRP E  67      14.777   8.507  28.498  1.00 22.59 LIG 0.04  A 
ATOM     62 HE1  TRP E  67      15.250   9.816  27.071  1.00 21.73 LIG 0.17  HD
ATOM     63  CD2 TRP E  67      13.699   7.603  28.516  1.00 20.57 LIG-0.00  A 
ATOM     64  CZ2 TRP E  67      15.685   8.597  29.541  1.00 23.91 LIG 0.03  A 
ATOM     65  CE3 TRP E  67      13.534   6.768  29.620  1.00 19.56 LIG 0.01  A 
ATOM     66  CZ3 TRP E  67      14.419   6.855  30.640  1.00 20.82 LIG 0.00  A 
ATOM     67  CH2 TRP E  67      15.490   7.764  30.607  1.00 24.07 LIG 0.00  A 
ENDBRANCH 57 58
ENDBRANCH 44 57
ENDBRANCH 42 44
ENDBRANCH 38 40
ENDBRANCH 1 38
TORSDOF 23
ENDMDL
MODEL 51
USER: ADFR SOLUTION from run 104
USER: SCORE 17.552736 LL:  -5.465 LR: -14.374 RR:   0.000 FEB:  -7.513
USER: RMSD 12.943177
USER: SEED 103
USER: STATUS searching
USER: GENES 25
USER: genes 0 Translation |==|  0.58206 0.56879 0.29776
USER: genes 1 Rotation |==|  0.72818 0.38495 0.07024 0.50266
USER: genes 2 Torsion [C]-N--CA-[C] |==|  0.49470
USER: genes 3 Torsion [N]-CA--C-[N] |==|  0.38932
USER: genes 4 Torsion [C]-N--CA-[C] |==|  0.76872
USER: genes 5 Torsion [N]-CA--C-[N] |==|  0.58360
USER: genes 6 Torsion [C]-N--CA-[C] |==|  0.82680
USER: genes 7 Torsion [N]-CA--C-[N] |==|  0.36839
USER: genes 8 Torsion [C]-N--CA-[CB] |==|  0.83386
USER: genes 9 Torsion [N]-CA--C-[N] |==|  0.39076
USER: genes 10 Torsion [N]-CA--CB-[OG] |==|  0.83347
USER: genes 11 Torsion [CA]-CB--OG-[HG] |==|  0.23810
USER: genes 12 Torsion [N]-CA--CB-[CG] |==|  0.15092
USER: genes 13 Torsion [CA]-CB--CG-[OD2] |==|  0.80214
USER: genes 14 Torsion [N]-CA--CB-[SG] |==|  0.55173
USER: genes 15 Torsion [CA]-CB--SG-[HG] |==|  0.21485
USER: genes 16 Torsion [N]-CA--CB-[OG1] |==|  0.70810
USER: genes 17 Torsion [CA]-CB--OG1-[HG1] |==|  0.98055
USER: genes 18 Torsion [N]-C--CA-[N] |==|  0.74850
USER: genes 19 Torsion [C]-CA--N-[C] |==|  0.65022
USER: genes 20 Torsion [N]-C--CA-[N] |==|  0.03137
USER: genes 21 Torsion [C]-CA--N-[C] |==|  0.72486
USER: genes 22 Torsion [N]-C--CA-[N] |==|  0.96546
USER: genes 23 Torsion [C]-CA--CB-[CG] |==|  0.79407
USER: genes 24 Torsion [CA]-CB--CG-[CD2] |==|  0.21451
ROOT
ATOM      1  C   ALA E  68       8.830   5.401  24.663  1.00 21.38 LIG 0.24  C 
ATOM      2 O    ALA E  68       8.636   5.991  23.595  1.00 23.30 LIG-0.27  OA
ATOM      3  N   THR E  69       9.659   5.848  25.612  1.00 18.30 LIG-0.34  N 
ATOM      4 H    THR E  69       9.881   5.398  26.311  1.00 18.30 LIG 0.16  HD
ENDROOT
BRANCH 3 5
ATOM      5  CA  THR E  69      10.267   7.175  25.527  1.00 19.45 LIG 0.20  C 
BRANCH 5 6
ATOM      6  C   THR E  69      11.144   7.483  26.755  1.00 19.66 LIG 0.24  C 
ATOM      7  N   CYS E  70      12.281   8.118  26.534  1.00 18.57 LIG-0.34  N 
ATOM      8 H    CYS E  70      12.523   8.419  25.766  1.00 18.57 LIG 0.16  HD
ATOM      9 O    THR E  69      10.809   7.133  27.869  1.00 20.15 LIG-0.27  OA
BRANCH 7 10
ATOM     10  CA  CYS E  70      13.231   8.363  27.605  1.00 18.45 LIG 0.18  C 
BRANCH 10 11
ATOM     11  C   CYS E  70      12.763   9.616  28.322  1.00 19.42 LIG 0.24  C 
ATOM     12  N   ASP E  71      13.727  10.368  28.882  1.00 17.61 LIG-0.34  N 
ATOM     13 H    ASP E  71      14.559  10.151  28.876  1.00 17.61 LIG 0.16  HD
ATOM     14 O    CYS E  70      11.553   9.856  28.389  1.00 18.07 LIG-0.27  OA
BRANCH 12 15
ATOM     15  CA  ASP E  71      13.456  11.624  29.554  1.00 16.95 LIG 0.19  C 
BRANCH 15 16
ATOM     16  C   ASP E  71      12.886  12.500  28.480  1.00 18.90 LIG 0.24  C 
ATOM     17 O    ASP E  71      13.472  12.585  27.372  1.00 16.52 LIG-0.27  OA
ATOM     18  N   SER E  72      11.773  13.166  28.793  1.00 19.80 LIG-0.34  N 
ATOM     19 H    SER E  72      11.408  13.159  29.572  1.00 19.80 LIG 0.16  HD
BRANCH 18 20
ATOM     20  CA  SER E  72      11.079  13.980  27.801  1.00 20.01 LIG 0.20  C 
BRANCH 20 21
ATOM     21  C   SER E  72      10.544  13.196  26.644  1.00 24.22 LIG 0.29  C 
ATOM     22  N   NH2 E  73       9.303  13.595  26.192  1.00 28.43 LIG-0.11  N 
ATOM     23 O    SER E  72      11.056  12.153  26.306  1.00 27.83 LIG-0.27  OA
ENDBRANCH 20 21
BRANCH 20 24
ATOM     24  CB  SER E  72      11.994  15.065  27.284  1.00 25.59 LIG 0.20  C 
BRANCH 24 25
ATOM     25 OG   SER E  72      12.418  15.906  28.328  1.00 28.15 LIG-0.40  OA
ATOM     26 HG   SER E  72      13.096  15.574  28.698  1.00 28.15 LIG 0.21  HD
ENDBRANCH 24 25
ENDBRANCH 20 24
ENDBRANCH 18 20
ENDBRANCH 15 16
BRANCH 15 27
ATOM     27  CB  ASP E  71      14.735  12.205  30.176  1.00 12.80 LIG 0.15  C 
BRANCH 27 28
ATOM     28  CG  ASP E  71      15.841  12.343  29.165  1.00 14.21 LIG 0.17  C 
ATOM     29 OD2  ASP E  71      16.420  11.344  28.714  1.00 15.44 LIG-0.65  OA
ATOM     30 OD1  ASP E  71      16.171  13.487  28.821  1.00 16.80 LIG-0.65  OA
ENDBRANCH 27 28
ENDBRANCH 15 27
ENDBRANCH 12 15
ENDBRANCH 10 11
BRANCH 10 31
ATOM     31  CB  CYS E  70      14.674   8.524  27.051  1.00 19.19 LIG 0.10  C 
BRANCH 31 32
ATOM     32 SG   CYS E  70      16.027   8.315  28.232  1.00 25.14 LIG-0.18  SA
ATOM     33 HG   CYS E  70      16.195   7.146  28.447  1.00 25.14 LIG 0.10  HD
ENDBRANCH 31 32
ENDBRANCH 10 31
ENDBRANCH 7 10
ENDBRANCH 5 6
BRANCH 5 34
ATOM     34  CB  THR E  69       9.183   8.247  25.312  1.00 17.77 LIG 0.15  C 
ATOM     35  CG2 THR E  69       9.449   9.425  26.185  1.00 20.71 LIG 0.04  C 
BRANCH 34 36
ATOM     36 OG1  THR E  69       9.186   8.711  23.975  1.00 16.43 LIG-0.39  OA
ATOM     37 HG1  THR E  69       9.842   8.384  23.566  1.00 16.43 LIG 0.21  HD
ENDBRANCH 34 36
ENDBRANCH 5 34
ENDBRANCH 3 5
BRANCH 1 38
ATOM     38  CA  ALA E  68       8.093   4.094  24.943  1.00 20.08 LIG 0.17  C 
ATOM     39  CB  ALA E  68       7.822   3.946  26.420  1.00 20.16 LIG 0.04  C 
BRANCH 38 40
ATOM     40  N   ALA E  68       8.852   2.971  24.466  1.00 18.16 LIG-0.35  N 
ATOM     41 H    ALA E  68       9.659   2.929  24.760  1.00 18.16 LIG 0.16  HD
ATOM     42  C   TRP E  67       8.313   2.095  23.641  1.00 18.88 LIG 0.24  C 
ATOM     43 O    TRP E  67       7.168   2.183  23.169  1.00 21.47 LIG-0.27  OA
BRANCH 42 44
ATOM     44  CA  TRP E  67       9.230   1.004  23.220  1.00 17.18 LIG 0.18  C 
BRANCH 44 45
ATOM     45  N   TRP E  67      10.496   0.979  24.035  1.00 16.72 LIG-0.35  N 
ATOM     46  C   PRO E  66      11.666   1.504  23.639  1.00 16.87 LIG 0.24  C 
ATOM     47 O    PRO E  66      11.872   1.940  22.508  1.00 18.41 LIG-0.27  OA
ATOM     48 H    TRP E  67      10.400   0.588  24.794  1.00 16.72 LIG 0.16  HD
BRANCH 46 49
ATOM     49  CA  PRO E  66      12.833   1.521  24.656  1.00 17.04 LIG 0.18  C 
ATOM     50  CB  PRO E  66      13.890   0.451  24.336  1.00 18.40 LIG 0.04  C 
ATOM     51  CG  PRO E  66      13.693  -0.650  25.337  1.00 18.41 LIG 0.02  C 
ATOM     52  CD  PRO E  66      13.129   0.007  26.565  1.00 21.21 LIG 0.13  C 
ATOM     53  N   PRO E  66      12.472   1.219  26.055  1.00 19.82 LIG-0.34  N 
ATOM     54  C   ACE E  65      11.706   2.125  26.739  1.00 17.72 LIG 0.22  C 
ATOM     55  CH3 ACE E  65      11.407   1.824  28.151  1.00 22.93 LIG 0.12  C 
ATOM     56 O    ACE E  65      11.234   3.119  26.239  1.00 18.13 LIG-0.27  OA
ENDBRANCH 46 49
ENDBRANCH 44 45
BRANCH 44 57
ATOM     57  CB  TRP E  67       8.521  -0.375  23.256  1.00 18.36 LIG 0.07  C 
BRANCH 57 58
ATOM     58  CG  TRP E  67       8.314  -0.900  24.584  1.00 19.51 LIG-0.03  A 
ATOM     59  CD1 TRP E  67       9.037  -1.861  25.201  1.00 20.71 LIG 0.10  A 
ATOM     60  NE1 TRP E  67       8.548  -2.083  26.455  1.00 21.73 LIG-0.36  N 
ATOM     61  CE2 TRP E  67       7.485  -1.254  26.666  1.00 22.59 LIG 0.04  A 
ATOM     62 HE1  TRP E  67       8.859  -2.653  27.020  1.00 21.73 LIG 0.17  HD
ATOM     63  CD2 TRP E  67       7.315  -0.489  25.497  1.00 20.57 LIG-0.00  A 
ATOM     64  CZ2 TRP E  67       6.666  -1.105  27.774  1.00 23.91 LIG 0.03  A 
ATOM     65  CE3 TRP E  67       6.288   0.454  25.449  1.00 19.56 LIG 0.01  A 
ATOM     66  CZ3 TRP E  67       5.488   0.602  26.530  1.00 20.82 LIG 0.00  A 
ATOM     67  CH2 TRP E  67       5.672  -0.170  27.689  1.00 24.07 LIG 0.00  A 
ENDBRANCH 57 58
ENDBRANCH 44 57
ENDBRANCH 42 44
ENDBRANCH 38 40
ENDBRANCH 1 38
TORSDOF 23
ENDMDL
MODEL 52
USER: ADFR SOLUTION from run 9
USER: SCORE 17.792650 LL:  -5.794 LR: -14.375 RR:   0.000 FEB:  -7.514
USER: RMSD 4.511053
USER: SEED 518481
USER: STATUS no improvement in best in 10 clusters for 5 generations
USER: GENES 25
USER: genes 0 Translation |==|  0.60487 0.52648 0.31722
USER: genes 1 Rotation |==|  0.64497 0.85536 0.77050 0.67185
USER: genes 2 Torsion [C]-N--CA-[C] |==|  0.75507
USER: genes 3 Torsion [N]-CA--C-[N] |==|  0.83907
USER: genes 4 Torsion [C]-N--CA-[C] |==|  0.59450
USER: genes 5 Torsion [N]-CA--C-[N] |==|  0.19851
USER: genes 6 Torsion [C]-N--CA-[C] |==|  0.67405
USER: genes 7 Torsion [N]-CA--C-[N] |==|  0.86333
USER: genes 8 Torsion [C]-N--CA-[CB] |==|  0.85167
USER: genes 9 Torsion [N]-CA--C-[N] |==|  0.85556
USER: genes 10 Torsion [N]-CA--CB-[OG] |==|  0.88929
USER: genes 11 Torsion [CA]-CB--OG-[HG] |==|  0.85801
USER: genes 12 Torsion [N]-CA--CB-[CG] |==|  0.02683
USER: genes 13 Torsion [CA]-CB--CG-[OD2] |==|  0.65768
USER: genes 14 Torsion [N]-CA--CB-[SG] |==|  0.78972
USER: genes 15 Torsion [CA]-CB--SG-[HG] |==|  0.75159
USER: genes 16 Torsion [N]-CA--CB-[OG1] |==|  0.87008
USER: genes 17 Torsion [CA]-CB--OG1-[HG1] |==|  0.01509
USER: genes 18 Torsion [N]-C--CA-[N] |==|  0.30777
USER: genes 19 Torsion [C]-CA--N-[C] |==|  0.69709
USER: genes 20 Torsion [N]-C--CA-[N] |==|  0.15600
USER: genes 21 Torsion [C]-CA--N-[C] |==|  0.77878
USER: genes 22 Torsion [N]-C--CA-[N] |==|  0.00330
USER: genes 23 Torsion [C]-CA--CB-[CG] |==|  0.69150
USER: genes 24 Torsion [CA]-CB--CG-[CD2] |==|  0.77484
ROOT
ATOM      1  C   ALA E  68       9.292   4.195  24.955  1.00 21.38 LIG 0.24  C 
ATOM      2 O    ALA E  68       8.665   4.538  23.947  1.00 23.30 LIG-0.27  OA
ATOM      3  N   THR E  69      10.053   3.096  25.010  1.00 18.30 LIG-0.34  N 
ATOM      4 H    THR E  69      10.408   2.791  25.732  1.00 18.30 LIG 0.16  HD
ENDROOT
BRANCH 3 5
ATOM      5  CA  THR E  69      10.343   2.311  23.812  1.00 19.45 LIG 0.20  C 
BRANCH 5 6
ATOM      6  C   THR E  69       9.269   1.238  23.555  1.00 19.66 LIG 0.24  C 
ATOM      7  N   CYS E  70       9.061   0.358  24.517  1.00 18.57 LIG-0.34  N 
ATOM      8 H    CYS E  70       9.440   0.388  25.289  1.00 18.57 LIG 0.16  HD
ATOM      9 O    THR E  69       8.663   1.197  22.503  1.00 20.15 LIG-0.27  OA
BRANCH 7 10
ATOM     10  CA  CYS E  70       8.148  -0.758  24.337  1.00 18.45 LIG 0.18  C 
BRANCH 10 11
ATOM     11  C   CYS E  70       7.503  -1.012  25.687  1.00 19.42 LIG 0.24  C 
ATOM     12  N   ASP E  71       6.614  -0.091  26.097  1.00 17.61 LIG-0.34  N 
ATOM     13 H    ASP E  71       6.435   0.624  25.653  1.00 17.61 LIG 0.16  HD
ATOM     14 O    CYS E  70       7.845  -2.002  26.342  1.00 18.07 LIG-0.27  OA
BRANCH 12 15
ATOM     15  CA  ASP E  71       5.868  -0.211  27.334  1.00 16.95 LIG 0.19  C 
BRANCH 15 16
ATOM     16  C   ASP E  71       4.437  -0.287  26.895  1.00 18.90 LIG 0.24  C 
ATOM     17 O    ASP E  71       3.701  -1.206  27.332  1.00 16.52 LIG-0.27  OA
ATOM     18  N   SER E  72       4.039   0.644  26.026  1.00 19.80 LIG-0.34  N 
ATOM     19 H    SER E  72       4.558   1.234  25.676  1.00 19.80 LIG 0.16  HD
BRANCH 18 20
ATOM     20  CA  SER E  72       2.647   0.725  25.595  1.00 20.01 LIG 0.20  C 
BRANCH 20 21
ATOM     21  C   SER E  72       1.709   1.185  26.666  1.00 24.22 LIG 0.29  C 
ATOM     22  N   NH2 E  73       1.792   0.488  27.854  1.00 28.43 LIG-0.11  N 
ATOM     23 O    SER E  72       0.797   1.939  26.415  1.00 27.83 LIG-0.27  OA
ENDBRANCH 20 21
BRANCH 20 24
ATOM     24  CB  SER E  72       2.185  -0.615  25.072  1.00 25.59 LIG 0.20  C 
BRANCH 24 25
ATOM     25 OG   SER E  72       3.193  -1.235  24.313  1.00 28.15 LIG-0.40  OA
ATOM     26 HG   SER E  72       3.479  -0.697  23.734  1.00 28.15 LIG 0.21  HD
ENDBRANCH 24 25
ENDBRANCH 20 24
ENDBRANCH 18 20
ENDBRANCH 15 16
BRANCH 15 27
ATOM     27  CB  ASP E  71       6.140   0.983  28.262  1.00 12.80 LIG 0.15  C 
BRANCH 27 28
ATOM     28  CG  ASP E  71       6.913   2.072  27.569  1.00 14.21 LIG 0.17  C 
ATOM     29 OD2  ASP E  71       7.993   2.475  28.024  1.00 15.44 LIG-0.65  OA
ATOM     30 OD1  ASP E  71       6.421   2.570  26.546  1.00 16.80 LIG-0.65  OA
ENDBRANCH 27 28
ENDBRANCH 15 27
ENDBRANCH 12 15
ENDBRANCH 10 11
BRANCH 10 31
ATOM     31  CB  CYS E  70       8.894  -2.015  23.811  1.00 19.19 LIG 0.10  C 
BRANCH 31 32
ATOM     32 SG   CYS E  70       9.360  -2.013  22.064  1.00 25.14 LIG-0.18  SA
ATOM     33 HG   CYS E  70       8.467  -2.480  21.411  1.00 25.14 LIG 0.10  HD
ENDBRANCH 31 32
ENDBRANCH 10 31
ENDBRANCH 7 10
ENDBRANCH 5 6
BRANCH 5 34
ATOM     34  CB  THR E  69      11.754   1.702  23.901  1.00 17.77 LIG 0.15  C 
ATOM     35  CG2 THR E  69      12.185   1.215  22.561  1.00 20.71 LIG 0.04  C 
BRANCH 34 36
ATOM     36 OG1  THR E  69      12.701   2.670  24.316  1.00 16.43 LIG-0.39  OA
ATOM     37 HG1  THR E  69      12.304   3.384  24.510  1.00 16.43 LIG 0.21  HD
ENDBRANCH 34 36
ENDBRANCH 5 34
ENDBRANCH 3 5
BRANCH 1 38
ATOM     38  CA  ALA E  68       9.215   5.053  26.215  1.00 20.08 LIG 0.17  C 
ATOM     39  CB  ALA E  68       7.776   5.292  26.604  1.00 20.16 LIG 0.04  C 
BRANCH 38 40
ATOM     40  N   ALA E  68       9.887   6.307  26.015  1.00 18.16 LIG-0.35  N 
ATOM     41 H    ALA E  68       9.485   6.853  25.486  1.00 18.16 LIG 0.16  HD
ATOM     42  C   TRP E  67      11.031   6.562  26.619  1.00 18.88 LIG 0.24  C 
ATOM     43 O    TRP E  67      11.644   5.756  27.337  1.00 21.47 LIG-0.27  OA
BRANCH 42 44
ATOM     44  CA  TRP E  67      11.614   7.890  26.295  1.00 17.18 LIG 0.18  C 
BRANCH 44 45
ATOM     45  N   TRP E  67      10.660   9.017  26.595  1.00 16.72 LIG-0.35  N 
ATOM     46  C   PRO E  66       9.643   9.385  25.801  1.00 16.87 LIG 0.24  C 
ATOM     47 O    PRO E  66       9.461   8.936  24.671  1.00 18.41 LIG-0.27  OA
ATOM     48 H    TRP E  67      10.831   9.413  27.339  1.00 16.72 LIG 0.16  HD
BRANCH 46 49
ATOM     49  CA  PRO E  66       8.671  10.469  26.325  1.00 17.04 LIG 0.18  C 
ATOM     50  CB  PRO E  66       8.669  11.720  25.431  1.00 18.40 LIG 0.04  C 
ATOM     51  CG  PRO E  66       9.447  12.770  26.170  1.00 18.41 LIG 0.02  C 
ATOM     52  CD  PRO E  66       9.270  12.461  27.630  1.00 21.21 LIG 0.13  C 
ATOM     53  N   PRO E  66       8.980  11.020  27.660  1.00 19.82 LIG-0.34  N 
ATOM     54  C   ACE E  65       8.842  10.201  28.749  1.00 17.72 LIG 0.22  C 
ATOM     55  CH3 ACE E  65       9.104  10.793  30.073  1.00 22.93 LIG 0.12  C 
ATOM     56 O    ACE E  65       8.565   9.027  28.675  1.00 18.13 LIG-0.27  OA
ENDBRANCH 46 49
ENDBRANCH 44 45
BRANCH 44 57
ATOM     57  CB  TRP E  67      12.969   8.104  27.019  1.00 18.36 LIG 0.07  C 
BRANCH 57 58
ATOM     58  CG  TRP E  67      12.934   9.106  28.056  1.00 19.51 LIG-0.03  A 
ATOM     59  CD1 TRP E  67      12.829   8.896  29.387  1.00 20.71 LIG 0.10  A 
ATOM     60  NE1 TRP E  67      12.840  10.087  30.053  1.00 21.73 LIG-0.36  N 
ATOM     61  CE2 TRP E  67      12.955  11.098  29.143  1.00 22.59 LIG 0.04  A 
ATOM     62 HE1  TRP E  67      12.784  10.184  30.906  1.00 21.73 LIG 0.17  HD
ATOM     63  CD2 TRP E  67      13.020  10.506  27.868  1.00 20.57 LIG-0.00  A 
ATOM     64  CZ2 TRP E  67      13.012  12.470  29.325  1.00 23.91 LIG 0.03  A 
ATOM     65  CE3 TRP E  67      13.148  11.325  26.747  1.00 19.56 LIG 0.01  A 
ATOM     66  CZ3 TRP E  67      13.204  12.666  26.923  1.00 20.82 LIG 0.00  A 
ATOM     67  CH2 TRP E  67      13.139  13.241  28.203  1.00 24.07 LIG 0.00  A 
ENDBRANCH 57 58
ENDBRANCH 44 57
ENDBRANCH 42 44
ENDBRANCH 38 40
ENDBRANCH 1 38
TORSDOF 23
ENDMDL
MODEL 53
USER: ADFR SOLUTION from run 50
USER: SCORE 18.944955 LL:  -6.152 LR: -14.327 RR:   0.000 FEB:  -7.467
USER: RMSD 13.342575
USER: SEED 49
USER: STATUS no improvement in best in 10 clusters for 5 generations
USER: GENES 25
USER: genes 0 Translation |==|  0.64756 0.51065 0.35808
USER: genes 1 Rotation |==|  0.97247 0.35437 0.49041 0.57395
USER: genes 2 Torsion [C]-N--CA-[C] |==|  0.71778
USER: genes 3 Torsion [N]-CA--C-[N] |==|  0.42629
USER: genes 4 Torsion [C]-N--CA-[C] |==|  0.67234
USER: genes 5 Torsion [N]-CA--C-[N] |==|  0.42058
USER: genes 6 Torsion [C]-N--CA-[C] |==|  0.83871
USER: genes 7 Torsion [N]-CA--C-[N] |==|  0.89219
USER: genes 8 Torsion [C]-N--CA-[CB] |==|  0.20000
USER: genes 9 Torsion [N]-CA--C-[N] |==|  0.18599
USER: genes 10 Torsion [N]-CA--CB-[OG] |==|  0.16181
USER: genes 11 Torsion [CA]-CB--OG-[HG] |==|  0.76708
USER: genes 12 Torsion [N]-CA--CB-[CG] |==|  0.17269
USER: genes 13 Torsion [CA]-CB--CG-[OD2] |==|  0.75585
USER: genes 14 Torsion [N]-CA--CB-[SG] |==|  0.07844
USER: genes 15 Torsion [CA]-CB--SG-[HG] |==|  0.80310
USER: genes 16 Torsion [N]-CA--CB-[OG1] |==|  0.92488
USER: genes 17 Torsion [CA]-CB--OG1-[HG1] |==|  0.05076
USER: genes 18 Torsion [N]-C--CA-[N] |==|  0.30018
USER: genes 19 Torsion [C]-CA--N-[C] |==|  0.81618
USER: genes 20 Torsion [N]-C--CA-[N] |==|  0.93014
USER: genes 21 Torsion [C]-CA--N-[C] |==|  0.74917
USER: genes 22 Torsion [N]-C--CA-[N] |==|  0.90279
USER: genes 23 Torsion [C]-CA--CB-[CG] |==|  0.74842
USER: genes 24 Torsion [CA]-CB--CG-[CD2] |==|  0.68625
ROOT
ATOM      1  C   ALA E  68      10.156   3.744  25.568  1.00 21.38 LIG 0.24  C 
ATOM      2 O    ALA E  68      11.351   4.043  25.464  1.00 23.30 LIG-0.27  OA
ATOM      3  N   THR E  69       9.163   4.634  25.472  1.00 18.30 LIG-0.34  N 
ATOM      4 H    THR E  69       8.338   4.457  25.645  1.00 18.30 LIG 0.16  HD
ENDROOT
BRANCH 3 5
ATOM      5  CA  THR E  69       9.413   6.011  25.053  1.00 19.45 LIG 0.20  C 
BRANCH 5 6
ATOM      6  C   THR E  69       9.433   6.980  26.250  1.00 19.66 LIG 0.24  C 
ATOM      7  N   CYS E  70      10.147   8.082  26.116  1.00 18.57 LIG-0.34  N 
ATOM      8 H    CYS E  70      10.543   8.315  25.388  1.00 18.57 LIG 0.16  HD
ATOM      9 O    THR E  69       8.835   6.722  27.275  1.00 20.15 LIG-0.27  OA
BRANCH 7 10
ATOM     10  CA  CYS E  70      10.321   9.011  27.220  1.00 18.45 LIG 0.18  C 
BRANCH 10 11
ATOM     11  C   CYS E  70       9.702  10.325  26.781  1.00 19.42 LIG 0.24  C 
ATOM     12  N   ASP E  71       9.215  11.103  27.764  1.00 17.61 LIG-0.34  N 
ATOM     13 H    ASP E  71       9.212  10.871  28.592  1.00 17.61 LIG 0.16  HD
ATOM     14 O    CYS E  70       9.642  10.591  25.576  1.00 18.07 LIG-0.27  OA
BRANCH 12 15
ATOM     15  CA  ASP E  71       8.643  12.413  27.522  1.00 16.95 LIG 0.19  C 
BRANCH 15 16
ATOM     16  C   ASP E  71       9.746  13.178  26.855  1.00 18.90 LIG 0.24  C 
ATOM     17 O    ASP E  71       9.477  13.952  25.903  1.00 16.52 LIG-0.27  OA
ATOM     18  N   SER E  72      10.977  12.960  27.319  1.00 19.80 LIG-0.34  N 
ATOM     19 H    SER E  72      11.170  12.383  27.927  1.00 19.80 LIG 0.16  HD
BRANCH 18 20
ATOM     20  CA  SER E  72      12.118  13.712  26.809  1.00 20.01 LIG 0.20  C 
BRANCH 20 21
ATOM     21  C   SER E  72      13.443  13.115  27.163  1.00 24.22 LIG 0.29  C 
ATOM     22  N   NH2 E  73      13.712  11.897  26.572  1.00 28.43 LIG-0.11  N 
ATOM     23 O    SER E  72      14.102  13.554  28.078  1.00 27.83 LIG-0.27  OA
ENDBRANCH 20 21
BRANCH 20 24
ATOM     24  CB  SER E  72      12.067  15.137  27.307  1.00 25.59 LIG 0.20  C 
BRANCH 24 25
ATOM     25 OG   SER E  72      12.061  15.180  28.712  1.00 28.15 LIG-0.40  OA
ATOM     26 HG   SER E  72      11.276  15.077  28.993  1.00 28.15 LIG 0.21  HD
ENDBRANCH 24 25
ENDBRANCH 20 24
ENDBRANCH 18 20
ENDBRANCH 15 16
BRANCH 15 27
ATOM     27  CB  ASP E  71       8.180  13.065  28.834  1.00 12.80 LIG 0.15  C 
BRANCH 27 28
ATOM     28  CG  ASP E  71       9.324  13.292  29.786  1.00 14.21 LIG 0.17  C 
ATOM     29 OD2  ASP E  71       9.673  12.410  30.584  1.00 15.44 LIG-0.65  OA
ATOM     30 OD1  ASP E  71       9.885  14.396  29.762  1.00 16.80 LIG-0.65  OA
ENDBRANCH 27 28
ENDBRANCH 15 27
ENDBRANCH 12 15
ENDBRANCH 10 11
BRANCH 10 31
ATOM     31  CB  CYS E  70      11.822   9.176  27.585  1.00 19.19 LIG 0.10  C 
BRANCH 31 32
ATOM     32 SG   CYS E  70      13.016   8.924  26.252  1.00 25.14 LIG-0.18  SA
ATOM     33 HG   CYS E  70      13.058   7.759  25.965  1.00 25.14 LIG 0.10  HD
ENDBRANCH 31 32
ENDBRANCH 10 31
ENDBRANCH 7 10
ENDBRANCH 5 6
BRANCH 5 34
ATOM     34  CB  THR E  69       8.392   6.440  23.984  1.00 17.77 LIG 0.15  C 
ATOM     35  CG2 THR E  69       9.034   7.360  23.004  1.00 20.71 LIG 0.04  C 
BRANCH 34 36
ATOM     36 OG1  THR E  69       7.918   5.322  23.256  1.00 16.43 LIG-0.39  OA
ATOM     37 HG1  THR E  69       8.078   4.619  23.687  1.00 16.43 LIG 0.21  HD
ENDBRANCH 34 36
ENDBRANCH 5 34
ENDBRANCH 3 5
BRANCH 1 38
ATOM     38  CA  ALA E  68       9.766   2.289  25.814  1.00 20.08 LIG 0.17  C 
ATOM     39  CB  ALA E  68      10.553   1.720  26.970  1.00 20.16 LIG 0.04  C 
BRANCH 38 40
ATOM     40  N   ALA E  68       9.984   1.499  24.634  1.00 18.16 LIG-0.35  N 
ATOM     41 H    ALA E  68      10.600   0.902  24.706  1.00 18.16 LIG 0.16  HD
ATOM     42  C   TRP E  67       9.271   1.705  23.544  1.00 18.88 LIG 0.24  C 
ATOM     43 O    TRP E  67       8.423   2.603  23.416  1.00 21.47 LIG-0.27  OA
BRANCH 42 44
ATOM     44  CA  TRP E  67       9.629   0.826  22.401  1.00 17.18 LIG 0.18  C 
BRANCH 44 45
ATOM     45  N   TRP E  67      11.049   0.333  22.485  1.00 16.72 LIG-0.35  N 
ATOM     46  C   PRO E  66      12.106   0.963  21.950  1.00 16.87 LIG 0.24  C 
ATOM     47 O    PRO E  66      12.017   1.940  21.209  1.00 18.41 LIG-0.27  OA
ATOM     48 H    TRP E  67      11.124  -0.407  22.918  1.00 16.72 LIG 0.16  HD
BRANCH 46 49
ATOM     49  CA  PRO E  66      13.516   0.397  22.251  1.00 17.04 LIG 0.18  C 
ATOM     50  CB  PRO E  66      13.876  -0.774  21.322  1.00 18.40 LIG 0.04  C 
ATOM     51  CG  PRO E  66      13.744  -2.022  22.145  1.00 18.41 LIG 0.02  C 
ATOM     52  CD  PRO E  66      14.034  -1.613  23.562  1.00 21.21 LIG 0.13  C 
ATOM     53  N   PRO E  66      13.703  -0.182  23.597  1.00 19.82 LIG-0.34  N 
ATOM     54  C   ACE E  65      13.680   0.662  24.676  1.00 17.72 LIG 0.22  C 
ATOM     55  CH3 ACE E  65      13.925   0.065  26.001  1.00 22.93 LIG 0.12  C 
ATOM     56 O    ACE E  65      13.431   1.842  24.601  1.00 18.13 LIG-0.27  OA
ENDBRANCH 46 49
ENDBRANCH 44 45
BRANCH 44 57
ATOM     57  CB  TRP E  67       8.638  -0.361  22.270  1.00 18.36 LIG 0.07  C 
BRANCH 57 58
ATOM     58  CG  TRP E  67       9.027  -1.541  23.004  1.00 19.51 LIG-0.03  A 
ATOM     59  CD1 TRP E  67       9.080  -1.684  24.347  1.00 20.71 LIG 0.10  A 
ATOM     60  NE1 TRP E  67       9.483  -2.947  24.669  1.00 21.73 LIG-0.36  N 
ATOM     61  CE2 TRP E  67       9.699  -3.646  23.516  1.00 22.59 LIG 0.04  A 
ATOM     62 HE1  TRP E  67       9.584  -3.252  25.467  1.00 21.73 LIG 0.17  HD
ATOM     63  CD2 TRP E  67       9.415  -2.781  22.444  1.00 20.57 LIG-0.00  A 
ATOM     64  CZ2 TRP E  67      10.111  -4.955  23.323  1.00 23.91 LIG 0.03  A 
ATOM     65  CE3 TRP E  67       9.551  -3.254  21.138  1.00 19.56 LIG 0.01  A 
ATOM     66  CZ3 TRP E  67       9.953  -4.532  20.947  1.00 20.82 LIG 0.00  A 
ATOM     67  CH2 TRP E  67      10.231  -5.383  22.029  1.00 24.07 LIG 0.00  A 
ENDBRANCH 57 58
ENDBRANCH 44 57
ENDBRANCH 42 44
ENDBRANCH 38 40
ENDBRANCH 1 38
TORSDOF 23
ENDMDL
MODEL 54
USER: ADFR SOLUTION from run 161
USER: SCORE 18.780853 LL:  -5.410 LR: -14.308 RR:   0.000 FEB:  -7.447
USER: RMSD 5.741350
USER: SEED 160
USER: STATUS no improvement in best in 2 clusters for 5 generations
USER: GENES 25
USER: genes 0 Translation |==|  0.56000 0.53872 0.34720
USER: genes 1 Rotation |==|  0.78368 0.87613 0.59513 0.63786
USER: genes 2 Torsion [C]-N--CA-[C] |==|  0.54829
USER: genes 3 Torsion [N]-CA--C-[N] |==|  0.47856
USER: genes 4 Torsion [C]-N--CA-[C] |==|  0.77477
USER: genes 5 Torsion [N]-CA--C-[N] |==|  0.97618
USER: genes 6 Torsion [C]-N--CA-[C] |==|  0.69941
USER: genes 7 Torsion [N]-CA--C-[N] |==|  0.03869
USER: genes 8 Torsion [C]-N--CA-[CB] |==|  0.84033
USER: genes 9 Torsion [N]-CA--C-[N] |==|  0.35672
USER: genes 10 Torsion [N]-CA--CB-[OG] |==|  0.61404
USER: genes 11 Torsion [CA]-CB--OG-[HG] |==|  0.73823
USER: genes 12 Torsion [N]-CA--CB-[CG] |==|  0.64915
USER: genes 13 Torsion [CA]-CB--CG-[OD2] |==|  0.49947
USER: genes 14 Torsion [N]-CA--CB-[SG] |==|  0.86785
USER: genes 15 Torsion [CA]-CB--SG-[HG] |==|  0.15227
USER: genes 16 Torsion [N]-CA--CB-[OG1] |==|  0.43419
USER: genes 17 Torsion [CA]-CB--OG1-[HG1] |==|  0.98603
USER: genes 18 Torsion [N]-C--CA-[N] |==|  0.53860
USER: genes 19 Torsion [C]-CA--N-[C] |==|  0.61624
USER: genes 20 Torsion [N]-C--CA-[N] |==|  0.10130
USER: genes 21 Torsion [C]-CA--N-[C] |==|  0.15188
USER: genes 22 Torsion [N]-C--CA-[N] |==|  0.84291
USER: genes 23 Torsion [C]-CA--CB-[CG] |==|  0.53822
USER: genes 24 Torsion [CA]-CB--CG-[CD2] |==|  0.42087
ROOT
ATOM      1  C   ALA E  68       8.383   4.544  25.405  1.00 21.38 LIG 0.24  C 
ATOM      2 O    ALA E  68       7.449   5.072  24.791  1.00 23.30 LIG-0.27  OA
ATOM      3  N   THR E  69       8.497   3.222  25.576  1.00 18.30 LIG-0.34  N 
ATOM      4 H    THR E  69       9.082   2.851  26.086  1.00 18.30 LIG 0.16  HD
ENDROOT
BRANCH 3 5
ATOM      5  CA  THR E  69       7.611   2.286  24.887  1.00 19.45 LIG 0.20  C 
BRANCH 5 6
ATOM      6  C   THR E  69       7.631   0.892  25.540  1.00 19.66 LIG 0.24  C 
ATOM      7  N   CYS E  70       6.751   0.011  25.098  1.00 18.57 LIG-0.34  N 
ATOM      8 H    CYS E  70       6.221   0.151  24.436  1.00 18.57 LIG 0.16  HD
ATOM      9 O    THR E  69       8.408   0.630  26.436  1.00 20.15 LIG-0.27  OA
BRANCH 7 10
ATOM     10  CA  CYS E  70       6.613  -1.296  25.716  1.00 18.45 LIG 0.18  C 
BRANCH 10 11
ATOM     11  C   CYS E  70       7.718  -2.164  25.146  1.00 19.42 LIG 0.24  C 
ATOM     12  N   ASP E  71       8.416  -1.634  24.126  1.00 17.61 LIG-0.34  N 
ATOM     13 H    ASP E  71       8.239  -0.866  23.782  1.00 17.61 LIG 0.16  HD
ATOM     14 O    CYS E  70       7.893  -3.298  25.604  1.00 18.07 LIG-0.27  OA
BRANCH 12 15
ATOM     15  CA  ASP E  71       9.540  -2.307  23.506  1.00 16.95 LIG 0.19  C 
BRANCH 15 16
ATOM     16  C   ASP E  71      10.735  -1.527  23.963  1.00 18.90 LIG 0.24  C 
ATOM     17 O    ASP E  71      11.846  -1.709  23.406  1.00 16.52 LIG-0.27  OA
ATOM     18  N   SER E  72      10.533  -0.682  24.976  1.00 19.80 LIG-0.34  N 
ATOM     19 H    SER E  72       9.789  -0.604  25.400  1.00 19.80 LIG 0.16  HD
BRANCH 18 20
ATOM     20  CA  SER E  72      11.599   0.195  25.448  1.00 20.01 LIG 0.20  C 
BRANCH 20 21
ATOM     21  C   SER E  72      12.024   1.222  24.446  1.00 24.22 LIG 0.29  C 
ATOM     22  N   NH2 E  73      12.044   2.520  24.914  1.00 28.43 LIG-0.11  N 
ATOM     23 O    SER E  72      12.102   0.953  23.269  1.00 27.83 LIG-0.27  OA
ENDBRANCH 20 21
BRANCH 20 24
ATOM     24  CB  SER E  72      12.801  -0.621  25.862  1.00 25.59 LIG 0.20  C 
BRANCH 24 25
ATOM     25 OG   SER E  72      13.370  -0.115  27.044  1.00 28.15 LIG-0.40  OA
ATOM     26 HG   SER E  72      13.993   0.416  26.850  1.00 28.15 LIG 0.21  HD
ENDBRANCH 24 25
ENDBRANCH 20 24
ENDBRANCH 18 20
ENDBRANCH 15 16
BRANCH 15 27
ATOM     27  CB  ASP E  71       9.396  -2.327  21.976  1.00 12.80 LIG 0.15  C 
BRANCH 27 28
ATOM     28  CG  ASP E  71       9.509  -3.719  21.416  1.00 14.21 LIG 0.17  C 
ATOM     29 OD2  ASP E  71       9.413  -3.924  20.197  1.00 15.44 LIG-0.65  OA
ATOM     30 OD1  ASP E  71       9.672  -4.652  22.214  1.00 16.80 LIG-0.65  OA
ENDBRANCH 27 28
ENDBRANCH 15 27
ENDBRANCH 12 15
ENDBRANCH 10 11
BRANCH 10 31
ATOM     31  CB  CYS E  70       5.208  -1.901  25.443  1.00 19.19 LIG 0.10  C 
BRANCH 31 32
ATOM     32 SG   CYS E  70       3.788  -0.818  25.720  1.00 25.14 LIG-0.18  SA
ATOM     33 HG   CYS E  70       3.922   0.190  25.083  1.00 25.14 LIG 0.10  HD
ENDBRANCH 31 32
ENDBRANCH 10 31
ENDBRANCH 7 10
ENDBRANCH 5 6
BRANCH 5 34
ATOM     34  CB  THR E  69       7.959   2.224  23.389  1.00 17.77 LIG 0.15  C 
ATOM     35  CG2 THR E  69       9.434   2.302  23.203  1.00 20.71 LIG 0.04  C 
BRANCH 34 36
ATOM     36 OG1  THR E  69       7.531   1.000  22.819  1.00 16.43 LIG-0.39  OA
ATOM     37 HG1  THR E  69       7.226   0.502  23.422  1.00 16.43 LIG 0.21  HD
ENDBRANCH 34 36
ENDBRANCH 5 34
ENDBRANCH 3 5
BRANCH 1 38
ATOM     38  CA  ALA E  68       9.478   5.421  26.004  1.00 20.08 LIG 0.17  C 
ATOM     39  CB  ALA E  68       9.822   4.958  27.400  1.00 20.16 LIG 0.04  C 
BRANCH 38 40
ATOM     40  N   ALA E  68       9.069   6.798  26.028  1.00 18.16 LIG-0.35  N 
ATOM     41 H    ALA E  68       8.253   6.929  26.269  1.00 18.16 LIG 0.16  HD
ATOM     42  C   TRP E  67       9.912   7.757  25.700  1.00 18.88 LIG 0.24  C 
ATOM     43 O    TRP E  67      11.071   7.569  25.297  1.00 21.47 LIG-0.27  OA
BRANCH 42 44
ATOM     44  CA  TRP E  67       9.335   9.125  25.752  1.00 17.18 LIG 0.18  C 
BRANCH 44 45
ATOM     45  N   TRP E  67       8.361   9.289  26.889  1.00 16.72 LIG-0.35  N 
ATOM     46  C   PRO E  66       8.642   9.029  28.175  1.00 16.87 LIG 0.24  C 
ATOM     47 O    PRO E  66       9.681   8.491  28.553  1.00 18.41 LIG-0.27  OA
ATOM     48 H    TRP E  67       7.591   9.572  26.634  1.00 16.72 LIG 0.16  HD
BRANCH 46 49
ATOM     49  CA  PRO E  66       7.574   9.387  29.237  1.00 17.04 LIG 0.18  C 
ATOM     50  CB  PRO E  66       6.259   8.623  29.011  1.00 18.40 LIG 0.04  C 
ATOM     51  CG  PRO E  66       5.291   9.611  28.427  1.00 18.41 LIG 0.02  C 
ATOM     52  CD  PRO E  66       5.706  10.955  28.957  1.00 21.21 LIG 0.13  C 
ATOM     53  N   PRO E  66       7.135  10.797  29.257  1.00 19.82 LIG-0.34  N 
ATOM     54  C   ACE E  65       8.032  11.751  29.663  1.00 17.72 LIG 0.22  C 
ATOM     55  CH3 ACE E  65       7.550  13.142  29.727  1.00 22.93 LIG 0.12  C 
ATOM     56 O    ACE E  65       9.188  11.517  29.924  1.00 18.13 LIG-0.27  OA
ENDBRANCH 46 49
ENDBRANCH 44 45
BRANCH 44 57
ATOM     57  CB  TRP E  67      10.447  10.205  25.815  1.00 18.36 LIG 0.07  C 
BRANCH 57 58
ATOM     58  CG  TRP E  67       9.976  11.520  26.179  1.00 19.51 LIG-0.03  A 
ATOM     59  CD1 TRP E  67       8.743  12.030  25.966  1.00 20.71 LIG 0.10  A 
ATOM     60  NE1 TRP E  67       8.668  13.300  26.459  1.00 21.73 LIG-0.36  N 
ATOM     61  CE2 TRP E  67       9.875  13.630  27.007  1.00 22.59 LIG 0.04  A 
ATOM     62 HE1  TRP E  67       7.975  13.808  26.429  1.00 21.73 LIG 0.17  HD
ATOM     63  CD2 TRP E  67      10.723  12.519  26.847  1.00 20.57 LIG-0.00  A 
ATOM     64  CZ2 TRP E  67      10.291  14.796  27.628  1.00 23.91 LIG 0.03  A 
ATOM     65  CE3 TRP E  67      12.029  12.589  27.331  1.00 19.56 LIG 0.01  A 
ATOM     66  CZ3 TRP E  67      12.438  13.727  27.939  1.00 20.82 LIG 0.00  A 
ATOM     67  CH2 TRP E  67      11.577  14.827  28.091  1.00 24.07 LIG 0.00  A 
ENDBRANCH 57 58
ENDBRANCH 44 57
ENDBRANCH 42 44
ENDBRANCH 38 40
ENDBRANCH 1 38
TORSDOF 23
ENDMDL
MODEL 55
USER: ADFR SOLUTION from run 93
USER: SCORE 18.379358 LL:  -6.370 LR: -14.307 RR:   0.000 FEB:  -7.446
USER: RMSD 6.379155
USER: SEED 92
USER: STATUS no improvement in best in 10 clusters for 5 generations
USER: GENES 25
USER: genes 0 Translation |==|  0.45844 0.43591 0.37919
USER: genes 1 Rotation |==|  0.23288 0.28381 0.59735 0.84990
USER: genes 2 Torsion [C]-N--CA-[C] |==|  0.75191
USER: genes 3 Torsion [N]-CA--C-[N] |==|  0.85281
USER: genes 4 Torsion [C]-N--CA-[C] |==|  0.61863
USER: genes 5 Torsion [N]-CA--C-[N] |==|  0.03620
USER: genes 6 Torsion [C]-N--CA-[C] |==|  0.67078
USER: genes 7 Torsion [N]-CA--C-[N] |==|  0.94520
USER: genes 8 Torsion [C]-N--CA-[CB] |==|  0.79264
USER: genes 9 Torsion [N]-CA--C-[N] |==|  0.52670
USER: genes 10 Torsion [N]-CA--CB-[OG] |==|  0.23193
USER: genes 11 Torsion [CA]-CB--OG-[HG] |==|  0.95743
USER: genes 12 Torsion [N]-CA--CB-[CG] |==|  0.62655
USER: genes 13 Torsion [CA]-CB--CG-[OD2] |==|  0.34674
USER: genes 14 Torsion [N]-CA--CB-[SG] |==|  0.00910
USER: genes 15 Torsion [CA]-CB--SG-[HG] |==|  0.35693
USER: genes 16 Torsion [N]-CA--CB-[OG1] |==|  0.11249
USER: genes 17 Torsion [CA]-CB--OG1-[HG1] |==|  0.90717
USER: genes 18 Torsion [N]-C--CA-[N] |==|  0.46427
USER: genes 19 Torsion [C]-CA--N-[C] |==|  0.49858
USER: genes 20 Torsion [N]-C--CA-[N] |==|  0.04076
USER: genes 21 Torsion [C]-CA--N-[C] |==|  0.61302
USER: genes 22 Torsion [N]-C--CA-[N] |==|  0.16875
USER: genes 23 Torsion [C]-CA--CB-[CG] |==|  0.57158
USER: genes 24 Torsion [CA]-CB--CG-[CD2] |==|  0.74981
ROOT
ATOM      1  C   ALA E  68       6.326   1.613  25.885  1.00 21.38 LIG 0.24  C 
ATOM      2 O    ALA E  68       6.707   1.817  27.043  1.00 23.30 LIG-0.27  OA
ATOM      3  N   THR E  69       5.583   0.560  25.529  1.00 18.30 LIG-0.34  N 
ATOM      4 H    THR E  69       5.400   0.352  24.714  1.00 18.30 LIG 0.16  HD
ENDROOT
BRANCH 3 5
ATOM      5  CA  THR E  69       5.010  -0.339  26.528  1.00 19.45 LIG 0.20  C 
BRANCH 5 6
ATOM      6  C   THR E  69       5.968  -1.494  26.877  1.00 19.66 LIG 0.24  C 
ATOM      7  N   CYS E  70       6.438  -2.206  25.868  1.00 18.57 LIG-0.34  N 
ATOM      8 H    CYS E  70       6.290  -2.025  25.041  1.00 18.57 LIG 0.16  HD
ATOM      9 O    THR E  69       6.254  -1.745  28.030  1.00 20.15 LIG-0.27  OA
BRANCH 7 10
ATOM     10  CA  CYS E  70       7.262  -3.381  26.091  1.00 18.45 LIG 0.18  C 
BRANCH 10 11
ATOM     11  C   CYS E  70       8.392  -3.316  25.081  1.00 19.42 LIG 0.24  C 
ATOM     12  N   ASP E  71       8.546  -2.141  24.446  1.00 17.61 LIG-0.34  N 
ATOM     13 H    ASP E  71       8.024  -1.468  24.565  1.00 17.61 LIG 0.16  HD
ATOM     14 O    CYS E  70       9.070  -4.326  24.868  1.00 18.07 LIG-0.27  OA
BRANCH 12 15
ATOM     15  CA  ASP E  71       9.610  -1.893  23.493  1.00 16.95 LIG 0.19  C 
BRANCH 15 16
ATOM     16  C   ASP E  71      10.395  -0.771  24.103  1.00 18.90 LIG 0.24  C 
ATOM     17 O    ASP E  71      11.583  -0.576  23.743  1.00 16.52 LIG-0.27  OA
ATOM     18  N   SER E  72       9.764  -0.047  25.029  1.00 19.80 LIG-0.34  N 
ATOM     19 H    SER E  72       8.974  -0.220  25.323  1.00 19.80 LIG 0.16  HD
BRANCH 18 20
ATOM     20  CA  SER E  72      10.395   1.124  25.628  1.00 20.01 LIG 0.20  C 
BRANCH 20 21
ATOM     21  C   SER E  72      10.994   2.064  24.629  1.00 24.22 LIG 0.29  C 
ATOM     22  N   NH2 E  73      11.774   3.067  25.166  1.00 28.43 LIG-0.11  N 
ATOM     23 O    SER E  72      10.619   2.075  23.479  1.00 27.83 LIG-0.27  OA
ENDBRANCH 20 21
BRANCH 20 24
ATOM     24  CB  SER E  72      11.461   0.698  26.610  1.00 25.59 LIG 0.20  C 
BRANCH 24 25
ATOM     25 OG   SER E  72      12.673   0.424  25.951  1.00 28.15 LIG-0.40  OA
ATOM     26 HG   SER E  72      12.532   0.344  25.126  1.00 28.15 LIG 0.21  HD
ENDBRANCH 24 25
ENDBRANCH 20 24
ENDBRANCH 18 20
ENDBRANCH 15 16
BRANCH 15 27
ATOM     27  CB  ASP E  71       9.043  -1.536  22.111  1.00 12.80 LIG 0.15  C 
BRANCH 27 28
ATOM     28  CG  ASP E  71       9.743  -2.278  21.004  1.00 14.21 LIG 0.17  C 
ATOM     29 OD2  ASP E  71       9.104  -2.968  20.197  1.00 15.44 LIG-0.65  OA
ATOM     30 OD1  ASP E  71      10.978  -2.197  20.945  1.00 16.80 LIG-0.65  OA
ENDBRANCH 27 28
ENDBRANCH 15 27
ENDBRANCH 12 15
ENDBRANCH 10 11
BRANCH 10 31
ATOM     31  CB  CYS E  70       6.433  -4.686  25.941  1.00 19.19 LIG 0.10  C 
BRANCH 31 32
ATOM     32 SG   CYS E  70       4.704  -4.499  25.447  1.00 25.14 LIG-0.18  SA
ATOM     33 HG   CYS E  70       4.476  -5.210  24.507  1.00 25.14 LIG 0.10  HD
ENDBRANCH 31 32
ENDBRANCH 10 31
ENDBRANCH 7 10
ENDBRANCH 5 6
BRANCH 5 34
ATOM     34  CB  THR E  69       3.636  -0.854  26.061  1.00 17.77 LIG 0.15  C 
ATOM     35  CG2 THR E  69       2.600   0.195  26.269  1.00 20.71 LIG 0.04  C 
BRANCH 34 36
ATOM     36 OG1  THR E  69       3.651  -1.156  24.678  1.00 16.43 LIG-0.39  OA
ATOM     37 HG1  THR E  69       4.166  -0.625  24.280  1.00 16.43 LIG 0.21  HD
ENDBRANCH 34 36
ENDBRANCH 5 34
ENDBRANCH 3 5
BRANCH 1 38
ATOM     38  CA  ALA E  68       6.706   2.601  24.786  1.00 20.08 LIG 0.17  C 
ATOM     39  CB  ALA E  68       7.715   1.985  23.847  1.00 20.16 LIG 0.04  C 
BRANCH 38 40
ATOM     40  N   ALA E  68       7.235   3.811  25.352  1.00 18.16 LIG-0.35  N 
ATOM     41 H    ALA E  68       7.263   3.827  26.211  1.00 18.16 LIG 0.16  HD
ATOM     42  C   TRP E  67       7.636   4.799  24.576  1.00 18.88 LIG 0.24  C 
ATOM     43 O    TRP E  67       7.544   4.804  23.337  1.00 21.47 LIG-0.27  OA
BRANCH 42 44
ATOM     44  CA  TRP E  67       8.137   5.991  25.308  1.00 17.18 LIG 0.18  C 
BRANCH 44 45
ATOM     45  N   TRP E  67       8.410   5.693  26.759  1.00 16.72 LIG-0.35  N 
ATOM     46  C   PRO E  66       8.114   6.519  27.774  1.00 16.87 LIG 0.24  C 
ATOM     47 O    PRO E  66       7.715   7.673  27.623  1.00 18.41 LIG-0.27  OA
ATOM     48 H    TRP E  67       8.782   4.928  26.881  1.00 16.72 LIG 0.16  HD
BRANCH 46 49
ATOM     49  CA  PRO E  66       8.328   6.001  29.217  1.00 17.04 LIG 0.18  C 
ATOM     50  CB  PRO E  66       7.989   7.070  30.268  1.00 18.40 LIG 0.04  C 
ATOM     51  CG  PRO E  66       9.300   7.582  30.790  1.00 18.41 LIG 0.02  C 
ATOM     52  CD  PRO E  66      10.270   6.442  30.653  1.00 21.21 LIG 0.13  C 
ATOM     53  N   PRO E  66       9.713   5.625  29.566  1.00 19.82 LIG-0.34  N 
ATOM     54  C   ACE E  65      10.260   4.524  28.961  1.00 17.72 LIG 0.22  C 
ATOM     55  CH3 ACE E  65      11.623   4.140  29.370  1.00 22.93 LIG 0.12  C 
ATOM     56 O    ACE E  65       9.707   3.891  28.094  1.00 18.13 LIG-0.27  OA
ENDBRANCH 46 49
ENDBRANCH 44 45
BRANCH 44 57
ATOM     57  CB  TRP E  67       9.391   6.591  24.620  1.00 18.36 LIG 0.07  C 
BRANCH 57 58
ATOM     58  CG  TRP E  67      10.259   7.325  25.509  1.00 19.51 LIG-0.03  A 
ATOM     59  CD1 TRP E  67      11.305   6.838  26.212  1.00 20.71 LIG 0.10  A 
ATOM     60  NE1 TRP E  67      11.892   7.835  26.933  1.00 21.73 LIG-0.36  N 
ATOM     61  CE2 TRP E  67      11.220   9.000  26.700  1.00 22.59 LIG 0.04  A 
ATOM     62 HE1  TRP E  67      12.574   7.745  27.449  1.00 21.73 LIG 0.17  HD
ATOM     63  CD2 TRP E  67      10.180   8.708  25.798  1.00 20.57 LIG-0.00  A 
ATOM     64  CZ2 TRP E  67      11.434  10.277  27.195  1.00 23.91 LIG 0.03  A 
ATOM     65  CE3 TRP E  67       9.334   9.737  25.384  1.00 19.56 LIG 0.01  A 
ATOM     66  CZ3 TRP E  67       9.542  10.985  25.865  1.00 20.82 LIG 0.00  A 
ATOM     67  CH2 TRP E  67      10.585  11.259  26.765  1.00 24.07 LIG 0.00  A 
ENDBRANCH 57 58
ENDBRANCH 44 57
ENDBRANCH 42 44
ENDBRANCH 38 40
ENDBRANCH 1 38
TORSDOF 23
ENDMDL
MODEL 56
USER: ADFR SOLUTION from run 12
USER: SCORE 17.223776 LL:  -5.669 LR: -14.272 RR:   0.000 FEB:  -7.411
USER: RMSD 4.002955
USER: SEED 382307
USER: STATUS 1 or 2 clusters left
USER: GENES 25
USER: genes 0 Translation |==|  0.53462 0.55881 0.39815
USER: genes 1 Rotation |==|  0.77461 0.79706 0.61979 0.76832
USER: genes 2 Torsion [C]-N--CA-[C] |==|  0.54205
USER: genes 3 Torsion [N]-CA--C-[N] |==|  0.38364
USER: genes 4 Torsion [C]-N--CA-[C] |==|  0.74543
USER: genes 5 Torsion [N]-CA--C-[N] |==|  0.27019
USER: genes 6 Torsion [C]-N--CA-[C] |==|  0.80279
USER: genes 7 Torsion [N]-CA--C-[N] |==|  0.35412
USER: genes 8 Torsion [C]-N--CA-[CB] |==|  0.77364
USER: genes 9 Torsion [N]-CA--C-[N] |==|  0.58333
USER: genes 10 Torsion [N]-CA--CB-[OG] |==|  0.91406
USER: genes 11 Torsion [CA]-CB--OG-[HG] |==|  0.02681
USER: genes 12 Torsion [N]-CA--CB-[CG] |==|  0.55409
USER: genes 13 Torsion [CA]-CB--CG-[OD2] |==|  0.33455
USER: genes 14 Torsion [N]-CA--CB-[SG] |==|  0.24691
USER: genes 15 Torsion [CA]-CB--SG-[HG] |==|  0.87676
USER: genes 16 Torsion [N]-CA--CB-[OG1] |==|  0.73958
USER: genes 17 Torsion [CA]-CB--OG1-[HG1] |==|  0.67185
USER: genes 18 Torsion [N]-C--CA-[N] |==|  0.59738
USER: genes 19 Torsion [C]-CA--N-[C] |==|  0.71614
USER: genes 20 Torsion [N]-C--CA-[N] |==|  0.20215
USER: genes 21 Torsion [C]-CA--N-[C] |==|  0.63045
USER: genes 22 Torsion [N]-C--CA-[N] |==|  0.03739
USER: genes 23 Torsion [C]-CA--CB-[CG] |==|  0.63018
USER: genes 24 Torsion [CA]-CB--CG-[CD2] |==|  0.23517
ROOT
ATOM      1  C   ALA E  68       7.869   5.116  26.169  1.00 21.38 LIG 0.24  C 
ATOM      2 O    ALA E  68       7.539   5.641  25.100  1.00 23.30 LIG-0.27  OA
ATOM      3  N   THR E  69       7.535   3.866  26.509  1.00 18.30 LIG-0.34  N 
ATOM      4 H    THR E  69       7.669   3.527  27.288  1.00 18.30 LIG 0.16  HD
ENDROOT
BRANCH 3 5
ATOM      5  CA  THR E  69       6.901   2.961  25.553  1.00 19.45 LIG 0.20  C 
BRANCH 5 6
ATOM      6  C   THR E  69       6.278   1.737  26.249  1.00 19.66 LIG 0.24  C 
ATOM      7  N   CYS E  70       5.090   1.347  25.823  1.00 18.57 LIG-0.34  N 
ATOM      8 H    CYS E  70       4.682   1.693  25.150  1.00 18.57 LIG 0.16  HD
ATOM      9 O    THR E  69       6.849   1.177  27.164  1.00 20.15 LIG-0.27  OA
BRANCH 7 10
ATOM     10  CA  CYS E  70       4.366   0.271  26.480  1.00 18.45 LIG 0.18  C 
BRANCH 10 11
ATOM     11  C   CYS E  70       4.753  -1.010  25.766  1.00 19.42 LIG 0.24  C 
ATOM     12  N   ASP E  71       5.726  -1.736  26.346  1.00 17.61 LIG-0.34  N 
ATOM     13 H    ASP E  71       6.139  -1.488  27.058  1.00 17.61 LIG 0.16  HD
ATOM     14 O    CYS E  70       4.202  -1.296  24.698  1.00 18.07 LIG-0.27  OA
BRANCH 12 15
ATOM     15  CA  ASP E  71       6.174  -3.012  25.824  1.00 16.95 LIG 0.19  C 
BRANCH 15 16
ATOM     16  C   ASP E  71       5.036  -3.945  26.108  1.00 18.90 LIG 0.24  C 
ATOM     17 O    ASP E  71       4.587  -4.040  27.278  1.00 16.52 LIG-0.27  OA
ATOM     18  N   SER E  72       4.579  -4.648  25.070  1.00 19.80 LIG-0.34  N 
ATOM     19 H    SER E  72       4.927  -4.632  24.284  1.00 19.80 LIG 0.16  HD
BRANCH 18 20
ATOM     20  CA  SER E  72       3.418  -5.521  25.206  1.00 20.01 LIG 0.20  C 
BRANCH 20 21
ATOM     21  C   SER E  72       2.311  -4.932  26.022  1.00 24.22 LIG 0.29  C 
ATOM     22  N   NH2 E  73       1.539  -5.848  26.706  1.00 28.43 LIG-0.11  N 
ATOM     23 O    SER E  72       1.983  -3.775  25.889  1.00 27.83 LIG-0.27  OA
ENDBRANCH 20 21
BRANCH 20 24
ATOM     24  CB  SER E  72       3.828  -6.845  25.807  1.00 25.59 LIG 0.20  C 
BRANCH 24 25
ATOM     25 OG   SER E  72       5.145  -7.177  25.442  1.00 28.15 LIG-0.40  OA
ATOM     26 HG   SER E  72       5.507  -6.518  25.067  1.00 28.15 LIG 0.21  HD
ENDBRANCH 24 25
ENDBRANCH 20 24
ENDBRANCH 18 20
ENDBRANCH 15 16
BRANCH 15 27
ATOM     27  CB  ASP E  71       7.483  -3.455  26.496  1.00 12.80 LIG 0.15  C 
BRANCH 27 28
ATOM     28  CG  ASP E  71       8.211  -4.492  25.685  1.00 14.21 LIG 0.17  C 
ATOM     29 OD2  ASP E  71       9.361  -4.284  25.270  1.00 15.44 LIG-0.65  OA
ATOM     30 OD1  ASP E  71       7.614  -5.546  25.424  1.00 16.80 LIG-0.65  OA
ENDBRANCH 27 28
ENDBRANCH 15 27
ENDBRANCH 12 15
ENDBRANCH 10 11
BRANCH 10 31
ATOM     31  CB  CYS E  70       2.833   0.515  26.432  1.00 19.19 LIG 0.10  C 
BRANCH 31 32
ATOM     32 SG   CYS E  70       1.952  -0.130  24.991  1.00 25.14 LIG-0.18  SA
ATOM     33 HG   CYS E  70       2.572   0.123  23.995  1.00 25.14 LIG 0.10  HD
ENDBRANCH 31 32
ENDBRANCH 10 31
ENDBRANCH 7 10
ENDBRANCH 5 6
BRANCH 5 34
ATOM     34  CB  THR E  69       7.902   2.551  24.458  1.00 17.77 LIG 0.15  C 
ATOM     35  CG2 THR E  69       7.612   1.167  23.993  1.00 20.71 LIG 0.04  C 
BRANCH 34 36
ATOM     36 OG1  THR E  69       7.798   3.400  23.330  1.00 16.43 LIG-0.39  OA
ATOM     37 HG1  THR E  69       7.570   2.949  22.660  1.00 16.43 LIG 0.21  HD
ENDBRANCH 34 36
ENDBRANCH 5 34
ENDBRANCH 3 5
BRANCH 1 38
ATOM     38  CA  ALA E  68       8.706   5.910  27.168  1.00 20.08 LIG 0.17  C 
ATOM     39  CB  ALA E  68       8.538   5.350  28.560  1.00 20.16 LIG 0.04  C 
BRANCH 38 40
ATOM     40  N   ALA E  68       8.338   7.298  27.148  1.00 18.16 LIG-0.35  N 
ATOM     41 H    ALA E  68       7.611   7.486  27.568  1.00 18.16 LIG 0.16  HD
ATOM     42  C   TRP E  67       9.086   8.185  26.522  1.00 18.88 LIG 0.24  C 
ATOM     43 O    TRP E  67      10.104   7.910  25.866  1.00 21.47 LIG-0.27  OA
BRANCH 42 44
ATOM     44  CA  TRP E  67       8.563   9.574  26.571  1.00 17.18 LIG 0.18  C 
BRANCH 44 45
ATOM     45  N   TRP E  67       8.721  10.194  27.935  1.00 16.72 LIG-0.35  N 
ATOM     46  C   PRO E  66       7.755  10.861  28.584  1.00 16.87 LIG 0.24  C 
ATOM     47 O    PRO E  66       6.675  11.165  28.080  1.00 18.41 LIG-0.27  OA
ATOM     48 H    TRP E  67       9.505  10.079  28.267  1.00 16.72 LIG 0.16  HD
BRANCH 46 49
ATOM     49  CA  PRO E  66       8.036  11.311  30.038  1.00 17.04 LIG 0.18  C 
ATOM     50  CB  PRO E  66       7.688  12.792  30.260  1.00 18.40 LIG 0.04  C 
ATOM     51  CG  PRO E  66       8.993  13.532  30.307  1.00 18.41 LIG 0.02  C 
ATOM     52  CD  PRO E  66      10.003  12.549  30.829  1.00 21.21 LIG 0.13  C 
ATOM     53  N   PRO E  66       9.446  11.237  30.473  1.00 19.82 LIG-0.34  N 
ATOM     54  C   ACE E  65      10.017  10.000  30.619  1.00 17.72 LIG 0.22  C 
ATOM     55  CH3 ACE E  65      11.407   9.955  31.107  1.00 22.93 LIG 0.12  C 
ATOM     56 O    ACE E  65       9.462   8.966  30.329  1.00 18.13 LIG-0.27  OA
ENDBRANCH 46 49
ENDBRANCH 44 45
BRANCH 44 57
ATOM     57  CB  TRP E  67       9.216  10.463  25.480  1.00 18.36 LIG 0.07  C 
BRANCH 57 58
ATOM     58  CG  TRP E  67       9.674  11.745  25.957  1.00 19.51 LIG-0.03  A 
ATOM     59  CD1 TRP E  67       9.000  12.916  25.920  1.00 20.71 LIG 0.10  A 
ATOM     60  NE1 TRP E  67       9.753  13.909  26.474  1.00 21.73 LIG-0.36  N 
ATOM     61  CE2 TRP E  67      10.944  13.382  26.883  1.00 22.59 LIG 0.04  A 
ATOM     62 HE1  TRP E  67       9.515  14.733  26.553  1.00 21.73 LIG 0.17  HD
ATOM     63  CD2 TRP E  67      10.921  12.010  26.571  1.00 20.57 LIG-0.00  A 
ATOM     64  CZ2 TRP E  67      12.030  13.984  27.499  1.00 23.91 LIG 0.03  A 
ATOM     65  CE3 TRP E  67      12.028  11.225  26.893  1.00 19.56 LIG 0.01  A 
ATOM     66  CZ3 TRP E  67      13.089  11.810  27.495  1.00 20.82 LIG 0.00  A 
ATOM     67  CH2 TRP E  67      13.095  13.181  27.800  1.00 24.07 LIG 0.00  A 
ENDBRANCH 57 58
ENDBRANCH 44 57
ENDBRANCH 42 44
ENDBRANCH 38 40
ENDBRANCH 1 38
TORSDOF 23
ENDMDL
MODEL 57
USER: ADFR SOLUTION from run 58
USER: SCORE 18.086901 LL:  -6.259 LR: -14.271 RR:   0.000 FEB:  -7.410
USER: RMSD 7.358334
USER: SEED 57
USER: STATUS no improvement in best in 11 clusters for 5 generations
USER: GENES 25
USER: genes 0 Translation |==|  0.56934 0.60019 0.34556
USER: genes 1 Rotation |==|  0.33411 0.08834 0.62805 0.69136
USER: genes 2 Torsion [C]-N--CA-[C] |==|  0.64371
USER: genes 3 Torsion [N]-CA--C-[N] |==|  0.43676
USER: genes 4 Torsion [C]-N--CA-[C] |==|  0.80383
USER: genes 5 Torsion [N]-CA--C-[N] |==|  0.28614
USER: genes 6 Torsion [C]-N--CA-[C] |==|  0.17997
USER: genes 7 Torsion [N]-CA--C-[N] |==|  0.06442
USER: genes 8 Torsion [C]-N--CA-[CB] |==|  0.82104
USER: genes 9 Torsion [N]-CA--C-[N] |==|  0.22356
USER: genes 10 Torsion [N]-CA--CB-[OG] |==|  0.94090
USER: genes 11 Torsion [CA]-CB--OG-[HG] |==|  0.33019
USER: genes 12 Torsion [N]-CA--CB-[CG] |==|  0.65738
USER: genes 13 Torsion [CA]-CB--CG-[OD2] |==|  0.24787
USER: genes 14 Torsion [N]-CA--CB-[SG] |==|  0.00995
USER: genes 15 Torsion [CA]-CB--SG-[HG] |==|  0.59564
USER: genes 16 Torsion [N]-CA--CB-[OG1] |==|  0.03854
USER: genes 17 Torsion [CA]-CB--OG1-[HG1] |==|  0.41490
USER: genes 18 Torsion [N]-C--CA-[N] |==|  0.73248
USER: genes 19 Torsion [C]-CA--N-[C] |==|  0.74082
USER: genes 20 Torsion [N]-C--CA-[N] |==|  0.41111
USER: genes 21 Torsion [C]-CA--N-[C] |==|  0.54511
USER: genes 22 Torsion [N]-C--CA-[N] |==|  0.15888
USER: genes 23 Torsion [C]-CA--CB-[CG] |==|  0.07225
USER: genes 24 Torsion [CA]-CB--CG-[CD2] |==|  0.74775
ROOT
ATOM      1  C   ALA E  68       8.572   6.295  25.380  1.00 21.38 LIG 0.24  C 
ATOM      2 O    ALA E  68       7.954   6.330  26.450  1.00 23.30 LIG-0.27  OA
ATOM      3  N   THR E  69       9.171   5.195  24.912  1.00 18.30 LIG-0.34  N 
ATOM      4 H    THR E  69       9.689   5.184  24.225  1.00 18.30 LIG 0.16  HD
ENDROOT
BRANCH 3 5
ATOM      5  CA  THR E  69       8.983   3.895  25.552  1.00 19.45 LIG 0.20  C 
BRANCH 5 6
ATOM      6  C   THR E  69      10.327   3.211  25.866  1.00 19.66 LIG 0.24  C 
ATOM      7  N   CYS E  70      10.325   2.299  26.821  1.00 18.57 LIG-0.34  N 
ATOM      8 H    CYS E  70       9.616   2.026  27.226  1.00 18.57 LIG 0.16  HD
ATOM      9 O    THR E  69      11.342   3.521  25.274  1.00 20.15 LIG-0.27  OA
BRANCH 7 10
ATOM     10  CA  CYS E  70      11.555   1.670  27.270  1.00 18.45 LIG 0.18  C 
BRANCH 10 11
ATOM     11  C   CYS E  70      12.013   0.762  26.145  1.00 19.42 LIG 0.24  C 
ATOM     12  N   ASP E  71      13.028   1.222  25.393  1.00 17.61 LIG-0.34  N 
ATOM     13 H    ASP E  71      13.386   1.996  25.505  1.00 17.61 LIG 0.16  HD
ATOM     14 O    CYS E  70      11.422  -0.306  25.953  1.00 18.07 LIG-0.27  OA
BRANCH 12 15
ATOM     15  CA  ASP E  71      13.622   0.454  24.315  1.00 16.95 LIG 0.19  C 
BRANCH 15 16
ATOM     16  C   ASP E  71      12.517   0.316  23.311  1.00 18.90 LIG 0.24  C 
ATOM     17 O    ASP E  71      12.554  -0.618  22.472  1.00 16.52 LIG-0.27  OA
ATOM     18  N   SER E  72      11.554   1.237  23.366  1.00 19.80 LIG-0.34  N 
ATOM     19 H    SER E  72      11.560   1.913  23.897  1.00 19.80 LIG 0.16  HD
BRANCH 18 20
ATOM     20  CA  SER E  72      10.383   1.154  22.499  1.00 20.01 LIG 0.20  C 
BRANCH 20 21
ATOM     21  C   SER E  72       9.600  -0.110  22.661  1.00 24.22 LIG 0.29  C 
ATOM     22  N   NH2 E  73       8.742  -0.132  23.741  1.00 28.43 LIG-0.11  N 
ATOM     23 O    SER E  72       9.885  -1.107  22.036  1.00 27.83 LIG-0.27  OA
ENDBRANCH 20 21
BRANCH 20 24
ATOM     24  CB  SER E  72      10.795   1.301  21.053  1.00 25.59 LIG 0.20  C 
BRANCH 24 25
ATOM     25 OG   SER E  72      12.043   1.940  20.947  1.00 28.15 LIG-0.40  OA
ATOM     26 HG   SER E  72      12.591   1.424  20.572  1.00 28.15 LIG 0.21  HD
ENDBRANCH 24 25
ENDBRANCH 20 24
ENDBRANCH 18 20
ENDBRANCH 15 16
BRANCH 15 27
ATOM     27  CB  ASP E  71      14.135  -0.903  24.821  1.00 12.80 LIG 0.15  C 
BRANCH 27 28
ATOM     28  CG  ASP E  71      15.598  -1.097  24.529  1.00 14.21 LIG 0.17  C 
ATOM     29 OD2  ASP E  71      16.463  -0.725  25.336  1.00 15.44 LIG-0.65  OA
ATOM     30 OD1  ASP E  71      15.909  -1.615  23.447  1.00 16.80 LIG-0.65  OA
ENDBRANCH 27 28
ENDBRANCH 15 27
ENDBRANCH 12 15
ENDBRANCH 10 11
BRANCH 10 31
ATOM     31  CB  CYS E  70      11.335   0.883  28.591  1.00 19.19 LIG 0.10  C 
BRANCH 31 32
ATOM     32 SG   CYS E  70       9.644   0.818  29.227  1.00 25.14 LIG-0.18  SA
ATOM     33 HG   CYS E  70       9.667   0.825  30.427  1.00 25.14 LIG 0.10  HD
ENDBRANCH 31 32
ENDBRANCH 10 31
ENDBRANCH 7 10
ENDBRANCH 5 6
BRANCH 5 34
ATOM     34  CB  THR E  69       8.072   3.002  24.691  1.00 17.77 LIG 0.15  C 
ATOM     35  CG2 THR E  69       6.713   2.926  25.296  1.00 20.71 LIG 0.04  C 
BRANCH 34 36
ATOM     36 OG1  THR E  69       7.919   3.536  23.389  1.00 16.43 LIG-0.39  OA
ATOM     37 HG1  THR E  69       7.807   2.910  22.841  1.00 16.43 LIG 0.21  HD
ENDBRANCH 34 36
ENDBRANCH 5 34
ENDBRANCH 3 5
BRANCH 1 38
ATOM     38  CA  ALA E  68       8.667   7.557  24.528  1.00 20.08 LIG 0.17  C 
ATOM     39  CB  ALA E  68       8.863   7.199  23.074  1.00 20.16 LIG 0.04  C 
BRANCH 38 40
ATOM     40  N   ALA E  68       9.745   8.394  24.978  1.00 18.16 LIG-0.35  N 
ATOM     41 H    ALA E  68      10.513   8.210  24.638  1.00 18.16 LIG 0.16  HD
ATOM     42  C   TRP E  67       9.529   9.360  25.849  1.00 18.88 LIG 0.24  C 
ATOM     43 O    TRP E  67       8.435   9.592  26.388  1.00 21.47 LIG-0.27  OA
BRANCH 42 44
ATOM     44  CA  TRP E  67      10.745  10.122  26.235  1.00 17.18 LIG 0.18  C 
BRANCH 44 45
ATOM     45  N   TRP E  67      10.438  11.563  26.546  1.00 16.72 LIG-0.35  N 
ATOM     46  C   PRO E  66      11.356  12.539  26.615  1.00 16.87 LIG 0.24  C 
ATOM     47 O    PRO E  66      12.569  12.342  26.572  1.00 18.41 LIG-0.27  OA
ATOM     48 H    TRP E  67       9.601  11.708  26.679  1.00 16.72 LIG 0.16  HD
BRANCH 46 49
ATOM     49  CA  PRO E  66      10.857  13.992  26.803  1.00 17.04 LIG 0.18  C 
ATOM     50  CB  PRO E  66      12.020  14.980  26.996  1.00 18.40 LIG 0.04  C 
ATOM     51  CG  PRO E  66      12.042  15.327  28.456  1.00 18.41 LIG 0.02  C 
ATOM     52  CD  PRO E  66      10.623  15.192  28.932  1.00 21.21 LIG 0.13  C 
ATOM     53  N   PRO E  66      10.019  14.235  27.995  1.00 19.82 LIG-0.34  N 
ATOM     54  C   ACE E  65       8.770  13.674  28.037  1.00 17.72 LIG 0.22  C 
ATOM     55  CH3 ACE E  65       7.935  13.979  29.212  1.00 22.93 LIG 0.12  C 
ATOM     56 O    ACE E  65       8.345  12.920  27.194  1.00 18.13 LIG-0.27  OA
ENDBRANCH 46 49
ENDBRANCH 44 45
BRANCH 44 57
ATOM     57  CB  TRP E  67      11.484   9.445  27.419  1.00 18.36 LIG 0.07  C 
BRANCH 57 58
ATOM     58  CG  TRP E  67      11.261   8.024  27.522  1.00 19.51 LIG-0.03  A 
ATOM     59  CD1 TRP E  67      11.987   7.041  26.944  1.00 20.71 LIG 0.10  A 
ATOM     60  NE1 TRP E  67      11.478   5.821  27.280  1.00 21.73 LIG-0.36  N 
ATOM     61  CE2 TRP E  67      10.397   6.005  28.094  1.00 22.59 LIG 0.04  A 
ATOM     62 HE1  TRP E  67      11.787   5.061  27.021  1.00 21.73 LIG 0.17  HD
ATOM     63  CD2 TRP E  67      10.237   7.392  28.268  1.00 20.57 LIG-0.00  A 
ATOM     64  CZ2 TRP E  67       9.555   5.082  28.693  1.00 23.91 LIG 0.03  A 
ATOM     65  CE3 TRP E  67       9.197   7.858  29.071  1.00 19.56 LIG 0.01  A 
ATOM     66  CZ3 TRP E  67       8.373   6.958  29.658  1.00 20.82 LIG 0.00  A 
ATOM     67  CH2 TRP E  67       8.548   5.577  29.474  1.00 24.07 LIG 0.00  A 
ENDBRANCH 57 58
ENDBRANCH 44 57
ENDBRANCH 42 44
ENDBRANCH 38 40
ENDBRANCH 1 38
TORSDOF 23
ENDMDL
MODEL 58
USER: ADFR SOLUTION from run 84
USER: SCORE 17.449516 LL:  -4.681 LR: -14.266 RR:   0.000 FEB:  -7.406
USER: RMSD 4.159118
USER: SEED 83
USER: STATUS no improvement in best in 9 clusters for 5 generations
USER: GENES 25
USER: genes 0 Translation |==|  0.57435 0.59639 0.33704
USER: genes 1 Rotation |==|  0.34235 0.03835 0.60131 0.54198
USER: genes 2 Torsion [C]-N--CA-[C] |==|  0.16224
USER: genes 3 Torsion [N]-CA--C-[N] |==|  0.56390
USER: genes 4 Torsion [C]-N--CA-[C] |==|  0.56176
USER: genes 5 Torsion [N]-CA--C-[N] |==|  0.45629
USER: genes 6 Torsion [C]-N--CA-[C] |==|  0.74176
USER: genes 7 Torsion [N]-CA--C-[N] |==|  0.86126
USER: genes 8 Torsion [C]-N--CA-[CB] |==|  0.83195
USER: genes 9 Torsion [N]-CA--C-[N] |==|  0.36996
USER: genes 10 Torsion [N]-CA--CB-[OG] |==|  0.50308
USER: genes 11 Torsion [CA]-CB--OG-[HG] |==|  0.25983
USER: genes 12 Torsion [N]-CA--CB-[CG] |==|  0.72026
USER: genes 13 Torsion [CA]-CB--CG-[OD2] |==|  0.35298
USER: genes 14 Torsion [N]-CA--CB-[SG] |==|  0.85913
USER: genes 15 Torsion [CA]-CB--SG-[HG] |==|  0.88837
USER: genes 16 Torsion [N]-CA--CB-[OG1] |==|  0.93305
USER: genes 17 Torsion [CA]-CB--OG1-[HG1] |==|  0.24232
USER: genes 18 Torsion [N]-C--CA-[N] |==|  0.86513
USER: genes 19 Torsion [C]-CA--N-[C] |==|  0.82439
USER: genes 20 Torsion [N]-C--CA-[N] |==|  0.37782
USER: genes 21 Torsion [C]-CA--N-[C] |==|  0.86111
USER: genes 22 Torsion [N]-C--CA-[N] |==|  0.18242
USER: genes 23 Torsion [C]-CA--CB-[CG] |==|  0.56447
USER: genes 24 Torsion [CA]-CB--CG-[CD2] |==|  0.27274
ROOT
ATOM      1  C   ALA E  68       8.674   6.187  25.253  1.00 21.38 LIG 0.24  C 
ATOM      2 O    ALA E  68       7.562   6.073  25.781  1.00 23.30 LIG-0.27  OA
ATOM      3  N   THR E  69       9.620   5.245  25.319  1.00 18.30 LIG-0.34  N 
ATOM      4 H    THR E  69      10.429   5.353  25.046  1.00 18.30 LIG 0.16  HD
ENDROOT
BRANCH 3 5
ATOM      5  CA  THR E  69       9.340   3.923  25.876  1.00 19.45 LIG 0.20  C 
BRANCH 5 6
ATOM      6  C   THR E  69       8.203   3.211  25.120  1.00 19.66 LIG 0.24  C 
ATOM      7  N   CYS E  70       7.551   2.266  25.772  1.00 18.57 LIG-0.34  N 
ATOM      8 H    CYS E  70       7.682   2.073  26.600  1.00 18.57 LIG 0.16  HD
ATOM      9 O    THR E  69       7.940   3.497  23.969  1.00 20.15 LIG-0.27  OA
BRANCH 7 10
ATOM     10  CA  CYS E  70       6.533   1.460  25.119  1.00 18.45 LIG 0.18  C 
BRANCH 10 11
ATOM     11  C   CYS E  70       5.643   0.912  26.218  1.00 19.42 LIG 0.24  C 
ATOM     12  N   ASP E  71       4.458   0.416  25.823  1.00 17.61 LIG-0.34  N 
ATOM     13 H    ASP E  71       4.188   0.431  25.006  1.00 17.61 LIG 0.16  HD
ATOM     14 O    CYS E  70       6.020   0.984  27.393  1.00 18.07 LIG-0.27  OA
BRANCH 12 15
ATOM     15  CA  ASP E  71       3.514  -0.196  26.738  1.00 16.95 LIG 0.19  C 
BRANCH 15 16
ATOM     16  C   ASP E  71       3.846  -1.657  26.686  1.00 18.90 LIG 0.24  C 
ATOM     17 O    ASP E  71       4.035  -2.289  27.755  1.00 16.52 LIG-0.27  OA
ATOM     18  N   SER E  72       3.940  -2.195  25.469  1.00 19.80 LIG-0.34  N 
ATOM     19 H    SER E  72       3.874  -1.750  24.736  1.00 19.80 LIG 0.16  HD
BRANCH 18 20
ATOM     20  CA  SER E  72       4.170  -3.625  25.295  1.00 20.01 LIG 0.20  C 
BRANCH 20 21
ATOM     21  C   SER E  72       3.073  -4.484  25.841  1.00 24.22 LIG 0.29  C 
ATOM     22  N   NH2 E  73       2.644  -5.489  25.000  1.00 28.43 LIG-0.11  N 
ATOM     23 O    SER E  72       2.461  -4.160  26.834  1.00 27.83 LIG-0.27  OA
ENDBRANCH 20 21
BRANCH 20 24
ATOM     24  CB  SER E  72       5.479  -4.025  25.934  1.00 25.59 LIG 0.20  C 
BRANCH 24 25
ATOM     25 OG   SER E  72       5.729  -5.397  25.754  1.00 28.15 LIG-0.40  OA
ATOM     26 HG   SER E  72       6.200  -5.508  25.067  1.00 28.15 LIG 0.21  HD
ENDBRANCH 24 25
ENDBRANCH 20 24
ENDBRANCH 18 20
ENDBRANCH 15 16
BRANCH 15 27
ATOM     27  CB  ASP E  71       2.066   0.098  26.317  1.00 12.80 LIG 0.15  C 
BRANCH 27 28
ATOM     28  CG  ASP E  71       1.455   1.205  27.132  1.00 14.21 LIG 0.17  C 
ATOM     29 OD2  ASP E  71       0.929   2.184  26.582  1.00 15.44 LIG-0.65  OA
ATOM     30 OD1  ASP E  71       1.519   1.119  28.366  1.00 16.80 LIG-0.65  OA
ENDBRANCH 27 28
ENDBRANCH 15 27
ENDBRANCH 12 15
ENDBRANCH 10 11
BRANCH 10 31
ATOM     31  CB  CYS E  70       7.173   0.321  24.277  1.00 19.19 LIG 0.10  C 
BRANCH 31 32
ATOM     32 SG   CYS E  70       8.477   0.799  23.121  1.00 25.14 LIG-0.18  SA
ATOM     33 HG   CYS E  70       8.182   1.834  22.589  1.00 25.14 LIG 0.10  HD
ENDBRANCH 31 32
ENDBRANCH 10 31
ENDBRANCH 7 10
ENDBRANCH 5 6
BRANCH 5 34
ATOM     34  CB  THR E  69       9.049   4.028  27.384  1.00 17.77 LIG 0.15  C 
ATOM     35  CG2 THR E  69       9.632   2.859  28.100  1.00 20.71 LIG 0.04  C 
BRANCH 34 36
ATOM     36 OG1  THR E  69       9.640   5.191  27.936  1.00 16.43 LIG-0.39  OA
ATOM     37 HG1  THR E  69       9.112   5.839  27.854  1.00 16.43 LIG 0.21  HD
ENDBRANCH 34 36
ENDBRANCH 5 34
ENDBRANCH 3 5
BRANCH 1 38
ATOM     38  CA  ALA E  68       9.007   7.456  24.473  1.00 20.08 LIG 0.17  C 
ATOM     39  CB  ALA E  68       8.999   7.180  22.988  1.00 20.16 LIG 0.04  C 
BRANCH 38 40
ATOM     40  N   ALA E  68      10.287   7.974  24.871  1.00 18.16 LIG-0.35  N 
ATOM     41 H    ALA E  68      10.882   7.986  24.249  1.00 18.16 LIG 0.16  HD
ATOM     42  C   TRP E  67      10.491   8.391  26.105  1.00 18.88 LIG 0.24  C 
ATOM     43 O    TRP E  67       9.653   8.322  27.019  1.00 21.47 LIG-0.27  OA
BRANCH 42 44
ATOM     44  CA  TRP E  67      11.869   8.877  26.369  1.00 17.18 LIG 0.18  C 
BRANCH 44 45
ATOM     45  N   TRP E  67      11.879  10.157  27.163  1.00 16.72 LIG-0.35  N 
ATOM     46  C   PRO E  66      11.154  11.245  26.861  1.00 16.87 LIG 0.24  C 
ATOM     47 O    PRO E  66      10.508  11.370  25.822  1.00 18.41 LIG-0.27  OA
ATOM     48 H    TRP E  67      12.403  10.127  27.843  1.00 16.72 LIG 0.16  HD
BRANCH 46 49
ATOM     49  CA  PRO E  66      11.169  12.426  27.861  1.00 17.04 LIG 0.18  C 
ATOM     50  CB  PRO E  66      10.234  13.565  27.420  1.00 18.40 LIG 0.04  C 
ATOM     51  CG  PRO E  66      11.118  14.655  26.887  1.00 18.41 LIG 0.02  C 
ATOM     52  CD  PRO E  66      12.421  14.524  27.624  1.00 21.21 LIG 0.13  C 
ATOM     53  N   PRO E  66      12.466  13.112  28.027  1.00 19.82 LIG-0.34  N 
ATOM     54  C   ACE E  65      13.488  12.430  28.634  1.00 17.72 LIG 0.22  C 
ATOM     55  CH3 ACE E  65      14.754  13.157  28.837  1.00 22.93 LIG 0.12  C 
ATOM     56 O    ACE E  65      13.418  11.270  28.964  1.00 18.13 LIG-0.27  OA
ENDBRANCH 46 49
ENDBRANCH 44 45
BRANCH 44 57
ATOM     57  CB  TRP E  67      12.729   7.789  27.064  1.00 18.36 LIG 0.07  C 
BRANCH 57 58
ATOM     58  CG  TRP E  67      13.849   8.307  27.811  1.00 19.51 LIG-0.03  A 
ATOM     59  CD1 TRP E  67      15.050   8.685  27.321  1.00 20.71 LIG 0.10  A 
ATOM     60  NE1 TRP E  67      15.850   9.132  28.331  1.00 21.73 LIG-0.36  N 
ATOM     61  CE2 TRP E  67      15.162   9.047  29.507  1.00 22.59 LIG 0.04  A 
ATOM     62 HE1  TRP E  67      16.656   9.421  28.241  1.00 21.73 LIG 0.17  HD
ATOM     63  CD2 TRP E  67      13.888   8.530  29.208  1.00 20.57 LIG-0.00  A 
ATOM     64  CZ2 TRP E  67      15.542   9.381  30.797  1.00 23.91 LIG 0.03  A 
ATOM     65  CE3 TRP E  67      12.972   8.347  30.244  1.00 19.56 LIG 0.01  A 
ATOM     66  CZ3 TRP E  67      13.341   8.673  31.504  1.00 20.82 LIG 0.00  A 
ATOM     67  CH2 TRP E  67      14.616   9.190  31.785  1.00 24.07 LIG 0.00  A 
ENDBRANCH 57 58
ENDBRANCH 44 57
ENDBRANCH 42 44
ENDBRANCH 38 40
ENDBRANCH 1 38
TORSDOF 23
ENDMDL
MODEL 59
USER: ADFR SOLUTION from run 137
USER: SCORE 18.534990 LL:  -5.501 LR: -14.245 RR:   0.000 FEB:  -7.384
USER: RMSD 12.439517
USER: SEED 136
USER: STATUS no improvement in best in 3 clusters for 5 generations
USER: GENES 25
USER: genes 0 Translation |==|  0.64530 0.52101 0.36438
USER: genes 1 Rotation |==|  0.96933 0.34148 0.53700 0.55682
USER: genes 2 Torsion [C]-N--CA-[C] |==|  0.77536
USER: genes 3 Torsion [N]-CA--C-[N] |==|  0.31565
USER: genes 4 Torsion [C]-N--CA-[C] |==|  0.76181
USER: genes 5 Torsion [N]-CA--C-[N] |==|  0.19084
USER: genes 6 Torsion [C]-N--CA-[C] |==|  0.63889
USER: genes 7 Torsion [N]-CA--C-[N] |==|  0.98894
USER: genes 8 Torsion [C]-N--CA-[CB] |==|  0.83644
USER: genes 9 Torsion [N]-CA--C-[N] |==|  0.40142
USER: genes 10 Torsion [N]-CA--CB-[OG] |==|  0.89278
USER: genes 11 Torsion [CA]-CB--OG-[HG] |==|  0.17419
USER: genes 12 Torsion [N]-CA--CB-[CG] |==|  0.56847
USER: genes 13 Torsion [CA]-CB--CG-[OD2] |==|  0.52341
USER: genes 14 Torsion [N]-CA--CB-[SG] |==|  0.17239
USER: genes 15 Torsion [CA]-CB--SG-[HG] |==|  0.76792
USER: genes 16 Torsion [N]-CA--CB-[OG1] |==|  0.89288
USER: genes 17 Torsion [CA]-CB--OG1-[HG1] |==|  0.11335
USER: genes 18 Torsion [N]-C--CA-[N] |==|  0.28141
USER: genes 19 Torsion [C]-CA--N-[C] |==|  0.78880
USER: genes 20 Torsion [N]-C--CA-[N] |==|  0.95108
USER: genes 21 Torsion [C]-CA--N-[C] |==|  0.70591
USER: genes 22 Torsion [N]-C--CA-[N] |==|  0.94916
USER: genes 23 Torsion [C]-CA--CB-[CG] |==|  0.75982
USER: genes 24 Torsion [CA]-CB--CG-[CD2] |==|  0.67098
ROOT
ATOM      1  C   ALA E  68      10.110   4.039  25.663  1.00 21.38 LIG 0.24  C 
ATOM      2 O    ALA E  68      11.308   4.307  25.805  1.00 23.30 LIG-0.27  OA
ATOM      3  N   THR E  69       9.180   4.956  25.376  1.00 18.30 LIG-0.34  N 
ATOM      4 H    THR E  69       8.333   4.800  25.377  1.00 18.30 LIG 0.16  HD
ENDROOT
BRANCH 3 5
ATOM      5  CA  THR E  69       9.545   6.328  25.031  1.00 19.45 LIG 0.20  C 
BRANCH 5 6
ATOM      6  C   THR E  69       9.843   7.174  26.283  1.00 19.66 LIG 0.24  C 
ATOM      7  N   CYS E  70      11.087   7.587  26.443  1.00 18.57 LIG-0.34  N 
ATOM      8 H    CYS E  70      11.713   7.465  25.867  1.00 18.57 LIG 0.16  HD
ATOM      9 O    THR E  69       8.972   7.425  27.092  1.00 20.15 LIG-0.27  OA
BRANCH 7 10
ATOM     10  CA  CYS E  70      11.499   8.300  27.641  1.00 18.45 LIG 0.18  C 
BRANCH 10 11
ATOM     11  C   CYS E  70      11.185   9.765  27.402  1.00 19.42 LIG 0.24  C 
ATOM     12  N   ASP E  71       9.881  10.086  27.353  1.00 17.61 LIG-0.34  N 
ATOM     13 H    ASP E  71       9.249   9.507  27.416  1.00 17.61 LIG 0.16  HD
ATOM     14 O    CYS E  70      12.114  10.561  27.230  1.00 18.07 LIG-0.27  OA
BRANCH 12 15
ATOM     15  CA  ASP E  71       9.410  11.448  27.190  1.00 16.95 LIG 0.19  C 
BRANCH 15 16
ATOM     16  C   ASP E  71       8.398  11.621  28.282  1.00 18.90 LIG 0.24  C 
ATOM     17 O    ASP E  71       7.870  12.746  28.466  1.00 16.52 LIG-0.27  OA
ATOM     18  N   SER E  72       8.136  10.540  29.018  1.00 19.80 LIG-0.34  N 
ATOM     19 H    SER E  72       8.544   9.787  28.934  1.00 19.80 LIG 0.16  HD
BRANCH 18 20
ATOM     20  CA  SER E  72       7.105  10.563  30.050  1.00 20.01 LIG 0.20  C 
BRANCH 20 21
ATOM     21  C   SER E  72       5.724  10.782  29.519  1.00 24.22 LIG 0.29  C 
ATOM     22  N   NH2 E  73       4.727  10.103  30.187  1.00 28.43 LIG-0.11  N 
ATOM     23 O    SER E  72       5.544  11.315  28.447  1.00 27.83 LIG-0.27  OA
ENDBRANCH 20 21
BRANCH 20 24
ATOM     24  CB  SER E  72       7.418  11.628  31.074  1.00 25.59 LIG 0.20  C 
BRANCH 24 25
ATOM     25 OG   SER E  72       8.798  11.686  31.336  1.00 28.15 LIG-0.40  OA
ATOM     26 HG   SER E  72       9.208  11.901  30.635  1.00 28.15 LIG 0.21  HD
ENDBRANCH 24 25
ENDBRANCH 20 24
ENDBRANCH 18 20
ENDBRANCH 15 16
BRANCH 15 27
ATOM     27  CB  ASP E  71       8.813  11.662  25.790  1.00 12.80 LIG 0.15  C 
BRANCH 27 28
ATOM     28  CG  ASP E  71       8.867  13.106  25.369  1.00 14.21 LIG 0.17  C 
ATOM     29 OD2  ASP E  71       8.293  13.490  24.339  1.00 15.44 LIG-0.65  OA
ATOM     30 OD1  ASP E  71       9.524  13.889  26.068  1.00 16.80 LIG-0.65  OA
ENDBRANCH 27 28
ENDBRANCH 15 27
ENDBRANCH 12 15
ENDBRANCH 10 11
BRANCH 10 31
ATOM     31  CB  CYS E  70      13.008   8.076  27.936  1.00 19.19 LIG 0.10  C 
BRANCH 31 32
ATOM     32 SG   CYS E  70      14.177   8.661  26.687  1.00 25.14 LIG-0.18  SA
ATOM     33 HG   CYS E  70      14.291   7.832  25.826  1.00 25.14 LIG 0.10  HD
ENDBRANCH 31 32
ENDBRANCH 10 31
ENDBRANCH 7 10
ENDBRANCH 5 6
BRANCH 5 34
ATOM     34  CB  THR E  69       8.454   6.967  24.152  1.00 17.77 LIG 0.15  C 
ATOM     35  CG2 THR E  69       9.029   8.090  23.360  1.00 20.71 LIG 0.04  C 
BRANCH 34 36
ATOM     36 OG1  THR E  69       7.932   6.030  23.228  1.00 16.43 LIG-0.39  OA
ATOM     37 HG1  THR E  69       7.839   5.286  23.606  1.00 16.43 LIG 0.21  HD
ENDBRANCH 34 36
ENDBRANCH 5 34
ENDBRANCH 3 5
BRANCH 1 38
ATOM     38  CA  ALA E  68       9.642   2.594  25.810  1.00 20.08 LIG 0.17  C 
ATOM     39  CB  ALA E  68      10.295   1.946  27.007  1.00 20.16 LIG 0.04  C 
BRANCH 38 40
ATOM     40  N   ALA E  68       9.937   1.842  24.622  1.00 18.16 LIG-0.35  N 
ATOM     41 H    ALA E  68      10.609   1.309  24.687  1.00 18.16 LIG 0.16  HD
ATOM     42  C   TRP E  67       9.205   1.987  23.534  1.00 18.88 LIG 0.24  C 
ATOM     43 O    TRP E  67       8.271   2.796  23.416  1.00 21.47 LIG-0.27  OA
BRANCH 42 44
ATOM     44  CA  TRP E  67       9.647   1.159  22.382  1.00 17.18 LIG 0.18  C 
BRANCH 44 45
ATOM     45  N   TRP E  67      11.058   0.659  22.550  1.00 16.72 LIG-0.35  N 
ATOM     46  C   PRO E  66      12.120   1.137  21.882  1.00 16.87 LIG 0.24  C 
ATOM     47 O    PRO E  66      12.039   1.940  20.955  1.00 18.41 LIG-0.27  OA
ATOM     48 H    TRP E  67      11.124   0.024  23.125  1.00 16.72 LIG 0.16  HD
BRANCH 46 49
ATOM     49  CA  PRO E  66      13.521   0.611  22.277  1.00 17.04 LIG 0.18  C 
ATOM     50  CB  PRO E  66      14.011  -0.491  21.323  1.00 18.40 LIG 0.04  C 
ATOM     51  CG  PRO E  66      13.864  -1.789  22.063  1.00 18.41 LIG 0.02  C 
ATOM     52  CD  PRO E  66      14.011  -1.449  23.520  1.00 21.21 LIG 0.13  C 
ATOM     53  N   PRO E  66      13.616  -0.036  23.601  1.00 19.82 LIG-0.34  N 
ATOM     54  C   ACE E  65      13.463   0.744  24.717  1.00 17.72 LIG 0.22  C 
ATOM     55  CH3 ACE E  65      13.618   0.083  26.025  1.00 22.93 LIG 0.12  C 
ATOM     56 O    ACE E  65      13.169   1.916  24.682  1.00 18.13 LIG-0.27  OA
ENDBRANCH 46 49
ENDBRANCH 44 45
BRANCH 44 57
ATOM     57  CB  TRP E  67       8.670  -0.017  22.123  1.00 18.36 LIG 0.07  C 
BRANCH 57 58
ATOM     58  CG  TRP E  67       8.949  -1.201  22.900  1.00 19.51 LIG-0.03  A 
ATOM     59  CD1 TRP E  67       8.926  -1.315  24.246  1.00 20.71 LIG 0.10  A 
ATOM     60  NE1 TRP E  67       9.234  -2.592  24.614  1.00 21.73 LIG-0.36  N 
ATOM     61  CE2 TRP E  67       9.464  -3.330  23.489  1.00 22.59 LIG 0.04  A 
ATOM     62 HE1  TRP E  67       9.276  -2.883  25.423  1.00 21.73 LIG 0.17  HD
ATOM     63  CD2 TRP E  67       9.288  -2.475  22.386  1.00 20.57 LIG-0.00  A 
ATOM     64  CZ2 TRP E  67       9.805  -4.665  23.344  1.00 23.91 LIG 0.03  A 
ATOM     65  CE3 TRP E  67       9.460  -2.986  21.100  1.00 19.56 LIG 0.01  A 
ATOM     66  CZ3 TRP E  67       9.792  -4.290  20.955  1.00 20.82 LIG 0.00  A 
ATOM     67  CH2 TRP E  67       9.963  -5.130  22.068  1.00 24.07 LIG 0.00  A 
ENDBRANCH 57 58
ENDBRANCH 44 57
ENDBRANCH 42 44
ENDBRANCH 38 40
ENDBRANCH 1 38
TORSDOF 23
ENDMDL
MODEL 60
USER: ADFR SOLUTION from run 33
USER: SCORE 18.733621 LL:  -5.356 LR: -14.226 RR:   0.000 FEB:  -7.365
USER: RMSD 3.493946
USER: SEED 32
USER: STATUS searching
USER: GENES 25
USER: genes 0 Translation |==|  0.55177 0.58226 0.28816
USER: genes 1 Rotation |==|  0.48841 0.83708 0.52580 0.86820
USER: genes 2 Torsion [C]-N--CA-[C] |==|  0.84615
USER: genes 3 Torsion [N]-CA--C-[N] |==|  0.39233
USER: genes 4 Torsion [C]-N--CA-[C] |==|  0.72564
USER: genes 5 Torsion [N]-CA--C-[N] |==|  0.30916
USER: genes 6 Torsion [C]-N--CA-[C] |==|  0.75000
USER: genes 7 Torsion [N]-CA--C-[N] |==|  0.48044
USER: genes 8 Torsion [C]-N--CA-[CB] |==|  0.18173
USER: genes 9 Torsion [N]-CA--C-[N] |==|  0.09185
USER: genes 10 Torsion [N]-CA--CB-[OG] |==|  0.54912
USER: genes 11 Torsion [CA]-CB--OG-[HG] |==|  0.40390
USER: genes 12 Torsion [N]-CA--CB-[CG] |==|  0.14589
USER: genes 13 Torsion [CA]-CB--CG-[OD2] |==|  0.05128
USER: genes 14 Torsion [N]-CA--CB-[SG] |==|  0.92160
USER: genes 15 Torsion [CA]-CB--SG-[HG] |==|  0.73298
USER: genes 16 Torsion [N]-CA--CB-[OG1] |==|  0.97725
USER: genes 17 Torsion [CA]-CB--OG1-[HG1] |==|  0.58249
USER: genes 18 Torsion [N]-C--CA-[N] |==|  0.07870
USER: genes 19 Torsion [C]-CA--N-[C] |==|  0.15605
USER: genes 20 Torsion [N]-C--CA-[N] |==|  0.98346
USER: genes 21 Torsion [C]-CA--N-[C] |==|  0.71755
USER: genes 22 Torsion [N]-C--CA-[N] |==|  0.14742
USER: genes 23 Torsion [C]-CA--CB-[CG] |==|  0.59319
USER: genes 24 Torsion [CA]-CB--CG-[CD2] |==|  0.85787
ROOT
ATOM      1  C   ALA E  68       8.216   5.784  24.519  1.00 21.38 LIG 0.24  C 
ATOM      2 O    ALA E  68       8.259   4.897  23.660  1.00 23.30 LIG-0.27  OA
ATOM      3  N   THR E  69       8.098   5.537  25.828  1.00 18.30 LIG-0.34  N 
ATOM      4 H    THR E  69       7.963   6.143  26.424  1.00 18.30 LIG 0.16  HD
ENDROOT
BRANCH 3 5
ATOM      5  CA  THR E  69       8.192   4.178  26.357  1.00 19.45 LIG 0.20  C 
BRANCH 5 6
ATOM      6  C   THR E  69       7.183   3.229  25.683  1.00 19.66 LIG 0.24  C 
ATOM      7  N   CYS E  70       7.597   2.002  25.425  1.00 18.57 LIG-0.34  N 
ATOM      8 H    CYS E  70       8.362   1.690  25.664  1.00 18.57 LIG 0.16  HD
ATOM      9 O    THR E  69       6.068   3.609  25.385  1.00 20.15 LIG-0.27  OA
BRANCH 7 10
ATOM     10  CA  CYS E  70       6.763   1.060  24.696  1.00 18.45 LIG 0.18  C 
BRANCH 10 11
ATOM     11  C   CYS E  70       6.103   0.173  25.735  1.00 19.42 LIG 0.24  C 
ATOM     12  N   ASP E  71       4.775   0.326  25.881  1.00 17.61 LIG-0.34  N 
ATOM     13 H    ASP E  71       4.317   0.910  25.447  1.00 17.61 LIG 0.16  HD
ATOM     14 O    CYS E  70       6.801  -0.595  26.404  1.00 18.07 LIG-0.27  OA
BRANCH 12 15
ATOM     15  CA  ASP E  71       3.984  -0.481  26.788  1.00 16.95 LIG 0.19  C 
BRANCH 15 16
ATOM     16  C   ASP E  71       3.554  -1.653  25.957  1.00 18.90 LIG 0.24  C 
ATOM     17 O    ASP E  71       3.780  -1.654  24.722  1.00 16.52 LIG-0.27  OA
ATOM     18  N   SER E  72       2.924  -2.634  26.606  1.00 19.80 LIG-0.34  N 
ATOM     19 H    SER E  72       2.712  -2.605  27.439  1.00 19.80 LIG 0.16  HD
BRANCH 18 20
ATOM     20  CA  SER E  72       2.538  -3.863  25.920  1.00 20.01 LIG 0.20  C 
BRANCH 20 21
ATOM     21  C   SER E  72       1.670  -4.764  26.739  1.00 24.22 LIG 0.29  C 
ATOM     22  N   NH2 E  73       0.810  -4.120  27.604  1.00 28.43 LIG-0.11  N 
ATOM     23 O    SER E  72       1.888  -5.953  26.803  1.00 27.83 LIG-0.27  OA
ENDBRANCH 20 21
BRANCH 20 24
ATOM     24  CB  SER E  72       3.768  -4.622  25.481  1.00 25.59 LIG 0.20  C 
BRANCH 24 25
ATOM     25 OG   SER E  72       3.448  -5.572  24.494  1.00 28.15 LIG-0.40  OA
ATOM     26 HG   SER E  72       4.086  -5.636  23.950  1.00 28.15 LIG 0.21  HD
ENDBRANCH 24 25
ENDBRANCH 20 24
ENDBRANCH 18 20
ENDBRANCH 15 16
BRANCH 15 27
ATOM     27  CB  ASP E  71       2.794   0.317  27.344  1.00 12.80 LIG 0.15  C 
BRANCH 27 28
ATOM     28  CG  ASP E  71       1.976   0.947  26.250  1.00 14.21 LIG 0.17  C 
ATOM     29 OD2  ASP E  71       2.058   0.542  25.081  1.00 15.44 LIG-0.65  OA
ATOM     30 OD1  ASP E  71       1.241   1.897  26.551  1.00 16.80 LIG-0.65  OA
ENDBRANCH 27 28
ENDBRANCH 15 27
ENDBRANCH 12 15
ENDBRANCH 10 11
BRANCH 10 31
ATOM     31  CB  CYS E  70       7.603   0.233  23.684  1.00 19.19 LIG 0.10  C 
BRANCH 31 32
ATOM     32 SG   CYS E  70       9.089   1.022  23.023  1.00 25.14 LIG-0.18  SA
ATOM     33 HG   CYS E  70       8.837   1.524  21.961  1.00 25.14 LIG 0.10  HD
ENDBRANCH 31 32
ENDBRANCH 10 31
ENDBRANCH 7 10
ENDBRANCH 5 6
BRANCH 5 34
ATOM     34  CB  THR E  69       8.037   4.187  27.889  1.00 17.77 LIG 0.15  C 
ATOM     35  CG2 THR E  69       9.185   3.481  28.523  1.00 20.71 LIG 0.04  C 
BRANCH 34 36
ATOM     36 OG1  THR E  69       8.033   5.511  28.391  1.00 16.43 LIG-0.39  OA
ATOM     37 HG1  THR E  69       8.348   5.516  29.169  1.00 16.43 LIG 0.21  HD
ENDBRANCH 34 36
ENDBRANCH 5 34
ENDBRANCH 3 5
BRANCH 1 38
ATOM     38  CA  ALA E  68       8.307   7.247  24.093  1.00 20.08 LIG 0.17  C 
ATOM     39  CB  ALA E  68       9.117   7.378  22.825  1.00 20.16 LIG 0.04  C 
BRANCH 38 40
ATOM     40  N   ALA E  68       8.891   8.044  25.135  1.00 18.16 LIG-0.35  N 
ATOM     41 H    ALA E  68       8.410   8.708  25.396  1.00 18.16 LIG 0.16  HD
ATOM     42  C   TRP E  67      10.078   7.746  25.627  1.00 18.88 LIG 0.24  C 
ATOM     43 O    TRP E  67      10.801   6.826  25.213  1.00 21.47 LIG-0.27  OA
BRANCH 42 44
ATOM     44  CA  TRP E  67      10.556   8.676  26.682  1.00 17.18 LIG 0.18  C 
BRANCH 44 45
ATOM     45  N   TRP E  67       9.634   9.853  26.864  1.00 16.72 LIG-0.35  N 
ATOM     46  C   PRO E  66       9.862  11.081  26.374  1.00 16.87 LIG 0.24  C 
ATOM     47 O    PRO E  66      10.917  11.421  25.842  1.00 18.41 LIG-0.27  OA
ATOM     48 H    TRP E  67       8.931   9.662  27.321  1.00 16.72 LIG 0.16  HD
BRANCH 46 49
ATOM     49  CA  PRO E  66       8.744  12.142  26.528  1.00 17.04 LIG 0.18  C 
ATOM     50  CB  PRO E  66       9.228  13.548  26.136  1.00 18.40 LIG 0.04  C 
ATOM     51  CG  PRO E  66       9.430  14.299  27.420  1.00 18.41 LIG 0.02  C 
ATOM     52  CD  PRO E  66       8.460  13.703  28.401  1.00 21.21 LIG 0.13  C 
ATOM     53  N   PRO E  66       8.231  12.341  27.898  1.00 19.82 LIG-0.34  N 
ATOM     54  C   ACE E  65       7.514  11.328  28.477  1.00 17.72 LIG 0.22  C 
ATOM     55  CH3 ACE E  65       6.967  11.575  29.823  1.00 22.93 LIG 0.12  C 
ATOM     56 O    ACE E  65       7.349  10.245  27.967  1.00 18.13 LIG-0.27  OA
ENDBRANCH 46 49
ENDBRANCH 44 45
BRANCH 44 57
ATOM     57  CB  TRP E  67      10.782   7.937  28.027  1.00 18.36 LIG 0.07  C 
BRANCH 57 58
ATOM     58  CG  TRP E  67      10.498   8.734  29.195  1.00 19.51 LIG-0.03  A 
ATOM     59  CD1 TRP E  67       9.719   8.390  30.245  1.00 20.71 LIG 0.10  A 
ATOM     60  NE1 TRP E  67       9.697   9.398  31.164  1.00 21.73 LIG-0.36  N 
ATOM     61  CE2 TRP E  67      10.476  10.424  30.709  1.00 22.59 LIG 0.04  A 
ATOM     62 HE1  TRP E  67       9.264   9.389  31.907  1.00 21.73 LIG 0.17  HD
ATOM     63  CD2 TRP E  67      10.999  10.030  29.464  1.00 20.57 LIG-0.00  A 
ATOM     64  CZ2 TRP E  67      10.768  11.652  31.280  1.00 23.91 LIG 0.03  A 
ATOM     65  CE3 TRP E  67      11.843  10.903  28.778  1.00 19.56 LIG 0.01  A 
ATOM     66  CZ3 TRP E  67      12.130  12.103  29.333  1.00 20.82 LIG 0.00  A 
ATOM     67  CH2 TRP E  67      11.600  12.480  30.578  1.00 24.07 LIG 0.00  A 
ENDBRANCH 57 58
ENDBRANCH 44 57
ENDBRANCH 42 44
ENDBRANCH 38 40
ENDBRANCH 1 38
TORSDOF 23
ENDMDL
MODEL 61
USER: ADFR SOLUTION from run 130
USER: SCORE 18.790395 LL:  -6.275 LR: -14.219 RR:   0.000 FEB:  -7.359
USER: RMSD 11.829940
USER: SEED 129
USER: STATUS searching
USER: GENES 25
USER: genes 0 Translation |==|  0.59180 0.53850 0.39051
USER: genes 1 Rotation |==|  0.90984 0.22851 0.52867 0.58659
USER: genes 2 Torsion [C]-N--CA-[C] |==|  0.78307
USER: genes 3 Torsion [N]-CA--C-[N] |==|  0.43973
USER: genes 4 Torsion [C]-N--CA-[C] |==|  0.83590
USER: genes 5 Torsion [N]-CA--C-[N] |==|  0.88017
USER: genes 6 Torsion [C]-N--CA-[C] |==|  0.75780
USER: genes 7 Torsion [N]-CA--C-[N] |==|  0.25359
USER: genes 8 Torsion [C]-N--CA-[CB] |==|  0.84441
USER: genes 9 Torsion [N]-CA--C-[N] |==|  0.34398
USER: genes 10 Torsion [N]-CA--CB-[OG] |==|  0.90255
USER: genes 11 Torsion [CA]-CB--OG-[HG] |==|  0.20829
USER: genes 12 Torsion [N]-CA--CB-[CG] |==|  0.57794
USER: genes 13 Torsion [CA]-CB--CG-[OD2] |==|  0.81731
USER: genes 14 Torsion [N]-CA--CB-[SG] |==|  0.53002
USER: genes 15 Torsion [CA]-CB--SG-[HG] |==|  0.57773
USER: genes 16 Torsion [N]-CA--CB-[OG1] |==|  0.69340
USER: genes 17 Torsion [CA]-CB--OG1-[HG1] |==|  0.69225
USER: genes 18 Torsion [N]-C--CA-[N] |==|  0.31927
USER: genes 19 Torsion [C]-CA--N-[C] |==|  0.82607
USER: genes 20 Torsion [N]-C--CA-[N] |==|  0.70532
USER: genes 21 Torsion [C]-CA--N-[C] |==|  0.10564
USER: genes 22 Torsion [N]-C--CA-[N] |==|  0.67058
USER: genes 23 Torsion [C]-CA--CB-[CG] |==|  0.70114
USER: genes 24 Torsion [CA]-CB--CG-[CD2] |==|  0.75565
ROOT
ATOM      1  C   ALA E  68       9.027   4.537  26.055  1.00 21.38 LIG 0.24  C 
ATOM      2 O    ALA E  68      10.204   4.190  26.201  1.00 23.30 LIG-0.27  OA
ATOM      3  N   THR E  69       8.665   5.764  25.663  1.00 18.30 LIG-0.34  N 
ATOM      4 H    THR E  69       7.853   6.048  25.658  1.00 18.30 LIG 0.16  HD
ENDROOT
BRANCH 3 5
ATOM      5  CA  THR E  69       9.652   6.738  25.202  1.00 19.45 LIG 0.20  C 
BRANCH 5 6
ATOM      6  C   THR E  69      10.408   7.387  26.377  1.00 19.66 LIG 0.24  C 
ATOM      7  N   CYS E  70      11.584   7.925  26.107  1.00 18.57 LIG-0.34  N 
ATOM      8 H    CYS E  70      11.915   7.987  25.316  1.00 18.57 LIG 0.16  HD
ATOM      9 O    THR E  69       9.948   7.378  27.501  1.00 20.15 LIG-0.27  OA
BRANCH 7 10
ATOM     10  CA  CYS E  70      12.427   8.468  27.159  1.00 18.45 LIG 0.18  C 
BRANCH 10 11
ATOM     11  C   CYS E  70      11.621   9.557  27.841  1.00 19.42 LIG 0.24  C 
ATOM     12  N   ASP E  71      10.938  10.381  27.027  1.00 17.61 LIG-0.34  N 
ATOM     13 H    ASP E  71      10.971  10.332  26.169  1.00 17.61 LIG 0.16  HD
ATOM     14 O    CYS E  70      11.662   9.657  29.072  1.00 18.07 LIG-0.27  OA
BRANCH 12 15
ATOM     15  CA  ASP E  71      10.076  11.438  27.518  1.00 16.95 LIG 0.19  C 
BRANCH 15 16
ATOM     16  C   ASP E  71       8.750  10.767  27.719  1.00 18.90 LIG 0.24  C 
ATOM     17 O    ASP E  71       7.922  10.733  26.775  1.00 16.52 LIG-0.27  OA
ATOM     18  N   SER E  72       8.528  10.256  28.931  1.00 19.80 LIG-0.34  N 
ATOM     19 H    SER E  72       9.067  10.335  29.596  1.00 19.80 LIG 0.16  HD
BRANCH 18 20
ATOM     20  CA  SER E  72       7.312   9.502  29.218  1.00 20.01 LIG 0.20  C 
BRANCH 20 21
ATOM     21  C   SER E  72       7.223   8.198  28.490  1.00 24.22 LIG 0.29  C 
ATOM     22  N   NH2 E  73       7.053   7.091  29.295  1.00 28.43 LIG-0.11  N 
ATOM     23 O    SER E  72       7.523   8.114  27.321  1.00 27.83 LIG-0.27  OA
ENDBRANCH 20 21
BRANCH 20 24
ATOM     24  CB  SER E  72       6.094  10.335  28.894  1.00 25.59 LIG 0.20  C 
BRANCH 24 25
ATOM     25 OG   SER E  72       6.322  11.693  29.180  1.00 28.15 LIG-0.40  OA
ATOM     26 HG   SER E  72       6.819  12.025  28.589  1.00 28.15 LIG 0.21  HD
ENDBRANCH 24 25
ENDBRANCH 20 24
ENDBRANCH 18 20
ENDBRANCH 15 16
BRANCH 15 27
ATOM     27  CB  ASP E  71      10.003  12.602  26.518  1.00 12.80 LIG 0.15  C 
BRANCH 27 28
ATOM     28  CG  ASP E  71       9.728  13.916  27.199  1.00 14.21 LIG 0.17  C 
ATOM     29 OD2  ASP E  71       8.648  14.121  27.772  1.00 15.44 LIG-0.65  OA
ATOM     30 OD1  ASP E  71      10.604  14.790  27.145  1.00 16.80 LIG-0.65  OA
ENDBRANCH 27 28
ENDBRANCH 15 27
ENDBRANCH 12 15
ENDBRANCH 10 11
BRANCH 10 31
ATOM     31  CB  CYS E  70      13.761   9.016  26.582  1.00 19.19 LIG 0.10  C 
BRANCH 31 32
ATOM     32 SG   CYS E  70      15.046   9.450  27.778  1.00 25.14 LIG-0.18  SA
ATOM     33 HG   CYS E  70      15.743  10.315  27.322  1.00 25.14 LIG 0.10  HD
ENDBRANCH 31 32
ENDBRANCH 10 31
ENDBRANCH 7 10
ENDBRANCH 5 6
BRANCH 5 34
ATOM     34  CB  THR E  69       8.985   7.789  24.298  1.00 17.77 LIG 0.15  C 
ATOM     35  CG2 THR E  69       9.378   9.159  24.731  1.00 20.71 LIG 0.04  C 
BRANCH 34 36
ATOM     36 OG1  THR E  69       9.403   7.642  22.953  1.00 16.43 LIG-0.39  OA
ATOM     37 HG1  THR E  69       9.887   8.294  22.737  1.00 16.43 LIG 0.21  HD
ENDBRANCH 34 36
ENDBRANCH 5 34
ENDBRANCH 3 5
BRANCH 1 38
ATOM     38  CA  ALA E  68       7.909   3.533  26.322  1.00 20.08 LIG 0.17  C 
ATOM     39  CB  ALA E  68       8.003   3.002  27.732  1.00 20.16 LIG 0.04  C 
BRANCH 38 40
ATOM     40  N   ALA E  68       7.967   2.448  25.382  1.00 18.16 LIG-0.35  N 
ATOM     41 H    ALA E  68       8.111   1.675  25.731  1.00 18.16 LIG 0.16  HD
ATOM     42  C   TRP E  67       7.805   2.664  24.092  1.00 18.88 LIG 0.24  C 
ATOM     43 O    TRP E  67       7.654   3.785  23.579  1.00 21.47 LIG-0.27  OA
BRANCH 42 44
ATOM     44  CA  TRP E  67       7.914   1.448  23.247  1.00 17.18 LIG 0.18  C 
BRANCH 44 45
ATOM     45  N   TRP E  67       9.208   1.405  22.477  1.00 16.72 LIG-0.35  N 
ATOM     46  C   PRO E  66      10.393   1.811  22.957  1.00 16.87 LIG 0.24  C 
ATOM     47 O    PRO E  66      10.532   2.396  24.030  1.00 18.41 LIG-0.27  OA
ATOM     48 H    TRP E  67       9.117   1.089  21.683  1.00 16.72 LIG 0.16  HD
BRANCH 46 49
ATOM     49  CA  PRO E  66      11.650   1.565  22.088  1.00 17.04 LIG 0.18  C 
ATOM     50  CB  PRO E  66      11.309   0.840  20.776  1.00 18.40 LIG 0.04  C 
ATOM     51  CG  PRO E  66      11.761  -0.581  20.947  1.00 18.41 LIG 0.02  C 
ATOM     52  CD  PRO E  66      12.915  -0.532  21.909  1.00 21.21 LIG 0.13  C 
ATOM     53  N   PRO E  66      12.684   0.695  22.684  1.00 19.82 LIG-0.34  N 
ATOM     54  C   ACE E  65      13.379   1.161  23.769  1.00 17.72 LIG 0.22  C 
ATOM     55  CH3 ACE E  65      14.443   0.296  24.308  1.00 22.93 LIG 0.12  C 
ATOM     56 O    ACE E  65      13.138   2.208  24.322  1.00 18.13 LIG-0.27  OA
ENDBRANCH 46 49
ENDBRANCH 44 45
BRANCH 44 57
ATOM     57  CB  TRP E  67       7.727   0.157  24.086  1.00 18.36 LIG 0.07  C 
BRANCH 57 58
ATOM     58  CG  TRP E  67       8.940  -0.595  24.296  1.00 19.51 LIG-0.03  A 
ATOM     59  CD1 TRP E  67       9.789  -0.495  25.343  1.00 20.71 LIG 0.10  A 
ATOM     60  NE1 TRP E  67      10.821  -1.375  25.196  1.00 21.73 LIG-0.36  N 
ATOM     61  CE2 TRP E  67      10.647  -2.066  24.031  1.00 22.59 LIG 0.04  A 
ATOM     62 HE1  TRP E  67      11.473  -1.478  25.747  1.00 21.73 LIG 0.17  HD
ATOM     63  CD2 TRP E  67       9.461  -1.594  23.440  1.00 20.57 LIG-0.00  A 
ATOM     64  CZ2 TRP E  67      11.419  -3.059  23.451  1.00 23.91 LIG 0.03  A 
ATOM     65  CE3 TRP E  67       9.043  -2.144  22.228  1.00 19.56 LIG 0.01  A 
ATOM     66  CZ3 TRP E  67       9.795  -3.115  21.660  1.00 20.82 LIG 0.00  A 
ATOM     67  CH2 TRP E  67      10.977  -3.575  22.264  1.00 24.07 LIG 0.00  A 
ENDBRANCH 57 58
ENDBRANCH 44 57
ENDBRANCH 42 44
ENDBRANCH 38 40
ENDBRANCH 1 38
TORSDOF 23
ENDMDL
MODEL 62
USER: ADFR SOLUTION from run 23
USER: SCORE 18.364379 LL:  -6.116 LR: -14.158 RR:   0.000 FEB:  -7.297
USER: RMSD 6.061739
USER: SEED 22
USER: STATUS no improvement in best in 2 clusters for 5 generations
USER: GENES 25
USER: genes 0 Translation |==|  0.61031 0.49517 0.28405
USER: genes 1 Rotation |==|  0.69654 0.91417 0.69953 0.50511
USER: genes 2 Torsion [C]-N--CA-[C] |==|  0.76666
USER: genes 3 Torsion [N]-CA--C-[N] |==|  0.99273
USER: genes 4 Torsion [C]-N--CA-[C] |==|  0.20483
USER: genes 5 Torsion [N]-CA--C-[N] |==|  0.76063
USER: genes 6 Torsion [C]-N--CA-[C] |==|  0.80251
USER: genes 7 Torsion [N]-CA--C-[N] |==|  0.91344
USER: genes 8 Torsion [C]-N--CA-[CB] |==|  0.79908
USER: genes 9 Torsion [N]-CA--C-[N] |==|  0.49579
USER: genes 10 Torsion [N]-CA--CB-[OG] |==|  0.71332
USER: genes 11 Torsion [CA]-CB--OG-[HG] |==|  0.94317
USER: genes 12 Torsion [N]-CA--CB-[CG] |==|  0.26130
USER: genes 13 Torsion [CA]-CB--CG-[OD2] |==|  0.75217
USER: genes 14 Torsion [N]-CA--CB-[SG] |==|  0.72581
USER: genes 15 Torsion [CA]-CB--SG-[HG] |==|  0.41516
USER: genes 16 Torsion [N]-CA--CB-[OG1] |==|  0.92627
USER: genes 17 Torsion [CA]-CB--OG1-[HG1] |==|  0.57565
USER: genes 18 Torsion [N]-C--CA-[N] |==|  0.41688
USER: genes 19 Torsion [C]-CA--N-[C] |==|  0.51667
USER: genes 20 Torsion [N]-C--CA-[N] |==|  0.33513
USER: genes 21 Torsion [C]-CA--N-[C] |==|  0.83495
USER: genes 22 Torsion [N]-C--CA-[N] |==|  0.99999
USER: genes 23 Torsion [C]-CA--CB-[CG] |==|  0.71786
USER: genes 24 Torsion [CA]-CB--CG-[CD2] |==|  0.72116
ROOT
ATOM      1  C   ALA E  68       9.402   3.302  24.458  1.00 21.38 LIG 0.24  C 
ATOM      2 O    ALA E  68       8.204   3.418  24.174  1.00 23.30 LIG-0.27  OA
ATOM      3  N   THR E  69      10.188   2.343  23.957  1.00 18.30 LIG-0.34  N 
ATOM      4 H    THR E  69      10.991   2.189  24.224  1.00 18.30 LIG 0.16  HD
ENDROOT
BRANCH 3 5
ATOM      5  CA  THR E  69       9.725   1.462  22.887  1.00 19.45 LIG 0.20  C 
BRANCH 5 6
ATOM      6  C   THR E  69       8.914   0.272  23.435  1.00 19.66 LIG 0.24  C 
ATOM      7  N   CYS E  70       8.797   0.182  24.747  1.00 18.57 LIG-0.34  N 
ATOM      8 H    CYS E  70       9.090   0.773  25.299  1.00 18.57 LIG 0.16  HD
ATOM      9 O    THR E  69       8.427  -0.553  22.688  1.00 20.15 LIG-0.27  OA
BRANCH 7 10
ATOM     10  CA  CYS E  70       8.146  -0.956  25.373  1.00 18.45 LIG 0.18  C 
BRANCH 10 11
ATOM     11  C   CYS E  70       9.107  -2.124  25.255  1.00 19.42 LIG 0.24  C 
ATOM     12  N   ASP E  71       9.039  -2.829  24.112  1.00 17.61 LIG-0.34  N 
ATOM     13 H    ASP E  71       8.469  -2.665  23.489  1.00 17.61 LIG 0.16  HD
ATOM     14 O    CYS E  70       9.854  -2.388  26.202  1.00 18.07 LIG-0.27  OA
BRANCH 12 15
ATOM     15  CA  ASP E  71       9.924  -3.938  23.816  1.00 16.95 LIG 0.19  C 
BRANCH 15 16
ATOM     16  C   ASP E  71      11.254  -3.292  23.569  1.00 18.90 LIG 0.24  C 
ATOM     17 O    ASP E  71      12.307  -3.903  23.877  1.00 16.52 LIG-0.27  OA
ATOM     18  N   SER E  72      11.223  -2.067  23.042  1.00 19.80 LIG-0.34  N 
ATOM     19 H    SER E  72      10.502  -1.623  22.891  1.00 19.80 LIG 0.16  HD
BRANCH 18 20
ATOM     20  CA  SER E  72      12.454  -1.375  22.675  1.00 20.01 LIG 0.20  C 
BRANCH 20 21
ATOM     21  C   SER E  72      13.373  -2.189  21.820  1.00 24.22 LIG 0.29  C 
ATOM     22  N   NH2 E  73      14.530  -1.548  21.430  1.00 28.43 LIG-0.11  N 
ATOM     23 O    SER E  72      13.005  -3.229  21.321  1.00 27.83 LIG-0.27  OA
ENDBRANCH 20 21
BRANCH 20 24
ATOM     24  CB  SER E  72      13.193  -0.932  23.915  1.00 25.59 LIG 0.20  C 
BRANCH 24 25
ATOM     25 OG   SER E  72      13.024   0.446  24.137  1.00 28.15 LIG-0.40  OA
ATOM     26 HG   SER E  72      12.792   0.819  23.421  1.00 28.15 LIG 0.21  HD
ENDBRANCH 24 25
ENDBRANCH 20 24
ENDBRANCH 18 20
ENDBRANCH 15 16
BRANCH 15 27
ATOM     27  CB  ASP E  71       9.421  -4.740  22.605  1.00 12.80 LIG 0.15  C 
BRANCH 27 28
ATOM     28  CG  ASP E  71      10.054  -4.278  21.321  1.00 14.21 LIG 0.17  C 
ATOM     29 OD2  ASP E  71       9.542  -3.372  20.648  1.00 15.44 LIG-0.65  OA
ATOM     30 OD1  ASP E  71      11.086  -4.852  20.946  1.00 16.80 LIG-0.65  OA
ENDBRANCH 27 28
ENDBRANCH 15 27
ENDBRANCH 12 15
ENDBRANCH 10 11
BRANCH 10 31
ATOM     31  CB  CYS E  70       6.782  -1.264  24.696  1.00 19.19 LIG 0.10  C 
BRANCH 31 32
ATOM     32 SG   CYS E  70       5.303  -0.631  25.521  1.00 25.14 LIG-0.18  SA
ATOM     33 HG   CYS E  70       4.458  -0.392  24.702  1.00 25.14 LIG 0.10  HD
ENDBRANCH 31 32
ENDBRANCH 10 31
ENDBRANCH 7 10
ENDBRANCH 5 6
BRANCH 5 34
ATOM     34  CB  THR E  69      10.912   0.998  22.024  1.00 17.77 LIG 0.15  C 
ATOM     35  CG2 THR E  69      10.491   0.871  20.601  1.00 20.71 LIG 0.04  C 
BRANCH 34 36
ATOM     36 OG1  THR E  69      11.968   1.941  22.063  1.00 16.43 LIG-0.39  OA
ATOM     37 HG1  THR E  69      12.415   1.891  21.354  1.00 16.43 LIG 0.21  HD
ENDBRANCH 34 36
ENDBRANCH 5 34
ENDBRANCH 3 5
BRANCH 1 38
ATOM     38  CA  ALA E  68      10.043   4.295  25.423  1.00 20.08 LIG 0.17  C 
ATOM     39  CB  ALA E  68       9.980   3.772  26.838  1.00 20.16 LIG 0.04  C 
BRANCH 38 40
ATOM     40  N   ALA E  68       9.393   5.574  25.341  1.00 18.16 LIG-0.35  N 
ATOM     41 H    ALA E  68       8.696   5.594  24.838  1.00 18.16 LIG 0.16  HD
ATOM     42  C   TRP E  67       9.864   6.612  26.004  1.00 18.88 LIG 0.24  C 
ATOM     43 O    TRP E  67      10.902   6.602  26.685  1.00 21.47 LIG-0.27  OA
BRANCH 42 44
ATOM     44  CA  TRP E  67       9.098   7.869  25.801  1.00 17.18 LIG 0.18  C 
BRANCH 44 45
ATOM     45  N   TRP E  67       8.547   8.414  27.092  1.00 16.72 LIG-0.35  N 
ATOM     46  C   PRO E  66       7.701   7.754  27.898  1.00 16.87 LIG 0.24  C 
ATOM     47 O    PRO E  66       7.170   6.685  27.603  1.00 18.41 LIG-0.27  OA
ATOM     48 H    TRP E  67       8.829   9.206  27.270  1.00 16.72 LIG 0.16  HD
BRANCH 46 49
ATOM     49  CA  PRO E  66       7.344   8.400  29.258  1.00 17.04 LIG 0.18  C 
ATOM     50  CB  PRO E  66       5.844   8.722  29.365  1.00 18.40 LIG 0.04  C 
ATOM     51  CG  PRO E  66       5.717  10.208  29.192  1.00 18.41 LIG 0.02  C 
ATOM     52  CD  PRO E  66       7.007  10.792  29.696  1.00 21.21 LIG 0.13  C 
ATOM     53  N   PRO E  66       7.980   9.702  29.540  1.00 19.82 LIG-0.34  N 
ATOM     54  C   ACE E  65       9.334   9.732  29.746  1.00 17.72 LIG 0.22  C 
ATOM     55  CH3 ACE E  65       9.935  11.036  30.079  1.00 22.93 LIG 0.12  C 
ATOM     56 O    ACE E  65      10.053   8.769  29.627  1.00 18.13 LIG-0.27  OA
ENDBRANCH 46 49
ENDBRANCH 44 45
BRANCH 44 57
ATOM     57  CB  TRP E  67       9.950   8.938  25.067  1.00 18.36 LIG 0.07  C 
BRANCH 57 58
ATOM     58  CG  TRP E  67      10.496   9.956  25.932  1.00 19.51 LIG-0.03  A 
ATOM     59  CD1 TRP E  67      11.596   9.858  26.711  1.00 20.71 LIG 0.10  A 
ATOM     60  NE1 TRP E  67      11.804  11.030  27.378  1.00 21.73 LIG-0.36  N 
ATOM     61  CE2 TRP E  67      10.822  11.913  27.032  1.00 22.59 LIG 0.04  A 
ATOM     62 HE1  TRP E  67      12.448  11.185  27.927  1.00 21.73 LIG 0.17  HD
ATOM     63  CD2 TRP E  67       9.979  11.261  26.113  1.00 20.57 LIG-0.00  A 
ATOM     64  CZ2 TRP E  67      10.605  13.220  27.438  1.00 23.91 LIG 0.03  A 
ATOM     65  CE3 TRP E  67       8.886  11.951  25.589  1.00 19.56 LIG 0.01  A 
ATOM     66  CZ3 TRP E  67       8.672  13.227  25.984  1.00 20.82 LIG 0.00  A 
ATOM     67  CH2 TRP E  67       9.524  13.864  26.901  1.00 24.07 LIG 0.00  A 
ENDBRANCH 57 58
ENDBRANCH 44 57
ENDBRANCH 42 44
ENDBRANCH 38 40
ENDBRANCH 1 38
TORSDOF 23
ENDMDL
MODEL 63
USER: ADFR SOLUTION from run 93
USER: SCORE 17.556156 LL:  -6.409 LR: -14.137 RR:   0.000 FEB:  -7.276
USER: RMSD 6.489314
USER: SEED 92
USER: STATUS no improvement in best in 10 clusters for 5 generations
USER: GENES 25
USER: genes 0 Translation |==|  0.47158 0.43729 0.37801
USER: genes 1 Rotation |==|  0.21434 0.28428 0.57571 0.84078
USER: genes 2 Torsion [C]-N--CA-[C] |==|  0.74940
USER: genes 3 Torsion [N]-CA--C-[N] |==|  0.84898
USER: genes 4 Torsion [C]-N--CA-[C] |==|  0.62837
USER: genes 5 Torsion [N]-CA--C-[N] |==|  0.98920
USER: genes 6 Torsion [C]-N--CA-[C] |==|  0.70047
USER: genes 7 Torsion [N]-CA--C-[N] |==|  0.94009
USER: genes 8 Torsion [C]-N--CA-[CB] |==|  0.77269
USER: genes 9 Torsion [N]-CA--C-[N] |==|  0.56795
USER: genes 10 Torsion [N]-CA--CB-[OG] |==|  0.09733
USER: genes 11 Torsion [CA]-CB--OG-[HG] |==|  0.84474
USER: genes 12 Torsion [N]-CA--CB-[CG] |==|  0.63665
USER: genes 13 Torsion [CA]-CB--CG-[OD2] |==|  0.36819
USER: genes 14 Torsion [N]-CA--CB-[SG] |==|  0.00861
USER: genes 15 Torsion [CA]-CB--SG-[HG] |==|  0.32557
USER: genes 16 Torsion [N]-CA--CB-[OG1] |==|  0.13452
USER: genes 17 Torsion [CA]-CB--OG1-[HG1] |==|  0.91594
USER: genes 18 Torsion [N]-C--CA-[N] |==|  0.53168
USER: genes 19 Torsion [C]-CA--N-[C] |==|  0.56292
USER: genes 20 Torsion [N]-C--CA-[N] |==|  0.68138
USER: genes 21 Torsion [C]-CA--N-[C] |==|  0.69770
USER: genes 22 Torsion [N]-C--CA-[N] |==|  0.17859
USER: genes 23 Torsion [C]-CA--CB-[CG] |==|  0.61169
USER: genes 24 Torsion [CA]-CB--CG-[CD2] |==|  0.84206
ROOT
ATOM      1  C   ALA E  68       6.593   1.653  25.867  1.00 21.38 LIG 0.24  C 
ATOM      2 O    ALA E  68       6.903   1.867  27.044  1.00 23.30 LIG-0.27  OA
ATOM      3  N   THR E  69       5.788   0.654  25.488  1.00 18.30 LIG-0.34  N 
ATOM      4 H    THR E  69       5.648   0.432  24.669  1.00 18.30 LIG 0.16  HD
ENDROOT
BRANCH 3 5
ATOM      5  CA  THR E  69       5.066  -0.155  26.468  1.00 19.45 LIG 0.20  C 
BRANCH 5 6
ATOM      6  C   THR E  69       5.882  -1.385  26.908  1.00 19.66 LIG 0.24  C 
ATOM      7  N   CYS E  70       6.320  -2.185  25.952  1.00 18.57 LIG-0.34  N 
ATOM      8 H    CYS E  70       6.230  -2.026  25.112  1.00 18.57 LIG 0.16  HD
ATOM      9 O    THR E  69       6.088  -1.614  28.083  1.00 20.15 LIG-0.27  OA
BRANCH 7 10
ATOM     10  CA  CYS E  70       7.007  -3.428  26.261  1.00 18.45 LIG 0.18  C 
BRANCH 10 11
ATOM     11  C   CYS E  70       8.231  -3.480  25.367  1.00 19.42 LIG 0.24  C 
ATOM     12  N   ASP E  71       8.358  -2.474  24.483  1.00 17.61 LIG-0.34  N 
ATOM     13 H    ASP E  71       7.773  -1.850  24.391  1.00 17.61 LIG 0.16  HD
ATOM     14 O    CYS E  70       9.008  -4.435  25.463  1.00 18.07 LIG-0.27  OA
BRANCH 12 15
ATOM     15  CA  ASP E  71       9.496  -2.344  23.595  1.00 16.95 LIG 0.19  C 
BRANCH 15 16
ATOM     16  C   ASP E  71      10.266  -1.184  24.152  1.00 18.90 LIG 0.24  C 
ATOM     17 O    ASP E  71      11.490  -1.070  23.895  1.00 16.52 LIG-0.27  OA
ATOM     18  N   SER E  72       9.580  -0.339  24.924  1.00 19.80 LIG-0.34  N 
ATOM     19 H    SER E  72       8.758  -0.451  25.153  1.00 19.80 LIG 0.16  HD
BRANCH 18 20
ATOM     20  CA  SER E  72      10.199   0.873  25.449  1.00 20.01 LIG 0.20  C 
BRANCH 20 21
ATOM     21  C   SER E  72      11.072   1.582  24.462  1.00 24.22 LIG 0.29  C 
ATOM     22  N   NH2 E  73      12.054   2.376  25.015  1.00 28.43 LIG-0.11  N 
ATOM     23 O    SER E  72      10.773   1.636  23.290  1.00 27.83 LIG-0.27  OA
ENDBRANCH 20 21
BRANCH 20 24
ATOM     24  CB  SER E  72      11.007   0.552  26.684  1.00 25.59 LIG 0.20  C 
BRANCH 24 25
ATOM     25 OG   SER E  72      11.609  -0.715  26.578  1.00 28.15 LIG-0.40  OA
ATOM     26 HG   SER E  72      11.018  -1.294  26.430  1.00 28.15 LIG 0.21  HD
ENDBRANCH 24 25
ENDBRANCH 20 24
ENDBRANCH 18 20
ENDBRANCH 15 16
BRANCH 15 27
ATOM     27  CB  ASP E  71       9.043  -2.111  22.145  1.00 12.80 LIG 0.15  C 
BRANCH 27 28
ATOM     28  CG  ASP E  71       9.739  -3.034  21.182  1.00 14.21 LIG 0.17  C 
ATOM     29 OD2  ASP E  71       9.099  -3.657  20.322  1.00 15.44 LIG-0.65  OA
ATOM     30 OD1  ASP E  71      10.965  -3.170  21.295  1.00 16.80 LIG-0.65  OA
ENDBRANCH 27 28
ENDBRANCH 15 27
ENDBRANCH 12 15
ENDBRANCH 10 11
BRANCH 10 31
ATOM     31  CB  CYS E  70       6.079  -4.654  26.036  1.00 19.19 LIG 0.10  C 
BRANCH 31 32
ATOM     32 SG   CYS E  70       4.430  -4.315  25.378  1.00 25.14 LIG-0.18  SA
ATOM     33 HG   CYS E  70       4.310  -4.842  24.305  1.00 25.14 LIG 0.10  HD
ENDBRANCH 31 32
ENDBRANCH 10 31
ENDBRANCH 7 10
ENDBRANCH 5 6
BRANCH 5 34
ATOM     34  CB  THR E  69       3.682  -0.550  25.922  1.00 17.77 LIG 0.15  C 
ATOM     35  CG2 THR E  69       2.799   0.648  25.856  1.00 20.71 LIG 0.04  C 
BRANCH 34 36
ATOM     36 OG1  THR E  69       3.783  -1.066  24.607  1.00 16.43 LIG-0.39  OA
ATOM     37 HG1  THR E  69       4.434  -0.708  24.215  1.00 16.43 LIG 0.21  HD
ENDBRANCH 34 36
ENDBRANCH 5 34
ENDBRANCH 3 5
BRANCH 1 38
ATOM     38  CA  ALA E  68       7.137   2.563  24.770  1.00 20.08 LIG 0.17  C 
ATOM     39  CB  ALA E  68       7.658   1.743  23.614  1.00 20.16 LIG 0.04  C 
BRANCH 38 40
ATOM     40  N   ALA E  68       8.179   3.409  25.283  1.00 18.16 LIG-0.35  N 
ATOM     41 H    ALA E  68       8.569   3.114  25.991  1.00 18.16 LIG 0.16  HD
ATOM     42  C   TRP E  67       8.484   4.542  24.683  1.00 18.88 LIG 0.24  C 
ATOM     43 O    TRP E  67       7.886   5.000  23.695  1.00 21.47 LIG-0.27  OA
BRANCH 42 44
ATOM     44  CA  TRP E  67       9.565   5.316  25.345  1.00 17.18 LIG 0.18  C 
BRANCH 44 45
ATOM     45  N   TRP E  67       9.071   6.630  25.893  1.00 16.72 LIG-0.35  N 
ATOM     46  C   PRO E  66       9.374   7.831  25.378  1.00 16.87 LIG 0.24  C 
ATOM     47 O    PRO E  66      10.204   8.004  24.487  1.00 18.41 LIG-0.27  OA
ATOM     48 H    TRP E  67       8.565   6.538  26.581  1.00 16.72 LIG 0.16  HD
BRANCH 46 49
ATOM     49  CA  PRO E  66       8.668   9.074  25.973  1.00 17.04 LIG 0.18  C 
ATOM     50  CB  PRO E  66       9.083  10.369  25.256  1.00 18.40 LIG 0.04  C 
ATOM     51  CG  PRO E  66      10.026  11.081  26.181  1.00 18.41 LIG 0.02  C 
ATOM     52  CD  PRO E  66       9.626  10.673  27.570  1.00 21.21 LIG 0.13  C 
ATOM     53  N   PRO E  66       8.971   9.370  27.387  1.00 19.82 LIG-0.34  N 
ATOM     54  C   ACE E  65       8.514   8.504  28.345  1.00 17.72 LIG 0.22  C 
ATOM     55  CH3 ACE E  65       8.783   8.853  29.751  1.00 22.93 LIG 0.12  C 
ATOM     56 O    ACE E  65       7.951   7.464  28.096  1.00 18.13 LIG-0.27  OA
ENDBRANCH 46 49
ENDBRANCH 44 45
BRANCH 44 57
ATOM     57  CB  TRP E  67      10.261   4.482  26.452  1.00 18.36 LIG 0.07  C 
BRANCH 57 58
ATOM     58  CG  TRP E  67      10.578   5.229  27.645  1.00 19.51 LIG-0.03  A 
ATOM     59  CD1 TRP E  67      10.195   4.944  28.909  1.00 20.71 LIG 0.10  A 
ATOM     60  NE1 TRP E  67      10.697   5.873  29.772  1.00 21.73 LIG-0.36  N 
ATOM     61  CE2 TRP E  67      11.425   6.784  29.063  1.00 22.59 LIG 0.04  A 
ATOM     62 HE1  TRP E  67      10.576   5.882  30.624  1.00 21.73 LIG 0.17  HD
ATOM     63  CD2 TRP E  67      11.371   6.399  27.710  1.00 20.57 LIG-0.00  A 
ATOM     64  CZ2 TRP E  67      12.126   7.902  29.487  1.00 23.91 LIG 0.03  A 
ATOM     65  CE3 TRP E  67      12.045   7.166  26.761  1.00 19.56 LIG 0.01  A 
ATOM     66  CZ3 TRP E  67      12.730   8.258  27.172  1.00 20.82 LIG 0.00  A 
ATOM     67  CH2 TRP E  67      12.776   8.627  28.527  1.00 24.07 LIG 0.00  A 
ENDBRANCH 57 58
ENDBRANCH 44 57
ENDBRANCH 42 44
ENDBRANCH 38 40
ENDBRANCH 1 38
TORSDOF 23
ENDMDL
MODEL 64
USER: ADFR SOLUTION from run 35
USER: SCORE 17.919799 LL:  -5.326 LR: -14.121 RR:   0.000 FEB:  -7.260
USER: RMSD 3.617023
USER: SEED 34
USER: STATUS no improvement in best in 6 clusters for 5 generations
USER: GENES 25
USER: genes 0 Translation |==|  0.55906 0.57779 0.32166
USER: genes 1 Rotation |==|  0.60136 0.98033 0.40825 0.47568
USER: genes 2 Torsion [C]-N--CA-[C] |==|  0.15553
USER: genes 3 Torsion [N]-CA--C-[N] |==|  0.58408
USER: genes 4 Torsion [C]-N--CA-[C] |==|  0.61287
USER: genes 5 Torsion [N]-CA--C-[N] |==|  0.46413
USER: genes 6 Torsion [C]-N--CA-[C] |==|  0.64911
USER: genes 7 Torsion [N]-CA--C-[N] |==|  0.35406
USER: genes 8 Torsion [C]-N--CA-[CB] |==|  0.86111
USER: genes 9 Torsion [N]-CA--C-[N] |==|  0.41355
USER: genes 10 Torsion [N]-CA--CB-[OG] |==|  0.38941
USER: genes 11 Torsion [CA]-CB--OG-[HG] |==|  0.80632
USER: genes 12 Torsion [N]-CA--CB-[CG] |==|  0.64926
USER: genes 13 Torsion [CA]-CB--CG-[OD2] |==|  0.42762
USER: genes 14 Torsion [N]-CA--CB-[SG] |==|  0.78208
USER: genes 15 Torsion [CA]-CB--SG-[HG] |==|  0.66442
USER: genes 16 Torsion [N]-CA--CB-[OG1] |==|  0.21848
USER: genes 17 Torsion [CA]-CB--OG1-[HG1] |==|  0.20049
USER: genes 18 Torsion [N]-C--CA-[N] |==|  0.87414
USER: genes 19 Torsion [C]-CA--N-[C] |==|  0.78660
USER: genes 20 Torsion [N]-C--CA-[N] |==|  0.41020
USER: genes 21 Torsion [C]-CA--N-[C] |==|  0.81114
USER: genes 22 Torsion [N]-C--CA-[N] |==|  0.08540
USER: genes 23 Torsion [C]-CA--CB-[CG] |==|  0.59676
USER: genes 24 Torsion [CA]-CB--CG-[CD2] |==|  0.87607
ROOT
ATOM      1  C   ALA E  68       8.364   5.657  25.022  1.00 21.38 LIG 0.24  C 
ATOM      2 O    ALA E  68       7.297   5.253  25.497  1.00 23.30 LIG-0.27  OA
ATOM      3  N   THR E  69       9.508   4.967  25.089  1.00 18.30 LIG-0.34  N 
ATOM      4 H    THR E  69      10.274   5.280  24.857  1.00 18.30 LIG 0.16  HD
ENDROOT
BRANCH 3 5
ATOM      5  CA  THR E  69       9.538   3.590  25.578  1.00 19.45 LIG 0.20  C 
BRANCH 5 6
ATOM      6  C   THR E  69       8.585   2.678  24.781  1.00 19.66 LIG 0.24  C 
ATOM      7  N   CYS E  70       8.052   1.659  25.429  1.00 18.57 LIG-0.34  N 
ATOM      8 H    CYS E  70       8.156   1.515  26.271  1.00 18.57 LIG 0.16  HD
ATOM      9 O    THR E  69       8.359   2.882  23.605  1.00 20.15 LIG-0.27  OA
BRANCH 7 10
ATOM     10  CA  CYS E  70       7.226   0.677  24.747  1.00 18.45 LIG 0.18  C 
BRANCH 10 11
ATOM     11  C   CYS E  70       6.070   0.361  25.678  1.00 19.42 LIG 0.24  C 
ATOM     12  N   ASP E  71       5.046  -0.320  25.135  1.00 17.61 LIG-0.34  N 
ATOM     13 H    ASP E  71       5.013  -0.541  24.305  1.00 17.61 LIG 0.16  HD
ATOM     14 O    CYS E  70       6.107   0.767  26.845  1.00 18.07 LIG-0.27  OA
BRANCH 12 15
ATOM     15  CA  ASP E  71       3.892  -0.750  25.900  1.00 16.95 LIG 0.19  C 
BRANCH 15 16
ATOM     16  C   ASP E  71       3.802  -2.222  25.633  1.00 18.90 LIG 0.24  C 
ATOM     17 O    ASP E  71       3.769  -2.637  24.448  1.00 16.52 LIG-0.27  OA
ATOM     18  N   SER E  72       3.739  -3.012  26.706  1.00 19.80 LIG-0.34  N 
ATOM     19 H    SER E  72       3.696  -2.725  27.516  1.00 19.80 LIG 0.16  HD
BRANCH 18 20
ATOM     20  CA  SER E  72       3.738  -4.464  26.572  1.00 20.01 LIG 0.20  C 
BRANCH 20 21
ATOM     21  C   SER E  72       5.066  -5.037  26.190  1.00 24.22 LIG 0.29  C 
ATOM     22  N   NH2 E  73       5.320  -6.302  26.679  1.00 28.43 LIG-0.11  N 
ATOM     23 O    SER E  72       5.929  -4.342  25.702  1.00 27.83 LIG-0.27  OA
ENDBRANCH 20 21
BRANCH 20 24
ATOM     24  CB  SER E  72       2.703  -4.894  25.559  1.00 25.59 LIG 0.20  C 
BRANCH 24 25
ATOM     25 OG   SER E  72       3.186  -5.946  24.760  1.00 28.15 LIG-0.40  OA
ATOM     26 HG   SER E  72       3.791  -5.658  24.252  1.00 28.15 LIG 0.21  HD
ENDBRANCH 24 25
ENDBRANCH 20 24
ENDBRANCH 18 20
ENDBRANCH 15 16
BRANCH 15 27
ATOM     27  CB  ASP E  71       2.628   0.009  25.466  1.00 12.80 LIG 0.15  C 
BRANCH 27 28
ATOM     28  CG  ASP E  71       1.934   0.662  26.631  1.00 14.21 LIG 0.17  C 
ATOM     29 OD2  ASP E  71       1.225   1.666  26.468  1.00 15.44 LIG-0.65  OA
ATOM     30 OD1  ASP E  71       2.117   0.180  27.757  1.00 16.80 LIG-0.65  OA
ENDBRANCH 27 28
ENDBRANCH 15 27
ENDBRANCH 12 15
ENDBRANCH 10 11
BRANCH 10 31
ATOM     31  CB  CYS E  70       8.042  -0.596  24.393  1.00 19.19 LIG 0.10  C 
BRANCH 31 32
ATOM     32 SG   CYS E  70       9.124  -0.492  22.948  1.00 25.14 LIG-0.18  SA
ATOM     33 HG   CYS E  70       8.804  -1.326  22.146  1.00 25.14 LIG 0.10  HD
ENDBRANCH 31 32
ENDBRANCH 10 31
ENDBRANCH 7 10
ENDBRANCH 5 6
BRANCH 5 34
ATOM     34  CB  THR E  69       9.241   3.551  27.088  1.00 17.77 LIG 0.15  C 
ATOM     35  CG2 THR E  69       9.916   4.689  27.771  1.00 20.71 LIG 0.04  C 
BRANCH 34 36
ATOM     36 OG1  THR E  69       7.853   3.680  27.336  1.00 16.43 LIG-0.39  OA
ATOM     37 HG1  THR E  69       7.461   2.972  27.113  1.00 16.43 LIG 0.21  HD
ENDBRANCH 34 36
ENDBRANCH 5 34
ENDBRANCH 3 5
BRANCH 1 38
ATOM     38  CA  ALA E  68       8.406   7.007  24.311  1.00 20.08 LIG 0.17  C 
ATOM     39  CB  ALA E  68       8.432   6.815  22.814  1.00 20.16 LIG 0.04  C 
BRANCH 38 40
ATOM     40  N   ALA E  68       9.552   7.765  24.731  1.00 18.16 LIG-0.35  N 
ATOM     41 H    ALA E  68      10.201   7.782  24.167  1.00 18.16 LIG 0.16  HD
ATOM     42  C   TRP E  67       9.565   8.376  25.899  1.00 18.88 LIG 0.24  C 
ATOM     43 O    TRP E  67       8.654   8.308  26.740  1.00 21.47 LIG-0.27  OA
BRANCH 42 44
ATOM     44  CA  TRP E  67      10.827   9.100  26.200  1.00 17.18 LIG 0.18  C 
BRANCH 44 45
ATOM     45  N   TRP E  67      10.591  10.330  27.036  1.00 16.72 LIG-0.35  N 
ATOM     46  C   PRO E  66       9.950  11.429  26.609  1.00 16.87 LIG 0.24  C 
ATOM     47 O    PRO E  66       9.606  11.610  25.442  1.00 18.41 LIG-0.27  OA
ATOM     48 H    TRP E  67      10.913  10.264  27.830  1.00 16.72 LIG 0.16  HD
BRANCH 46 49
ATOM     49  CA  PRO E  66       9.666  12.549  27.639  1.00 17.04 LIG 0.18  C 
ATOM     50  CB  PRO E  66       9.682  13.943  26.991  1.00 18.40 LIG 0.04  C 
ATOM     51  CG  PRO E  66      10.977  14.584  27.397  1.00 18.41 LIG 0.02  C 
ATOM     52  CD  PRO E  66      11.332  13.986  28.729  1.00 21.21 LIG 0.13  C 
ATOM     53  N   PRO E  66      10.652  12.683  28.731  1.00 19.82 LIG-0.34  N 
ATOM     54  C   ACE E  65      10.730  11.682  29.663  1.00 17.72 LIG 0.22  C 
ATOM     55  CH3 ACE E  65      11.683  11.868  30.771  1.00 22.93 LIG 0.12  C 
ATOM     56 O    ACE E  65      10.100  10.653  29.597  1.00 18.13 LIG-0.27  OA
ENDBRANCH 46 49
ENDBRANCH 44 45
BRANCH 44 57
ATOM     57  CB  TRP E  67      11.868   8.166  26.871  1.00 18.36 LIG 0.07  C 
BRANCH 57 58
ATOM     58  CG  TRP E  67      12.698   8.816  27.856  1.00 19.51 LIG-0.03  A 
ATOM     59  CD1 TRP E  67      13.041   8.340  29.074  1.00 20.71 LIG 0.10  A 
ATOM     60  NE1 TRP E  67      13.847   9.233  29.717  1.00 21.73 LIG-0.36  N 
ATOM     61  CE2 TRP E  67      14.038  10.315  28.907  1.00 22.59 LIG 0.04  A 
ATOM     62 HE1  TRP E  67      14.180   9.130  30.503  1.00 21.73 LIG 0.17  HD
ATOM     63  CD2 TRP E  67      13.324  10.078  27.718  1.00 20.57 LIG-0.00  A 
ATOM     64  CZ2 TRP E  67      14.774  11.472  29.110  1.00 23.91 LIG 0.03  A 
ATOM     65  CE3 TRP E  67      13.356  11.036  26.706  1.00 19.56 LIG 0.01  A 
ATOM     66  CZ3 TRP E  67      14.074  12.167  26.902  1.00 20.82 LIG 0.00  A 
ATOM     67  CH2 TRP E  67      14.782  12.387  28.094  1.00 24.07 LIG 0.00  A 
ENDBRANCH 57 58
ENDBRANCH 44 57
ENDBRANCH 42 44
ENDBRANCH 38 40
ENDBRANCH 1 38
TORSDOF 23
ENDMDL
MODEL 65
USER: ADFR SOLUTION from run 174
USER: SCORE 18.350106 LL:  -5.098 LR: -14.103 RR:   0.000 FEB:  -7.243
USER: RMSD 4.139927
USER: SEED 173
USER: STATUS no improvement in best in 7 clusters for 5 generations
USER: GENES 25
USER: genes 0 Translation |==|  0.57048 0.58109 0.32527
USER: genes 1 Rotation |==|  0.47829 0.79418 0.53766 0.90196
USER: genes 2 Torsion [C]-N--CA-[C] |==|  0.83053
USER: genes 3 Torsion [N]-CA--C-[N] |==|  0.40529
USER: genes 4 Torsion [C]-N--CA-[C] |==|  0.74991
USER: genes 5 Torsion [N]-CA--C-[N] |==|  0.37237
USER: genes 6 Torsion [C]-N--CA-[C] |==|  0.76792
USER: genes 7 Torsion [N]-CA--C-[N] |==|  0.34128
USER: genes 8 Torsion [C]-N--CA-[CB] |==|  0.83465
USER: genes 9 Torsion [N]-CA--C-[N] |==|  0.41602
USER: genes 10 Torsion [N]-CA--CB-[OG] |==|  0.23587
USER: genes 11 Torsion [CA]-CB--OG-[HG] |==|  0.19462
USER: genes 12 Torsion [N]-CA--CB-[CG] |==|  0.70823
USER: genes 13 Torsion [CA]-CB--CG-[OD2] |==|  0.38698
USER: genes 14 Torsion [N]-CA--CB-[SG] |==|  0.77033
USER: genes 15 Torsion [CA]-CB--SG-[HG] |==|  0.93854
USER: genes 16 Torsion [N]-CA--CB-[OG1] |==|  0.90745
USER: genes 17 Torsion [CA]-CB--OG1-[HG1] |==|  0.55311
USER: genes 18 Torsion [N]-C--CA-[N] |==|  0.24981
USER: genes 19 Torsion [C]-CA--N-[C] |==|  0.74511
USER: genes 20 Torsion [N]-C--CA-[N] |==|  0.39231
USER: genes 21 Torsion [C]-CA--N-[C] |==|  0.86976
USER: genes 22 Torsion [N]-C--CA-[N] |==|  0.15799
USER: genes 23 Torsion [C]-CA--CB-[CG] |==|  0.89681
USER: genes 24 Torsion [CA]-CB--CG-[CD2] |==|  0.80808
ROOT
ATOM      1  C   ALA E  68       8.595   5.751  25.076  1.00 21.38 LIG 0.24  C 
ATOM      2 O    ALA E  68       8.876   4.885  24.240  1.00 23.30 LIG-0.27  OA
ATOM      3  N   THR E  69       8.212   5.470  26.326  1.00 18.30 LIG-0.34  N 
ATOM      4 H    THR E  69       7.915   6.056  26.883  1.00 18.30 LIG 0.16  HD
ENDROOT
BRANCH 3 5
ATOM      5  CA  THR E  69       8.271   4.108  26.852  1.00 19.45 LIG 0.20  C 
BRANCH 5 6
ATOM      6  C   THR E  69       7.379   3.144  26.048  1.00 19.66 LIG 0.24  C 
ATOM      7  N   CYS E  70       7.808   1.902  25.916  1.00 18.57 LIG-0.34  N 
ATOM      8 H    CYS E  70       8.513   1.592  26.300  1.00 18.57 LIG 0.16  HD
ATOM      9 O    THR E  69       6.342   3.523  25.542  1.00 20.15 LIG-0.27  OA
BRANCH 7 10
ATOM     10  CA  CYS E  70       7.099   0.940  25.090  1.00 18.45 LIG 0.18  C 
BRANCH 10 11
ATOM     11  C   CYS E  70       6.090   0.255  25.992  1.00 19.42 LIG 0.24  C 
ATOM     12  N   ASP E  71       4.847   0.128  25.494  1.00 17.61 LIG-0.34  N 
ATOM     13 H    ASP E  71       4.611   0.440  24.728  1.00 17.61 LIG 0.16  HD
ATOM     14 O    CYS E  70       6.437  -0.106  27.121  1.00 18.07 LIG-0.27  OA
BRANCH 12 15
ATOM     15  CA  ASP E  71       3.780  -0.552  26.202  1.00 16.95 LIG 0.19  C 
BRANCH 15 16
ATOM     16  C   ASP E  71       3.989  -2.001  25.881  1.00 18.90 LIG 0.24  C 
ATOM     17 O    ASP E  71       3.984  -2.378  24.683  1.00 16.52 LIG-0.27  OA
ATOM     18  N   SER E  72       4.150  -2.817  26.923  1.00 19.80 LIG-0.34  N 
ATOM     19 H    SER E  72       4.089  -2.571  27.745  1.00 19.80 LIG 0.16  HD
BRANCH 18 20
ATOM     20  CA  SER E  72       4.449  -4.232  26.732  1.00 20.01 LIG 0.20  C 
BRANCH 20 21
ATOM     21  C   SER E  72       5.761  -4.487  26.060  1.00 24.22 LIG 0.29  C 
ATOM     22  N   NH2 E  73       6.382  -5.666  26.418  1.00 28.43 LIG-0.11  N 
ATOM     23 O    SER E  72       6.329  -3.611  25.447  1.00 27.83 LIG-0.27  OA
ENDBRANCH 20 21
BRANCH 20 24
ATOM     24  CB  SER E  72       3.348  -4.895  25.937  1.00 25.59 LIG 0.20  C 
BRANCH 24 25
ATOM     25 OG   SER E  72       3.554  -4.731  24.556  1.00 28.15 LIG-0.40  OA
ATOM     26 HG   SER E  72       4.214  -5.192  24.314  1.00 28.15 LIG 0.21  HD
ENDBRANCH 24 25
ENDBRANCH 20 24
ENDBRANCH 18 20
ENDBRANCH 15 16
BRANCH 15 27
ATOM     27  CB  ASP E  71       2.403  -0.038  25.752  1.00 12.80 LIG 0.15  C 
BRANCH 27 28
ATOM     28  CG  ASP E  71       1.775   0.865  26.778  1.00 14.21 LIG 0.17  C 
ATOM     29 OD2  ASP E  71       1.168   1.891  26.436  1.00 15.44 LIG-0.65  OA
ATOM     30 OD1  ASP E  71       1.908   0.565  27.972  1.00 16.80 LIG-0.65  OA
ENDBRANCH 27 28
ENDBRANCH 15 27
ENDBRANCH 12 15
ENDBRANCH 10 11
BRANCH 10 31
ATOM     31  CB  CYS E  70       8.080  -0.080  24.447  1.00 19.19 LIG 0.10  C 
BRANCH 31 32
ATOM     32 SG   CYS E  70       8.921   0.444  22.935  1.00 25.14 LIG-0.18  SA
ATOM     33 HG   CYS E  70       8.294   1.324  22.411  1.00 25.14 LIG 0.10  HD
ENDBRANCH 31 32
ENDBRANCH 10 31
ENDBRANCH 7 10
ENDBRANCH 5 6
BRANCH 5 34
ATOM     34  CB  THR E  69       7.922   4.098  28.352  1.00 17.77 LIG 0.15  C 
ATOM     35  CG2 THR E  69       8.603   2.958  29.027  1.00 20.71 LIG 0.04  C 
BRANCH 34 36
ATOM     36 OG1  THR E  69       8.367   5.283  28.985  1.00 16.43 LIG-0.39  OA
ATOM     37 HG1  THR E  69       8.411   5.158  29.814  1.00 16.43 LIG 0.21  HD
ENDBRANCH 34 36
ENDBRANCH 5 34
ENDBRANCH 3 5
BRANCH 1 38
ATOM     38  CA  ALA E  68       8.688   7.225  24.690  1.00 20.08 LIG 0.17  C 
ATOM     39  CB  ALA E  68       8.352   7.410  23.230  1.00 20.16 LIG 0.04  C 
BRANCH 38 40
ATOM     40  N   ALA E  68      10.001   7.739  24.963  1.00 18.16 LIG-0.35  N 
ATOM     41 H    ALA E  68      10.567   7.645  24.322  1.00 18.16 LIG 0.16  HD
ATOM     42  C   TRP E  67      10.276   8.305  26.121  1.00 18.88 LIG 0.24  C 
ATOM     43 O    TRP E  67       9.480   8.391  27.070  1.00 21.47 LIG-0.27  OA
BRANCH 42 44
ATOM     44  CA  TRP E  67      11.681   8.766  26.261  1.00 17.18 LIG 0.18  C 
BRANCH 44 45
ATOM     45  N   TRP E  67      11.779  10.081  26.990  1.00 16.72 LIG-0.35  N 
ATOM     46  C   PRO E  66      11.017  11.154  26.729  1.00 16.87 LIG 0.24  C 
ATOM     47 O    PRO E  66      10.251  11.232  25.770  1.00 18.41 LIG-0.27  OA
ATOM     48 H    TRP E  67      12.381  10.081  27.604  1.00 16.72 LIG 0.16  HD
BRANCH 46 49
ATOM     49  CA  PRO E  66      11.146  12.379  27.666  1.00 17.04 LIG 0.18  C 
ATOM     50  CB  PRO E  66      10.321  13.576  27.164  1.00 18.40 LIG 0.04  C 
ATOM     51  CG  PRO E  66      11.301  14.550  26.577  1.00 18.41 LIG 0.02  C 
ATOM     52  CD  PRO E  66      12.588  14.336  27.323  1.00 21.21 LIG 0.13  C 
ATOM     53  N   PRO E  66      12.502  12.948  27.799  1.00 19.82 LIG-0.34  N 
ATOM     54  C   ACE E  65      13.457  12.206  28.442  1.00 17.72 LIG 0.22  C 
ATOM     55  CH3 ACE E  65      14.786  12.821  28.610  1.00 22.93 LIG 0.12  C 
ATOM     56 O    ACE E  65      13.280  11.076  28.832  1.00 18.13 LIG-0.27  OA
ENDBRANCH 46 49
ENDBRANCH 44 45
BRANCH 44 57
ATOM     57  CB  TRP E  67      12.564   7.689  26.944  1.00 18.36 LIG 0.07  C 
BRANCH 57 58
ATOM     58  CG  TRP E  67      11.897   6.952  27.990  1.00 19.51 LIG-0.03  A 
ATOM     59  CD1 TRP E  67      11.545   5.647  27.969  1.00 20.71 LIG 0.10  A 
ATOM     60  NE1 TRP E  67      10.943   5.305  29.144  1.00 21.73 LIG-0.36  N 
ATOM     61  CE2 TRP E  67      10.898   6.405  29.952  1.00 22.59 LIG 0.04  A 
ATOM     62 HE1  TRP E  67      10.641   4.524  29.343  1.00 21.73 LIG 0.17  HD
ATOM     63  CD2 TRP E  67      11.499   7.464  29.247  1.00 20.57 LIG-0.00  A 
ATOM     64  CZ2 TRP E  67      10.390   6.561  31.232  1.00 23.91 LIG 0.03  A 
ATOM     65  CE3 TRP E  67      11.590   8.716  29.855  1.00 19.56 LIG 0.01  A 
ATOM     66  CZ3 TRP E  67      11.095   8.871  31.106  1.00 20.82 LIG 0.00  A 
ATOM     67  CH2 TRP E  67      10.499   7.802  31.795  1.00 24.07 LIG 0.00  A 
ENDBRANCH 57 58
ENDBRANCH 44 57
ENDBRANCH 42 44
ENDBRANCH 38 40
ENDBRANCH 1 38
TORSDOF 23
ENDMDL
MODEL 66
USER: ADFR SOLUTION from run 151
USER: SCORE 18.319271 LL:  -6.239 LR: -14.065 RR:   0.000 FEB:  -7.205
USER: RMSD 11.752905
USER: SEED 150
USER: STATUS no improvement in best in 12 clusters for 5 generations
USER: GENES 25
USER: genes 0 Translation |==|  0.57023 0.56746 0.38624
USER: genes 1 Rotation |==|  0.63768 0.47118 0.97909 0.52614
USER: genes 2 Torsion [C]-N--CA-[C] |==|  0.16384
USER: genes 3 Torsion [N]-CA--C-[N] |==|  0.40316
USER: genes 4 Torsion [C]-N--CA-[C] |==|  0.79186
USER: genes 5 Torsion [N]-CA--C-[N] |==|  0.97084
USER: genes 6 Torsion [C]-N--CA-[C] |==|  0.79254
USER: genes 7 Torsion [N]-CA--C-[N] |==|  0.83333
USER: genes 8 Torsion [C]-N--CA-[CB] |==|  0.82148
USER: genes 9 Torsion [N]-CA--C-[N] |==|  0.41562
USER: genes 10 Torsion [N]-CA--CB-[OG] |==|  0.91401
USER: genes 11 Torsion [CA]-CB--OG-[HG] |==|  0.04886
USER: genes 12 Torsion [N]-CA--CB-[CG] |==|  0.58269
USER: genes 13 Torsion [CA]-CB--CG-[OD2] |==|  0.96821
USER: genes 14 Torsion [N]-CA--CB-[SG] |==|  0.32526
USER: genes 15 Torsion [CA]-CB--SG-[HG] |==|  0.67993
USER: genes 16 Torsion [N]-CA--CB-[OG1] |==|  0.25775
USER: genes 17 Torsion [CA]-CB--OG1-[HG1] |==|  0.84365
USER: genes 18 Torsion [N]-C--CA-[N] |==|  0.94425
USER: genes 19 Torsion [C]-CA--N-[C] |==|  0.81607
USER: genes 20 Torsion [N]-C--CA-[N] |==|  0.92418
USER: genes 21 Torsion [C]-CA--N-[C] |==|  0.66128
USER: genes 22 Torsion [N]-C--CA-[N] |==|  0.02384
USER: genes 23 Torsion [C]-CA--CB-[CG] |==|  0.51854
USER: genes 24 Torsion [CA]-CB--CG-[CD2] |==|  0.32106
ROOT
ATOM      1  C   ALA E  68       8.590   5.363  25.991  1.00 21.38 LIG 0.24  C 
ATOM      2 O    ALA E  68       7.955   6.342  26.396  1.00 23.30 LIG-0.27  OA
ATOM      3  N   THR E  69       9.718   5.460  25.278  1.00 18.30 LIG-0.34  N 
ATOM      4 H    THR E  69      10.111   4.793  24.904  1.00 18.30 LIG 0.16  HD
ENDROOT
BRANCH 3 5
ATOM      5  CA  THR E  69      10.383   6.746  25.079  1.00 19.45 LIG 0.20  C 
BRANCH 5 6
ATOM      6  C   THR E  69      10.779   7.400  26.416  1.00 19.66 LIG 0.24  C 
ATOM      7  N   CYS E  70      11.903   8.094  26.433  1.00 18.57 LIG-0.34  N 
ATOM      8 H    CYS E  70      12.384   8.249  25.737  1.00 18.57 LIG 0.16  HD
ATOM      9 O    THR E  69      10.095   7.259  27.410  1.00 20.15 LIG-0.27  OA
BRANCH 7 10
ATOM     10  CA  CYS E  70      12.423   8.661  27.665  1.00 18.45 LIG 0.18  C 
BRANCH 10 11
ATOM     11  C   CYS E  70      11.560   9.867  27.985  1.00 19.42 LIG 0.24  C 
ATOM     12  N   ASP E  71      10.715  10.260  27.015  1.00 17.61 LIG-0.34  N 
ATOM     13 H    ASP E  71      10.677   9.886  26.242  1.00 17.61 LIG 0.16  HD
ATOM     14 O    CYS E  70      11.699  10.438  29.072  1.00 18.07 LIG-0.27  OA
BRANCH 12 15
ATOM     15  CA  ASP E  71       9.783  11.358  27.179  1.00 16.95 LIG 0.19  C 
BRANCH 15 16
ATOM     16  C   ASP E  71       8.706  10.798  28.059  1.00 18.90 LIG 0.24  C 
ATOM     17 O    ASP E  71       8.486  11.320  29.180  1.00 16.52 LIG-0.27  OA
ATOM     18  N   SER E  72       8.052   9.737  27.585  1.00 19.80 LIG-0.34  N 
ATOM     19 H    SER E  72       8.245   9.339  26.847  1.00 19.80 LIG 0.16  HD
BRANCH 18 20
ATOM     20  CA  SER E  72       6.926   9.160  28.311  1.00 20.01 LIG 0.20  C 
BRANCH 20 21
ATOM     21  C   SER E  72       5.803  10.121  28.546  1.00 24.22 LIG 0.29  C 
ATOM     22  N   NH2 E  73       4.548   9.550  28.603  1.00 28.43 LIG-0.11  N 
ATOM     23 O    SER E  72       5.972  11.315  28.447  1.00 27.83 LIG-0.27  OA
ENDBRANCH 20 21
BRANCH 20 24
ATOM     24  CB  SER E  72       7.390   8.606  29.637  1.00 25.59 LIG 0.20  C 
BRANCH 24 25
ATOM     25 OG   SER E  72       8.716   8.145  29.554  1.00 28.15 LIG-0.40  OA
ATOM     26 HG   SER E  72       9.085   8.472  28.873  1.00 28.15 LIG 0.21  HD
ENDBRANCH 24 25
ENDBRANCH 20 24
ENDBRANCH 18 20
ENDBRANCH 15 16
BRANCH 15 27
ATOM     27  CB  ASP E  71       9.247  11.836  25.820  1.00 12.80 LIG 0.15  C 
BRANCH 27 28
ATOM     28  CG  ASP E  71       8.902  13.300  25.834  1.00 14.21 LIG 0.17  C 
ATOM     29 OD2  ASP E  71       8.854  13.933  26.898  1.00 15.44 LIG-0.65  OA
ATOM     30 OD1  ASP E  71       8.640  13.843  24.751  1.00 16.80 LIG-0.65  OA
ENDBRANCH 27 28
ENDBRANCH 15 27
ENDBRANCH 12 15
ENDBRANCH 10 11
BRANCH 10 31
ATOM     31  CB  CYS E  70      13.920   9.050  27.517  1.00 19.19 LIG 0.10  C 
BRANCH 31 32
ATOM     32 SG   CYS E  70      14.327  10.802  27.693  1.00 25.14 LIG-0.18  SA
ATOM     33 HG   CYS E  70      14.749  11.223  26.651  1.00 25.14 LIG 0.10  HD
ENDBRANCH 31 32
ENDBRANCH 10 31
ENDBRANCH 7 10
ENDBRANCH 5 6
BRANCH 5 34
ATOM     34  CB  THR E  69       9.504   7.677  24.223  1.00 17.77 LIG 0.15  C 
ATOM     35  CG2 THR E  69       8.596   6.870  23.360  1.00 20.71 LIG 0.04  C 
BRANCH 34 36
ATOM     36 OG1  THR E  69       8.686   8.495  25.038  1.00 16.43 LIG-0.39  OA
ATOM     37 HG1  THR E  69       8.223   8.012  25.545  1.00 16.43 LIG 0.21  HD
ENDBRANCH 34 36
ENDBRANCH 5 34
ENDBRANCH 3 5
BRANCH 1 38
ATOM     38  CA  ALA E  68       8.088   3.958  26.311  1.00 20.08 LIG 0.17  C 
ATOM     39  CB  ALA E  68       8.422   3.589  27.736  1.00 20.16 LIG 0.04  C 
BRANCH 38 40
ATOM     40  N   ALA E  68       8.658   2.997  25.407  1.00 18.16 LIG-0.35  N 
ATOM     41 H    ALA E  68       9.192   2.430  25.771  1.00 18.16 LIG 0.16  HD
ATOM     42  C   TRP E  67       8.357   3.019  24.123  1.00 18.88 LIG 0.24  C 
ATOM     43 O    TRP E  67       7.632   3.870  23.583  1.00 21.47 LIG-0.27  OA
BRANCH 42 44
ATOM     44  CA  TRP E  67       9.043   1.978  23.315  1.00 17.18 LIG 0.18  C 
BRANCH 44 45
ATOM     45  N   TRP E  67      10.360   1.566  23.917  1.00 16.72 LIG-0.35  N 
ATOM     46  C   PRO E  66      11.543   1.650  23.289  1.00 16.87 LIG 0.24  C 
ATOM     47 O    PRO E  66      11.668   1.940  22.101  1.00 18.41 LIG-0.27  OA
ATOM     48 H    TRP E  67      10.285   1.265  24.719  1.00 16.72 LIG 0.16  HD
BRANCH 46 49
ATOM     49  CA  PRO E  66      12.820   1.321  24.101  1.00 17.04 LIG 0.18  C 
ATOM     50  CB  PRO E  66      13.677   0.246  23.413  1.00 18.40 LIG 0.04  C 
ATOM     51  CG  PRO E  66      13.462  -1.024  24.182  1.00 18.41 LIG 0.02  C 
ATOM     52  CD  PRO E  66      13.147  -0.603  25.590  1.00 21.21 LIG 0.13  C 
ATOM     53  N   PRO E  66      12.598   0.752  25.446  1.00 19.82 LIG-0.34  N 
ATOM     54  C   ACE E  65      12.049   1.557  26.409  1.00 17.72 LIG 0.22  C 
ATOM     55  CH3 ACE E  65      11.890   0.981  27.756  1.00 22.93 LIG 0.12  C 
ATOM     56 O    ACE E  65      11.655   2.680  26.201  1.00 18.13 LIG-0.27  OA
ENDBRANCH 46 49
ENDBRANCH 44 45
BRANCH 44 57
ATOM     57  CB  TRP E  67       8.129   0.745  23.088  1.00 18.36 LIG 0.07  C 
BRANCH 57 58
ATOM     58  CG  TRP E  67       8.783  -0.366  22.440  1.00 19.51 LIG-0.03  A 
ATOM     59  CD1 TRP E  67       9.300  -0.391  21.192  1.00 20.71 LIG 0.10  A 
ATOM     60  NE1 TRP E  67       9.848  -1.613  20.934  1.00 21.73 LIG-0.36  N 
ATOM     61  CE2 TRP E  67       9.687  -2.407  22.034  1.00 22.59 LIG 0.04  A 
ATOM     62 HE1  TRP E  67      10.231  -1.846  20.200  1.00 21.73 LIG 0.17  HD
ATOM     63  CD2 TRP E  67       9.018  -1.641  23.007  1.00 20.57 LIG-0.00  A 
ATOM     64  CZ2 TRP E  67      10.073  -3.718  22.260  1.00 23.91 LIG 0.03  A 
ATOM     65  CE3 TRP E  67       8.732  -2.219  24.243  1.00 19.56 LIG 0.01  A 
ATOM     66  CZ3 TRP E  67       9.108  -3.499  24.467  1.00 20.82 LIG 0.00  A 
ATOM     67  CH2 TRP E  67       9.776  -4.249  23.485  1.00 24.07 LIG 0.00  A 
ENDBRANCH 57 58
ENDBRANCH 44 57
ENDBRANCH 42 44
ENDBRANCH 38 40
ENDBRANCH 1 38
TORSDOF 23
ENDMDL
MODEL 67
USER: ADFR SOLUTION from run 161
USER: SCORE 18.312694 LL:  -6.103 LR: -14.066 RR:   0.000 FEB:  -7.205
USER: RMSD 5.680424
USER: SEED 160
USER: STATUS no improvement in best in 2 clusters for 5 generations
USER: GENES 25
USER: genes 0 Translation |==|  0.57263 0.51866 0.42962
USER: genes 1 Rotation |==|  0.19555 0.12353 0.42051 0.59624
USER: genes 2 Torsion [C]-N--CA-[C] |==|  0.62305
USER: genes 3 Torsion [N]-CA--C-[N] |==|  0.55362
USER: genes 4 Torsion [C]-N--CA-[C] |==|  0.76836
USER: genes 5 Torsion [N]-CA--C-[N] |==|  0.97855
USER: genes 6 Torsion [C]-N--CA-[C] |==|  0.61314
USER: genes 7 Torsion [N]-CA--C-[N] |==|  0.89839
USER: genes 8 Torsion [C]-N--CA-[CB] |==|  0.79999
USER: genes 9 Torsion [N]-CA--C-[N] |==|  0.12786
USER: genes 10 Torsion [N]-CA--CB-[OG] |==|  0.19660
USER: genes 11 Torsion [CA]-CB--OG-[HG] |==|  0.08284
USER: genes 12 Torsion [N]-CA--CB-[CG] |==|  0.57208
USER: genes 13 Torsion [CA]-CB--CG-[OD2] |==|  0.91601
USER: genes 14 Torsion [N]-CA--CB-[SG] |==|  0.97505
USER: genes 15 Torsion [CA]-CB--SG-[HG] |==|  0.07404
USER: genes 16 Torsion [N]-CA--CB-[OG1] |==|  0.26914
USER: genes 17 Torsion [CA]-CB--OG1-[HG1] |==|  0.64126
USER: genes 18 Torsion [N]-C--CA-[N] |==|  0.41770
USER: genes 19 Torsion [C]-CA--N-[C] |==|  0.82079
USER: genes 20 Torsion [N]-C--CA-[N] |==|  0.94763
USER: genes 21 Torsion [C]-CA--N-[C] |==|  0.80703
USER: genes 22 Torsion [N]-C--CA-[N] |==|  0.97047
USER: genes 23 Torsion [C]-CA--CB-[CG] |==|  0.65971
USER: genes 24 Torsion [CA]-CB--CG-[CD2] |==|  0.75321
ROOT
ATOM      1  C   ALA E  68       8.639   3.972  26.641  1.00 21.38 LIG 0.24  C 
ATOM      2 O    ALA E  68       7.603   4.422  27.144  1.00 23.30 LIG-0.27  OA
ATOM      3  N   THR E  69       8.702   2.788  26.022  1.00 18.30 LIG-0.34  N 
ATOM      4 H    THR E  69       9.434   2.419  25.761  1.00 18.30 LIG 0.16  HD
ENDROOT
BRANCH 3 5
ATOM      5  CA  THR E  69       7.496   2.013  25.735  1.00 19.45 LIG 0.20  C 
BRANCH 5 6
ATOM      6  C   THR E  69       7.679   0.522  26.074  1.00 19.66 LIG 0.24  C 
ATOM      7  N   CYS E  70       6.838  -0.326  25.512  1.00 18.57 LIG-0.34  N 
ATOM      8 H    CYS E  70       6.246  -0.103  24.929  1.00 18.57 LIG 0.16  HD
ATOM      9 O    THR E  69       8.545   0.155  26.843  1.00 20.15 LIG-0.27  OA
BRANCH 7 10
ATOM     10  CA  CYS E  70       6.854  -1.741  25.845  1.00 18.45 LIG 0.18  C 
BRANCH 10 11
ATOM     11  C   CYS E  70       7.935  -2.375  24.990  1.00 19.42 LIG 0.24  C 
ATOM     12  N   ASP E  71       8.486  -1.582  24.055  1.00 17.61 LIG-0.34  N 
ATOM     13 H    ASP E  71       8.231  -0.774  23.910  1.00 17.61 LIG 0.16  HD
ATOM     14 O    CYS E  70       8.220  -3.565  25.163  1.00 18.07 LIG-0.27  OA
BRANCH 12 15
ATOM     15  CA  ASP E  71       9.570  -2.015  23.194  1.00 16.95 LIG 0.19  C 
BRANCH 15 16
ATOM     16  C   ASP E  71      10.479  -0.825  23.122  1.00 18.90 LIG 0.24  C 
ATOM     17 O    ASP E  71      11.724  -0.996  23.105  1.00 16.52 LIG-0.27  OA
ATOM     18  N   SER E  72       9.885   0.369  23.101  1.00 19.80 LIG-0.34  N 
ATOM     19 H    SER E  72       9.037   0.489  23.177  1.00 19.80 LIG 0.16  HD
BRANCH 18 20
ATOM     20  CA  SER E  72      10.663   1.593  22.942  1.00 20.01 LIG 0.20  C 
BRANCH 20 21
ATOM     21  C   SER E  72      11.604   1.565  21.780  1.00 24.22 LIG 0.29  C 
ATOM     22  N   NH2 E  73      11.063   1.091  20.602  1.00 28.43 LIG-0.11  N 
ATOM     23 O    SER E  72      12.794   1.716  21.935  1.00 27.83 LIG-0.27  OA
ENDBRANCH 20 21
BRANCH 20 24
ATOM     24  CB  SER E  72      11.441   1.883  24.204  1.00 25.59 LIG 0.20  C 
BRANCH 24 25
ATOM     25 OG   SER E  72      12.491   0.962  24.371  1.00 28.15 LIG-0.40  OA
ATOM     26 HG   SER E  72      12.758   0.701  23.618  1.00 28.15 LIG 0.21  HD
ENDBRANCH 24 25
ENDBRANCH 20 24
ENDBRANCH 18 20
ENDBRANCH 15 16
BRANCH 15 27
ATOM     27  CB  ASP E  71       9.043  -2.441  21.814  1.00 12.80 LIG 0.15  C 
BRANCH 27 28
ATOM     28  CG  ASP E  71       9.952  -3.436  21.146  1.00 14.21 LIG 0.17  C 
ATOM     29 OD2  ASP E  71      11.173  -3.427  21.360  1.00 15.44 LIG-0.65  OA
ATOM     30 OD1  ASP E  71       9.444  -4.245  20.357  1.00 16.80 LIG-0.65  OA
ENDBRANCH 27 28
ENDBRANCH 15 27
ENDBRANCH 12 15
ENDBRANCH 10 11
BRANCH 10 31
ATOM     31  CB  CYS E  70       5.466  -2.393  25.593  1.00 19.19 LIG 0.10  C 
BRANCH 31 32
ATOM     32 SG   CYS E  70       4.100  -1.274  25.204  1.00 25.14 LIG-0.18  SA
ATOM     33 HG   CYS E  70       4.532  -0.275  24.698  1.00 25.14 LIG 0.10  HD
ENDBRANCH 31 32
ENDBRANCH 10 31
ENDBRANCH 7 10
ENDBRANCH 5 6
BRANCH 5 34
ATOM     34  CB  THR E  69       7.062   2.221  24.273  1.00 17.77 LIG 0.15  C 
ATOM     35  CG2 THR E  69       7.636   3.490  23.745  1.00 20.71 LIG 0.04  C 
BRANCH 34 36
ATOM     36 OG1  THR E  69       7.537   1.173  23.448  1.00 16.43 LIG-0.39  OA
ATOM     37 HG1  THR E  69       7.929   1.498  22.781  1.00 16.43 LIG 0.21  HD
ENDBRANCH 34 36
ENDBRANCH 5 34
ENDBRANCH 3 5
BRANCH 1 38
ATOM     38  CA  ALA E  68       9.924   4.791  26.711  1.00 20.08 LIG 0.17  C 
ATOM     39  CB  ALA E  68      10.729   4.407  27.930  1.00 20.16 LIG 0.04  C 
BRANCH 38 40
ATOM     40  N   ALA E  68       9.629   6.197  26.739  1.00 18.16 LIG-0.35  N 
ATOM     41 H    ALA E  68       9.857   6.601  27.464  1.00 18.16 LIG 0.16  HD
ATOM     42  C   TRP E  67       9.051   6.784  25.710  1.00 18.88 LIG 0.24  C 
ATOM     43 O    TRP E  67       8.668   6.196  24.686  1.00 21.47 LIG-0.27  OA
BRANCH 42 44
ATOM     44  CA  TRP E  67       8.790   8.235  25.898  1.00 17.18 LIG 0.18  C 
BRANCH 44 45
ATOM     45  N   TRP E  67       8.814   8.633  27.350  1.00 16.72 LIG-0.35  N 
ATOM     46  C   PRO E  66       7.888   8.276  28.253  1.00 16.87 LIG 0.24  C 
ATOM     47 O    PRO E  66       6.840   7.701  27.966  1.00 18.41 LIG-0.27  OA
ATOM     48 H    TRP E  67       9.492   9.122  27.553  1.00 16.72 LIG 0.16  HD
BRANCH 46 49
ATOM     49  CA  PRO E  66       8.138   8.650  29.734  1.00 17.04 LIG 0.18  C 
ATOM     50  CB  PRO E  66       7.229   9.799  30.199  1.00 18.40 LIG 0.04  C 
ATOM     51  CG  PRO E  66       8.094  11.024  30.262  1.00 18.41 LIG 0.02  C 
ATOM     52  CD  PRO E  66       9.482  10.531  30.559  1.00 21.21 LIG 0.13  C 
ATOM     53  N   PRO E  66       9.490   9.152  30.052  1.00 19.82 LIG-0.34  N 
ATOM     54  C   ACE E  65      10.543   8.280  29.970  1.00 17.72 LIG 0.22  C 
ATOM     55  CH3 ACE E  65      11.873   8.793  30.346  1.00 22.93 LIG 0.12  C 
ATOM     56 O    ACE E  65      10.445   7.144  29.570  1.00 18.13 LIG-0.27  OA
ENDBRANCH 46 49
ENDBRANCH 44 45
BRANCH 44 57
ATOM     57  CB  TRP E  67       9.777   9.099  25.070  1.00 18.36 LIG 0.07  C 
BRANCH 57 58
ATOM     58  CG  TRP E  67      10.549  10.032  25.855  1.00 19.51 LIG-0.03  A 
ATOM     59  CD1 TRP E  67      11.767   9.823  26.402  1.00 20.71 LIG 0.10  A 
ATOM     60  NE1 TRP E  67      12.182  10.940  27.064  1.00 21.73 LIG-0.36  N 
ATOM     61  CE2 TRP E  67      11.220  11.902  26.951  1.00 22.59 LIG 0.04  A 
ATOM     62 HE1  TRP E  67      12.928  11.025  27.484  1.00 21.73 LIG 0.17  HD
ATOM     63  CD2 TRP E  67      10.173  11.355  26.186  1.00 20.57 LIG-0.00  A 
ATOM     64  CZ2 TRP E  67      11.178  13.196  27.444  1.00 23.91 LIG 0.03  A 
ATOM     65  CE3 TRP E  67       9.053  12.140  25.912  1.00 19.56 LIG 0.01  A 
ATOM     66  CZ3 TRP E  67       9.011  13.405  26.392  1.00 20.82 LIG 0.00  A 
ATOM     67  CH2 TRP E  67      10.066  13.935  27.154  1.00 24.07 LIG 0.00  A 
ENDBRANCH 57 58
ENDBRANCH 44 57
ENDBRANCH 42 44
ENDBRANCH 38 40
ENDBRANCH 1 38
TORSDOF 23
ENDMDL
MODEL 68
USER: ADFR SOLUTION from run 147
USER: SCORE 16.951226 LL:  -4.844 LR: -14.055 RR:   0.000 FEB:  -7.194
USER: RMSD 6.712643
USER: SEED 146
USER: STATUS no improvement in best in 2 clusters for 5 generations
USER: GENES 25
USER: genes 0 Translation |==|  0.57860 0.60995 0.34102
USER: genes 1 Rotation |==|  0.31860 0.07257 0.62493 0.63707
USER: genes 2 Torsion [C]-N--CA-[C] |==|  0.59142
USER: genes 3 Torsion [N]-CA--C-[N] |==|  0.39625
USER: genes 4 Torsion [C]-N--CA-[C] |==|  0.79355
USER: genes 5 Torsion [N]-CA--C-[N] |==|  0.94235
USER: genes 6 Torsion [C]-N--CA-[C] |==|  0.83521
USER: genes 7 Torsion [N]-CA--C-[N] |==|  0.89016
USER: genes 8 Torsion [C]-N--CA-[CB] |==|  0.80170
USER: genes 9 Torsion [N]-CA--C-[N] |==|  0.20222
USER: genes 10 Torsion [N]-CA--CB-[OG] |==|  0.84944
USER: genes 11 Torsion [CA]-CB--OG-[HG] |==|  0.54283
USER: genes 12 Torsion [N]-CA--CB-[CG] |==|  0.61603
USER: genes 13 Torsion [CA]-CB--CG-[OD2] |==|  0.80849
USER: genes 14 Torsion [N]-CA--CB-[SG] |==|  0.67494
USER: genes 15 Torsion [CA]-CB--SG-[HG] |==|  0.84265
USER: genes 16 Torsion [N]-CA--CB-[OG1] |==|  0.03846
USER: genes 17 Torsion [CA]-CB--OG1-[HG1] |==|  0.24814
USER: genes 18 Torsion [N]-C--CA-[N] |==|  0.74780
USER: genes 19 Torsion [C]-CA--N-[C] |==|  0.79480
USER: genes 20 Torsion [N]-C--CA-[N] |==|  0.36989
USER: genes 21 Torsion [C]-CA--N-[C] |==|  0.57222
USER: genes 22 Torsion [N]-C--CA-[N] |==|  0.13561
USER: genes 23 Torsion [C]-CA--CB-[CG] |==|  0.38390
USER: genes 24 Torsion [CA]-CB--CG-[CD2] |==|  0.26662
ROOT
ATOM      1  C   ALA E  68       8.760   6.574  25.312  1.00 21.38 LIG 0.24  C 
ATOM      2 O    ALA E  68       7.919   6.662  26.214  1.00 23.30 LIG-0.27  OA
ATOM      3  N   THR E  69       9.462   5.462  25.067  1.00 18.30 LIG-0.34  N 
ATOM      4 H    THR E  69      10.120   5.419  24.514  1.00 18.30 LIG 0.16  HD
ENDROOT
BRANCH 3 5
ATOM      5  CA  THR E  69       9.153   4.203  25.741  1.00 19.45 LIG 0.20  C 
BRANCH 5 6
ATOM      6  C   THR E  69      10.417   3.356  25.981  1.00 19.66 LIG 0.24  C 
ATOM      7  N   CYS E  70      10.478   2.681  27.115  1.00 18.57 LIG-0.34  N 
ATOM      8 H    CYS E  70       9.837   2.639  27.686  1.00 18.57 LIG 0.16  HD
ATOM      9 O    THR E  69      11.322   3.335  25.171  1.00 20.15 LIG-0.27  OA
BRANCH 7 10
ATOM     10  CA  CYS E  70      11.669   1.938  27.490  1.00 18.45 LIG 0.18  C 
BRANCH 10 11
ATOM     11  C   CYS E  70      11.695   0.695  26.620  1.00 19.42 LIG 0.24  C 
ATOM     12  N   ASP E  71      10.518   0.328  26.082  1.00 17.61 LIG-0.34  N 
ATOM     13 H    ASP E  71       9.779   0.740  26.237  1.00 17.61 LIG 0.16  HD
ATOM     14 O    CYS E  70      12.755   0.074  26.485  1.00 18.07 LIG-0.27  OA
BRANCH 12 15
ATOM     15  CA  ASP E  71      10.380  -0.801  25.183  1.00 16.95 LIG 0.19  C 
BRANCH 15 16
ATOM     16  C   ASP E  71      11.285  -0.469  24.035  1.00 18.90 LIG 0.24  C 
ATOM     17 O    ASP E  71      11.989  -1.372  23.519  1.00 16.52 LIG-0.27  OA
ATOM     18  N   SER E  72      11.295   0.806  23.643  1.00 19.80 LIG-0.34  N 
ATOM     19 H    SER E  72      10.862   1.436  24.036  1.00 19.80 LIG 0.16  HD
BRANCH 18 20
ATOM     20  CA  SER E  72      12.068   1.229  22.480  1.00 20.01 LIG 0.20  C 
BRANCH 20 21
ATOM     21  C   SER E  72      11.804   0.418  21.251  1.00 24.22 LIG 0.29  C 
ATOM     22  N   NH2 E  73      10.583   0.647  20.651  1.00 28.43 LIG-0.11  N 
ATOM     23 O    SER E  72      12.505  -0.526  20.963  1.00 27.83 LIG-0.27  OA
ENDBRANCH 20 21
BRANCH 20 24
ATOM     24  CB  SER E  72      13.545   1.190  22.794  1.00 25.59 LIG 0.20  C 
BRANCH 24 25
ATOM     25 OG   SER E  72      13.836   1.940  23.947  1.00 28.15 LIG-0.40  OA
ATOM     26 HG   SER E  72      14.663   2.083  23.987  1.00 28.15 LIG 0.21  HD
ENDBRANCH 24 25
ENDBRANCH 20 24
ENDBRANCH 18 20
ENDBRANCH 15 16
BRANCH 15 27
ATOM     27  CB  ASP E  71       8.917  -0.986  24.749  1.00 12.80 LIG 0.15  C 
BRANCH 27 28
ATOM     28  CG  ASP E  71       8.511  -2.435  24.739  1.00 14.21 LIG 0.17  C 
ATOM     29 OD2  ASP E  71       8.980  -3.221  23.903  1.00 15.44 LIG-0.65  OA
ATOM     30 OD1  ASP E  71       7.674  -2.807  25.573  1.00 16.80 LIG-0.65  OA
ENDBRANCH 27 28
ENDBRANCH 15 27
ENDBRANCH 12 15
ENDBRANCH 10 11
BRANCH 10 31
ATOM     31  CB  CYS E  70      11.656   1.580  29.002  1.00 19.19 LIG 0.10  C 
BRANCH 31 32
ATOM     32 SG   CYS E  70      12.974   2.290  30.016  1.00 25.14 LIG-0.18  SA
ATOM     33 HG   CYS E  70      14.041   1.975  29.565  1.00 25.14 LIG 0.10  HD
ENDBRANCH 31 32
ENDBRANCH 10 31
ENDBRANCH 7 10
ENDBRANCH 5 6
BRANCH 5 34
ATOM     34  CB  THR E  69       8.082   3.424  24.956  1.00 17.77 LIG 0.15  C 
ATOM     35  CG2 THR E  69       6.766   3.527  25.647  1.00 20.71 LIG 0.04  C 
BRANCH 34 36
ATOM     36 OG1  THR E  69       7.913   3.962  23.657  1.00 16.43 LIG-0.39  OA
ATOM     37 HG1  THR E  69       8.444   3.584  23.127  1.00 16.43 LIG 0.21  HD
ENDBRANCH 34 36
ENDBRANCH 5 34
ENDBRANCH 3 5
BRANCH 1 38
ATOM     38  CA  ALA E  68       9.026   7.778  24.414  1.00 20.08 LIG 0.17  C 
ATOM     39  CB  ALA E  68       9.415   7.327  23.027  1.00 20.16 LIG 0.04  C 
BRANCH 38 40
ATOM     40  N   ALA E  68      10.059   8.607  24.970  1.00 18.16 LIG-0.35  N 
ATOM     41 H    ALA E  68      10.818   8.559  24.568  1.00 18.16 LIG 0.16  HD
ATOM     42  C   TRP E  67       9.820   9.370  26.019  1.00 18.88 LIG 0.24  C 
ATOM     43 O    TRP E  67       8.744   9.399  26.638  1.00 21.47 LIG-0.27  OA
BRANCH 42 44
ATOM     44  CA  TRP E  67      10.993  10.150  26.491  1.00 17.18 LIG 0.18  C 
BRANCH 44 45
ATOM     45  N   TRP E  67      10.648  11.593  26.751  1.00 16.72 LIG-0.35  N 
ATOM     46  C   PRO E  66      11.526  12.607  26.694  1.00 16.87 LIG 0.24  C 
ATOM     47 O    PRO E  66      12.739  12.455  26.564  1.00 18.41 LIG-0.27  OA
ATOM     48 H    TRP E  67       9.819  11.712  26.943  1.00 16.72 LIG 0.16  HD
BRANCH 46 49
ATOM     49  CA  PRO E  66      10.979  14.048  26.846  1.00 17.04 LIG 0.18  C 
ATOM     50  CB  PRO E  66      12.104  15.065  27.099  1.00 18.40 LIG 0.04  C 
ATOM     51  CG  PRO E  66      12.034  15.419  28.557  1.00 18.41 LIG 0.02  C 
ATOM     52  CD  PRO E  66      10.594  15.249  28.952  1.00 21.21 LIG 0.13  C 
ATOM     53  N   PRO E  66      10.069  14.274  27.987  1.00 19.82 LIG-0.34  N 
ATOM     54  C   ACE E  65       8.834  13.681  27.960  1.00 17.72 LIG 0.22  C 
ATOM     55  CH3 ACE E  65       7.926  13.968  29.085  1.00 22.93 LIG 0.12  C 
ATOM     56 O    ACE E  65       8.477  12.912  27.099  1.00 18.13 LIG-0.27  OA
ENDBRANCH 46 49
ENDBRANCH 44 45
BRANCH 44 57
ATOM     57  CB  TRP E  67      11.636   9.501  27.744  1.00 18.36 LIG 0.07  C 
BRANCH 57 58
ATOM     58  CG  TRP E  67      13.079   9.491  27.731  1.00 19.51 LIG-0.03  A 
ATOM     59  CD1 TRP E  67      13.881   8.589  27.122  1.00 20.71 LIG 0.10  A 
ATOM     60  NE1 TRP E  67      15.190   8.915  27.322  1.00 21.73 LIG-0.36  N 
ATOM     61  CE2 TRP E  67      15.250  10.052  28.075  1.00 22.59 LIG 0.04  A 
ATOM     62 HE1  TRP E  67      15.867   8.476  27.022  1.00 21.73 LIG 0.17  HD
ATOM     63  CD2 TRP E  67      13.926  10.442  28.347  1.00 20.57 LIG-0.00  A 
ATOM     64  CZ2 TRP E  67      16.343  10.770  28.535  1.00 23.91 LIG 0.03  A 
ATOM     65  CE3 TRP E  67      13.701  11.592  29.104  1.00 19.56 LIG 0.01  A 
ATOM     66  CZ3 TRP E  67      14.766  12.295  29.553  1.00 20.82 LIG 0.00  A 
ATOM     67  CH2 TRP E  67      16.082  11.892  29.272  1.00 24.07 LIG 0.00  A 
ENDBRANCH 57 58
ENDBRANCH 44 57
ENDBRANCH 42 44
ENDBRANCH 38 40
ENDBRANCH 1 38
TORSDOF 23
ENDMDL
MODEL 69
USER: ADFR SOLUTION from run 4
USER: SCORE 18.782214 LL:  -6.169 LR: -14.064 RR:   0.000 FEB:  -7.204
USER: RMSD 2.512022
USER: SEED 628659
USER: STATUS no improvement in best in 3 clusters for 5 generations
USER: GENES 25
USER: genes 0 Translation |==|  0.65624 0.58366 0.42193
USER: genes 1 Rotation |==|  0.52999 0.69523 0.46919 0.95830
USER: genes 2 Torsion [C]-N--CA-[C] |==|  0.77723
USER: genes 3 Torsion [N]-CA--C-[N] |==|  0.43885
USER: genes 4 Torsion [C]-N--CA-[C] |==|  0.60189
USER: genes 5 Torsion [N]-CA--C-[N] |==|  0.43069
USER: genes 6 Torsion [C]-N--CA-[C] |==|  0.77356
USER: genes 7 Torsion [N]-CA--C-[N] |==|  0.47193
USER: genes 8 Torsion [C]-N--CA-[CB] |==|  0.21737
USER: genes 9 Torsion [N]-CA--C-[N] |==|  0.02126
USER: genes 10 Torsion [N]-CA--CB-[OG] |==|  0.64344
USER: genes 11 Torsion [CA]-CB--OG-[HG] |==|  0.91691
USER: genes 12 Torsion [N]-CA--CB-[CG] |==|  0.77581
USER: genes 13 Torsion [CA]-CB--CG-[OD2] |==|  0.32618
USER: genes 14 Torsion [N]-CA--CB-[SG] |==|  0.83913
USER: genes 15 Torsion [CA]-CB--SG-[HG] |==|  0.56655
USER: genes 16 Torsion [N]-CA--CB-[OG1] |==|  0.94006
USER: genes 17 Torsion [CA]-CB--OG1-[HG1] |==|  0.16280
USER: genes 18 Torsion [N]-C--CA-[N] |==|  0.90709
USER: genes 19 Torsion [C]-CA--N-[C] |==|  0.72098
USER: genes 20 Torsion [N]-C--CA-[N] |==|  0.03472
USER: genes 21 Torsion [C]-CA--N-[C] |==|  0.59475
USER: genes 22 Torsion [N]-C--CA-[N] |==|  0.98717
USER: genes 23 Torsion [C]-CA--CB-[CG] |==|  0.69657
USER: genes 24 Torsion [CA]-CB--CG-[CD2] |==|  0.17907
ROOT
ATOM      1  C   ALA E  68      10.332   5.824  26.526  1.00 21.38 LIG 0.24  C 
ATOM      2 O    ALA E  68      10.658   4.887  25.790  1.00 23.30 LIG-0.27  OA
ATOM      3  N   THR E  69       9.374   5.731  27.455  1.00 18.30 LIG-0.34  N 
ATOM      4 H    THR E  69       9.067   6.401  27.900  1.00 18.30 LIG 0.16  HD
ENDROOT
BRANCH 3 5
ATOM      5  CA  THR E  69       8.762   4.448  27.790  1.00 19.45 LIG 0.20  C 
BRANCH 5 6
ATOM      6  C   THR E  69       7.683   4.042  26.768  1.00 19.66 LIG 0.24  C 
ATOM      7  N   CYS E  70       7.384   2.758  26.692  1.00 18.57 LIG-0.34  N 
ATOM      8 H    CYS E  70       7.706   2.156  27.215  1.00 18.57 LIG 0.16  HD
ATOM      9 O    THR E  69       7.155   4.870  26.053  1.00 20.15 LIG-0.27  OA
BRANCH 7 10
ATOM     10  CA  CYS E  70       6.460   2.255  25.690  1.00 18.45 LIG 0.18  C 
BRANCH 10 11
ATOM     11  C   CYS E  70       5.666   1.145  26.351  1.00 19.42 LIG 0.24  C 
ATOM     12  N   ASP E  71       4.452   0.897  25.828  1.00 17.61 LIG-0.34  N 
ATOM     13 H    ASP E  71       4.115   1.352  25.180  1.00 17.61 LIG 0.16  HD
ATOM     14 O    CYS E  70       6.140   0.567  27.335  1.00 18.07 LIG-0.27  OA
BRANCH 12 15
ATOM     15  CA  ASP E  71       3.590  -0.166  26.306  1.00 16.95 LIG 0.19  C 
BRANCH 15 16
ATOM     16  C   ASP E  71       4.112  -1.396  25.627  1.00 18.90 LIG 0.24  C 
ATOM     17 O    ASP E  71       4.948  -1.284  24.696  1.00 16.52 LIG-0.27  OA
ATOM     18  N   SER E  72       3.620  -2.559  26.057  1.00 19.80 LIG-0.34  N 
ATOM     19 H    SER E  72       3.001  -2.633  26.649  1.00 19.80 LIG 0.16  HD
BRANCH 18 20
ATOM     20  CA  SER E  72       4.118  -3.826  25.534  1.00 20.01 LIG 0.20  C 
BRANCH 20 21
ATOM     21  C   SER E  72       3.170  -4.969  25.715  1.00 24.22 LIG 0.29  C 
ATOM     22  N   NH2 E  73       1.922  -4.623  26.190  1.00 28.43 LIG-0.11  N 
ATOM     23 O    SER E  72       3.558  -6.115  25.678  1.00 27.83 LIG-0.27  OA
ENDBRANCH 20 21
BRANCH 20 24
ATOM     24  CB  SER E  72       5.441  -4.172  26.177  1.00 25.59 LIG 0.20  C 
BRANCH 24 25
ATOM     25 OG   SER E  72       6.412  -4.469  25.204  1.00 28.15 LIG-0.40  OA
ATOM     26 HG   SER E  72       6.038  -4.797  24.526  1.00 28.15 LIG 0.21  HD
ENDBRANCH 24 25
ENDBRANCH 20 24
ENDBRANCH 18 20
ENDBRANCH 15 16
BRANCH 15 27
ATOM     27  CB  ASP E  71       2.119   0.120  25.963  1.00 12.80 LIG 0.15  C 
BRANCH 27 28
ATOM     28  CG  ASP E  71       1.489   1.078  26.937  1.00 14.21 LIG 0.17  C 
ATOM     29 OD2  ASP E  71       1.066   2.181  26.561  1.00 15.44 LIG-0.65  OA
ATOM     30 OD1  ASP E  71       1.432   0.740  28.127  1.00 16.80 LIG-0.65  OA
ENDBRANCH 27 28
ENDBRANCH 15 27
ENDBRANCH 12 15
ENDBRANCH 10 11
BRANCH 10 31
ATOM     31  CB  CYS E  70       7.217   1.748  24.431  1.00 19.19 LIG 0.10  C 
BRANCH 31 32
ATOM     32 SG   CYS E  70       8.280   2.941  23.585  1.00 25.14 LIG-0.18  SA
ATOM     33 HG   CYS E  70       8.420   2.611  22.439  1.00 25.14 LIG 0.10  HD
ENDBRANCH 31 32
ENDBRANCH 10 31
ENDBRANCH 7 10
ENDBRANCH 5 6
BRANCH 5 34
ATOM     34  CB  THR E  69       8.209   4.477  29.227  1.00 17.77 LIG 0.15  C 
ATOM     35  CG2 THR E  69       8.479   3.180  29.905  1.00 20.71 LIG 0.04  C 
BRANCH 34 36
ATOM     36 OG1  THR E  69       8.839   5.488  29.993  1.00 16.43 LIG-0.39  OA
ATOM     37 HG1  THR E  69       8.719   6.233  29.626  1.00 16.43 LIG 0.21  HD
ENDBRANCH 34 36
ENDBRANCH 5 34
ENDBRANCH 3 5
BRANCH 1 38
ATOM     38  CA  ALA E  68      11.046   7.166  26.394  1.00 20.08 LIG 0.17  C 
ATOM     39  CB  ALA E  68      12.236   7.224  27.321  1.00 20.16 LIG 0.04  C 
BRANCH 38 40
ATOM     40  N   ALA E  68      10.147   8.250  26.678  1.00 18.16 LIG-0.35  N 
ATOM     41 H    ALA E  68      10.012   8.399  27.515  1.00 18.16 LIG 0.16  HD
ATOM     42  C   TRP E  67       9.591   8.938  25.700  1.00 18.88 LIG 0.24  C 
ATOM     43 O    TRP E  67       9.736   8.690  24.492  1.00 21.47 LIG-0.27  OA
BRANCH 42 44
ATOM     44  CA  TRP E  67       8.668  10.011  26.152  1.00 17.18 LIG 0.18  C 
BRANCH 44 45
ATOM     45  N   TRP E  67       8.791  10.282  27.629  1.00 16.72 LIG-0.35  N 
ATOM     46  C   PRO E  66       7.772  10.641  28.424  1.00 16.87 LIG 0.24  C 
ATOM     47 O    PRO E  66       6.650  10.928  28.010  1.00 18.41 LIG-0.27  OA
ATOM     48 H    TRP E  67       9.593  10.184  27.923  1.00 16.72 LIG 0.16  HD
BRANCH 46 49
ATOM     49  CA  PRO E  66       8.040  10.741  29.945  1.00 17.04 LIG 0.18  C 
ATOM     50  CB  PRO E  66       7.946  12.190  30.451  1.00 18.40 LIG 0.04  C 
ATOM     51  CG  PRO E  66       9.357  12.651  30.678  1.00 18.41 LIG 0.02  C 
ATOM     52  CD  PRO E  66      10.143  11.416  31.017  1.00 21.21 LIG 0.13  C 
ATOM     53  N   PRO E  66       9.384  10.324  30.391  1.00 19.82 LIG-0.34  N 
ATOM     54  C   ACE E  65       9.717   8.998  30.298  1.00 17.72 LIG 0.22  C 
ATOM     55  CH3 ACE E  65      11.044   8.602  30.801  1.00 22.93 LIG 0.12  C 
ATOM     56 O    ACE E  65       9.006   8.161  29.794  1.00 18.13 LIG-0.27  OA
ENDBRANCH 46 49
ENDBRANCH 44 45
BRANCH 44 57
ATOM     57  CB  TRP E  67       8.869  11.312  25.332  1.00 18.36 LIG 0.07  C 
BRANCH 57 58
ATOM     58  CG  TRP E  67       9.484  12.388  26.071  1.00 19.51 LIG-0.03  A 
ATOM     59  CD1 TRP E  67       8.924  13.573  26.401  1.00 20.71 LIG 0.10  A 
ATOM     60  NE1 TRP E  67       9.810  14.330  27.110  1.00 21.73 LIG-0.36  N 
ATOM     61  CE2 TRP E  67      10.974  13.630  27.248  1.00 22.59 LIG 0.04  A 
ATOM     62 HE1  TRP E  67       9.660  15.118  27.420  1.00 21.73 LIG 0.17  HD
ATOM     63  CD2 TRP E  67      10.796  12.393  26.601  1.00 20.57 LIG-0.00  A 
ATOM     64  CZ2 TRP E  67      12.158  13.969  27.883  1.00 23.91 LIG 0.03  A 
ATOM     65  CE3 TRP E  67      11.845  11.473  26.599  1.00 19.56 LIG 0.01  A 
ATOM     66  CZ3 TRP E  67      13.001  11.802  27.219  1.00 20.82 LIG 0.00  A 
ATOM     67  CH2 TRP E  67      13.162  13.042  27.861  1.00 24.07 LIG 0.00  A 
ENDBRANCH 57 58
ENDBRANCH 44 57
ENDBRANCH 42 44
ENDBRANCH 38 40
ENDBRANCH 1 38
TORSDOF 23
ENDMDL
MODEL 70
USER: ADFR SOLUTION from run 69
USER: SCORE 16.614980 LL:  -4.896 LR: -14.044 RR:   0.000 FEB:  -7.183
USER: RMSD 6.069290
USER: SEED 68
USER: STATUS no improvement in best in 12 clusters for 5 generations
USER: GENES 25
USER: genes 0 Translation |==|  0.57490 0.62556 0.35377
USER: genes 1 Rotation |==|  0.49315 0.93492 0.43616 0.73816
USER: genes 2 Torsion [C]-N--CA-[C] |==|  0.19327
USER: genes 3 Torsion [N]-CA--C-[N] |==|  0.62823
USER: genes 4 Torsion [C]-N--CA-[C] |==|  0.70053
USER: genes 5 Torsion [N]-CA--C-[N] |==|  0.58719
USER: genes 6 Torsion [C]-N--CA-[C] |==|  0.82313
USER: genes 7 Torsion [N]-CA--C-[N] |==|  0.93162
USER: genes 8 Torsion [C]-N--CA-[CB] |==|  0.23889
USER: genes 9 Torsion [N]-CA--C-[N] |==|  0.04345
USER: genes 10 Torsion [N]-CA--CB-[OG] |==|  0.55239
USER: genes 11 Torsion [CA]-CB--OG-[HG] |==|  0.13925
USER: genes 12 Torsion [N]-CA--CB-[CG] |==|  0.58975
USER: genes 13 Torsion [CA]-CB--CG-[OD2] |==|  0.91720
USER: genes 14 Torsion [N]-CA--CB-[SG] |==|  0.77413
USER: genes 15 Torsion [CA]-CB--SG-[HG] |==|  0.88619
USER: genes 16 Torsion [N]-CA--CB-[OG1] |==|  0.90960
USER: genes 17 Torsion [CA]-CB--OG1-[HG1] |==|  0.31624
USER: genes 18 Torsion [N]-C--CA-[N] |==|  0.00141
USER: genes 19 Torsion [C]-CA--N-[C] |==|  0.77209
USER: genes 20 Torsion [N]-C--CA-[N] |==|  0.93109
USER: genes 21 Torsion [C]-CA--N-[C] |==|  0.72398
USER: genes 22 Torsion [N]-C--CA-[N] |==|  0.35456
USER: genes 23 Torsion [C]-CA--CB-[CG] |==|  0.47210
USER: genes 24 Torsion [CA]-CB--CG-[CD2] |==|  0.74431
ROOT
ATOM      1  C   ALA E  68       8.685   7.018  25.504  1.00 21.38 LIG 0.24  C 
ATOM      2 O    ALA E  68       8.042   6.039  25.109  1.00 23.30 LIG-0.27  OA
ATOM      3  N   THR E  69       9.368   7.035  26.653  1.00 18.30 LIG-0.34  N 
ATOM      4 H    THR E  69       9.731   7.740  26.988  1.00 18.30 LIG 0.16  HD
ENDROOT
BRANCH 3 5
ATOM      5  CA  THR E  69       9.553   5.822  27.446  1.00 19.45 LIG 0.20  C 
BRANCH 5 6
ATOM      6  C   THR E  69      10.496   4.821  26.752  1.00 19.66 LIG 0.24  C 
ATOM      7  N   CYS E  70      10.108   3.560  26.717  1.00 18.57 LIG-0.34  N 
ATOM      8 H    CYS E  70       9.344   3.282  26.999  1.00 18.57 LIG 0.16  HD
ATOM      9 O    THR E  69      11.556   5.181  26.282  1.00 20.15 LIG-0.27  OA
BRANCH 7 10
ATOM     10  CA  CYS E  70      10.968   2.518  26.182  1.00 18.45 LIG 0.18  C 
BRANCH 10 11
ATOM     11  C   CYS E  70      10.371   2.105  24.849  1.00 19.42 LIG 0.24  C 
ATOM     12  N   ASP E  71      10.550   0.820  24.497  1.00 17.61 LIG-0.34  N 
ATOM     13 H    ASP E  71      11.002   0.260  24.968  1.00 17.61 LIG 0.16  HD
ATOM     14 O    CYS E  70       9.802   2.953  24.154  1.00 18.07 LIG-0.27  OA
BRANCH 12 15
ATOM     15  CA  ASP E  71       9.996   0.250  23.284  1.00 16.95 LIG 0.19  C 
BRANCH 15 16
ATOM     16  C   ASP E  71       8.513   0.348  23.477  1.00 18.90 LIG 0.24  C 
ATOM     17 O    ASP E  71       7.759   0.401  22.473  1.00 16.52 LIG-0.27  OA
ATOM     18  N   SER E  72       8.085   0.394  24.740  1.00 19.80 LIG-0.34  N 
ATOM     19 H    SER E  72       8.604   0.422  25.425  1.00 19.80 LIG 0.16  HD
BRANCH 18 20
ATOM     20  CA  SER E  72       6.660   0.399  25.052  1.00 20.01 LIG 0.20  C 
BRANCH 20 21
ATOM     21  C   SER E  72       6.323   1.111  26.324  1.00 24.22 LIG 0.29  C 
ATOM     22  N   NH2 E  73       7.321   1.924  26.820  1.00 28.43 LIG-0.11  N 
ATOM     23 O    SER E  72       5.352   0.799  26.976  1.00 27.83 LIG-0.27  OA
ENDBRANCH 20 21
BRANCH 20 24
ATOM     24  CB  SER E  72       6.136  -1.016  25.120  1.00 25.59 LIG 0.20  C 
BRANCH 24 25
ATOM     25 OG   SER E  72       4.736  -1.041  24.991  1.00 28.15 LIG-0.40  OA
ATOM     26 HG   SER E  72       4.508  -0.591  24.319  1.00 28.15 LIG 0.21  HD
ENDBRANCH 24 25
ENDBRANCH 20 24
ENDBRANCH 18 20
ENDBRANCH 15 16
BRANCH 15 27
ATOM     27  CB  ASP E  71      10.473  -1.197  23.085  1.00 12.80 LIG 0.15  C 
BRANCH 27 28
ATOM     28  CG  ASP E  71      10.614  -1.550  21.629  1.00 14.21 LIG 0.17  C 
ATOM     29 OD2  ASP E  71       9.896  -1.013  20.773  1.00 15.44 LIG-0.65  OA
ATOM     30 OD1  ASP E  71      11.448  -2.411  21.321  1.00 16.80 LIG-0.65  OA
ENDBRANCH 27 28
ENDBRANCH 15 27
ENDBRANCH 12 15
ENDBRANCH 10 11
BRANCH 10 31
ATOM     31  CB  CYS E  70      11.072   1.316  27.161  1.00 19.19 LIG 0.10  C 
BRANCH 31 32
ATOM     32 SG   CYS E  70      12.239   1.483  28.532  1.00 25.14 LIG-0.18  SA
ATOM     33 HG   CYS E  70      13.247   2.003  28.139  1.00 25.14 LIG 0.10  HD
ENDBRANCH 31 32
ENDBRANCH 10 31
ENDBRANCH 7 10
ENDBRANCH 5 6
BRANCH 5 34
ATOM     34  CB  THR E  69       8.190   5.189  27.782  1.00 17.77 LIG 0.15  C 
ATOM     35  CG2 THR E  69       8.274   4.450  29.072  1.00 20.71 LIG 0.04  C 
BRANCH 34 36
ATOM     36 OG1  THR E  69       7.193   6.182  27.935  1.00 16.43 LIG-0.39  OA
ATOM     37 HG1  THR E  69       6.626   6.106  27.320  1.00 16.43 LIG 0.21  HD
ENDBRANCH 34 36
ENDBRANCH 5 34
ENDBRANCH 3 5
BRANCH 1 38
ATOM     38  CA  ALA E  68       8.721   8.284  24.653  1.00 20.08 LIG 0.17  C 
ATOM     39  CB  ALA E  68       9.250   7.978  23.272  1.00 20.16 LIG 0.04  C 
BRANCH 38 40
ATOM     40  N   ALA E  68       9.532   9.293  25.278  1.00 18.16 LIG-0.35  N 
ATOM     41 H    ALA E  68      10.338   9.345  24.980  1.00 18.16 LIG 0.16  HD
ATOM     42  C   TRP E  67       9.039  10.058  26.232  1.00 18.88 LIG 0.24  C 
ATOM     43 O    TRP E  67       7.896   9.947  26.704  1.00 21.47 LIG-0.27  OA
BRANCH 42 44
ATOM     44  CA  TRP E  67      10.005  11.036  26.795  1.00 17.18 LIG 0.18  C 
BRANCH 44 45
ATOM     45  N   TRP E  67      11.433  10.588  26.623  1.00 16.72 LIG-0.35  N 
ATOM     46  C   PRO E  66      12.167  10.002  27.581  1.00 16.87 LIG 0.24  C 
ATOM     47 O    PRO E  66      11.803   9.892  28.750  1.00 18.41 LIG-0.27  OA
ATOM     48 H    TRP E  67      11.743  10.747  25.837  1.00 16.72 LIG 0.16  HD
BRANCH 46 49
ATOM     49  CA  PRO E  66      13.570   9.473  27.197  1.00 17.04 LIG 0.18  C 
ATOM     50  CB  PRO E  66      13.658   7.942  27.312  1.00 18.40 LIG 0.04  C 
ATOM     51  CG  PRO E  66      14.440   7.655  28.561  1.00 18.41 LIG 0.02  C 
ATOM     52  CD  PRO E  66      15.362   8.827  28.746  1.00 21.21 LIG 0.13  C 
ATOM     53  N   PRO E  66      14.685   9.930  28.050  1.00 19.82 LIG-0.34  N 
ATOM     54  C   ACE E  65      15.040  11.253  28.001  1.00 17.72 LIG 0.22  C 
ATOM     55  CH3 ACE E  65      16.192  11.670  28.820  1.00 22.93 LIG 0.12  C 
ATOM     56 O    ACE E  65      14.438  12.086  27.366  1.00 18.13 LIG-0.27  OA
ENDBRANCH 46 49
ENDBRANCH 44 45
BRANCH 44 57
ATOM     57  CB  TRP E  67       9.792  12.450  26.194  1.00 18.36 LIG 0.07  C 
BRANCH 57 58
ATOM     58  CG  TRP E  67      10.537  13.493  26.857  1.00 19.51 LIG-0.03  A 
ATOM     59  CD1 TRP E  67      11.794  13.903  26.572  1.00 20.71 LIG 0.10  A 
ATOM     60  NE1 TRP E  67      12.156  14.919  27.406  1.00 21.73 LIG-0.36  N 
ATOM     61  CE2 TRP E  67      11.119  15.183  28.255  1.00 22.59 LIG 0.04  A 
ATOM     62 HE1  TRP E  67      12.913  15.327  27.399  1.00 21.73 LIG 0.17  HD
ATOM     63  CD2 TRP E  67      10.077  14.296  27.928  1.00 20.57 LIG-0.00  A 
ATOM     64  CZ2 TRP E  67      11.004  16.118  29.271  1.00 23.91 LIG 0.03  A 
ATOM     65  CE3 TRP E  67       8.884  14.358  28.647  1.00 19.56 LIG 0.01  A 
ATOM     66  CZ3 TRP E  67       8.769  15.271  29.639  1.00 20.82 LIG 0.00  A 
ATOM     67  CH2 TRP E  67       9.819  16.150  29.952  1.00 24.07 LIG 0.00  A 
ENDBRANCH 57 58
ENDBRANCH 44 57
ENDBRANCH 42 44
ENDBRANCH 38 40
ENDBRANCH 1 38
TORSDOF 23
ENDMDL
MODEL 71
USER: ADFR SOLUTION from run 64
USER: SCORE 18.148759 LL:  -5.967 LR: -14.027 RR:   0.000 FEB:  -7.166
USER: RMSD 6.919564
USER: SEED 63
USER: STATUS no improvement in best in 3 clusters for 5 generations
USER: GENES 25
USER: genes 0 Translation |==|  0.60859 0.66455 0.40742
USER: genes 1 Rotation |==|  0.23711 0.13019 0.49056 0.70986
USER: genes 2 Torsion [C]-N--CA-[C] |==|  0.72044
USER: genes 3 Torsion [N]-CA--C-[N] |==|  0.98493
USER: genes 4 Torsion [C]-N--CA-[C] |==|  0.16582
USER: genes 5 Torsion [N]-CA--C-[N] |==|  0.16399
USER: genes 6 Torsion [C]-N--CA-[C] |==|  0.65518
USER: genes 7 Torsion [N]-CA--C-[N] |==|  0.43149
USER: genes 8 Torsion [C]-N--CA-[CB] |==|  0.26155
USER: genes 9 Torsion [N]-CA--C-[N] |==|  0.44534
USER: genes 10 Torsion [N]-CA--CB-[OG] |==|  0.73287
USER: genes 11 Torsion [CA]-CB--OG-[HG] |==|  0.03321
USER: genes 12 Torsion [N]-CA--CB-[CG] |==|  0.39870
USER: genes 13 Torsion [CA]-CB--CG-[OD2] |==|  0.29106
USER: genes 14 Torsion [N]-CA--CB-[SG] |==|  0.91951
USER: genes 15 Torsion [CA]-CB--SG-[HG] |==|  0.30305
USER: genes 16 Torsion [N]-CA--CB-[OG1] |==|  0.27848
USER: genes 17 Torsion [CA]-CB--OG1-[HG1] |==|  0.40299
USER: genes 18 Torsion [N]-C--CA-[N] |==|  0.44560
USER: genes 19 Torsion [C]-CA--N-[C] |==|  0.74410
USER: genes 20 Torsion [N]-C--CA-[N] |==|  0.93224
USER: genes 21 Torsion [C]-CA--N-[C] |==|  0.76137
USER: genes 22 Torsion [N]-C--CA-[N] |==|  0.01018
USER: genes 23 Torsion [C]-CA--CB-[CG] |==|  0.72559
USER: genes 24 Torsion [CA]-CB--CG-[CD2] |==|  0.77331
ROOT
ATOM      1  C   ALA E  68       9.367   8.130  26.308  1.00 21.38 LIG 0.24  C 
ATOM      2 O    ALA E  68       8.638   8.285  27.294  1.00 23.30 LIG-0.27  OA
ATOM      3  N   THR E  69       9.359   7.026  25.554  1.00 18.30 LIG-0.34  N 
ATOM      4 H    THR E  69       9.930   6.863  24.931  1.00 18.30 LIG 0.16  HD
ENDROOT
BRANCH 3 5
ATOM      5  CA  THR E  69       8.349   5.986  25.737  1.00 19.45 LIG 0.20  C 
BRANCH 5 6
ATOM      6  C   THR E  69       8.894   4.794  26.547  1.00 19.66 LIG 0.24  C 
ATOM      7  N   CYS E  70      10.178   4.818  26.854  1.00 18.57 LIG-0.34  N 
ATOM      8 H    CYS E  70      10.702   5.478  26.686  1.00 18.57 LIG 0.16  HD
ATOM      9 O    THR E  69       8.174   3.868  26.862  1.00 20.15 LIG-0.27  OA
BRANCH 7 10
ATOM     10  CA  CYS E  70      10.817   3.696  27.522  1.00 18.45 LIG 0.18  C 
BRANCH 10 11
ATOM     11  C   CYS E  70      10.646   2.495  26.610  1.00 19.42 LIG 0.24  C 
ATOM     12  N   ASP E  71      11.167   2.613  25.377  1.00 17.61 LIG-0.34  N 
ATOM     13 H    ASP E  71      11.547   3.330  25.091  1.00 17.61 LIG 0.16  HD
ATOM     14 O    CYS E  70      10.019   1.512  27.019  1.00 18.07 LIG-0.27  OA
BRANCH 12 15
ATOM     15  CA  ASP E  71      11.140   1.539  24.403  1.00 16.95 LIG 0.19  C 
BRANCH 15 16
ATOM     16  C   ASP E  71      12.578   1.345  24.029  1.00 18.90 LIG 0.24  C 
ATOM     17 O    ASP E  71      13.384   2.302  24.144  1.00 16.52 LIG-0.27  OA
ATOM     18  N   SER E  72      12.908   0.139  23.565  1.00 19.80 LIG-0.34  N 
ATOM     19 H    SER E  72      12.344  -0.496  23.425  1.00 19.80 LIG 0.16  HD
BRANCH 18 20
ATOM     20  CA  SER E  72      14.293  -0.195  23.253  1.00 20.01 LIG 0.20  C 
BRANCH 20 21
ATOM     21  C   SER E  72      14.448  -1.066  22.047  1.00 24.22 LIG 0.29  C 
ATOM     22  N   NH2 E  73      15.704  -1.056  21.476  1.00 28.43 LIG-0.11  N 
ATOM     23 O    SER E  72      13.483  -1.539  21.490  1.00 27.83 LIG-0.27  OA
ENDBRANCH 20 21
BRANCH 20 24
ATOM     24  CB  SER E  72      14.947  -0.867  24.437  1.00 25.59 LIG 0.20  C 
BRANCH 24 25
ATOM     25 OG   SER E  72      15.667   0.062  25.210  1.00 28.15 LIG-0.40  OA
ATOM     26 HG   SER E  72      15.469   0.842  24.966  1.00 28.15 LIG 0.21  HD
ENDBRANCH 24 25
ENDBRANCH 20 24
ENDBRANCH 18 20
ENDBRANCH 15 16
BRANCH 15 27
ATOM     27  CB  ASP E  71      10.260   1.908  23.198  1.00 12.80 LIG 0.15  C 
BRANCH 27 28
ATOM     28  CG  ASP E  71      10.820   1.378  21.907  1.00 14.21 LIG 0.17  C 
ATOM     29 OD2  ASP E  71      10.314   0.393  21.350  1.00 15.44 LIG-0.65  OA
ATOM     30 OD1  ASP E  71      11.818   1.940  21.435  1.00 16.80 LIG-0.65  OA
ENDBRANCH 27 28
ENDBRANCH 15 27
ENDBRANCH 12 15
ENDBRANCH 10 11
BRANCH 10 31
ATOM     31  CB  CYS E  70      10.195   3.447  28.923  1.00 19.19 LIG 0.10  C 
BRANCH 31 32
ATOM     32 SG   CYS E  70       9.506   4.885  29.774  1.00 25.14 LIG-0.18  SA
ATOM     33 HG   CYS E  70       8.308   4.804  29.795  1.00 25.14 LIG 0.10  HD
ENDBRANCH 31 32
ENDBRANCH 10 31
ENDBRANCH 7 10
ENDBRANCH 5 6
BRANCH 5 34
ATOM     34  CB  THR E  69       7.781   5.544  24.376  1.00 17.77 LIG 0.15  C 
ATOM     35  CG2 THR E  69       8.082   6.571  23.340  1.00 20.71 LIG 0.04  C 
BRANCH 34 36
ATOM     36 OG1  THR E  69       8.376   4.333  23.947  1.00 16.43 LIG-0.39  OA
ATOM     37 HG1  THR E  69       7.807   3.872  23.534  1.00 16.43 LIG 0.21  HD
ENDBRANCH 34 36
ENDBRANCH 5 34
ENDBRANCH 3 5
BRANCH 1 38
ATOM     38  CA  ALA E  68      10.331   9.242  25.906  1.00 20.08 LIG 0.17  C 
ATOM     39  CB  ALA E  68      11.739   8.901  26.332  1.00 20.16 LIG 0.04  C 
BRANCH 38 40
ATOM     40  N   ALA E  68       9.931  10.495  26.485  1.00 18.16 LIG-0.35  N 
ATOM     41 H    ALA E  68      10.244  10.646  27.271  1.00 18.16 LIG 0.16  HD
ATOM     42  C   TRP E  67       9.142  11.320  25.825  1.00 18.88 LIG 0.24  C 
ATOM     43 O    TRP E  67       8.640  11.080  24.715  1.00 21.47 LIG-0.27  OA
BRANCH 42 44
ATOM     44  CA  TRP E  67       8.799  12.562  26.564  1.00 17.18 LIG 0.18  C 
BRANCH 44 45
ATOM     45  N   TRP E  67       8.907  12.385  28.056  1.00 16.72 LIG-0.35  N 
ATOM     46  C   PRO E  66       7.929  11.906  28.839  1.00 16.87 LIG 0.24  C 
ATOM     47 O    PRO E  66       6.783  11.690  28.447  1.00 18.41 LIG-0.27  OA
ATOM     48 H    TRP E  67       9.671  12.625  28.368  1.00 16.72 LIG 0.16  HD
BRANCH 46 49
ATOM     49  CA  PRO E  66       8.253  11.652  30.331  1.00 17.04 LIG 0.18  C 
ATOM     50  CB  PRO E  66       7.339  12.464  31.264  1.00 18.40 LIG 0.04  C 
ATOM     51  CG  PRO E  66       8.171  13.597  31.791  1.00 18.41 LIG 0.02  C 
ATOM     52  CD  PRO E  66       9.588  13.095  31.801  1.00 21.21 LIG 0.13  C 
ATOM     53  N   PRO E  66       9.606  12.047  30.772  1.00 19.82 LIG-0.34  N 
ATOM     54  C   ACE E  65      10.677  11.339  30.295  1.00 17.72 LIG 0.22  C 
ATOM     55  CH3 ACE E  65      12.010  11.719  30.795  1.00 22.93 LIG 0.12  C 
ATOM     56 O    ACE E  65      10.588  10.463  29.467  1.00 18.13 LIG-0.27  OA
ENDBRANCH 46 49
ENDBRANCH 44 45
BRANCH 44 57
ATOM     57  CB  TRP E  67       9.659  13.761  26.085  1.00 18.36 LIG 0.07  C 
BRANCH 57 58
ATOM     58  CG  TRP E  67      10.791  14.053  26.931  1.00 19.51 LIG-0.03  A 
ATOM     59  CD1 TRP E  67      12.075  13.684  26.727  1.00 20.71 LIG 0.10  A 
ATOM     60  NE1 TRP E  67      12.864  14.153  27.737  1.00 21.73 LIG-0.36  N 
ATOM     61  CE2 TRP E  67      12.083  14.843  28.620  1.00 22.59 LIG 0.04  A 
ATOM     62 HE1  TRP E  67      13.713  14.034  27.805  1.00 21.73 LIG 0.17  HD
ATOM     63  CD2 TRP E  67      10.764  14.799  28.133  1.00 20.57 LIG-0.00  A 
ATOM     64  CZ2 TRP E  67      12.418  15.501  29.792  1.00 23.91 LIG 0.03  A 
ATOM     65  CE3 TRP E  67       9.755  15.440  28.852  1.00 19.56 LIG 0.01  A 
ATOM     66  CZ3 TRP E  67      10.080  16.084  29.997  1.00 20.82 LIG 0.00  A 
ATOM     67  CH2 TRP E  67      11.403  16.119  30.468  1.00 24.07 LIG 0.00  A 
ENDBRANCH 57 58
ENDBRANCH 44 57
ENDBRANCH 42 44
ENDBRANCH 38 40
ENDBRANCH 1 38
TORSDOF 23
ENDMDL
