MODEL 1
USER: ADFR SOLUTION from run 64
USER: SCORE 11.519870 LL:  -1.559 LR:  -9.961 RR:   0.000 FEB:  -7.277
USER: RMSD 1.735292
USER: SEED 63
USER: STATUS no improvement in best in 38 clusters for 5 generations
USER: GENES 11
USER: genes 0 Translation |==|  0.59117 0.37474 0.55125
USER: genes 1 Rotation |==|  0.53208 0.57247 0.46802 0.99264
USER: genes 2 Torsion [N]-C--CA-[N] |==|  0.41909
USER: genes 3 Torsion [C]-CA--CB-[CG] |==|  0.73836
USER: genes 4 Torsion [CA]-CB--CG-[CD2] |==|  0.60755
USER: genes 5 Torsion [CE2]-CZ--OH-[HH] |==|  0.74594
USER: genes 6 Torsion [N]-CA--C-[N] |==|  0.02952
USER: genes 7 Torsion [C]-N--CA-[C] |==|  0.80262
USER: genes 8 Torsion [N]-CA--CB-[CG] |==|  0.81830
USER: genes 9 Torsion [CA]-CB--CG-[ND1] |==|  0.69734
USER: genes 10 Torsion [N]-CA--C-[O] |==|  0.87852
ROOT
ATOM      1  C   TYR C  64      13.860  -2.722   7.999  1.00 51.57 LIG 0.26  C 
ATOM      2 O    TYR C  64      13.366  -3.289   7.024  1.00 54.62 LIG-0.27  OA
ATOM      3  N   PRO C  65      15.181  -2.499   8.107  1.00 43.10 LIG-0.34  N 
ATOM      4  CA  PRO C  65      15.893  -1.736   9.136  1.00 38.90 LIG 0.18  C 
ATOM      5  CB  PRO C  65      17.168  -2.546   9.327  1.00 40.80 LIG 0.04  C 
ATOM      6  CG  PRO C  65      17.438  -3.099   7.971  1.00 42.19 LIG 0.02  C 
ATOM      7  CD  PRO C  65      16.105  -3.327   7.312  1.00 44.37 LIG 0.13  C 
ENDROOT
BRANCH 1 8
ATOM      8  CA  TYR C  64      12.965  -2.249   9.143  1.00 49.73 LIG 0.40  C 
ATOM      9  N   TYR C  64      11.641  -1.929   8.614  1.00 50.52 LIG 0.61  N 
BRANCH 8 10
ATOM     10  CB  TYR C  64      12.873  -3.355  10.202  1.00 50.46 LIG 0.09  C 
BRANCH 10 11
ATOM     11  CG  TYR C  64      11.688  -4.286  10.071  1.00 47.68 LIG-0.06  A 
ATOM     12  CD2 TYR C  64      11.018  -4.738  11.202  1.00 48.34 LIG 0.01  A 
ATOM     13  CE2 TYR C  64       9.934  -5.590  11.100  1.00 49.15 LIG 0.04  A 
ATOM     14  CZ  TYR C  64       9.505  -5.999   9.854  1.00 50.59 LIG 0.07  A 
ATOM     15  CE1 TYR C  64      10.151  -5.565   8.713  1.00 46.73 LIG 0.04  A 
ATOM     16  CD1 TYR C  64      11.235  -4.711   8.826  1.00 46.22 LIG 0.01  A 
BRANCH 14 17
ATOM     17 OH   TYR C  64       8.427  -6.847   9.746  1.00 53.82 LIG-0.36  OA
ATOM     18 HH   TYR C  64       8.696  -7.644   9.741  1.00 53.82 LIG 0.22  HD
ENDBRANCH 14 17
ENDBRANCH 10 11
ENDBRANCH 8 10
ENDBRANCH 1 8
BRANCH 4 19
ATOM     19  C   PRO C  65      16.245  -0.329   8.664  1.00 37.07 LIG 0.24  C 
ATOM     20  N   HIS C  66      15.676   0.056   7.523  1.00 40.38 LIG-0.35  N 
ATOM     21 H    HIS C  66      15.172  -0.452   7.048  1.00 40.38 LIG 0.16  HD
ATOM     22 O    PRO C  65      17.026   0.376   9.327  1.00 29.28 LIG-0.27  OA
BRANCH 20 23
ATOM     23  CA  HIS C  66      15.859   1.391   6.971  1.00 40.25 LIG 0.17  C 
BRANCH 23 24
ATOM     24  CB  HIS C  66      15.374   1.442   5.515  1.00 42.68 LIG 0.09  C 
BRANCH 24 25
ATOM     25  CG  HIS C  66      16.176   0.594   4.576  1.00 48.80 LIG 0.06  A 
ATOM     26 ND1  HIS C  66      17.026   1.126   3.629  1.00 53.13 LIG-0.24  NA
ATOM     27  CE1 HIS C  66      17.597   0.145   2.952  1.00 55.16 LIG 0.23  A 
ATOM     28 NE2  HIS C  66      17.149  -1.004   3.426  1.00 53.86 LIG-0.25  NA
ATOM     29  CD2 HIS C  66      16.258  -0.750   4.442  1.00 53.41 LIG 0.14  A 
ENDBRANCH 24 25
ENDBRANCH 23 24
BRANCH 23 30
ATOM     30  C   HIS C  66      15.121   2.440   7.802  1.00 41.89 LIG 0.22  C 
ATOM     31 O    HIS C  66      13.972   2.231   8.202  1.00 44.58 LIG-0.29  OA
ENDBRANCH 23 30
ENDBRANCH 20 23
ENDBRANCH 4 19
TORSDOF 9
ENDMDL
MODEL 2
USER: ADFR SOLUTION from run 78
USER: SCORE 11.199354 LL:  -1.491 LR:  -9.709 RR:   0.000 FEB:  -7.024
USER: RMSD 4.214505
USER: SEED 77
USER: STATUS no improvement in best in 25 clusters for 5 generations
USER: GENES 11
USER: genes 0 Translation |==|  0.47942 0.37513 0.45271
USER: genes 1 Rotation |==|  0.87816 0.61936 0.50890 0.80441
USER: genes 2 Torsion [N]-C--CA-[N] |==|  0.84949
USER: genes 3 Torsion [C]-CA--CB-[CG] |==|  0.45109
USER: genes 4 Torsion [CA]-CB--CG-[CD2] |==|  0.54016
USER: genes 5 Torsion [CE2]-CZ--OH-[HH] |==|  0.64055
USER: genes 6 Torsion [N]-CA--C-[N] |==|  0.88172
USER: genes 7 Torsion [C]-N--CA-[C] |==|  0.49235
USER: genes 8 Torsion [N]-CA--CB-[CG] |==|  0.10677
USER: genes 9 Torsion [CA]-CB--CG-[ND1] |==|  0.14705
USER: genes 10 Torsion [N]-CA--C-[O] |==|  0.67783
ROOT
ATOM      1  C   TYR C  64      11.765  -2.716   6.226  1.00 51.57 LIG 0.26  C 
ATOM      2 O    TYR C  64      11.096  -1.761   5.829  1.00 54.62 LIG-0.27  OA
ATOM      3  N   PRO C  65      13.108  -2.716   6.189  1.00 43.10 LIG-0.34  N 
ATOM      4  CA  PRO C  65      14.032  -3.715   6.733  1.00 38.90 LIG 0.18  C 
ATOM      5  CB  PRO C  65      15.139  -3.749   5.688  1.00 40.80 LIG 0.04  C 
ATOM      6  CG  PRO C  65      15.190  -2.348   5.186  1.00 42.19 LIG 0.02  C 
ATOM      7  CD  PRO C  65      13.790  -1.800   5.257  1.00 44.37 LIG 0.13  C 
ENDROOT
BRANCH 1 8
ATOM      8  CA  TYR C  64      11.070  -3.957   6.780  1.00 49.73 LIG 0.40  C 
ATOM      9  N   TYR C  64      11.543  -5.135   6.056  1.00 50.52 LIG 0.61  N 
BRANCH 8 10
ATOM     10  CB  TYR C  64      11.378  -4.081   8.277  1.00 50.46 LIG 0.09  C 
BRANCH 10 11
ATOM     11  CG  TYR C  64      10.456  -4.992   9.059  1.00 47.68 LIG-0.06  A 
ATOM     12  CD2 TYR C  64      10.441  -4.955  10.449  1.00 48.34 LIG 0.01  A 
ATOM     13  CE2 TYR C  64       9.606  -5.780  11.178  1.00 49.15 LIG 0.04  A 
ATOM     14  CZ  TYR C  64       8.769  -6.657  10.518  1.00 50.59 LIG 0.07  A 
ATOM     15  CE1 TYR C  64       8.762  -6.714   9.138  1.00 46.73 LIG 0.04  A 
ATOM     16  CD1 TYR C  64       9.602  -5.883   8.416  1.00 46.22 LIG 0.01  A 
BRANCH 14 17
ATOM     17 OH   TYR C  64       7.936  -7.482  11.238  1.00 53.82 LIG-0.36  OA
ATOM     18 HH   TYR C  64       8.026  -8.274  10.972  1.00 53.82 LIG 0.22  HD
ENDBRANCH 14 17
ENDBRANCH 10 11
ENDBRANCH 8 10
ENDBRANCH 1 8
BRANCH 4 19
ATOM     19  C   PRO C  65      14.610  -3.286   8.078  1.00 37.07 LIG 0.24  C 
ATOM     20  N   HIS C  66      14.981  -2.010   8.168  1.00 40.38 LIG-0.35  N 
ATOM     21 H    HIS C  66      14.943  -1.457   7.510  1.00 40.38 LIG 0.16  HD
ATOM     22 O    PRO C  65      14.721  -4.111   9.003  1.00 29.28 LIG-0.27  OA
BRANCH 20 23
ATOM     23  CA  HIS C  66      15.492  -1.429   9.401  1.00 40.25 LIG 0.17  C 
BRANCH 23 24
ATOM     24  CB  HIS C  66      16.687  -2.239   9.923  1.00 42.68 LIG 0.09  C 
BRANCH 24 25
ATOM     25  CG  HIS C  66      17.601  -2.738   8.845  1.00 48.80 LIG 0.06  A 
ATOM     26 ND1  HIS C  66      18.150  -1.911   7.888  1.00 53.13 LIG-0.24  NA
ATOM     27  CE1 HIS C  66      18.912  -2.624   7.077  1.00 55.16 LIG 0.23  A 
ATOM     28 NE2  HIS C  66      18.877  -3.884   7.473  1.00 53.86 LIG-0.25  NA
ATOM     29  CD2 HIS C  66      18.063  -3.982   8.577  1.00 53.41 LIG 0.14  A 
ENDBRANCH 24 25
ENDBRANCH 23 24
BRANCH 23 30
ATOM     30  C   HIS C  66      15.902   0.029   9.197  1.00 41.89 LIG 0.22  C 
ATOM     31 O    HIS C  66      17.079   0.376   9.326  1.00 44.58 LIG-0.29  OA
ENDBRANCH 23 30
ENDBRANCH 20 23
ENDBRANCH 4 19
TORSDOF 9
ENDMDL
MODEL 3
USER: ADFR SOLUTION from run 9
USER: SCORE 11.164343 LL:  -1.518 LR:  -9.647 RR:   0.000 FEB:  -6.962
USER: RMSD 5.755688
USER: SEED 754385
USER: STATUS no improvement in best in 38 clusters for 5 generations
USER: GENES 11
USER: genes 0 Translation |==|  0.44894 0.32577 0.46120
USER: genes 1 Rotation |==|  0.86036 0.70483 0.52241 0.77871
USER: genes 2 Torsion [N]-C--CA-[N] |==|  0.21337
USER: genes 3 Torsion [C]-CA--CB-[CG] |==|  0.26981
USER: genes 4 Torsion [CA]-CB--CG-[CD2] |==|  0.96041
USER: genes 5 Torsion [CE2]-CZ--OH-[HH] |==|  0.96859
USER: genes 6 Torsion [N]-CA--C-[N] |==|  0.41046
USER: genes 7 Torsion [C]-N--CA-[C] |==|  0.13136
USER: genes 8 Torsion [N]-CA--CB-[CG] |==|  0.23329
USER: genes 9 Torsion [CA]-CB--CG-[ND1] |==|  0.73650
USER: genes 10 Torsion [N]-CA--C-[O] |==|  0.09593
ROOT
ATOM      1  C   TYR C  64      11.194  -3.493   6.379  1.00 51.57 LIG 0.26  C 
ATOM      2 O    TYR C  64      10.205  -2.788   6.177  1.00 54.62 LIG-0.27  OA
ATOM      3  N   PRO C  65      12.441  -3.078   6.100  1.00 43.10 LIG-0.34  N 
ATOM      4  CA  PRO C  65      13.710  -3.749   6.396  1.00 38.90 LIG 0.18  C 
ATOM      5  CB  PRO C  65      14.551  -3.428   5.169  1.00 40.80 LIG 0.04  C 
ATOM      6  CG  PRO C  65      14.079  -2.074   4.765  1.00 42.19 LIG 0.02  C 
ATOM      7  CD  PRO C  65      12.622  -1.986   5.126  1.00 44.37 LIG 0.13  C 
ENDROOT
BRANCH 1 8
ATOM      8  CA  TYR C  64      11.026  -4.895   6.961  1.00 49.73 LIG 0.40  C 
ATOM      9  N   TYR C  64      11.395  -4.873   8.375  1.00 50.52 LIG 0.61  N 
BRANCH 8 10
ATOM     10  CB  TYR C  64       9.569  -5.342   6.788  1.00 50.46 LIG 0.09  C 
BRANCH 10 11
ATOM     11  CG  TYR C  64       9.295  -6.217   5.584  1.00 47.68 LIG-0.06  A 
ATOM     12  CD2 TYR C  64      10.235  -6.330   4.566  1.00 48.34 LIG 0.01  A 
ATOM     13  CE2 TYR C  64      10.000  -7.125   3.459  1.00 49.15 LIG 0.04  A 
ATOM     14  CZ  TYR C  64       8.812  -7.821   3.361  1.00 50.59 LIG 0.07  A 
ATOM     15  CE1 TYR C  64       7.861  -7.728   4.358  1.00 46.73 LIG 0.04  A 
ATOM     16  CD1 TYR C  64       8.106  -6.930   5.463  1.00 46.22 LIG 0.01  A 
BRANCH 14 17
ATOM     17 OH   TYR C  64       8.572  -8.613   2.262  1.00 53.82 LIG-0.36  OA
ATOM     18 HH   TYR C  64       9.151  -8.459   1.673  1.00 53.82 LIG 0.22  HD
ENDBRANCH 14 17
ENDBRANCH 10 11
ENDBRANCH 8 10
ENDBRANCH 1 8
BRANCH 4 19
ATOM     19  C   PRO C  65      14.381  -3.177   7.641  1.00 37.07 LIG 0.24  C 
ATOM     20  N   HIS C  66      15.092  -4.041   8.363  1.00 40.38 LIG-0.35  N 
ATOM     21 H    HIS C  66      15.151  -4.878   8.179  1.00 40.38 LIG 0.16  HD
ATOM     22 O    PRO C  65      14.236  -1.976   7.934  1.00 29.28 LIG-0.27  OA
BRANCH 20 23
ATOM     23  CA  HIS C  66      15.844  -3.640   9.543  1.00 40.25 LIG 0.17  C 
BRANCH 23 24
ATOM     24  CB  HIS C  66      17.120  -2.889   9.139  1.00 42.68 LIG 0.09  C 
BRANCH 24 25
ATOM     25  CG  HIS C  66      16.910  -1.429   8.875  1.00 48.80 LIG 0.06  A 
ATOM     26 ND1  HIS C  66      16.685  -0.922   7.613  1.00 53.13 LIG-0.24  NA
ATOM     27  CE1 HIS C  66      16.533   0.388   7.687  1.00 55.16 LIG 0.23  A 
ATOM     28 NE2  HIS C  66      16.651   0.751   8.952  1.00 53.86 LIG-0.25  NA
ATOM     29  CD2 HIS C  66      16.888  -0.368   9.716  1.00 53.41 LIG 0.14  A 
ENDBRANCH 24 25
ENDBRANCH 23 24
BRANCH 23 30
ATOM     30  C   HIS C  66      14.997  -2.765  10.468  1.00 41.89 LIG 0.22  C 
ATOM     31 O    HIS C  66      13.784  -2.960  10.583  1.00 44.58 LIG-0.29  OA
ENDBRANCH 23 30
ENDBRANCH 20 23
ENDBRANCH 4 19
TORSDOF 9
ENDMDL
MODEL 4
USER: ADFR SOLUTION from run 100
USER: SCORE 11.944086 LL:  -2.296 LR:  -9.649 RR:   0.000 FEB:  -6.964
USER: RMSD 2.211369
USER: SEED 99
USER: STATUS no improvement in best in 21 clusters for 5 generations
USER: GENES 11
USER: genes 0 Translation |==|  0.69632 0.35426 0.52532
USER: genes 1 Rotation |==|  0.44353 0.30539 0.58340 0.94943
USER: genes 2 Torsion [N]-C--CA-[N] |==|  0.50920
USER: genes 3 Torsion [C]-CA--CB-[CG] |==|  0.35295
USER: genes 4 Torsion [CA]-CB--CG-[CD2] |==|  0.50647
USER: genes 5 Torsion [CE2]-CZ--OH-[HH] |==|  0.18549
USER: genes 6 Torsion [N]-CA--C-[N] |==|  0.25952
USER: genes 7 Torsion [C]-N--CA-[C] |==|  0.73796
USER: genes 8 Torsion [N]-CA--CB-[CG] |==|  0.87449
USER: genes 9 Torsion [CA]-CB--CG-[ND1] |==|  0.20295
USER: genes 10 Torsion [N]-CA--C-[O] |==|  0.98406
ROOT
ATOM      1  C   TYR C  64      15.832  -3.044   7.533  1.00 51.57 LIG 0.26  C 
ATOM      2 O    TYR C  64      16.633  -3.838   7.038  1.00 54.62 LIG-0.27  OA
ATOM      3  N   PRO C  65      16.190  -2.160   8.479  1.00 43.10 LIG-0.34  N 
ATOM      4  CA  PRO C  65      15.388  -1.083   9.066  1.00 38.90 LIG 0.18  C 
ATOM      5  CB  PRO C  65      15.829  -1.097  10.523  1.00 40.80 LIG 0.04  C 
ATOM      6  CG  PRO C  65      17.260  -1.502  10.452  1.00 42.19 LIG 0.02  C 
ATOM      7  CD  PRO C  65      17.401  -2.427   9.275  1.00 44.37 LIG 0.13  C 
ENDROOT
BRANCH 1 8
ATOM      8  CA  TYR C  64      14.374  -3.046   7.077  1.00 49.73 LIG 0.40  C 
ATOM      9  N   TYR C  64      14.175  -4.124   6.111  1.00 50.52 LIG 0.61  N 
BRANCH 8 10
ATOM     10  CB  TYR C  64      13.465  -3.237   8.298  1.00 50.46 LIG 0.09  C 
BRANCH 10 11
ATOM     11  CG  TYR C  64      12.373  -2.203   8.465  1.00 47.68 LIG-0.06  A 
ATOM     12  CD2 TYR C  64      11.520  -2.249   9.561  1.00 48.34 LIG 0.01  A 
ATOM     13  CE2 TYR C  64      10.517  -1.313   9.729  1.00 49.15 LIG 0.04  A 
ATOM     14  CZ  TYR C  64      10.357  -0.312   8.792  1.00 50.59 LIG 0.07  A 
ATOM     15  CE1 TYR C  64      11.190  -0.241   7.693  1.00 46.73 LIG 0.04  A 
ATOM     16  CD1 TYR C  64      12.193  -1.183   7.535  1.00 46.22 LIG 0.01  A 
BRANCH 14 17
ATOM     17 OH   TYR C  64       9.360   0.623   8.952  1.00 53.82 LIG-0.36  OA
ATOM     18 HH   TYR C  64       9.526   1.098   9.625  1.00 53.82 LIG 0.22  HD
ENDBRANCH 14 17
ENDBRANCH 10 11
ENDBRANCH 8 10
ENDBRANCH 1 8
BRANCH 4 19
ATOM     19  C   PRO C  65      15.710   0.273   8.445  1.00 37.07 LIG 0.24  C 
ATOM     20  N   HIS C  66      14.937   0.639   7.424  1.00 40.38 LIG-0.35  N 
ATOM     21 H    HIS C  66      14.317   0.142   7.096  1.00 40.38 LIG 0.16  HD
ATOM     22 O    PRO C  65      16.651   0.955   8.887  1.00 29.28 LIG-0.27  OA
BRANCH 20 23
ATOM     23  CA  HIS C  66      15.074   1.929   6.765  1.00 40.25 LIG 0.17  C 
BRANCH 23 24
ATOM     24  CB  HIS C  66      14.826   1.791   5.256  1.00 42.68 LIG 0.09  C 
BRANCH 24 25
ATOM     25  CG  HIS C  66      15.519   0.619   4.630  1.00 48.80 LIG 0.06  A 
ATOM     26 ND1  HIS C  66      15.106  -0.683   4.822  1.00 53.13 LIG-0.24  NA
ATOM     27  CE1 HIS C  66      15.900  -1.498   4.150  1.00 55.16 LIG 0.23  A 
ATOM     28 NE2  HIS C  66      16.813  -0.772   3.529  1.00 53.86 LIG-0.25  NA
ATOM     29  CD2 HIS C  66      16.597   0.555   3.814  1.00 53.41 LIG 0.14  A 
ENDBRANCH 24 25
ENDBRANCH 23 24
BRANCH 23 30
ATOM     30  C   HIS C  66      14.111   2.958   7.357  1.00 41.89 LIG 0.22  C 
ATOM     31 O    HIS C  66      13.276   2.626   8.202  1.00 44.58 LIG-0.29  OA
ENDBRANCH 23 30
ENDBRANCH 20 23
ENDBRANCH 4 19
TORSDOF 9
ENDMDL
MODEL 5
USER: ADFR SOLUTION from run 95
USER: SCORE 11.248267 LL:  -1.621 LR:  -9.627 RR:   0.000 FEB:  -6.942
USER: RMSD 4.210430
USER: SEED 94
USER: STATUS no improvement in best in 22 clusters for 5 generations
USER: GENES 11
USER: genes 0 Translation |==|  0.45291 0.34704 0.44320
USER: genes 1 Rotation |==|  0.86107 0.66308 0.51606 0.80459
USER: genes 2 Torsion [N]-C--CA-[N] |==|  0.84396
USER: genes 3 Torsion [C]-CA--CB-[CG] |==|  0.23214
USER: genes 4 Torsion [CA]-CB--CG-[CD2] |==|  0.23476
USER: genes 5 Torsion [CE2]-CZ--OH-[HH] |==|  0.97007
USER: genes 6 Torsion [N]-CA--C-[N] |==|  0.43785
USER: genes 7 Torsion [C]-N--CA-[C] |==|  0.12507
USER: genes 8 Torsion [N]-CA--CB-[CG] |==|  0.23107
USER: genes 9 Torsion [CA]-CB--CG-[ND1] |==|  0.73987
USER: genes 10 Torsion [N]-CA--C-[O] |==|  0.47995
ROOT
ATOM      1  C   TYR C  64      11.268  -3.158   6.055  1.00 51.57 LIG 0.26  C 
ATOM      2 O    TYR C  64      10.420  -2.345   5.687  1.00 54.62 LIG-0.27  OA
ATOM      3  N   PRO C  65      12.585  -2.940   5.902  1.00 43.10 LIG-0.34  N 
ATOM      4  CA  PRO C  65      13.704  -3.749   6.396  1.00 38.90 LIG 0.18  C 
ATOM      5  CB  PRO C  65      14.713  -3.649   5.261  1.00 40.80 LIG 0.04  C 
ATOM      6  CG  PRO C  65      14.489  -2.282   4.713  1.00 42.19 LIG 0.02  C 
ATOM      7  CD  PRO C  65      13.028  -1.968   4.887  1.00 44.37 LIG 0.13  C 
ENDROOT
BRANCH 1 8
ATOM      8  CA  TYR C  64      10.836  -4.470   6.706  1.00 49.73 LIG 0.40  C 
ATOM      9  N   TYR C  64      11.401  -5.588   5.952  1.00 50.52 LIG 0.61  N 
BRANCH 8 10
ATOM     10  CB  TYR C  64      11.323  -4.496   8.160  1.00 50.46 LIG 0.09  C 
BRANCH 10 11
ATOM     11  CG  TYR C  64      10.431  -3.789   9.158  1.00 47.68 LIG-0.06  A 
ATOM     12  CD2 TYR C  64       9.344  -4.446   9.721  1.00 48.34 LIG 0.01  A 
ATOM     13  CE2 TYR C  64       8.519  -3.815  10.633  1.00 49.15 LIG 0.04  A 
ATOM     14  CZ  TYR C  64       8.778  -2.509  10.994  1.00 50.59 LIG 0.07  A 
ATOM     15  CE1 TYR C  64       9.852  -1.831  10.451  1.00 46.73 LIG 0.04  A 
ATOM     16  CD1 TYR C  64      10.673  -2.473   9.539  1.00 46.22 LIG 0.01  A 
BRANCH 14 17
ATOM     17 OH   TYR C  64       7.960  -1.874  11.901  1.00 53.82 LIG-0.36  OA
ATOM     18 HH   TYR C  64       7.274  -2.340  12.035  1.00 53.82 LIG 0.22  HD
ENDBRANCH 14 17
ENDBRANCH 10 11
ENDBRANCH 8 10
ENDBRANCH 1 8
BRANCH 4 19
ATOM     19  C   PRO C  65      14.307  -3.171   7.672  1.00 37.07 LIG 0.24  C 
ATOM     20  N   HIS C  66      14.981  -4.030   8.434  1.00 40.38 LIG-0.35  N 
ATOM     21 H    HIS C  66      15.051  -4.869   8.256  1.00 40.38 LIG 0.16  HD
ATOM     22 O    PRO C  65      14.146  -1.970   7.952  1.00 29.28 LIG-0.27  OA
BRANCH 20 23
ATOM     23  CA  HIS C  66      15.669  -3.623   9.650  1.00 40.25 LIG 0.17  C 
BRANCH 23 24
ATOM     24  CB  HIS C  66      16.992  -2.921   9.311  1.00 42.68 LIG 0.09  C 
BRANCH 24 25
ATOM     25  CG  HIS C  66      16.842  -1.467   8.983  1.00 48.80 LIG 0.06  A 
ATOM     26 ND1  HIS C  66      16.695  -1.003   7.693  1.00 53.13 LIG-0.24  NA
ATOM     27  CE1 HIS C  66      16.583   0.314   7.710  1.00 55.16 LIG 0.23  A 
ATOM     28 NE2  HIS C  66      16.651   0.721   8.965  1.00 53.86 LIG-0.25  NA
ATOM     29  CD2 HIS C  66      16.814  -0.374   9.781  1.00 53.41 LIG 0.14  A 
ENDBRANCH 24 25
ENDBRANCH 23 24
BRANCH 23 30
ATOM     30  C   HIS C  66      14.794  -2.701  10.499  1.00 41.89 LIG 0.22  C 
ATOM     31 O    HIS C  66      15.151  -2.358  11.628  1.00 44.58 LIG-0.29  OA
ENDBRANCH 23 30
ENDBRANCH 20 23
ENDBRANCH 4 19
TORSDOF 9
ENDMDL
MODEL 6
USER: ADFR SOLUTION from run 181
USER: SCORE 10.269102 LL:  -0.673 LR:  -9.596 RR:   0.000 FEB:  -6.912
USER: RMSD 7.467188
USER: SEED 180
USER: STATUS no improvement in best in 34 clusters for 5 generations
USER: GENES 11
USER: genes 0 Translation |==|  0.73728 0.53038 0.57874
USER: genes 1 Rotation |==|  0.85021 0.16815 0.60846 0.57390
USER: genes 2 Torsion [N]-C--CA-[N] |==|  0.92900
USER: genes 3 Torsion [C]-CA--CB-[CG] |==|  0.32808
USER: genes 4 Torsion [CA]-CB--CG-[CD2] |==|  0.29084
USER: genes 5 Torsion [CE2]-CZ--OH-[HH] |==|  0.69704
USER: genes 6 Torsion [N]-CA--C-[N] |==|  0.66939
USER: genes 7 Torsion [C]-N--CA-[C] |==|  0.19994
USER: genes 8 Torsion [N]-CA--CB-[CG] |==|  0.37183
USER: genes 9 Torsion [CA]-CB--CG-[ND1] |==|  0.21693
USER: genes 10 Torsion [N]-CA--C-[O] |==|  0.02292
ROOT
ATOM      1  C   TYR C  64      16.600  -0.271   8.494  1.00 51.57 LIG 0.26  C 
ATOM      2 O    TYR C  64      17.221   0.376   9.339  1.00 54.62 LIG-0.27  OA
ATOM      3  N   PRO C  65      16.257  -1.556   8.684  1.00 43.10 LIG-0.34  N 
ATOM      4  CA  PRO C  65      15.421  -2.409   7.834  1.00 38.90 LIG 0.18  C 
ATOM      5  CB  PRO C  65      16.110  -3.762   7.940  1.00 40.80 LIG 0.04  C 
ATOM      6  CG  PRO C  65      16.654  -3.770   9.327  1.00 42.19 LIG 0.02  C 
ATOM      7  CD  PRO C  65      17.009  -2.350   9.672  1.00 44.37 LIG 0.13  C 
ENDROOT
BRANCH 1 8
ATOM      8  CA  TYR C  64      16.196   0.385   7.176  1.00 49.73 LIG 0.40  C 
ATOM      9  N   TYR C  64      16.052  -0.647   6.152  1.00 50.52 LIG 0.61  N 
BRANCH 8 10
ATOM     10  CB  TYR C  64      14.876   1.142   7.372  1.00 50.46 LIG 0.09  C 
BRANCH 10 11
ATOM     11  CG  TYR C  64      14.942   2.636   7.143  1.00 47.68 LIG-0.06  A 
ATOM     12  CD2 TYR C  64      14.418   3.195   5.983  1.00 48.34 LIG 0.01  A 
ATOM     13  CE2 TYR C  64      14.470   4.558   5.758  1.00 49.15 LIG 0.04  A 
ATOM     14  CZ  TYR C  64      15.051   5.381   6.701  1.00 50.59 LIG 0.07  A 
ATOM     15  CE1 TYR C  64      15.578   4.854   7.863  1.00 46.73 LIG 0.04  A 
ATOM     16  CD1 TYR C  64      15.521   3.487   8.079  1.00 46.22 LIG 0.01  A 
BRANCH 14 17
ATOM     17 OH   TYR C  64      15.107   6.739   6.482  1.00 53.82 LIG-0.36  OA
ATOM     18 HH   TYR C  64      15.901   6.966   6.327  1.00 53.82 LIG 0.22  HD
ENDBRANCH 14 17
ENDBRANCH 10 11
ENDBRANCH 8 10
ENDBRANCH 1 8
BRANCH 4 19
ATOM     19  C   PRO C  65      13.994  -2.516   8.361  1.00 37.07 LIG 0.24  C 
ATOM     20  N   HIS C  66      13.588  -3.742   8.686  1.00 40.38 LIG-0.35  N 
ATOM     21 H    HIS C  66      14.070  -4.446   8.577  1.00 40.38 LIG 0.16  HD
ATOM     22 O    PRO C  65      13.284  -1.499   8.454  1.00 29.28 LIG-0.27  OA
BRANCH 20 23
ATOM     23  CA  HIS C  66      12.277  -4.005   9.261  1.00 40.25 LIG 0.17  C 
BRANCH 23 24
ATOM     24  CB  HIS C  66      12.018  -3.075  10.456  1.00 42.68 LIG 0.09  C 
BRANCH 24 25
ATOM     25  CG  HIS C  66      10.663  -2.437  10.447  1.00 48.80 LIG 0.06  A 
ATOM     26 ND1  HIS C  66       9.518  -3.105  10.828  1.00 53.13 LIG-0.24  NA
ATOM     27  CE1 HIS C  66       8.481  -2.295  10.720  1.00 55.16 LIG 0.23  A 
ATOM     28 NE2  HIS C  66       8.909  -1.124  10.283  1.00 53.86 LIG-0.25  NA
ATOM     29  CD2 HIS C  66      10.271  -1.188  10.103  1.00 53.41 LIG 0.14  A 
ENDBRANCH 24 25
ENDBRANCH 23 24
BRANCH 23 30
ATOM     30  C   HIS C  66      11.171  -3.833   8.220  1.00 41.89 LIG 0.22  C 
ATOM     31 O    HIS C  66      11.448  -3.661   7.030  1.00 44.58 LIG-0.29  OA
ENDBRANCH 23 30
ENDBRANCH 20 23
ENDBRANCH 4 19
TORSDOF 9
ENDMDL
MODEL 7
USER: ADFR SOLUTION from run 145
USER: SCORE 10.530938 LL:  -0.936 LR:  -9.595 RR:   0.000 FEB:  -6.911
USER: RMSD 6.133102
USER: SEED 144
USER: STATUS no improvement in best in 32 clusters for 5 generations
USER: GENES 11
USER: genes 0 Translation |==|  0.40356 0.23507 0.59891
USER: genes 1 Rotation |==|  0.18787 0.17431 0.45329 0.71053
USER: genes 2 Torsion [N]-C--CA-[N] |==|  0.15709
USER: genes 3 Torsion [C]-CA--CB-[CG] |==|  0.46547
USER: genes 4 Torsion [CA]-CB--CG-[CD2] |==|  0.13673
USER: genes 5 Torsion [CE2]-CZ--OH-[HH] |==|  0.06983
USER: genes 6 Torsion [N]-CA--C-[N] |==|  0.09408
USER: genes 7 Torsion [C]-N--CA-[C] |==|  0.24103
USER: genes 8 Torsion [N]-CA--CB-[CG] |==|  0.31318
USER: genes 9 Torsion [CA]-CB--CG-[ND1] |==|  0.21548
USER: genes 10 Torsion [N]-CA--C-[O] |==|  0.94619
ROOT
ATOM      1  C   TYR C  64      10.343  -4.922   8.857  1.00 51.57 LIG 0.26  C 
ATOM      2 O    TYR C  64      10.095  -5.795   9.689  1.00 54.62 LIG-0.27  OA
ATOM      3  N   PRO C  65      10.692  -3.673   9.211  1.00 43.10 LIG-0.34  N 
ATOM      4  CA  PRO C  65      11.130  -2.573   8.347  1.00 38.90 LIG 0.18  C 
ATOM      5  CB  PRO C  65      10.488  -1.359   9.002  1.00 40.80 LIG 0.04  C 
ATOM      6  CG  PRO C  65      10.492  -1.700  10.452  1.00 42.19 LIG 0.02  C 
ATOM      7  CD  PRO C  65      10.331  -3.192  10.556  1.00 44.37 LIG 0.13  C 
ENDROOT
BRANCH 1 8
ATOM      8  CA  TYR C  64      10.254  -5.239   7.366  1.00 49.73 LIG 0.40  C 
ATOM      9  N   TYR C  64      11.536  -4.933   6.734  1.00 50.52 LIG 0.61  N 
BRANCH 8 10
ATOM     10  CB  TYR C  64       9.901  -6.721   7.186  1.00 50.46 LIG 0.09  C 
BRANCH 10 11
ATOM     11  CG  TYR C  64       9.490  -7.127   5.788  1.00 47.68 LIG-0.06  A 
ATOM     12  CD2 TYR C  64      10.262  -6.762   4.691  1.00 48.34 LIG 0.01  A 
ATOM     13  CE2 TYR C  64       9.901  -7.124   3.407  1.00 49.15 LIG 0.04  A 
ATOM     14  CZ  TYR C  64       8.753  -7.863   3.207  1.00 50.59 LIG 0.07  A 
ATOM     15  CE1 TYR C  64       7.967  -8.242   4.278  1.00 46.73 LIG 0.04  A 
ATOM     16  CD1 TYR C  64       8.338  -7.874   5.560  1.00 46.22 LIG 0.01  A 
BRANCH 14 17
ATOM     17 OH   TYR C  64       8.387  -8.227   1.931  1.00 53.82 LIG-0.36  OA
ATOM     18 HH   TYR C  64       9.068  -8.251   1.440  1.00 53.82 LIG 0.22  HD
ENDBRANCH 14 17
ENDBRANCH 10 11
ENDBRANCH 8 10
ENDBRANCH 1 8
BRANCH 4 19
ATOM     19  C   PRO C  65      12.648  -2.415   8.350  1.00 37.07 LIG 0.24  C 
ATOM     20  N   HIS C  66      13.346  -3.543   8.469  1.00 40.38 LIG-0.35  N 
ATOM     21 H    HIS C  66      12.985  -4.316   8.577  1.00 40.38 LIG 0.16  HD
ATOM     22 O    PRO C  65      13.159  -1.285   8.256  1.00 29.28 LIG-0.27  OA
BRANCH 20 23
ATOM     23  CA  HIS C  66      14.801  -3.570   8.426  1.00 40.25 LIG 0.17  C 
BRANCH 23 24
ATOM     24  CB  HIS C  66      15.329  -2.523   7.435  1.00 42.68 LIG 0.09  C 
BRANCH 24 25
ATOM     25  CG  HIS C  66      16.079  -1.398   8.080  1.00 48.80 LIG 0.06  A 
ATOM     26 ND1  HIS C  66      17.378  -1.522   8.524  1.00 53.13 LIG-0.24  NA
ATOM     27  CE1 HIS C  66      17.776  -0.374   9.043  1.00 55.16 LIG 0.23  A 
ATOM     28 NE2  HIS C  66      16.782   0.492   8.952  1.00 53.86 LIG-0.25  NA
ATOM     29  CD2 HIS C  66      15.708  -0.125   8.354  1.00 53.41 LIG 0.14  A 
ENDBRANCH 24 25
ENDBRANCH 23 24
BRANCH 23 30
ATOM     30  C   HIS C  66      15.400  -3.323   9.810  1.00 41.89 LIG 0.22  C 
ATOM     31 O    HIS C  66      14.730  -2.793  10.701  1.00 44.58 LIG-0.29  OA
ENDBRANCH 23 30
ENDBRANCH 20 23
ENDBRANCH 4 19
TORSDOF 9
ENDMDL
MODEL 8
USER: ADFR SOLUTION from run 131
USER: SCORE 11.727738 LL:  -2.148 LR:  -9.580 RR:   0.000 FEB:  -6.895
USER: RMSD 4.234260
USER: SEED 130
USER: STATUS no improvement in best in 22 clusters for 5 generations
USER: GENES 11
USER: genes 0 Translation |==|  0.51275 0.40592 0.49650
USER: genes 1 Rotation |==|  0.90976 0.60165 0.52686 0.76654
USER: genes 2 Torsion [N]-C--CA-[N] |==|  0.84918
USER: genes 3 Torsion [C]-CA--CB-[CG] |==|  0.43385
USER: genes 4 Torsion [CA]-CB--CG-[CD2] |==|  0.55687
USER: genes 5 Torsion [CE2]-CZ--OH-[HH] |==|  0.70135
USER: genes 6 Torsion [N]-CA--C-[N] |==|  0.02529
USER: genes 7 Torsion [C]-N--CA-[C] |==|  0.66550
USER: genes 8 Torsion [N]-CA--CB-[CG] |==|  0.93906
USER: genes 9 Torsion [CA]-CB--CG-[ND1] |==|  0.27981
USER: genes 10 Torsion [N]-CA--C-[O] |==|  0.00744
ROOT
ATOM      1  C   TYR C  64      12.390  -2.231   7.014  1.00 51.57 LIG 0.26  C 
ATOM      2 O    TYR C  64      11.777  -1.186   6.790  1.00 54.62 LIG-0.27  OA
ATOM      3  N   PRO C  65      13.732  -2.281   7.052  1.00 43.10 LIG-0.34  N 
ATOM      4  CA  PRO C  65      14.589  -3.411   7.424  1.00 38.90 LIG 0.18  C 
ATOM      5  CB  PRO C  65      15.757  -3.275   6.457  1.00 40.80 LIG 0.04  C 
ATOM      6  CG  PRO C  65      15.883  -1.804   6.264  1.00 42.19 LIG 0.02  C 
ATOM      7  CD  PRO C  65      14.499  -1.223   6.372  1.00 44.37 LIG 0.13  C 
ENDROOT
BRANCH 1 8
ATOM      8  CA  TYR C  64      11.623  -3.529   7.257  1.00 49.73 LIG 0.40  C 
ATOM      9  N   TYR C  64      12.102  -4.549   6.327  1.00 50.52 LIG 0.61  N 
BRANCH 8 10
ATOM     10  CB  TYR C  64      11.835  -3.976   8.709  1.00 50.46 LIG 0.09  C 
BRANCH 10 11
ATOM     11  CG  TYR C  64      10.758  -4.873   9.278  1.00 47.68 LIG-0.06  A 
ATOM     12  CD2 TYR C  64      10.600  -4.999  10.653  1.00 48.34 LIG 0.01  A 
ATOM     13  CE2 TYR C  64       9.622  -5.816  11.190  1.00 49.15 LIG 0.04  A 
ATOM     14  CZ  TYR C  64       8.785  -6.519  10.348  1.00 50.59 LIG 0.07  A 
ATOM     15  CE1 TYR C  64       8.919  -6.412   8.977  1.00 46.73 LIG 0.04  A 
ATOM     16  CD1 TYR C  64       9.901  -5.591   8.450  1.00 46.22 LIG 0.01  A 
BRANCH 14 17
ATOM     17 OH   TYR C  64       7.810  -7.334  10.875  1.00 53.82 LIG-0.36  OA
ATOM     18 HH   TYR C  64       8.026  -8.139  10.765  1.00 53.82 LIG 0.22  HD
ENDBRANCH 14 17
ENDBRANCH 10 11
ENDBRANCH 8 10
ENDBRANCH 1 8
BRANCH 4 19
ATOM     19  C   PRO C  65      15.094  -3.296   8.859  1.00 37.07 LIG 0.24  C 
ATOM     20  N   HIS C  66      14.545  -2.327   9.589  1.00 40.38 LIG-0.35  N 
ATOM     21 H    HIS C  66      13.970  -1.767   9.281  1.00 40.38 LIG 0.16  HD
ATOM     22 O    PRO C  65      15.974  -4.070   9.276  1.00 29.28 LIG-0.27  OA
BRANCH 20 23
ATOM     23  CA  HIS C  66      14.873  -2.125  10.993  1.00 40.25 LIG 0.17  C 
BRANCH 23 24
ATOM     24  CB  HIS C  66      15.526  -0.752  11.202  1.00 42.68 LIG 0.09  C 
BRANCH 24 25
ATOM     25  CG  HIS C  66      16.143  -0.177   9.964  1.00 48.80 LIG 0.06  A 
ATOM     26 ND1  HIS C  66      15.526   0.792   9.201  1.00 53.13 LIG-0.24  NA
ATOM     27  CE1 HIS C  66      16.302   1.106   8.179  1.00 55.16 LIG 0.23  A 
ATOM     28 NE2  HIS C  66      17.401   0.376   8.250  1.00 53.86 LIG-0.25  NA
ATOM     29  CD2 HIS C  66      17.325  -0.436   9.357  1.00 53.41 LIG 0.14  A 
ENDBRANCH 24 25
ENDBRANCH 23 24
BRANCH 23 30
ATOM     30  C   HIS C  66      13.630  -2.249  11.874  1.00 41.89 LIG 0.22  C 
ATOM     31 O    HIS C  66      12.536  -2.539  11.383  1.00 44.58 LIG-0.29  OA
ENDBRANCH 23 30
ENDBRANCH 20 23
ENDBRANCH 4 19
TORSDOF 9
ENDMDL
MODEL 9
USER: ADFR SOLUTION from run 122
USER: SCORE 11.551143 LL:  -1.978 LR:  -9.573 RR:   0.000 FEB:  -6.888
USER: RMSD 5.614901
USER: SEED 121
USER: STATUS no improvement in best in 19 clusters for 5 generations
USER: GENES 11
USER: genes 0 Translation |==|  0.52774 0.38221 0.47648
USER: genes 1 Rotation |==|  0.91225 0.58703 0.58362 0.75590
USER: genes 2 Torsion [N]-C--CA-[N] |==|  0.20582
USER: genes 3 Torsion [C]-CA--CB-[CG] |==|  0.40069
USER: genes 4 Torsion [CA]-CB--CG-[CD2] |==|  0.63744
USER: genes 5 Torsion [CE2]-CZ--OH-[HH] |==|  0.13827
USER: genes 6 Torsion [N]-CA--C-[N] |==|  0.00834
USER: genes 7 Torsion [C]-N--CA-[C] |==|  0.64712
USER: genes 8 Torsion [N]-CA--CB-[CG] |==|  0.95018
USER: genes 9 Torsion [CA]-CB--CG-[ND1] |==|  0.79597
USER: genes 10 Torsion [N]-CA--C-[O] |==|  0.01358
ROOT
ATOM      1  C   TYR C  64      12.671  -2.604   6.654  1.00 51.57 LIG 0.26  C 
ATOM      2 O    TYR C  64      12.033  -1.584   6.392  1.00 54.62 LIG-0.27  OA
ATOM      3  N   PRO C  65      13.977  -2.573   6.968  1.00 43.10 LIG-0.34  N 
ATOM      4  CA  PRO C  65      14.830  -3.676   7.419  1.00 38.90 LIG 0.18  C 
ATOM      5  CB  PRO C  65      16.155  -3.374   6.733  1.00 40.80 LIG 0.04  C 
ATOM      6  CG  PRO C  65      16.196  -1.886   6.690  1.00 42.19 LIG 0.02  C 
ATOM      7  CD  PRO C  65      14.777  -1.407   6.552  1.00 44.37 LIG 0.13  C 
ENDROOT
BRANCH 1 8
ATOM      8  CA  TYR C  64      11.980  -3.966   6.624  1.00 49.73 LIG 0.40  C 
ATOM      9  N   TYR C  64      11.777  -4.430   7.994  1.00 50.52 LIG 0.61  N 
BRANCH 8 10
ATOM     10  CB  TYR C  64      10.640  -3.836   5.891  1.00 50.46 LIG 0.09  C 
BRANCH 10 11
ATOM     11  CG  TYR C  64      10.238  -5.028   5.050  1.00 47.68 LIG-0.06  A 
ATOM     12  CD2 TYR C  64       9.824  -4.855   3.734  1.00 48.34 LIG 0.01  A 
ATOM     13  CE2 TYR C  64       9.453  -5.933   2.952  1.00 49.15 LIG 0.04  A 
ATOM     14  CZ  TYR C  64       9.495  -7.206   3.484  1.00 50.59 LIG 0.07  A 
ATOM     15  CE1 TYR C  64       9.904  -7.407   4.788  1.00 46.73 LIG 0.04  A 
ATOM     16  CD1 TYR C  64      10.274  -6.321   5.563  1.00 46.22 LIG 0.01  A 
BRANCH 14 17
ATOM     17 OH   TYR C  64       9.126  -8.283   2.712  1.00 53.82 LIG-0.36  OA
ATOM     18 HH   TYR C  64       9.526  -8.249   1.973  1.00 53.82 LIG 0.22  HD
ENDBRANCH 14 17
ENDBRANCH 10 11
ENDBRANCH 8 10
ENDBRANCH 1 8
BRANCH 4 19
ATOM     19  C   PRO C  65      15.022  -3.668   8.932  1.00 37.07 LIG 0.24  C 
ATOM     20  N   HIS C  66      14.353  -2.726   9.595  1.00 40.38 LIG-0.35  N 
ATOM     21 H    HIS C  66      13.870  -2.128   9.211  1.00 40.38 LIG 0.16  HD
ATOM     22 O    PRO C  65      15.775  -4.499   9.471  1.00 29.28 LIG-0.27  OA
BRANCH 20 23
ATOM     23  CA  HIS C  66      14.380  -2.624  11.046  1.00 40.25 LIG 0.17  C 
BRANCH 23 24
ATOM     24  CB  HIS C  66      15.151  -1.370  11.484  1.00 42.68 LIG 0.09  C 
BRANCH 24 25
ATOM     25  CG  HIS C  66      16.034  -0.796  10.417  1.00 48.80 LIG 0.06  A 
ATOM     26 ND1  HIS C  66      17.218  -1.387  10.029  1.00 53.13 LIG-0.24  NA
ATOM     27  CE1 HIS C  66      17.776  -0.663   9.075  1.00 55.16 LIG 0.23  A 
ATOM     28 NE2  HIS C  66      16.997   0.376   8.830  1.00 53.86 LIG-0.25  NA
ATOM     29  CD2 HIS C  66      15.901   0.316   9.658  1.00 53.41 LIG 0.14  A 
ENDBRANCH 24 25
ENDBRANCH 23 24
BRANCH 23 30
ATOM     30  C   HIS C  66      12.965  -2.592  11.625  1.00 41.89 LIG 0.22  C 
ATOM     31 O    HIS C  66      11.983  -2.740  10.894  1.00 44.58 LIG-0.29  OA
ENDBRANCH 23 30
ENDBRANCH 20 23
ENDBRANCH 4 19
TORSDOF 9
ENDMDL
MODEL 10
USER: ADFR SOLUTION from run 111
USER: SCORE 11.038390 LL:  -1.533 LR:  -9.505 RR:   0.000 FEB:  -6.821
USER: RMSD 5.516537
USER: SEED 110
USER: STATUS no improvement in best in 27 clusters for 5 generations
USER: GENES 11
USER: genes 0 Translation |==|  0.47613 0.35033 0.45631
USER: genes 1 Rotation |==|  0.87705 0.65504 0.53287 0.78760
USER: genes 2 Torsion [N]-C--CA-[N] |==|  0.20878
USER: genes 3 Torsion [C]-CA--CB-[CG] |==|  0.30397
USER: genes 4 Torsion [CA]-CB--CG-[CD2] |==|  0.29295
USER: genes 5 Torsion [CE2]-CZ--OH-[HH] |==|  0.63644
USER: genes 6 Torsion [N]-CA--C-[N] |==|  0.85313
USER: genes 7 Torsion [C]-N--CA-[C] |==|  0.49275
USER: genes 8 Torsion [N]-CA--CB-[CG] |==|  0.10298
USER: genes 9 Torsion [CA]-CB--CG-[ND1] |==|  0.14272
USER: genes 10 Torsion [N]-CA--C-[O] |==|  0.67905
ROOT
ATOM      1  C   TYR C  64      11.703  -3.106   6.291  1.00 51.57 LIG 0.26  C 
ATOM      2 O    TYR C  64      10.871  -2.254   5.979  1.00 54.62 LIG-0.27  OA
ATOM      3  N   PRO C  65      13.026  -2.877   6.221  1.00 43.10 LIG-0.34  N 
ATOM      4  CA  PRO C  65      14.122  -3.740   6.671  1.00 38.90 LIG 0.18  C 
ATOM      5  CB  PRO C  65      15.180  -3.518   5.599  1.00 40.80 LIG 0.04  C 
ATOM      6  CG  PRO C  65      14.979  -2.098   5.196  1.00 42.19 LIG 0.02  C 
ATOM      7  CD  PRO C  65      13.511  -1.801   5.340  1.00 44.37 LIG 0.13  C 
ENDROOT
BRANCH 1 8
ATOM      8  CA  TYR C  64      11.245  -4.481   6.773  1.00 49.73 LIG 0.40  C 
ATOM      9  N   TYR C  64      11.428  -4.567   8.220  1.00 50.52 LIG 0.61  N 
BRANCH 8 10
ATOM     10  CB  TYR C  64       9.772  -4.682   6.399  1.00 50.46 LIG 0.09  C 
BRANCH 10 11
ATOM     11  CG  TYR C  64       9.509  -5.692   5.304  1.00 47.68 LIG-0.06  A 
ATOM     12  CD2 TYR C  64       8.985  -6.943   5.610  1.00 48.34 LIG 0.01  A 
ATOM     13  CE2 TYR C  64       8.740  -7.879   4.622  1.00 49.15 LIG 0.04  A 
ATOM     14  CZ  TYR C  64       9.018  -7.568   3.307  1.00 50.59 LIG 0.07  A 
ATOM     15  CE1 TYR C  64       9.537  -6.332   2.973  1.00 46.73 LIG 0.04  A 
ATOM     16  CD1 TYR C  64       9.779  -5.402   3.970  1.00 46.22 LIG 0.01  A 
BRANCH 14 17
ATOM     17 OH   TYR C  64       8.777  -8.495   2.318  1.00 53.82 LIG-0.36  OA
ATOM     18 HH   TYR C  64       9.455  -8.564   1.827  1.00 53.82 LIG 0.22  HD
ENDBRANCH 14 17
ENDBRANCH 10 11
ENDBRANCH 8 10
ENDBRANCH 1 8
BRANCH 4 19
ATOM     19  C   PRO C  65      14.668  -3.308   8.028  1.00 37.07 LIG 0.24  C 
ATOM     20  N   HIS C  66      15.025  -2.029   8.128  1.00 40.38 LIG-0.35  N 
ATOM     21 H    HIS C  66      14.995  -1.475   7.471  1.00 40.38 LIG 0.16  HD
ATOM     22 O    PRO C  65      14.769  -4.134   8.953  1.00 29.28 LIG-0.27  OA
BRANCH 20 23
ATOM     23  CA  HIS C  66      15.505  -1.447   9.372  1.00 40.25 LIG 0.17  C 
BRANCH 23 24
ATOM     24  CB  HIS C  66      16.700  -2.244   9.915  1.00 42.68 LIG 0.09  C 
BRANCH 24 25
ATOM     25  CG  HIS C  66      17.623  -2.756   8.851  1.00 48.80 LIG 0.06  A 
ATOM     26 ND1  HIS C  66      18.151  -1.948   7.867  1.00 53.13 LIG-0.24  NA
ATOM     27  CE1 HIS C  66      18.927  -2.669   7.077  1.00 55.16 LIG 0.23  A 
ATOM     28 NE2  HIS C  66      18.922  -3.916   7.513  1.00 53.86 LIG-0.25  NA
ATOM     29  CD2 HIS C  66      18.112  -3.997   8.622  1.00 53.41 LIG 0.14  A 
ENDBRANCH 24 25
ENDBRANCH 23 24
BRANCH 23 30
ATOM     30  C   HIS C  66      15.902   0.017   9.181  1.00 41.89 LIG 0.22  C 
ATOM     31 O    HIS C  66      17.073   0.376   9.327  1.00 44.58 LIG-0.29  OA
ENDBRANCH 23 30
ENDBRANCH 20 23
ENDBRANCH 4 19
TORSDOF 9
ENDMDL
MODEL 11
USER: ADFR SOLUTION from run 146
USER: SCORE 10.996647 LL:  -1.501 LR:  -9.495 RR:   0.000 FEB:  -6.811
USER: RMSD 3.827034
USER: SEED 145
USER: STATUS no improvement in best in 27 clusters for 5 generations
USER: GENES 11
USER: genes 0 Translation |==|  0.51764 0.38085 0.57225
USER: genes 1 Rotation |==|  0.78089 0.77119 0.34767 0.77268
USER: genes 2 Torsion [N]-C--CA-[N] |==|  0.17888
USER: genes 3 Torsion [C]-CA--CB-[CG] |==|  0.26902
USER: genes 4 Torsion [CA]-CB--CG-[CD2] |==|  0.43926
USER: genes 5 Torsion [CE2]-CZ--OH-[HH] |==|  0.72907
USER: genes 6 Torsion [N]-CA--C-[N] |==|  0.94360
USER: genes 7 Torsion [C]-N--CA-[C] |==|  0.77673
USER: genes 8 Torsion [N]-CA--CB-[CG] |==|  0.19571
USER: genes 9 Torsion [CA]-CB--CG-[ND1] |==|  0.30042
USER: genes 10 Torsion [N]-CA--C-[O] |==|  0.43365
ROOT
ATOM      1  C   TYR C  64      12.482  -2.626   8.378  1.00 51.57 LIG 0.26  C 
ATOM      2 O    TYR C  64      11.518  -1.869   8.500  1.00 54.62 LIG-0.27  OA
ATOM      3  N   PRO C  65      13.259  -2.627   7.281  1.00 43.10 LIG-0.34  N 
ATOM      4  CA  PRO C  65      14.498  -3.374   7.047  1.00 38.90 LIG 0.18  C 
ATOM      5  CB  PRO C  65      14.385  -3.753   5.577  1.00 40.80 LIG 0.04  C 
ATOM      6  CG  PRO C  65      13.650  -2.606   4.975  1.00 42.19 LIG 0.02  C 
ATOM      7  CD  PRO C  65      12.713  -2.079   6.027  1.00 44.37 LIG 0.13  C 
ENDROOT
BRANCH 1 8
ATOM      8  CA  TYR C  64      12.826  -3.610   9.494  1.00 49.73 LIG 0.40  C 
ATOM      9  N   TYR C  64      14.135  -3.268  10.046  1.00 50.52 LIG 0.61  N 
BRANCH 8 10
ATOM     10  CB  TYR C  64      11.744  -3.541  10.578  1.00 50.46 LIG 0.09  C 
BRANCH 10 11
ATOM     11  CG  TYR C  64      10.662  -4.594  10.487  1.00 47.68 LIG-0.06  A 
ATOM     12  CD2 TYR C  64       9.910  -4.932  11.607  1.00 48.34 LIG 0.01  A 
ATOM     13  CE2 TYR C  64       8.918  -5.892  11.541  1.00 49.15 LIG 0.04  A 
ATOM     14  CZ  TYR C  64       8.667  -6.529  10.343  1.00 50.59 LIG 0.07  A 
ATOM     15  CE1 TYR C  64       9.397  -6.214   9.214  1.00 46.73 LIG 0.04  A 
ATOM     16  CD1 TYR C  64      10.388  -5.249   9.290  1.00 46.22 LIG 0.01  A 
BRANCH 14 17
ATOM     17 OH   TYR C  64       7.681  -7.487  10.271  1.00 53.82 LIG-0.36  OA
ATOM     18 HH   TYR C  64       8.026  -8.250  10.340  1.00 53.82 LIG 0.22  HD
ENDBRANCH 14 17
ENDBRANCH 10 11
ENDBRANCH 8 10
ENDBRANCH 1 8
BRANCH 4 19
ATOM     19  C   PRO C  65      15.736  -2.508   7.260  1.00 37.07 LIG 0.24  C 
ATOM     20  N   HIS C  66      15.538  -1.193   7.196  1.00 40.38 LIG-0.35  N 
ATOM     21 H    HIS C  66      14.779  -0.835   7.011  1.00 40.38 LIG 0.16  HD
ATOM     22 O    PRO C  65      16.842  -3.038   7.464  1.00 29.28 LIG-0.27  OA
BRANCH 20 23
ATOM     23  CA  HIS C  66      16.603  -0.230   7.439  1.00 40.25 LIG 0.17  C 
BRANCH 23 24
ATOM     24  CB  HIS C  66      16.276   1.114   6.774  1.00 42.68 LIG 0.09  C 
BRANCH 24 25
ATOM     25  CG  HIS C  66      15.156   1.862   7.432  1.00 48.80 LIG 0.06  A 
ATOM     26 ND1  HIS C  66      15.356   3.003   8.179  1.00 53.13 LIG-0.24  NA
ATOM     27  CE1 HIS C  66      14.194   3.442   8.630  1.00 55.16 LIG 0.23  A 
ATOM     28 NE2  HIS C  66      13.246   2.626   8.202  1.00 53.86 LIG-0.25  NA
ATOM     29  CD2 HIS C  66      13.823   1.628   7.451  1.00 53.41 LIG 0.14  A 
ENDBRANCH 24 25
ENDBRANCH 23 24
BRANCH 23 30
ATOM     30  C   HIS C  66      16.834  -0.027   8.937  1.00 41.89 LIG 0.22  C 
ATOM     31 O    HIS C  66      17.921   0.376   9.357  1.00 44.58 LIG-0.29  OA
ENDBRANCH 23 30
ENDBRANCH 20 23
ENDBRANCH 4 19
TORSDOF 9
ENDMDL
MODEL 12
USER: ADFR SOLUTION from run 183
USER: SCORE 11.008091 LL:  -1.511 LR:  -9.497 RR:   0.000 FEB:  -6.812
USER: RMSD 3.655538
USER: SEED 182
USER: STATUS no improvement in best in 19 clusters for 5 generations
USER: GENES 11
USER: genes 0 Translation |==|  0.69352 0.35145 0.52733
USER: genes 1 Rotation |==|  0.45108 0.31124 0.59414 0.95068
USER: genes 2 Torsion [N]-C--CA-[N] |==|  0.49039
USER: genes 3 Torsion [C]-CA--CB-[CG] |==|  0.34699
USER: genes 4 Torsion [CA]-CB--CG-[CD2] |==|  0.03627
USER: genes 5 Torsion [CE2]-CZ--OH-[HH] |==|  0.82738
USER: genes 6 Torsion [N]-CA--C-[N] |==|  0.32376
USER: genes 7 Torsion [C]-N--CA-[C] |==|  0.23046
USER: genes 8 Torsion [N]-CA--CB-[CG] |==|  0.51941
USER: genes 9 Torsion [CA]-CB--CG-[ND1] |==|  0.49182
USER: genes 10 Torsion [N]-CA--C-[O] |==|  0.94036
ROOT
ATOM      1  C   TYR C  64      15.780  -3.089   7.569  1.00 51.57 LIG 0.26  C 
ATOM      2 O    TYR C  64      16.600  -3.840   7.042  1.00 54.62 LIG-0.27  OA
ATOM      3  N   PRO C  65      16.127  -2.194   8.510  1.00 43.10 LIG-0.34  N 
ATOM      4  CA  PRO C  65      15.295  -1.160   9.132  1.00 38.90 LIG 0.18  C 
ATOM      5  CB  PRO C  65      15.784  -1.162  10.573  1.00 40.80 LIG 0.04  C 
ATOM      6  CG  PRO C  65      17.230  -1.499  10.452  1.00 42.19 LIG 0.02  C 
ATOM      7  CD  PRO C  65      17.375  -2.409   9.263  1.00 44.37 LIG 0.13  C 
ENDROOT
BRANCH 1 8
ATOM      8  CA  TYR C  64      14.309  -3.156   7.161  1.00 49.73 LIG 0.40  C 
ATOM      9  N   TYR C  64      14.156  -4.124   6.078  1.00 50.52 LIG 0.61  N 
BRANCH 8 10
ATOM     10  CB  TYR C  64      13.467  -3.564   8.377  1.00 50.46 LIG 0.09  C 
BRANCH 10 11
ATOM     11  CG  TYR C  64      12.337  -2.623   8.732  1.00 47.68 LIG-0.06  A 
ATOM     12  CD2 TYR C  64      11.937  -1.633   7.841  1.00 48.34 LIG 0.01  A 
ATOM     13  CE2 TYR C  64      10.907  -0.765   8.150  1.00 49.15 LIG 0.04  A 
ATOM     14  CZ  TYR C  64      10.260  -0.881   9.363  1.00 50.59 LIG 0.07  A 
ATOM     15  CE1 TYR C  64      10.635  -1.856  10.267  1.00 46.73 LIG 0.04  A 
ATOM     16  CD1 TYR C  64      11.668  -2.721   9.948  1.00 46.22 LIG 0.01  A 
BRANCH 14 17
ATOM     17 OH   TYR C  64       9.234  -0.020   9.677  1.00 53.82 LIG-0.36  OA
ATOM     18 HH   TYR C  64       9.526   0.768   9.702  1.00 53.82 LIG 0.22  HD
ENDBRANCH 14 17
ENDBRANCH 10 11
ENDBRANCH 8 10
ENDBRANCH 1 8
BRANCH 4 19
ATOM     19  C   PRO C  65      15.532   0.213   8.511  1.00 37.07 LIG 0.24  C 
ATOM     20  N   HIS C  66      14.486   0.756   7.891  1.00 40.38 LIG-0.35  N 
ATOM     21 H    HIS C  66      13.729   0.359   7.801  1.00 40.38 LIG 0.16  HD
ATOM     22 O    PRO C  65      16.651   0.751   8.592  1.00 29.28 LIG-0.27  OA
BRANCH 20 23
ATOM     23  CA  HIS C  66      14.531   2.087   7.303  1.00 40.25 LIG 0.17  C 
BRANCH 23 24
ATOM     24  CB  HIS C  66      15.322   3.047   8.202  1.00 42.68 LIG 0.09  C 
BRANCH 24 25
ATOM     25  CG  HIS C  66      15.278   4.476   7.754  1.00 48.80 LIG 0.06  A 
ATOM     26 ND1  HIS C  66      15.875   5.500   8.459  1.00 53.13 LIG-0.24  NA
ATOM     27  CE1 HIS C  66      15.675   6.643   7.827  1.00 55.16 LIG 0.23  A 
ATOM     28 NE2  HIS C  66      14.969   6.398   6.737  1.00 53.86 LIG-0.25  NA
ATOM     29  CD2 HIS C  66      14.707   5.050   6.669  1.00 53.41 LIG 0.14  A 
ENDBRANCH 24 25
ENDBRANCH 23 24
BRANCH 23 30
ATOM     30  C   HIS C  66      15.151   2.053   5.906  1.00 41.89 LIG 0.22  C 
ATOM     31 O    HIS C  66      15.881   1.120   5.563  1.00 44.58 LIG-0.29  OA
ENDBRANCH 23 30
ENDBRANCH 20 23
ENDBRANCH 4 19
TORSDOF 9
ENDMDL
MODEL 13
USER: ADFR SOLUTION from run 118
USER: SCORE 10.789176 LL:  -1.293 LR:  -9.496 RR:   0.000 FEB:  -6.811
USER: RMSD 8.117266
USER: SEED 117
USER: STATUS no improvement in best in 35 clusters for 5 generations
USER: GENES 11
USER: genes 0 Translation |==|  0.65437 0.46098 0.46704
USER: genes 1 Rotation |==|  0.84098 0.48699 0.81069 0.69244
USER: genes 2 Torsion [N]-C--CA-[N] |==|  0.17025
USER: genes 3 Torsion [C]-CA--CB-[CG] |==|  0.22523
USER: genes 4 Torsion [CA]-CB--CG-[CD2] |==|  0.88122
USER: genes 5 Torsion [CE2]-CZ--OH-[HH] |==|  0.40042
USER: genes 6 Torsion [N]-CA--C-[N] |==|  0.96707
USER: genes 7 Torsion [C]-N--CA-[C] |==|  0.19415
USER: genes 8 Torsion [N]-CA--CB-[CG] |==|  0.50201
USER: genes 9 Torsion [CA]-CB--CG-[ND1] |==|  0.15011
USER: genes 10 Torsion [N]-CA--C-[O] |==|  0.01073
ROOT
ATOM      1  C   TYR C  64      15.045  -1.364   6.484  1.00 51.57 LIG 0.26  C 
ATOM      2 O    TYR C  64      14.583  -0.355   5.949  1.00 54.62 LIG-0.27  OA
ATOM      3  N   PRO C  65      15.461  -1.372   7.762  1.00 43.10 LIG-0.34  N 
ATOM      4  CA  PRO C  65      15.913  -2.513   8.563  1.00 38.90 LIG 0.18  C 
ATOM      5  CB  PRO C  65      17.037  -1.912   9.394  1.00 40.80 LIG 0.04  C 
ATOM      6  CG  PRO C  65      16.597  -0.506   9.614  1.00 42.19 LIG 0.02  C 
ATOM      7  CD  PRO C  65      15.814  -0.091   8.399  1.00 44.37 LIG 0.13  C 
ENDROOT
BRANCH 1 8
ATOM      8  CA  TYR C  64      15.166  -2.662   5.689  1.00 49.73 LIG 0.40  C 
ATOM      9  N   TYR C  64      14.352  -3.693   6.330  1.00 50.52 LIG 0.61  N 
BRANCH 8 10
ATOM     10  CB  TYR C  64      14.697  -2.418   4.250  1.00 50.46 LIG 0.09  C 
BRANCH 10 11
ATOM     11  CG  TYR C  64      15.716  -1.779   3.332  1.00 47.68 LIG-0.06  A 
ATOM     12  CD2 TYR C  64      16.502  -0.722   3.778  1.00 48.34 LIG 0.01  A 
ATOM     13  CE2 TYR C  64      17.437  -0.126   2.952  1.00 49.15 LIG 0.04  A 
ATOM     14  CZ  TYR C  64      17.597  -0.588   1.661  1.00 50.59 LIG 0.07  A 
ATOM     15  CE1 TYR C  64      16.832  -1.637   1.192  1.00 46.73 LIG 0.04  A 
ATOM     16  CD1 TYR C  64      15.898  -2.228   2.027  1.00 46.22 LIG 0.01  A 
BRANCH 14 17
ATOM     17 OH   TYR C  64      18.526   0.001   0.834  1.00 53.82 LIG-0.36  OA
ATOM     18 HH   TYR C  64      18.874  -0.584   0.342  1.00 53.82 LIG 0.22  HD
ENDBRANCH 14 17
ENDBRANCH 10 11
ENDBRANCH 8 10
ENDBRANCH 1 8
BRANCH 4 19
ATOM     19  C   PRO C  65      14.815  -3.034   9.485  1.00 37.07 LIG 0.24  C 
ATOM     20  N   HIS C  66      13.743  -2.253   9.606  1.00 40.38 LIG-0.35  N 
ATOM     21 H    HIS C  66      13.671  -1.484   9.229  1.00 40.38 LIG 0.16  HD
ATOM     22 O    PRO C  65      14.958  -4.119  10.077  1.00 29.28 LIG-0.27  OA
BRANCH 20 23
ATOM     23  CA  HIS C  66      12.583  -2.636  10.398  1.00 40.25 LIG 0.17  C 
BRANCH 23 24
ATOM     24  CB  HIS C  66      12.083  -4.027   9.983  1.00 42.68 LIG 0.09  C 
BRANCH 24 25
ATOM     25  CG  HIS C  66      10.876  -4.491  10.740  1.00 48.80 LIG 0.06  A 
ATOM     26 ND1  HIS C  66       9.717  -3.749  10.827  1.00 53.13 LIG-0.24  NA
ATOM     27  CE1 HIS C  66       8.829  -4.406  11.552  1.00 55.16 LIG 0.23  A 
ATOM     28 NE2  HIS C  66       9.370  -5.548  11.939  1.00 53.86 LIG-0.25  NA
ATOM     29  CD2 HIS C  66      10.651  -5.624  11.445  1.00 53.41 LIG 0.14  A 
ENDBRANCH 24 25
ENDBRANCH 23 24
BRANCH 23 30
ATOM     30  C   HIS C  66      12.905  -2.624  11.892  1.00 41.89 LIG 0.22  C 
ATOM     31 O    HIS C  66      14.009  -2.249  12.295  1.00 44.58 LIG-0.29  OA
ENDBRANCH 23 30
ENDBRANCH 20 23
ENDBRANCH 4 19
TORSDOF 9
ENDMDL
MODEL 14
USER: ADFR SOLUTION from run 118
USER: SCORE 10.759905 LL:  -1.268 LR:  -9.492 RR:   0.000 FEB:  -6.807
USER: RMSD 7.621309
USER: SEED 117
USER: STATUS no improvement in best in 35 clusters for 5 generations
USER: GENES 11
USER: genes 0 Translation |==|  0.62286 0.61526 0.40423
USER: genes 1 Rotation |==|  0.21941 0.29775 0.14044 0.53280
USER: genes 2 Torsion [N]-C--CA-[N] |==|  0.22574
USER: genes 3 Torsion [C]-CA--CB-[CG] |==|  0.60782
USER: genes 4 Torsion [CA]-CB--CG-[CD2] |==|  0.78852
USER: genes 5 Torsion [CE2]-CZ--OH-[HH] |==|  0.97217
USER: genes 6 Torsion [N]-CA--C-[N] |==|  0.96817
USER: genes 7 Torsion [C]-N--CA-[C] |==|  0.06760
USER: genes 8 Torsion [N]-CA--CB-[CG] |==|  0.22872
USER: genes 9 Torsion [CA]-CB--CG-[ND1] |==|  0.77971
USER: genes 10 Torsion [N]-CA--C-[O] |==|  0.33871
ROOT
ATOM      1  C   TYR C  64      14.455   1.066   5.353  1.00 51.57 LIG 0.26  C 
ATOM      2 O    TYR C  64      13.357   0.867   4.833  1.00 54.62 LIG-0.27  OA
ATOM      3  N   PRO C  65      14.581   1.503   6.618  1.00 43.10 LIG-0.34  N 
ATOM      4  CA  PRO C  65      15.807   1.666   7.404  1.00 38.90 LIG 0.18  C 
ATOM      5  CB  PRO C  65      15.526   2.932   8.200  1.00 40.80 LIG 0.04  C 
ATOM      6  CG  PRO C  65      14.056   2.880   8.435  1.00 42.19 LIG 0.02  C 
ATOM      7  CD  PRO C  65      13.442   2.196   7.244  1.00 44.37 LIG 0.13  C 
ENDROOT
BRANCH 1 8
ATOM      8  CA  TYR C  64      15.733   0.821   4.555  1.00 49.73 LIG 0.40  C 
ATOM      9  N   TYR C  64      16.277  -0.487   4.913  1.00 50.52 LIG 0.61  N 
BRANCH 8 10
ATOM     10  CB  TYR C  64      15.413   0.884   3.057  1.00 50.46 LIG 0.09  C 
BRANCH 10 11
ATOM     11  CG  TYR C  64      16.136  -0.127   2.193  1.00 47.68 LIG-0.06  A 
ATOM     12  CD2 TYR C  64      17.475   0.053   1.868  1.00 48.34 LIG 0.01  A 
ATOM     13  CE2 TYR C  64      18.151  -0.859   1.079  1.00 49.15 LIG 0.04  A 
ATOM     14  CZ  TYR C  64      17.485  -1.971   0.604  1.00 50.59 LIG 0.07  A 
ATOM     15  CE1 TYR C  64      16.154  -2.177   0.912  1.00 46.73 LIG 0.04  A 
ATOM     16  CD1 TYR C  64      15.487  -1.257   1.704  1.00 46.22 LIG 0.01  A 
BRANCH 14 17
ATOM     17 OH   TYR C  64      18.151  -2.884  -0.182  1.00 53.82 LIG-0.36  OA
ATOM     18 HH   TYR C  64      18.900  -2.571  -0.401  1.00 53.82 LIG 0.22  HD
ENDBRANCH 14 17
ENDBRANCH 10 11
ENDBRANCH 8 10
ENDBRANCH 1 8
BRANCH 4 19
ATOM     19  C   PRO C  65      16.032   0.498   8.360  1.00 37.07 LIG 0.24  C 
ATOM     20  N   HIS C  66      15.003  -0.334   8.508  1.00 40.38 LIG-0.35  N 
ATOM     21 H    HIS C  66      14.240  -0.218   8.129  1.00 40.38 LIG 0.16  HD
ATOM     22 O    PRO C  65      17.118   0.375   8.953  1.00 29.28 LIG-0.27  OA
BRANCH 20 23
ATOM     23  CA  HIS C  66      15.077  -1.530   9.334  1.00 40.25 LIG 0.17  C 
BRANCH 23 24
ATOM     24  CB  HIS C  66      15.360  -2.766   8.468  1.00 42.68 LIG 0.09  C 
BRANCH 24 25
ATOM     25  CG  HIS C  66      16.809  -2.957   8.135  1.00 48.80 LIG 0.06  A 
ATOM     26 ND1  HIS C  66      17.447  -2.247   7.141  1.00 53.13 LIG-0.24  NA
ATOM     27  CE1 HIS C  66      18.713  -2.623   7.077  1.00 55.16 LIG 0.23  A 
ATOM     28 NE2  HIS C  66      18.918  -3.551   7.994  1.00 53.86 LIG-0.25  NA
ATOM     29  CD2 HIS C  66      17.742  -3.779   8.669  1.00 53.41 LIG 0.14  A 
ENDBRANCH 24 25
ENDBRANCH 23 24
BRANCH 23 30
ATOM     30  C   HIS C  66      16.154  -1.392  10.410  1.00 41.89 LIG 0.22  C 
ATOM     31 O    HIS C  66      15.867  -1.499  11.605  1.00 44.58 LIG-0.29  OA
ENDBRANCH 23 30
ENDBRANCH 20 23
ENDBRANCH 4 19
TORSDOF 9
ENDMDL
MODEL 15
USER: ADFR SOLUTION from run 126
USER: SCORE 10.690474 LL:  -1.205 LR:  -9.485 RR:   0.000 FEB:  -6.801
USER: RMSD 3.457267
USER: SEED 125
USER: STATUS no improvement in best in 17 clusters for 5 generations
USER: GENES 11
USER: genes 0 Translation |==|  0.57380 0.36387 0.58319
USER: genes 1 Rotation |==|  0.49510 0.55353 0.48381 0.99684
USER: genes 2 Torsion [N]-C--CA-[N] |==|  0.40015
USER: genes 3 Torsion [C]-CA--CB-[CG] |==|  0.74825
USER: genes 4 Torsion [CA]-CB--CG-[CD2] |==|  0.60322
USER: genes 5 Torsion [CE2]-CZ--OH-[HH] |==|  0.74726
USER: genes 6 Torsion [N]-CA--C-[N] |==|  0.11341
USER: genes 7 Torsion [C]-N--CA-[C] |==|  0.20349
USER: genes 8 Torsion [N]-CA--CB-[CG] |==|  0.50055
USER: genes 9 Torsion [CA]-CB--CG-[ND1] |==|  0.55698
USER: genes 10 Torsion [N]-CA--C-[O] |==|  0.06085
ROOT
ATOM      1  C   TYR C  64      13.535  -2.893   8.574  1.00 51.57 LIG 0.26  C 
ATOM      2 O    TYR C  64      13.161  -3.630   7.661  1.00 54.62 LIG-0.27  OA
ATOM      3  N   PRO C  65      14.823  -2.546   8.735  1.00 43.10 LIG-0.34  N 
ATOM      4  CA  PRO C  65      15.395  -1.590   9.688  1.00 38.90 LIG 0.18  C 
ATOM      5  CB  PRO C  65      16.708  -2.255  10.077  1.00 40.80 LIG 0.04  C 
ATOM      6  CG  PRO C  65      17.122  -2.967   8.836  1.00 42.19 LIG 0.02  C 
ATOM      7  CD  PRO C  65      15.865  -3.396   8.131  1.00 44.37 LIG 0.13  C 
ENDROOT
BRANCH 1 8
ATOM      8  CA  TYR C  64      12.521  -2.343   9.576  1.00 49.73 LIG 0.40  C 
ATOM      9  N   TYR C  64      11.267  -2.060   8.882  1.00 50.52 LIG 0.61  N 
BRANCH 8 10
ATOM     10  CB  TYR C  64      12.304  -3.374  10.690  1.00 50.46 LIG 0.09  C 
BRANCH 10 11
ATOM     11  CG  TYR C  64      11.186  -4.365  10.452  1.00 47.68 LIG-0.06  A 
ATOM     12  CD2 TYR C  64      10.384  -4.792  11.505  1.00 48.34 LIG 0.01  A 
ATOM     13  CE2 TYR C  64       9.360  -5.697  11.305  1.00 49.15 LIG 0.04  A 
ATOM     14  CZ  TYR C  64       9.125  -6.189  10.037  1.00 50.59 LIG 0.07  A 
ATOM     15  CE1 TYR C  64       9.904  -5.782   8.972  1.00 46.73 LIG 0.04  A 
ATOM     16  CD1 TYR C  64      10.928  -4.874   9.183  1.00 46.22 LIG 0.01  A 
BRANCH 14 17
ATOM     17 OH   TYR C  64       8.106  -7.092   9.831  1.00 53.82 LIG-0.36  OA
ATOM     18 HH   TYR C  64       8.403  -7.873   9.914  1.00 53.82 LIG 0.22  HD
ENDBRANCH 14 17
ENDBRANCH 10 11
ENDBRANCH 8 10
ENDBRANCH 1 8
BRANCH 4 19
ATOM     19  C   PRO C  65      15.676  -0.238   9.041  1.00 37.07 LIG 0.24  C 
ATOM     20  N   HIS C  66      14.746   0.203   8.195  1.00 40.38 LIG-0.35  N 
ATOM     21 H    HIS C  66      14.045  -0.248   7.984  1.00 40.38 LIG 0.16  HD
ATOM     22 O    PRO C  65      16.725   0.376   9.305  1.00 29.28 LIG-0.27  OA
BRANCH 20 23
ATOM     23  CA  HIS C  66      14.834   1.502   7.545  1.00 40.25 LIG 0.17  C 
BRANCH 23 24
ATOM     24  CB  HIS C  66      15.143   2.599   8.573  1.00 42.68 LIG 0.09  C 
BRANCH 24 25
ATOM     25  CG  HIS C  66      15.246   3.973   7.984  1.00 48.80 LIG 0.06  A 
ATOM     26 ND1  HIS C  66      15.901   5.010   8.615  1.00 53.13 LIG-0.24  NA
ATOM     27  CE1 HIS C  66      15.831   6.094   7.864  1.00 55.16 LIG 0.23  A 
ATOM     28 NE2  HIS C  66      15.155   5.799   6.768  1.00 53.86 LIG-0.25  NA
ATOM     29  CD2 HIS C  66      14.777   4.478   6.820  1.00 53.41 LIG 0.14  A 
ENDBRANCH 24 25
ENDBRANCH 23 24
BRANCH 23 30
ATOM     30  C   HIS C  66      15.901   1.501   6.450  1.00 41.89 LIG 0.22  C 
ATOM     31 O    HIS C  66      16.271   0.444   5.933  1.00 44.58 LIG-0.29  OA
ENDBRANCH 23 30
ENDBRANCH 20 23
ENDBRANCH 4 19
TORSDOF 9
ENDMDL
MODEL 16
USER: ADFR SOLUTION from run 188
USER: SCORE 11.123535 LL:  -1.647 LR:  -9.477 RR:   0.000 FEB:  -6.792
USER: RMSD 5.926255
USER: SEED 187
USER: STATUS no improvement in best in 22 clusters for 5 generations
USER: GENES 11
USER: genes 0 Translation |==|  0.74422 0.35590 0.50902
USER: genes 1 Rotation |==|  0.45632 0.21661 0.60556 0.89578
USER: genes 2 Torsion [N]-C--CA-[N] |==|  0.83193
USER: genes 3 Torsion [C]-CA--CB-[CG] |==|  0.26189
USER: genes 4 Torsion [CA]-CB--CG-[CD2] |==|  0.71177
USER: genes 5 Torsion [CE2]-CZ--OH-[HH] |==|  0.13852
USER: genes 6 Torsion [N]-CA--C-[N] |==|  0.33284
USER: genes 7 Torsion [C]-N--CA-[C] |==|  0.81406
USER: genes 8 Torsion [N]-CA--CB-[CG] |==|  0.65580
USER: genes 9 Torsion [CA]-CB--CG-[ND1] |==|  0.72542
USER: genes 10 Torsion [N]-CA--C-[O] |==|  0.90062
ROOT
ATOM      1  C   TYR C  64      16.730  -3.019   7.239  1.00 51.57 LIG 0.26  C 
ATOM      2 O    TYR C  64      17.786  -3.630   7.076  1.00 54.62 LIG-0.27  OA
ATOM      3  N   PRO C  65      16.545  -2.165   8.261  1.00 43.10 LIG-0.34  N 
ATOM      4  CA  PRO C  65      15.402  -1.283   8.513  1.00 38.90 LIG 0.18  C 
ATOM      5  CB  PRO C  65      15.265  -1.340  10.028  1.00 40.80 LIG 0.04  C 
ATOM      6  CG  PRO C  65      16.669  -1.500  10.500  1.00 42.19 LIG 0.02  C 
ATOM      7  CD  PRO C  65      17.401  -2.294   9.454  1.00 44.37 LIG 0.13  C 
ENDROOT
BRANCH 1 8
ATOM      8  CA  TYR C  64      15.572  -3.221   6.265  1.00 49.73 LIG 0.40  C 
ATOM      9  N   TYR C  64      14.419  -3.746   6.993  1.00 50.52 LIG 0.61  N 
BRANCH 8 10
ATOM     10  CB  TYR C  64      15.230  -1.881   5.602  1.00 50.46 LIG 0.09  C 
BRANCH 10 11
ATOM     11  CG  TYR C  64      15.898  -1.625   4.269  1.00 47.68 LIG-0.06  A 
ATOM     12  CD2 TYR C  64      16.977  -0.753   4.176  1.00 48.34 LIG 0.01  A 
ATOM     13  CE2 TYR C  64      17.598  -0.507   2.966  1.00 49.15 LIG 0.04  A 
ATOM     14  CZ  TYR C  64      17.141  -1.138   1.826  1.00 50.59 LIG 0.07  A 
ATOM     15  CE1 TYR C  64      16.072  -2.009   1.888  1.00 46.73 LIG 0.04  A 
ATOM     16  CD1 TYR C  64      15.457  -2.249   3.106  1.00 46.22 LIG 0.01  A 
BRANCH 14 17
ATOM     17 OH   TYR C  64      17.754  -0.897   0.618  1.00 53.82 LIG-0.36  OA
ATOM     18 HH   TYR C  64      18.585  -0.987   0.702  1.00 53.82 LIG 0.22  HD
ENDBRANCH 14 17
ENDBRANCH 10 11
ENDBRANCH 8 10
ENDBRANCH 1 8
BRANCH 4 19
ATOM     19  C   PRO C  65      15.681   0.152   8.076  1.00 37.07 LIG 0.24  C 
ATOM     20  N   HIS C  66      14.867   0.641   7.143  1.00 40.38 LIG-0.35  N 
ATOM     21 H    HIS C  66      14.242   0.183   6.770  1.00 40.38 LIG 0.16  HD
ATOM     22 O    PRO C  65      16.628   0.785   8.577  1.00 29.28 LIG-0.27  OA
BRANCH 20 23
ATOM     23  CA  HIS C  66      14.960   2.013   6.666  1.00 40.25 LIG 0.17  C 
BRANCH 23 24
ATOM     24  CB  HIS C  66      14.056   2.220   5.442  1.00 42.68 LIG 0.09  C 
BRANCH 24 25
ATOM     25  CG  HIS C  66      14.776   2.735   4.234  1.00 48.80 LIG 0.06  A 
ATOM     26 ND1  HIS C  66      14.775   4.067   3.874  1.00 53.13 LIG-0.24  NA
ATOM     27  CE1 HIS C  66      15.491   4.224   2.774  1.00 55.16 LIG 0.23  A 
ATOM     28 NE2  HIS C  66      15.955   3.043   2.406  1.00 53.86 LIG-0.25  NA
ATOM     29  CD2 HIS C  66      15.521   2.095   3.303  1.00 53.41 LIG 0.14  A 
ENDBRANCH 24 25
ENDBRANCH 23 24
BRANCH 23 30
ATOM     30  C   HIS C  66      14.585   3.008   7.764  1.00 41.89 LIG 0.22  C 
ATOM     31 O    HIS C  66      13.697   2.742   8.577  1.00 44.58 LIG-0.29  OA
ENDBRANCH 23 30
ENDBRANCH 20 23
ENDBRANCH 4 19
TORSDOF 9
ENDMDL
MODEL 17
USER: ADFR SOLUTION from run 64
USER: SCORE 11.419370 LL:  -1.953 LR:  -9.467 RR:   0.000 FEB:  -6.782
USER: RMSD 5.885403
USER: SEED 63
USER: STATUS no improvement in best in 38 clusters for 5 generations
USER: GENES 11
USER: genes 0 Translation |==|  0.50110 0.35391 0.67224
USER: genes 1 Rotation |==|  0.41470 0.06708 0.71684 0.59104
USER: genes 2 Torsion [N]-C--CA-[N] |==|  0.13377
USER: genes 3 Torsion [C]-CA--CB-[CG] |==|  0.78883
USER: genes 4 Torsion [CA]-CB--CG-[CD2] |==|  0.21632
USER: genes 5 Torsion [CE2]-CZ--OH-[HH] |==|  0.74505
USER: genes 6 Torsion [N]-CA--C-[N] |==|  0.98512
USER: genes 7 Torsion [C]-N--CA-[C] |==|  0.13702
USER: genes 8 Torsion [N]-CA--CB-[CG] |==|  0.71463
USER: genes 9 Torsion [CA]-CB--CG-[ND1] |==|  0.90602
USER: genes 10 Torsion [N]-CA--C-[O] |==|  0.23041
ROOT
ATOM      1  C   TYR C  64      12.172  -3.050  10.177  1.00 51.57 LIG 0.26  C 
ATOM      2 O    TYR C  64      12.632  -2.845  11.301  1.00 54.62 LIG-0.27  OA
ATOM      3  N   PRO C  65      10.978  -2.568   9.792  1.00 43.10 LIG-0.34  N 
ATOM      4  CA  PRO C  65      10.361  -2.624   8.463  1.00 38.90 LIG 0.18  C 
ATOM      5  CB  PRO C  65       8.891  -2.844   8.788  1.00 40.80 LIG 0.04  C 
ATOM      6  CG  PRO C  65       8.701  -2.109  10.069  1.00 42.19 LIG 0.02  C 
ATOM      7  CD  PRO C  65       9.997  -2.197  10.827  1.00 44.37 LIG 0.13  C 
ENDROOT
BRANCH 1 8
ATOM      8  CA  TYR C  64      12.961  -3.881   9.168  1.00 49.73 LIG 0.40  C 
ATOM      9  N   TYR C  64      12.992  -3.178   7.888  1.00 50.52 LIG 0.61  N 
BRANCH 8 10
ATOM     10  CB  TYR C  64      14.383  -4.102   9.700  1.00 50.46 LIG 0.09  C 
BRANCH 10 11
ATOM     11  CG  TYR C  64      15.311  -2.912   9.593  1.00 47.68 LIG-0.06  A 
ATOM     12  CD2 TYR C  64      15.218  -1.861  10.500  1.00 48.34 LIG 0.01  A 
ATOM     13  CE2 TYR C  64      16.057  -0.766  10.416  1.00 49.15 LIG 0.04  A 
ATOM     14  CZ  TYR C  64      17.007  -0.712   9.416  1.00 50.59 LIG 0.07  A 
ATOM     15  CE1 TYR C  64      17.123  -1.741   8.503  1.00 46.73 LIG 0.04  A 
ATOM     16  CD1 TYR C  64      16.278  -2.834   8.596  1.00 46.22 LIG 0.01  A 
BRANCH 14 17
ATOM     17 OH   TYR C  64      17.845   0.376   9.327  1.00 53.82 LIG-0.36  OA
ATOM     18 HH   TYR C  64      17.507   0.950   8.815  1.00 53.82 LIG 0.22  HD
ENDBRANCH 14 17
ENDBRANCH 10 11
ENDBRANCH 8 10
ENDBRANCH 1 8
BRANCH 4 19
ATOM     19  C   PRO C  65      10.528  -1.313   7.701  1.00 37.07 LIG 0.24  C 
ATOM     20  N   HIS C  66      11.089  -0.316   8.382  1.00 40.38 LIG-0.35  N 
ATOM     21 H    HIS C  66      11.314  -0.373   9.209  1.00 40.38 LIG 0.16  HD
ATOM     22 O    PRO C  65      10.139  -1.221   6.523  1.00 29.28 LIG-0.27  OA
BRANCH 20 23
ATOM     23  CA  HIS C  66      11.375   0.978   7.779  1.00 40.25 LIG 0.17  C 
BRANCH 23 24
ATOM     24  CB  HIS C  66      12.569   0.874   6.820  1.00 42.68 LIG 0.09  C 
BRANCH 24 25
ATOM     25  CG  HIS C  66      13.850   1.411   7.382  1.00 48.80 LIG 0.06  A 
ATOM     26 ND1  HIS C  66      13.895   2.487   8.243  1.00 53.13 LIG-0.24  NA
ATOM     27  CE1 HIS C  66      15.151   2.731   8.573  1.00 55.16 LIG 0.23  A 
ATOM     28 NE2  HIS C  66      15.923   1.853   7.958  1.00 53.86 LIG-0.25  NA
ATOM     29  CD2 HIS C  66      15.132   1.016   7.205  1.00 53.41 LIG 0.14  A 
ENDBRANCH 24 25
ENDBRANCH 23 24
BRANCH 23 30
ATOM     30  C   HIS C  66      10.156   1.523   7.034  1.00 41.89 LIG 0.22  C 
ATOM     31 O    HIS C  66       9.263   2.121   7.639  1.00 44.58 LIG-0.29  OA
ENDBRANCH 23 30
ENDBRANCH 20 23
ENDBRANCH 4 19
TORSDOF 9
ENDMDL
MODEL 18
USER: ADFR SOLUTION from run 179
USER: SCORE 10.739477 LL:  -1.336 LR:  -9.403 RR:   0.000 FEB:  -6.719
USER: RMSD 8.121369
USER: SEED 178
USER: STATUS no improvement in best in 25 clusters for 5 generations
USER: GENES 11
USER: genes 0 Translation |==|  0.56662 0.83112 0.38986
USER: genes 1 Rotation |==|  0.15655 0.41694 0.14633 0.50777
USER: genes 2 Torsion [N]-C--CA-[N] |==|  0.82915
USER: genes 3 Torsion [C]-CA--CB-[CG] |==|  0.51307
USER: genes 4 Torsion [CA]-CB--CG-[CD2] |==|  0.40312
USER: genes 5 Torsion [CE2]-CZ--OH-[HH] |==|  0.02013
USER: genes 6 Torsion [N]-CA--C-[N] |==|  0.37937
USER: genes 7 Torsion [C]-N--CA-[C] |==|  0.75522
USER: genes 8 Torsion [N]-CA--CB-[CG] |==|  0.42606
USER: genes 9 Torsion [CA]-CB--CG-[ND1] |==|  0.67397
USER: genes 10 Torsion [N]-CA--C-[O] |==|  0.82918
ROOT
ATOM      1  C   TYR C  64      13.400   4.466   5.094  1.00 51.57 LIG 0.26  C 
ATOM      2 O    TYR C  64      12.275   4.883   4.817  1.00 54.62 LIG-0.27  OA
ATOM      3  N   PRO C  65      13.860   4.427   6.356  1.00 43.10 LIG-0.34  N 
ATOM      4  CA  PRO C  65      15.114   3.850   6.849  1.00 38.90 LIG 0.18  C 
ATOM      5  CB  PRO C  65      15.527   4.831   7.937  1.00 40.80 LIG 0.04  C 
ATOM      6  CG  PRO C  65      14.229   5.303   8.494  1.00 42.19 LIG 0.02  C 
ATOM      7  CD  PRO C  65      13.236   5.302   7.364  1.00 44.37 LIG 0.13  C 
ENDROOT
BRANCH 1 8
ATOM      8  CA  TYR C  64      14.327   3.975   3.985  1.00 49.73 LIG 0.40  C 
ATOM      9  N   TYR C  64      15.526   4.809   3.958  1.00 50.52 LIG 0.61  N 
BRANCH 8 10
ATOM     10  CB  TYR C  64      14.693   2.508   4.246  1.00 50.46 LIG 0.09  C 
BRANCH 10 11
ATOM     11  CG  TYR C  64      15.699   1.907   3.289  1.00 47.68 LIG-0.06  A 
ATOM     12  CD2 TYR C  64      16.627   0.973   3.736  1.00 48.34 LIG 0.01  A 
ATOM     13  CE2 TYR C  64      17.553   0.415   2.875  1.00 49.15 LIG 0.04  A 
ATOM     14  CZ  TYR C  64      17.560   0.790   1.547  1.00 50.59 LIG 0.07  A 
ATOM     15  CE1 TYR C  64      16.650   1.715   1.075  1.00 46.73 LIG 0.04  A 
ATOM     16  CD1 TYR C  64      15.725   2.267   1.945  1.00 46.22 LIG 0.01  A 
BRANCH 14 17
ATOM     17 OH   TYR C  64      18.481   0.238   0.685  1.00 53.82 LIG-0.36  OA
ATOM     18 HH   TYR C  64      18.901  -0.374   1.078  1.00 53.82 LIG 0.22  HD
ENDBRANCH 14 17
ENDBRANCH 10 11
ENDBRANCH 8 10
ENDBRANCH 1 8
BRANCH 4 19
ATOM     19  C   PRO C  65      14.906   2.467   7.458  1.00 37.07 LIG 0.24  C 
ATOM     20  N   HIS C  66      15.811   1.547   7.126  1.00 40.38 LIG-0.35  N 
ATOM     21 H    HIS C  66      16.455   1.691   6.576  1.00 40.38 LIG 0.16  HD
ATOM     22 O    PRO C  65      13.933   2.251   8.202  1.00 29.28 LIG-0.27  OA
BRANCH 20 23
ATOM     23  CA  HIS C  66      15.789   0.198   7.671  1.00 40.25 LIG 0.17  C 
BRANCH 23 24
ATOM     24  CB  HIS C  66      16.368  -0.802   6.660  1.00 42.68 LIG 0.09  C 
BRANCH 24 25
ATOM     25  CG  HIS C  66      16.965  -2.025   7.286  1.00 48.80 LIG 0.06  A 
ATOM     26 ND1  HIS C  66      18.301  -2.348   7.169  1.00 53.13 LIG-0.24  NA
ATOM     27  CE1 HIS C  66      18.538  -3.472   7.823  1.00 55.16 LIG 0.23  A 
ATOM     28 NE2  HIS C  66      17.405  -3.890   8.359  1.00 53.86 LIG-0.25  NA
ATOM     29  CD2 HIS C  66      16.406  -3.002   8.037  1.00 53.41 LIG 0.14  A 
ENDBRANCH 24 25
ENDBRANCH 23 24
BRANCH 23 30
ATOM     30  C   HIS C  66      16.570   0.119   8.983  1.00 41.89 LIG 0.22  C 
ATOM     31 O    HIS C  66      17.776   0.376   9.015  1.00 44.58 LIG-0.29  OA
ENDBRANCH 23 30
ENDBRANCH 20 23
ENDBRANCH 4 19
TORSDOF 9
ENDMDL
MODEL 19
USER: ADFR SOLUTION from run 162
USER: SCORE 10.841294 LL:  -1.461 LR:  -9.381 RR:   0.000 FEB:  -6.696
USER: RMSD 6.684821
USER: SEED 161
USER: STATUS no improvement in best in 24 clusters for 5 generations
USER: GENES 11
USER: genes 0 Translation |==|  0.61294 0.34968 0.65955
USER: genes 1 Rotation |==|  0.52876 0.09297 0.77103 0.60020
USER: genes 2 Torsion [N]-C--CA-[N] |==|  0.08323
USER: genes 3 Torsion [C]-CA--CB-[CG] |==|  0.83506
USER: genes 4 Torsion [CA]-CB--CG-[CD2] |==|  0.27116
USER: genes 5 Torsion [CE2]-CZ--OH-[HH] |==|  0.39376
USER: genes 6 Torsion [N]-CA--C-[N] |==|  0.99338
USER: genes 7 Torsion [C]-N--CA-[C] |==|  0.65698
USER: genes 8 Torsion [N]-CA--CB-[CG] |==|  0.86214
USER: genes 9 Torsion [CA]-CB--CG-[ND1] |==|  0.21296
USER: genes 10 Torsion [N]-CA--C-[O] |==|  0.74088
ROOT
ATOM      1  C   TYR C  64      14.269  -3.117   9.949  1.00 51.57 LIG 0.26  C 
ATOM      2 O    TYR C  64      14.867  -2.541  10.858  1.00 54.62 LIG-0.27  OA
ATOM      3  N   PRO C  65      12.928  -3.192   9.907  1.00 43.10 LIG-0.34  N 
ATOM      4  CA  PRO C  65      12.080  -3.729   8.839  1.00 38.90 LIG 0.18  C 
ATOM      5  CB  PRO C  65      10.958  -4.406   9.613  1.00 40.80 LIG 0.04  C 
ATOM      6  CG  PRO C  65      10.808  -3.556  10.827  1.00 42.19 LIG 0.02  C 
ATOM      7  CD  PRO C  65      12.170  -3.013  11.159  1.00 44.37 LIG 0.13  C 
ENDROOT
BRANCH 1 8
ATOM      8  CA  TYR C  64      15.052  -3.780   8.818  1.00 49.73 LIG 0.40  C 
ATOM      9  N   TYR C  64      14.251  -3.749   7.597  1.00 50.52 LIG 0.61  N 
BRANCH 8 10
ATOM     10  CB  TYR C  64      16.377  -3.033   8.617  1.00 50.46 LIG 0.09  C 
BRANCH 10 11
ATOM     11  CG  TYR C  64      16.251  -1.566   8.268  1.00 47.68 LIG-0.06  A 
ATOM     12  CD2 TYR C  64      16.370  -0.593   9.254  1.00 48.34 LIG 0.01  A 
ATOM     13  CE2 TYR C  64      16.257   0.751   8.952  1.00 49.15 LIG 0.04  A 
ATOM     14  CZ  TYR C  64      16.022   1.138   7.648  1.00 50.59 LIG 0.07  A 
ATOM     15  CE1 TYR C  64      15.901   0.194   6.648  1.00 46.73 LIG 0.04  A 
ATOM     16  CD1 TYR C  64      16.017  -1.151   6.960  1.00 46.22 LIG 0.01  A 
BRANCH 14 17
ATOM     17 OH   TYR C  64      15.908   2.474   7.341  1.00 53.82 LIG-0.36  OA
ATOM     18 HH   TYR C  64      16.276   2.625   6.600  1.00 53.82 LIG 0.22  HD
ENDBRANCH 14 17
ENDBRANCH 10 11
ENDBRANCH 8 10
ENDBRANCH 1 8
BRANCH 4 19
ATOM     19  C   PRO C  65      11.503  -2.625   7.958  1.00 37.07 LIG 0.24  C 
ATOM     20  N   HIS C  66      11.809  -1.380   8.318  1.00 40.38 LIG-0.35  N 
ATOM     21 H    HIS C  66      12.268  -1.187   9.018  1.00 40.38 LIG 0.16  HD
ATOM     22 O    PRO C  65      10.787  -2.914   6.983  1.00 29.28 LIG-0.27  OA
BRANCH 20 23
ATOM     23  CA  HIS C  66      11.389  -0.219   7.547  1.00 40.25 LIG 0.17  C 
BRANCH 23 24
ATOM     24  CB  HIS C  66      10.398   0.633   8.352  1.00 42.68 LIG 0.09  C 
BRANCH 24 25
ATOM     25  CG  HIS C  66       9.270  -0.150   8.952  1.00 48.80 LIG 0.06  A 
ATOM     26 ND1  HIS C  66       9.419  -0.934  10.077  1.00 53.13 LIG-0.24  NA
ATOM     27  CE1 HIS C  66       8.262  -1.499  10.374  1.00 55.16 LIG 0.23  A 
ATOM     28 NE2  HIS C  66       7.368  -1.111   9.482  1.00 53.86 LIG-0.25  NA
ATOM     29  CD2 HIS C  66       7.974  -0.267   8.581  1.00 53.41 LIG 0.14  A 
ENDBRANCH 24 25
ENDBRANCH 23 24
BRANCH 23 30
ATOM     30  C   HIS C  66      12.589   0.633   7.132  1.00 41.89 LIG 0.22  C 
ATOM     31 O    HIS C  66      12.956   1.584   7.827  1.00 44.58 LIG-0.29  OA
ENDBRANCH 23 30
ENDBRANCH 20 23
ENDBRANCH 4 19
TORSDOF 9
ENDMDL
MODEL 20
USER: ADFR SOLUTION from run 43
USER: SCORE 11.378231 LL:  -2.011 LR:  -9.367 RR:   0.000 FEB:  -6.682
USER: RMSD 3.323455
USER: SEED 42
USER: STATUS no improvement in best in 19 clusters for 5 generations
USER: GENES 11
USER: genes 0 Translation |==|  0.69118 0.35151 0.53139
USER: genes 1 Rotation |==|  0.44383 0.31916 0.58774 0.95436
USER: genes 2 Torsion [N]-C--CA-[N] |==|  0.49650
USER: genes 3 Torsion [C]-CA--CB-[CG] |==|  0.36953
USER: genes 4 Torsion [CA]-CB--CG-[CD2] |==|  0.06057
USER: genes 5 Torsion [CE2]-CZ--OH-[HH] |==|  0.70964
USER: genes 6 Torsion [N]-CA--C-[N] |==|  0.27163
USER: genes 7 Torsion [C]-N--CA-[C] |==|  0.84465
USER: genes 8 Torsion [N]-CA--CB-[CG] |==|  0.21394
USER: genes 9 Torsion [CA]-CB--CG-[ND1] |==|  0.88730
USER: genes 10 Torsion [N]-CA--C-[O] |==|  0.90049
ROOT
ATOM      1  C   TYR C  64      15.736  -3.088   7.642  1.00 51.57 LIG 0.26  C 
ATOM      2 O    TYR C  64      16.511  -3.883   7.110  1.00 54.62 LIG-0.27  OA
ATOM      3  N   PRO C  65      16.143  -2.189   8.554  1.00 43.10 LIG-0.34  N 
ATOM      4  CA  PRO C  65      15.370  -1.110   9.175  1.00 38.90 LIG 0.18  C 
ATOM      5  CB  PRO C  65      15.896  -1.102  10.603  1.00 40.80 LIG 0.04  C 
ATOM      6  CG  PRO C  65      17.324  -1.499  10.452  1.00 42.19 LIG 0.02  C 
ATOM      7  CD  PRO C  65      17.401  -2.438   9.280  1.00 44.37 LIG 0.13  C 
ENDROOT
BRANCH 1 8
ATOM      8  CA  TYR C  64      14.254  -3.104   7.274  1.00 49.73 LIG 0.40  C 
ATOM      9  N   TYR C  64      14.025  -4.124   6.253  1.00 50.52 LIG 0.61  N 
BRANCH 8 10
ATOM     10  CB  TYR C  64      13.425  -3.399   8.531  1.00 50.46 LIG 0.09  C 
BRANCH 10 11
ATOM     11  CG  TYR C  64      12.233  -2.495   8.752  1.00 47.68 LIG-0.06  A 
ATOM     12  CD2 TYR C  64      11.669  -1.798   7.689  1.00 48.34 LIG 0.01  A 
ATOM     13  CE2 TYR C  64      10.580  -0.967   7.874  1.00 49.15 LIG 0.04  A 
ATOM     14  CZ  TYR C  64      10.039  -0.825   9.136  1.00 50.59 LIG 0.07  A 
ATOM     15  CE1 TYR C  64      10.578  -1.505  10.210  1.00 46.73 LIG 0.04  A 
ATOM     16  CD1 TYR C  64      11.669  -2.336  10.014  1.00 46.22 LIG 0.01  A 
BRANCH 14 17
ATOM     17 OH   TYR C  64       8.956   0.002   9.327  1.00 53.82 LIG-0.36  OA
ATOM     18 HH   TYR C  64       9.207   0.714   9.696  1.00 53.82 LIG 0.22  HD
ENDBRANCH 14 17
ENDBRANCH 10 11
ENDBRANCH 8 10
ENDBRANCH 1 8
BRANCH 4 19
ATOM     19  C   PRO C  65      15.645   0.240   8.519  1.00 37.07 LIG 0.24  C 
ATOM     20  N   HIS C  66      14.759   0.630   7.604  1.00 40.38 LIG-0.35  N 
ATOM     21 H    HIS C  66      14.089   0.150   7.357  1.00 40.38 LIG 0.16  HD
ATOM     22 O    PRO C  65      16.651   0.897   8.839  1.00 29.28 LIG-0.27  OA
BRANCH 20 23
ATOM     23  CA  HIS C  66      14.844   1.918   6.933  1.00 40.25 LIG 0.17  C 
BRANCH 23 24
ATOM     24  CB  HIS C  66      13.664   2.102   5.968  1.00 42.68 LIG 0.09  C 
BRANCH 24 25
ATOM     25  CG  HIS C  66      12.374   2.455   6.645  1.00 48.80 LIG 0.06  A 
ATOM     26 ND1  HIS C  66      11.967   1.876   7.828  1.00 53.13 LIG-0.24  NA
ATOM     27  CE1 HIS C  66      10.800   2.381   8.185  1.00 55.16 LIG 0.23  A 
ATOM     28 NE2  HIS C  66      10.433   3.267   7.276  1.00 53.86 LIG-0.25  NA
ATOM     29  CD2 HIS C  66      11.401   3.331   6.301  1.00 53.41 LIG 0.14  A 
ENDBRANCH 24 25
ENDBRANCH 23 24
BRANCH 23 30
ATOM     30  C   HIS C  66      14.873   3.067   7.942  1.00 41.89 LIG 0.22  C 
ATOM     31 O    HIS C  66      14.218   3.005   8.986  1.00 44.58 LIG-0.29  OA
ENDBRANCH 23 30
ENDBRANCH 20 23
ENDBRANCH 4 19
TORSDOF 9
ENDMDL
MODEL 21
USER: ADFR SOLUTION from run 171
USER: SCORE 11.354453 LL:  -2.003 LR:  -9.351 RR:   0.000 FEB:  -6.667
USER: RMSD 7.110271
USER: SEED 170
USER: STATUS no improvement in best in 29 clusters for 5 generations
USER: GENES 11
USER: genes 0 Translation |==|  0.55678 0.41993 0.47724
USER: genes 1 Rotation |==|  0.20537 0.12508 0.34979 0.50787
USER: genes 2 Torsion [N]-C--CA-[N] |==|  0.44995
USER: genes 3 Torsion [C]-CA--CB-[CG] |==|  0.36414
USER: genes 4 Torsion [CA]-CB--CG-[CD2] |==|  0.86075
USER: genes 5 Torsion [CE2]-CZ--OH-[HH] |==|  0.51544
USER: genes 6 Torsion [N]-CA--C-[N] |==|  0.00698
USER: genes 7 Torsion [C]-N--CA-[C] |==|  0.86422
USER: genes 8 Torsion [N]-CA--CB-[CG] |==|  0.08450
USER: genes 9 Torsion [CA]-CB--CG-[ND1] |==|  0.22125
USER: genes 10 Torsion [N]-CA--C-[O] |==|  0.23424
ROOT
ATOM      1  C   TYR C  64      13.216  -2.010   6.667  1.00 51.57 LIG 0.26  C 
ATOM      2 O    TYR C  64      12.273  -2.669   7.108  1.00 54.62 LIG-0.27  OA
ATOM      3  N   PRO C  65      13.371  -0.705   6.945  1.00 43.10 LIG-0.34  N 
ATOM      4  CA  PRO C  65      14.495   0.171   6.600  1.00 38.90 LIG 0.18  C 
ATOM      5  CB  PRO C  65      13.803   1.489   6.280  1.00 40.80 LIG 0.04  C 
ATOM      6  CG  PRO C  65      12.629   1.500   7.195  1.00 42.19 LIG 0.02  C 
ATOM      7  CD  PRO C  65      12.195   0.071   7.377  1.00 44.37 LIG 0.13  C 
ENDROOT
BRANCH 1 8
ATOM      8  CA  TYR C  64      14.257  -2.673   5.769  1.00 49.73 LIG 0.40  C 
ATOM      9  N   TYR C  64      14.175  -4.123   5.929  1.00 50.52 LIG 0.61  N 
BRANCH 8 10
ATOM     10  CB  TYR C  64      13.994  -2.273   4.312  1.00 50.46 LIG 0.09  C 
BRANCH 10 11
ATOM     11  CG  TYR C  64      15.201  -1.782   3.543  1.00 47.68 LIG-0.06  A 
ATOM     12  CD2 TYR C  64      16.023  -0.794   4.076  1.00 48.34 LIG 0.01  A 
ATOM     13  CE2 TYR C  64      17.128  -0.333   3.387  1.00 49.15 LIG 0.04  A 
ATOM     14  CZ  TYR C  64      17.426  -0.861   2.147  1.00 50.59 LIG 0.07  A 
ATOM     15  CE1 TYR C  64      16.629  -1.844   1.593  1.00 46.73 LIG 0.04  A 
ATOM     16  CD1 TYR C  64      15.523  -2.299   2.292  1.00 46.22 LIG 0.01  A 
BRANCH 14 17
ATOM     17 OH   TYR C  64      18.525  -0.406   1.455  1.00 53.82 LIG-0.36  OA
ATOM     18 HH   TYR C  64      18.541  -0.757   0.691  1.00 53.82 LIG 0.22  HD
ENDBRANCH 14 17
ENDBRANCH 10 11
ENDBRANCH 8 10
ENDBRANCH 1 8
BRANCH 4 19
ATOM     19  C   PRO C  65      15.450   0.364   7.773  1.00 37.07 LIG 0.24  C 
ATOM     20  N   HIS C  66      15.151  -0.315   8.880  1.00 40.38 LIG-0.35  N 
ATOM     21 H    HIS C  66      14.450  -0.806   8.961  1.00 40.38 LIG 0.16  HD
ATOM     22 O    PRO C  65      16.426   1.127   7.666  1.00 29.28 LIG-0.27  OA
BRANCH 20 23
ATOM     23  CA  HIS C  66      15.996  -0.288  10.065  1.00 40.25 LIG 0.17  C 
BRANCH 23 24
ATOM     24  CB  HIS C  66      15.518  -1.327  11.090  1.00 42.68 LIG 0.09  C 
BRANCH 24 25
ATOM     25  CG  HIS C  66      14.877  -2.535  10.478  1.00 48.80 LIG 0.06  A 
ATOM     26 ND1  HIS C  66      15.605  -3.573   9.935  1.00 53.13 LIG-0.24  NA
ATOM     27  CE1 HIS C  66      14.777  -4.495   9.476  1.00 55.16 LIG 0.23  A 
ATOM     28 NE2  HIS C  66      13.539  -4.094   9.701  1.00 53.86 LIG-0.25  NA
ATOM     29  CD2 HIS C  66      13.575  -2.869  10.327  1.00 53.41 LIG 0.14  A 
ENDBRANCH 24 25
ENDBRANCH 23 24
BRANCH 23 30
ATOM     30  C   HIS C  66      17.459  -0.546   9.707  1.00 41.89 LIG 0.22  C 
ATOM     31 O    HIS C  66      18.186   0.376   9.328  1.00 44.58 LIG-0.29  OA
ENDBRANCH 23 30
ENDBRANCH 20 23
ENDBRANCH 4 19
TORSDOF 9
ENDMDL
MODEL 22
USER: ADFR SOLUTION from run 142
USER: SCORE 10.871874 LL:  -1.532 LR:  -9.340 RR:   0.000 FEB:  -6.655
USER: RMSD 7.405910
USER: SEED 141
USER: STATUS no improvement in best in 28 clusters for 5 generations
USER: GENES 11
USER: genes 0 Translation |==|  0.71153 0.44208 0.40698
USER: genes 1 Rotation |==|  0.82968 0.33322 0.62946 0.81103
USER: genes 2 Torsion [N]-C--CA-[N] |==|  0.17915
USER: genes 3 Torsion [C]-CA--CB-[CG] |==|  0.21037
USER: genes 4 Torsion [CA]-CB--CG-[CD2] |==|  0.24677
USER: genes 5 Torsion [CE2]-CZ--OH-[HH] |==|  0.47304
USER: genes 6 Torsion [N]-CA--C-[N] |==|  0.70266
USER: genes 7 Torsion [C]-N--CA-[C] |==|  0.09891
USER: genes 8 Torsion [N]-CA--CB-[CG] |==|  0.03607
USER: genes 9 Torsion [CA]-CB--CG-[ND1] |==|  0.24660
USER: genes 10 Torsion [N]-CA--C-[O] |==|  0.44882
ROOT
ATOM      1  C   TYR C  64      16.117  -1.661   5.403  1.00 51.57 LIG 0.26  C 
ATOM      2 O    TYR C  64      16.670  -0.670   4.925  1.00 54.62 LIG-0.27  OA
ATOM      3  N   PRO C  65      16.535  -2.237   6.543  1.00 43.10 LIG-0.34  N 
ATOM      4  CA  PRO C  65      15.910  -3.332   7.290  1.00 38.90 LIG 0.18  C 
ATOM      5  CB  PRO C  65      17.111  -4.124   7.787  1.00 40.80 LIG 0.04  C 
ATOM      6  CG  PRO C  65      18.151  -3.081   8.009  1.00 42.19 LIG 0.02  C 
ATOM      7  CD  PRO C  65      17.919  -2.000   6.989  1.00 44.37 LIG 0.13  C 
ENDROOT
BRANCH 1 8
ATOM      8  CA  TYR C  64      14.915  -2.281   4.693  1.00 49.73 LIG 0.40  C 
ATOM      9  N   TYR C  64      13.737  -2.153   5.548  1.00 50.52 LIG 0.61  N 
BRANCH 8 10
ATOM     10  CB  TYR C  64      14.695  -1.565   3.355  1.00 50.46 LIG 0.09  C 
BRANCH 10 11
ATOM     11  CG  TYR C  64      15.666  -1.932   2.253  1.00 47.68 LIG-0.06  A 
ATOM     12  CD2 TYR C  64      15.398  -2.999   1.404  1.00 48.34 LIG 0.01  A 
ATOM     13  CE2 TYR C  64      16.274  -3.348   0.393  1.00 49.15 LIG 0.04  A 
ATOM     14  CZ  TYR C  64      17.436  -2.624   0.220  1.00 50.59 LIG 0.07  A 
ATOM     15  CE1 TYR C  64      17.728  -1.558   1.049  1.00 46.73 LIG 0.04  A 
ATOM     16  CD1 TYR C  64      16.843  -1.216   2.058  1.00 46.22 LIG 0.01  A 
BRANCH 14 17
ATOM     17 OH   TYR C  64      18.313  -2.966  -0.784  1.00 53.82 LIG-0.36  OA
ATOM     18 HH   TYR C  64      18.901  -2.370  -0.858  1.00 53.82 LIG 0.22  HD
ENDBRANCH 14 17
ENDBRANCH 10 11
ENDBRANCH 8 10
ENDBRANCH 1 8
BRANCH 4 19
ATOM     19  C   PRO C  65      15.103  -2.824   8.480  1.00 37.07 LIG 0.24  C 
ATOM     20  N   HIS C  66      15.642  -3.040   9.679  1.00 40.38 LIG-0.35  N 
ATOM     21 H    HIS C  66      16.376  -3.470   9.799  1.00 40.38 LIG 0.16  HD
ATOM     22 O    PRO C  65      14.009  -2.260   8.299  1.00 29.28 LIG-0.27  OA
BRANCH 20 23
ATOM     23  CA  HIS C  66      15.028  -2.561  10.909  1.00 40.25 LIG 0.17  C 
BRANCH 23 24
ATOM     24  CB  HIS C  66      15.476  -1.124  11.210  1.00 42.68 LIG 0.09  C 
BRANCH 24 25
ATOM     25  CG  HIS C  66      16.161  -0.447  10.063  1.00 48.80 LIG 0.06  A 
ATOM     26 ND1  HIS C  66      15.478   0.268   9.101  1.00 53.13 LIG-0.24  NA
ATOM     27  CE1 HIS C  66      16.338   0.751   8.221  1.00 55.16 LIG 0.23  A 
ATOM     28 NE2  HIS C  66      17.554   0.376   8.577  1.00 53.86 LIG-0.25  NA
ATOM     29  CD2 HIS C  66      17.469  -0.375   9.726  1.00 53.41 LIG 0.14  A 
ENDBRANCH 24 25
ENDBRANCH 23 24
BRANCH 23 30
ATOM     30  C   HIS C  66      13.503  -2.624  10.827  1.00 41.89 LIG 0.22  C 
ATOM     31 O    HIS C  66      12.815  -2.590  11.851  1.00 44.58 LIG-0.29  OA
ENDBRANCH 23 30
ENDBRANCH 20 23
ENDBRANCH 4 19
TORSDOF 9
ENDMDL
MODEL 23
USER: ADFR SOLUTION from run 119
USER: SCORE 11.220856 LL:  -1.892 LR:  -9.329 RR:   0.000 FEB:  -6.644
USER: RMSD 7.729544
USER: SEED 118
USER: STATUS no improvement in best in 28 clusters for 5 generations
USER: GENES 11
USER: genes 0 Translation |==|  0.60229 0.48707 0.42412
USER: genes 1 Rotation |==|  0.17925 0.21107 0.24808 0.51325
USER: genes 2 Torsion [N]-C--CA-[N] |==|  0.35746
USER: genes 3 Torsion [C]-CA--CB-[CG] |==|  0.50251
USER: genes 4 Torsion [CA]-CB--CG-[CD2] |==|  0.29470
USER: genes 5 Torsion [CE2]-CZ--OH-[HH] |==|  0.47297
USER: genes 6 Torsion [N]-CA--C-[N] |==|  0.17986
USER: genes 7 Torsion [C]-N--CA-[C] |==|  0.52473
USER: genes 8 Torsion [N]-CA--CB-[CG] |==|  0.13470
USER: genes 9 Torsion [CA]-CB--CG-[ND1] |==|  0.04752
USER: genes 10 Torsion [N]-CA--C-[O] |==|  0.06130
ROOT
ATOM      1  C   TYR C  64      14.069  -0.953   5.711  1.00 51.57 LIG 0.26  C 
ATOM      2 O    TYR C  64      12.923  -1.402   5.708  1.00 54.62 LIG-0.27  OA
ATOM      3  N   PRO C  65      14.451   0.033   6.540  1.00 43.10 LIG-0.34  N 
ATOM      4  CA  PRO C  65      15.796   0.580   6.744  1.00 38.90 LIG 0.18  C 
ATOM      5  CB  PRO C  65      15.526   2.065   6.941  1.00 40.80 LIG 0.04  C 
ATOM      6  CG  PRO C  65      14.202   2.092   7.623  1.00 42.19 LIG 0.02  C 
ATOM      7  CD  PRO C  65      13.419   0.912   7.118  1.00 44.37 LIG 0.13  C 
ENDROOT
BRANCH 1 8
ATOM      8  CA  TYR C  64      15.112  -1.515   4.748  1.00 49.73 LIG 0.40  C 
ATOM      9  N   TYR C  64      15.140  -2.970   4.868  1.00 50.52 LIG 0.61  N 
BRANCH 8 10
ATOM     10  CB  TYR C  64      14.755  -1.095   3.317  1.00 50.46 LIG 0.09  C 
BRANCH 10 11
ATOM     11  CG  TYR C  64      15.690  -1.596   2.238  1.00 47.68 LIG-0.06  A 
ATOM     12  CD2 TYR C  64      15.299  -2.624   1.387  1.00 48.34 LIG 0.01  A 
ATOM     13  CE2 TYR C  64      16.140  -3.095   0.397  1.00 49.15 LIG 0.04  A 
ATOM     14  CZ  TYR C  64      17.393  -2.536   0.247  1.00 50.59 LIG 0.07  A 
ATOM     15  CE1 TYR C  64      17.808  -1.513   1.077  1.00 46.73 LIG 0.04  A 
ATOM     16  CD1 TYR C  64      16.957  -1.048   2.065  1.00 46.22 LIG 0.01  A 
BRANCH 14 17
ATOM     17 OH   TYR C  64      18.237  -3.000  -0.736  1.00 53.82 LIG-0.36  OA
ATOM     18 HH   TYR C  64      18.901  -2.489  -0.800  1.00 53.82 LIG 0.22  HD
ENDBRANCH 14 17
ENDBRANCH 10 11
ENDBRANCH 8 10
ENDBRANCH 1 8
BRANCH 4 19
ATOM     19  C   PRO C  65      16.461   0.009   7.992  1.00 37.07 LIG 0.24  C 
ATOM     20  N   HIS C  66      16.714  -1.298   7.967  1.00 40.38 LIG-0.35  N 
ATOM     21 H    HIS C  66      16.491  -1.812   7.315  1.00 40.38 LIG 0.16  HD
ATOM     22 O    PRO C  65      16.722   0.751   8.956  1.00 29.28 LIG-0.27  OA
BRANCH 20 23
ATOM     23  CA  HIS C  66      17.401  -1.982   9.052  1.00 40.25 LIG 0.17  C 
BRANCH 23 24
ATOM     24  CB  HIS C  66      16.538  -1.978  10.322  1.00 42.68 LIG 0.09  C 
BRANCH 24 25
ATOM     25  CG  HIS C  66      15.120  -2.406  10.096  1.00 48.80 LIG 0.06  A 
ATOM     26 ND1  HIS C  66      14.716  -3.087   8.967  1.00 53.13 LIG-0.24  NA
ATOM     27  CE1 HIS C  66      13.420  -3.332   9.045  1.00 55.16 LIG 0.23  A 
ATOM     28 NE2  HIS C  66      12.968  -2.835  10.182  1.00 53.86 LIG-0.25  NA
ATOM     29  CD2 HIS C  66      14.013  -2.249  10.858  1.00 53.41 LIG 0.14  A 
ENDBRANCH 24 25
ENDBRANCH 23 24
BRANCH 23 30
ATOM     30  C   HIS C  66      17.751  -3.420   8.667  1.00 41.89 LIG 0.22  C 
ATOM     31 O    HIS C  66      17.835  -3.751   7.482  1.00 44.58 LIG-0.29  OA
ENDBRANCH 23 30
ENDBRANCH 20 23
ENDBRANCH 4 19
TORSDOF 9
ENDMDL
MODEL 24
USER: ADFR SOLUTION from run 142
USER: SCORE 10.942661 LL:  -1.654 LR:  -9.289 RR:   0.000 FEB:  -6.604
USER: RMSD 4.309136
USER: SEED 141
USER: STATUS no improvement in best in 28 clusters for 5 generations
USER: GENES 11
USER: genes 0 Translation |==|  0.50544 0.42336 0.58406
USER: genes 1 Rotation |==|  0.84762 0.68361 0.33227 0.75945
USER: genes 2 Torsion [N]-C--CA-[N] |==|  0.23854
USER: genes 3 Torsion [C]-CA--CB-[CG] |==|  0.39061
USER: genes 4 Torsion [CA]-CB--CG-[CD2] |==|  0.89664
USER: genes 5 Torsion [CE2]-CZ--OH-[HH] |==|  0.05251
USER: genes 6 Torsion [N]-CA--C-[N] |==|  0.73703
USER: genes 7 Torsion [C]-N--CA-[C] |==|  0.19202
USER: genes 8 Torsion [N]-CA--CB-[CG] |==|  0.86701
USER: genes 9 Torsion [CA]-CB--CG-[ND1] |==|  0.43688
USER: genes 10 Torsion [N]-CA--C-[O] |==|  0.27064
ROOT
ATOM      1  C   TYR C  64      12.253  -1.956   8.590  1.00 51.57 LIG 0.26  C 
ATOM      2 O    TYR C  64      11.645  -0.886   8.577  1.00 54.62 LIG-0.27  OA
ATOM      3  N   PRO C  65      13.184  -2.264   7.671  1.00 43.10 LIG-0.34  N 
ATOM      4  CA  PRO C  65      14.068  -3.432   7.630  1.00 38.90 LIG 0.18  C 
ATOM      5  CB  PRO C  65      14.133  -3.748   6.142  1.00 40.80 LIG 0.04  C 
ATOM      6  CG  PRO C  65      14.030  -2.411   5.495  1.00 42.19 LIG 0.02  C 
ATOM      7  CD  PRO C  65      13.164  -1.556   6.379  1.00 44.37 LIG 0.13  C 
ENDROOT
BRANCH 1 8
ATOM      8  CA  TYR C  64      11.957  -2.989   9.675  1.00 49.73 LIG 0.40  C 
ATOM      9  N   TYR C  64      12.904  -2.816  10.773  1.00 50.52 LIG 0.61  N 
BRANCH 8 10
ATOM     10  CB  TYR C  64      10.516  -2.805  10.166  1.00 50.46 LIG 0.09  C 
BRANCH 10 11
ATOM     11  CG  TYR C  64       9.754  -4.082  10.447  1.00 47.68 LIG-0.06  A 
ATOM     12  CD2 TYR C  64       9.929  -5.199   9.638  1.00 48.34 LIG 0.01  A 
ATOM     13  CE2 TYR C  64       9.241  -6.374   9.879  1.00 49.15 LIG 0.04  A 
ATOM     14  CZ  TYR C  64       8.364  -6.442  10.943  1.00 50.59 LIG 0.07  A 
ATOM     15  CE1 TYR C  64       8.172  -5.349  11.764  1.00 46.73 LIG 0.04  A 
ATOM     16  CD1 TYR C  64       8.867  -4.177  11.514  1.00 46.22 LIG 0.01  A 
BRANCH 14 17
ATOM     17 OH   TYR C  64       7.676  -7.608  11.188  1.00 53.82 LIG-0.36  OA
ATOM     18 HH   TYR C  64       8.059  -8.248  10.801  1.00 53.82 LIG 0.22  HD
ENDBRANCH 14 17
ENDBRANCH 10 11
ENDBRANCH 8 10
ENDBRANCH 1 8
BRANCH 4 19
ATOM     19  C   PRO C  65      15.466  -3.108   8.147  1.00 37.07 LIG 0.24  C 
ATOM     20  N   HIS C  66      16.364  -2.781   7.219  1.00 40.38 LIG-0.35  N 
ATOM     21 H    HIS C  66      16.198  -2.784   6.376  1.00 40.38 LIG 0.16  HD
ATOM     22 O    PRO C  65      15.713  -3.170   9.364  1.00 29.28 LIG-0.27  OA
BRANCH 20 23
ATOM     23  CA  HIS C  66      17.724  -2.384   7.554  1.00 40.25 LIG 0.17  C 
BRANCH 23 24
ATOM     24  CB  HIS C  66      17.715  -1.240   8.577  1.00 42.68 LIG 0.09  C 
BRANCH 24 25
ATOM     25  CG  HIS C  66      16.782  -0.120   8.230  1.00 48.80 LIG 0.06  A 
ATOM     26 ND1  HIS C  66      16.276   0.751   9.171  1.00 53.13 LIG-0.24  NA
ATOM     27  CE1 HIS C  66      15.489   1.630   8.577  1.00 55.16 LIG 0.23  A 
ATOM     28 NE2  HIS C  66      15.464   1.360   7.284  1.00 53.86 LIG-0.25  NA
ATOM     29  CD2 HIS C  66      16.265   0.269   7.041  1.00 53.41 LIG 0.14  A 
ENDBRANCH 24 25
ENDBRANCH 23 24
BRANCH 23 30
ATOM     30  C   HIS C  66      18.526  -3.565   8.102  1.00 41.89 LIG 0.22  C 
ATOM     31 O    HIS C  66      19.276  -4.212   7.366  1.00 44.58 LIG-0.29  OA
ENDBRANCH 23 30
ENDBRANCH 20 23
ENDBRANCH 4 19
TORSDOF 9
ENDMDL
MODEL 25
USER: ADFR SOLUTION from run 133
USER: SCORE 10.200146 LL:  -0.914 LR:  -9.286 RR:   0.000 FEB:  -6.602
USER: RMSD 7.817056
USER: SEED 132
USER: STATUS no improvement in best in 25 clusters for 5 generations
USER: GENES 11
USER: genes 0 Translation |==|  0.70023 0.54657 0.59432
USER: genes 1 Rotation |==|  0.09433 0.79007 0.46499 0.50804
USER: genes 2 Torsion [N]-C--CA-[N] |==|  0.12802
USER: genes 3 Torsion [C]-CA--CB-[CG] |==|  0.40797
USER: genes 4 Torsion [CA]-CB--CG-[CD2] |==|  0.59280
USER: genes 5 Torsion [CE2]-CZ--OH-[HH] |==|  0.19465
USER: genes 6 Torsion [N]-CA--C-[N] |==|  0.07882
USER: genes 7 Torsion [C]-N--CA-[C] |==|  0.51386
USER: genes 8 Torsion [N]-CA--CB-[CG] |==|  0.50054
USER: genes 9 Torsion [CA]-CB--CG-[ND1] |==|  0.71013
USER: genes 10 Torsion [N]-CA--C-[O] |==|  0.34344
ROOT
ATOM      1  C   TYR C  64      15.905  -0.016   8.775  1.00 51.57 LIG 0.26  C 
ATOM      2 O    TYR C  64      16.426   0.393   9.813  1.00 54.62 LIG-0.27  OA
ATOM      3  N   PRO C  65      15.947  -1.309   8.412  1.00 43.10 LIG-0.34  N 
ATOM      4  CA  PRO C  65      15.275  -1.958   7.282  1.00 38.90 LIG 0.18  C 
ATOM      5  CB  PRO C  65      16.310  -2.973   6.818  1.00 40.80 LIG 0.04  C 
ATOM      6  CG  PRO C  65      16.999  -3.371   8.077  1.00 42.19 LIG 0.02  C 
ATOM      7  CD  PRO C  65      16.998  -2.170   8.982  1.00 44.37 LIG 0.13  C 
ENDROOT
BRANCH 1 8
ATOM      8  CA  TYR C  64      15.184   0.960   7.847  1.00 49.73 LIG 0.40  C 
ATOM      9  N   TYR C  64      13.903   0.382   7.447  1.00 50.52 LIG 0.61  N 
BRANCH 8 10
ATOM     10  CB  TYR C  64      14.973   2.290   8.579  1.00 50.46 LIG 0.09  C 
BRANCH 10 11
ATOM     11  CG  TYR C  64      15.024   3.528   7.710  1.00 47.68 LIG-0.06  A 
ATOM     12  CD2 TYR C  64      15.529   4.722   8.212  1.00 48.34 LIG 0.01  A 
ATOM     13  CE2 TYR C  64      15.582   5.862   7.431  1.00 49.15 LIG 0.04  A 
ATOM     14  CZ  TYR C  64      15.126   5.817   6.130  1.00 50.59 LIG 0.07  A 
ATOM     15  CE1 TYR C  64      14.620   4.644   5.604  1.00 46.73 LIG 0.04  A 
ATOM     16  CD1 TYR C  64      14.572   3.507   6.394  1.00 46.22 LIG 0.01  A 
BRANCH 14 17
ATOM     17 OH   TYR C  64      15.175   6.948   5.347  1.00 53.82 LIG-0.36  OA
ATOM     18 HH   TYR C  64      15.975   7.126   5.161  1.00 53.82 LIG 0.22  HD
ENDBRANCH 14 17
ENDBRANCH 10 11
ENDBRANCH 8 10
ENDBRANCH 1 8
BRANCH 4 19
ATOM     19  C   PRO C  65      14.004  -2.682   7.713  1.00 37.07 LIG 0.24  C 
ATOM     20  N   HIS C  66      13.386  -2.180   8.781  1.00 40.38 LIG-0.35  N 
ATOM     21 H    HIS C  66      13.688  -1.515   9.236  1.00 40.38 LIG 0.16  HD
ATOM     22 O    PRO C  65      13.610  -3.681   7.086  1.00 29.28 LIG-0.27  OA
BRANCH 20 23
ATOM     23  CA  HIS C  66      12.129  -2.716   9.282  1.00 40.25 LIG 0.17  C 
BRANCH 23 24
ATOM     24  CB  HIS C  66      12.308  -4.172   9.735  1.00 42.68 LIG 0.09  C 
BRANCH 24 25
ATOM     25  CG  HIS C  66      11.055  -4.804  10.261  1.00 48.80 LIG 0.06  A 
ATOM     26 ND1  HIS C  66      10.829  -5.010  11.606  1.00 53.13 LIG-0.24  NA
ATOM     27  CE1 HIS C  66       9.648  -5.577  11.770  1.00 55.16 LIG 0.23  A 
ATOM     28 NE2  HIS C  66       9.098  -5.748  10.581  1.00 53.86 LIG-0.25  NA
ATOM     29  CD2 HIS C  66       9.959  -5.273   9.620  1.00 53.41 LIG 0.14  A 
ENDBRANCH 24 25
ENDBRANCH 23 24
BRANCH 23 30
ATOM     30  C   HIS C  66      11.589  -1.875  10.438  1.00 41.89 LIG 0.22  C 
ATOM     31 O    HIS C  66      10.460  -1.382  10.384  1.00 44.58 LIG-0.29  OA
ENDBRANCH 23 30
ENDBRANCH 20 23
ENDBRANCH 4 19
TORSDOF 9
ENDMDL
MODEL 26
USER: ADFR SOLUTION from run 125
USER: SCORE 10.728701 LL:  -1.477 LR:  -9.252 RR:   0.000 FEB:  -6.567
USER: RMSD 7.926746
USER: SEED 124
USER: STATUS no improvement in best in 11 clusters for 5 generations
USER: GENES 11
USER: genes 0 Translation |==|  0.62056 0.54420 0.21494
USER: genes 1 Rotation |==|  0.88004 0.56715 0.67660 0.76433
USER: genes 2 Torsion [N]-C--CA-[N] |==|  0.33167
USER: genes 3 Torsion [C]-CA--CB-[CG] |==|  0.37182
USER: genes 4 Torsion [CA]-CB--CG-[CD2] |==|  0.32291
USER: genes 5 Torsion [CE2]-CZ--OH-[HH] |==|  0.12089
USER: genes 6 Torsion [N]-CA--C-[N] |==|  0.86112
USER: genes 7 Torsion [C]-N--CA-[C] |==|  0.58213
USER: genes 8 Torsion [N]-CA--CB-[CG] |==|  0.75760
USER: genes 9 Torsion [CA]-CB--CG-[ND1] |==|  0.26030
USER: genes 10 Torsion [N]-CA--C-[O] |==|  0.46567
ROOT
ATOM      1  C   TYR C  64      14.411  -0.053   1.946  1.00 51.57 LIG 0.26  C 
ATOM      2 O    TYR C  64      13.783   0.869   1.426  1.00 54.62 LIG-0.27  OA
ATOM      3  N   PRO C  65      15.493   0.160   2.715  1.00 43.10 LIG-0.34  N 
ATOM      4  CA  PRO C  65      16.261  -0.817   3.493  1.00 38.90 LIG 0.18  C 
ATOM      5  CB  PRO C  65      17.691  -0.322   3.327  1.00 40.80 LIG 0.04  C 
ATOM      6  CG  PRO C  65      17.542   1.157   3.240  1.00 42.19 LIG 0.02  C 
ATOM      7  CD  PRO C  65      16.223   1.431   2.572  1.00 44.37 LIG 0.13  C 
ENDROOT
BRANCH 1 8
ATOM      8  CA  TYR C  64      13.972  -1.498   1.723  1.00 49.73 LIG 0.40  C 
ATOM      9  N   TYR C  64      12.617  -1.672   2.239  1.00 50.52 LIG 0.61  N 
BRANCH 8 10
ATOM     10  CB  TYR C  64      14.026  -1.816   0.223  1.00 50.46 LIG 0.09  C 
BRANCH 10 11
ATOM     11  CG  TYR C  64      14.683  -3.130  -0.141  1.00 47.68 LIG-0.06  A 
ATOM     12  CD2 TYR C  64      13.949  -4.139  -0.754  1.00 48.34 LIG 0.01  A 
ATOM     13  CE2 TYR C  64      14.532  -5.345  -1.093  1.00 49.15 LIG 0.04  A 
ATOM     14  CZ  TYR C  64      15.869  -5.554  -0.820  1.00 50.59 LIG 0.07  A 
ATOM     15  CE1 TYR C  64      16.623  -4.569  -0.213  1.00 46.73 LIG 0.04  A 
ATOM     16  CD1 TYR C  64      16.029  -3.364   0.121  1.00 46.22 LIG 0.01  A 
BRANCH 14 17
ATOM     17 OH   TYR C  64      16.457  -6.753  -1.154  1.00 53.82 LIG-0.36  OA
ATOM     18 HH   TYR C  64      16.207  -6.983  -1.923  1.00 53.82 LIG 0.22  HD
ENDBRANCH 14 17
ENDBRANCH 10 11
ENDBRANCH 8 10
ENDBRANCH 1 8
BRANCH 4 19
ATOM     19  C   PRO C  65      15.879  -0.799   4.969  1.00 37.07 LIG 0.24  C 
ATOM     20  N   HIS C  66      15.866   0.401   5.548  1.00 40.38 LIG-0.35  N 
ATOM     21 H    HIS C  66      16.092   1.125   5.145  1.00 40.38 LIG 0.16  HD
ATOM     22 O    PRO C  65      15.616  -1.861   5.560  1.00 29.28 LIG-0.27  OA
BRANCH 20 23
ATOM     23  CA  HIS C  66      15.463   0.595   6.933  1.00 40.25 LIG 0.17  C 
BRANCH 23 24
ATOM     24  CB  HIS C  66      16.662   0.411   7.874  1.00 42.68 LIG 0.09  C 
BRANCH 24 25
ATOM     25  CG  HIS C  66      16.888  -1.008   8.300  1.00 48.80 LIG 0.06  A 
ATOM     26 ND1  HIS C  66      17.751  -1.858   7.640  1.00 53.13 LIG-0.24  NA
ATOM     27  CE1 HIS C  66      17.749  -3.036   8.238  1.00 55.16 LIG 0.23  A 
ATOM     28 NE2  HIS C  66      16.915  -2.983   9.262  1.00 53.86 LIG-0.25  NA
ATOM     29  CD2 HIS C  66      16.363  -1.724   9.321  1.00 53.41 LIG 0.14  A 
ENDBRANCH 24 25
ENDBRANCH 23 24
BRANCH 23 30
ATOM     30  C   HIS C  66      14.848   1.980   7.141  1.00 41.89 LIG 0.22  C 
ATOM     31 O    HIS C  66      14.243   2.250   8.181  1.00 44.58 LIG-0.29  OA
ENDBRANCH 23 30
ENDBRANCH 20 23
ENDBRANCH 4 19
TORSDOF 9
ENDMDL
MODEL 27
USER: ADFR SOLUTION from run 140
USER: SCORE 10.669960 LL:  -1.434 LR:  -9.236 RR:   0.000 FEB:  -6.551
USER: RMSD 6.621631
USER: SEED 139
USER: STATUS no improvement in best in 30 clusters for 5 generations
USER: GENES 11
USER: genes 0 Translation |==|  0.74612 0.36730 0.51143
USER: genes 1 Rotation |==|  0.48013 0.21480 0.61647 0.89332
USER: genes 2 Torsion [N]-C--CA-[N] |==|  0.84834
USER: genes 3 Torsion [C]-CA--CB-[CG] |==|  0.26299
USER: genes 4 Torsion [CA]-CB--CG-[CD2] |==|  0.70697
USER: genes 5 Torsion [CE2]-CZ--OH-[HH] |==|  0.11457
USER: genes 6 Torsion [N]-CA--C-[N] |==|  0.40047
USER: genes 7 Torsion [C]-N--CA-[C] |==|  0.23915
USER: genes 8 Torsion [N]-CA--CB-[CG] |==|  0.51627
USER: genes 9 Torsion [CA]-CB--CG-[ND1] |==|  0.75849
USER: genes 10 Torsion [N]-CA--C-[O] |==|  0.99854
ROOT
ATOM      1  C   TYR C  64      16.766  -2.839   7.283  1.00 51.57 LIG 0.26  C 
ATOM      2 O    TYR C  64      17.871  -3.342   7.077  1.00 54.62 LIG-0.27  OA
ATOM      3  N   PRO C  65      16.520  -2.059   8.349  1.00 43.10 LIG-0.34  N 
ATOM      4  CA  PRO C  65      15.305  -1.299   8.658  1.00 38.90 LIG 0.18  C 
ATOM      5  CB  PRO C  65      15.196  -1.445  10.169  1.00 40.80 LIG 0.04  C 
ATOM      6  CG  PRO C  65      16.615  -1.500  10.618  1.00 42.19 LIG 0.02  C 
ATOM      7  CD  PRO C  65      17.401  -2.169   9.524  1.00 44.37 LIG 0.13  C 
ENDROOT
BRANCH 1 8
ATOM      8  CA  TYR C  64      15.616  -3.097   6.311  1.00 49.73 LIG 0.40  C 
ATOM      9  N   TYR C  64      14.475  -3.632   7.050  1.00 50.52 LIG 0.61  N 
BRANCH 8 10
ATOM     10  CB  TYR C  64      15.243  -1.784   5.612  1.00 50.46 LIG 0.09  C 
BRANCH 10 11
ATOM     11  CG  TYR C  64      15.901  -1.551   4.269  1.00 47.68 LIG-0.06  A 
ATOM     12  CD2 TYR C  64      16.937  -0.632   4.142  1.00 48.34 LIG 0.01  A 
ATOM     13  CE2 TYR C  64      17.548  -0.406   2.923  1.00 49.15 LIG 0.04  A 
ATOM     14  CZ  TYR C  64      17.125  -1.105   1.810  1.00 50.59 LIG 0.07  A 
ATOM     15  CE1 TYR C  64      16.100  -2.024   1.907  1.00 46.73 LIG 0.04  A 
ATOM     16  CD1 TYR C  64      15.494  -2.244   3.133  1.00 46.22 LIG 0.01  A 
BRANCH 14 17
ATOM     17 OH   TYR C  64      17.729  -0.884   0.593  1.00 53.82 LIG-0.36  OA
ATOM     18 HH   TYR C  64      18.560  -0.813   0.701  1.00 53.82 LIG 0.22  HD
ENDBRANCH 14 17
ENDBRANCH 10 11
ENDBRANCH 8 10
ENDBRANCH 1 8
BRANCH 4 19
ATOM     19  C   PRO C  65      15.446   0.176   8.293  1.00 37.07 LIG 0.24  C 
ATOM     20  N   HIS C  66      14.346   0.764   7.827  1.00 40.38 LIG-0.35  N 
ATOM     21 H    HIS C  66      13.605   0.349   7.696  1.00 40.38 LIG 0.16  HD
ATOM     22 O    PRO C  65      16.541   0.751   8.427  1.00 29.28 LIG-0.27  OA
BRANCH 20 23
ATOM     23  CA  HIS C  66      14.298   2.180   7.494  1.00 40.25 LIG 0.17  C 
BRANCH 23 24
ATOM     24  CB  HIS C  66      15.151   2.994   8.478  1.00 42.68 LIG 0.09  C 
BRANCH 24 25
ATOM     25  CG  HIS C  66      15.047   4.477   8.292  1.00 48.80 LIG 0.06  A 
ATOM     26 ND1  HIS C  66      15.842   5.177   7.409  1.00 53.13 LIG-0.24  NA
ATOM     27  CE1 HIS C  66      15.526   6.459   7.457  1.00 55.16 LIG 0.23  A 
ATOM     28 NE2  HIS C  66      14.555   6.617   8.338  1.00 53.86 LIG-0.25  NA
ATOM     29  CD2 HIS C  66      14.237   5.391   8.875  1.00 53.41 LIG 0.14  A 
ENDBRANCH 24 25
ENDBRANCH 23 24
BRANCH 23 30
ATOM     30  C   HIS C  66      14.777   2.428   6.064  1.00 41.89 LIG 0.22  C 
ATOM     31 O    HIS C  66      15.150   1.491   5.353  1.00 44.58 LIG-0.29  OA
ENDBRANCH 23 30
ENDBRANCH 20 23
ENDBRANCH 4 19
TORSDOF 9
ENDMDL
MODEL 28
USER: ADFR SOLUTION from run 101
USER: SCORE 10.599339 LL:  -1.378 LR:  -9.221 RR:   0.000 FEB:  -6.536
USER: RMSD 6.359033
USER: SEED 100
USER: STATUS no improvement in best in 20 clusters for 5 generations
USER: GENES 11
USER: genes 0 Translation |==|  0.73969 0.36086 0.51108
USER: genes 1 Rotation |==|  0.45263 0.22009 0.58703 0.90229
USER: genes 2 Torsion [N]-C--CA-[N] |==|  0.83993
USER: genes 3 Torsion [C]-CA--CB-[CG] |==|  0.26441
USER: genes 4 Torsion [CA]-CB--CG-[CD2] |==|  0.18403
USER: genes 5 Torsion [CE2]-CZ--OH-[HH] |==|  0.60634
USER: genes 6 Torsion [N]-CA--C-[N] |==|  0.36066
USER: genes 7 Torsion [C]-N--CA-[C] |==|  0.82750
USER: genes 8 Torsion [N]-CA--CB-[CG] |==|  0.17414
USER: genes 9 Torsion [CA]-CB--CG-[ND1] |==|  0.92486
USER: genes 10 Torsion [N]-CA--C-[O] |==|  0.47356
ROOT
ATOM      1  C   TYR C  64      16.645  -2.940   7.276  1.00 51.57 LIG 0.26  C 
ATOM      2 O    TYR C  64      17.651  -3.622   7.077  1.00 54.62 LIG-0.27  OA
ATOM      3  N   PRO C  65      16.539  -2.107   8.325  1.00 43.10 LIG-0.34  N 
ATOM      4  CA  PRO C  65      15.468  -1.151   8.622  1.00 38.90 LIG 0.18  C 
ATOM      5  CB  PRO C  65      15.351  -1.244  10.137  1.00 40.80 LIG 0.04  C 
ATOM      6  CG  PRO C  65      16.745  -1.521  10.581  1.00 42.19 LIG 0.02  C 
ATOM      7  CD  PRO C  65      17.401  -2.334   9.499  1.00 44.37 LIG 0.13  C 
ENDROOT
BRANCH 1 8
ATOM      8  CA  TYR C  64      15.460  -3.028   6.317  1.00 49.73 LIG 0.40  C 
ATOM      9  N   TYR C  64      14.268  -3.422   7.062  1.00 50.52 LIG 0.61  N 
BRANCH 8 10
ATOM     10  CB  TYR C  64      15.254  -1.665   5.645  1.00 50.46 LIG 0.09  C 
BRANCH 10 11
ATOM     11  CG  TYR C  64      15.911  -1.499   4.292  1.00 47.68 LIG-0.06  A 
ATOM     12  CD2 TYR C  64      15.482  -2.249   3.203  1.00 48.34 LIG 0.01  A 
ATOM     13  CE2 TYR C  64      16.072  -2.111   1.960  1.00 49.15 LIG 0.04  A 
ATOM     14  CZ  TYR C  64      17.106  -1.212   1.795  1.00 50.59 LIG 0.07  A 
ATOM     15  CE1 TYR C  64      17.552  -0.452   2.858  1.00 46.73 LIG 0.04  A 
ATOM     16  CD1 TYR C  64      16.954  -0.598   4.099  1.00 46.22 LIG 0.01  A 
BRANCH 14 17
ATOM     17 OH   TYR C  64      17.698  -1.069   0.560  1.00 53.82 LIG-0.36  OA
ATOM     18 HH   TYR C  64      18.526  -0.961   0.657  1.00 53.82 LIG 0.22  HD
ENDBRANCH 14 17
ENDBRANCH 10 11
ENDBRANCH 8 10
ENDBRANCH 1 8
BRANCH 4 19
ATOM     19  C   PRO C  65      15.846   0.272   8.223  1.00 37.07 LIG 0.24  C 
ATOM     20  N   HIS C  66      14.950   0.922   7.483  1.00 40.38 LIG-0.35  N 
ATOM     21 H    HIS C  66      14.217   0.568   7.205  1.00 40.38 LIG 0.16  HD
ATOM     22 O    PRO C  65      16.938   0.751   8.577  1.00 29.28 LIG-0.27  OA
BRANCH 20 23
ATOM     23  CA  HIS C  66      15.132   2.307   7.074  1.00 40.25 LIG 0.17  C 
BRANCH 23 24
ATOM     24  CB  HIS C  66      13.993   2.747   6.143  1.00 42.68 LIG 0.09  C 
BRANCH 24 25
ATOM     25  CG  HIS C  66      12.638   2.720   6.784  1.00 48.80 LIG 0.06  A 
ATOM     26 ND1  HIS C  66      12.322   1.876   7.827  1.00 53.13 LIG-0.24  NA
ATOM     27  CE1 HIS C  66      11.066   2.075   8.186  1.00 55.16 LIG 0.23  A 
ATOM     28 NE2  HIS C  66      10.556   3.018   7.414  1.00 53.86 LIG-0.25  NA
ATOM     29  CD2 HIS C  66      11.520   3.437   6.527  1.00 53.41 LIG 0.14  A 
ENDBRANCH 24 25
ENDBRANCH 23 24
BRANCH 23 30
ATOM     30  C   HIS C  66      15.202   3.237   8.285  1.00 41.89 LIG 0.22  C 
ATOM     31 O    HIS C  66      15.526   4.420   8.152  1.00 44.58 LIG-0.29  OA
ENDBRANCH 23 30
ENDBRANCH 20 23
ENDBRANCH 4 19
TORSDOF 9
ENDMDL
MODEL 29
USER: ADFR SOLUTION from run 103
USER: SCORE 10.681947 LL:  -1.543 LR:  -9.139 RR:   0.000 FEB:  -6.454
USER: RMSD 7.904743
USER: SEED 102
USER: STATUS no improvement in best in 26 clusters for 5 generations
USER: GENES 11
USER: genes 0 Translation |==|  0.70974 0.55865 0.53264
USER: genes 1 Rotation |==|  0.92778 0.27956 0.55046 0.62594
USER: genes 2 Torsion [N]-C--CA-[N] |==|  0.32683
USER: genes 3 Torsion [C]-CA--CB-[CG] |==|  0.23640
USER: genes 4 Torsion [CA]-CB--CG-[CD2] |==|  0.07969
USER: genes 5 Torsion [CE2]-CZ--OH-[HH] |==|  0.49680
USER: genes 6 Torsion [N]-CA--C-[N] |==|  0.15707
USER: genes 7 Torsion [C]-N--CA-[C] |==|  0.21699
USER: genes 8 Torsion [N]-CA--CB-[CG] |==|  0.54286
USER: genes 9 Torsion [CA]-CB--CG-[ND1] |==|  0.64684
USER: genes 10 Torsion [N]-CA--C-[O] |==|  0.01912
ROOT
ATOM      1  C   TYR C  64      16.084   0.175   7.665  1.00 51.57 LIG 0.26  C 
ATOM      2 O    TYR C  64      16.651   1.126   8.202  1.00 54.62 LIG-0.27  OA
ATOM      3  N   PRO C  65      16.431  -1.100   7.911  1.00 43.10 LIG-0.34  N 
ATOM      4  CA  PRO C  65      15.774  -2.326   7.447  1.00 38.90 LIG 0.18  C 
ATOM      5  CB  PRO C  65      16.952  -3.253   7.180  1.00 40.80 LIG 0.04  C 
ATOM      6  CG  PRO C  65      17.955  -2.850   8.205  1.00 42.19 LIG 0.02  C 
ATOM      7  CD  PRO C  65      17.776  -1.376   8.444  1.00 44.37 LIG 0.13  C 
ENDROOT
BRANCH 1 8
ATOM      8  CA  TYR C  64      14.945   0.423   6.677  1.00 49.73 LIG 0.40  C 
ATOM      9  N   TYR C  64      13.846   1.090   7.371  1.00 50.52 LIG 0.61  N 
BRANCH 8 10
ATOM     10  CB  TYR C  64      15.460   1.287   5.520  1.00 50.46 LIG 0.09  C 
BRANCH 10 11
ATOM     11  CG  TYR C  64      16.133   0.534   4.394  1.00 47.68 LIG-0.06  A 
ATOM     12  CD2 TYR C  64      15.772  -0.778   4.108  1.00 48.34 LIG 0.01  A 
ATOM     13  CE2 TYR C  64      16.377  -1.481   3.083  1.00 49.15 LIG 0.04  A 
ATOM     14  CZ  TYR C  64      17.358  -0.872   2.327  1.00 50.59 LIG 0.07  A 
ATOM     15  CE1 TYR C  64      17.736   0.430   2.587  1.00 46.73 LIG 0.04  A 
ATOM     16  CD1 TYR C  64      17.123   1.126   3.616  1.00 46.22 LIG 0.01  A 
BRANCH 14 17
ATOM     17 OH   TYR C  64      17.965  -1.567   1.305  1.00 53.82 LIG-0.36  OA
ATOM     18 HH   TYR C  64      18.526  -1.071   0.924  1.00 53.82 LIG 0.22  HD
ENDBRANCH 14 17
ENDBRANCH 10 11
ENDBRANCH 8 10
ENDBRANCH 1 8
BRANCH 4 19
ATOM     19  C   PRO C  65      14.877  -2.934   8.521  1.00 37.07 LIG 0.24  C 
ATOM     20  N   HIS C  66      13.928  -2.133   9.002  1.00 40.38 LIG-0.35  N 
ATOM     21 H    HIS C  66      13.834  -1.312   8.765  1.00 40.38 LIG 0.16  HD
ATOM     22 O    PRO C  65      15.062  -4.103   8.902  1.00 29.28 LIG-0.27  OA
BRANCH 20 23
ATOM     23  CA  HIS C  66      12.951  -2.581   9.984  1.00 40.25 LIG 0.17  C 
BRANCH 23 24
ATOM     24  CB  HIS C  66      12.407  -3.966   9.609  1.00 42.68 LIG 0.09  C 
BRANCH 24 25
ATOM     25  CG  HIS C  66      11.155  -4.346  10.339  1.00 48.80 LIG 0.06  A 
ATOM     26 ND1  HIS C  66      11.025  -5.529  11.036  1.00 53.13 LIG-0.24  NA
ATOM     27  CE1 HIS C  66       9.821  -5.590  11.576  1.00 55.16 LIG 0.23  A 
ATOM     28 NE2  HIS C  66       9.164  -4.490  11.255  1.00 53.86 LIG-0.25  NA
ATOM     29  CD2 HIS C  66       9.976  -3.696  10.480  1.00 53.41 LIG 0.14  A 
ENDBRANCH 24 25
ENDBRANCH 23 24
BRANCH 23 30
ATOM     30  C   HIS C  66      13.558  -2.624  11.387  1.00 41.89 LIG 0.22  C 
ATOM     31 O    HIS C  66      14.691  -2.185  11.597  1.00 44.58 LIG-0.29  OA
ENDBRANCH 23 30
ENDBRANCH 20 23
ENDBRANCH 4 19
TORSDOF 9
ENDMDL
MODEL 30
USER: ADFR SOLUTION from run 43
USER: SCORE 10.651825 LL:  -1.518 LR:  -9.134 RR:   0.000 FEB:  -6.449
USER: RMSD 6.587309
USER: SEED 42
USER: STATUS no improvement in best in 19 clusters for 5 generations
USER: GENES 11
USER: genes 0 Translation |==|  0.50745 0.37298 0.67233
USER: genes 1 Rotation |==|  0.39782 0.08410 0.73576 0.60489
USER: genes 2 Torsion [N]-C--CA-[N] |==|  0.13003
USER: genes 3 Torsion [C]-CA--CB-[CG] |==|  0.80656
USER: genes 4 Torsion [CA]-CB--CG-[CD2] |==|  0.24921
USER: genes 5 Torsion [CE2]-CZ--OH-[HH] |==|  0.19093
USER: genes 6 Torsion [N]-CA--C-[N] |==|  0.96693
USER: genes 7 Torsion [C]-N--CA-[C] |==|  0.68901
USER: genes 8 Torsion [N]-CA--CB-[CG] |==|  0.83143
USER: genes 9 Torsion [CA]-CB--CG-[ND1] |==|  0.07377
USER: genes 10 Torsion [N]-CA--C-[O] |==|  0.72909
ROOT
ATOM      1  C   TYR C  64      12.291  -2.750  10.179  1.00 51.57 LIG 0.26  C 
ATOM      2 O    TYR C  64      12.819  -2.476  11.257  1.00 54.62 LIG-0.27  OA
ATOM      3  N   PRO C  65      11.121  -2.210   9.795  1.00 43.10 LIG-0.34  N 
ATOM      4  CA  PRO C  65      10.439  -2.342   8.504  1.00 38.90 LIG 0.18  C 
ATOM      5  CB  PRO C  65       8.973  -2.409   8.908  1.00 40.80 LIG 0.04  C 
ATOM      6  CG  PRO C  65       8.903  -1.541  10.116  1.00 42.19 LIG 0.02  C 
ATOM      7  CD  PRO C  65      10.223  -1.663  10.827  1.00 44.37 LIG 0.13  C 
ENDROOT
BRANCH 1 8
ATOM      8  CA  TYR C  64      12.964  -3.736   9.227  1.00 49.73 LIG 0.40  C 
ATOM      9  N   TYR C  64      12.959  -3.177   7.877  1.00 50.52 LIG 0.61  N 
BRANCH 8 10
ATOM     10  CB  TYR C  64      14.399  -3.995   9.702  1.00 50.46 LIG 0.09  C 
BRANCH 10 11
ATOM     11  CG  TYR C  64      15.356  -2.832   9.550  1.00 47.68 LIG-0.06  A 
ATOM     12  CD2 TYR C  64      15.504  -1.903  10.574  1.00 48.34 LIG 0.01  A 
ATOM     13  CE2 TYR C  64      16.372  -0.835  10.452  1.00 49.15 LIG 0.04  A 
ATOM     14  CZ  TYR C  64      17.109  -0.686   9.294  1.00 50.59 LIG 0.07  A 
ATOM     15  CE1 TYR C  64      16.983  -1.594   8.261  1.00 46.73 LIG 0.04  A 
ATOM     16  CD1 TYR C  64      16.110  -2.661   8.394  1.00 46.22 LIG 0.01  A 
BRANCH 14 17
ATOM     17 OH   TYR C  64      17.975   0.376   9.166  1.00 53.82 LIG-0.36  OA
ATOM     18 HH   TYR C  64      18.621   0.277   9.694  1.00 53.82 LIG 0.22  HD
ENDBRANCH 14 17
ENDBRANCH 10 11
ENDBRANCH 8 10
ENDBRANCH 1 8
BRANCH 4 19
ATOM     19  C   PRO C  65      10.671  -1.129   7.610  1.00 37.07 LIG 0.24  C 
ATOM     20  N   HIS C  66      11.218  -0.070   8.202  1.00 40.38 LIG-0.35  N 
ATOM     21 H    HIS C  66      11.401  -0.037   9.042  1.00 40.38 LIG 0.16  HD
ATOM     22 O    PRO C  65      10.343  -1.165   6.410  1.00 29.28 LIG-0.27  OA
BRANCH 20 23
ATOM     23  CA  HIS C  66      11.560   1.143   7.474  1.00 40.25 LIG 0.17  C 
BRANCH 23 24
ATOM     24  CB  HIS C  66      10.907   2.368   8.130  1.00 42.68 LIG 0.09  C 
BRANCH 24 25
ATOM     25  CG  HIS C  66       9.410   2.313   8.163  1.00 48.80 LIG 0.06  A 
ATOM     26 ND1  HIS C  66       8.704   1.128   8.167  1.00 53.13 LIG-0.24  NA
ATOM     27  CE1 HIS C  66       7.409   1.389   8.202  1.00 55.16 LIG 0.23  A 
ATOM     28 NE2  HIS C  66       7.248   2.700   8.221  1.00 53.86 LIG-0.25  NA
ATOM     29  CD2 HIS C  66       8.485   3.301   8.197  1.00 53.41 LIG 0.14  A 
ENDBRANCH 24 25
ENDBRANCH 23 24
BRANCH 23 30
ATOM     30  C   HIS C  66      13.075   1.338   7.405  1.00 41.89 LIG 0.22  C 
ATOM     31 O    HIS C  66      13.651   2.083   8.202  1.00 44.58 LIG-0.29  OA
ENDBRANCH 23 30
ENDBRANCH 20 23
ENDBRANCH 4 19
TORSDOF 9
ENDMDL
MODEL 31
USER: ADFR SOLUTION from run 153
USER: SCORE 10.731492 LL:  -1.612 LR:  -9.120 RR:   0.000 FEB:  -6.435
USER: RMSD 6.066708
USER: SEED 152
USER: STATUS no improvement in best in 44 clusters for 5 generations
USER: GENES 11
USER: genes 0 Translation |==|  0.53640 0.39052 0.64834
USER: genes 1 Rotation |==|  0.64583 0.91399 0.32407 0.66246
USER: genes 2 Torsion [N]-C--CA-[N] |==|  0.86771
USER: genes 3 Torsion [C]-CA--CB-[CG] |==|  0.63872
USER: genes 4 Torsion [CA]-CB--CG-[CD2] |==|  0.34684
USER: genes 5 Torsion [CE2]-CZ--OH-[HH] |==|  0.62745
USER: genes 6 Torsion [N]-CA--C-[N] |==|  0.08289
USER: genes 7 Torsion [C]-N--CA-[C] |==|  0.67611
USER: genes 8 Torsion [N]-CA--CB-[CG] |==|  0.42841
USER: genes 9 Torsion [CA]-CB--CG-[ND1] |==|  0.64956
USER: genes 10 Torsion [N]-CA--C-[O] |==|  0.90153
ROOT
ATOM      1  C   TYR C  64      12.833  -2.473   9.747  1.00 51.57 LIG 0.26  C 
ATOM      2 O    TYR C  64      12.060  -2.174  10.657  1.00 54.62 LIG-0.27  OA
ATOM      3  N   PRO C  65      12.537  -2.259   8.454  1.00 43.10 LIG-0.34  N 
ATOM      4  CA  PRO C  65      13.397  -2.446   7.282  1.00 38.90 LIG 0.18  C 
ATOM      5  CB  PRO C  65      12.425  -2.978   6.238  1.00 40.80 LIG 0.04  C 
ATOM      6  CG  PRO C  65      11.142  -2.301   6.577  1.00 42.19 LIG 0.02  C 
ATOM      7  CD  PRO C  65      11.123  -2.109   8.068  1.00 44.37 LIG 0.13  C 
ENDROOT
BRANCH 1 8
ATOM      8  CA  TYR C  64      14.181  -3.114  10.070  1.00 49.73 LIG 0.40  C 
ATOM      9  N   TYR C  64      14.377  -4.278   9.208  1.00 50.52 LIG 0.61  N 
BRANCH 8 10
ATOM     10  CB  TYR C  64      15.296  -2.084   9.851  1.00 50.46 LIG 0.09  C 
BRANCH 10 11
ATOM     11  CG  TYR C  64      16.459  -2.551   9.004  1.00 47.68 LIG-0.06  A 
ATOM     12  CD2 TYR C  64      16.843  -1.835   7.876  1.00 48.34 LIG 0.01  A 
ATOM     13  CE2 TYR C  64      17.903  -2.249   7.091  1.00 49.15 LIG 0.04  A 
ATOM     14  CZ  TYR C  64      18.595  -3.393   7.431  1.00 50.59 LIG 0.07  A 
ATOM     15  CE1 TYR C  64      18.237  -4.124   8.547  1.00 46.73 LIG 0.04  A 
ATOM     16  CD1 TYR C  64      17.174  -3.701   9.327  1.00 46.22 LIG 0.01  A 
BRANCH 14 17
ATOM     17 OH   TYR C  64      19.651  -3.811   6.653  1.00 53.82 LIG-0.36  OA
ATOM     18 HH   TYR C  64      19.586  -4.637   6.513  1.00 53.82 LIG 0.22  HD
ENDBRANCH 14 17
ENDBRANCH 10 11
ENDBRANCH 8 10
ENDBRANCH 1 8
BRANCH 4 19
ATOM     19  C   PRO C  65      13.998  -1.130   6.799  1.00 37.07 LIG 0.24  C 
ATOM     20  N   HIS C  66      14.204  -0.210   7.739  1.00 40.38 LIG-0.35  N 
ATOM     21 H    HIS C  66      13.984  -0.315   8.564  1.00 40.38 LIG 0.16  HD
ATOM     22 O    PRO C  65      14.254  -0.964   5.593  1.00 29.28 LIG-0.27  OA
BRANCH 20 23
ATOM     23  CA  HIS C  66      14.828   1.074   7.453  1.00 40.25 LIG 0.17  C 
BRANCH 23 24
ATOM     24  CB  HIS C  66      13.886   2.227   7.827  1.00 42.68 LIG 0.09  C 
BRANCH 24 25
ATOM     25  CG  HIS C  66      14.591   3.508   8.152  1.00 48.80 LIG 0.06  A 
ATOM     26 ND1  HIS C  66      14.387   4.195   9.330  1.00 53.13 LIG-0.24  NA
ATOM     27  CE1 HIS C  66      15.142   5.280   9.341  1.00 55.16 LIG 0.23  A 
ATOM     28 NE2  HIS C  66      15.828   5.322   8.213  1.00 53.86 LIG-0.25  NA
ATOM     29  CD2 HIS C  66      15.501   4.225   7.451  1.00 53.41 LIG 0.14  A 
ENDBRANCH 24 25
ENDBRANCH 23 24
BRANCH 23 30
ATOM     30  C   HIS C  66      16.154   1.223   8.200  1.00 41.89 LIG 0.22  C 
ATOM     31 O    HIS C  66      16.296   0.751   9.331  1.00 44.58 LIG-0.29  OA
ENDBRANCH 23 30
ENDBRANCH 20 23
ENDBRANCH 4 19
TORSDOF 9
ENDMDL
MODEL 32
USER: ADFR SOLUTION from run 71
USER: SCORE 10.594236 LL:  -1.507 LR:  -9.087 RR:   0.000 FEB:  -6.402
USER: RMSD 3.849140
USER: SEED 70
USER: STATUS no improvement in best in 36 clusters for 5 generations
USER: GENES 11
USER: genes 0 Translation |==|  0.46209 0.41489 0.56789
USER: genes 1 Rotation |==|  0.66106 0.71775 0.35613 0.89490
USER: genes 2 Torsion [N]-C--CA-[N] |==|  0.49419
USER: genes 3 Torsion [C]-CA--CB-[CG] |==|  0.77596
USER: genes 4 Torsion [CA]-CB--CG-[CD2] |==|  0.73407
USER: genes 5 Torsion [CE2]-CZ--OH-[HH] |==|  0.70669
USER: genes 6 Torsion [N]-CA--C-[N] |==|  0.29222
USER: genes 7 Torsion [C]-N--CA-[C] |==|  0.15492
USER: genes 8 Torsion [N]-CA--CB-[CG] |==|  0.96667
USER: genes 9 Torsion [CA]-CB--CG-[ND1] |==|  0.34947
USER: genes 10 Torsion [N]-CA--C-[O] |==|  0.16468
ROOT
ATOM      1  C   TYR C  64      11.440  -2.089   8.299  1.00 51.57 LIG 0.26  C 
ATOM      2 O    TYR C  64      10.352  -1.783   7.811  1.00 54.62 LIG-0.27  OA
ATOM      3  N   PRO C  65      12.515  -2.365   7.541  1.00 43.10 LIG-0.34  N 
ATOM      4  CA  PRO C  65      13.892  -2.620   7.975  1.00 38.90 LIG 0.18  C 
ATOM      5  CB  PRO C  65      14.350  -3.701   7.007  1.00 40.80 LIG 0.04  C 
ATOM      6  CG  PRO C  65      13.627  -3.374   5.747  1.00 42.19 LIG 0.02  C 
ATOM      7  CD  PRO C  65      12.308  -2.767   6.139  1.00 44.37 LIG 0.13  C 
ENDROOT
BRANCH 1 8
ATOM      8  CA  TYR C  64      11.601  -2.171   9.815  1.00 49.73 LIG 0.40  C 
ATOM      9  N   TYR C  64      10.342  -1.790  10.452  1.00 50.52 LIG 0.61  N 
BRANCH 8 10
ATOM     10  CB  TYR C  64      11.995  -3.600  10.205  1.00 50.46 LIG 0.09  C 
BRANCH 10 11
ATOM     11  CG  TYR C  64      10.856  -4.594  10.278  1.00 47.68 LIG-0.06  A 
ATOM     12  CD2 TYR C  64      10.241  -4.874  11.493  1.00 48.34 LIG 0.01  A 
ATOM     13  CE2 TYR C  64       9.200  -5.779  11.577  1.00 49.15 LIG 0.04  A 
ATOM     14  CZ  TYR C  64       8.760  -6.417  10.435  1.00 50.59 LIG 0.07  A 
ATOM     15  CE1 TYR C  64       9.351  -6.158   9.214  1.00 46.73 LIG 0.04  A 
ATOM     16  CD1 TYR C  64      10.393  -5.249   9.141  1.00 46.22 LIG 0.01  A 
BRANCH 14 17
ATOM     17 OH   TYR C  64       7.724  -7.320  10.512  1.00 53.82 LIG-0.36  OA
ATOM     18 HH   TYR C  64       8.026  -8.101  10.440  1.00 53.82 LIG 0.22  HD
ENDBRANCH 14 17
ENDBRANCH 10 11
ENDBRANCH 8 10
ENDBRANCH 1 8
BRANCH 4 19
ATOM     19  C   PRO C  65      14.776  -1.387   7.823  1.00 37.07 LIG 0.24  C 
ATOM     20  N   HIS C  66      15.080  -0.749   8.952  1.00 40.38 LIG-0.35  N 
ATOM     21 H    HIS C  66      14.776  -0.979   9.723  1.00 40.38 LIG 0.16  HD
ATOM     22 O    PRO C  65      15.158  -1.026   6.695  1.00 29.28 LIG-0.27  OA
BRANCH 20 23
ATOM     23  CA  HIS C  66      15.964   0.406   8.984  1.00 40.25 LIG 0.17  C 
BRANCH 23 24
ATOM     24  CB  HIS C  66      17.394   0.001   8.601  1.00 42.68 LIG 0.09  C 
BRANCH 24 25
ATOM     25  CG  HIS C  66      17.618  -1.480   8.565  1.00 48.80 LIG 0.06  A 
ATOM     26 ND1  HIS C  66      18.128  -2.133   7.463  1.00 53.13 LIG-0.24  NA
ATOM     27  CE1 HIS C  66      18.217  -3.426   7.722  1.00 55.16 LIG 0.23  A 
ATOM     28 NE2  HIS C  66      17.783  -3.636   8.952  1.00 53.86 LIG-0.25  NA
ATOM     29  CD2 HIS C  66      17.401  -2.434   9.501  1.00 53.41 LIG 0.14  A 
ENDBRANCH 24 25
ENDBRANCH 23 24
BRANCH 23 30
ATOM     30  C   HIS C  66      15.468   1.509   8.048  1.00 41.89 LIG 0.22  C 
ATOM     31 O    HIS C  66      14.351   2.009   8.202  1.00 44.58 LIG-0.29  OA
ENDBRANCH 23 30
ENDBRANCH 20 23
ENDBRANCH 4 19
TORSDOF 9
ENDMDL
MODEL 33
USER: ADFR SOLUTION from run 65
USER: SCORE 10.524944 LL:  -1.443 LR:  -9.082 RR:   0.000 FEB:  -6.398
USER: RMSD 8.323726
USER: SEED 64
USER: STATUS no improvement in best in 33 clusters for 5 generations
USER: GENES 11
USER: genes 0 Translation |==|  0.49050 0.34261 0.62443
USER: genes 1 Rotation |==|  0.61984 0.28097 0.92892 0.56076
USER: genes 2 Torsion [N]-C--CA-[N] |==|  0.37232
USER: genes 3 Torsion [C]-CA--CB-[CG] |==|  0.77555
USER: genes 4 Torsion [CA]-CB--CG-[CD2] |==|  0.27186
USER: genes 5 Torsion [CE2]-CZ--OH-[HH] |==|  0.58565
USER: genes 6 Torsion [N]-CA--C-[N] |==|  0.50849
USER: genes 7 Torsion [C]-N--CA-[C] |==|  0.63687
USER: genes 8 Torsion [N]-CA--CB-[CG] |==|  0.74407
USER: genes 9 Torsion [CA]-CB--CG-[ND1] |==|  0.64006
USER: genes 10 Torsion [N]-CA--C-[O] |==|  0.03662
ROOT
ATOM      1  C   TYR C  64      11.973  -3.228   9.317  1.00 51.57 LIG 0.26  C 
ATOM      2 O    TYR C  64      12.085  -2.003   9.271  1.00 54.62 LIG-0.27  OA
ATOM      3  N   PRO C  65      10.903  -3.830   9.863  1.00 43.10 LIG-0.34  N 
ATOM      4  CA  PRO C  65      10.575  -5.259   9.880  1.00 38.90 LIG 0.18  C 
ATOM      5  CB  PRO C  65       9.958  -5.442  11.260  1.00 40.80 LIG 0.04  C 
ATOM      6  CG  PRO C  65       9.275  -4.143  11.513  1.00 42.19 LIG 0.02  C 
ATOM      7  CD  PRO C  65      10.082  -3.076  10.827  1.00 44.37 LIG 0.13  C 
ENDROOT
BRANCH 1 8
ATOM      8  CA  TYR C  64      13.073  -4.118   8.744  1.00 49.73 LIG 0.40  C 
ATOM      9  N   TYR C  64      13.464  -3.612   7.430  1.00 50.52 LIG 0.61  N 
BRANCH 8 10
ATOM     10  CB  TYR C  64      14.271  -4.120   9.702  1.00 50.46 LIG 0.09  C 
BRANCH 10 11
ATOM     11  CG  TYR C  64      15.193  -2.925   9.595  1.00 47.68 LIG-0.06  A 
ATOM     12  CD2 TYR C  64      15.068  -1.857  10.476  1.00 48.34 LIG 0.01  A 
ATOM     13  CE2 TYR C  64      15.901  -0.757  10.392  1.00 49.15 LIG 0.04  A 
ATOM     14  CZ  TYR C  64      16.877  -0.716   9.417  1.00 50.59 LIG 0.07  A 
ATOM     15  CE1 TYR C  64      17.025  -1.763   8.529  1.00 46.73 LIG 0.04  A 
ATOM     16  CD1 TYR C  64      16.185  -2.861   8.622  1.00 46.22 LIG 0.01  A 
BRANCH 14 17
ATOM     17 OH   TYR C  64      17.710   0.376   9.327  1.00 53.82 LIG-0.36  OA
ATOM     18 HH   TYR C  64      17.936   0.491   8.526  1.00 53.82 LIG 0.22  HD
ENDBRANCH 14 17
ENDBRANCH 10 11
ENDBRANCH 8 10
ENDBRANCH 1 8
BRANCH 4 19
ATOM     19  C   PRO C  65       9.552  -5.622   8.809  1.00 37.07 LIG 0.24  C 
ATOM     20  N   HIS C  66       9.151  -6.892   8.798  1.00 40.38 LIG-0.35  N 
ATOM     21 H    HIS C  66       9.464  -7.493   9.327  1.00 40.38 LIG 0.16  HD
ATOM     22 O    PRO C  65       9.152  -4.758   8.007  1.00 29.28 LIG-0.27  OA
BRANCH 20 23
ATOM     23  CA  HIS C  66       8.134  -7.383   7.880  1.00 40.25 LIG 0.17  C 
BRANCH 23 24
ATOM     24  CB  HIS C  66       8.771  -8.249   6.784  1.00 42.68 LIG 0.09  C 
BRANCH 24 25
ATOM     25  CG  HIS C  66       9.145  -7.488   5.548  1.00 48.80 LIG 0.06  A 
ATOM     26 ND1  HIS C  66       8.777  -7.891   4.282  1.00 53.13 LIG-0.24  NA
ATOM     27  CE1 HIS C  66       9.243  -7.030   3.395  1.00 55.16 LIG 0.23  A 
ATOM     28 NE2  HIS C  66       9.901  -6.083   4.040  1.00 53.86 LIG-0.25  NA
ATOM     29  CD2 HIS C  66       9.855  -6.347   5.388  1.00 53.41 LIG 0.14  A 
ENDBRANCH 24 25
ENDBRANCH 23 24
BRANCH 23 30
ATOM     30  C   HIS C  66       7.063  -8.185   8.619  1.00 41.89 LIG 0.22  C 
ATOM     31 O    HIS C  66       6.987  -8.150   9.850  1.00 44.58 LIG-0.29  OA
ENDBRANCH 23 30
ENDBRANCH 20 23
ENDBRANCH 4 19
TORSDOF 9
ENDMDL
MODEL 34
USER: ADFR SOLUTION from run 36
USER: SCORE 10.545436 LL:  -1.480 LR:  -9.066 RR:   0.000 FEB:  -6.381
USER: RMSD 7.950206
USER: SEED 35
USER: STATUS no improvement in best in 18 clusters for 5 generations
USER: GENES 11
USER: genes 0 Translation |==|  0.70082 0.55158 0.51159
USER: genes 1 Rotation |==|  0.87162 0.24442 0.66422 0.64004
USER: genes 2 Torsion [N]-C--CA-[N] |==|  0.29620
USER: genes 3 Torsion [C]-CA--CB-[CG] |==|  0.35046
USER: genes 4 Torsion [CA]-CB--CG-[CD2] |==|  0.54701
USER: genes 5 Torsion [CE2]-CZ--OH-[HH] |==|  0.02481
USER: genes 6 Torsion [N]-CA--C-[N] |==|  0.60692
USER: genes 7 Torsion [C]-N--CA-[C] |==|  0.21701
USER: genes 8 Torsion [N]-CA--CB-[CG] |==|  0.33623
USER: genes 9 Torsion [CA]-CB--CG-[ND1] |==|  0.21472
USER: genes 10 Torsion [N]-CA--C-[O] |==|  0.92862
ROOT
ATOM      1  C   TYR C  64      15.916   0.063   7.286  1.00 51.57 LIG 0.26  C 
ATOM      2 O    TYR C  64      16.379   1.107   7.747  1.00 54.62 LIG-0.27  OA
ATOM      3  N   PRO C  65      15.920  -1.090   7.975  1.00 43.10 LIG-0.34  N 
ATOM      4  CA  PRO C  65      15.302  -2.368   7.610  1.00 38.90 LIG 0.18  C 
ATOM      5  CB  PRO C  65      16.316  -3.385   8.116  1.00 40.80 LIG 0.04  C 
ATOM      6  CG  PRO C  65      16.889  -2.735   9.327  1.00 42.19 LIG 0.02  C 
ATOM      7  CD  PRO C  65      16.882  -1.251   9.080  1.00 44.37 LIG 0.13  C 
ENDROOT
BRANCH 1 8
ATOM      8  CA  TYR C  64      15.315   0.050   5.882  1.00 49.73 LIG 0.40  C 
ATOM      9  N   TYR C  64      14.021   0.729   5.909  1.00 50.52 LIG 0.61  N 
BRANCH 8 10
ATOM     10  CB  TYR C  64      16.276   0.752   4.915  1.00 50.46 LIG 0.09  C 
BRANCH 10 11
ATOM     11  CG  TYR C  64      16.670  -0.048   3.692  1.00 47.68 LIG-0.06  A 
ATOM     12  CD2 TYR C  64      17.779   0.317   2.937  1.00 48.34 LIG 0.01  A 
ATOM     13  CE2 TYR C  64      18.152  -0.402   1.817  1.00 49.15 LIG 0.04  A 
ATOM     14  CZ  TYR C  64      17.412  -1.504   1.440  1.00 50.59 LIG 0.07  A 
ATOM     15  CE1 TYR C  64      16.306  -1.891   2.171  1.00 46.73 LIG 0.04  A 
ATOM     16  CD1 TYR C  64      15.942  -1.164   3.292  1.00 46.22 LIG 0.01  A 
BRANCH 14 17
ATOM     17 OH   TYR C  64      17.778  -2.225   0.325  1.00 53.82 LIG-0.36  OA
ATOM     18 HH   TYR C  64      18.526  -1.958   0.052  1.00 53.82 LIG 0.22  HD
ENDBRANCH 14 17
ENDBRANCH 10 11
ENDBRANCH 8 10
ENDBRANCH 1 8
BRANCH 4 19
ATOM     19  C   PRO C  65      13.967  -2.580   8.319  1.00 37.07 LIG 0.24  C 
ATOM     20  N   HIS C  66      13.720  -3.823   8.727  1.00 40.38 LIG-0.35  N 
ATOM     21 H    HIS C  66      14.246  -4.486   8.577  1.00 40.38 LIG 0.16  HD
ATOM     22 O    PRO C  65      13.184  -1.626   8.474  1.00 29.28 LIG-0.27  OA
BRANCH 20 23
ATOM     23  CA  HIS C  66      12.521  -4.176   9.473  1.00 40.25 LIG 0.17  C 
BRANCH 23 24
ATOM     24  CB  HIS C  66      12.244  -3.139  10.570  1.00 42.68 LIG 0.09  C 
BRANCH 24 25
ATOM     25  CG  HIS C  66      10.910  -2.468  10.451  1.00 48.80 LIG 0.06  A 
ATOM     26 ND1  HIS C  66       9.731  -3.075  10.827  1.00 53.13 LIG-0.24  NA
ATOM     27  CE1 HIS C  66       8.723  -2.248  10.612  1.00 55.16 LIG 0.23  A 
ATOM     28 NE2  HIS C  66       9.205  -1.126  10.109  1.00 53.86 LIG-0.25  NA
ATOM     29  CD2 HIS C  66      10.571  -1.238   9.997  1.00 53.41 LIG 0.14  A 
ENDBRANCH 24 25
ENDBRANCH 23 24
BRANCH 23 30
ATOM     30  C   HIS C  66      11.308  -4.291   8.549  1.00 41.89 LIG 0.22  C 
ATOM     31 O    HIS C  66      11.268  -3.671   7.483  1.00 44.58 LIG-0.29  OA
ENDBRANCH 23 30
ENDBRANCH 20 23
ENDBRANCH 4 19
TORSDOF 9
ENDMDL
MODEL 35
USER: ADFR SOLUTION from run 92
USER: SCORE 10.901248 LL:  -1.850 LR:  -9.051 RR:   0.000 FEB:  -6.367
USER: RMSD 7.314187
USER: SEED 91
USER: STATUS no improvement in best in 24 clusters for 5 generations
USER: GENES 11
USER: genes 0 Translation |==|  0.76470 0.48219 0.59540
USER: genes 1 Rotation |==|  0.66203 0.22949 0.86427 0.63371
USER: genes 2 Torsion [N]-C--CA-[N] |==|  0.85285
USER: genes 3 Torsion [C]-CA--CB-[CG] |==|  0.17659
USER: genes 4 Torsion [CA]-CB--CG-[CD2] |==|  0.80654
USER: genes 5 Torsion [CE2]-CZ--OH-[HH] |==|  0.18631
USER: genes 6 Torsion [N]-CA--C-[N] |==|  0.44987
USER: genes 7 Torsion [C]-N--CA-[C] |==|  0.17531
USER: genes 8 Torsion [N]-CA--CB-[CG] |==|  0.79424
USER: genes 9 Torsion [CA]-CB--CG-[ND1] |==|  0.30082
USER: genes 10 Torsion [N]-CA--C-[O] |==|  0.06536
ROOT
ATOM      1  C   TYR C  64      17.114  -1.029   8.794  1.00 51.57 LIG 0.26  C 
ATOM      2 O    TYR C  64      17.557   0.108   8.952  1.00 54.62 LIG-0.27  OA
ATOM      3  N   PRO C  65      16.106  -1.517   9.537  1.00 43.10 LIG-0.34  N 
ATOM      4  CA  PRO C  65      15.398  -2.791   9.384  1.00 38.90 LIG 0.18  C 
ATOM      5  CB  PRO C  65      15.151  -3.209  10.827  1.00 40.80 LIG 0.04  C 
ATOM      6  CG  PRO C  65      14.965  -1.915  11.540  1.00 42.19 LIG 0.02  C 
ATOM      7  CD  PRO C  65      15.828  -0.898  10.845  1.00 44.37 LIG 0.13  C 
ENDROOT
BRANCH 1 8
ATOM      8  CA  TYR C  64      17.715  -1.942   7.727  1.00 49.73 LIG 0.40  C 
ATOM      9  N   TYR C  64      18.097  -3.211   8.342  1.00 50.52 LIG 0.61  N 
BRANCH 8 10
ATOM     10  CB  TYR C  64      16.682  -2.167   6.616  1.00 50.46 LIG 0.09  C 
BRANCH 10 11
ATOM     11  CG  TYR C  64      16.276  -0.930   5.844  1.00 47.68 LIG-0.06  A 
ATOM     12  CD2 TYR C  64      15.514   0.062   6.452  1.00 48.34 LIG 0.01  A 
ATOM     13  CE2 TYR C  64      15.133   1.197   5.761  1.00 49.15 LIG 0.04  A 
ATOM     14  CZ  TYR C  64      15.516   1.353   4.445  1.00 50.59 LIG 0.07  A 
ATOM     15  CE1 TYR C  64      16.274   0.385   3.816  1.00 46.73 LIG 0.04  A 
ATOM     16  CD1 TYR C  64      16.651  -0.749   4.517  1.00 46.22 LIG 0.01  A 
BRANCH 14 17
ATOM     17 OH   TYR C  64      15.140   2.480   3.751  1.00 53.82 LIG-0.36  OA
ATOM     18 HH   TYR C  64      15.526   3.152   4.077  1.00 53.82 LIG 0.22  HD
ENDBRANCH 14 17
ENDBRANCH 10 11
ENDBRANCH 8 10
ENDBRANCH 1 8
BRANCH 4 19
ATOM     19  C   PRO C  65      14.064  -2.621   8.664  1.00 37.07 LIG 0.24  C 
ATOM     20  N   HIS C  66      13.536  -3.732   8.154  1.00 40.38 LIG-0.35  N 
ATOM     21 H    HIS C  66      13.924  -4.499   8.184  1.00 40.38 LIG 0.16  HD
ATOM     22 O    PRO C  65      13.543  -1.495   8.571  1.00 29.28 LIG-0.27  OA
BRANCH 20 23
ATOM     23  CA  HIS C  66      12.240  -3.749   7.493  1.00 40.25 LIG 0.17  C 
BRANCH 23 24
ATOM     24  CB  HIS C  66      11.140  -3.269   8.450  1.00 42.68 LIG 0.09  C 
BRANCH 24 25
ATOM     25  CG  HIS C  66      10.771  -4.268   9.504  1.00 48.80 LIG 0.06  A 
ATOM     26 ND1  HIS C  66      11.108  -4.113  10.832  1.00 53.13 LIG-0.24  NA
ATOM     27  CE1 HIS C  66      10.651  -5.143  11.523  1.00 55.16 LIG 0.23  A 
ATOM     28 NE2  HIS C  66      10.030  -5.961  10.691  1.00 53.86 LIG-0.25  NA
ATOM     29  CD2 HIS C  66      10.093  -5.436   9.422  1.00 53.41 LIG 0.14  A 
ENDBRANCH 24 25
ENDBRANCH 23 24
BRANCH 23 30
ATOM     30  C   HIS C  66      12.249  -2.880   6.235  1.00 41.89 LIG 0.22  C 
ATOM     31 O    HIS C  66      13.306  -2.630   5.650  1.00 44.58 LIG-0.29  OA
ENDBRANCH 23 30
ENDBRANCH 20 23
ENDBRANCH 4 19
TORSDOF 9
ENDMDL
MODEL 36
USER: ADFR SOLUTION from run 67
USER: SCORE 10.946999 LL:  -1.901 LR:  -9.046 RR:   0.000 FEB:  -6.362
USER: RMSD 5.516977
USER: SEED 66
USER: STATUS no improvement in best in 33 clusters for 5 generations
USER: GENES 11
USER: genes 0 Translation |==|  0.63560 0.56238 0.49654
USER: genes 1 Rotation |==|  0.43514 0.79937 0.19963 0.75680
USER: genes 2 Torsion [N]-C--CA-[N] |==|  0.39868
USER: genes 3 Torsion [C]-CA--CB-[CG] |==|  0.10004
USER: genes 4 Torsion [CA]-CB--CG-[CD2] |==|  0.73329
USER: genes 5 Torsion [CE2]-CZ--OH-[HH] |==|  0.26275
USER: genes 6 Torsion [N]-CA--C-[N] |==|  0.44493
USER: genes 7 Torsion [C]-N--CA-[C] |==|  0.18955
USER: genes 8 Torsion [N]-CA--CB-[CG] |==|  0.67560
USER: genes 9 Torsion [CA]-CB--CG-[ND1] |==|  0.38331
USER: genes 10 Torsion [N]-CA--C-[O] |==|  0.12359
ROOT
ATOM      1  C   TYR C  64      14.693   0.234   7.015  1.00 51.57 LIG 0.26  C 
ATOM      2 O    TYR C  64      13.652   0.723   7.452  1.00 54.62 LIG-0.27  OA
ATOM      3  N   PRO C  65      14.698  -0.845   6.213  1.00 43.10 LIG-0.34  N 
ATOM      4  CA  PRO C  65      15.836  -1.459   5.523  1.00 38.90 LIG 0.18  C 
ATOM      5  CB  PRO C  65      15.521  -2.945   5.619  1.00 40.80 LIG 0.04  C 
ATOM      6  CG  PRO C  65      14.033  -2.992   5.564  1.00 42.19 LIG 0.02  C 
ATOM      7  CD  PRO C  65      13.526  -1.738   6.222  1.00 44.37 LIG 0.13  C 
ENDROOT
BRANCH 1 8
ATOM      8  CA  TYR C  64      16.041   0.851   7.383  1.00 49.73 LIG 0.40  C 
ATOM      9  N   TYR C  64      15.901   2.303   7.448  1.00 50.52 LIG 0.61  N 
BRANCH 8 10
ATOM     10  CB  TYR C  64      16.500   0.289   8.734  1.00 50.46 LIG 0.09  C 
BRANCH 10 11
ATOM     11  CG  TYR C  64      16.156  -1.163   8.987  1.00 47.68 LIG-0.06  A 
ATOM     12  CD2 TYR C  64      15.016  -1.503   9.707  1.00 48.34 LIG 0.01  A 
ATOM     13  CE2 TYR C  64      14.688  -2.824   9.948  1.00 49.15 LIG 0.04  A 
ATOM     14  CZ  TYR C  64      15.504  -3.826   9.465  1.00 50.59 LIG 0.07  A 
ATOM     15  CE1 TYR C  64      16.642  -3.519   8.746  1.00 46.73 LIG 0.04  A 
ATOM     16  CD1 TYR C  64      16.962  -2.192   8.509  1.00 46.22 LIG 0.01  A 
BRANCH 14 17
ATOM     17 OH   TYR C  64      15.184  -5.144   9.702  1.00 53.82 LIG-0.36  OA
ATOM     18 HH   TYR C  64      14.752  -5.449   9.049  1.00 53.82 LIG 0.22  HD
ENDBRANCH 14 17
ENDBRANCH 10 11
ENDBRANCH 8 10
ENDBRANCH 1 8
BRANCH 4 19
ATOM     19  C   PRO C  65      15.907  -1.043   4.057  1.00 37.07 LIG 0.24  C 
ATOM     20  N   HIS C  66      17.090  -1.202   3.467  1.00 40.38 LIG-0.35  N 
ATOM     21 H    HIS C  66      17.791  -1.482   3.877  1.00 40.38 LIG 0.16  HD
ATOM     22 O    PRO C  65      14.902  -0.579   3.490  1.00 29.28 LIG-0.27  OA
BRANCH 20 23
ATOM     23  CA  HIS C  66      17.306  -0.912   2.057  1.00 40.25 LIG 0.17  C 
BRANCH 23 24
ATOM     24  CB  HIS C  66      16.295  -1.676   1.189  1.00 42.68 LIG 0.09  C 
BRANCH 24 25
ATOM     25  CG  HIS C  66      16.921  -2.674   0.263  1.00 48.80 LIG 0.06  A 
ATOM     26 ND1  HIS C  66      16.395  -3.931   0.053  1.00 53.13 LIG-0.24  NA
ATOM     27  CE1 HIS C  66      17.153  -4.584  -0.811  1.00 55.16 LIG 0.23  A 
ATOM     28 NE2  HIS C  66      18.151  -3.796  -1.169  1.00 53.86 LIG-0.25  NA
ATOM     29  CD2 HIS C  66      18.029  -2.595  -0.510  1.00 53.41 LIG 0.14  A 
ENDBRANCH 24 25
ENDBRANCH 23 24
BRANCH 23 30
ATOM     30  C   HIS C  66      17.200   0.588   1.778  1.00 41.89 LIG 0.22  C 
ATOM     31 O    HIS C  66      17.745   1.406   2.523  1.00 44.58 LIG-0.29  OA
ENDBRANCH 23 30
ENDBRANCH 20 23
ENDBRANCH 4 19
TORSDOF 9
ENDMDL
MODEL 37
USER: ADFR SOLUTION from run 40
USER: SCORE 10.343242 LL:  -1.298 LR:  -9.045 RR:   0.000 FEB:  -6.361
USER: RMSD 2.945303
USER: SEED 39
USER: STATUS no improvement in best in 21 clusters for 5 generations
USER: GENES 11
USER: genes 0 Translation |==|  0.64792 0.33005 0.58257
USER: genes 1 Rotation |==|  0.35050 0.40282 0.59337 0.95770
USER: genes 2 Torsion [N]-C--CA-[N] |==|  0.35824
USER: genes 3 Torsion [C]-CA--CB-[CG] |==|  0.43596
USER: genes 4 Torsion [CA]-CB--CG-[CD2] |==|  0.42543
USER: genes 5 Torsion [CE2]-CZ--OH-[HH] |==|  0.76959
USER: genes 6 Torsion [N]-CA--C-[N] |==|  0.18486
USER: genes 7 Torsion [C]-N--CA-[C] |==|  0.11152
USER: genes 8 Torsion [N]-CA--CB-[CG] |==|  0.17685
USER: genes 9 Torsion [CA]-CB--CG-[ND1] |==|  0.72811
USER: genes 10 Torsion [N]-CA--C-[O] |==|  0.35899
ROOT
ATOM      1  C   TYR C  64      14.924  -3.426   8.563  1.00 51.57 LIG 0.26  C 
ATOM      2 O    TYR C  64      15.444  -4.499   8.257  1.00 54.62 LIG-0.27  OA
ATOM      3  N   PRO C  65      15.650  -2.352   8.920  1.00 43.10 LIG-0.34  N 
ATOM      4  CA  PRO C  65      15.184  -0.988   9.187  1.00 38.90 LIG 0.18  C 
ATOM      5  CB  PRO C  65      16.074  -0.554  10.343  1.00 40.80 LIG 0.04  C 
ATOM      6  CG  PRO C  65      17.361  -1.255  10.077  1.00 42.19 LIG 0.02  C 
ATOM      7  CD  PRO C  65      17.026  -2.558   9.406  1.00 44.37 LIG 0.13  C 
ENDROOT
BRANCH 1 8
ATOM      8  CA  TYR C  64      13.404  -3.282   8.550  1.00 49.73 LIG 0.40  C 
ATOM      9  N   TYR C  64      12.890  -3.749   7.265  1.00 50.52 LIG 0.61  N 
BRANCH 8 10
ATOM     10  CB  TYR C  64      12.810  -4.102   9.702  1.00 50.46 LIG 0.09  C 
BRANCH 10 11
ATOM     11  CG  TYR C  64      11.440  -3.667  10.173  1.00 47.68 LIG-0.06  A 
ATOM     12  CD2 TYR C  64      10.575  -4.579  10.767  1.00 48.34 LIG 0.01  A 
ATOM     13  CE2 TYR C  64       9.320  -4.199  11.202  1.00 49.15 LIG 0.04  A 
ATOM     14  CZ  TYR C  64       8.915  -2.888  11.047  1.00 50.59 LIG 0.07  A 
ATOM     15  CE1 TYR C  64       9.753  -1.960  10.463  1.00 46.73 LIG 0.04  A 
ATOM     16  CD1 TYR C  64      11.009  -2.351  10.030  1.00 46.22 LIG 0.01  A 
BRANCH 14 17
ATOM     17 OH   TYR C  64       7.666  -2.502  11.478  1.00 53.82 LIG-0.36  OA
ATOM     18 HH   TYR C  64       7.096  -2.690  10.890  1.00 53.82 LIG 0.22  HD
ENDBRANCH 14 17
ENDBRANCH 10 11
ENDBRANCH 8 10
ENDBRANCH 1 8
BRANCH 4 19
ATOM     19  C   PRO C  65      15.406  -0.065   7.994  1.00 37.07 LIG 0.24  C 
ATOM     20  N   HIS C  66      14.686  -0.341   6.908  1.00 40.38 LIG-0.35  N 
ATOM     21 H    HIS C  66      14.154  -1.014   6.849  1.00 40.38 LIG 0.16  HD
ATOM     22 O    PRO C  65      16.225   0.868   8.068  1.00 29.28 LIG-0.27  OA
BRANCH 20 23
ATOM     23  CA  HIS C  66      14.735   0.482   5.708  1.00 40.25 LIG 0.17  C 
BRANCH 23 24
ATOM     24  CB  HIS C  66      13.816   1.703   5.855  1.00 42.68 LIG 0.09  C 
BRANCH 24 25
ATOM     25  CG  HIS C  66      14.224   2.644   6.948  1.00 48.80 LIG 0.06  A 
ATOM     26 ND1  HIS C  66      13.651   2.626   8.202  1.00 53.13 LIG-0.24  NA
ATOM     27  CE1 HIS C  66      14.209   3.560   8.952  1.00 55.16 LIG 0.23  A 
ATOM     28 NE2  HIS C  66      15.123   4.184   8.230  1.00 53.86 LIG-0.25  NA
ATOM     29  CD2 HIS C  66      15.151   3.629   6.972  1.00 53.41 LIG 0.14  A 
ENDBRANCH 24 25
ENDBRANCH 23 24
BRANCH 23 30
ATOM     30  C   HIS C  66      16.163   0.939   5.409  1.00 41.89 LIG 0.22  C 
ATOM     31 O    HIS C  66      16.651   0.784   4.287  1.00 44.58 LIG-0.29  OA
ENDBRANCH 23 30
ENDBRANCH 20 23
ENDBRANCH 4 19
TORSDOF 9
ENDMDL
MODEL 38
USER: ADFR SOLUTION from run 65
USER: SCORE 10.080852 LL:  -1.044 LR:  -9.037 RR:   0.000 FEB:  -6.352
USER: RMSD 7.173247
USER: SEED 64
USER: STATUS no improvement in best in 33 clusters for 5 generations
USER: GENES 11
USER: genes 0 Translation |==|  0.72526 0.52919 0.57801
USER: genes 1 Rotation |==|  0.81853 0.15058 0.64206 0.57913
USER: genes 2 Torsion [N]-C--CA-[N] |==|  0.90251
USER: genes 3 Torsion [C]-CA--CB-[CG] |==|  0.30257
USER: genes 4 Torsion [CA]-CB--CG-[CD2] |==|  0.83362
USER: genes 5 Torsion [CE2]-CZ--OH-[HH] |==|  0.21756
USER: genes 6 Torsion [N]-CA--C-[N] |==|  0.66176
USER: genes 7 Torsion [C]-N--CA-[C] |==|  0.78769
USER: genes 8 Torsion [N]-CA--CB-[CG] |==|  0.78421
USER: genes 9 Torsion [CA]-CB--CG-[ND1] |==|  0.53763
USER: genes 10 Torsion [N]-CA--C-[O] |==|  0.98346
ROOT
ATOM      1  C   TYR C  64      16.375  -0.289   8.481  1.00 51.57 LIG 0.26  C 
ATOM      2 O    TYR C  64      16.973   0.376   9.327  1.00 54.62 LIG-0.27  OA
ATOM      3  N   PRO C  65      15.857  -1.499   8.754  1.00 43.10 LIG-0.34  N 
ATOM      4  CA  PRO C  65      15.021  -2.344   7.896  1.00 38.90 LIG 0.18  C 
ATOM      5  CB  PRO C  65      15.521  -3.745   8.222  1.00 40.80 LIG 0.04  C 
ATOM      6  CG  PRO C  65      15.902  -3.655   9.659  1.00 42.19 LIG 0.02  C 
ATOM      7  CD  PRO C  65      16.389  -2.254   9.902  1.00 44.37 LIG 0.13  C 
ENDROOT
BRANCH 1 8
ATOM      8  CA  TYR C  64      16.204   0.253   7.064  1.00 49.73 LIG 0.40  C 
ATOM      9  N   TYR C  64      16.277  -0.856   6.115  1.00 50.52 LIG 0.61  N 
BRANCH 8 10
ATOM     10  CB  TYR C  64      14.853   0.970   6.958  1.00 50.46 LIG 0.09  C 
BRANCH 10 11
ATOM     11  CG  TYR C  64      14.922   2.477   6.844  1.00 47.68 LIG-0.06  A 
ATOM     12  CD2 TYR C  64      15.516   3.234   7.848  1.00 48.34 LIG 0.01  A 
ATOM     13  CE2 TYR C  64      15.587   4.611   7.761  1.00 49.15 LIG 0.04  A 
ATOM     14  CZ  TYR C  64      15.061   5.251   6.657  1.00 50.59 LIG 0.07  A 
ATOM     15  CE1 TYR C  64      14.467   4.525   5.643  1.00 46.73 LIG 0.04  A 
ATOM     16  CD1 TYR C  64      14.401   3.145   5.740  1.00 46.22 LIG 0.01  A 
BRANCH 14 17
ATOM     17 OH   TYR C  64      15.128   6.622   6.564  1.00 53.82 LIG-0.36  OA
ATOM     18 HH   TYR C  64      15.901   6.850   6.327  1.00 53.82 LIG 0.22  HD
ENDBRANCH 14 17
ENDBRANCH 10 11
ENDBRANCH 8 10
ENDBRANCH 1 8
BRANCH 4 19
ATOM     19  C   PRO C  65      13.542  -2.232   8.251  1.00 37.07 LIG 0.24  C 
ATOM     20  N   HIS C  66      12.940  -3.371   8.589  1.00 40.38 LIG-0.35  N 
ATOM     21 H    HIS C  66      13.331  -4.136   8.577  1.00 40.38 LIG 0.16  HD
ATOM     22 O    PRO C  65      12.969  -1.129   8.202  1.00 29.28 LIG-0.27  OA
BRANCH 20 23
ATOM     23  CA  HIS C  66      11.549  -3.423   9.014  1.00 40.25 LIG 0.17  C 
BRANCH 23 24
ATOM     24  CB  HIS C  66      11.001  -4.852   8.889  1.00 42.68 LIG 0.09  C 
BRANCH 24 25
ATOM     25  CG  HIS C  66      10.651  -5.249   7.487  1.00 48.80 LIG 0.06  A 
ATOM     26 ND1  HIS C  66       9.901  -6.368   7.192  1.00 53.13 LIG-0.24  NA
ATOM     27  CE1 HIS C  66       9.751  -6.463   5.883  1.00 55.16 LIG 0.23  A 
ATOM     28 NE2  HIS C  66      10.376  -5.446   5.317  1.00 53.86 LIG-0.25  NA
ATOM     29  CD2 HIS C  66      10.948  -4.672   6.299  1.00 53.41 LIG 0.14  A 
ENDBRANCH 24 25
ENDBRANCH 23 24
BRANCH 23 30
ATOM     30  C   HIS C  66      11.391  -2.930  10.452  1.00 41.89 LIG 0.22  C 
ATOM     31 O    HIS C  66      12.380  -2.657  11.136  1.00 44.58 LIG-0.29  OA
ENDBRANCH 23 30
ENDBRANCH 20 23
ENDBRANCH 4 19
TORSDOF 9
ENDMDL
MODEL 39
USER: ADFR SOLUTION from run 132
USER: SCORE 10.124629 LL:  -1.097 LR:  -9.028 RR:   0.000 FEB:  -6.343
USER: RMSD 2.887765
USER: SEED 131
USER: STATUS no improvement in best in 19 clusters for 5 generations
USER: GENES 11
USER: genes 0 Translation |==|  0.65750 0.34738 0.62075
USER: genes 1 Rotation |==|  0.16188 0.38317 0.59049 0.83740
USER: genes 2 Torsion [N]-C--CA-[N] |==|  0.22789
USER: genes 3 Torsion [C]-CA--CB-[CG] |==|  0.36027
USER: genes 4 Torsion [CA]-CB--CG-[CD2] |==|  0.43595
USER: genes 5 Torsion [CE2]-CZ--OH-[HH] |==|  0.75401
USER: genes 6 Torsion [N]-CA--C-[N] |==|  0.47200
USER: genes 7 Torsion [C]-N--CA-[C] |==|  0.60613
USER: genes 8 Torsion [N]-CA--CB-[CG] |==|  0.54481
USER: genes 9 Torsion [CA]-CB--CG-[ND1] |==|  0.47252
USER: genes 10 Torsion [N]-CA--C-[O] |==|  0.34108
ROOT
ATOM      1  C   TYR C  64      15.104  -3.153   9.251  1.00 51.57 LIG 0.26  C 
ATOM      2 O    TYR C  64      15.500  -4.048   9.997  1.00 54.62 LIG-0.27  OA
ATOM      3  N   PRO C  65      15.880  -2.112   8.904  1.00 43.10 LIG-0.34  N 
ATOM      4  CA  PRO C  65      15.593  -1.047   7.938  1.00 38.90 LIG 0.18  C 
ATOM      5  CB  PRO C  65      16.211   0.177   8.599  1.00 40.80 LIG 0.04  C 
ATOM      6  CG  PRO C  65      17.388  -0.374   9.327  1.00 42.19 LIG 0.02  C 
ATOM      7  CD  PRO C  65      17.027  -1.767   9.763  1.00 44.37 LIG 0.13  C 
ENDROOT
BRANCH 1 8
ATOM      8  CA  TYR C  64      13.685  -3.200   8.687  1.00 49.73 LIG 0.40  C 
ATOM      9  N   TYR C  64      13.725  -3.749   7.334  1.00 50.52 LIG 0.61  N 
BRANCH 8 10
ATOM     10  CB  TYR C  64      12.809  -4.067   9.599  1.00 50.46 LIG 0.09  C 
BRANCH 10 11
ATOM     11  CG  TYR C  64      11.500  -3.444  10.030  1.00 47.68 LIG-0.06  A 
ATOM     12  CD2 TYR C  64      10.436  -4.244  10.431  1.00 48.34 LIG 0.01  A 
ATOM     13  CE2 TYR C  64       9.232  -3.690  10.827  1.00 49.15 LIG 0.04  A 
ATOM     14  CZ  TYR C  64       9.082  -2.318  10.827  1.00 50.59 LIG 0.07  A 
ATOM     15  CE1 TYR C  64      10.122  -1.499  10.436  1.00 46.73 LIG 0.04  A 
ATOM     16  CD1 TYR C  64      11.324  -2.063  10.041  1.00 46.22 LIG 0.01  A 
BRANCH 14 17
ATOM     17 OH   TYR C  64       7.887  -1.761  11.220  1.00 53.82 LIG-0.36  OA
ATOM     18 HH   TYR C  64       7.377  -1.694  10.555  1.00 53.82 LIG 0.22  HD
ENDBRANCH 14 17
ENDBRANCH 10 11
ENDBRANCH 8 10
ENDBRANCH 1 8
BRANCH 4 19
ATOM     19  C   PRO C  65      16.269  -1.299   6.594  1.00 37.07 LIG 0.24  C 
ATOM     20  N   HIS C  66      15.895  -0.496   5.599  1.00 40.38 LIG-0.35  N 
ATOM     21 H    HIS C  66      15.287   0.107   5.678  1.00 40.38 LIG 0.16  HD
ATOM     22 O    PRO C  65      17.101  -2.215   6.474  1.00 29.28 LIG-0.27  OA
BRANCH 20 23
ATOM     23  CA  HIS C  66      16.490  -0.565   4.273  1.00 40.25 LIG 0.17  C 
BRANCH 23 24
ATOM     24  CB  HIS C  66      15.630  -1.432   3.342  1.00 42.68 LIG 0.09  C 
BRANCH 24 25
ATOM     25  CG  HIS C  66      16.337  -1.873   2.096  1.00 48.80 LIG 0.06  A 
ATOM     26 ND1  HIS C  66      15.814  -2.812   1.232  1.00 53.13 LIG-0.24  NA
ATOM     27  CE1 HIS C  66      16.651  -2.997   0.227  1.00 55.16 LIG 0.23  A 
ATOM     28 NE2  HIS C  66      17.699  -2.212   0.407  1.00 53.86 LIG-0.25  NA
ATOM     29  CD2 HIS C  66      17.527  -1.499   1.570  1.00 53.41 LIG 0.14  A 
ENDBRANCH 24 25
ENDBRANCH 23 24
BRANCH 23 30
ATOM     30  C   HIS C  66      16.664   0.829   3.671  1.00 41.89 LIG 0.22  C 
ATOM     31 O    HIS C  66      17.776   1.225   3.311  1.00 44.58 LIG-0.29  OA
ENDBRANCH 23 30
ENDBRANCH 20 23
ENDBRANCH 4 19
TORSDOF 9
ENDMDL
MODEL 40
USER: ADFR SOLUTION from run 112
USER: SCORE 10.692482 LL:  -1.673 LR:  -9.020 RR:   0.000 FEB:  -6.335
USER: RMSD 7.626691
USER: SEED 111
USER: STATUS no improvement in best in 37 clusters for 5 generations
USER: GENES 11
USER: genes 0 Translation |==|  0.65440 0.43460 0.46691
USER: genes 1 Rotation |==|  0.87108 0.47037 0.78132 0.67965
USER: genes 2 Torsion [N]-C--CA-[N] |==|  0.19489
USER: genes 3 Torsion [C]-CA--CB-[CG] |==|  0.21613
USER: genes 4 Torsion [CA]-CB--CG-[CD2] |==|  0.35143
USER: genes 5 Torsion [CE2]-CZ--OH-[HH] |==|  0.94267
USER: genes 6 Torsion [N]-CA--C-[N] |==|  0.03491
USER: genes 7 Torsion [C]-N--CA-[C] |==|  0.69420
USER: genes 8 Torsion [N]-CA--CB-[CG] |==|  0.24630
USER: genes 9 Torsion [CA]-CB--CG-[ND1] |==|  0.33336
USER: genes 10 Torsion [N]-CA--C-[O] |==|  0.93246
ROOT
ATOM      1  C   TYR C  64      15.046  -1.779   6.481  1.00 51.57 LIG 0.26  C 
ATOM      2 O    TYR C  64      14.586  -0.690   6.138  1.00 54.62 LIG-0.27  OA
ATOM      3  N   PRO C  65      15.615  -1.971   7.683  1.00 43.10 LIG-0.34  N 
ATOM      4  CA  PRO C  65      16.090  -3.226   8.274  1.00 38.90 LIG 0.18  C 
ATOM      5  CB  PRO C  65      17.345  -2.790   9.017  1.00 40.80 LIG 0.04  C 
ATOM      6  CG  PRO C  65      17.024  -1.406   9.463  1.00 42.19 LIG 0.02  C 
ATOM      7  CD  PRO C  65      16.125  -0.801   8.420  1.00 44.37 LIG 0.13  C 
ENDROOT
BRANCH 1 8
ATOM      8  CA  TYR C  64      14.984  -2.969   5.526  1.00 49.73 LIG 0.40  C 
ATOM      9  N   TYR C  64      14.026  -3.946   6.039  1.00 50.52 LIG 0.61  N 
BRANCH 8 10
ATOM     10  CB  TYR C  64      14.567  -2.478   4.135  1.00 50.46 LIG 0.09  C 
BRANCH 10 11
ATOM     11  CG  TYR C  64      15.657  -1.810   3.325  1.00 47.68 LIG-0.06  A 
ATOM     12  CD2 TYR C  64      15.950  -2.249   2.039  1.00 48.34 LIG 0.01  A 
ATOM     13  CE2 TYR C  64      16.943  -1.651   1.286  1.00 49.15 LIG 0.04  A 
ATOM     14  CZ  TYR C  64      17.659  -0.597   1.819  1.00 50.59 LIG 0.07  A 
ATOM     15  CE1 TYR C  64      17.389  -0.140   3.093  1.00 46.73 LIG 0.04  A 
ATOM     16  CD1 TYR C  64      16.391  -0.745   3.839  1.00 46.22 LIG 0.01  A 
BRANCH 14 17
ATOM     17 OH   TYR C  64      18.649   0.002   1.075  1.00 53.82 LIG-0.36  OA
ATOM     18 HH   TYR C  64      18.901  -0.522   0.468  1.00 53.82 LIG 0.22  HD
ENDBRANCH 14 17
ENDBRANCH 10 11
ENDBRANCH 8 10
ENDBRANCH 1 8
BRANCH 4 19
ATOM     19  C   PRO C  65      15.084  -3.809   9.262  1.00 37.07 LIG 0.24  C 
ATOM     20  N   HIS C  66      13.870  -3.263   9.240  1.00 40.38 LIG-0.35  N 
ATOM     21 H    HIS C  66      13.656  -2.599   8.737  1.00 40.38 LIG 0.16  HD
ATOM     22 O    PRO C  65      15.422  -4.727  10.030  1.00 29.28 LIG-0.27  OA
BRANCH 20 23
ATOM     23  CA  HIS C  66      12.780  -3.747  10.075  1.00 40.25 LIG 0.17  C 
BRANCH 23 24
ATOM     24  CB  HIS C  66      12.157  -2.591  10.871  1.00 42.68 LIG 0.09  C 
BRANCH 24 25
ATOM     25  CG  HIS C  66      11.048  -1.886  10.152  1.00 48.80 LIG 0.06  A 
ATOM     26 ND1  HIS C  66       9.763  -1.813  10.648  1.00 53.13 LIG-0.24  NA
ATOM     27  CE1 HIS C  66       9.006  -1.132   9.805  1.00 55.16 LIG 0.23  A 
ATOM     28 NE2  HIS C  66       9.752  -0.760   8.781  1.00 53.86 LIG-0.25  NA
ATOM     29  CD2 HIS C  66      11.034  -1.221   8.973  1.00 53.41 LIG 0.14  A 
ENDBRANCH 24 25
ENDBRANCH 23 24
BRANCH 23 30
ATOM     30  C   HIS C  66      11.706  -4.439   9.237  1.00 41.89 LIG 0.22  C 
ATOM     31 O    HIS C  66      11.568  -4.167   8.041  1.00 44.58 LIG-0.29  OA
ENDBRANCH 23 30
ENDBRANCH 20 23
ENDBRANCH 4 19
TORSDOF 9
ENDMDL
MODEL 41
USER: ADFR SOLUTION from run 199
USER: SCORE 10.474695 LL:  -1.466 LR:  -9.008 RR:   0.000 FEB:  -6.324
USER: RMSD 5.263103
USER: SEED 198
USER: STATUS no improvement in best in 51 clusters for 5 generations
USER: GENES 11
USER: genes 0 Translation |==|  0.51470 0.36078 0.67330
USER: genes 1 Rotation |==|  0.34550 0.08820 0.71695 0.59736
USER: genes 2 Torsion [N]-C--CA-[N] |==|  0.07774
USER: genes 3 Torsion [C]-CA--CB-[CG] |==|  0.83473
USER: genes 4 Torsion [CA]-CB--CG-[CD2] |==|  0.74245
USER: genes 5 Torsion [CE2]-CZ--OH-[HH] |==|  0.75054
USER: genes 6 Torsion [N]-CA--C-[N] |==|  0.07694
USER: genes 7 Torsion [C]-N--CA-[C] |==|  0.20842
USER: genes 8 Torsion [N]-CA--CB-[CG] |==|  0.81384
USER: genes 9 Torsion [CA]-CB--CG-[ND1] |==|  0.15751
USER: genes 10 Torsion [N]-CA--C-[O] |==|  0.27296
ROOT
ATOM      1  C   TYR C  64      12.427  -2.942  10.196  1.00 51.57 LIG 0.26  C 
ATOM      2 O    TYR C  64      12.844  -2.759  11.340  1.00 54.62 LIG-0.27  OA
ATOM      3  N   PRO C  65      11.434  -2.205   9.668  1.00 43.10 LIG-0.34  N 
ATOM      4  CA  PRO C  65      10.921  -2.224   8.295  1.00 38.90 LIG 0.18  C 
ATOM      5  CB  PRO C  65       9.425  -2.025   8.497  1.00 40.80 LIG 0.04  C 
ATOM      6  CG  PRO C  65       9.347  -1.149   9.700  1.00 42.19 LIG 0.02  C 
ATOM      7  CD  PRO C  65      10.516  -1.499  10.579  1.00 44.37 LIG 0.13  C 
ENDROOT
BRANCH 1 8
ATOM      8  CA  TYR C  64      13.037  -4.039   9.327  1.00 49.73 LIG 0.40  C 
ATOM      9  N   TYR C  64      12.902  -3.666   7.921  1.00 50.52 LIG 0.61  N 
BRANCH 8 10
ATOM     10  CB  TYR C  64      14.513  -4.217   9.702  1.00 50.46 LIG 0.09  C 
BRANCH 10 11
ATOM     11  CG  TYR C  64      15.381  -2.989   9.534  1.00 47.68 LIG-0.06  A 
ATOM     12  CD2 TYR C  64      16.076  -2.773   8.350  1.00 48.34 LIG 0.01  A 
ATOM     13  CE2 TYR C  64      16.874  -1.657   8.180  1.00 49.15 LIG 0.04  A 
ATOM     14  CZ  TYR C  64      16.983  -0.737   9.204  1.00 50.59 LIG 0.07  A 
ATOM     15  CE1 TYR C  64      16.303  -0.925  10.391  1.00 46.73 LIG 0.04  A 
ATOM     16  CD1 TYR C  64      15.506  -2.046  10.550  1.00 46.22 LIG 0.01  A 
BRANCH 14 17
ATOM     17 OH   TYR C  64      17.776   0.376   9.042  1.00 53.82 LIG-0.36  OA
ATOM     18 HH   TYR C  64      18.558   0.204   9.298  1.00 53.82 LIG 0.22  HD
ENDBRANCH 14 17
ENDBRANCH 10 11
ENDBRANCH 8 10
ENDBRANCH 1 8
BRANCH 4 19
ATOM     19  C   PRO C  65      11.483  -1.077   7.461  1.00 37.07 LIG 0.24  C 
ATOM     20  N   HIS C  66      12.682  -0.630   7.827  1.00 40.38 LIG-0.35  N 
ATOM     21 H    HIS C  66      13.112  -0.927   8.509  1.00 40.38 LIG 0.16  HD
ATOM     22 O    PRO C  65      10.824  -0.612   6.514  1.00 29.28 LIG-0.27  OA
BRANCH 20 23
ATOM     23  CA  HIS C  66      13.383   0.416   7.095  1.00 40.25 LIG 0.17  C 
BRANCH 23 24
ATOM     24  CB  HIS C  66      13.358   0.127   5.587  1.00 42.68 LIG 0.09  C 
BRANCH 24 25
ATOM     25  CG  HIS C  66      14.147  -1.083   5.187  1.00 48.80 LIG 0.06  A 
ATOM     26 ND1  HIS C  66      13.914  -2.336   5.713  1.00 53.13 LIG-0.24  NA
ATOM     27  CE1 HIS C  66      14.755  -3.201   5.175  1.00 55.16 LIG 0.23  A 
ATOM     28 NE2  HIS C  66      15.526  -2.555   4.318  1.00 53.86 LIG-0.25  NA
ATOM     29  CD2 HIS C  66      15.166  -1.228   4.308  1.00 53.41 LIG 0.14  A 
ENDBRANCH 24 25
ENDBRANCH 23 24
BRANCH 23 30
ATOM     30  C   HIS C  66      12.771   1.789   7.371  1.00 41.89 LIG 0.22  C 
ATOM     31 O    HIS C  66      13.276   2.548   8.202  1.00 44.58 LIG-0.29  OA
ENDBRANCH 23 30
ENDBRANCH 20 23
ENDBRANCH 4 19
TORSDOF 9
ENDMDL
MODEL 42
USER: ADFR SOLUTION from run 30
USER: SCORE 10.658216 LL:  -1.651 LR:  -9.007 RR:   0.000 FEB:  -6.323
USER: RMSD 4.565555
USER: SEED 29
USER: STATUS no improvement in best in 27 clusters for 5 generations
USER: GENES 11
USER: genes 0 Translation |==|  0.76000 0.52802 0.55513
USER: genes 1 Rotation |==|  0.28334 0.21617 0.83519 0.60074
USER: genes 2 Torsion [N]-C--CA-[N] |==|  0.32516
USER: genes 3 Torsion [C]-CA--CB-[CG] |==|  0.22805
USER: genes 4 Torsion [CA]-CB--CG-[CD2] |==|  0.13380
USER: genes 5 Torsion [CE2]-CZ--OH-[HH] |==|  0.02765
USER: genes 6 Torsion [N]-CA--C-[N] |==|  0.91766
USER: genes 7 Torsion [C]-N--CA-[C] |==|  0.19559
USER: genes 8 Torsion [N]-CA--CB-[CG] |==|  0.32957
USER: genes 9 Torsion [CA]-CB--CG-[ND1] |==|  0.20829
USER: genes 10 Torsion [N]-CA--C-[O] |==|  0.32470
ROOT
ATOM      1  C   TYR C  64      17.026  -0.308   8.069  1.00 51.57 LIG 0.26  C 
ATOM      2 O    TYR C  64      17.724   0.376   8.819  1.00 54.62 LIG-0.27  OA
ATOM      3  N   PRO C  65      16.115   0.235   7.243  1.00 43.10 LIG-0.34  N 
ATOM      4  CA  PRO C  65      15.308  -0.432   6.217  1.00 38.90 LIG 0.18  C 
ATOM      5  CB  PRO C  65      13.974   0.294   6.320  1.00 40.80 LIG 0.04  C 
ATOM      6  CG  PRO C  65      14.359   1.682   6.701  1.00 42.19 LIG 0.02  C 
ATOM      7  CD  PRO C  65      15.599   1.581   7.546  1.00 44.37 LIG 0.13  C 
ENDROOT
BRANCH 1 8
ATOM      8  CA  TYR C  64      17.177  -1.827   8.060  1.00 49.73 LIG 0.40  C 
ATOM      9  N   TYR C  64      18.525  -2.172   7.614  1.00 50.52 LIG 0.61  N 
BRANCH 8 10
ATOM     10  CB  TYR C  64      16.918  -2.368   9.472  1.00 50.46 LIG 0.09  C 
BRANCH 10 11
ATOM     11  CG  TYR C  64      15.462  -2.553   9.841  1.00 47.68 LIG-0.06  A 
ATOM     12  CD2 TYR C  64      14.592  -3.207   8.977  1.00 48.34 LIG 0.01  A 
ATOM     13  CE2 TYR C  64      13.259  -3.383   9.299  1.00 49.15 LIG 0.04  A 
ATOM     14  CZ  TYR C  64      12.781  -2.902  10.500  1.00 50.59 LIG 0.07  A 
ATOM     15  CE1 TYR C  64      13.622  -2.249  11.379  1.00 46.73 LIG 0.04  A 
ATOM     16  CD1 TYR C  64      14.956  -2.078  11.048  1.00 46.22 LIG 0.01  A 
BRANCH 14 17
ATOM     17 OH   TYR C  64      11.455  -3.073  10.827  1.00 53.82 LIG-0.36  OA
ATOM     18 HH   TYR C  64      11.095  -3.597  10.276  1.00 53.82 LIG 0.22  HD
ENDBRANCH 14 17
ENDBRANCH 10 11
ENDBRANCH 8 10
ENDBRANCH 1 8
BRANCH 4 19
ATOM     19  C   PRO C  65      15.890  -0.241   4.820  1.00 37.07 LIG 0.24  C 
ATOM     20  N   HIS C  66      16.568   0.888   4.625  1.00 40.38 LIG-0.35  N 
ATOM     21 H    HIS C  66      16.651   1.501   5.222  1.00 40.38 LIG 0.16  HD
ATOM     22 O    PRO C  65      15.709  -1.106   3.944  1.00 29.28 LIG-0.27  OA
BRANCH 20 23
ATOM     23  CA  HIS C  66      17.237   1.191   3.369  1.00 40.25 LIG 0.17  C 
BRANCH 23 24
ATOM     24  CB  HIS C  66      18.151   0.029   2.952  1.00 42.68 LIG 0.09  C 
BRANCH 24 25
ATOM     25  CG  HIS C  66      17.778  -0.598   1.643  1.00 48.80 LIG 0.06  A 
ATOM     26 ND1  HIS C  66      18.034   0.001   0.427  1.00 53.13 LIG-0.24  NA
ATOM     27  CE1 HIS C  66      17.600  -0.780  -0.546  1.00 55.16 LIG 0.23  A 
ATOM     28 NE2  HIS C  66      17.071  -1.865  -0.006  1.00 53.86 LIG-0.25  NA
ATOM     29  CD2 HIS C  66      17.170  -1.774   1.363  1.00 53.41 LIG 0.14  A 
ENDBRANCH 24 25
ENDBRANCH 23 24
BRANCH 23 30
ATOM     30  C   HIS C  66      16.227   1.481   2.259  1.00 41.89 LIG 0.22  C 
ATOM     31 O    HIS C  66      16.183   2.590   1.722  1.00 44.58 LIG-0.29  OA
ENDBRANCH 23 30
ENDBRANCH 20 23
ENDBRANCH 4 19
TORSDOF 9
ENDMDL
MODEL 43
USER: ADFR SOLUTION from run 186
USER: SCORE 10.726083 LL:  -1.713 LR:  -9.013 RR:   0.000 FEB:  -6.328
USER: RMSD 5.250846
USER: SEED 185
USER: STATUS no improvement in best in 28 clusters for 5 generations
USER: GENES 11
USER: genes 0 Translation |==|  0.78248 0.45454 0.53485
USER: genes 1 Rotation |==|  0.31212 0.17995 0.82237 0.59136
USER: genes 2 Torsion [N]-C--CA-[N] |==|  0.36303
USER: genes 3 Torsion [C]-CA--CB-[CG] |==|  0.10831
USER: genes 4 Torsion [CA]-CB--CG-[CD2] |==|  0.21944
USER: genes 5 Torsion [CE2]-CZ--OH-[HH] |==|  0.71243
USER: genes 6 Torsion [N]-CA--C-[N] |==|  0.45802
USER: genes 7 Torsion [C]-N--CA-[C] |==|  0.85301
USER: genes 8 Torsion [N]-CA--CB-[CG] |==|  0.64922
USER: genes 9 Torsion [CA]-CB--CG-[ND1] |==|  0.41852
USER: genes 10 Torsion [N]-CA--C-[O] |==|  0.34876
ROOT
ATOM      1  C   TYR C  64      17.448  -1.465   7.704  1.00 51.57 LIG 0.26  C 
ATOM      2 O    TYR C  64      18.052  -0.794   8.541  1.00 54.62 LIG-0.27  OA
ATOM      3  N   PRO C  65      16.458  -0.954   6.953  1.00 43.10 LIG-0.34  N 
ATOM      4  CA  PRO C  65      15.739  -1.587   5.843  1.00 38.90 LIG 0.18  C 
ATOM      5  CB  PRO C  65      14.317  -1.078   6.035  1.00 40.80 LIG 0.04  C 
ATOM      6  CG  PRO C  65      14.506   0.287   6.599  1.00 42.19 LIG 0.02  C 
ATOM      7  CD  PRO C  65      15.760   0.254   7.429  1.00 44.37 LIG 0.13  C 
ENDROOT
BRANCH 1 8
ATOM      8  CA  TYR C  64      17.813  -2.933   7.494  1.00 49.73 LIG 0.40  C 
ATOM      9  N   TYR C  64      19.260  -3.048   7.332  1.00 50.52 LIG 0.61  N 
BRANCH 8 10
ATOM     10  CB  TYR C  64      17.336  -3.749   8.702  1.00 50.46 LIG 0.09  C 
BRANCH 10 11
ATOM     11  CG  TYR C  64      15.994  -3.345   9.272  1.00 47.68 LIG-0.06  A 
ATOM     12  CD2 TYR C  64      14.815  -3.749   8.657  1.00 48.34 LIG 0.01  A 
ATOM     13  CE2 TYR C  64      13.581  -3.388   9.164  1.00 49.15 LIG 0.04  A 
ATOM     14  CZ  TYR C  64      13.515  -2.612  10.304  1.00 50.59 LIG 0.07  A 
ATOM     15  CE1 TYR C  64      14.670  -2.197  10.937  1.00 46.73 LIG 0.04  A 
ATOM     16  CD1 TYR C  64      15.901  -2.565  10.421  1.00 46.22 LIG 0.01  A 
BRANCH 14 17
ATOM     17 OH   TYR C  64      12.289  -2.249  10.814  1.00 53.82 LIG-0.36  OA
ATOM     18 HH   TYR C  64      12.133  -1.445  10.622  1.00 53.82 LIG 0.22  HD
ENDBRANCH 14 17
ENDBRANCH 10 11
ENDBRANCH 8 10
ENDBRANCH 1 8
BRANCH 4 19
ATOM     19  C   PRO C  65      16.268  -1.132   4.487  1.00 37.07 LIG 0.24  C 
ATOM     20  N   HIS C  66      15.900  -1.875   3.444  1.00 40.38 LIG-0.35  N 
ATOM     21 H    HIS C  66      15.427  -2.589   3.513  1.00 40.38 LIG 0.16  HD
ATOM     22 O    PRO C  65      17.005  -0.133   4.406  1.00 29.28 LIG-0.27  OA
BRANCH 20 23
ATOM     23  CA  HIS C  66      16.269  -1.539   2.077  1.00 40.25 LIG 0.17  C 
BRANCH 23 24
ATOM     24  CB  HIS C  66      15.605  -2.506   1.087  1.00 42.68 LIG 0.09  C 
BRANCH 24 25
ATOM     25  CG  HIS C  66      16.566  -3.170   0.148  1.00 48.80 LIG 0.06  A 
ATOM     26 ND1  HIS C  66      16.348  -4.424  -0.382  1.00 53.13 LIG-0.24  NA
ATOM     27  CE1 HIS C  66      17.355  -4.748  -1.173  1.00 55.16 LIG 0.23  A 
ATOM     28 NE2  HIS C  66      18.221  -3.749  -1.175  1.00 53.86 LIG-0.25  NA
ATOM     29  CD2 HIS C  66      17.750  -2.750  -0.356  1.00 53.41 LIG 0.14  A 
ENDBRANCH 24 25
ENDBRANCH 23 24
BRANCH 23 30
ATOM     30  C   HIS C  66      15.881  -0.100   1.737  1.00 41.89 LIG 0.22  C 
ATOM     31 O    HIS C  66      16.720   0.693   1.304  1.00 44.58 LIG-0.29  OA
ENDBRANCH 23 30
ENDBRANCH 20 23
ENDBRANCH 4 19
TORSDOF 9
ENDMDL
MODEL 44
USER: ADFR SOLUTION from run 104
USER: SCORE 10.732051 LL:  -1.776 LR:  -8.956 RR:   0.000 FEB:  -6.272
USER: RMSD 6.907156
USER: SEED 103
USER: STATUS no improvement in best in 25 clusters for 5 generations
USER: GENES 11
USER: genes 0 Translation |==|  0.73361 0.53367 0.58338
USER: genes 1 Rotation |==|  0.90363 0.22024 0.48434 0.59259
USER: genes 2 Torsion [N]-C--CA-[N] |==|  0.48095
USER: genes 3 Torsion [C]-CA--CB-[CG] |==|  0.29654
USER: genes 4 Torsion [CA]-CB--CG-[CD2] |==|  0.10728
USER: genes 5 Torsion [CE2]-CZ--OH-[HH] |==|  0.69219
USER: genes 6 Torsion [N]-CA--C-[N] |==|  0.24030
USER: genes 7 Torsion [C]-N--CA-[C] |==|  0.20272
USER: genes 8 Torsion [N]-CA--CB-[CG] |==|  0.50668
USER: genes 9 Torsion [CA]-CB--CG-[ND1] |==|  0.15763
USER: genes 10 Torsion [N]-CA--C-[O] |==|  0.00743
ROOT
ATOM      1  C   TYR C  64      16.531  -0.219   8.578  1.00 51.57 LIG 0.26  C 
ATOM      2 O    TYR C  64      17.393   0.376   9.225  1.00 54.62 LIG-0.27  OA
ATOM      3  N   PRO C  65      16.488  -1.560   8.501  1.00 43.10 LIG-0.34  N 
ATOM      4  CA  PRO C  65      15.463  -2.402   7.879  1.00 38.90 LIG 0.18  C 
ATOM      5  CB  PRO C  65      16.284  -3.530   7.270  1.00 40.80 LIG 0.04  C 
ATOM      6  CG  PRO C  65      17.423  -3.685   8.218  1.00 42.19 LIG 0.02  C 
ATOM      7  CD  PRO C  65      17.716  -2.324   8.784  1.00 44.37 LIG 0.13  C 
ENDROOT
BRANCH 1 8
ATOM      8  CA  TYR C  64      15.464   0.570   7.823  1.00 49.73 LIG 0.40  C 
ATOM      9  N   TYR C  64      15.584   1.986   8.163  1.00 50.52 LIG 0.61  N 
BRANCH 8 10
ATOM     10  CB  TYR C  64      15.650   0.356   6.316  1.00 50.46 LIG 0.09  C 
BRANCH 10 11
ATOM     11  CG  TYR C  64      14.624  -0.535   5.652  1.00 47.68 LIG-0.06  A 
ATOM     12  CD2 TYR C  64      13.286  -0.472   6.027  1.00 48.34 LIG 0.01  A 
ATOM     13  CE2 TYR C  64      12.336  -1.279   5.432  1.00 49.15 LIG 0.04  A 
ATOM     14  CZ  TYR C  64      12.717  -2.165   4.445  1.00 50.59 LIG 0.07  A 
ATOM     15  CE1 TYR C  64      14.038  -2.248   4.050  1.00 46.73 LIG 0.04  A 
ATOM     16  CD1 TYR C  64      14.983  -1.434   4.653  1.00 46.22 LIG 0.01  A 
BRANCH 14 17
ATOM     17 OH   TYR C  64      11.776  -2.972   3.848  1.00 53.82 LIG-0.36  OA
ATOM     18 HH   TYR C  64      11.905  -3.770   4.077  1.00 53.82 LIG 0.22  HD
ENDBRANCH 14 17
ENDBRANCH 10 11
ENDBRANCH 8 10
ENDBRANCH 1 8
BRANCH 4 19
ATOM     19  C   PRO C  65      14.491  -2.972   8.908  1.00 37.07 LIG 0.24  C 
ATOM     20  N   HIS C  66      13.454  -2.195   9.216  1.00 40.38 LIG-0.35  N 
ATOM     21 H    HIS C  66      13.341  -1.405   8.896  1.00 40.38 LIG 0.16  HD
ATOM     22 O    PRO C  65      14.698  -4.090   9.411  1.00 29.28 LIG-0.27  OA
BRANCH 20 23
ATOM     23  CA  HIS C  66      12.405  -2.619  10.131  1.00 40.25 LIG 0.17  C 
BRANCH 23 24
ATOM     24  CB  HIS C  66      11.891  -4.015   9.751  1.00 42.68 LIG 0.09  C 
BRANCH 24 25
ATOM     25  CG  HIS C  66      10.766  -4.504  10.612  1.00 48.80 LIG 0.06  A 
ATOM     26 ND1  HIS C  66       9.586  -3.808  10.768  1.00 53.13 LIG-0.24  NA
ATOM     27  CE1 HIS C  66       8.785  -4.478  11.577  1.00 55.16 LIG 0.23  A 
ATOM     28 NE2  HIS C  66       9.401  -5.585  11.952  1.00 53.86 LIG-0.25  NA
ATOM     29  CD2 HIS C  66      10.643  -5.624  11.363  1.00 53.41 LIG 0.14  A 
ENDBRANCH 24 25
ENDBRANCH 23 24
BRANCH 23 30
ATOM     30  C   HIS C  66      12.901  -2.624  11.577  1.00 41.89 LIG 0.22  C 
ATOM     31 O    HIS C  66      14.044  -2.249  11.852  1.00 44.58 LIG-0.29  OA
ENDBRANCH 23 30
ENDBRANCH 20 23
ENDBRANCH 4 19
TORSDOF 9
ENDMDL
MODEL 45
USER: ADFR SOLUTION from run 79
USER: SCORE 10.765745 LL:  -1.820 LR:  -8.946 RR:   0.000 FEB:  -6.261
USER: RMSD 5.598062
USER: SEED 78
USER: STATUS no improvement in best in 18 clusters for 5 generations
USER: GENES 11
USER: genes 0 Translation |==|  0.67987 0.41956 0.30739
USER: genes 1 Rotation |==|  0.46937 0.69200 0.67092 0.92776
USER: genes 2 Torsion [N]-C--CA-[N] |==|  0.49234
USER: genes 3 Torsion [C]-CA--CB-[CG] |==|  0.46426
USER: genes 4 Torsion [CA]-CB--CG-[CD2] |==|  0.67954
USER: genes 5 Torsion [CE2]-CZ--OH-[HH] |==|  0.21344
USER: genes 6 Torsion [N]-CA--C-[N] |==|  0.46697
USER: genes 7 Torsion [C]-N--CA-[C] |==|  0.76682
USER: genes 8 Torsion [N]-CA--CB-[CG] |==|  0.93627
USER: genes 9 Torsion [CA]-CB--CG-[ND1] |==|  0.26693
USER: genes 10 Torsion [N]-CA--C-[O] |==|  0.98566
ROOT
ATOM      1  C   TYR C  64      15.524  -2.016   3.610  1.00 51.57 LIG 0.26  C 
ATOM      2 O    TYR C  64      15.327  -2.999   2.895  1.00 54.62 LIG-0.27  OA
ATOM      3  N   PRO C  65      16.090  -0.891   3.143  1.00 43.10 LIG-0.34  N 
ATOM      4  CA  PRO C  65      16.274   0.389   3.833  1.00 38.90 LIG 0.18  C 
ATOM      5  CB  PRO C  65      17.634   0.848   3.327  1.00 40.80 LIG 0.04  C 
ATOM      6  CG  PRO C  65      17.686   0.321   1.935  1.00 42.19 LIG 0.02  C 
ATOM      7  CD  PRO C  65      16.908  -0.966   1.919  1.00 44.37 LIG 0.13  C 
ENDROOT
BRANCH 1 8
ATOM      8  CA  TYR C  64      15.124  -2.051   5.083  1.00 49.73 LIG 0.40  C 
ATOM      9  N   TYR C  64      14.471  -3.325   5.373  1.00 50.52 LIG 0.61  N 
BRANCH 8 10
ATOM     10  CB  TYR C  64      16.376  -1.873   5.950  1.00 50.46 LIG 0.09  C 
BRANCH 10 11
ATOM     11  CG  TYR C  64      16.120  -1.582   7.413  1.00 47.68 LIG-0.06  A 
ATOM     12  CD2 TYR C  64      16.503  -0.366   7.967  1.00 48.34 LIG 0.01  A 
ATOM     13  CE2 TYR C  64      16.278  -0.084   9.302  1.00 49.15 LIG 0.04  A 
ATOM     14  CZ  TYR C  64      15.661  -1.024  10.101  1.00 50.59 LIG 0.07  A 
ATOM     15  CE1 TYR C  64      15.269  -2.240   9.577  1.00 46.73 LIG 0.04  A 
ATOM     16  CD1 TYR C  64      15.498  -2.513   8.239  1.00 46.22 LIG 0.01  A 
BRANCH 14 17
ATOM     17 OH   TYR C  64      15.434  -0.750  11.430  1.00 53.82 LIG-0.36  OA
ATOM     18 HH   TYR C  64      14.776  -0.233  11.502  1.00 53.82 LIG 0.22  HD
ENDBRANCH 14 17
ENDBRANCH 10 11
ENDBRANCH 8 10
ENDBRANCH 1 8
BRANCH 4 19
ATOM     19  C   PRO C  65      15.209   1.408   3.440  1.00 37.07 LIG 0.24  C 
ATOM     20  N   HIS C  66      15.151   2.504   4.195  1.00 40.38 LIG-0.35  N 
ATOM     21 H    HIS C  66      15.646   2.631   4.886  1.00 40.38 LIG 0.16  HD
ATOM     22 O    PRO C  65      14.455   1.185   2.476  1.00 29.28 LIG-0.27  OA
BRANCH 20 23
ATOM     23  CA  HIS C  66      14.234   3.598   3.913  1.00 40.25 LIG 0.17  C 
BRANCH 23 24
ATOM     24  CB  HIS C  66      13.903   4.368   5.200  1.00 42.68 LIG 0.09  C 
BRANCH 24 25
ATOM     25  CG  HIS C  66      14.105   3.573   6.454  1.00 48.80 LIG 0.06  A 
ATOM     26 ND1  HIS C  66      15.259   3.642   7.205  1.00 53.13 LIG-0.24  NA
ATOM     27  CE1 HIS C  66      15.151   2.838   8.249  1.00 55.16 LIG 0.23  A 
ATOM     28 NE2  HIS C  66      13.969   2.250   8.202  1.00 53.86 LIG-0.25  NA
ATOM     29  CD2 HIS C  66      13.296   2.693   7.087  1.00 53.41 LIG 0.14  A 
ENDBRANCH 24 25
ENDBRANCH 23 24
BRANCH 23 30
ATOM     30  C   HIS C  66      14.815   4.554   2.871  1.00 41.89 LIG 0.22  C 
ATOM     31 O    HIS C  66      15.965   4.402   2.451  1.00 44.58 LIG-0.29  OA
ENDBRANCH 23 30
ENDBRANCH 20 23
ENDBRANCH 4 19
TORSDOF 9
ENDMDL
MODEL 46
USER: ADFR SOLUTION from run 118
USER: SCORE 10.921687 LL:  -1.970 LR:  -8.952 RR:   0.000 FEB:  -6.267
USER: RMSD 5.555219
USER: SEED 117
USER: STATUS no improvement in best in 35 clusters for 5 generations
USER: GENES 11
USER: genes 0 Translation |==|  0.48548 0.38279 0.57252
USER: genes 1 Rotation |==|  0.19728 0.11804 0.58063 0.57726
USER: genes 2 Torsion [N]-C--CA-[N] |==|  0.80267
USER: genes 3 Torsion [C]-CA--CB-[CG] |==|  0.21345
USER: genes 4 Torsion [CA]-CB--CG-[CD2] |==|  0.49008
USER: genes 5 Torsion [CE2]-CZ--OH-[HH] |==|  0.85091
USER: genes 6 Torsion [N]-CA--C-[N] |==|  0.00349
USER: genes 7 Torsion [C]-N--CA-[C] |==|  0.48028
USER: genes 8 Torsion [N]-CA--CB-[CG] |==|  0.19655
USER: genes 9 Torsion [CA]-CB--CG-[ND1] |==|  0.86332
USER: genes 10 Torsion [N]-CA--C-[O] |==|  0.43514
ROOT
ATOM      1  C   TYR C  64      11.879  -2.595   8.382  1.00 51.57 LIG 0.26  C 
ATOM      2 O    TYR C  64      11.686  -2.814   9.579  1.00 54.62 LIG-0.27  OA
ATOM      3  N   PRO C  65      11.797  -1.361   7.856  1.00 43.10 LIG-0.34  N 
ATOM      4  CA  PRO C  65      12.118  -0.933   6.491  1.00 38.90 LIG 0.18  C 
ATOM      5  CB  PRO C  65      11.047   0.112   6.211  1.00 40.80 LIG 0.04  C 
ATOM      6  CG  PRO C  65      10.809   0.735   7.543  1.00 42.19 LIG 0.02  C 
ATOM      7  CD  PRO C  65      11.026  -0.334   8.578  1.00 44.37 LIG 0.13  C 
ENDROOT
BRANCH 1 8
ATOM      8  CA  TYR C  64      12.220  -3.748   7.441  1.00 49.73 LIG 0.40  C 
ATOM      9  N   TYR C  64      11.078  -4.007   6.567  1.00 50.52 LIG 0.61  N 
BRANCH 8 10
ATOM     10  CB  TYR C  64      13.460  -3.377   6.618  1.00 50.46 LIG 0.09  C 
BRANCH 10 11
ATOM     11  CG  TYR C  64      14.781  -3.478   7.348  1.00 47.68 LIG-0.06  A 
ATOM     12  CD2 TYR C  64      15.976  -3.237   6.681  1.00 48.34 LIG 0.01  A 
ATOM     13  CE2 TYR C  64      17.192  -3.326   7.333  1.00 49.15 LIG 0.04  A 
ATOM     14  CZ  TYR C  64      17.223  -3.659   8.672  1.00 50.59 LIG 0.07  A 
ATOM     15  CE1 TYR C  64      16.051  -3.902   9.361  1.00 46.73 LIG 0.04  A 
ATOM     16  CD1 TYR C  64      14.838  -3.809   8.699  1.00 46.22 LIG 0.01  A 
BRANCH 14 17
ATOM     17 OH   TYR C  64      18.430  -3.749   9.327  1.00 53.82 LIG-0.36  OA
ATOM     18 HH   TYR C  64      18.937  -4.273   8.910  1.00 53.82 LIG 0.22  HD
ENDBRANCH 14 17
ENDBRANCH 10 11
ENDBRANCH 8 10
ENDBRANCH 1 8
BRANCH 4 19
ATOM     19  C   PRO C  65      13.498  -0.290   6.404  1.00 37.07 LIG 0.24  C 
ATOM     20  N   HIS C  66      14.187  -0.243   7.542  1.00 40.38 LIG-0.35  N 
ATOM     21 H    HIS C  66      13.878  -0.517   8.296  1.00 40.38 LIG 0.16  HD
ATOM     22 O    PRO C  65      13.910   0.162   5.321  1.00 29.28 LIG-0.27  OA
BRANCH 20 23
ATOM     23  CA  HIS C  66      15.543   0.281   7.614  1.00 40.25 LIG 0.17  C 
BRANCH 23 24
ATOM     24  CB  HIS C  66      15.622   1.662   6.947  1.00 42.68 LIG 0.09  C 
BRANCH 24 25
ATOM     25  CG  HIS C  66      14.937   2.749   7.717  1.00 48.80 LIG 0.06  A 
ATOM     26 ND1  HIS C  66      13.652   2.626   8.202  1.00 53.13 LIG-0.24  NA
ATOM     27  CE1 HIS C  66      13.315   3.734   8.837  1.00 55.16 LIG 0.23  A 
ATOM     28 NE2  HIS C  66      14.334   4.573   8.782  1.00 53.86 LIG-0.25  NA
ATOM     29  CD2 HIS C  66      15.361   3.981   8.085  1.00 53.41 LIG 0.14  A 
ENDBRANCH 24 25
ENDBRANCH 23 24
BRANCH 23 30
ATOM     30  C   HIS C  66      16.024   0.375   9.062  1.00 41.89 LIG 0.22  C 
ATOM     31 O    HIS C  66      17.229   0.376   9.327  1.00 44.58 LIG-0.29  OA
ENDBRANCH 23 30
ENDBRANCH 20 23
ENDBRANCH 4 19
TORSDOF 9
ENDMDL
MODEL 47
USER: ADFR SOLUTION from run 140
USER: SCORE 10.574813 LL:  -1.638 LR:  -8.937 RR:   0.000 FEB:  -6.253
USER: RMSD 6.634415
USER: SEED 139
USER: STATUS no improvement in best in 30 clusters for 5 generations
USER: GENES 11
USER: genes 0 Translation |==|  0.63378 0.36704 0.68319
USER: genes 1 Rotation |==|  0.50345 0.13873 0.84026 0.56079
USER: genes 2 Torsion [N]-C--CA-[N] |==|  0.88570
USER: genes 3 Torsion [C]-CA--CB-[CG] |==|  0.10931
USER: genes 4 Torsion [CA]-CB--CG-[CD2] |==|  0.66305
USER: genes 5 Torsion [CE2]-CZ--OH-[HH] |==|  0.78601
USER: genes 6 Torsion [N]-CA--C-[N] |==|  0.36608
USER: genes 7 Torsion [C]-N--CA-[C] |==|  0.14582
USER: genes 8 Torsion [N]-CA--CB-[CG] |==|  0.81379
USER: genes 9 Torsion [CA]-CB--CG-[ND1] |==|  0.70229
USER: genes 10 Torsion [N]-CA--C-[O] |==|  0.30419
ROOT
ATOM      1  C   TYR C  64      14.659  -2.843  10.374  1.00 51.57 LIG 0.26  C 
ATOM      2 O    TYR C  64      15.070  -1.950  11.116  1.00 54.62 LIG-0.27  OA
ATOM      3  N   PRO C  65      13.349  -3.055  10.163  1.00 43.10 LIG-0.34  N 
ATOM      4  CA  PRO C  65      12.720  -3.988   9.223  1.00 38.90 LIG 0.18  C 
ATOM      5  CB  PRO C  65      11.510  -4.480  10.005  1.00 40.80 LIG 0.04  C 
ATOM      6  CG  PRO C  65      11.120  -3.301  10.827  1.00 42.19 LIG 0.02  C 
ATOM      7  CD  PRO C  65      12.382  -2.553  11.155  1.00 44.37 LIG 0.13  C 
ENDROOT
BRANCH 1 8
ATOM      8  CA  TYR C  64      15.651  -3.759   9.661  1.00 49.73 LIG 0.40  C 
ATOM      9  N   TYR C  64      15.151  -5.131   9.702  1.00 50.52 LIG 0.61  N 
BRANCH 8 10
ATOM     10  CB  TYR C  64      15.821  -3.287   8.212  1.00 50.46 LIG 0.09  C 
BRANCH 10 11
ATOM     11  CG  TYR C  64      15.860  -1.787   8.015  1.00 47.68 LIG-0.06  A 
ATOM     12  CD2 TYR C  64      14.929  -1.159   7.195  1.00 48.34 LIG 0.01  A 
ATOM     13  CE2 TYR C  64      14.950   0.209   7.004  1.00 49.15 LIG 0.04  A 
ATOM     14  CZ  TYR C  64      15.911   0.970   7.639  1.00 50.59 LIG 0.07  A 
ATOM     15  CE1 TYR C  64      16.847   0.374   8.461  1.00 46.73 LIG 0.04  A 
ATOM     16  CD1 TYR C  64      16.817  -0.999   8.646  1.00 46.22 LIG 0.01  A 
BRANCH 14 17
ATOM     17 OH   TYR C  64      15.939   2.333   7.452  1.00 53.82 LIG-0.36  OA
ATOM     18 HH   TYR C  64      16.276   2.507   6.702  1.00 53.82 LIG 0.22  HD
ENDBRANCH 14 17
ENDBRANCH 10 11
ENDBRANCH 8 10
ENDBRANCH 1 8
BRANCH 4 19
ATOM     19  C   PRO C  65      12.258  -3.289   7.949  1.00 37.07 LIG 0.24  C 
ATOM     20  N   HIS C  66      12.606  -3.880   6.807  1.00 40.38 LIG-0.35  N 
ATOM     21 H    HIS C  66      13.092  -4.588   6.767  1.00 40.38 LIG 0.16  HD
ATOM     22 O    PRO C  65      11.609  -2.230   8.016  1.00 29.28 LIG-0.27  OA
BRANCH 20 23
ATOM     23  CA  HIS C  66      12.190  -3.374   5.507  1.00 40.25 LIG 0.17  C 
BRANCH 23 24
ATOM     24  CB  HIS C  66      10.682  -3.582   5.306  1.00 42.68 LIG 0.09  C 
BRANCH 24 25
ATOM     25  CG  HIS C  66      10.276  -5.021   5.197  1.00 48.80 LIG 0.06  A 
ATOM     26 ND1  HIS C  66       9.887  -5.600   4.008  1.00 53.13 LIG-0.24  NA
ATOM     27  CE1 HIS C  66       9.591  -6.871   4.216  1.00 55.16 LIG 0.23  A 
ATOM     28 NE2  HIS C  66       9.773  -7.137   5.498  1.00 53.86 LIG-0.25  NA
ATOM     29  CD2 HIS C  66      10.200  -5.995   6.133  1.00 53.41 LIG 0.14  A 
ENDBRANCH 24 25
ENDBRANCH 23 24
BRANCH 23 30
ATOM     30  C   HIS C  66      12.535  -1.893   5.353  1.00 41.89 LIG 0.22  C 
ATOM     31 O    HIS C  66      13.428  -1.531   4.584  1.00 44.58 LIG-0.29  OA
ENDBRANCH 23 30
ENDBRANCH 20 23
ENDBRANCH 4 19
TORSDOF 9
ENDMDL
MODEL 48
USER: ADFR SOLUTION from run 125
USER: SCORE 10.559793 LL:  -1.615 LR:  -8.945 RR:   0.000 FEB:  -6.260
USER: RMSD 8.483235
USER: SEED 124
USER: STATUS no improvement in best in 11 clusters for 5 generations
USER: GENES 11
USER: genes 0 Translation |==|  0.59925 0.53918 0.18191
USER: genes 1 Rotation |==|  0.92682 0.62882 0.60570 0.70015
USER: genes 2 Torsion [N]-C--CA-[N] |==|  0.45206
USER: genes 3 Torsion [C]-CA--CB-[CG] |==|  0.37135
USER: genes 4 Torsion [CA]-CB--CG-[CD2] |==|  0.25930
USER: genes 5 Torsion [CE2]-CZ--OH-[HH] |==|  0.66340
USER: genes 6 Torsion [N]-CA--C-[N] |==|  0.15262
USER: genes 7 Torsion [C]-N--CA-[C] |==|  0.63501
USER: genes 8 Torsion [N]-CA--CB-[CG] |==|  0.60275
USER: genes 9 Torsion [CA]-CB--CG-[ND1] |==|  0.89657
USER: genes 10 Torsion [N]-CA--C-[O] |==|  0.03767
ROOT
ATOM      1  C   TYR C  64      14.012  -0.132   1.351  1.00 51.57 LIG 0.26  C 
ATOM      2 O    TYR C  64      13.162   0.759   1.330  1.00 54.62 LIG-0.27  OA
ATOM      3  N   PRO C  65      15.306   0.117   1.614  1.00 43.10 LIG-0.34  N 
ATOM      4  CA  PRO C  65      16.398  -0.844   1.794  1.00 38.90 LIG 0.18  C 
ATOM      5  CB  PRO C  65      17.574  -0.139   1.133  1.00 40.80 LIG 0.04  C 
ATOM      6  CG  PRO C  65      17.310   1.303   1.396  1.00 42.19 LIG 0.02  C 
ATOM      7  CD  PRO C  65      15.818   1.485   1.415  1.00 44.37 LIG 0.13  C 
ENDROOT
BRANCH 1 8
ATOM      8  CA  TYR C  64      13.610  -1.578   1.070  1.00 49.73 LIG 0.40  C 
ATOM      9  N   TYR C  64      12.163  -1.711   1.218  1.00 50.52 LIG 0.61  N 
BRANCH 8 10
ATOM     10  CB  TYR C  64      14.047  -1.956  -0.351  1.00 50.46 LIG 0.09  C 
BRANCH 10 11
ATOM     11  CG  TYR C  64      14.746  -3.291  -0.484  1.00 47.68 LIG-0.06  A 
ATOM     12  CD2 TYR C  64      14.024  -4.437  -0.798  1.00 48.34 LIG 0.01  A 
ATOM     13  CE2 TYR C  64      14.647  -5.665  -0.923  1.00 49.15 LIG 0.04  A 
ATOM     14  CZ  TYR C  64      16.011  -5.758  -0.734  1.00 50.59 LIG 0.07  A 
ATOM     15  CE1 TYR C  64      16.754  -4.636  -0.423  1.00 46.73 LIG 0.04  A 
ATOM     16  CD1 TYR C  64      16.120  -3.410  -0.301  1.00 46.22 LIG 0.01  A 
BRANCH 14 17
ATOM     17 OH   TYR C  64      16.637  -6.977  -0.856  1.00 53.82 LIG-0.36  OA
ATOM     18 HH   TYR C  64      17.026  -7.166  -0.136  1.00 53.82 LIG 0.22  HD
ENDBRANCH 14 17
ENDBRANCH 10 11
ENDBRANCH 8 10
ENDBRANCH 1 8
BRANCH 4 19
ATOM     19  C   PRO C  65      16.708  -1.086   3.268  1.00 37.07 LIG 0.24  C 
ATOM     20  N   HIS C  66      15.677  -1.471   4.020  1.00 40.38 LIG-0.35  N 
ATOM     21 H    HIS C  66      14.875  -1.546   3.722  1.00 40.38 LIG 0.16  HD
ATOM     22 O    PRO C  65      17.860  -0.912   3.702  1.00 29.28 LIG-0.27  OA
BRANCH 20 23
ATOM     23  CA  HIS C  66      15.820  -1.803   5.430  1.00 40.25 LIG 0.17  C 
BRANCH 23 24
ATOM     24  CB  HIS C  66      15.230  -0.689   6.307  1.00 42.68 LIG 0.09  C 
BRANCH 24 25
ATOM     25  CG  HIS C  66      16.001  -0.435   7.567  1.00 48.80 LIG 0.06  A 
ATOM     26 ND1  HIS C  66      16.590  -1.443   8.299  1.00 53.13 LIG-0.24  NA
ATOM     27  CE1 HIS C  66      17.199  -0.923   9.350  1.00 55.16 LIG 0.23  A 
ATOM     28 NE2  HIS C  66      17.026   0.386   9.327  1.00 53.86 LIG-0.25  NA
ATOM     29  CD2 HIS C  66      16.278   0.717   8.221  1.00 53.41 LIG 0.14  A 
ENDBRANCH 24 25
ENDBRANCH 23 24
BRANCH 23 30
ATOM     30  C   HIS C  66      15.143  -3.134   5.756  1.00 41.89 LIG 0.22  C 
ATOM     31 O    HIS C  66      14.791  -3.899   4.854  1.00 44.58 LIG-0.29  OA
ENDBRANCH 23 30
ENDBRANCH 20 23
ENDBRANCH 4 19
TORSDOF 9
ENDMDL
MODEL 49
USER: ADFR SOLUTION from run 10
USER: SCORE 10.731477 LL:  -1.836 LR:  -8.896 RR:   0.000 FEB:  -6.211
USER: RMSD 5.151917
USER: SEED 356363
USER: STATUS no improvement in best in 39 clusters for 5 generations
USER: GENES 11
USER: genes 0 Translation |==|  0.63508 0.56597 0.51042
USER: genes 1 Rotation |==|  0.45082 0.79330 0.19642 0.76344
USER: genes 2 Torsion [N]-C--CA-[N] |==|  0.40201
USER: genes 3 Torsion [C]-CA--CB-[CG] |==|  0.10850
USER: genes 4 Torsion [CA]-CB--CG-[CD2] |==|  0.73590
USER: genes 5 Torsion [CE2]-CZ--OH-[HH] |==|  0.22502
USER: genes 6 Torsion [N]-CA--C-[N] |==|  0.18580
USER: genes 7 Torsion [C]-N--CA-[C] |==|  0.72932
USER: genes 8 Torsion [N]-CA--CB-[CG] |==|  0.51768
USER: genes 9 Torsion [CA]-CB--CG-[ND1] |==|  0.07590
USER: genes 10 Torsion [N]-CA--C-[O] |==|  0.76062
ROOT
ATOM      1  C   TYR C  64      14.684   0.290   7.265  1.00 51.57 LIG 0.26  C 
ATOM      2 O    TYR C  64      13.627   0.801   7.637  1.00 54.62 LIG-0.27  OA
ATOM      3  N   PRO C  65      14.717  -0.778   6.450  1.00 43.10 LIG-0.34  N 
ATOM      4  CA  PRO C  65      15.883  -1.412   5.829  1.00 38.90 LIG 0.18  C 
ATOM      5  CB  PRO C  65      15.526  -2.891   5.883  1.00 40.80 LIG 0.04  C 
ATOM      6  CG  PRO C  65      14.045  -2.899   5.727  1.00 42.19 LIG 0.02  C 
ATOM      7  CD  PRO C  65      13.525  -1.641   6.367  1.00 44.37 LIG 0.13  C 
ENDROOT
BRANCH 1 8
ATOM      8  CA  TYR C  64      16.018   0.868   7.732  1.00 49.73 LIG 0.40  C 
ATOM      9  N   TYR C  64      15.901   2.320   7.836  1.00 50.52 LIG 0.61  N 
BRANCH 8 10
ATOM     10  CB  TYR C  64      16.385   0.255   9.089  1.00 50.46 LIG 0.09  C 
BRANCH 10 11
ATOM     11  CG  TYR C  64      16.065  -1.215   9.248  1.00 47.68 LIG-0.06  A 
ATOM     12  CD2 TYR C  64      14.874  -1.618   9.840  1.00 48.34 LIG 0.01  A 
ATOM     13  CE2 TYR C  64      14.566  -2.957   9.994  1.00 49.15 LIG 0.04  A 
ATOM     14  CZ  TYR C  64      15.456  -3.914   9.551  1.00 50.59 LIG 0.07  A 
ATOM     15  CE1 TYR C  64      16.647  -3.544   8.958  1.00 46.73 LIG 0.04  A 
ATOM     16  CD1 TYR C  64      16.945  -2.200   8.808  1.00 46.22 LIG 0.01  A 
BRANCH 14 17
ATOM     17 OH   TYR C  64      15.157  -5.249   9.702  1.00 53.82 LIG-0.36  OA
ATOM     18 HH   TYR C  64      14.639  -5.492   9.086  1.00 53.82 LIG 0.22  HD
ENDBRANCH 14 17
ENDBRANCH 10 11
ENDBRANCH 8 10
ENDBRANCH 1 8
BRANCH 4 19
ATOM     19  C   PRO C  65      16.063  -0.980   4.377  1.00 37.07 LIG 0.24  C 
ATOM     20  N   HIS C  66      16.382   0.299   4.190  1.00 40.38 LIG-0.35  N 
ATOM     21 H    HIS C  66      16.449   0.870   4.830  1.00 40.38 LIG 0.16  HD
ATOM     22 O    PRO C  65      15.901  -1.800   3.456  1.00 29.28 LIG-0.27  OA
BRANCH 20 23
ATOM     23  CA  HIS C  66      16.650   0.853   2.871  1.00 40.25 LIG 0.17  C 
BRANCH 23 24
ATOM     24  CB  HIS C  66      16.042   2.258   2.744  1.00 42.68 LIG 0.09  C 
BRANCH 24 25
ATOM     25  CG  HIS C  66      16.141   2.840   1.367  1.00 48.80 LIG 0.06  A 
ATOM     26 ND1  HIS C  66      16.196   2.064   0.228  1.00 53.13 LIG-0.24  NA
ATOM     27  CE1 HIS C  66      16.276   2.847  -0.833  1.00 55.16 LIG 0.23  A 
ATOM     28 NE2  HIS C  66      16.276   4.104  -0.425  1.00 53.86 LIG-0.25  NA
ATOM     29  CD2 HIS C  66      16.193   4.126   0.948  1.00 53.41 LIG 0.14  A 
ENDBRANCH 24 25
ENDBRANCH 23 24
BRANCH 23 30
ATOM     30  C   HIS C  66      18.151   0.909   2.589  1.00 41.89 LIG 0.22  C 
ATOM     31 O    HIS C  66      18.825   1.876   2.953  1.00 44.58 LIG-0.29  OA
ENDBRANCH 23 30
ENDBRANCH 20 23
ENDBRANCH 4 19
TORSDOF 9
ENDMDL
MODEL 50
USER: ADFR SOLUTION from run 143
USER: SCORE 10.740154 LL:  -1.842 LR:  -8.898 RR:   0.000 FEB:  -6.214
USER: RMSD 4.854987
USER: SEED 142
USER: STATUS no improvement in best in 39 clusters for 5 generations
USER: GENES 11
USER: genes 0 Translation |==|  0.40612 0.51093 0.60686
USER: genes 1 Rotation |==|  0.92939 0.55404 0.33834 0.69125
USER: genes 2 Torsion [N]-C--CA-[N] |==|  0.86073
USER: genes 3 Torsion [C]-CA--CB-[CG] |==|  0.61498
USER: genes 4 Torsion [CA]-CB--CG-[CD2] |==|  0.31206
USER: genes 5 Torsion [CE2]-CZ--OH-[HH] |==|  0.94029
USER: genes 6 Torsion [N]-CA--C-[N] |==|  0.96346
USER: genes 7 Torsion [C]-N--CA-[C] |==|  0.63755
USER: genes 8 Torsion [N]-CA--CB-[CG] |==|  0.17370
USER: genes 9 Torsion [CA]-CB--CG-[ND1] |==|  0.84370
USER: genes 10 Torsion [N]-CA--C-[O] |==|  0.60541
ROOT
ATOM      1  C   TYR C  64      10.391  -0.577   9.001  1.00 51.57 LIG 0.26  C 
ATOM      2 O    TYR C  64      10.443   0.646   9.136  1.00 54.62 LIG-0.27  OA
ATOM      3  N   PRO C  65      11.288  -1.256   8.266  1.00 43.10 LIG-0.34  N 
ATOM      4  CA  PRO C  65      11.426  -2.708   8.115  1.00 38.90 LIG 0.18  C 
ATOM      5  CB  PRO C  65      11.815  -2.854   6.651  1.00 40.80 LIG 0.04  C 
ATOM      6  CG  PRO C  65      12.616  -1.629   6.377  1.00 42.19 LIG 0.02  C 
ATOM      7  CD  PRO C  65      12.055  -0.531   7.239  1.00 44.37 LIG 0.13  C 
ENDROOT
BRANCH 1 8
ATOM      8  CA  TYR C  64       9.277  -1.373   9.676  1.00 49.73 LIG 0.40  C 
ATOM      9  N   TYR C  64       8.646  -2.247   8.689  1.00 50.52 LIG 0.61  N 
BRANCH 8 10
ATOM     10  CB  TYR C  64       9.870  -2.195  10.827  1.00 50.46 LIG 0.09  C 
BRANCH 10 11
ATOM     11  CG  TYR C  64       9.341  -3.606  10.961  1.00 47.68 LIG-0.06  A 
ATOM     12  CD2 TYR C  64      10.166  -4.696  10.710  1.00 48.34 LIG 0.01  A 
ATOM     13  CE2 TYR C  64       9.699  -5.991  10.827  1.00 49.15 LIG 0.04  A 
ATOM     14  CZ  TYR C  64       8.388  -6.210  11.201  1.00 50.59 LIG 0.07  A 
ATOM     15  CE1 TYR C  64       7.546  -5.147  11.459  1.00 46.73 LIG 0.04  A 
ATOM     16  CD1 TYR C  64       8.025  -3.852  11.339  1.00 46.22 LIG 0.01  A 
BRANCH 14 17
ATOM     17 OH   TYR C  64       7.916  -7.497  11.319  1.00 53.82 LIG-0.36  OA
ATOM     18 HH   TYR C  64       8.401  -8.017  10.870  1.00 53.82 LIG 0.22  HD
ENDBRANCH 14 17
ENDBRANCH 10 11
ENDBRANCH 8 10
ENDBRANCH 1 8
BRANCH 4 19
ATOM     19  C   PRO C  65      12.534  -3.271   8.999  1.00 37.07 LIG 0.24  C 
ATOM     20  N   HIS C  66      13.358  -2.373   9.536  1.00 40.38 LIG-0.35  N 
ATOM     21 H    HIS C  66      13.310  -1.530   9.377  1.00 40.38 LIG 0.16  HD
ATOM     22 O    PRO C  65      12.633  -4.499   9.172  1.00 29.28 LIG-0.27  OA
BRANCH 20 23
ATOM     23  CA  HIS C  66      14.427  -2.743  10.453  1.00 40.25 LIG 0.17  C 
BRANCH 23 24
ATOM     24  CB  HIS C  66      15.793  -2.623   9.763  1.00 42.68 LIG 0.09  C 
BRANCH 24 25
ATOM     25  CG  HIS C  66      16.134  -1.231   9.326  1.00 48.80 LIG 0.06  A 
ATOM     26 ND1  HIS C  66      15.327  -0.491   8.487  1.00 53.13 LIG-0.24  NA
ATOM     27  CE1 HIS C  66      15.877   0.692   8.280  1.00 55.16 LIG 0.23  A 
ATOM     28 NE2  HIS C  66      17.013   0.747   8.952  1.00 53.86 LIG-0.25  NA
ATOM     29  CD2 HIS C  66      17.197  -0.445   9.614  1.00 53.41 LIG 0.14  A 
ENDBRANCH 24 25
ENDBRANCH 23 24
BRANCH 23 30
ATOM     30  C   HIS C  66      14.402  -1.874  11.710  1.00 41.89 LIG 0.22  C 
ATOM     31 O    HIS C  66      15.453  -1.499  12.237  1.00 44.58 LIG-0.29  OA
ENDBRANCH 23 30
ENDBRANCH 20 23
ENDBRANCH 4 19
TORSDOF 9
ENDMDL
MODEL 51
USER: ADFR SOLUTION from run 108
USER: SCORE 10.287993 LL:  -1.392 LR:  -8.896 RR:   0.000 FEB:  -6.211
USER: RMSD 3.474838
USER: SEED 107
USER: STATUS no improvement in best in 16 clusters for 5 generations
USER: GENES 11
USER: genes 0 Translation |==|  0.65989 0.30640 0.64145
USER: genes 1 Rotation |==|  0.27666 0.63650 0.59629 0.91499
USER: genes 2 Torsion [N]-C--CA-[N] |==|  0.89331
USER: genes 3 Torsion [C]-CA--CB-[CG] |==|  0.23782
USER: genes 4 Torsion [CA]-CB--CG-[CD2] |==|  0.63381
USER: genes 5 Torsion [CE2]-CZ--OH-[HH] |==|  0.23386
USER: genes 6 Torsion [N]-CA--C-[N] |==|  0.62841
USER: genes 7 Torsion [C]-N--CA-[C] |==|  0.63918
USER: genes 8 Torsion [N]-CA--CB-[CG] |==|  0.94948
USER: genes 9 Torsion [CA]-CB--CG-[ND1] |==|  0.22718
USER: genes 10 Torsion [N]-CA--C-[O] |==|  0.74515
ROOT
ATOM      1  C   TYR C  64      15.149  -3.798   9.623  1.00 51.57 LIG 0.26  C 
ATOM      2 O    TYR C  64      15.192  -5.025   9.723  1.00 54.62 LIG-0.27  OA
ATOM      3  N   PRO C  65      15.965  -3.116   8.802  1.00 43.10 LIG-0.34  N 
ATOM      4  CA  PRO C  65      15.948  -1.684   8.487  1.00 38.90 LIG 0.18  C 
ATOM      5  CB  PRO C  65      17.429  -1.349   8.382  1.00 40.80 LIG 0.04  C 
ATOM      6  CG  PRO C  65      18.033  -2.598   7.838  1.00 42.19 LIG 0.02  C 
ATOM      7  CD  PRO C  65      17.223  -3.749   8.369  1.00 44.37 LIG 0.13  C 
ENDROOT
BRANCH 1 8
ATOM      8  CA  TYR C  64      14.146  -2.999  10.452  1.00 49.73 LIG 0.40  C 
ATOM      9  N   TYR C  64      14.776  -1.761  10.905  1.00 50.52 LIG 0.61  N 
BRANCH 8 10
ATOM     10  CB  TYR C  64      12.911  -2.697   9.595  1.00 50.46 LIG 0.09  C 
BRANCH 10 11
ATOM     11  CG  TYR C  64      11.853  -3.779   9.571  1.00 47.68 LIG-0.06  A 
ATOM     12  CD2 TYR C  64      11.312  -4.210   8.365  1.00 48.34 LIG 0.01  A 
ATOM     13  CE2 TYR C  64      10.345  -5.196   8.325  1.00 49.15 LIG 0.04  A 
ATOM     14  CZ  TYR C  64       9.906  -5.767   9.503  1.00 50.59 LIG 0.07  A 
ATOM     15  CE1 TYR C  64      10.427  -5.359  10.715  1.00 46.73 LIG 0.04  A 
ATOM     16  CD1 TYR C  64      11.396  -4.370  10.744  1.00 46.22 LIG 0.01  A 
BRANCH 14 17
ATOM     17 OH   TYR C  64       8.943  -6.749   9.470  1.00 53.82 LIG-0.36  OA
ATOM     18 HH   TYR C  64       9.306  -7.493   9.327  1.00 53.82 LIG 0.22  HD
ENDBRANCH 14 17
ENDBRANCH 10 11
ENDBRANCH 8 10
ENDBRANCH 1 8
BRANCH 4 19
ATOM     19  C   PRO C  65      15.261  -1.401   7.155  1.00 37.07 LIG 0.24  C 
ATOM     20  N   HIS C  66      15.901  -0.562   6.342  1.00 40.38 LIG-0.35  N 
ATOM     21 H    HIS C  66      16.635  -0.166   6.550  1.00 40.38 LIG 0.16  HD
ATOM     22 O    PRO C  65      14.168  -1.931   6.890  1.00 29.28 LIG-0.27  OA
BRANCH 20 23
ATOM     23  CA  HIS C  66      15.410  -0.238   5.011  1.00 40.25 LIG 0.17  C 
BRANCH 23 24
ATOM     24  CB  HIS C  66      14.859   1.195   4.974  1.00 42.68 LIG 0.09  C 
BRANCH 24 25
ATOM     25  CG  HIS C  66      14.547   1.761   6.325  1.00 48.80 LIG 0.06  A 
ATOM     26 ND1  HIS C  66      15.509   2.315   7.144  1.00 53.13 LIG-0.24  NA
ATOM     27  CE1 HIS C  66      14.944   2.732   8.264  1.00 55.16 LIG 0.23  A 
ATOM     28 NE2  HIS C  66      13.651   2.468   8.202  1.00 53.86 LIG-0.25  NA
ATOM     29  CD2 HIS C  66      13.378   1.860   6.999  1.00 53.41 LIG 0.14  A 
ENDBRANCH 24 25
ENDBRANCH 23 24
BRANCH 23 30
ATOM     30  C   HIS C  66      16.510  -0.398   3.961  1.00 41.89 LIG 0.22  C 
ATOM     31 O    HIS C  66      17.226   0.557   3.648  1.00 44.58 LIG-0.29  OA
ENDBRANCH 23 30
ENDBRANCH 20 23
ENDBRANCH 4 19
TORSDOF 9
ENDMDL
MODEL 52
USER: ADFR SOLUTION from run 75
USER: SCORE 10.527459 LL:  -1.660 LR:  -8.867 RR:   0.000 FEB:  -6.183
USER: RMSD 7.618775
USER: SEED 74
USER: STATUS no improvement in best in 22 clusters for 5 generations
USER: GENES 11
USER: genes 0 Translation |==|  0.69468 0.38884 0.62869
USER: genes 1 Rotation |==|  0.22014 0.82474 0.73111 0.61320
USER: genes 2 Torsion [N]-C--CA-[N] |==|  0.39105
USER: genes 3 Torsion [C]-CA--CB-[CG] |==|  0.23081
USER: genes 4 Torsion [CA]-CB--CG-[CD2] |==|  0.76276
USER: genes 5 Torsion [CE2]-CZ--OH-[HH] |==|  0.79824
USER: genes 6 Torsion [N]-CA--C-[N] |==|  0.29503
USER: genes 7 Torsion [C]-N--CA-[C] |==|  0.55824
USER: genes 8 Torsion [N]-CA--CB-[CG] |==|  0.59057
USER: genes 9 Torsion [CA]-CB--CG-[ND1] |==|  0.72190
USER: genes 10 Torsion [N]-CA--C-[O] |==|  0.48445
ROOT
ATOM      1  C   TYR C  64      15.801  -2.500   9.394  1.00 51.57 LIG 0.26  C 
ATOM      2 O    TYR C  64      16.741  -3.235   9.699  1.00 54.62 LIG-0.27  OA
ATOM      3  N   PRO C  65      14.984  -2.771   8.362  1.00 43.10 LIG-0.34  N 
ATOM      4  CA  PRO C  65      13.764  -2.065   7.959  1.00 38.90 LIG 0.18  C 
ATOM      5  CB  PRO C  65      13.836  -2.119   6.439  1.00 40.80 LIG 0.04  C 
ATOM      6  CG  PRO C  65      14.506  -3.421   6.166  1.00 42.19 LIG 0.02  C 
ATOM      7  CD  PRO C  65      15.461  -3.674   7.300  1.00 44.37 LIG 0.13  C 
ENDROOT
BRANCH 1 8
ATOM      8  CA  TYR C  64      15.535  -1.227  10.195  1.00 49.73 LIG 0.40  C 
ATOM      9  N   TYR C  64      15.758  -1.499  11.613  1.00 50.52 LIG 0.61  N 
BRANCH 8 10
ATOM     10  CB  TYR C  64      16.470  -0.116   9.702  1.00 50.46 LIG 0.09  C 
BRANCH 10 11
ATOM     11  CG  TYR C  64      16.001   0.631   8.473  1.00 47.68 LIG-0.06  A 
ATOM     12  CD2 TYR C  64      16.273   0.139   7.201  1.00 48.34 LIG 0.01  A 
ATOM     13  CE2 TYR C  64      15.854   0.809   6.068  1.00 49.15 LIG 0.04  A 
ATOM     14  CZ  TYR C  64      15.151   1.990   6.197  1.00 50.59 LIG 0.07  A 
ATOM     15  CE1 TYR C  64      14.865   2.502   7.447  1.00 46.73 LIG 0.04  A 
ATOM     16  CD1 TYR C  64      15.290   1.822   8.576  1.00 46.22 LIG 0.01  A 
BRANCH 14 17
ATOM     17 OH   TYR C  64      14.731   2.663   5.072  1.00 53.82 LIG-0.36  OA
ATOM     18 HH   TYR C  64      15.392   3.021   4.696  1.00 53.82 LIG 0.22  HD
ENDBRANCH 14 17
ENDBRANCH 10 11
ENDBRANCH 8 10
ENDBRANCH 1 8
BRANCH 4 19
ATOM     19  C   PRO C  65      12.505  -2.779   8.439  1.00 37.07 LIG 0.24  C 
ATOM     20  N   HIS C  66      11.868  -2.205   9.458  1.00 40.38 LIG-0.35  N 
ATOM     21 H    HIS C  66      12.151  -1.499   9.858  1.00 40.38 LIG 0.16  HD
ATOM     22 O    PRO C  65      12.139  -3.836   7.894  1.00 29.28 LIG-0.27  OA
BRANCH 20 23
ATOM     23  CA  HIS C  66      10.618  -2.727   9.992  1.00 40.25 LIG 0.17  C 
BRANCH 23 24
ATOM     24  CB  HIS C  66      10.885  -3.933  10.904  1.00 42.68 LIG 0.09  C 
BRANCH 24 25
ATOM     25  CG  HIS C  66       9.799  -4.965  10.881  1.00 48.80 LIG 0.06  A 
ATOM     26 ND1  HIS C  66       8.835  -5.059  11.862  1.00 53.13 LIG-0.24  NA
ATOM     27  CE1 HIS C  66       8.014  -6.055  11.577  1.00 55.16 LIG 0.23  A 
ATOM     28 NE2  HIS C  66       8.411  -6.611  10.446  1.00 53.86 LIG-0.25  NA
ATOM     29  CD2 HIS C  66       9.526  -5.948   9.991  1.00 53.41 LIG 0.14  A 
ENDBRANCH 24 25
ENDBRANCH 23 24
BRANCH 23 30
ATOM     30  C   HIS C  66       9.854  -1.651  10.763  1.00 41.89 LIG 0.22  C 
ATOM     31 O    HIS C  66       8.723  -1.875  11.202  1.00 44.58 LIG-0.29  OA
ENDBRANCH 23 30
ENDBRANCH 20 23
ENDBRANCH 4 19
TORSDOF 9
ENDMDL
MODEL 53
USER: ADFR SOLUTION from run 116
USER: SCORE 10.501823 LL:  -1.631 LR:  -8.871 RR:   0.000 FEB:  -6.186
USER: RMSD 7.519281
USER: SEED 115
USER: STATUS no improvement in best in 26 clusters for 5 generations
USER: GENES 11
USER: genes 0 Translation |==|  0.66809 0.50779 0.43402
USER: genes 1 Rotation |==|  0.86286 0.51936 0.80283 0.66203
USER: genes 2 Torsion [N]-C--CA-[N] |==|  0.17843
USER: genes 3 Torsion [C]-CA--CB-[CG] |==|  0.36159
USER: genes 4 Torsion [CA]-CB--CG-[CD2] |==|  0.31518
USER: genes 5 Torsion [CE2]-CZ--OH-[HH] |==|  0.49044
USER: genes 6 Torsion [N]-CA--C-[N] |==|  0.93718
USER: genes 7 Torsion [C]-N--CA-[C] |==|  0.21916
USER: genes 8 Torsion [N]-CA--CB-[CG] |==|  0.79186
USER: genes 9 Torsion [CA]-CB--CG-[ND1] |==|  0.14789
USER: genes 10 Torsion [N]-CA--C-[O] |==|  0.05797
ROOT
ATOM      1  C   TYR C  64      15.303  -0.626   5.889  1.00 51.57 LIG 0.26  C 
ATOM      2 O    TYR C  64      14.630   0.312   5.461  1.00 54.62 LIG-0.27  OA
ATOM      3  N   PRO C  65      15.871  -0.605   7.107  1.00 43.10 LIG-0.34  N 
ATOM      4  CA  PRO C  65      16.586  -1.684   7.795  1.00 38.90 LIG 0.18  C 
ATOM      5  CB  PRO C  65      17.702  -0.937   8.513  1.00 40.80 LIG 0.04  C 
ATOM      6  CG  PRO C  65      17.085   0.376   8.850  1.00 42.19 LIG 0.02  C 
ATOM      7  CD  PRO C  65      16.103   0.697   7.756  1.00 44.37 LIG 0.13  C 
ENDROOT
BRANCH 1 8
ATOM      8  CA  TYR C  64      15.518  -1.868   5.027  1.00 49.73 LIG 0.40  C 
ATOM      9  N   TYR C  64      14.894  -3.018   5.678  1.00 50.52 LIG 0.61  N 
BRANCH 8 10
ATOM     10  CB  TYR C  64      14.906  -1.632   3.641  1.00 50.46 LIG 0.09  C 
BRANCH 10 11
ATOM     11  CG  TYR C  64      15.808  -1.948   2.468  1.00 47.68 LIG-0.06  A 
ATOM     12  CD2 TYR C  64      15.506  -2.999   1.609  1.00 48.34 LIG 0.01  A 
ATOM     13  CE2 TYR C  64      16.320  -3.302   0.534  1.00 49.15 LIG 0.04  A 
ATOM     14  CZ  TYR C  64      17.452  -2.547   0.304  1.00 50.59 LIG 0.07  A 
ATOM     15  CE1 TYR C  64      17.776  -1.496   1.140  1.00 46.73 LIG 0.04  A 
ATOM     16  CD1 TYR C  64      16.954  -1.201   2.214  1.00 46.22 LIG 0.01  A 
BRANCH 14 17
ATOM     17 OH   TYR C  64      18.267  -2.844  -0.765  1.00 53.82 LIG-0.36  OA
ATOM     18 HH   TYR C  64      18.888  -2.279  -0.810  1.00 53.82 LIG 0.22  HD
ENDBRANCH 14 17
ENDBRANCH 10 11
ENDBRANCH 8 10
ENDBRANCH 1 8
BRANCH 4 19
ATOM     19  C   PRO C  65      15.704  -2.394   8.816  1.00 37.07 LIG 0.24  C 
ATOM     20  N   HIS C  66      14.664  -1.695   9.267  1.00 40.38 LIG-0.35  N 
ATOM     21 H    HIS C  66      14.504  -0.881   9.040  1.00 40.38 LIG 0.16  HD
ATOM     22 O    PRO C  65      15.980  -3.549   9.187  1.00 29.28 LIG-0.27  OA
BRANCH 20 23
ATOM     23  CA  HIS C  66      13.691  -2.251  10.196  1.00 40.25 LIG 0.17  C 
BRANCH 23 24
ATOM     24  CB  HIS C  66      13.310  -3.680   9.785  1.00 42.68 LIG 0.09  C 
BRANCH 24 25
ATOM     25  CG  HIS C  66      12.396  -3.749   8.599  1.00 48.80 LIG 0.06  A 
ATOM     26 ND1  HIS C  66      12.676  -3.124   7.402  1.00 53.13 LIG-0.24  NA
ATOM     27  CE1 HIS C  66      11.698  -3.360   6.545  1.00 55.16 LIG 0.23  A 
ATOM     28 NE2  HIS C  66      10.793  -4.115   7.143  1.00 53.86 LIG-0.25  NA
ATOM     29  CD2 HIS C  66      11.206  -4.371   8.429  1.00 53.41 LIG 0.14  A 
ENDBRANCH 24 25
ENDBRANCH 23 24
BRANCH 23 30
ATOM     30  C   HIS C  66      14.229  -2.249  11.627  1.00 41.89 LIG 0.22  C 
ATOM     31 O    HIS C  66      15.151  -1.496  11.952  1.00 44.58 LIG-0.29  OA
ENDBRANCH 23 30
ENDBRANCH 20 23
ENDBRANCH 4 19
TORSDOF 9
ENDMDL
MODEL 54
USER: ADFR SOLUTION from run 128
USER: SCORE 10.761524 LL:  -1.915 LR:  -8.847 RR:   0.000 FEB:  -6.162
USER: RMSD 7.463884
USER: SEED 127
USER: STATUS no improvement in best in 34 clusters for 5 generations
USER: GENES 11
USER: genes 0 Translation |==|  0.62217 0.61041 0.51266
USER: genes 1 Rotation |==|  0.93902 0.42352 0.72578 0.52078
USER: genes 2 Torsion [N]-C--CA-[N] |==|  0.41854
USER: genes 3 Torsion [C]-CA--CB-[CG] |==|  0.35861
USER: genes 4 Torsion [CA]-CB--CG-[CD2] |==|  0.02853
USER: genes 5 Torsion [CE2]-CZ--OH-[HH] |==|  0.42642
USER: genes 6 Torsion [N]-CA--C-[N] |==|  0.92021
USER: genes 7 Torsion [C]-N--CA-[C] |==|  0.12626
USER: genes 8 Torsion [N]-CA--CB-[CG] |==|  0.82317
USER: genes 9 Torsion [CA]-CB--CG-[ND1] |==|  0.26921
USER: genes 10 Torsion [N]-CA--C-[O] |==|  0.13200
ROOT
ATOM      1  C   TYR C  64      14.442   0.990   7.305  1.00 51.57 LIG 0.26  C 
ATOM      2 O    TYR C  64      13.834   1.922   7.832  1.00 54.62 LIG-0.27  OA
ATOM      3  N   PRO C  65      15.307   0.220   7.987  1.00 43.10 LIG-0.34  N 
ATOM      4  CA  PRO C  65      16.002  -0.988   7.532  1.00 38.90 LIG 0.18  C 
ATOM      5  CB  PRO C  65      17.369  -0.851   8.187  1.00 40.80 LIG 0.04  C 
ATOM      6  CG  PRO C  65      17.074  -0.158   9.472  1.00 42.19 LIG 0.02  C 
ATOM      7  CD  PRO C  65      15.901   0.751   9.226  1.00 44.37 LIG 0.13  C 
ENDROOT
BRANCH 1 8
ATOM      8  CA  TYR C  64      14.227   0.677   5.826  1.00 49.73 LIG 0.40  C 
ATOM      9  N   TYR C  64      12.870   1.066   5.446  1.00 50.52 LIG 0.61  N 
BRANCH 8 10
ATOM     10  CB  TYR C  64      15.263   1.442   4.993  1.00 50.46 LIG 0.09  C 
BRANCH 10 11
ATOM     11  CG  TYR C  64      16.039   0.610   3.995  1.00 47.68 LIG-0.06  A 
ATOM     12  CD2 TYR C  64      15.658  -0.698   3.719  1.00 48.34 LIG 0.01  A 
ATOM     13  CE2 TYR C  64      16.356  -1.472   2.811  1.00 49.15 LIG 0.04  A 
ATOM     14  CZ  TYR C  64      17.451  -0.938   2.163  1.00 50.59 LIG 0.07  A 
ATOM     15  CE1 TYR C  64      17.852   0.359   2.416  1.00 46.73 LIG 0.04  A 
ATOM     16  CD1 TYR C  64      17.145   1.126   3.327  1.00 46.22 LIG 0.01  A 
BRANCH 14 17
ATOM     17 OH   TYR C  64      18.151  -1.703   1.258  1.00 53.82 LIG-0.36  OA
ATOM     18 HH   TYR C  64      18.526  -1.202   0.698  1.00 53.82 LIG 0.22  HD
ENDBRANCH 14 17
ENDBRANCH 10 11
ENDBRANCH 8 10
ENDBRANCH 1 8
BRANCH 4 19
ATOM     19  C   PRO C  65      15.320  -2.259   8.027  1.00 37.07 LIG 0.24  C 
ATOM     20  N   HIS C  66      14.661  -2.151   9.179  1.00 40.38 LIG-0.35  N 
ATOM     21 H    HIS C  66      14.641  -1.431   9.649  1.00 40.38 LIG 0.16  HD
ATOM     22 O    PRO C  65      15.409  -3.313   7.372  1.00 29.28 LIG-0.27  OA
BRANCH 20 23
ATOM     23  CA  HIS C  66      13.906  -3.254   9.755  1.00 40.25 LIG 0.17  C 
BRANCH 23 24
ATOM     24  CB  HIS C  66      12.569  -3.432   9.022  1.00 42.68 LIG 0.09  C 
BRANCH 24 25
ATOM     25  CG  HIS C  66      11.643  -2.261   9.153  1.00 48.80 LIG 0.06  A 
ATOM     26 ND1  HIS C  66      11.543  -1.275   8.194  1.00 53.13 LIG-0.24  NA
ATOM     27  CE1 HIS C  66      10.651  -0.379   8.577  1.00 55.16 LIG 0.23  A 
ATOM     28 NE2  HIS C  66      10.168  -0.747   9.751  1.00 53.86 LIG-0.25  NA
ATOM     29  CD2 HIS C  66      10.774  -1.921  10.133  1.00 53.41 LIG 0.14  A 
ENDBRANCH 24 25
ENDBRANCH 23 24
BRANCH 23 30
ATOM     30  C   HIS C  66      14.704  -4.557   9.702  1.00 41.89 LIG 0.22  C 
ATOM     31 O    HIS C  66      15.881  -4.590  10.070  1.00 44.58 LIG-0.29  OA
ENDBRANCH 23 30
ENDBRANCH 20 23
ENDBRANCH 4 19
TORSDOF 9
ENDMDL
MODEL 55
USER: ADFR SOLUTION from run 199
USER: SCORE 10.362753 LL:  -1.525 LR:  -8.838 RR:   0.000 FEB:  -6.153
USER: RMSD 6.163438
USER: SEED 198
USER: STATUS no improvement in best in 51 clusters for 5 generations
USER: GENES 11
USER: genes 0 Translation |==|  0.69155 0.57233 0.56463
USER: genes 1 Rotation |==|  0.20083 0.28485 0.80065 0.65433
USER: genes 2 Torsion [N]-C--CA-[N] |==|  0.87678
USER: genes 3 Torsion [C]-CA--CB-[CG] |==|  0.25948
USER: genes 4 Torsion [CA]-CB--CG-[CD2] |==|  0.66731
USER: genes 5 Torsion [CE2]-CZ--OH-[HH] |==|  0.29008
USER: genes 6 Torsion [N]-CA--C-[N] |==|  0.94693
USER: genes 7 Torsion [C]-N--CA-[C] |==|  0.16515
USER: genes 8 Torsion [N]-CA--CB-[CG] |==|  0.35747
USER: genes 9 Torsion [CA]-CB--CG-[ND1] |==|  0.20170
USER: genes 10 Torsion [N]-CA--C-[O] |==|  0.27129
ROOT
ATOM      1  C   TYR C  64      15.742   0.390   8.240  1.00 51.57 LIG 0.26  C 
ATOM      2 O    TYR C  64      16.615   0.750   9.031  1.00 54.62 LIG-0.27  OA
ATOM      3  N   PRO C  65      15.262   1.203   7.284  1.00 43.10 LIG-0.34  N 
ATOM      4  CA  PRO C  65      14.324   0.880   6.205  1.00 38.90 LIG 0.18  C 
ATOM      5  CB  PRO C  65      13.480   2.144   6.109  1.00 40.80 LIG 0.04  C 
ATOM      6  CG  PRO C  65      14.436   3.231   6.461  1.00 42.19 LIG 0.02  C 
ATOM      7  CD  PRO C  65      15.412   2.659   7.452  1.00 44.37 LIG 0.13  C 
ENDROOT
BRANCH 1 8
ATOM      8  CA  TYR C  64      15.166  -1.021   8.328  1.00 49.73 LIG 0.40  C 
ATOM      9  N   TYR C  64      13.712  -0.954   8.202  1.00 50.52 LIG 0.61  N 
BRANCH 8 10
ATOM     10  CB  TYR C  64      15.769  -1.883   7.212  1.00 50.46 LIG 0.09  C 
BRANCH 10 11
ATOM     11  CG  TYR C  64      17.000  -2.676   7.592  1.00 47.68 LIG-0.06  A 
ATOM     12  CD2 TYR C  64      18.205  -2.470   6.929  1.00 48.34 LIG 0.01  A 
ATOM     13  CE2 TYR C  64      19.338  -3.187   7.264  1.00 49.15 LIG 0.04  A 
ATOM     14  CZ  TYR C  64      19.276  -4.124   8.275  1.00 50.59 LIG 0.07  A 
ATOM     15  CE1 TYR C  64      18.094  -4.349   8.952  1.00 46.73 LIG 0.04  A 
ATOM     16  CD1 TYR C  64      16.964  -3.625   8.609  1.00 46.22 LIG 0.01  A 
BRANCH 14 17
ATOM     17 OH   TYR C  64      20.401  -4.842   8.613  1.00 53.82 LIG-0.36  OA
ATOM     18 HH   TYR C  64      20.718  -4.544   9.332  1.00 53.82 LIG 0.22  HD
ENDBRANCH 14 17
ENDBRANCH 10 11
ENDBRANCH 8 10
ENDBRANCH 1 8
BRANCH 4 19
ATOM     19  C   PRO C  65      15.039   0.639   4.880  1.00 37.07 LIG 0.24  C 
ATOM     20  N   HIS C  66      16.276   1.126   4.793  1.00 40.38 LIG-0.35  N 
ATOM     21 H    HIS C  66      16.651   1.583   5.418  1.00 40.38 LIG 0.16  HD
ATOM     22 O    PRO C  65      14.463   0.032   3.959  1.00 29.28 LIG-0.27  OA
BRANCH 20 23
ATOM     23  CA  HIS C  66      17.115   0.926   3.621  1.00 40.25 LIG 0.17  C 
BRANCH 23 24
ATOM     24  CB  HIS C  66      17.404  -0.568   3.414  1.00 42.68 LIG 0.09  C 
BRANCH 24 25
ATOM     25  CG  HIS C  66      17.111  -1.058   2.028  1.00 48.80 LIG 0.06  A 
ATOM     26 ND1  HIS C  66      17.898  -0.742   0.941  1.00 53.13 LIG-0.24  NA
ATOM     27  CE1 HIS C  66      17.401  -1.313  -0.141  1.00 55.16 LIG 0.23  A 
ATOM     28 NE2  HIS C  66      16.319  -1.989   0.203  1.00 53.86 LIG-0.25  NA
ATOM     29  CD2 HIS C  66      16.116  -1.844   1.556  1.00 53.41 LIG 0.14  A 
ENDBRANCH 24 25
ENDBRANCH 23 24
BRANCH 23 30
ATOM     30  C   HIS C  66      16.460   1.507   2.367  1.00 41.89 LIG 0.22  C 
ATOM     31 O    HIS C  66      16.774   2.626   1.954  1.00 44.58 LIG-0.29  OA
ENDBRANCH 23 30
ENDBRANCH 20 23
ENDBRANCH 4 19
TORSDOF 9
ENDMDL
MODEL 56
USER: ADFR SOLUTION from run 112
USER: SCORE 10.688478 LL:  -1.849 LR:  -8.840 RR:   0.000 FEB:  -6.155
USER: RMSD 4.971847
USER: SEED 111
USER: STATUS no improvement in best in 37 clusters for 5 generations
USER: GENES 11
USER: genes 0 Translation |==|  0.43393 0.24096 0.54026
USER: genes 1 Rotation |==|  0.27207 0.23948 0.31678 0.81082
USER: genes 2 Torsion [N]-C--CA-[N] |==|  0.43684
USER: genes 3 Torsion [C]-CA--CB-[CG] |==|  0.25194
USER: genes 4 Torsion [CA]-CB--CG-[CD2] |==|  0.65422
USER: genes 5 Torsion [CE2]-CZ--OH-[HH] |==|  0.93946
USER: genes 6 Torsion [N]-CA--C-[N] |==|  0.51226
USER: genes 7 Torsion [C]-N--CA-[C] |==|  0.54148
USER: genes 8 Torsion [N]-CA--CB-[CG] |==|  0.62564
USER: genes 9 Torsion [CA]-CB--CG-[ND1] |==|  0.56866
USER: genes 10 Torsion [N]-CA--C-[O] |==|  0.69116
ROOT
ATOM      1  C   TYR C  64      10.912  -4.829   7.802  1.00 51.57 LIG 0.26  C 
ATOM      2 O    TYR C  64      10.514  -5.994   7.777  1.00 54.62 LIG-0.27  OA
ATOM      3  N   PRO C  65      11.394  -4.259   8.919  1.00 43.10 LIG-0.34  N 
ATOM      4  CA  PRO C  65      12.012  -2.938   9.072  1.00 38.90 LIG 0.18  C 
ATOM      5  CB  PRO C  65      11.492  -2.482  10.427  1.00 40.80 LIG 0.04  C 
ATOM      6  CG  PRO C  65      11.375  -3.749  11.202  1.00 42.19 LIG 0.02  C 
ATOM      7  CD  PRO C  65      11.025  -4.836  10.223  1.00 44.37 LIG 0.13  C 
ENDROOT
BRANCH 1 8
ATOM      8  CA  TYR C  64      10.865  -3.979   6.534  1.00 49.73 LIG 0.40  C 
ATOM      9  N   TYR C  64      10.846  -4.858   5.367  1.00 50.52 LIG 0.61  N 
BRANCH 8 10
ATOM     10  CB  TYR C  64       9.613  -3.094   6.567  1.00 50.46 LIG 0.09  C 
BRANCH 10 11
ATOM     11  CG  TYR C  64       9.794  -1.731   7.197  1.00 47.68 LIG-0.06  A 
ATOM     12  CD2 TYR C  64       8.984  -1.329   8.253  1.00 48.34 LIG 0.01  A 
ATOM     13  CE2 TYR C  64       9.135  -0.086   8.840  1.00 49.15 LIG 0.04  A 
ATOM     14  CZ  TYR C  64      10.109   0.773   8.372  1.00 50.59 LIG 0.07  A 
ATOM     15  CE1 TYR C  64      10.929   0.400   7.326  1.00 46.73 LIG 0.04  A 
ATOM     16  CD1 TYR C  64      10.769  -0.847   6.745  1.00 46.22 LIG 0.01  A 
BRANCH 14 17
ATOM     17 OH   TYR C  64      10.265   2.011   8.952  1.00 53.82 LIG-0.36  OA
ATOM     18 HH   TYR C  64       9.554   2.229   9.344  1.00 53.82 LIG 0.22  HD
ENDBRANCH 14 17
ENDBRANCH 10 11
ENDBRANCH 8 10
ENDBRANCH 1 8
BRANCH 4 19
ATOM     19  C   PRO C  65      13.535  -3.021   9.108  1.00 37.07 LIG 0.24  C 
ATOM     20  N   HIS C  66      14.171  -1.874   9.336  1.00 40.38 LIG-0.35  N 
ATOM     21 H    HIS C  66      13.771  -1.118   9.422  1.00 40.38 LIG 0.16  HD
ATOM     22 O    PRO C  65      14.106  -4.110   8.919  1.00 29.28 LIG-0.27  OA
BRANCH 20 23
ATOM     23  CA  HIS C  66      15.619  -1.795   9.463  1.00 40.25 LIG 0.17  C 
BRANCH 23 24
ATOM     24  CB  HIS C  66      16.291  -1.981   8.095  1.00 42.68 LIG 0.09  C 
BRANCH 24 25
ATOM     25  CG  HIS C  66      17.462  -2.915   8.114  1.00 48.80 LIG 0.06  A 
ATOM     26 ND1  HIS C  66      18.480  -2.856   7.185  1.00 53.13 LIG-0.24  NA
ATOM     27  CE1 HIS C  66      19.371  -3.795   7.452  1.00 55.16 LIG 0.23  A 
ATOM     28 NE2  HIS C  66      18.968  -4.461   8.520  1.00 53.86 LIG-0.25  NA
ATOM     29  CD2 HIS C  66      17.776  -3.930   8.952  1.00 53.41 LIG 0.14  A 
ENDBRANCH 24 25
ENDBRANCH 23 24
BRANCH 23 30
ATOM     30  C   HIS C  66      16.049  -0.463  10.077  1.00 41.89 LIG 0.22  C 
ATOM     31 O    HIS C  66      16.651   0.376   9.402  1.00 44.58 LIG-0.29  OA
ENDBRANCH 23 30
ENDBRANCH 20 23
ENDBRANCH 4 19
TORSDOF 9
ENDMDL
MODEL 57
USER: ADFR SOLUTION from run 127
USER: SCORE 10.089605 LL:  -1.245 LR:  -8.845 RR:   0.000 FEB:  -6.160
USER: RMSD 2.391840
USER: SEED 126
USER: STATUS no improvement in best in 20 clusters for 5 generations
USER: GENES 11
USER: genes 0 Translation |==|  0.58883 0.37087 0.55414
USER: genes 1 Rotation |==|  0.51900 0.56150 0.47205 0.99505
USER: genes 2 Torsion [N]-C--CA-[N] |==|  0.42112
USER: genes 3 Torsion [C]-CA--CB-[CG] |==|  0.73261
USER: genes 4 Torsion [CA]-CB--CG-[CD2] |==|  0.11039
USER: genes 5 Torsion [CE2]-CZ--OH-[HH] |==|  0.23145
USER: genes 6 Torsion [N]-CA--C-[N] |==|  0.04535
USER: genes 7 Torsion [C]-N--CA-[C] |==|  0.78655
USER: genes 8 Torsion [N]-CA--CB-[CG] |==|  0.35243
USER: genes 9 Torsion [CA]-CB--CG-[ND1] |==|  0.73231
USER: genes 10 Torsion [N]-CA--C-[O] |==|  0.12857
ROOT
ATOM      1  C   TYR C  64      13.817  -2.783   8.051  1.00 51.57 LIG 0.26  C 
ATOM      2 O    TYR C  64      13.376  -3.410   7.088  1.00 54.62 LIG-0.27  OA
ATOM      3  N   PRO C  65      15.127  -2.525   8.202  1.00 43.10 LIG-0.34  N 
ATOM      4  CA  PRO C  65      15.779  -1.694   9.218  1.00 38.90 LIG 0.18  C 
ATOM      5  CB  PRO C  65      17.060  -2.464   9.505  1.00 40.80 LIG 0.04  C 
ATOM      6  CG  PRO C  65      17.399  -3.081   8.192  1.00 42.19 LIG 0.02  C 
ATOM      7  CD  PRO C  65      16.100  -3.373   7.492  1.00 44.37 LIG 0.13  C 
ENDROOT
BRANCH 1 8
ATOM      8  CA  TYR C  64      12.864  -2.271   9.130  1.00 49.73 LIG 0.40  C 
ATOM      9  N   TYR C  64      11.553  -2.025   8.533  1.00 50.52 LIG 0.61  N 
BRANCH 8 10
ATOM     10  CB  TYR C  64      12.763  -3.314  10.250  1.00 50.46 LIG 0.09  C 
BRANCH 10 11
ATOM     11  CG  TYR C  64      11.584  -4.257  10.158  1.00 47.68 LIG-0.06  A 
ATOM     12  CD2 TYR C  64      11.180  -4.763   8.928  1.00 48.34 LIG 0.01  A 
ATOM     13  CE2 TYR C  64      10.104  -5.625   8.826  1.00 49.15 LIG 0.04  A 
ATOM     14  CZ  TYR C  64       9.417  -5.993   9.965  1.00 50.59 LIG 0.07  A 
ATOM     15  CE1 TYR C  64       9.796  -5.507  11.201  1.00 46.73 LIG 0.04  A 
ATOM     16  CD1 TYR C  64      10.876  -4.644  11.292  1.00 46.22 LIG 0.01  A 
BRANCH 14 17
ATOM     17 OH   TYR C  64       8.344  -6.850   9.871  1.00 53.82 LIG-0.36  OA
ATOM     18 HH   TYR C  64       8.620  -7.644   9.854  1.00 53.82 LIG 0.22  HD
ENDBRANCH 14 17
ENDBRANCH 10 11
ENDBRANCH 8 10
ENDBRANCH 1 8
BRANCH 4 19
ATOM     19  C   PRO C  65      16.121  -0.306   8.687  1.00 37.07 LIG 0.24  C 
ATOM     20  N   HIS C  66      15.502   0.052   7.564  1.00 40.38 LIG-0.35  N 
ATOM     21 H    HIS C  66      14.970  -0.464   7.130  1.00 40.38 LIG 0.16  HD
ATOM     22 O    PRO C  65      16.942   0.409   9.290  1.00 29.28 LIG-0.27  OA
BRANCH 20 23
ATOM     23  CA  HIS C  66      15.672   1.367   6.964  1.00 40.25 LIG 0.17  C 
BRANCH 23 24
ATOM     24  CB  HIS C  66      15.250   1.344   5.488  1.00 42.68 LIG 0.09  C 
BRANCH 24 25
ATOM     25  CG  HIS C  66      14.246   2.396   5.125  1.00 48.80 LIG 0.06  A 
ATOM     26 ND1  HIS C  66      12.890   2.152   5.079  1.00 53.13 LIG-0.24  NA
ATOM     27  CE1 HIS C  66      12.256   3.259   4.736  1.00 55.16 LIG 0.23  A 
ATOM     28 NE2  HIS C  66      13.152   4.214   4.556  1.00 53.86 LIG-0.25  NA
ATOM     29  CD2 HIS C  66      14.405   3.699   4.793  1.00 53.41 LIG 0.14  A 
ENDBRANCH 24 25
ENDBRANCH 23 24
BRANCH 23 30
ATOM     30  C   HIS C  66      14.869   2.428   7.717  1.00 41.89 LIG 0.22  C 
ATOM     31 O    HIS C  66      14.899   2.482   8.949  1.00 44.58 LIG-0.29  OA
ENDBRANCH 23 30
ENDBRANCH 20 23
ENDBRANCH 4 19
TORSDOF 9
ENDMDL
MODEL 58
USER: ADFR SOLUTION from run 123
USER: SCORE 10.548460 LL:  -1.719 LR:  -8.830 RR:   0.000 FEB:  -6.145
USER: RMSD 9.166102
USER: SEED 122
USER: STATUS no improvement in best in 28 clusters for 5 generations
USER: GENES 11
USER: genes 0 Translation |==|  0.48891 0.33868 0.62389
USER: genes 1 Rotation |==|  0.62651 0.28307 0.92944 0.55018
USER: genes 2 Torsion [N]-C--CA-[N] |==|  0.37843
USER: genes 3 Torsion [C]-CA--CB-[CG] |==|  0.76836
USER: genes 4 Torsion [CA]-CB--CG-[CD2] |==|  0.77345
USER: genes 5 Torsion [CE2]-CZ--OH-[HH] |==|  0.13776
USER: genes 6 Torsion [N]-CA--C-[N] |==|  0.46683
USER: genes 7 Torsion [C]-N--CA-[C] |==|  0.15730
USER: genes 8 Torsion [N]-CA--CB-[CG] |==|  0.89678
USER: genes 9 Torsion [CA]-CB--CG-[ND1] |==|  0.28623
USER: genes 10 Torsion [N]-CA--C-[O] |==|  0.15429
ROOT
ATOM      1  C   TYR C  64      11.943  -3.290   9.307  1.00 51.57 LIG 0.26  C 
ATOM      2 O    TYR C  64      11.994  -2.060   9.267  1.00 54.62 LIG-0.27  OA
ATOM      3  N   PRO C  65      10.908  -3.948   9.856  1.00 43.10 LIG-0.34  N 
ATOM      4  CA  PRO C  65      10.651  -5.391   9.866  1.00 38.90 LIG 0.18  C 
ATOM      5  CB  PRO C  65      10.052  -5.612  11.248  1.00 40.80 LIG 0.04  C 
ATOM      6  CG  PRO C  65       9.305  -4.351  11.512  1.00 42.19 LIG 0.02  C 
ATOM      7  CD  PRO C  65      10.055  -3.241  10.827  1.00 44.37 LIG 0.13  C 
ENDROOT
BRANCH 1 8
ATOM      8  CA  TYR C  64      13.084  -4.121   8.724  1.00 49.73 LIG 0.40  C 
ATOM      9  N   TYR C  64      13.477  -3.557   7.435  1.00 50.52 LIG 0.61  N 
BRANCH 8 10
ATOM     10  CB  TYR C  64      14.265  -4.112   9.702  1.00 50.46 LIG 0.09  C 
BRANCH 10 11
ATOM     11  CG  TYR C  64      15.180  -2.911   9.609  1.00 47.68 LIG-0.06  A 
ATOM     12  CD2 TYR C  64      16.173  -2.854   8.637  1.00 48.34 LIG 0.01  A 
ATOM     13  CE2 TYR C  64      17.018  -1.765   8.539  1.00 49.15 LIG 0.04  A 
ATOM     14  CZ  TYR C  64      16.875  -0.712   9.419  1.00 50.59 LIG 0.07  A 
ATOM     15  CE1 TYR C  64      15.897  -0.740  10.394  1.00 46.73 LIG 0.04  A 
ATOM     16  CD1 TYR C  64      15.055  -1.836  10.483  1.00 46.22 LIG 0.01  A 
BRANCH 14 17
ATOM     17 OH   TYR C  64      17.714   0.376   9.327  1.00 53.82 LIG-0.36  OA
ATOM     18 HH   TYR C  64      17.739   0.644   8.531  1.00 53.82 LIG 0.22  HD
ENDBRANCH 14 17
ENDBRANCH 10 11
ENDBRANCH 8 10
ENDBRANCH 1 8
BRANCH 4 19
ATOM     19  C   PRO C  65       9.643  -5.800   8.797  1.00 37.07 LIG 0.24  C 
ATOM     20  N   HIS C  66       9.537  -7.108   8.572  1.00 40.38 LIG-0.35  N 
ATOM     21 H    HIS C  66      10.024  -7.698   8.964  1.00 40.38 LIG 0.16  HD
ATOM     22 O    PRO C  65       8.989  -4.933   8.191  1.00 29.28 LIG-0.27  OA
BRANCH 20 23
ATOM     23  CA  HIS C  66       8.577  -7.664   7.630  1.00 40.25 LIG 0.17  C 
BRANCH 23 24
ATOM     24  CB  HIS C  66       7.142  -7.418   8.116  1.00 42.68 LIG 0.09  C 
BRANCH 24 25
ATOM     25  CG  HIS C  66       6.975  -7.529   9.601  1.00 48.80 LIG 0.06  A 
ATOM     26 ND1  HIS C  66       6.862  -6.430  10.425  1.00 53.13 LIG-0.24  NA
ATOM     27  CE1 HIS C  66       6.724  -6.832  11.677  1.00 55.16 LIG 0.23  A 
ATOM     28 NE2  HIS C  66       6.744  -8.153  11.694  1.00 53.86 LIG-0.25  NA
ATOM     29  CD2 HIS C  66       6.901  -8.614  10.408  1.00 53.41 LIG 0.14  A 
ENDBRANCH 24 25
ENDBRANCH 23 24
BRANCH 23 30
ATOM     30  C   HIS C  66       8.762  -7.067   6.234  1.00 41.89 LIG 0.22  C 
ATOM     31 O    HIS C  66       9.855  -7.123   5.666  1.00 44.58 LIG-0.29  OA
ENDBRANCH 23 30
ENDBRANCH 20 23
ENDBRANCH 4 19
TORSDOF 9
ENDMDL
MODEL 59
USER: ADFR SOLUTION from run 15
USER: SCORE 10.750523 LL:  -1.943 LR:  -8.808 RR:   0.000 FEB:  -6.123
USER: RMSD 4.838336
USER: SEED 561694
USER: STATUS no improvement in best in 15 clusters for 5 generations
USER: GENES 11
USER: genes 0 Translation |==|  0.78121 0.45020 0.53908
USER: genes 1 Rotation |==|  0.34767 0.20699 0.85994 0.60671
USER: genes 2 Torsion [N]-C--CA-[N] |==|  0.39065
USER: genes 3 Torsion [C]-CA--CB-[CG] |==|  0.11129
USER: genes 4 Torsion [CA]-CB--CG-[CD2] |==|  0.25088
USER: genes 5 Torsion [CE2]-CZ--OH-[HH] |==|  0.69179
USER: genes 6 Torsion [N]-CA--C-[N] |==|  0.95413
USER: genes 7 Torsion [C]-N--CA-[C] |==|  0.82420
USER: genes 8 Torsion [N]-CA--CB-[CG] |==|  0.60777
USER: genes 9 Torsion [CA]-CB--CG-[ND1] |==|  0.39016
USER: genes 10 Torsion [N]-CA--C-[O] |==|  0.62858
ROOT
ATOM      1  C   TYR C  64      17.424  -1.533   7.780  1.00 51.57 LIG 0.26  C 
ATOM      2 O    TYR C  64      18.151  -0.751   8.393  1.00 54.62 LIG-0.27  OA
ATOM      3  N   PRO C  65      16.277  -1.142   7.199  1.00 43.10 LIG-0.34  N 
ATOM      4  CA  PRO C  65      15.380  -1.922   6.341  1.00 38.90 LIG 0.18  C 
ATOM      5  CB  PRO C  65      14.004  -1.431   6.766  1.00 40.80 LIG 0.04  C 
ATOM      6  CG  PRO C  65      14.235  -0.003   7.121  1.00 42.19 LIG 0.02  C 
ATOM      7  CD  PRO C  65      15.631   0.096   7.672  1.00 44.37 LIG 0.13  C 
ENDROOT
BRANCH 1 8
ATOM      8  CA  TYR C  64      17.812  -3.006   7.665  1.00 49.73 LIG 0.40  C 
ATOM      9  N   TYR C  64      19.253  -3.106   7.452  1.00 50.52 LIG 0.61  N 
BRANCH 8 10
ATOM     10  CB  TYR C  64      17.400  -3.738   8.948  1.00 50.46 LIG 0.09  C 
BRANCH 10 11
ATOM     11  CG  TYR C  64      16.062  -3.335   9.528  1.00 47.68 LIG-0.06  A 
ATOM     12  CD2 TYR C  64      14.900  -3.997   9.148  1.00 48.34 LIG 0.01  A 
ATOM     13  CE2 TYR C  64      13.670  -3.641   9.667  1.00 49.15 LIG 0.04  A 
ATOM     14  CZ  TYR C  64      13.590  -2.609  10.581  1.00 50.59 LIG 0.07  A 
ATOM     15  CE1 TYR C  64      14.728  -1.935  10.978  1.00 46.73 LIG 0.04  A 
ATOM     16  CD1 TYR C  64      15.956  -2.300  10.452  1.00 46.22 LIG 0.01  A 
BRANCH 14 17
ATOM     17 OH   TYR C  64      12.368  -2.249  11.102  1.00 53.82 LIG-0.36  OA
ATOM     18 HH   TYR C  64      12.151  -1.491  10.810  1.00 53.82 LIG 0.22  HD
ENDBRANCH 14 17
ENDBRANCH 10 11
ENDBRANCH 8 10
ENDBRANCH 1 8
BRANCH 4 19
ATOM     19  C   PRO C  65      15.599  -1.620   4.862  1.00 37.07 LIG 0.24  C 
ATOM     20  N   HIS C  66      16.276  -0.504   4.594  1.00 40.38 LIG-0.35  N 
ATOM     21 H    HIS C  66      16.546   0.044   5.198  1.00 40.38 LIG 0.16  HD
ATOM     22 O    PRO C  65      15.148  -2.387   3.994  1.00 29.28 LIG-0.27  OA
BRANCH 20 23
ATOM     23  CA  HIS C  66      16.622  -0.108   3.237  1.00 40.25 LIG 0.17  C 
BRANCH 23 24
ATOM     24  CB  HIS C  66      17.273   1.282   3.232  1.00 42.68 LIG 0.09  C 
BRANCH 24 25
ATOM     25  CG  HIS C  66      16.861   2.144   2.077  1.00 48.80 LIG 0.06  A 
ATOM     26 ND1  HIS C  66      16.617   3.495   2.202  1.00 53.13 LIG-0.24  NA
ATOM     27  CE1 HIS C  66      16.276   3.990   1.025  1.00 55.16 LIG 0.23  A 
ATOM     28 NE2  HIS C  66      16.288   3.008   0.141  1.00 53.86 LIG-0.25  NA
ATOM     29  CD2 HIS C  66      16.650   1.842   0.774  1.00 53.41 LIG 0.14  A 
ENDBRANCH 24 25
ENDBRANCH 23 24
BRANCH 23 30
ATOM     30  C   HIS C  66      17.560  -1.124   2.586  1.00 41.89 LIG 0.22  C 
ATOM     31 O    HIS C  66      18.564  -0.751   1.974  1.00 44.58 LIG-0.29  OA
ENDBRANCH 23 30
ENDBRANCH 20 23
ENDBRANCH 4 19
TORSDOF 9
ENDMDL
MODEL 60
USER: ADFR SOLUTION from run 164
USER: SCORE 10.292985 LL:  -1.487 LR:  -8.806 RR:   0.000 FEB:  -6.121
USER: RMSD 8.063216
USER: SEED 163
USER: STATUS no improvement in best in 32 clusters for 5 generations
USER: GENES 11
USER: genes 0 Translation |==|  0.68073 0.49027 0.51275
USER: genes 1 Rotation |==|  0.78631 0.23880 0.77846 0.64919
USER: genes 2 Torsion [N]-C--CA-[N] |==|  0.17613
USER: genes 3 Torsion [C]-CA--CB-[CG] |==|  0.45863
USER: genes 4 Torsion [CA]-CB--CG-[CD2] |==|  0.09446
USER: genes 5 Torsion [CE2]-CZ--OH-[HH] |==|  0.53176
USER: genes 6 Torsion [N]-CA--C-[N] |==|  0.92540
USER: genes 7 Torsion [C]-N--CA-[C] |==|  0.64827
USER: genes 8 Torsion [N]-CA--CB-[CG] |==|  0.78354
USER: genes 9 Torsion [CA]-CB--CG-[ND1] |==|  0.65129
USER: genes 10 Torsion [N]-CA--C-[O] |==|  0.05692
ROOT
ATOM      1  C   TYR C  64      15.540  -0.902   7.307  1.00 51.57 LIG 0.26  C 
ATOM      2 O    TYR C  64      15.923   0.239   7.565  1.00 54.62 LIG-0.27  OA
ATOM      3  N   PRO C  65      15.090  -1.740   8.256  1.00 43.10 LIG-0.34  N 
ATOM      4  CA  PRO C  65      14.491  -3.068   8.087  1.00 38.90 LIG 0.18  C 
ATOM      5  CB  PRO C  65      15.048  -3.837   9.277  1.00 40.80 LIG 0.04  C 
ATOM      6  CG  PRO C  65      15.166  -2.800  10.340  1.00 42.19 LIG 0.02  C 
ATOM      7  CD  PRO C  65      15.481  -1.498   9.656  1.00 44.37 LIG 0.13  C 
ENDROOT
BRANCH 1 8
ATOM      8  CA  TYR C  64      15.569  -1.410   5.867  1.00 49.73 LIG 0.40  C 
ATOM      9  N   TYR C  64      14.203  -1.692   5.430  1.00 50.52 LIG 0.61  N 
BRANCH 8 10
ATOM     10  CB  TYR C  64      16.217  -0.348   4.970  1.00 50.46 LIG 0.09  C 
BRANCH 10 11
ATOM     11  CG  TYR C  64      16.640  -0.824   3.597  1.00 47.68 LIG-0.06  A 
ATOM     12  CD2 TYR C  64      15.901  -1.794   2.928  1.00 48.34 LIG 0.01  A 
ATOM     13  CE2 TYR C  64      16.274  -2.240   1.675  1.00 49.15 LIG 0.04  A 
ATOM     14  CZ  TYR C  64      17.399  -1.715   1.072  1.00 50.59 LIG 0.07  A 
ATOM     15  CE1 TYR C  64      18.151  -0.749   1.712  1.00 46.73 LIG 0.04  A 
ATOM     16  CD1 TYR C  64      17.769  -0.308   2.968  1.00 46.22 LIG 0.01  A 
BRANCH 14 17
ATOM     17 OH   TYR C  64      17.776  -2.155  -0.176  1.00 53.82 LIG-0.36  OA
ATOM     18 HH   TYR C  64      18.548  -1.874  -0.351  1.00 53.82 LIG 0.22  HD
ENDBRANCH 14 17
ENDBRANCH 10 11
ENDBRANCH 8 10
ENDBRANCH 1 8
BRANCH 4 19
ATOM     19  C   PRO C  65      12.969  -3.023   8.171  1.00 37.07 LIG 0.24  C 
ATOM     20  N   HIS C  66      12.459  -2.028   8.895  1.00 40.38 LIG-0.35  N 
ATOM     21 H    HIS C  66      12.939  -1.460   9.327  1.00 40.38 LIG 0.16  HD
ATOM     22 O    PRO C  65      12.285  -3.887   7.595  1.00 29.28 LIG-0.27  OA
BRANCH 20 23
ATOM     23  CA  HIS C  66      11.026  -1.809   9.023  1.00 40.25 LIG 0.17  C 
BRANCH 23 24
ATOM     24  CB  HIS C  66      10.559  -2.118  10.452  1.00 42.68 LIG 0.09  C 
BRANCH 24 25
ATOM     25  CG  HIS C  66      10.417  -3.582  10.742  1.00 48.80 LIG 0.06  A 
ATOM     26 ND1  HIS C  66       9.252  -4.138  11.229  1.00 53.13 LIG-0.24  NA
ATOM     27  CE1 HIS C  66       9.420  -5.439  11.384  1.00 55.16 LIG 0.23  A 
ATOM     28 NE2  HIS C  66      10.651  -5.748  11.017  1.00 53.86 LIG-0.25  NA
ATOM     29  CD2 HIS C  66      11.296  -4.603  10.612  1.00 53.41 LIG 0.14  A 
ENDBRANCH 24 25
ENDBRANCH 23 24
BRANCH 23 30
ATOM     30  C   HIS C  66      10.651  -0.374   8.653  1.00 41.89 LIG 0.22  C 
ATOM     31 O    HIS C  66      11.404   0.315   7.960  1.00 44.58 LIG-0.29  OA
ENDBRANCH 23 30
ENDBRANCH 20 23
ENDBRANCH 4 19
TORSDOF 9
ENDMDL
MODEL 61
USER: ADFR SOLUTION from run 100
USER: SCORE 10.231217 LL:  -1.455 LR:  -8.776 RR:   0.000 FEB:  -6.092
USER: RMSD 8.210347
USER: SEED 99
USER: STATUS no improvement in best in 21 clusters for 5 generations
USER: GENES 11
USER: genes 0 Translation |==|  0.50602 0.33642 0.66841
USER: genes 1 Rotation |==|  0.68274 0.07302 0.65429 0.60242
USER: genes 2 Torsion [N]-C--CA-[N] |==|  0.30620
USER: genes 3 Torsion [C]-CA--CB-[CG] |==|  0.74455
USER: genes 4 Torsion [CA]-CB--CG-[CD2] |==|  0.23205
USER: genes 5 Torsion [CE2]-CZ--OH-[HH] |==|  0.30011
USER: genes 6 Torsion [N]-CA--C-[N] |==|  0.05717
USER: genes 7 Torsion [C]-N--CA-[C] |==|  0.19131
USER: genes 8 Torsion [N]-CA--CB-[CG] |==|  0.39929
USER: genes 9 Torsion [CA]-CB--CG-[ND1] |==|  0.22127
USER: genes 10 Torsion [N]-CA--C-[O] |==|  0.10609
ROOT
ATOM      1  C   TYR C  64      12.264  -3.325  10.108  1.00 51.57 LIG 0.26  C 
ATOM      2 O    TYR C  64      13.016  -2.999  11.027  1.00 54.62 LIG-0.27  OA
ATOM      3  N   PRO C  65      11.115  -3.988  10.323  1.00 43.10 LIG-0.34  N 
ATOM      4  CA  PRO C  65      10.069  -4.332   9.354  1.00 38.90 LIG 0.18  C 
ATOM      5  CB  PRO C  65       9.626  -5.712   9.819  1.00 40.80 LIG 0.04  C 
ATOM      6  CG  PRO C  65       9.793  -5.654  11.298  1.00 42.19 LIG 0.02  C 
ATOM      7  CD  PRO C  65      10.959  -4.746  11.577  1.00 44.37 LIG 0.13  C 
ENDROOT
BRANCH 1 8
ATOM      8  CA  TYR C  64      12.626  -2.981   8.665  1.00 49.73 LIG 0.40  C 
ATOM      9  N   TYR C  64      12.512  -1.537   8.474  1.00 50.52 LIG 0.61  N 
BRANCH 8 10
ATOM     10  CB  TYR C  64      14.056  -3.455   8.378  1.00 50.46 LIG 0.09  C 
BRANCH 10 11
ATOM     11  CG  TYR C  64      15.144  -2.431   8.622  1.00 47.68 LIG-0.06  A 
ATOM     12  CD2 TYR C  64      15.659  -2.240   9.899  1.00 48.34 LIG 0.01  A 
ATOM     13  CE2 TYR C  64      16.651  -1.309  10.140  1.00 49.15 LIG 0.04  A 
ATOM     14  CZ  TYR C  64      17.143  -0.554   9.094  1.00 50.59 LIG 0.07  A 
ATOM     15  CE1 TYR C  64      16.651  -0.723   7.815  1.00 46.73 LIG 0.04  A 
ATOM     16  CD1 TYR C  64      15.657  -1.659   7.585  1.00 46.22 LIG 0.01  A 
BRANCH 14 17
ATOM     17 OH   TYR C  64      18.131   0.376   9.327  1.00 53.82 LIG-0.36  OA
ATOM     18 HH   TYR C  64      18.856   0.101   9.004  1.00 53.82 LIG 0.22  HD
ENDBRANCH 14 17
ENDBRANCH 10 11
ENDBRANCH 8 10
ENDBRANCH 1 8
BRANCH 4 19
ATOM     19  C   PRO C  65       8.891  -3.365   9.420  1.00 37.07 LIG 0.24  C 
ATOM     20  N   HIS C  66       9.144  -2.182   9.976  1.00 40.38 LIG-0.35  N 
ATOM     21 H    HIS C  66       9.904  -1.970  10.318  1.00 40.38 LIG 0.16  HD
ATOM     22 O    PRO C  65       7.778  -3.705   8.980  1.00 29.28 LIG-0.27  OA
BRANCH 20 23
ATOM     23  CA  HIS C  66       8.144  -1.127  10.057  1.00 40.25 LIG 0.17  C 
BRANCH 23 24
ATOM     24  CB  HIS C  66       7.554  -0.836   8.670  1.00 42.68 LIG 0.09  C 
BRANCH 24 25
ATOM     25  CG  HIS C  66       6.094  -0.500   8.688  1.00 48.80 LIG 0.06  A 
ATOM     26 ND1  HIS C  66       5.619   0.750   9.027  1.00 53.13 LIG-0.24  NA
ATOM     27  CE1 HIS C  66       4.300   0.752   8.952  1.00 55.16 LIG 0.23  A 
ATOM     28 NE2  HIS C  66       3.901  -0.451   8.578  1.00 53.86 LIG-0.25  NA
ATOM     29  CD2 HIS C  66       5.006  -1.253   8.407  1.00 53.41 LIG 0.14  A 
ENDBRANCH 24 25
ENDBRANCH 23 24
BRANCH 23 30
ATOM     30  C   HIS C  66       7.025  -1.499  11.030  1.00 41.89 LIG 0.22  C 
ATOM     31 O    HIS C  66       7.276  -2.100  12.078  1.00 44.58 LIG-0.29  OA
ENDBRANCH 23 30
ENDBRANCH 20 23
ENDBRANCH 4 19
TORSDOF 9
ENDMDL
MODEL 62
USER: ADFR SOLUTION from run 199
USER: SCORE 10.623532 LL:  -1.848 LR:  -8.776 RR:   0.000 FEB:  -6.091
USER: RMSD 4.599866
USER: SEED 198
USER: STATUS no improvement in best in 51 clusters for 5 generations
USER: GENES 11
USER: genes 0 Translation |==|  0.43795 0.47251 0.61171
USER: genes 1 Rotation |==|  0.91900 0.62903 0.36953 0.70191
USER: genes 2 Torsion [N]-C--CA-[N] |==|  0.14274
USER: genes 3 Torsion [C]-CA--CB-[CG] |==|  0.27028
USER: genes 4 Torsion [CA]-CB--CG-[CD2] |==|  0.78582
USER: genes 5 Torsion [CE2]-CZ--OH-[HH] |==|  0.09690
USER: genes 6 Torsion [N]-CA--C-[N] |==|  0.99640
USER: genes 7 Torsion [C]-N--CA-[C] |==|  0.70803
USER: genes 8 Torsion [N]-CA--CB-[CG] |==|  0.92768
USER: genes 9 Torsion [CA]-CB--CG-[ND1] |==|  0.35026
USER: genes 10 Torsion [N]-CA--C-[O] |==|  0.99490
ROOT
ATOM      1  C   TYR C  64      10.988  -1.182   9.088  1.00 51.57 LIG 0.26  C 
ATOM      2 O    TYR C  64      10.651  -0.016   9.296  1.00 54.62 LIG-0.27  OA
ATOM      3  N   PRO C  65      12.035  -1.498   8.308  1.00 43.10 LIG-0.34  N 
ATOM      4  CA  PRO C  65      12.625  -2.819   8.069  1.00 38.90 LIG 0.18  C 
ATOM      5  CB  PRO C  65      13.003  -2.753   6.596  1.00 40.80 LIG 0.04  C 
ATOM      6  CG  PRO C  65      13.365  -1.323   6.391  1.00 42.19 LIG 0.02  C 
ATOM      7  CD  PRO C  65      12.505  -0.511   7.320  1.00 44.37 LIG 0.13  C 
ENDROOT
BRANCH 1 8
ATOM      8  CA  TYR C  64      10.203  -2.329   9.722  1.00 49.73 LIG 0.40  C 
ATOM      9  N   TYR C  64      11.133  -3.225  10.404  1.00 50.52 LIG 0.61  N 
BRANCH 8 10
ATOM     10  CB  TYR C  64       9.180  -1.754  10.709  1.00 50.46 LIG 0.09  C 
BRANCH 10 11
ATOM     11  CG  TYR C  64       7.775  -1.593  10.172  1.00 47.68 LIG-0.06  A 
ATOM     12  CD2 TYR C  64       7.460  -0.535   9.327  1.00 48.34 LIG 0.01  A 
ATOM     13  CE2 TYR C  64       6.181  -0.373   8.828  1.00 49.15 LIG 0.04  A 
ATOM     14  CZ  TYR C  64       5.197  -1.277   9.172  1.00 50.59 LIG 0.07  A 
ATOM     15  CE1 TYR C  64       5.481  -2.338  10.009  1.00 46.73 LIG 0.04  A 
ATOM     16  CD1 TYR C  64       6.766  -2.492  10.503  1.00 46.22 LIG 0.01  A 
BRANCH 14 17
ATOM     17 OH   TYR C  64       3.921  -1.121   8.680  1.00 53.82 LIG-0.36  OA
ATOM     18 HH   TYR C  64       3.958  -0.810   7.900  1.00 53.82 LIG 0.22  HD
ENDBRANCH 14 17
ENDBRANCH 10 11
ENDBRANCH 8 10
ENDBRANCH 1 8
BRANCH 4 19
ATOM     19  C   PRO C  65      13.877  -3.046   8.911  1.00 37.07 LIG 0.24  C 
ATOM     20  N   HIS C  66      14.244  -2.028   9.687  1.00 40.38 LIG-0.35  N 
ATOM     21 H    HIS C  66      13.838  -1.270   9.700  1.00 40.38 LIG 0.16  HD
ATOM     22 O    PRO C  65      14.493  -4.123   8.837  1.00 29.28 LIG-0.27  OA
BRANCH 20 23
ATOM     23  CA  HIS C  66      15.378  -2.108  10.596  1.00 40.25 LIG 0.17  C 
BRANCH 23 24
ATOM     24  CB  HIS C  66      16.272  -0.868  10.452  1.00 42.68 LIG 0.09  C 
BRANCH 24 25
ATOM     25  CG  HIS C  66      16.191  -0.212   9.107  1.00 48.80 LIG 0.06  A 
ATOM     26 ND1  HIS C  66      15.901   1.126   8.943  1.00 53.13 LIG-0.24  NA
ATOM     27  CE1 HIS C  66      15.901   1.420   7.655  1.00 55.16 LIG 0.23  A 
ATOM     28 NE2  HIS C  66      16.179   0.321   6.976  1.00 53.86 LIG-0.25  NA
ATOM     29  CD2 HIS C  66      16.364  -0.714   7.862  1.00 53.41 LIG 0.14  A 
ENDBRANCH 24 25
ENDBRANCH 23 24
BRANCH 23 30
ATOM     30  C   HIS C  66      14.916  -2.249  12.046  1.00 41.89 LIG 0.22  C 
ATOM     31 O    HIS C  66      13.714  -2.249  12.327  1.00 44.58 LIG-0.29  OA
ENDBRANCH 23 30
ENDBRANCH 20 23
ENDBRANCH 4 19
TORSDOF 9
ENDMDL
MODEL 63
USER: ADFR SOLUTION from run 39
USER: SCORE 10.529643 LL:  -1.763 LR:  -8.766 RR:   0.000 FEB:  -6.082
USER: RMSD 7.569715
USER: SEED 38
USER: STATUS no improvement in best in 25 clusters for 5 generations
USER: GENES 11
USER: genes 0 Translation |==|  0.58256 0.33334 0.58486
USER: genes 1 Rotation |==|  0.49157 0.63296 0.97008 0.60617
USER: genes 2 Torsion [N]-C--CA-[N] |==|  0.27701
USER: genes 3 Torsion [C]-CA--CB-[CG] |==|  0.11059
USER: genes 4 Torsion [CA]-CB--CG-[CD2] |==|  0.71237
USER: genes 5 Torsion [CE2]-CZ--OH-[HH] |==|  0.90844
USER: genes 6 Torsion [N]-CA--C-[N] |==|  0.78662
USER: genes 7 Torsion [C]-N--CA-[C] |==|  0.17384
USER: genes 8 Torsion [N]-CA--CB-[CG] |==|  0.83042
USER: genes 9 Torsion [CA]-CB--CG-[ND1] |==|  0.60808
USER: genes 10 Torsion [N]-CA--C-[O] |==|  0.06456
ROOT
ATOM      1  C   TYR C  64      13.699  -3.374   8.605  1.00 51.57 LIG 0.26  C 
ATOM      2 O    TYR C  64      14.030  -3.355   7.419  1.00 54.62 LIG-0.27  OA
ATOM      3  N   PRO C  65      12.472  -3.009   9.013  1.00 43.10 LIG-0.34  N 
ATOM      4  CA  PRO C  65      11.899  -3.096  10.360  1.00 38.90 LIG 0.18  C 
ATOM      5  CB  PRO C  65      11.064  -1.826  10.448  1.00 40.80 LIG 0.04  C 
ATOM      6  CG  PRO C  65      10.589  -1.621   9.052  1.00 42.19 LIG 0.02  C 
ATOM      7  CD  PRO C  65      11.663  -2.143   8.137  1.00 44.37 LIG 0.13  C 
ENDROOT
BRANCH 1 8
ATOM      8  CA  TYR C  64      14.699  -3.819   9.669  1.00 49.73 LIG 0.40  C 
ATOM      9  N   TYR C  64      14.746  -5.279   9.702  1.00 50.52 LIG 0.61  N 
BRANCH 8 10
ATOM     10  CB  TYR C  64      16.080  -3.240   9.339  1.00 50.46 LIG 0.09  C 
BRANCH 10 11
ATOM     11  CG  TYR C  64      16.082  -1.819   8.817  1.00 47.68 LIG-0.06  A 
ATOM     12  CD2 TYR C  64      16.270  -1.565   7.463  1.00 48.34 LIG 0.01  A 
ATOM     13  CE2 TYR C  64      16.276  -0.274   6.970  1.00 49.15 LIG 0.04  A 
ATOM     14  CZ  TYR C  64      16.091   0.785   7.835  1.00 50.59 LIG 0.07  A 
ATOM     15  CE1 TYR C  64      15.901   0.563   9.185  1.00 46.73 LIG 0.04  A 
ATOM     16  CD1 TYR C  64      15.896  -0.735   9.669  1.00 46.22 LIG 0.01  A 
BRANCH 14 17
ATOM     17 OH   TYR C  64      16.097   2.074   7.351  1.00 53.82 LIG-0.36  OA
ATOM     18 HH   TYR C  64      16.628   2.127   6.702  1.00 53.82 LIG 0.22  HD
ENDBRANCH 14 17
ENDBRANCH 10 11
ENDBRANCH 8 10
ENDBRANCH 1 8
BRANCH 4 19
ATOM     19  C   PRO C  65      10.997  -4.315  10.519  1.00 37.07 LIG 0.24  C 
ATOM     20  N   HIS C  66       9.788  -4.216   9.971  1.00 40.38 LIG-0.35  N 
ATOM     21 H    HIS C  66       9.500  -3.505   9.581  1.00 40.38 LIG 0.16  HD
ATOM     22 O    PRO C  65      11.401  -5.315  11.140  1.00 29.28 LIG-0.27  OA
BRANCH 20 23
ATOM     23  CA  HIS C  66       8.833  -5.314   9.981  1.00 40.25 LIG 0.17  C 
BRANCH 23 24
ATOM     24  CB  HIS C  66       9.413  -6.539   9.261  1.00 42.68 LIG 0.09  C 
BRANCH 24 25
ATOM     25  CG  HIS C  66       9.742  -6.298   7.819  1.00 48.80 LIG 0.06  A 
ATOM     26 ND1  HIS C  66       9.519  -7.238   6.834  1.00 53.13 LIG-0.24  NA
ATOM     27  CE1 HIS C  66       9.901  -6.749   5.667  1.00 55.16 LIG 0.23  A 
ATOM     28 NE2  HIS C  66      10.364  -5.526   5.859  1.00 53.86 LIG-0.25  NA
ATOM     29  CD2 HIS C  66      10.276  -5.221   7.197  1.00 53.41 LIG 0.14  A 
ENDBRANCH 24 25
ENDBRANCH 23 24
BRANCH 23 30
ATOM     30  C   HIS C  66       8.437  -5.690  11.409  1.00 41.89 LIG 0.22  C 
ATOM     31 O    HIS C  66       8.546  -4.874  12.328  1.00 44.58 LIG-0.29  OA
ENDBRANCH 23 30
ENDBRANCH 20 23
ENDBRANCH 4 19
TORSDOF 9
ENDMDL
MODEL 64
USER: ADFR SOLUTION from run 161
USER: SCORE 10.530603 LL:  -1.760 LR:  -8.770 RR:   0.000 FEB:  -6.085
USER: RMSD 7.166321
USER: SEED 160
USER: STATUS no improvement in best in 19 clusters for 5 generations
USER: GENES 11
USER: genes 0 Translation |==|  0.71252 0.53799 0.60231
USER: genes 1 Rotation |==|  0.09632 0.75122 0.39125 0.61003
USER: genes 2 Torsion [N]-C--CA-[N] |==|  0.14598
USER: genes 3 Torsion [C]-CA--CB-[CG] |==|  0.44444
USER: genes 4 Torsion [CA]-CB--CG-[CD2] |==|  0.12312
USER: genes 5 Torsion [CE2]-CZ--OH-[HH] |==|  0.70632
USER: genes 6 Torsion [N]-CA--C-[N] |==|  0.07405
USER: genes 7 Torsion [C]-N--CA-[C] |==|  0.69554
USER: genes 8 Torsion [N]-CA--CB-[CG] |==|  0.04853
USER: genes 9 Torsion [CA]-CB--CG-[ND1] |==|  0.83614
USER: genes 10 Torsion [N]-CA--C-[O] |==|  0.97453
ROOT
ATOM      1  C   TYR C  64      16.136  -0.151   8.919  1.00 51.57 LIG 0.26  C 
ATOM      2 O    TYR C  64      16.051   0.118  10.117  1.00 54.62 LIG-0.27  OA
ATOM      3  N   PRO C  65      16.563  -1.347   8.480  1.00 43.10 LIG-0.34  N 
ATOM      4  CA  PRO C  65      16.600  -1.850   7.103  1.00 38.90 LIG 0.18  C 
ATOM      5  CB  PRO C  65      17.894  -2.652   7.077  1.00 40.80 LIG 0.04  C 
ATOM      6  CG  PRO C  65      17.998  -3.195   8.460  1.00 42.19 LIG 0.02  C 
ATOM      7  CD  PRO C  65      17.377  -2.181   9.382  1.00 44.37 LIG 0.13  C 
ENDROOT
BRANCH 1 8
ATOM      8  CA  TYR C  64      15.752   0.894   7.873  1.00 49.73 LIG 0.40  C 
ATOM      9  N   TYR C  64      14.792   0.308   6.940  1.00 50.52 LIG 0.61  N 
BRANCH 8 10
ATOM     10  CB  TYR C  64      15.148   2.115   8.577  1.00 50.46 LIG 0.09  C 
BRANCH 10 11
ATOM     11  CG  TYR C  64      15.151   3.398   7.775  1.00 47.68 LIG-0.06  A 
ATOM     12  CD2 TYR C  64      14.775   3.393   6.436  1.00 48.34 LIG 0.01  A 
ATOM     13  CE2 TYR C  64      14.773   4.556   5.688  1.00 49.15 LIG 0.04  A 
ATOM     14  CZ  TYR C  64      15.150   5.745   6.279  1.00 50.59 LIG 0.07  A 
ATOM     15  CE1 TYR C  64      15.528   5.780   7.607  1.00 46.73 LIG 0.04  A 
ATOM     16  CD1 TYR C  64      15.526   4.609   8.347  1.00 46.22 LIG 0.01  A 
BRANCH 14 17
ATOM     17 OH   TYR C  64      15.151   6.906   5.540  1.00 53.82 LIG-0.36  OA
ATOM     18 HH   TYR C  64      15.943   7.123   5.359  1.00 53.82 LIG 0.22  HD
ENDBRANCH 14 17
ENDBRANCH 10 11
ENDBRANCH 8 10
ENDBRANCH 1 8
BRANCH 4 19
ATOM     19  C   PRO C  65      15.421  -2.768   6.800  1.00 37.07 LIG 0.24  C 
ATOM     20  N   HIS C  66      14.322  -2.555   7.521  1.00 40.38 LIG-0.35  N 
ATOM     21 H    HIS C  66      14.271  -1.970   8.149  1.00 40.38 LIG 0.16  HD
ATOM     22 O    PRO C  65      15.525  -3.654   5.933  1.00 29.28 LIG-0.27  OA
BRANCH 20 23
ATOM     23  CA  HIS C  66      13.091  -3.304   7.310  1.00 40.25 LIG 0.17  C 
BRANCH 23 24
ATOM     24  CB  HIS C  66      12.588  -3.898   8.633  1.00 42.68 LIG 0.09  C 
BRANCH 24 25
ATOM     25  CG  HIS C  66      13.188  -3.265   9.851  1.00 48.80 LIG 0.06  A 
ATOM     26 ND1  HIS C  66      14.546  -3.249  10.094  1.00 53.13 LIG-0.24  NA
ATOM     27  CE1 HIS C  66      14.780  -2.624  11.234  1.00 55.16 LIG 0.23  A 
ATOM     28 NE2  HIS C  66      13.623  -2.234  11.741  1.00 53.86 LIG-0.25  NA
ATOM     29  CD2 HIS C  66      12.612  -2.624  10.895  1.00 53.41 LIG 0.14  A 
ENDBRANCH 24 25
ENDBRANCH 23 24
BRANCH 23 30
ATOM     30  C   HIS C  66      12.007  -2.422   6.691  1.00 41.89 LIG 0.22  C 
ATOM     31 O    HIS C  66      12.169  -1.203   6.589  1.00 44.58 LIG-0.29  OA
ENDBRANCH 23 30
ENDBRANCH 20 23
ENDBRANCH 4 19
TORSDOF 9
ENDMDL
MODEL 65
USER: ADFR SOLUTION from run 172
USER: SCORE 10.872069 LL:  -2.114 LR:  -8.758 RR:   0.000 FEB:  -6.074
USER: RMSD 8.110289
USER: SEED 171
USER: STATUS no improvement in best in 32 clusters for 5 generations
USER: GENES 11
USER: genes 0 Translation |==|  0.57826 0.33333 0.58861
USER: genes 1 Rotation |==|  0.51012 0.63806 0.97087 0.59548
USER: genes 2 Torsion [N]-C--CA-[N] |==|  0.27369
USER: genes 3 Torsion [C]-CA--CB-[CG] |==|  0.12230
USER: genes 4 Torsion [CA]-CB--CG-[CD2] |==|  0.71020
USER: genes 5 Torsion [CE2]-CZ--OH-[HH] |==|  0.93211
USER: genes 6 Torsion [N]-CA--C-[N] |==|  0.92894
USER: genes 7 Torsion [C]-N--CA-[C] |==|  0.51579
USER: genes 8 Torsion [N]-CA--CB-[CG] |==|  0.07691
USER: genes 9 Torsion [CA]-CB--CG-[ND1] |==|  0.14554
USER: genes 10 Torsion [N]-CA--C-[O] |==|  0.01082
ROOT
ATOM      1  C   TYR C  64      13.618  -3.374   8.672  1.00 51.57 LIG 0.26  C 
ATOM      2 O    TYR C  64      13.846  -3.353   7.462  1.00 54.62 LIG-0.27  OA
ATOM      3  N   PRO C  65      12.423  -3.033   9.183  1.00 43.10 LIG-0.34  N 
ATOM      4  CA  PRO C  65      11.970  -3.126  10.574  1.00 38.90 LIG 0.18  C 
ATOM      5  CB  PRO C  65      11.119  -1.873  10.730  1.00 40.80 LIG 0.04  C 
ATOM      6  CG  PRO C  65      10.522  -1.684   9.379  1.00 42.19 LIG 0.02  C 
ATOM      7  CD  PRO C  65      11.525  -2.187   8.377  1.00 44.37 LIG 0.13  C 
ENDROOT
BRANCH 1 8
ATOM      8  CA  TYR C  64      14.715  -3.794   9.649  1.00 49.73 LIG 0.40  C 
ATOM      9  N   TYR C  64      14.775  -5.253   9.702  1.00 50.52 LIG 0.61  N 
BRANCH 8 10
ATOM     10  CB  TYR C  64      16.055  -3.212   9.183  1.00 50.46 LIG 0.09  C 
BRANCH 10 11
ATOM     11  CG  TYR C  64      16.017  -1.769   8.732  1.00 47.68 LIG-0.06  A 
ATOM     12  CD2 TYR C  64      16.063  -1.451   7.379  1.00 48.34 LIG 0.01  A 
ATOM     13  CE2 TYR C  64      16.030  -0.137   6.950  1.00 49.15 LIG 0.04  A 
ATOM     14  CZ  TYR C  64      15.949   0.880   7.880  1.00 50.59 LIG 0.07  A 
ATOM     15  CE1 TYR C  64      15.901   0.594   9.230  1.00 46.73 LIG 0.04  A 
ATOM     16  CD1 TYR C  64      15.934  -0.725   9.649  1.00 46.22 LIG 0.01  A 
BRANCH 14 17
ATOM     17 OH   TYR C  64      15.917   2.190   7.459  1.00 53.82 LIG-0.36  OA
ATOM     18 HH   TYR C  64      16.277   2.251   6.702  1.00 53.82 LIG 0.22  HD
ENDBRANCH 14 17
ENDBRANCH 10 11
ENDBRANCH 8 10
ENDBRANCH 1 8
BRANCH 4 19
ATOM     19  C   PRO C  65      11.110  -4.363  10.813  1.00 37.07 LIG 0.24  C 
ATOM     20  N   HIS C  66      10.475  -4.841   9.744  1.00 40.38 LIG-0.35  N 
ATOM     21 H    HIS C  66      10.503  -4.469   8.970  1.00 40.38 LIG 0.16  HD
ATOM     22 O    PRO C  65      11.026  -4.855  11.952  1.00 29.28 LIG-0.27  OA
BRANCH 20 23
ATOM     23  CA  HIS C  66       9.667  -6.050   9.792  1.00 40.25 LIG 0.17  C 
BRANCH 23 24
ATOM     24  CB  HIS C  66       8.471  -5.862  10.736  1.00 42.68 LIG 0.09  C 
BRANCH 24 25
ATOM     25  CG  HIS C  66       8.012  -4.441  10.861  1.00 48.80 LIG 0.06  A 
ATOM     26 ND1  HIS C  66       7.715  -3.653   9.770  1.00 53.13 LIG-0.24  NA
ATOM     27  CE1 HIS C  66       7.337  -2.456  10.183  1.00 55.16 LIG 0.23  A 
ATOM     28 NE2  HIS C  66       7.379  -2.439  11.504  1.00 53.86 LIG-0.25  NA
ATOM     29  CD2 HIS C  66       7.800  -3.669  11.952  1.00 53.41 LIG 0.14  A 
ENDBRANCH 24 25
ENDBRANCH 23 24
BRANCH 23 30
ATOM     30  C   HIS C  66       9.173  -6.441   8.399  1.00 41.89 LIG 0.22  C 
ATOM     31 O    HIS C  66       9.526  -5.803   7.404  1.00 44.58 LIG-0.29  OA
ENDBRANCH 23 30
ENDBRANCH 20 23
ENDBRANCH 4 19
TORSDOF 9
ENDMDL
MODEL 66
USER: ADFR SOLUTION from run 99
USER: SCORE 10.793689 LL:  -2.029 LR:  -8.765 RR:   0.000 FEB:  -6.080
USER: RMSD 4.777781
USER: SEED 98
USER: STATUS no improvement in best in 37 clusters for 5 generations
USER: GENES 11
USER: genes 0 Translation |==|  0.50050 0.44219 0.56038
USER: genes 1 Rotation |==|  0.85934 0.64933 0.32988 0.76388
USER: genes 2 Torsion [N]-C--CA-[N] |==|  0.37046
USER: genes 3 Torsion [C]-CA--CB-[CG] |==|  0.22659
USER: genes 4 Torsion [CA]-CB--CG-[CD2] |==|  0.80540
USER: genes 5 Torsion [CE2]-CZ--OH-[HH] |==|  0.26440
USER: genes 6 Torsion [N]-CA--C-[N] |==|  0.76351
USER: genes 7 Torsion [C]-N--CA-[C] |==|  0.17217
USER: genes 8 Torsion [N]-CA--CB-[CG] |==|  0.87708
USER: genes 9 Torsion [CA]-CB--CG-[ND1] |==|  0.45196
USER: genes 10 Torsion [N]-CA--C-[O] |==|  0.33962
ROOT
ATOM      1  C   TYR C  64      12.160  -1.659   8.164  1.00 51.57 LIG 0.26  C 
ATOM      2 O    TYR C  64      11.680  -0.530   8.062  1.00 54.62 LIG-0.27  OA
ATOM      3  N   PRO C  65      13.125  -2.106   7.342  1.00 43.10 LIG-0.34  N 
ATOM      4  CA  PRO C  65      13.872  -3.365   7.417  1.00 38.90 LIG 0.18  C 
ATOM      5  CB  PRO C  65      14.026  -3.749   5.952  1.00 40.80 LIG 0.04  C 
ATOM      6  CG  PRO C  65      14.130  -2.437   5.255  1.00 42.19 LIG 0.02  C 
ATOM      7  CD  PRO C  65      13.294  -1.456   6.030  1.00 44.37 LIG 0.13  C 
ENDROOT
BRANCH 1 8
ATOM      8  CA  TYR C  64      11.659  -2.607   9.251  1.00 49.73 LIG 0.40  C 
ATOM      9  N   TYR C  64      11.595  -1.889  10.521  1.00 50.52 LIG 0.61  N 
BRANCH 8 10
ATOM     10  CB  TYR C  64      10.274  -3.138   8.858  1.00 50.46 LIG 0.09  C 
BRANCH 10 11
ATOM     11  CG  TYR C  64      10.273  -4.295   7.884  1.00 47.68 LIG-0.06  A 
ATOM     12  CD2 TYR C  64      10.647  -4.102   6.559  1.00 48.34 LIG 0.01  A 
ATOM     13  CE2 TYR C  64      10.650  -5.148   5.655  1.00 49.15 LIG 0.04  A 
ATOM     14  CZ  TYR C  64      10.276  -6.409   6.073  1.00 50.59 LIG 0.07  A 
ATOM     15  CE1 TYR C  64       9.901  -6.631   7.384  1.00 46.73 LIG 0.04  A 
ATOM     16  CD1 TYR C  64       9.902  -5.576   8.281  1.00 46.22 LIG 0.01  A 
BRANCH 14 17
ATOM     17 OH   TYR C  64      10.276  -7.455   5.179  1.00 53.82 LIG-0.36  OA
ATOM     18 HH   TYR C  64      11.003  -7.873   5.236  1.00 53.82 LIG 0.22  HD
ENDBRANCH 14 17
ENDBRANCH 10 11
ENDBRANCH 8 10
ENDBRANCH 1 8
BRANCH 4 19
ATOM     19  C   PRO C  65      15.249  -3.175   8.045  1.00 37.07 LIG 0.24  C 
ATOM     20  N   HIS C  66      16.216  -2.793   7.213  1.00 40.38 LIG-0.35  N 
ATOM     21 H    HIS C  66      16.102  -2.692   6.367  1.00 40.38 LIG 0.16  HD
ATOM     22 O    PRO C  65      15.417  -3.386   9.259  1.00 29.28 LIG-0.27  OA
BRANCH 20 23
ATOM     23  CA  HIS C  66      17.570  -2.508   7.666  1.00 40.25 LIG 0.17  C 
BRANCH 23 24
ATOM     24  CB  HIS C  66      17.566  -1.361   8.686  1.00 42.68 LIG 0.09  C 
BRANCH 24 25
ATOM     25  CG  HIS C  66      16.694  -0.205   8.299  1.00 48.80 LIG 0.06  A 
ATOM     26 ND1  HIS C  66      16.276   0.751   9.200  1.00 53.13 LIG-0.24  NA
ATOM     27  CE1 HIS C  66      15.526   1.643   8.577  1.00 55.16 LIG 0.23  A 
ATOM     28 NE2  HIS C  66      15.442   1.300   7.304  1.00 53.86 LIG-0.25  NA
ATOM     29  CD2 HIS C  66      16.163   0.146   7.104  1.00 53.41 LIG 0.14  A 
ENDBRANCH 24 25
ENDBRANCH 23 24
BRANCH 23 30
ATOM     30  C   HIS C  66      18.220  -3.748   8.281  1.00 41.89 LIG 0.22  C 
ATOM     31 O    HIS C  66      19.277  -4.193   7.829  1.00 44.58 LIG-0.29  OA
ENDBRANCH 23 30
ENDBRANCH 20 23
ENDBRANCH 4 19
TORSDOF 9
ENDMDL
MODEL 67
USER: ADFR SOLUTION from run 2
USER: SCORE 10.572396 LL:  -1.813 LR:  -8.759 RR:   0.000 FEB:  -6.074
USER: RMSD 7.645511
USER: SEED 596781
USER: STATUS no improvement in best in 26 clusters for 5 generations
USER: GENES 11
USER: genes 0 Translation |==|  0.66871 0.42580 0.43740
USER: genes 1 Rotation |==|  0.89005 0.42292 0.72158 0.70694
USER: genes 2 Torsion [N]-C--CA-[N] |==|  0.19753
USER: genes 3 Torsion [C]-CA--CB-[CG] |==|  0.18985
USER: genes 4 Torsion [CA]-CB--CG-[CD2] |==|  0.74731
USER: genes 5 Torsion [CE2]-CZ--OH-[HH] |==|  0.47340
USER: genes 6 Torsion [N]-CA--C-[N] |==|  0.12477
USER: genes 7 Torsion [C]-N--CA-[C] |==|  0.61018
USER: genes 8 Torsion [N]-CA--CB-[CG] |==|  0.88009
USER: genes 9 Torsion [CA]-CB--CG-[ND1] |==|  0.19404
USER: genes 10 Torsion [N]-CA--C-[O] |==|  0.96057
ROOT
ATOM      1  C   TYR C  64      15.314  -1.918   5.950  1.00 51.57 LIG 0.26  C 
ATOM      2 O    TYR C  64      15.139  -0.718   5.736  1.00 54.62 LIG-0.27  OA
ATOM      3  N   PRO C  65      15.975  -2.365   7.032  1.00 43.10 LIG-0.34  N 
ATOM      4  CA  PRO C  65      16.153  -3.749   7.480  1.00 38.90 LIG 0.18  C 
ATOM      5  CB  PRO C  65      17.575  -3.742   8.024  1.00 40.80 LIG 0.04  C 
ATOM      6  CG  PRO C  65      17.732  -2.368   8.576  1.00 42.19 LIG 0.02  C 
ATOM      7  CD  PRO C  65      16.899  -1.450   7.724  1.00 44.37 LIG 0.13  C 
ENDROOT
BRANCH 1 8
ATOM      8  CA  TYR C  64      14.777  -2.956   4.967  1.00 49.73 LIG 0.40  C 
ATOM      9  N   TYR C  64      13.651  -3.657   5.579  1.00 50.52 LIG 0.61  N 
BRANCH 8 10
ATOM     10  CB  TYR C  64      14.340  -2.250   3.678  1.00 50.46 LIG 0.09  C 
BRANCH 10 11
ATOM     11  CG  TYR C  64      15.458  -1.658   2.848  1.00 47.68 LIG-0.06  A 
ATOM     12  CD2 TYR C  64      15.864  -0.343   3.047  1.00 48.34 LIG 0.01  A 
ATOM     13  CE2 TYR C  64      16.882   0.214   2.297  1.00 49.15 LIG 0.04  A 
ATOM     14  CZ  TYR C  64      17.511  -0.547   1.332  1.00 50.59 LIG 0.07  A 
ATOM     15  CE1 TYR C  64      17.130  -1.856   1.114  1.00 46.73 LIG 0.04  A 
ATOM     16  CD1 TYR C  64      16.108  -2.405   1.871  1.00 46.22 LIG 0.01  A 
BRANCH 14 17
ATOM     17 OH   TYR C  64      18.526   0.001   0.582  1.00 53.82 LIG-0.36  OA
ATOM     18 HH   TYR C  64      18.901  -0.603   0.133  1.00 53.82 LIG 0.22  HD
ENDBRANCH 14 17
ENDBRANCH 10 11
ENDBRANCH 8 10
ENDBRANCH 1 8
BRANCH 4 19
ATOM     19  C   PRO C  65      15.179  -4.118   8.594  1.00 37.07 LIG 0.24  C 
ATOM     20  N   HIS C  66      13.917  -3.736   8.409  1.00 40.38 LIG-0.35  N 
ATOM     21 H    HIS C  66      13.655  -3.276   7.732  1.00 40.38 LIG 0.16  HD
ATOM     22 O    PRO C  65      15.583  -4.728   9.601  1.00 29.28 LIG-0.27  OA
BRANCH 20 23
ATOM     23  CA  HIS C  66      12.855  -4.065   9.349  1.00 40.25 LIG 0.17  C 
BRANCH 23 24
ATOM     24  CB  HIS C  66      12.601  -2.894  10.307  1.00 42.68 LIG 0.09  C 
BRANCH 24 25
ATOM     25  CG  HIS C  66      13.851  -2.251  10.827  1.00 48.80 LIG 0.06  A 
ATOM     26 ND1  HIS C  66      14.692  -1.499  10.033  1.00 53.13 LIG-0.24  NA
ATOM     27  CE1 HIS C  66      15.704  -1.061  10.760  1.00 55.16 LIG 0.23  A 
ATOM     28 NE2  HIS C  66      15.552  -1.500  11.996  1.00 53.86 LIG-0.25  NA
ATOM     29  CD2 HIS C  66      14.401  -2.249  12.064  1.00 53.41 LIG 0.14  A 
ENDBRANCH 24 25
ENDBRANCH 23 24
BRANCH 23 30
ATOM     30  C   HIS C  66      11.563  -4.428   8.617  1.00 41.89 LIG 0.22  C 
ATOM     31 O    HIS C  66      11.425  -4.172   7.418  1.00 44.58 LIG-0.29  OA
ENDBRANCH 23 30
ENDBRANCH 20 23
ENDBRANCH 4 19
TORSDOF 9
ENDMDL
MODEL 68
USER: ADFR SOLUTION from run 131
USER: SCORE 10.917904 LL:  -2.181 LR:  -8.737 RR:   0.000 FEB:  -6.053
USER: RMSD 5.202515
USER: SEED 130
USER: STATUS no improvement in best in 22 clusters for 5 generations
USER: GENES 11
USER: genes 0 Translation |==|  0.49324 0.43047 0.48532
USER: genes 1 Rotation |==|  0.90416 0.76570 0.62202 0.53425
USER: genes 2 Torsion [N]-C--CA-[N] |==|  0.23797
USER: genes 3 Torsion [C]-CA--CB-[CG] |==|  0.72607
USER: genes 4 Torsion [CA]-CB--CG-[CD2] |==|  0.65139
USER: genes 5 Torsion [CE2]-CZ--OH-[HH] |==|  0.34499
USER: genes 6 Torsion [N]-CA--C-[N] |==|  0.87878
USER: genes 7 Torsion [C]-N--CA-[C] |==|  0.15841
USER: genes 8 Torsion [N]-CA--CB-[CG] |==|  0.89795
USER: genes 9 Torsion [CA]-CB--CG-[ND1] |==|  0.86502
USER: genes 10 Torsion [N]-CA--C-[O] |==|  0.15564
ROOT
ATOM      1  C   TYR C  64      12.024  -1.844   6.813  1.00 51.57 LIG 0.26  C 
ATOM      2 O    TYR C  64      10.921  -1.786   7.357  1.00 54.62 LIG-0.27  OA
ATOM      3  N   PRO C  65      12.955  -0.889   6.975  1.00 43.10 LIG-0.34  N 
ATOM      4  CA  PRO C  65      14.341  -0.881   6.497  1.00 38.90 LIG 0.18  C 
ATOM      5  CB  PRO C  65      14.551   0.576   6.110  1.00 40.80 LIG 0.04  C 
ATOM      6  CG  PRO C  65      13.709   1.323   7.086  1.00 42.19 LIG 0.02  C 
ATOM      7  CD  PRO C  65      12.525   0.452   7.406  1.00 44.37 LIG 0.13  C 
ENDROOT
BRANCH 1 8
ATOM      8  CA  TYR C  64      12.372  -3.029   5.914  1.00 49.73 LIG 0.40  C 
ATOM      9  N   TYR C  64      13.079  -4.036   6.702  1.00 50.52 LIG 0.61  N 
BRANCH 8 10
ATOM     10  CB  TYR C  64      11.081  -3.611   5.325  1.00 50.46 LIG 0.09  C 
BRANCH 10 11
ATOM     11  CG  TYR C  64      10.533  -4.831   6.031  1.00 47.68 LIG-0.06  A 
ATOM     12  CD2 TYR C  64      10.276  -6.000   5.323  1.00 48.34 LIG 0.01  A 
ATOM     13  CE2 TYR C  64       9.775  -7.124   5.953  1.00 49.15 LIG 0.04  A 
ATOM     14  CZ  TYR C  64       9.526  -7.089   7.310  1.00 50.59 LIG 0.07  A 
ATOM     15  CE1 TYR C  64       9.773  -5.943   8.039  1.00 46.73 LIG 0.04  A 
ATOM     16  CD1 TYR C  64      10.276  -4.822   7.399  1.00 46.22 LIG 0.01  A 
BRANCH 14 17
ATOM     17 OH   TYR C  64       9.027  -8.205   7.943  1.00 53.82 LIG-0.36  OA
ATOM     18 HH   TYR C  64       9.536  -8.419   8.577  1.00 53.82 LIG 0.22  HD
ENDBRANCH 14 17
ENDBRANCH 10 11
ENDBRANCH 8 10
ENDBRANCH 1 8
BRANCH 4 19
ATOM     19  C   PRO C  65      15.326  -1.266   7.596  1.00 37.07 LIG 0.24  C 
ATOM     20  N   HIS C  66      15.110  -0.710   8.787  1.00 40.38 LIG-0.35  N 
ATOM     21 H    HIS C  66      14.486  -0.139   8.938  1.00 40.38 LIG 0.16  HD
ATOM     22 O    PRO C  65      16.265  -2.044   7.350  1.00 29.28 LIG-0.27  OA
BRANCH 20 23
ATOM     23  CA  HIS C  66      15.922  -1.023   9.954  1.00 40.25 LIG 0.17  C 
BRANCH 23 24
ATOM     24  CB  HIS C  66      15.734  -2.491  10.362  1.00 42.68 LIG 0.09  C 
BRANCH 24 25
ATOM     25  CG  HIS C  66      14.336  -2.999  10.183  1.00 48.80 LIG 0.06  A 
ATOM     26 ND1  HIS C  66      13.228  -2.316  10.639  1.00 53.13 LIG-0.24  NA
ATOM     27  CE1 HIS C  66      12.137  -2.998  10.337  1.00 55.16 LIG 0.23  A 
ATOM     28 NE2  HIS C  66      12.497  -4.100   9.702  1.00 53.86 LIG-0.25  NA
ATOM     29  CD2 HIS C  66      13.868  -4.124   9.594  1.00 53.41 LIG 0.14  A 
ENDBRANCH 24 25
ENDBRANCH 23 24
BRANCH 23 30
ATOM     30  C   HIS C  66      17.401  -0.742   9.692  1.00 41.89 LIG 0.22  C 
ATOM     31 O    HIS C  66      17.774   0.376   9.327  1.00 44.58 LIG-0.29  OA
ENDBRANCH 23 30
ENDBRANCH 20 23
ENDBRANCH 4 19
TORSDOF 9
ENDMDL
MODEL 69
USER: ADFR SOLUTION from run 53
USER: SCORE 10.917234 LL:  -2.175 LR:  -8.742 RR:   0.000 FEB:  -6.057
USER: RMSD 6.116553
USER: SEED 52
USER: STATUS no improvement in best in 33 clusters for 5 generations
USER: GENES 11
USER: genes 0 Translation |==|  0.46082 0.26530 0.48021
USER: genes 1 Rotation |==|  0.33552 0.19857 0.21703 0.72806
USER: genes 2 Torsion [N]-C--CA-[N] |==|  0.86607
USER: genes 3 Torsion [C]-CA--CB-[CG] |==|  0.62111
USER: genes 4 Torsion [CA]-CB--CG-[CD2] |==|  0.69711
USER: genes 5 Torsion [CE2]-CZ--OH-[HH] |==|  0.13080
USER: genes 6 Torsion [N]-CA--C-[N] |==|  0.46267
USER: genes 7 Torsion [C]-N--CA-[C] |==|  0.70669
USER: genes 8 Torsion [N]-CA--CB-[CG] |==|  0.77075
USER: genes 9 Torsion [CA]-CB--CG-[ND1] |==|  0.44829
USER: genes 10 Torsion [N]-CA--C-[O] |==|  0.08472
ROOT
ATOM      1  C   TYR C  64      11.416  -4.446   6.721  1.00 51.57 LIG 0.26  C 
ATOM      2 O    TYR C  64      10.965  -5.500   6.272  1.00 54.62 LIG-0.27  OA
ATOM      3  N   PRO C  65      11.284  -4.100   8.013  1.00 43.10 LIG-0.34  N 
ATOM      4  CA  PRO C  65      11.867  -2.951   8.711  1.00 38.90 LIG 0.18  C 
ATOM      5  CB  PRO C  65      10.755  -2.544   9.667  1.00 40.80 LIG 0.04  C 
ATOM      6  CG  PRO C  65      10.099  -3.835  10.012  1.00 42.19 LIG 0.02  C 
ATOM      7  CD  PRO C  65      10.210  -4.725   8.805  1.00 44.37 LIG 0.13  C 
ENDROOT
BRANCH 1 8
ATOM      8  CA  TYR C  64      12.153  -3.476   5.799  1.00 49.73 LIG 0.40  C 
ATOM      9  N   TYR C  64      11.626  -2.129   6.000  1.00 50.52 LIG 0.61  N 
BRANCH 8 10
ATOM     10  CB  TYR C  64      13.654  -3.524   6.113  1.00 50.46 LIG 0.09  C 
BRANCH 10 11
ATOM     11  CG  TYR C  64      14.349  -2.181   6.178  1.00 47.68 LIG-0.06  A 
ATOM     12  CD2 TYR C  64      15.240  -1.800   5.182  1.00 48.34 LIG 0.01  A 
ATOM     13  CE2 TYR C  64      15.885  -0.578   5.226  1.00 49.15 LIG 0.04  A 
ATOM     14  CZ  TYR C  64      15.639   0.283   6.277  1.00 50.59 LIG 0.07  A 
ATOM     15  CE1 TYR C  64      14.757  -0.069   7.280  1.00 46.73 LIG 0.04  A 
ATOM     16  CD1 TYR C  64      14.116  -1.296   7.226  1.00 46.22 LIG 0.01  A 
BRANCH 14 17
ATOM     17 OH   TYR C  64      16.277   1.501   6.327  1.00 53.82 LIG-0.36  OA
ATOM     18 HH   TYR C  64      16.226   1.876   5.577  1.00 53.82 LIG 0.22  HD
ENDBRANCH 14 17
ENDBRANCH 10 11
ENDBRANCH 8 10
ENDBRANCH 1 8
BRANCH 4 19
ATOM     19  C   PRO C  65      13.111  -3.337   9.504  1.00 37.07 LIG 0.24  C 
ATOM     20  N   HIS C  66      13.859  -2.323   9.937  1.00 40.38 LIG-0.35  N 
ATOM     21 H    HIS C  66      13.690  -1.499   9.759  1.00 40.38 LIG 0.16  HD
ATOM     22 O    PRO C  65      13.380  -4.535   9.702  1.00 29.28 LIG-0.27  OA
BRANCH 20 23
ATOM     23  CA  HIS C  66      15.042  -2.520  10.761  1.00 40.25 LIG 0.17  C 
BRANCH 23 24
ATOM     24  CB  HIS C  66      16.223  -1.708  10.210  1.00 42.68 LIG 0.09  C 
BRANCH 24 25
ATOM     25  CG  HIS C  66      16.951  -2.379   9.085  1.00 48.80 LIG 0.06  A 
ATOM     26 ND1  HIS C  66      17.776  -1.696   8.216  1.00 53.13 LIG-0.24  NA
ATOM     27  CE1 HIS C  66      18.280  -2.542   7.335  1.00 55.16 LIG 0.23  A 
ATOM     28 NE2  HIS C  66      17.813  -3.749   7.601  1.00 53.86 LIG-0.25  NA
ATOM     29  CD2 HIS C  66      16.978  -3.673   8.691  1.00 53.41 LIG 0.14  A 
ENDBRANCH 24 25
ENDBRANCH 23 24
BRANCH 23 30
ATOM     30  C   HIS C  66      14.776  -2.130  12.215  1.00 41.89 LIG 0.22  C 
ATOM     31 O    HIS C  66      13.649  -2.249  12.702  1.00 44.58 LIG-0.29  OA
ENDBRANCH 23 30
ENDBRANCH 20 23
ENDBRANCH 4 19
TORSDOF 9
ENDMDL
MODEL 70
USER: ADFR SOLUTION from run 81
USER: SCORE 10.807313 LL:  -2.079 LR:  -8.729 RR:   0.000 FEB:  -6.044
USER: RMSD 5.944081
USER: SEED 80
USER: STATUS no improvement in best in 19 clusters for 5 generations
USER: GENES 11
USER: genes 0 Translation |==|  0.41554 0.24509 0.54628
USER: genes 1 Rotation |==|  0.18592 0.18707 0.30173 0.61882
USER: genes 2 Torsion [N]-C--CA-[N] |==|  0.51442
USER: genes 3 Torsion [C]-CA--CB-[CG] |==|  0.33408
USER: genes 4 Torsion [CA]-CB--CG-[CD2] |==|  0.49590
USER: genes 5 Torsion [CE2]-CZ--OH-[HH] |==|  0.08778
USER: genes 6 Torsion [N]-CA--C-[N] |==|  0.57052
USER: genes 7 Torsion [C]-N--CA-[C] |==|  0.72000
USER: genes 8 Torsion [N]-CA--CB-[CG] |==|  0.05791
USER: genes 9 Torsion [CA]-CB--CG-[ND1] |==|  0.29814
USER: genes 10 Torsion [N]-CA--C-[O] |==|  0.12833
ROOT
ATOM      1  C   TYR C  64      10.567  -4.764   7.910  1.00 51.57 LIG 0.26  C 
ATOM      2 O    TYR C  64       9.667  -5.540   8.230  1.00 54.62 LIG-0.27  OA
ATOM      3  N   PRO C  65      10.949  -3.744   8.698  1.00 43.10 LIG-0.34  N 
ATOM      4  CA  PRO C  65      12.074  -2.823   8.511  1.00 38.90 LIG 0.18  C 
ATOM      5  CB  PRO C  65      11.507  -1.501   9.009  1.00 40.80 LIG 0.04  C 
ATOM      6  CG  PRO C  65      10.574  -1.907  10.097  1.00 42.19 LIG 0.02  C 
ATOM      7  CD  PRO C  65      10.008  -3.248   9.717  1.00 44.37 LIG 0.13  C 
ENDROOT
BRANCH 1 8
ATOM      8  CA  TYR C  64      11.290  -4.940   6.576  1.00 49.73 LIG 0.40  C 
ATOM      9  N   TYR C  64      10.651  -6.016   5.823  1.00 50.52 LIG 0.61  N 
BRANCH 8 10
ATOM     10  CB  TYR C  64      11.233  -3.622   5.794  1.00 50.46 LIG 0.09  C 
BRANCH 10 11
ATOM     11  CG  TYR C  64      12.574  -3.009   5.451  1.00 47.68 LIG-0.06  A 
ATOM     12  CD2 TYR C  64      12.643  -1.830   4.717  1.00 48.34 LIG 0.01  A 
ATOM     13  CE2 TYR C  64      13.859  -1.258   4.393  1.00 49.15 LIG 0.04  A 
ATOM     14  CZ  TYR C  64      15.028  -1.866   4.806  1.00 50.59 LIG 0.07  A 
ATOM     15  CE1 TYR C  64      14.989  -3.037   5.537  1.00 46.73 LIG 0.04  A 
ATOM     16  CD1 TYR C  64      13.766  -3.602   5.856  1.00 46.22 LIG 0.01  A 
BRANCH 14 17
ATOM     17 OH   TYR C  64      16.242  -1.302   4.486  1.00 53.82 LIG-0.36  OA
ATOM     18 HH   TYR C  64      16.162  -0.466   4.451  1.00 53.82 LIG 0.22  HD
ENDBRANCH 14 17
ENDBRANCH 10 11
ENDBRANCH 8 10
ENDBRANCH 1 8
BRANCH 4 19
ATOM     19  C   PRO C  65      13.280  -3.216   9.358  1.00 37.07 LIG 0.24  C 
ATOM     20  N   HIS C  66      14.113  -2.225   9.673  1.00 40.38 LIG-0.35  N 
ATOM     21 H    HIS C  66      14.016  -1.417   9.395  1.00 40.38 LIG 0.16  HD
ATOM     22 O    PRO C  65      13.444  -4.400   9.702  1.00 29.28 LIG-0.27  OA
BRANCH 20 23
ATOM     23  CA  HIS C  66      15.275  -2.423  10.526  1.00 40.25 LIG 0.17  C 
BRANCH 23 24
ATOM     24  CB  HIS C  66      16.495  -1.687   9.953  1.00 42.68 LIG 0.09  C 
BRANCH 24 25
ATOM     25  CG  HIS C  66      16.148  -0.583   9.001  1.00 48.80 LIG 0.06  A 
ATOM     26 ND1  HIS C  66      16.275   0.751   9.326  1.00 53.13 LIG-0.24  NA
ATOM     27  CE1 HIS C  66      15.901   1.490   8.296  1.00 55.16 LIG 0.23  A 
ATOM     28 NE2  HIS C  66      15.535   0.684   7.315  1.00 53.86 LIG-0.25  NA
ATOM     29  CD2 HIS C  66      15.680  -0.619   7.732  1.00 53.41 LIG 0.14  A 
ENDBRANCH 24 25
ENDBRANCH 23 24
BRANCH 23 30
ATOM     30  C   HIS C  66      15.002  -1.944  11.952  1.00 41.89 LIG 0.22  C 
ATOM     31 O    HIS C  66      13.955  -2.248  12.529  1.00 44.58 LIG-0.29  OA
ENDBRANCH 23 30
ENDBRANCH 20 23
ENDBRANCH 4 19
TORSDOF 9
ENDMDL
MODEL 71
USER: ADFR SOLUTION from run 100
USER: SCORE 9.955933 LL:  -1.241 LR:  -8.715 RR:   0.000 FEB:  -6.030
USER: RMSD 2.443191
USER: SEED 99
USER: STATUS no improvement in best in 21 clusters for 5 generations
USER: GENES 11
USER: genes 0 Translation |==|  0.62029 0.33523 0.59958
USER: genes 1 Rotation |==|  0.22444 0.37918 0.53535 0.89777
USER: genes 2 Torsion [N]-C--CA-[N] |==|  0.40299
USER: genes 3 Torsion [C]-CA--CB-[CG] |==|  0.71863
USER: genes 4 Torsion [CA]-CB--CG-[CD2] |==|  0.26341
USER: genes 5 Torsion [CE2]-CZ--OH-[HH] |==|  0.79807
USER: genes 6 Torsion [N]-CA--C-[N] |==|  0.40738
USER: genes 7 Torsion [C]-N--CA-[C] |==|  0.50325
USER: genes 8 Torsion [N]-CA--CB-[CG] |==|  0.52714
USER: genes 9 Torsion [CA]-CB--CG-[ND1] |==|  0.58231
USER: genes 10 Torsion [N]-CA--C-[O] |==|  0.02197
ROOT
ATOM      1  C   TYR C  64      14.406  -3.344   8.869  1.00 51.57 LIG 0.26  C 
ATOM      2 O    TYR C  64      14.641  -4.498   9.230  1.00 54.62 LIG-0.27  OA
ATOM      3  N   PRO C  65      15.317  -2.361   8.973  1.00 43.10 LIG-0.34  N 
ATOM      4  CA  PRO C  65      15.228  -0.984   8.478  1.00 38.90 LIG 0.18  C 
ATOM      5  CB  PRO C  65      15.920  -0.190   9.577  1.00 40.80 LIG 0.04  C 
ATOM      6  CG  PRO C  65      16.967  -1.124  10.077  1.00 42.19 LIG 0.02  C 
ATOM      7  CD  PRO C  65      16.421  -2.518   9.935  1.00 44.37 LIG 0.13  C 
ENDROOT
BRANCH 1 8
ATOM      8  CA  TYR C  64      13.041  -2.989   8.284  1.00 49.73 LIG 0.40  C 
ATOM      9  N   TYR C  64      12.544  -4.121   7.506  1.00 50.52 LIG 0.61  N 
BRANCH 8 10
ATOM     10  CB  TYR C  64      12.076  -2.651   9.426  1.00 50.46 LIG 0.09  C 
BRANCH 10 11
ATOM     11  CG  TYR C  64      11.105  -3.748   9.806  1.00 47.68 LIG-0.06  A 
ATOM     12  CD2 TYR C  64      11.401  -4.622  10.846  1.00 48.34 LIG 0.01  A 
ATOM     13  CE2 TYR C  64      10.526  -5.631  11.205  1.00 49.15 LIG 0.04  A 
ATOM     14  CZ  TYR C  64       9.336  -5.774  10.522  1.00 50.59 LIG 0.07  A 
ATOM     15  CE1 TYR C  64       9.015  -4.919   9.486  1.00 46.73 LIG 0.04  A 
ATOM     16  CD1 TYR C  64       9.898  -3.911   9.134  1.00 46.22 LIG 0.01  A 
BRANCH 14 17
ATOM     17 OH   TYR C  64       8.461  -6.776  10.874  1.00 53.82 LIG-0.36  OA
ATOM     18 HH   TYR C  64       8.768  -7.517  10.624  1.00 53.82 LIG 0.22  HD
ENDBRANCH 14 17
ENDBRANCH 10 11
ENDBRANCH 8 10
ENDBRANCH 1 8
BRANCH 4 19
ATOM     19  C   PRO C  65      15.977  -0.801   7.162  1.00 37.07 LIG 0.24  C 
ATOM     20  N   HIS C  66      15.450   0.080   6.314  1.00 40.38 LIG-0.35  N 
ATOM     21 H    HIS C  66      14.715   0.500   6.462  1.00 40.38 LIG 0.16  HD
ATOM     22 O    PRO C  65      17.006  -1.461   6.931  1.00 29.28 LIG-0.27  OA
BRANCH 20 23
ATOM     23  CA  HIS C  66      16.078   0.415   5.044  1.00 40.25 LIG 0.17  C 
BRANCH 23 24
ATOM     24  CB  HIS C  66      16.237  -0.840   4.174  1.00 42.68 LIG 0.09  C 
BRANCH 24 25
ATOM     25  CG  HIS C  66      17.080  -0.630   2.953  1.00 48.80 LIG 0.06  A 
ATOM     26 ND1  HIS C  66      16.895  -1.342   1.786  1.00 53.13 LIG-0.24  NA
ATOM     27  CE1 HIS C  66      17.776  -0.944   0.885  1.00 55.16 LIG 0.23  A 
ATOM     28 NE2  HIS C  66      18.526   0.001   1.425  1.00 53.86 LIG-0.25  NA
ATOM     29  CD2 HIS C  66      18.111   0.215   2.718  1.00 53.41 LIG 0.14  A 
ENDBRANCH 24 25
ENDBRANCH 23 24
BRANCH 23 30
ATOM     30  C   HIS C  66      15.272   1.472   4.290  1.00 41.89 LIG 0.22  C 
ATOM     31 O    HIS C  66      14.314   2.035   4.827  1.00 44.58 LIG-0.29  OA
ENDBRANCH 23 30
ENDBRANCH 20 23
ENDBRANCH 4 19
TORSDOF 9
ENDMDL
MODEL 72
USER: ADFR SOLUTION from run 69
USER: SCORE 10.642725 LL:  -1.937 LR:  -8.706 RR:   0.000 FEB:  -6.022
USER: RMSD 6.411557
USER: SEED 68
USER: STATUS no improvement in best in 25 clusters for 5 generations
USER: GENES 11
USER: genes 0 Translation |==|  0.56412 0.38381 0.70805
USER: genes 1 Rotation |==|  0.41676 0.95971 0.33263 0.56105
USER: genes 2 Torsion [N]-C--CA-[N] |==|  0.44835
USER: genes 3 Torsion [C]-CA--CB-[CG] |==|  0.48382
USER: genes 4 Torsion [CA]-CB--CG-[CD2] |==|  0.90267
USER: genes 5 Torsion [CE2]-CZ--OH-[HH] |==|  0.90902
USER: genes 6 Torsion [N]-CA--C-[N] |==|  0.05669
USER: genes 7 Torsion [C]-N--CA-[C] |==|  0.16738
USER: genes 8 Torsion [N]-CA--CB-[CG] |==|  0.86519
USER: genes 9 Torsion [CA]-CB--CG-[ND1] |==|  0.75923
USER: genes 10 Torsion [N]-CA--C-[O] |==|  0.14528
ROOT
ATOM      1  C   TYR C  64      13.353  -2.579  10.822  1.00 51.57 LIG 0.26  C 
ATOM      2 O    TYR C  64      13.300  -2.496  12.049  1.00 54.62 LIG-0.27  OA
ATOM      3  N   PRO C  65      12.308  -2.991  10.084  1.00 43.10 LIG-0.34  N 
ATOM      4  CA  PRO C  65      12.183  -3.022   8.624  1.00 38.90 LIG 0.18  C 
ATOM      5  CB  PRO C  65      11.398  -4.304   8.385  1.00 40.80 LIG 0.04  C 
ATOM      6  CG  PRO C  65      10.511  -4.399   9.577  1.00 42.19 LIG 0.02  C 
ATOM      7  CD  PRO C  65      11.256  -3.791  10.734  1.00 44.37 LIG 0.13  C 
ENDROOT
BRANCH 1 8
ATOM      8  CA  TYR C  64      14.640  -2.211  10.087  1.00 49.73 LIG 0.40  C 
ATOM      9  N   TYR C  64      15.475  -1.392  10.963  1.00 50.52 LIG 0.61  N 
BRANCH 8 10
ATOM     10  CB  TYR C  64      15.375  -3.494   9.682  1.00 50.46 LIG 0.09  C 
BRANCH 10 11
ATOM     11  CG  TYR C  64      16.604  -3.298   8.822  1.00 47.68 LIG-0.06  A 
ATOM     12  CD2 TYR C  64      16.648  -2.280   7.876  1.00 48.34 LIG 0.01  A 
ATOM     13  CE2 TYR C  64      17.763  -2.087   7.082  1.00 49.15 LIG 0.04  A 
ATOM     14  CZ  TYR C  64      18.854  -2.919   7.228  1.00 50.59 LIG 0.07  A 
ATOM     15  CE1 TYR C  64      18.839  -3.938   8.160  1.00 46.73 LIG 0.04  A 
ATOM     16  CD1 TYR C  64      17.718  -4.122   8.952  1.00 46.22 LIG 0.01  A 
BRANCH 14 17
ATOM     17 OH   TYR C  64      19.967  -2.733   6.440  1.00 53.82 LIG-0.36  OA
ATOM     18 HH   TYR C  64      19.732  -2.447   5.686  1.00 53.82 LIG 0.22  HD
ENDBRANCH 14 17
ENDBRANCH 10 11
ENDBRANCH 8 10
ENDBRANCH 1 8
BRANCH 4 19
ATOM     19  C   PRO C  65      11.392  -1.830   8.094  1.00 37.07 LIG 0.24  C 
ATOM     20  N   HIS C  66      11.315  -0.778   8.907  1.00 40.38 LIG-0.35  N 
ATOM     21 H    HIS C  66      11.649  -0.766   9.699  1.00 40.38 LIG 0.16  HD
ATOM     22 O    PRO C  65      10.858  -1.883   6.971  1.00 29.28 LIG-0.27  OA
BRANCH 20 23
ATOM     23  CA  HIS C  66      10.651   0.459   8.525  1.00 40.25 LIG 0.17  C 
BRANCH 23 24
ATOM     24  CB  HIS C  66      11.351   1.093   7.314  1.00 42.68 LIG 0.09  C 
BRANCH 24 25
ATOM     25  CG  HIS C  66      12.840   1.187   7.452  1.00 48.80 LIG 0.06  A 
ATOM     26 ND1  HIS C  66      13.469   2.250   8.065  1.00 53.13 LIG-0.24  NA
ATOM     27  CE1 HIS C  66      14.776   2.060   8.041  1.00 55.16 LIG 0.23  A 
ATOM     28 NE2  HIS C  66      15.019   0.911   7.435  1.00 53.86 LIG-0.25  NA
ATOM     29  CD2 HIS C  66      13.824   0.346   7.056  1.00 53.41 LIG 0.14  A 
ENDBRANCH 24 25
ENDBRANCH 23 24
BRANCH 23 30
ATOM     30  C   HIS C  66       9.176   0.219   8.205  1.00 41.89 LIG 0.22  C 
ATOM     31 O    HIS C  66       8.446  -0.368   9.008  1.00 44.58 LIG-0.29  OA
ENDBRANCH 23 30
ENDBRANCH 20 23
ENDBRANCH 4 19
TORSDOF 9
ENDMDL
MODEL 73
USER: ADFR SOLUTION from run 48
USER: SCORE 10.032546 LL:  -1.321 LR:  -8.712 RR:   0.000 FEB:  -6.027
USER: RMSD 7.280849
USER: SEED 47
USER: STATUS no improvement in best in 44 clusters for 5 generations
USER: GENES 11
USER: genes 0 Translation |==|  0.65133 0.78424 0.50756
USER: genes 1 Rotation |==|  0.76136 0.44808 0.15250 0.74133
USER: genes 2 Torsion [N]-C--CA-[N] |==|  0.35387
USER: genes 3 Torsion [C]-CA--CB-[CG] |==|  0.48557
USER: genes 4 Torsion [CA]-CB--CG-[CD2] |==|  0.08678
USER: genes 5 Torsion [CE2]-CZ--OH-[HH] |==|  0.67615
USER: genes 6 Torsion [N]-CA--C-[N] |==|  0.67586
USER: genes 7 Torsion [C]-N--CA-[C] |==|  0.54185
USER: genes 8 Torsion [N]-CA--CB-[CG] |==|  0.10141
USER: genes 9 Torsion [CA]-CB--CG-[ND1] |==|  0.11316
USER: genes 10 Torsion [N]-CA--C-[O] |==|  0.51591
ROOT
ATOM      1  C   TYR C  64      14.988   3.728   7.213  1.00 51.57 LIG 0.26  C 
ATOM      2 O    TYR C  64      15.385   4.552   6.389  1.00 54.62 LIG-0.27  OA
ATOM      3  N   PRO C  65      14.880   2.420   6.924  1.00 43.10 LIG-0.34  N 
ATOM      4  CA  PRO C  65      14.545   1.314   7.827  1.00 38.90 LIG 0.18  C 
ATOM      5  CB  PRO C  65      13.689   0.414   6.947  1.00 40.80 LIG 0.04  C 
ATOM      6  CG  PRO C  65      14.268   0.600   5.588  1.00 42.19 LIG 0.02  C 
ATOM      7  CD  PRO C  65      14.776   2.014   5.512  1.00 44.37 LIG 0.13  C 
ENDROOT
BRANCH 1 8
ATOM      8  CA  TYR C  64      14.595   4.180   8.618  1.00 49.73 LIG 0.40  C 
ATOM      9  N   TYR C  64      15.692   4.952   9.197  1.00 50.52 LIG 0.61  N 
BRANCH 8 10
ATOM     10  CB  TYR C  64      13.319   5.026   8.537  1.00 50.46 LIG 0.09  C 
BRANCH 10 11
ATOM     11  CG  TYR C  64      12.732   5.448   9.866  1.00 47.68 LIG-0.06  A 
ATOM     12  CD2 TYR C  64      13.557   5.673  10.962  1.00 48.34 LIG 0.01  A 
ATOM     13  CE2 TYR C  64      13.037   6.058  12.183  1.00 49.15 LIG 0.04  A 
ATOM     14  CZ  TYR C  64      11.673   6.225  12.320  1.00 50.59 LIG 0.07  A 
ATOM     15  CE1 TYR C  64      10.830   6.011  11.248  1.00 46.73 LIG 0.04  A 
ATOM     16  CD1 TYR C  64      11.361   5.625  10.028  1.00 46.22 LIG 0.01  A 
BRANCH 14 17
ATOM     17 OH   TYR C  64      11.149   6.608  13.533  1.00 53.82 LIG-0.36  OA
ATOM     18 HH   TYR C  64      10.651   5.999  13.829  1.00 53.82 LIG 0.22  HD
ENDBRANCH 14 17
ENDBRANCH 10 11
ENDBRANCH 8 10
ENDBRANCH 1 8
BRANCH 4 19
ATOM     19  C   PRO C  65      15.786   0.555   8.284  1.00 37.07 LIG 0.24  C 
ATOM     20  N   HIS C  66      15.854  -0.721   7.910  1.00 40.38 LIG-0.35  N 
ATOM     21 H    HIS C  66      15.232  -1.121   7.471  1.00 40.38 LIG 0.16  HD
ATOM     22 O    PRO C  65      16.651   1.126   8.973  1.00 29.28 LIG-0.27  OA
BRANCH 20 23
ATOM     23  CA  HIS C  66      17.001  -1.565   8.211  1.00 40.25 LIG 0.17  C 
BRANCH 23 24
ATOM     24  CB  HIS C  66      17.026  -1.927   9.703  1.00 42.68 LIG 0.09  C 
BRANCH 24 25
ATOM     25  CG  HIS C  66      15.668  -2.151  10.297  1.00 48.80 LIG 0.06  A 
ATOM     26 ND1  HIS C  66      14.665  -2.828   9.635  1.00 53.13 LIG-0.24  NA
ATOM     27  CE1 HIS C  66      13.588  -2.872  10.400  1.00 55.16 LIG 0.23  A 
ATOM     28 NE2  HIS C  66      13.856  -2.249  11.534  1.00 53.86 LIG-0.25  NA
ATOM     29  CD2 HIS C  66      15.151  -1.788  11.493  1.00 53.41 LIG 0.14  A 
ENDBRANCH 24 25
ENDBRANCH 23 24
BRANCH 23 30
ATOM     30  C   HIS C  66      16.989  -2.839   7.367  1.00 41.89 LIG 0.22  C 
ATOM     31 O    HIS C  66      17.824  -3.727   7.555  1.00 44.58 LIG-0.29  OA
ENDBRANCH 23 30
ENDBRANCH 20 23
ENDBRANCH 4 19
TORSDOF 9
ENDMDL
MODEL 74
USER: ADFR SOLUTION from run 119
USER: SCORE 10.689207 LL:  -1.981 LR:  -8.709 RR:   0.000 FEB:  -6.024
USER: RMSD 6.620255
USER: SEED 118
USER: STATUS no improvement in best in 28 clusters for 5 generations
USER: GENES 11
USER: genes 0 Translation |==|  0.62004 0.34525 0.39581
USER: genes 1 Rotation |==|  0.46822 0.18455 0.44039 0.88200
USER: genes 2 Torsion [N]-C--CA-[N] |==|  0.83575
USER: genes 3 Torsion [C]-CA--CB-[CG] |==|  0.21352
USER: genes 4 Torsion [CA]-CB--CG-[CD2] |==|  0.05338
USER: genes 5 Torsion [CE2]-CZ--OH-[HH] |==|  0.07429
USER: genes 6 Torsion [N]-CA--C-[N] |==|  0.72187
USER: genes 7 Torsion [C]-N--CA-[C] |==|  0.13200
USER: genes 8 Torsion [N]-CA--CB-[CG] |==|  0.93554
USER: genes 9 Torsion [CA]-CB--CG-[ND1] |==|  0.81672
USER: genes 10 Torsion [N]-CA--C-[O] |==|  0.15347
ROOT
ATOM      1  C   TYR C  64      14.402  -3.186   5.202  1.00 51.57 LIG 0.26  C 
ATOM      2 O    TYR C  64      15.119  -4.124   4.851  1.00 54.62 LIG-0.27  OA
ATOM      3  N   PRO C  65      14.309  -2.794   6.483  1.00 43.10 LIG-0.34  N 
ATOM      4  CA  PRO C  65      13.603  -1.631   7.029  1.00 38.90 LIG 0.18  C 
ATOM      5  CB  PRO C  65      13.047  -2.166   8.342  1.00 40.80 LIG 0.04  C 
ATOM      6  CG  PRO C  65      14.076  -3.148   8.784  1.00 42.19 LIG 0.02  C 
ATOM      7  CD  PRO C  65      14.677  -3.749   7.544  1.00 44.37 LIG 0.13  C 
ENDROOT
BRANCH 1 8
ATOM      8  CA  TYR C  64      13.575  -2.428   4.165  1.00 49.73 LIG 0.40  C 
ATOM      9  N   TYR C  64      12.161  -2.525   4.516  1.00 50.52 LIG 0.61  N 
BRANCH 8 10
ATOM     10  CB  TYR C  64      14.028  -0.963   4.134  1.00 50.46 LIG 0.09  C 
BRANCH 10 11
ATOM     11  CG  TYR C  64      15.328  -0.697   3.408  1.00 47.68 LIG-0.06  A 
ATOM     12  CD2 TYR C  64      15.830  -1.622   2.499  1.00 48.34 LIG 0.01  A 
ATOM     13  CE2 TYR C  64      17.017  -1.396   1.827  1.00 49.15 LIG 0.04  A 
ATOM     14  CZ  TYR C  64      17.718  -0.230   2.060  1.00 50.59 LIG 0.07  A 
ATOM     15  CE1 TYR C  64      17.243   0.707   2.957  1.00 46.73 LIG 0.04  A 
ATOM     16  CD1 TYR C  64      16.053   0.471   3.624  1.00 46.22 LIG 0.01  A 
BRANCH 14 17
ATOM     17 OH   TYR C  64      18.901   0.001   1.396  1.00 53.82 LIG-0.36  OA
ATOM     18 HH   TYR C  64      18.897  -0.412   0.663  1.00 53.82 LIG 0.22  HD
ENDBRANCH 14 17
ENDBRANCH 10 11
ENDBRANCH 8 10
ENDBRANCH 1 8
BRANCH 4 19
ATOM     19  C   PRO C  65      14.549  -0.468   7.309  1.00 37.07 LIG 0.24  C 
ATOM     20  N   HIS C  66      14.922  -0.318   8.578  1.00 40.38 LIG-0.35  N 
ATOM     21 H    HIS C  66      14.630  -0.810   9.220  1.00 40.38 LIG 0.16  HD
ATOM     22 O    PRO C  65      14.915   0.277   6.382  1.00 29.28 LIG-0.27  OA
BRANCH 20 23
ATOM     23  CA  HIS C  66      15.869   0.704   8.999  1.00 40.25 LIG 0.17  C 
BRANCH 23 24
ATOM     24  CB  HIS C  66      17.298   0.313   8.595  1.00 42.68 LIG 0.09  C 
BRANCH 24 25
ATOM     25  CG  HIS C  66      17.492  -1.159   8.395  1.00 48.80 LIG 0.06  A 
ATOM     26 ND1  HIS C  66      17.396  -2.073   9.423  1.00 53.13 LIG-0.24  NA
ATOM     27  CE1 HIS C  66      17.611  -3.289   8.951  1.00 55.16 LIG 0.23  A 
ATOM     28 NE2  HIS C  66      17.844  -3.197   7.654  1.00 53.86 LIG-0.25  NA
ATOM     29  CD2 HIS C  66      17.776  -1.875   7.281  1.00 53.41 LIG 0.14  A 
ENDBRANCH 24 25
ENDBRANCH 23 24
BRANCH 23 30
ATOM     30  C   HIS C  66      15.515   2.066   8.402  1.00 41.89 LIG 0.22  C 
ATOM     31 O    HIS C  66      14.395   2.555   8.571  1.00 44.58 LIG-0.29  OA
ENDBRANCH 23 30
ENDBRANCH 20 23
ENDBRANCH 4 19
TORSDOF 9
ENDMDL
MODEL 75
USER: ADFR SOLUTION from run 129
USER: SCORE 10.195548 LL:  -1.490 LR:  -8.706 RR:   0.000 FEB:  -6.021
USER: RMSD 2.561911
USER: SEED 128
USER: STATUS no improvement in best in 21 clusters for 5 generations
USER: GENES 11
USER: genes 0 Translation |==|  0.64908 0.33556 0.59682
USER: genes 1 Rotation |==|  0.26440 0.39932 0.59815 0.91800
USER: genes 2 Torsion [N]-C--CA-[N] |==|  0.30743
USER: genes 3 Torsion [C]-CA--CB-[CG] |==|  0.40938
USER: genes 4 Torsion [CA]-CB--CG-[CD2] |==|  0.41540
USER: genes 5 Torsion [CE2]-CZ--OH-[HH] |==|  0.88293
USER: genes 6 Torsion [N]-CA--C-[N] |==|  0.15504
USER: genes 7 Torsion [C]-N--CA-[C] |==|  0.54422
USER: genes 8 Torsion [N]-CA--CB-[CG] |==|  0.58254
USER: genes 9 Torsion [CA]-CB--CG-[ND1] |==|  0.15548
USER: genes 10 Torsion [N]-CA--C-[O] |==|  0.97578
ROOT
ATOM      1  C   TYR C  64      14.946  -3.339   8.820  1.00 51.57 LIG 0.26  C 
ATOM      2 O    TYR C  64      15.457  -4.449   8.972  1.00 54.62 LIG-0.27  OA
ATOM      3  N   PRO C  65      15.670  -2.207   8.843  1.00 43.10 LIG-0.34  N 
ATOM      4  CA  PRO C  65      15.226  -0.839   8.557  1.00 38.90 LIG 0.18  C 
ATOM      5  CB  PRO C  65      16.014  -0.017   9.567  1.00 40.80 LIG 0.04  C 
ATOM      6  CG  PRO C  65      17.296  -0.762   9.703  1.00 42.19 LIG 0.02  C 
ATOM      7  CD  PRO C  65      16.983  -2.220   9.510  1.00 44.37 LIG 0.13  C 
ENDROOT
BRANCH 1 8
ATOM      8  CA  TYR C  64      13.440  -3.215   8.599  1.00 49.73 LIG 0.40  C 
ATOM      9  N   TYR C  64      13.103  -3.749   7.282  1.00 50.52 LIG 0.61  N 
BRANCH 8 10
ATOM     10  CB  TYR C  64      12.704  -3.986   9.702  1.00 50.46 LIG 0.09  C 
BRANCH 10 11
ATOM     11  CG  TYR C  64      11.371  -3.406  10.124  1.00 47.68 LIG-0.06  A 
ATOM     12  CD2 TYR C  64      10.355  -4.236  10.584  1.00 48.34 LIG 0.01  A 
ATOM     13  CE2 TYR C  64       9.132  -3.724  10.972  1.00 49.15 LIG 0.04  A 
ATOM     14  CZ  TYR C  64       8.912  -2.363  10.904  1.00 50.59 LIG 0.07  A 
ATOM     15  CE1 TYR C  64       9.903  -1.514  10.452  1.00 46.73 LIG 0.04  A 
ATOM     16  CD1 TYR C  64      11.126  -2.038  10.066  1.00 46.22 LIG 0.01  A 
BRANCH 14 17
ATOM     17 OH   TYR C  64       7.696  -1.846  11.289  1.00 53.82 LIG-0.36  OA
ATOM     18 HH   TYR C  64       7.078  -2.335  10.997  1.00 53.82 LIG 0.22  HD
ENDBRANCH 14 17
ENDBRANCH 10 11
ENDBRANCH 8 10
ENDBRANCH 1 8
BRANCH 4 19
ATOM     19  C   PRO C  65      15.595  -0.403   7.142  1.00 37.07 LIG 0.24  C 
ATOM     20  N   HIS C  66      15.153  -1.189   6.162  1.00 40.38 LIG-0.35  N 
ATOM     21 H    HIS C  66      14.720  -1.920   6.297  1.00 40.38 LIG 0.16  HD
ATOM     22 O    PRO C  65      16.276   0.621   6.961  1.00 29.28 LIG-0.27  OA
BRANCH 20 23
ATOM     23  CA  HIS C  66      15.365  -0.879   4.756  1.00 40.25 LIG 0.17  C 
BRANCH 23 24
ATOM     24  CB  HIS C  66      16.830  -1.124   4.366  1.00 42.68 LIG 0.09  C 
BRANCH 24 25
ATOM     25  CG  HIS C  66      17.322  -0.238   3.262  1.00 48.80 LIG 0.06  A 
ATOM     26 ND1  HIS C  66      17.267   1.138   3.327  1.00 53.13 LIG-0.24  NA
ATOM     27  CE1 HIS C  66      17.771   1.650   2.218  1.00 55.16 LIG 0.23  A 
ATOM     28 NE2  HIS C  66      18.151   0.656   1.435  1.00 53.86 LIG-0.25  NA
ATOM     29  CD2 HIS C  66      17.880  -0.536   2.065  1.00 53.41 LIG 0.14  A 
ENDBRANCH 24 25
ENDBRANCH 23 24
BRANCH 23 30
ATOM     30  C   HIS C  66      14.443  -1.707   3.861  1.00 41.89 LIG 0.22  C 
ATOM     31 O    HIS C  66      13.766  -2.624   4.333  1.00 44.58 LIG-0.29  OA
ENDBRANCH 23 30
ENDBRANCH 20 23
ENDBRANCH 4 19
TORSDOF 9
ENDMDL
MODEL 76
USER: ADFR SOLUTION from run 156
USER: SCORE 10.084934 LL:  -1.398 LR:  -8.687 RR:   0.000 FEB:  -6.003
USER: RMSD 6.811960
USER: SEED 155
USER: STATUS no improvement in best in 31 clusters for 5 generations
USER: GENES 11
USER: genes 0 Translation |==|  0.71733 0.52893 0.59288
USER: genes 1 Rotation |==|  0.82521 0.15793 0.66054 0.53816
USER: genes 2 Torsion [N]-C--CA-[N] |==|  0.91555
USER: genes 3 Torsion [C]-CA--CB-[CG] |==|  0.31633
USER: genes 4 Torsion [CA]-CB--CG-[CD2] |==|  0.84681
USER: genes 5 Torsion [CE2]-CZ--OH-[HH] |==|  0.21367
USER: genes 6 Torsion [N]-CA--C-[N] |==|  0.97735
USER: genes 7 Torsion [C]-N--CA-[C] |==|  0.19560
USER: genes 8 Torsion [N]-CA--CB-[CG] |==|  0.74933
USER: genes 9 Torsion [CA]-CB--CG-[ND1] |==|  0.23413
USER: genes 10 Torsion [N]-CA--C-[O] |==|  0.09912
ROOT
ATOM      1  C   TYR C  64      16.226  -0.293   8.749  1.00 51.57 LIG 0.26  C 
ATOM      2 O    TYR C  64      16.625   0.376   9.702  1.00 54.62 LIG-0.27  OA
ATOM      3  N   PRO C  65      15.796  -1.558   8.890  1.00 43.10 LIG-0.34  N 
ATOM      4  CA  PRO C  65      15.183  -2.428   7.882  1.00 38.90 LIG 0.18  C 
ATOM      5  CB  PRO C  65      15.765  -3.793   8.221  1.00 40.80 LIG 0.04  C 
ATOM      6  CG  PRO C  65      15.921  -3.749   9.702  1.00 42.19 LIG 0.02  C 
ATOM      7  CD  PRO C  65      16.227  -2.324  10.073  1.00 44.37 LIG 0.13  C 
ENDROOT
BRANCH 1 8
ATOM      8  CA  TYR C  64      16.212   0.309   7.345  1.00 49.73 LIG 0.40  C 
ATOM      9  N   TYR C  64      16.421  -0.755   6.366  1.00 50.52 LIG 0.61  N 
BRANCH 8 10
ATOM     10  CB  TYR C  64      14.867   1.007   7.110  1.00 50.46 LIG 0.09  C 
BRANCH 10 11
ATOM     11  CG  TYR C  64      14.931   2.510   6.953  1.00 47.68 LIG-0.06  A 
ATOM     12  CD2 TYR C  64      15.526   3.297   7.933  1.00 48.34 LIG 0.01  A 
ATOM     13  CE2 TYR C  64      15.593   4.672   7.806  1.00 49.15 LIG 0.04  A 
ATOM     14  CZ  TYR C  64      15.061   5.278   6.686  1.00 50.59 LIG 0.07  A 
ATOM     15  CE1 TYR C  64      14.466   4.522   5.695  1.00 46.73 LIG 0.04  A 
ATOM     16  CD1 TYR C  64      14.405   3.145   5.832  1.00 46.22 LIG 0.01  A 
BRANCH 14 17
ATOM     17 OH   TYR C  64      15.124   6.646   6.553  1.00 53.82 LIG-0.36  OA
ATOM     18 HH   TYR C  64      15.901   6.871   6.326  1.00 53.82 LIG 0.22  HD
ENDBRANCH 14 17
ENDBRANCH 10 11
ENDBRANCH 8 10
ENDBRANCH 1 8
BRANCH 4 19
ATOM     19  C   PRO C  65      13.664  -2.471   8.013  1.00 37.07 LIG 0.24  C 
ATOM     20  N   HIS C  66      13.159  -1.874   9.091  1.00 40.38 LIG-0.35  N 
ATOM     21 H    HIS C  66      13.642  -1.515   9.705  1.00 40.38 LIG 0.16  HD
ATOM     22 O    PRO C  65      12.978  -3.049   7.151  1.00 29.28 LIG-0.27  OA
BRANCH 20 23
ATOM     23  CA  HIS C  66      11.727  -1.773   9.330  1.00 40.25 LIG 0.17  C 
BRANCH 23 24
ATOM     24  CB  HIS C  66      11.016  -1.184   8.103  1.00 42.68 LIG 0.09  C 
BRANCH 24 25
ATOM     25  CG  HIS C  66      10.903   0.310   8.126  1.00 48.80 LIG 0.06  A 
ATOM     26 ND1  HIS C  66      11.913   1.143   7.693  1.00 53.13 LIG-0.24  NA
ATOM     27  CE1 HIS C  66      11.532   2.401   7.827  1.00 55.16 LIG 0.23  A 
ATOM     28 NE2  HIS C  66      10.310   2.415   8.331  1.00 53.86 LIG-0.25  NA
ATOM     29  CD2 HIS C  66       9.895   1.119   8.528  1.00 53.41 LIG 0.14  A 
ENDBRANCH 24 25
ENDBRANCH 23 24
BRANCH 23 30
ATOM     30  C   HIS C  66      11.126  -3.136   9.673  1.00 41.89 LIG 0.22  C 
ATOM     31 O    HIS C  66      11.764  -3.956  10.338  1.00 44.58 LIG-0.29  OA
ENDBRANCH 23 30
ENDBRANCH 20 23
ENDBRANCH 4 19
TORSDOF 9
ENDMDL
MODEL 77
USER: ADFR SOLUTION from run 52
USER: SCORE 10.734364 LL:  -2.059 LR:  -8.675 RR:   0.000 FEB:  -5.990
USER: RMSD 6.311532
USER: SEED 51
USER: STATUS no improvement in best in 15 clusters for 5 generations
USER: GENES 11
USER: genes 0 Translation |==|  0.72069 0.53084 0.59842
USER: genes 1 Rotation |==|  0.89397 0.21243 0.50533 0.60984
USER: genes 2 Torsion [N]-C--CA-[N] |==|  0.48766
USER: genes 3 Torsion [C]-CA--CB-[CG] |==|  0.30089
USER: genes 4 Torsion [CA]-CB--CG-[CD2] |==|  0.58596
USER: genes 5 Torsion [CE2]-CZ--OH-[HH] |==|  0.06825
USER: genes 6 Torsion [N]-CA--C-[N] |==|  0.50334
USER: genes 7 Torsion [C]-N--CA-[C] |==|  0.45891
USER: genes 8 Torsion [N]-CA--CB-[CG] |==|  0.19689
USER: genes 9 Torsion [CA]-CB--CG-[ND1] |==|  0.85158
USER: genes 10 Torsion [N]-CA--C-[O] |==|  0.45759
ROOT
ATOM      1  C   TYR C  64      16.289  -0.263   8.849  1.00 51.57 LIG 0.26  C 
ATOM      2 O    TYR C  64      17.148   0.376   9.457  1.00 54.62 LIG-0.27  OA
ATOM      3  N   PRO C  65      16.207  -1.603   8.919  1.00 43.10 LIG-0.34  N 
ATOM      4  CA  PRO C  65      15.177  -2.481   8.358  1.00 38.90 LIG 0.18  C 
ATOM      5  CB  PRO C  65      15.981  -3.692   7.906  1.00 40.80 LIG 0.04  C 
ATOM      6  CG  PRO C  65      17.084  -3.771   8.904  1.00 42.19 LIG 0.02  C 
ATOM      7  CD  PRO C  65      17.401  -2.364   9.328  1.00 44.37 LIG 0.13  C 
ENDROOT
BRANCH 1 8
ATOM      8  CA  TYR C  64      15.271   0.465   7.974  1.00 49.73 LIG 0.40  C 
ATOM      9  N   TYR C  64      15.462   1.907   8.116  1.00 50.52 LIG 0.61  N 
BRANCH 8 10
ATOM     10  CB  TYR C  64      15.460   0.034   6.514  1.00 50.46 LIG 0.09  C 
BRANCH 10 11
ATOM     11  CG  TYR C  64      14.375  -0.858   5.953  1.00 47.68 LIG-0.06  A 
ATOM     12  CD2 TYR C  64      14.673  -1.802   4.976  1.00 48.34 LIG 0.01  A 
ATOM     13  CE2 TYR C  64      13.693  -2.624   4.452  1.00 49.15 LIG 0.04  A 
ATOM     14  CZ  TYR C  64      12.394  -2.509   4.904  1.00 50.59 LIG 0.07  A 
ATOM     15  CE1 TYR C  64      12.069  -1.581   5.874  1.00 46.73 LIG 0.04  A 
ATOM     16  CD1 TYR C  64      13.059  -0.762   6.394  1.00 46.22 LIG 0.01  A 
BRANCH 14 17
ATOM     17 OH   TYR C  64      11.414  -3.324   4.386  1.00 53.82 LIG-0.36  OA
ATOM     18 HH   TYR C  64      11.763  -4.027   4.086  1.00 53.82 LIG 0.22  HD
ENDBRANCH 14 17
ENDBRANCH 10 11
ENDBRANCH 8 10
ENDBRANCH 1 8
BRANCH 4 19
ATOM     19  C   PRO C  65      14.155  -2.906   9.408  1.00 37.07 LIG 0.24  C 
ATOM     20  N   HIS C  66      13.197  -3.728   8.982  1.00 40.38 LIG-0.35  N 
ATOM     21 H    HIS C  66      13.118  -3.983   8.165  1.00 40.38 LIG 0.16  HD
ATOM     22 O    PRO C  65      14.242  -2.480  10.573  1.00 29.28 LIG-0.27  OA
BRANCH 20 23
ATOM     23  CA  HIS C  66      12.184  -4.274   9.874  1.00 40.25 LIG 0.17  C 
BRANCH 23 24
ATOM     24  CB  HIS C  66      11.665  -3.190  10.828  1.00 42.68 LIG 0.09  C 
BRANCH 24 25
ATOM     25  CG  HIS C  66      10.815  -2.150  10.163  1.00 48.80 LIG 0.06  A 
ATOM     26 ND1  HIS C  66      11.231  -1.440   9.057  1.00 53.13 LIG-0.24  NA
ATOM     27  CE1 HIS C  66      10.278  -0.601   8.690  1.00 55.16 LIG 0.23  A 
ATOM     28 NE2  HIS C  66       9.259  -0.740   9.519  1.00 53.86 LIG-0.25  NA
ATOM     29  CD2 HIS C  66       9.570  -1.703  10.451  1.00 53.41 LIG 0.14  A 
ENDBRANCH 24 25
ENDBRANCH 23 24
BRANCH 23 30
ATOM     30  C   HIS C  66      11.019  -4.874   9.086  1.00 41.89 LIG 0.22  C 
ATOM     31 O    HIS C  66      10.209  -5.625   9.635  1.00 44.58 LIG-0.29  OA
ENDBRANCH 23 30
ENDBRANCH 20 23
ENDBRANCH 4 19
TORSDOF 9
ENDMDL
MODEL 78
USER: ADFR SOLUTION from run 195
USER: SCORE 10.665683 LL:  -1.986 LR:  -8.680 RR:   0.000 FEB:  -5.995
USER: RMSD 5.956659
USER: SEED 194
USER: STATUS no improvement in best in 45 clusters for 5 generations
USER: GENES 11
USER: genes 0 Translation |==|  0.55177 0.47959 0.48190
USER: genes 1 Rotation |==|  0.59108 0.68758 0.60218 0.94281
USER: genes 2 Torsion [N]-C--CA-[N] |==|  0.37276
USER: genes 3 Torsion [C]-CA--CB-[CG] |==|  0.17198
USER: genes 4 Torsion [CA]-CB--CG-[CD2] |==|  0.74348
USER: genes 5 Torsion [CE2]-CZ--OH-[HH] |==|  0.21978
USER: genes 6 Torsion [N]-CA--C-[N] |==|  0.70471
USER: genes 7 Torsion [C]-N--CA-[C] |==|  0.65027
USER: genes 8 Torsion [N]-CA--CB-[CG] |==|  0.74581
USER: genes 9 Torsion [CA]-CB--CG-[ND1] |==|  0.49258
USER: genes 10 Torsion [N]-CA--C-[O] |==|  0.05364
ROOT
ATOM      1  C   TYR C  64      13.122  -1.070   6.751  1.00 51.57 LIG 0.26  C 
ATOM      2 O    TYR C  64      12.485  -1.589   5.834  1.00 54.62 LIG-0.27  OA
ATOM      3  N   PRO C  65      14.110  -0.188   6.529  1.00 43.10 LIG-0.34  N 
ATOM      4  CA  PRO C  65      14.865   0.597   7.510  1.00 38.90 LIG 0.18  C 
ATOM      5  CB  PRO C  65      16.269   0.604   6.921  1.00 40.80 LIG 0.04  C 
ATOM      6  CG  PRO C  65      16.032   0.597   5.451  1.00 42.19 LIG 0.02  C 
ATOM      7  CD  PRO C  65      14.766  -0.177   5.209  1.00 44.37 LIG 0.13  C 
ENDROOT
BRANCH 1 8
ATOM      8  CA  TYR C  64      12.801  -1.427   8.201  1.00 49.73 LIG 0.40  C 
ATOM      9  N   TYR C  64      11.353  -1.393   8.394  1.00 50.52 LIG 0.61  N 
BRANCH 8 10
ATOM     10  CB  TYR C  64      13.357  -2.822   8.512  1.00 50.46 LIG 0.09  C 
BRANCH 10 11
ATOM     11  CG  TYR C  64      14.859  -2.966   8.395  1.00 47.68 LIG-0.06  A 
ATOM     12  CD2 TYR C  64      15.436  -3.384   7.201  1.00 48.34 LIG 0.01  A 
ATOM     13  CE2 TYR C  64      16.806  -3.522   7.077  1.00 49.15 LIG 0.04  A 
ATOM     14  CZ  TYR C  64      17.618  -3.239   8.156  1.00 50.59 LIG 0.07  A 
ATOM     15  CE1 TYR C  64      17.073  -2.820   9.354  1.00 46.73 LIG 0.04  A 
ATOM     16  CD1 TYR C  64      15.699  -2.685   9.467  1.00 46.22 LIG 0.01  A 
BRANCH 14 17
ATOM     17 OH   TYR C  64      18.983  -3.374   8.040  1.00 53.82 LIG-0.36  OA
ATOM     18 HH   TYR C  64      19.298  -2.706   7.640  1.00 53.82 LIG 0.22  HD
ENDBRANCH 14 17
ENDBRANCH 10 11
ENDBRANCH 8 10
ENDBRANCH 1 8
BRANCH 4 19
ATOM     19  C   PRO C  65      14.347   2.028   7.617  1.00 37.07 LIG 0.24  C 
ATOM     20  N   HIS C  66      15.117   2.964   7.066  1.00 40.38 LIG-0.35  N 
ATOM     21 H    HIS C  66      15.878   2.800   6.702  1.00 40.38 LIG 0.16  HD
ATOM     22 O    PRO C  65      13.275   2.262   8.202  1.00 29.28 LIG-0.27  OA
BRANCH 20 23
ATOM     23  CA  HIS C  66      14.734   4.368   7.028  1.00 40.25 LIG 0.17  C 
BRANCH 23 24
ATOM     24  CB  HIS C  66      15.650   5.201   7.936  1.00 42.68 LIG 0.09  C 
BRANCH 24 25
ATOM     25  CG  HIS C  66      15.141   5.356   9.337  1.00 48.80 LIG 0.06  A 
ATOM     26 ND1  HIS C  66      15.844   6.022  10.318  1.00 53.13 LIG-0.24  NA
ATOM     27  CE1 HIS C  66      15.152   6.001  11.444  1.00 55.16 LIG 0.23  A 
ATOM     28 NE2  HIS C  66      14.025   5.345  11.229  1.00 53.86 LIG-0.25  NA
ATOM     29  CD2 HIS C  66      13.995   4.930   9.918  1.00 53.41 LIG 0.14  A 
ENDBRANCH 24 25
ENDBRANCH 23 24
BRANCH 23 30
ATOM     30  C   HIS C  66      14.779   4.916   5.601  1.00 41.89 LIG 0.22  C 
ATOM     31 O    HIS C  66      14.757   4.152   4.633  1.00 44.58 LIG-0.29  OA
ENDBRANCH 23 30
ENDBRANCH 20 23
ENDBRANCH 4 19
TORSDOF 9
ENDMDL
MODEL 79
USER: ADFR SOLUTION from run 111
USER: SCORE 10.733534 LL:  -2.056 LR:  -8.678 RR:   0.000 FEB:  -5.993
USER: RMSD 7.618046
USER: SEED 110
USER: STATUS no improvement in best in 27 clusters for 5 generations
USER: GENES 11
USER: genes 0 Translation |==|  0.63831 0.60476 0.50882
USER: genes 1 Rotation |==|  0.07914 0.59403 0.24881 0.53059
USER: genes 2 Torsion [N]-C--CA-[N] |==|  0.50119
USER: genes 3 Torsion [C]-CA--CB-[CG] |==|  0.39864
USER: genes 4 Torsion [CA]-CB--CG-[CD2] |==|  0.42222
USER: genes 5 Torsion [CE2]-CZ--OH-[HH] |==|  0.05466
USER: genes 6 Torsion [N]-CA--C-[N] |==|  0.07410
USER: genes 7 Torsion [C]-N--CA-[C] |==|  0.67359
USER: genes 8 Torsion [N]-CA--CB-[CG] |==|  0.88866
USER: genes 9 Torsion [CA]-CB--CG-[ND1] |==|  0.93141
USER: genes 10 Torsion [N]-CA--C-[O] |==|  0.01167
ROOT
ATOM      1  C   TYR C  64      14.744   0.901   7.236  1.00 51.57 LIG 0.26  C 
ATOM      2 O    TYR C  64      14.028   1.708   7.828  1.00 54.62 LIG-0.27  OA
ATOM      3  N   PRO C  65      15.524   0.021   7.886  1.00 43.10 LIG-0.34  N 
ATOM      4  CA  PRO C  65      16.328  -1.069   7.326  1.00 38.90 LIG 0.18  C 
ATOM      5  CB  PRO C  65      17.572  -1.050   8.202  1.00 40.80 LIG 0.04  C 
ATOM      6  CG  PRO C  65      17.057  -0.622   9.532  1.00 42.19 LIG 0.02  C 
ATOM      7  CD  PRO C  65      15.901   0.307   9.282  1.00 44.37 LIG 0.13  C 
ENDROOT
BRANCH 1 8
ATOM      8  CA  TYR C  64      14.770   0.879   5.709  1.00 49.73 LIG 0.40  C 
ATOM      9  N   TYR C  64      13.869   1.910   5.200  1.00 50.52 LIG 0.61  N 
BRANCH 8 10
ATOM     10  CB  TYR C  64      16.204   1.126   5.225  1.00 50.46 LIG 0.09  C 
BRANCH 10 11
ATOM     11  CG  TYR C  64      16.618   0.354   3.992  1.00 47.68 LIG-0.06  A 
ATOM     12  CD2 TYR C  64      17.587   0.861   3.134  1.00 48.34 LIG 0.01  A 
ATOM     13  CE2 TYR C  64      17.976   0.169   2.002  1.00 49.15 LIG 0.04  A 
ATOM     14  CZ  TYR C  64      17.394  -1.049   1.717  1.00 50.59 LIG 0.07  A 
ATOM     15  CE1 TYR C  64      16.430  -1.579   2.552  1.00 46.73 LIG 0.04  A 
ATOM     16  CD1 TYR C  64      16.048  -0.878   3.683  1.00 46.22 LIG 0.01  A 
BRANCH 14 17
ATOM     17 OH   TYR C  64      17.776  -1.744   0.591  1.00 53.82 LIG-0.36  OA
ATOM     18 HH   TYR C  64      18.525  -1.465   0.331  1.00 53.82 LIG 0.22  HD
ENDBRANCH 14 17
ENDBRANCH 10 11
ENDBRANCH 8 10
ENDBRANCH 1 8
BRANCH 4 19
ATOM     19  C   PRO C  65      15.629  -2.419   7.456  1.00 37.07 LIG 0.24  C 
ATOM     20  N   HIS C  66      14.298  -2.378   7.506  1.00 40.38 LIG-0.35  N 
ATOM     21 H    HIS C  66      13.845  -1.648   7.504  1.00 40.38 LIG 0.16  HD
ATOM     22 O    PRO C  65      16.297  -3.466   7.522  1.00 29.28 LIG-0.27  OA
BRANCH 20 23
ATOM     23  CA  HIS C  66      13.482  -3.582   7.566  1.00 40.25 LIG 0.17  C 
BRANCH 23 24
ATOM     24  CB  HIS C  66      12.629  -3.590   8.843  1.00 42.68 LIG 0.09  C 
BRANCH 24 25
ATOM     25  CG  HIS C  66      13.348  -3.088  10.058  1.00 48.80 LIG 0.06  A 
ATOM     26 ND1  HIS C  66      14.720  -3.124  10.183  1.00 53.13 LIG-0.24  NA
ATOM     27  CE1 HIS C  66      15.068  -2.614  11.352  1.00 55.16 LIG 0.23  A 
ATOM     28 NE2  HIS C  66      13.970  -2.249  11.990  1.00 53.86 LIG-0.25  NA
ATOM     29  CD2 HIS C  66      12.880  -2.536  11.202  1.00 53.41 LIG 0.14  A 
ENDBRANCH 24 25
ENDBRANCH 23 24
BRANCH 23 30
ATOM     30  C   HIS C  66      12.579  -3.701   6.338  1.00 41.89 LIG 0.22  C 
ATOM     31 O    HIS C  66      12.658  -2.883   5.418  1.00 44.58 LIG-0.29  OA
ENDBRANCH 23 30
ENDBRANCH 20 23
ENDBRANCH 4 19
TORSDOF 9
ENDMDL
MODEL 80
USER: ADFR SOLUTION from run 145
USER: SCORE 11.091799 LL:  -2.424 LR:  -8.668 RR:   0.000 FEB:  -5.983
USER: RMSD 4.555919
USER: SEED 144
USER: STATUS no improvement in best in 32 clusters for 5 generations
USER: GENES 11
USER: genes 0 Translation |==|  0.49455 0.48154 0.54061
USER: genes 1 Rotation |==|  0.89357 0.55078 0.35140 0.76541
USER: genes 2 Torsion [N]-C--CA-[N] |==|  0.42324
USER: genes 3 Torsion [C]-CA--CB-[CG] |==|  0.30220
USER: genes 4 Torsion [CA]-CB--CG-[CD2] |==|  0.17454
USER: genes 5 Torsion [CE2]-CZ--OH-[HH] |==|  0.67779
USER: genes 6 Torsion [N]-CA--C-[N] |==|  0.08482
USER: genes 7 Torsion [C]-N--CA-[C] |==|  0.61769
USER: genes 8 Torsion [N]-CA--CB-[CG] |==|  0.04364
USER: genes 9 Torsion [CA]-CB--CG-[ND1] |==|  0.25598
USER: genes 10 Torsion [N]-CA--C-[O] |==|  0.11625
ROOT
ATOM      1  C   TYR C  64      12.049  -1.040   7.808  1.00 51.57 LIG 0.26  C 
ATOM      2 O    TYR C  64      11.955   0.163   7.564  1.00 54.62 LIG-0.27  OA
ATOM      3  N   PRO C  65      13.055  -1.792   7.332  1.00 43.10 LIG-0.34  N 
ATOM      4  CA  PRO C  65      13.364  -3.193   7.634  1.00 38.90 LIG 0.18  C 
ATOM      5  CB  PRO C  65      13.845  -3.725   6.292  1.00 40.80 LIG 0.04  C 
ATOM      6  CG  PRO C  65      14.516  -2.550   5.669  1.00 42.19 LIG 0.02  C 
ATOM      7  CD  PRO C  65      13.790  -1.322   6.144  1.00 44.37 LIG 0.13  C 
ENDROOT
BRANCH 1 8
ATOM      8  CA  TYR C  64      10.997  -1.727   8.676  1.00 49.73 LIG 0.40  C 
ATOM      9  N   TYR C  64      10.421  -0.749   9.596  1.00 50.52 LIG 0.61  N 
BRANCH 8 10
ATOM     10  CB  TYR C  64       9.912  -2.328   7.774  1.00 50.46 LIG 0.09  C 
BRANCH 10 11
ATOM     11  CG  TYR C  64       9.907  -3.838   7.679  1.00 47.68 LIG-0.06  A 
ATOM     12  CD2 TYR C  64       9.667  -4.615   8.807  1.00 48.34 LIG 0.01  A 
ATOM     13  CE2 TYR C  64       9.659  -5.995   8.738  1.00 49.15 LIG 0.04  A 
ATOM     14  CZ  TYR C  64       9.892  -6.617   7.528  1.00 50.59 LIG 0.07  A 
ATOM     15  CE1 TYR C  64      10.131  -5.871   6.391  1.00 46.73 LIG 0.04  A 
ATOM     16  CD1 TYR C  64      10.137  -4.488   6.470  1.00 46.22 LIG 0.01  A 
BRANCH 14 17
ATOM     17 OH   TYR C  64       9.886  -7.991   7.452  1.00 53.82 LIG-0.36  OA
ATOM     18 HH   TYR C  64      10.651  -8.264   7.237  1.00 53.82 LIG 0.22  HD
ENDBRANCH 14 17
ENDBRANCH 10 11
ENDBRANCH 8 10
ENDBRANCH 1 8
BRANCH 4 19
ATOM     19  C   PRO C  65      14.480  -3.321   8.667  1.00 37.07 LIG 0.24  C 
ATOM     20  N   HIS C  66      14.559  -2.335   9.558  1.00 40.38 LIG-0.35  N 
ATOM     21 H    HIS C  66      14.049  -1.643   9.547  1.00 40.38 LIG 0.16  HD
ATOM     22 O    PRO C  65      15.252  -4.296   8.635  1.00 29.28 LIG-0.27  OA
BRANCH 20 23
ATOM     23  CA  HIS C  66      15.527  -2.340  10.645  1.00 40.25 LIG 0.17  C 
BRANCH 23 24
ATOM     24  CB  HIS C  66      16.728  -1.448  10.300  1.00 42.68 LIG 0.09  C 
BRANCH 24 25
ATOM     25  CG  HIS C  66      16.483  -0.513   9.155  1.00 48.80 LIG 0.06  A 
ATOM     26 ND1  HIS C  66      16.017   0.773   9.327  1.00 53.13 LIG-0.24  NA
ATOM     27  CE1 HIS C  66      15.901   1.358   8.148  1.00 55.16 LIG 0.23  A 
ATOM     28 NE2  HIS C  66      16.275   0.499   7.217  1.00 53.86 LIG-0.25  NA
ATOM     29  CD2 HIS C  66      16.643  -0.681   7.822  1.00 53.41 LIG 0.14  A 
ENDBRANCH 24 25
ENDBRANCH 23 24
BRANCH 23 30
ATOM     30  C   HIS C  66      14.891  -1.871  11.954  1.00 41.89 LIG 0.22  C 
ATOM     31 O    HIS C  66      13.762  -2.249  12.276  1.00 44.58 LIG-0.29  OA
ENDBRANCH 23 30
ENDBRANCH 20 23
ENDBRANCH 4 19
TORSDOF 9
ENDMDL
MODEL 81
USER: ADFR SOLUTION from run 161
USER: SCORE 10.746049 LL:  -2.100 LR:  -8.646 RR:   0.000 FEB:  -5.962
USER: RMSD 8.144283
USER: SEED 160
USER: STATUS no improvement in best in 19 clusters for 5 generations
USER: GENES 11
USER: genes 0 Translation |==|  0.50298 0.31808 0.67557
USER: genes 1 Rotation |==|  0.62708 0.08905 0.74705 0.56275
USER: genes 2 Torsion [N]-C--CA-[N] |==|  0.28251
USER: genes 3 Torsion [C]-CA--CB-[CG] |==|  0.72546
USER: genes 4 Torsion [CA]-CB--CG-[CD2] |==|  0.19554
USER: genes 5 Torsion [CE2]-CZ--OH-[HH] |==|  0.35332
USER: genes 6 Torsion [N]-CA--C-[N] |==|  0.01977
USER: genes 7 Torsion [C]-N--CA-[C] |==|  0.56692
USER: genes 8 Torsion [N]-CA--CB-[CG] |==|  0.06610
USER: genes 9 Torsion [CA]-CB--CG-[ND1] |==|  0.66287
USER: genes 10 Torsion [N]-CA--C-[O] |==|  0.98528
ROOT
ATOM      1  C   TYR C  64      12.207  -3.614  10.237  1.00 51.57 LIG 0.26  C 
ATOM      2 O    TYR C  64      12.663  -3.000  11.202  1.00 54.62 LIG-0.27  OA
ATOM      3  N   PRO C  65      10.991  -4.187  10.261  1.00 43.10 LIG-0.34  N 
ATOM      4  CA  PRO C  65      10.272  -4.837   9.161  1.00 38.90 LIG 0.18  C 
ATOM      5  CB  PRO C  65       9.579  -5.999   9.859  1.00 40.80 LIG 0.04  C 
ATOM      6  CG  PRO C  65       9.282  -5.466  11.217  1.00 42.19 LIG 0.02  C 
ATOM      7  CD  PRO C  65      10.383  -4.502  11.565  1.00 44.37 LIG 0.13  C 
ENDROOT
BRANCH 1 8
ATOM      8  CA  TYR C  64      13.031  -3.749   8.959  1.00 49.73 LIG 0.40  C 
ATOM      9  N   TYR C  64      12.949  -2.502   8.202  1.00 50.52 LIG 0.61  N 
BRANCH 8 10
ATOM     10  CB  TYR C  64      14.486  -4.065   9.327  1.00 50.46 LIG 0.09  C 
BRANCH 10 11
ATOM     11  CG  TYR C  64      15.431  -2.884   9.320  1.00 47.68 LIG-0.06  A 
ATOM     12  CD2 TYR C  64      15.336  -1.899  10.296  1.00 48.34 LIG 0.01  A 
ATOM     13  CE2 TYR C  64      16.192  -0.813  10.303  1.00 49.15 LIG 0.04  A 
ATOM     14  CZ  TYR C  64      17.160  -0.703   9.326  1.00 50.59 LIG 0.07  A 
ATOM     15  CE1 TYR C  64      17.278  -1.668   8.345  1.00 46.73 LIG 0.04  A 
ATOM     16  CD1 TYR C  64      16.417  -2.752   8.346  1.00 46.22 LIG 0.01  A 
BRANCH 14 17
ATOM     17 OH   TYR C  64      18.014   0.376   9.327  1.00 53.82 LIG-0.36  OA
ATOM     18 HH   TYR C  64      18.809   0.104   9.300  1.00 53.82 LIG 0.22  HD
ENDBRANCH 14 17
ENDBRANCH 10 11
ENDBRANCH 8 10
ENDBRANCH 1 8
BRANCH 4 19
ATOM     19  C   PRO C  65       9.228  -3.916   8.539  1.00 37.07 LIG 0.24  C 
ATOM     20  N   HIS C  66       9.235  -2.657   8.974  1.00 40.38 LIG-0.35  N 
ATOM     21 H    HIS C  66       9.759  -2.371   9.592  1.00 40.38 LIG 0.16  HD
ATOM     22 O    PRO C  65       8.431  -4.356   7.691  1.00 29.28 LIG-0.27  OA
BRANCH 20 23
ATOM     23  CA  HIS C  66       8.345  -1.639   8.434  1.00 40.25 LIG 0.17  C 
BRANCH 23 24
ATOM     24  CB  HIS C  66       6.959  -1.735   9.088  1.00 42.68 LIG 0.09  C 
BRANCH 24 25
ATOM     25  CG  HIS C  66       6.966  -2.386  10.437  1.00 48.80 LIG 0.06  A 
ATOM     26 ND1  HIS C  66       6.233  -3.518  10.725  1.00 53.13 LIG-0.24  NA
ATOM     27  CE1 HIS C  66       6.437  -3.865  11.984  1.00 55.16 LIG 0.23  A 
ATOM     28 NE2  HIS C  66       7.276  -2.999  12.524  1.00 53.86 LIG-0.25  NA
ATOM     29  CD2 HIS C  66       7.621  -2.063  11.577  1.00 53.41 LIG 0.14  A 
ENDBRANCH 24 25
ENDBRANCH 23 24
BRANCH 23 30
ATOM     30  C   HIS C  66       8.920  -0.237   8.638  1.00 41.89 LIG 0.22  C 
ATOM     31 O    HIS C  66       9.958  -0.070   9.283  1.00 44.58 LIG-0.29  OA
ENDBRANCH 23 30
ENDBRANCH 20 23
ENDBRANCH 4 19
TORSDOF 9
ENDMDL
MODEL 82
USER: ADFR SOLUTION from run 137
USER: SCORE 10.304566 LL:  -1.666 LR:  -8.638 RR:   0.000 FEB:  -5.954
USER: RMSD 8.216374
USER: SEED 136
USER: STATUS no improvement in best in 52 clusters for 5 generations
USER: GENES 11
USER: genes 0 Translation |==|  0.49807 0.35573 0.57677
USER: genes 1 Rotation |==|  0.48413 0.65610 0.92276 0.71599
USER: genes 2 Torsion [N]-C--CA-[N] |==|  0.24989
USER: genes 3 Torsion [C]-CA--CB-[CG] |==|  0.20457
USER: genes 4 Torsion [CA]-CB--CG-[CD2] |==|  0.62791
USER: genes 5 Torsion [CE2]-CZ--OH-[HH] |==|  0.90277
USER: genes 6 Torsion [N]-CA--C-[N] |==|  0.56797
USER: genes 7 Torsion [C]-N--CA-[C] |==|  0.15876
USER: genes 8 Torsion [N]-CA--CB-[CG] |==|  0.77999
USER: genes 9 Torsion [CA]-CB--CG-[ND1] |==|  0.63611
USER: genes 10 Torsion [N]-CA--C-[O] |==|  0.10059
ROOT
ATOM      1  C   TYR C  64      12.115  -3.021   8.459  1.00 51.57 LIG 0.26  C 
ATOM      2 O    TYR C  64      12.530  -3.336   7.343  1.00 54.62 LIG-0.27  OA
ATOM      3  N   PRO C  65      11.143  -2.109   8.632  1.00 43.10 LIG-0.34  N 
ATOM      4  CA  PRO C  65      10.468  -1.727   9.876  1.00 38.90 LIG 0.18  C 
ATOM      5  CB  PRO C  65      10.276  -0.227   9.702  1.00 40.80 LIG 0.04  C 
ATOM      6  CG  PRO C  65      10.074  -0.067   8.235  1.00 42.19 LIG 0.02  C 
ATOM      7  CD  PRO C  65      10.887  -1.135   7.557  1.00 44.37 LIG 0.13  C 
ENDROOT
BRANCH 1 8
ATOM      8  CA  TYR C  64      12.709  -3.672   9.706  1.00 49.73 LIG 0.40  C 
ATOM      9  N   TYR C  64      11.945  -4.874  10.030  1.00 50.52 LIG 0.61  N 
BRANCH 8 10
ATOM     10  CB  TYR C  64      14.180  -4.018   9.442  1.00 50.46 LIG 0.09  C 
BRANCH 10 11
ATOM     11  CG  TYR C  64      15.132  -2.842   9.419  1.00 47.68 LIG-0.06  A 
ATOM     12  CD2 TYR C  64      16.079  -2.721   8.408  1.00 48.34 LIG 0.01  A 
ATOM     13  CE2 TYR C  64      16.957  -1.654   8.372  1.00 49.15 LIG 0.04  A 
ATOM     14  CZ  TYR C  64      16.894  -0.689   9.356  1.00 50.59 LIG 0.07  A 
ATOM     15  CE1 TYR C  64      15.964  -0.782  10.372  1.00 46.73 LIG 0.04  A 
ATOM     16  CD1 TYR C  64      15.088  -1.855  10.399  1.00 46.22 LIG 0.01  A 
BRANCH 14 17
ATOM     17 OH   TYR C  64      17.766   0.376   9.327  1.00 53.82 LIG-0.36  OA
ATOM     18 HH   TYR C  64      18.510   0.122   9.030  1.00 53.82 LIG 0.22  HD
ENDBRANCH 14 17
ENDBRANCH 10 11
ENDBRANCH 8 10
ENDBRANCH 1 8
BRANCH 4 19
ATOM     19  C   PRO C  65       9.109  -2.404  10.019  1.00 37.07 LIG 0.24  C 
ATOM     20  N   HIS C  66       8.228  -1.776  10.796  1.00 40.38 LIG-0.35  N 
ATOM     21 H    HIS C  66       8.407  -1.055  11.229  1.00 40.38 LIG 0.16  HD
ATOM     22 O    PRO C  65       8.883  -3.481   9.439  1.00 29.28 LIG-0.27  OA
BRANCH 20 23
ATOM     23  CA  HIS C  66       6.868  -2.259  10.985  1.00 40.25 LIG 0.17  C 
BRANCH 23 24
ATOM     24  CB  HIS C  66       6.085  -2.192   9.666  1.00 42.68 LIG 0.09  C 
BRANCH 24 25
ATOM     25  CG  HIS C  66       5.580  -0.823   9.327  1.00 48.80 LIG 0.06  A 
ATOM     26 ND1  HIS C  66       4.276  -0.579   8.952  1.00 53.13 LIG-0.24  NA
ATOM     27  CE1 HIS C  66       4.122   0.713   8.719  1.00 55.16 LIG 0.23  A 
ATOM     28 NE2  HIS C  66       5.279   1.316   8.928  1.00 53.86 LIG-0.25  NA
ATOM     29  CD2 HIS C  66       6.208   0.376   9.309  1.00 53.41 LIG 0.14  A 
ENDBRANCH 24 25
ENDBRANCH 23 24
BRANCH 23 30
ATOM     30  C   HIS C  66       6.859  -3.690  11.523  1.00 41.89 LIG 0.22  C 
ATOM     31 O    HIS C  66       7.715  -4.066  12.328  1.00 44.58 LIG-0.29  OA
ENDBRANCH 23 30
ENDBRANCH 20 23
ENDBRANCH 4 19
TORSDOF 9
ENDMDL
MODEL 83
USER: ADFR SOLUTION from run 23
USER: SCORE 10.256918 LL:  -1.619 LR:  -8.638 RR:   0.000 FEB:  -5.953
USER: RMSD 6.808760
USER: SEED 22
USER: STATUS no improvement in best in 14 clusters for 5 generations
USER: GENES 11
USER: genes 0 Translation |==|  0.71191 0.53421 0.60392
USER: genes 1 Rotation |==|  0.77257 0.18091 0.76870 0.54115
USER: genes 2 Torsion [N]-C--CA-[N] |==|  0.90522
USER: genes 3 Torsion [C]-CA--CB-[CG] |==|  0.13710
USER: genes 4 Torsion [CA]-CB--CG-[CD2] |==|  0.62701
USER: genes 5 Torsion [CE2]-CZ--OH-[HH] |==|  0.76176
USER: genes 6 Torsion [N]-CA--C-[N] |==|  0.92615
USER: genes 7 Torsion [C]-N--CA-[C] |==|  0.71861
USER: genes 8 Torsion [N]-CA--CB-[CG] |==|  0.80042
USER: genes 9 Torsion [CA]-CB--CG-[ND1] |==|  0.57338
USER: genes 10 Torsion [N]-CA--C-[O] |==|  0.71741
ROOT
ATOM      1  C   TYR C  64      16.124  -0.210   8.948  1.00 51.57 LIG 0.26  C 
ATOM      2 O    TYR C  64      16.276   0.751   9.702  1.00 54.62 LIG-0.27  OA
ATOM      3  N   PRO C  65      15.533  -1.349   9.346  1.00 43.10 LIG-0.34  N 
ATOM      4  CA  PRO C  65      15.174  -2.518   8.538  1.00 38.90 LIG 0.18  C 
ATOM      5  CB  PRO C  65      15.464  -3.677   9.482  1.00 40.80 LIG 0.04  C 
ATOM      6  CG  PRO C  65      15.151  -3.119  10.827  1.00 42.19 LIG 0.02  C 
ATOM      7  CD  PRO C  65      15.482  -1.653  10.787  1.00 44.37 LIG 0.13  C 
ENDROOT
BRANCH 1 8
ATOM      8  CA  TYR C  64      16.619  -0.134   7.505  1.00 49.73 LIG 0.40  C 
ATOM      9  N   TYR C  64      17.088  -1.454   7.089  1.00 50.52 LIG 0.61  N 
BRANCH 8 10
ATOM     10  CB  TYR C  64      15.474   0.343   6.603  1.00 50.46 LIG 0.09  C 
BRANCH 10 11
ATOM     11  CG  TYR C  64      14.742   1.579   7.080  1.00 47.68 LIG-0.06  A 
ATOM     12  CD2 TYR C  64      13.352   1.624   7.068  1.00 48.34 LIG 0.01  A 
ATOM     13  CE2 TYR C  64      12.667   2.744   7.498  1.00 49.15 LIG 0.04  A 
ATOM     14  CZ  TYR C  64      13.373   3.841   7.950  1.00 50.59 LIG 0.07  A 
ATOM     15  CE1 TYR C  64      14.754   3.824   7.975  1.00 46.73 LIG 0.04  A 
ATOM     16  CD1 TYR C  64      15.431   2.696   7.541  1.00 46.22 LIG 0.01  A 
BRANCH 14 17
ATOM     17 OH   TYR C  64      12.698   4.960   8.380  1.00 53.82 LIG-0.36  OA
ATOM     18 HH   TYR C  64      12.526   5.454   7.721  1.00 53.82 LIG 0.22  HD
ENDBRANCH 14 17
ENDBRANCH 10 11
ENDBRANCH 8 10
ENDBRANCH 1 8
BRANCH 4 19
ATOM     19  C   PRO C  65      13.696  -2.521   8.161  1.00 37.07 LIG 0.24  C 
ATOM     20  N   HIS C  66      12.886  -1.874   8.997  1.00 40.38 LIG-0.35  N 
ATOM     21 H    HIS C  66      13.152  -1.505   9.727  1.00 40.38 LIG 0.16  HD
ATOM     22 O    PRO C  65      13.313  -3.112   7.136  1.00 29.28 LIG-0.27  OA
BRANCH 20 23
ATOM     23  CA  HIS C  66      11.459  -1.731   8.748  1.00 40.25 LIG 0.17  C 
BRANCH 23 24
ATOM     24  CB  HIS C  66      10.659  -1.990  10.032  1.00 42.68 LIG 0.09  C 
BRANCH 24 25
ATOM     25  CG  HIS C  66      10.631  -3.428  10.452  1.00 48.80 LIG 0.06  A 
ATOM     26 ND1  HIS C  66       9.607  -3.968  11.202  1.00 53.13 LIG-0.24  NA
ATOM     27  CE1 HIS C  66       9.850  -5.249  11.416  1.00 55.16 LIG 0.23  A 
ATOM     28 NE2  HIS C  66      10.994  -5.560  10.833  1.00 53.86 LIG-0.25  NA
ATOM     29  CD2 HIS C  66      11.503  -4.437  10.223  1.00 53.41 LIG 0.14  A 
ENDBRANCH 24 25
ENDBRANCH 23 24
BRANCH 23 30
ATOM     30  C   HIS C  66      11.130  -0.341   8.202  1.00 41.89 LIG 0.22  C 
ATOM     31 O    HIS C  66      10.651   0.527   8.937  1.00 44.58 LIG-0.29  OA
ENDBRANCH 23 30
ENDBRANCH 20 23
ENDBRANCH 4 19
TORSDOF 9
ENDMDL
MODEL 84
USER: ADFR SOLUTION from run 134
USER: SCORE 10.851807 LL:  -2.209 LR:  -8.642 RR:   0.000 FEB:  -5.958
USER: RMSD 4.773860
USER: SEED 133
USER: STATUS no improvement in best in 33 clusters for 5 generations
USER: GENES 11
USER: genes 0 Translation |==|  0.61500 0.42085 0.45208
USER: genes 1 Rotation |==|  0.90265 0.49653 0.58591 0.78369
USER: genes 2 Torsion [N]-C--CA-[N] |==|  0.14054
USER: genes 3 Torsion [C]-CA--CB-[CG] |==|  0.84940
USER: genes 4 Torsion [CA]-CB--CG-[CD2] |==|  0.84240
USER: genes 5 Torsion [CE2]-CZ--OH-[HH] |==|  0.92955
USER: genes 6 Torsion [N]-CA--C-[N] |==|  0.09218
USER: genes 7 Torsion [C]-N--CA-[C] |==|  0.60182
USER: genes 8 Torsion [N]-CA--CB-[CG] |==|  0.00119
USER: genes 9 Torsion [CA]-CB--CG-[ND1] |==|  0.73819
USER: genes 10 Torsion [N]-CA--C-[O] |==|  0.05280
ROOT
ATOM      1  C   TYR C  64      14.307  -1.996   6.214  1.00 51.57 LIG 0.26  C 
ATOM      2 O    TYR C  64      14.080  -0.858   5.802  1.00 54.62 LIG-0.27  OA
ATOM      3  N   PRO C  65      15.466  -2.325   6.811  1.00 43.10 LIG-0.34  N 
ATOM      4  CA  PRO C  65      15.828  -3.590   7.456  1.00 38.90 LIG 0.18  C 
ATOM      5  CB  PRO C  65      17.294  -3.749   7.077  1.00 40.80 LIG 0.04  C 
ATOM      6  CG  PRO C  65      17.795  -2.348   7.023  1.00 42.19 LIG 0.02  C 
ATOM      7  CD  PRO C  65      16.651  -1.485   6.566  1.00 44.37 LIG 0.13  C 
ENDROOT
BRANCH 1 8
ATOM      8  CA  TYR C  64      13.255  -3.091   6.052  1.00 49.73 LIG 0.40  C 
ATOM      9  N   TYR C  64      13.047  -3.749   7.340  1.00 50.52 LIG 0.61  N 
BRANCH 8 10
ATOM     10  CB  TYR C  64      11.950  -2.466   5.545  1.00 50.46 LIG 0.09  C 
BRANCH 10 11
ATOM     11  CG  TYR C  64      11.412  -1.319   6.373  1.00 47.68 LIG-0.06  A 
ATOM     12  CD2 TYR C  64      11.144  -1.491   7.726  1.00 48.34 LIG 0.01  A 
ATOM     13  CE2 TYR C  64      10.651  -0.455   8.497  1.00 49.15 LIG 0.04  A 
ATOM     14  CZ  TYR C  64      10.421   0.775   7.915  1.00 50.59 LIG 0.07  A 
ATOM     15  CE1 TYR C  64      10.680   0.976   6.573  1.00 46.73 LIG 0.04  A 
ATOM     16  CD1 TYR C  64      11.174  -0.069   5.810  1.00 46.22 LIG 0.01  A 
BRANCH 14 17
ATOM     17 OH   TYR C  64       9.930   1.812   8.676  1.00 53.82 LIG-0.36  OA
ATOM     18 HH   TYR C  64       9.504   1.502   9.331  1.00 53.82 LIG 0.22  HD
ENDBRANCH 14 17
ENDBRANCH 10 11
ENDBRANCH 8 10
ENDBRANCH 1 8
BRANCH 4 19
ATOM     19  C   PRO C  65      15.695  -3.516   8.974  1.00 37.07 LIG 0.24  C 
ATOM     20  N   HIS C  66      14.719  -2.734   9.431  1.00 40.38 LIG-0.35  N 
ATOM     21 H    HIS C  66      14.210  -2.264   8.923  1.00 40.38 LIG 0.16  HD
ATOM     22 O    PRO C  65      16.478  -4.151   9.702  1.00 29.28 LIG-0.27  OA
BRANCH 20 23
ATOM     23  CA  HIS C  66      14.421  -2.605  10.850  1.00 40.25 LIG 0.17  C 
BRANCH 23 24
ATOM     24  CB  HIS C  66      15.151  -1.392  11.445  1.00 42.68 LIG 0.09  C 
BRANCH 24 25
ATOM     25  CG  HIS C  66      15.975  -0.630  10.452  1.00 48.80 LIG 0.06  A 
ATOM     26 ND1  HIS C  66      17.321  -0.863  10.262  1.00 53.13 LIG-0.24  NA
ATOM     27  CE1 HIS C  66      17.779  -0.049   9.327  1.00 55.16 LIG 0.23  A 
ATOM     28 NE2  HIS C  66      16.779   0.704   8.904  1.00 53.86 LIG-0.25  NA
ATOM     29  CD2 HIS C  66      15.640   0.360   9.593  1.00 53.41 LIG 0.14  A 
ENDBRANCH 24 25
ENDBRANCH 23 24
BRANCH 23 30
ATOM     30  C   HIS C  66      12.917  -2.475  11.090  1.00 41.89 LIG 0.22  C 
ATOM     31 O    HIS C  66      12.109  -2.828  10.227  1.00 44.58 LIG-0.29  OA
ENDBRANCH 23 30
ENDBRANCH 20 23
ENDBRANCH 4 19
TORSDOF 9
ENDMDL
MODEL 85
USER: ADFR SOLUTION from run 194
USER: SCORE 10.914441 LL:  -2.285 LR:  -8.630 RR:   0.000 FEB:  -5.945
USER: RMSD 5.779079
USER: SEED 193
USER: STATUS no improvement in best in 24 clusters for 5 generations
USER: GENES 11
USER: genes 0 Translation |==|  0.54486 0.32353 0.48947
USER: genes 1 Rotation |==|  0.49214 0.75193 0.63447 0.91035
USER: genes 2 Torsion [N]-C--CA-[N] |==|  0.44631
USER: genes 3 Torsion [C]-CA--CB-[CG] |==|  0.24432
USER: genes 4 Torsion [CA]-CB--CG-[CD2] |==|  0.66805
USER: genes 5 Torsion [CE2]-CZ--OH-[HH] |==|  0.90544
USER: genes 6 Torsion [N]-CA--C-[N] |==|  0.26470
USER: genes 7 Torsion [C]-N--CA-[C] |==|  0.77908
USER: genes 8 Torsion [N]-CA--CB-[CG] |==|  0.94661
USER: genes 9 Torsion [CA]-CB--CG-[ND1] |==|  0.33516
USER: genes 10 Torsion [N]-CA--C-[O] |==|  0.97289
ROOT
ATOM      1  C   TYR C  64      12.992  -3.528   6.887  1.00 51.57 LIG 0.26  C 
ATOM      2 O    TYR C  64      12.482  -4.499   6.327  1.00 54.62 LIG-0.27  OA
ATOM      3  N   PRO C  65      13.573  -2.528   6.204  1.00 43.10 LIG-0.34  N 
ATOM      4  CA  PRO C  65      14.105  -1.264   6.720  1.00 38.90 LIG 0.18  C 
ATOM      5  CB  PRO C  65      15.341  -1.047   5.858  1.00 40.80 LIG 0.04  C 
ATOM      6  CG  PRO C  65      14.960  -1.636   4.544  1.00 42.19 LIG 0.02  C 
ATOM      7  CD  PRO C  65      14.031  -2.785   4.827  1.00 44.37 LIG 0.13  C 
ENDROOT
BRANCH 1 8
ATOM      8  CA  TYR C  64      12.982  -3.434   8.412  1.00 49.73 LIG 0.40  C 
ATOM      9  N   TYR C  64      11.948  -4.321   8.940  1.00 50.52 LIG 0.61  N 
BRANCH 8 10
ATOM     10  CB  TYR C  64      14.362  -3.829   8.951  1.00 50.46 LIG 0.09  C 
BRANCH 10 11
ATOM     11  CG  TYR C  64      15.367  -2.703   9.057  1.00 47.68 LIG-0.06  A 
ATOM     12  CD2 TYR C  64      16.560  -2.752   8.344  1.00 48.34 LIG 0.01  A 
ATOM     13  CE2 TYR C  64      17.489  -1.732   8.430  1.00 49.15 LIG 0.04  A 
ATOM     14  CZ  TYR C  64      17.230  -0.643   9.236  1.00 50.59 LIG 0.07  A 
ATOM     15  CE1 TYR C  64      16.053  -0.566   9.954  1.00 46.73 LIG 0.04  A 
ATOM     16  CD1 TYR C  64      15.128  -1.593   9.861  1.00 46.22 LIG 0.01  A 
BRANCH 14 17
ATOM     17 OH   TYR C  64      18.151   0.376   9.327  1.00 53.82 LIG-0.36  OA
ATOM     18 HH   TYR C  64      18.927   0.059   9.269  1.00 53.82 LIG 0.22  HD
ENDBRANCH 14 17
ENDBRANCH 10 11
ENDBRANCH 8 10
ENDBRANCH 1 8
BRANCH 4 19
ATOM     19  C   PRO C  65      13.130  -0.109   6.518  1.00 37.07 LIG 0.24  C 
ATOM     20  N   HIS C  66      12.341   0.170   7.555  1.00 40.38 LIG-0.35  N 
ATOM     21 H    HIS C  66      12.339  -0.283   8.285  1.00 40.38 LIG 0.16  HD
ATOM     22 O    PRO C  65      13.097   0.500   5.434  1.00 29.28 LIG-0.27  OA
BRANCH 20 23
ATOM     23  CA  HIS C  66      11.401   1.281   7.545  1.00 40.25 LIG 0.17  C 
BRANCH 23 24
ATOM     24  CB  HIS C  66      10.288   1.054   8.577  1.00 42.68 LIG 0.09  C 
BRANCH 24 25
ATOM     25  CG  HIS C  66      10.140  -0.374   9.009  1.00 48.80 LIG 0.06  A 
ATOM     26 ND1  HIS C  66      10.276  -0.776  10.321  1.00 53.13 LIG-0.24  NA
ATOM     27  CE1 HIS C  66      10.092  -2.082  10.400  1.00 55.16 LIG 0.23  A 
ATOM     28 NE2  HIS C  66       9.841  -2.542   9.187  1.00 53.86 LIG-0.25  NA
ATOM     29  CD2 HIS C  66       9.868  -1.493   8.299  1.00 53.41 LIG 0.14  A 
ENDBRANCH 24 25
ENDBRANCH 23 24
BRANCH 23 30
ATOM     30  C   HIS C  66      12.108   2.607   7.827  1.00 41.89 LIG 0.22  C 
ATOM     31 O    HIS C  66      13.283   2.626   8.202  1.00 44.58 LIG-0.29  OA
ENDBRANCH 23 30
ENDBRANCH 20 23
ENDBRANCH 4 19
TORSDOF 9
ENDMDL
MODEL 86
USER: ADFR SOLUTION from run 48
USER: SCORE 10.105796 LL:  -1.473 LR:  -8.633 RR:   0.000 FEB:  -5.948
USER: RMSD 6.760319
USER: SEED 47
USER: STATUS no improvement in best in 44 clusters for 5 generations
USER: GENES 11
USER: genes 0 Translation |==|  0.65490 0.80802 0.50500
USER: genes 1 Rotation |==|  0.75033 0.43766 0.13239 0.71980
USER: genes 2 Torsion [N]-C--CA-[N] |==|  0.40567
USER: genes 3 Torsion [C]-CA--CB-[CG] |==|  0.48491
USER: genes 4 Torsion [CA]-CB--CG-[CD2] |==|  0.02649
USER: genes 5 Torsion [CE2]-CZ--OH-[HH] |==|  0.66332
USER: genes 6 Torsion [N]-CA--C-[N] |==|  0.54675
USER: genes 7 Torsion [C]-N--CA-[C] |==|  0.15590
USER: genes 8 Torsion [N]-CA--CB-[CG] |==|  0.85692
USER: genes 9 Torsion [CA]-CB--CG-[ND1] |==|  0.31534
USER: genes 10 Torsion [N]-CA--C-[O] |==|  0.79171
ROOT
ATOM      1  C   TYR C  64      15.055   4.102   7.167  1.00 51.57 LIG 0.26  C 
ATOM      2 O    TYR C  64      15.516   4.876   6.327  1.00 54.62 LIG-0.27  OA
ATOM      3  N   PRO C  65      14.772   2.820   6.883  1.00 43.10 LIG-0.34  N 
ATOM      4  CA  PRO C  65      14.341   1.760   7.799  1.00 38.90 LIG 0.18  C 
ATOM      5  CB  PRO C  65      13.342   0.979   6.957  1.00 40.80 LIG 0.04  C 
ATOM      6  CG  PRO C  65      13.880   1.099   5.573  1.00 42.19 LIG 0.02  C 
ATOM      7  CD  PRO C  65      14.557   2.438   5.476  1.00 44.37 LIG 0.13  C 
ENDROOT
BRANCH 1 8
ATOM      8  CA  TYR C  64      14.783   4.592   8.588  1.00 49.73 LIG 0.40  C 
ATOM      9  N   TYR C  64      15.791   5.583   8.955  1.00 50.52 LIG 0.61  N 
BRANCH 8 10
ATOM     10  CB  TYR C  64      13.377   5.200   8.651  1.00 50.46 LIG 0.09  C 
BRANCH 10 11
ATOM     11  CG  TYR C  64      12.908   5.615  10.028  1.00 47.68 LIG-0.06  A 
ATOM     12  CD2 TYR C  64      13.792   5.626  11.101  1.00 48.34 LIG 0.01  A 
ATOM     13  CE2 TYR C  64      13.380   6.002  12.366  1.00 49.15 LIG 0.04  A 
ATOM     14  CZ  TYR C  64      12.067   6.376  12.570  1.00 50.59 LIG 0.07  A 
ATOM     15  CE1 TYR C  64      11.167   6.376  11.523  1.00 46.73 LIG 0.04  A 
ATOM     16  CD1 TYR C  64      11.590   5.998  10.260  1.00 46.22 LIG 0.01  A 
BRANCH 14 17
ATOM     17 OH   TYR C  64      11.650   6.751  13.827  1.00 53.82 LIG-0.36  OA
ATOM     18 HH   TYR C  64      11.025   6.248  14.077  1.00 53.82 LIG 0.22  HD
ENDBRANCH 14 17
ENDBRANCH 10 11
ENDBRANCH 8 10
ENDBRANCH 1 8
BRANCH 4 19
ATOM     19  C   PRO C  65      15.497   0.849   8.201  1.00 37.07 LIG 0.24  C 
ATOM     20  N   HIS C  66      15.151  -0.322   8.734  1.00 40.38 LIG-0.35  N 
ATOM     21 H    HIS C  66      14.337  -0.553   8.886  1.00 40.38 LIG 0.16  HD
ATOM     22 O    PRO C  65      16.672   1.219   8.035  1.00 29.28 LIG-0.27  OA
BRANCH 20 23
ATOM     23  CA  HIS C  66      16.132  -1.328   9.112  1.00 40.25 LIG 0.17  C 
BRANCH 23 24
ATOM     24  CB  HIS C  66      16.847  -1.877   7.869  1.00 42.68 LIG 0.09  C 
BRANCH 24 25
ATOM     25  CG  HIS C  66      15.918  -2.343   6.789  1.00 48.80 LIG 0.06  A 
ATOM     26 ND1  HIS C  66      15.824  -1.719   5.563  1.00 53.13 LIG-0.24  NA
ATOM     27  CE1 HIS C  66      14.931  -2.347   4.818  1.00 55.16 LIG 0.23  A 
ATOM     28 NE2  HIS C  66      14.442  -3.356   5.517  1.00 53.86 LIG-0.25  NA
ATOM     29  CD2 HIS C  66      15.042  -3.374   6.754  1.00 53.41 LIG 0.14  A 
ENDBRANCH 24 25
ENDBRANCH 23 24
BRANCH 23 30
ATOM     30  C   HIS C  66      17.159  -0.760  10.092  1.00 41.89 LIG 0.22  C 
ATOM     31 O    HIS C  66      18.047   0.001   9.702  1.00 44.58 LIG-0.29  OA
ENDBRANCH 23 30
ENDBRANCH 20 23
ENDBRANCH 4 19
TORSDOF 9
ENDMDL
MODEL 87
USER: ADFR SOLUTION from run 179
USER: SCORE 11.098256 LL:  -2.468 LR:  -8.631 RR:   0.000 FEB:  -5.946
USER: RMSD 5.844511
USER: SEED 178
USER: STATUS no improvement in best in 25 clusters for 5 generations
USER: GENES 11
USER: genes 0 Translation |==|  0.49751 0.38199 0.62707
USER: genes 1 Rotation |==|  0.28862 0.09409 0.67370 0.60189
USER: genes 2 Torsion [N]-C--CA-[N] |==|  0.84063
USER: genes 3 Torsion [C]-CA--CB-[CG] |==|  0.27395
USER: genes 4 Torsion [CA]-CB--CG-[CD2] |==|  0.98774
USER: genes 5 Torsion [CE2]-CZ--OH-[HH] |==|  0.97710
USER: genes 6 Torsion [N]-CA--C-[N] |==|  0.04055
USER: genes 7 Torsion [C]-N--CA-[C] |==|  0.77499
USER: genes 8 Torsion [N]-CA--CB-[CG] |==|  0.20071
USER: genes 9 Torsion [CA]-CB--CG-[ND1] |==|  0.29436
USER: genes 10 Torsion [N]-CA--C-[O] |==|  0.55857
ROOT
ATOM      1  C   TYR C  64      12.104  -2.608   9.364  1.00 51.57 LIG 0.26  C 
ATOM      2 O    TYR C  64      12.385  -2.619  10.563  1.00 54.62 LIG-0.27  OA
ATOM      3  N   PRO C  65      11.391  -1.616   8.803  1.00 43.10 LIG-0.34  N 
ATOM      4  CA  PRO C  65      11.088  -1.405   7.385  1.00 38.90 LIG 0.18  C 
ATOM      5  CB  PRO C  65       9.664  -0.869   7.426  1.00 40.80 LIG 0.04  C 
ATOM      6  CG  PRO C  65       9.617  -0.096   8.698  1.00 42.19 LIG 0.02  C 
ATOM      7  CD  PRO C  65      10.538  -0.782   9.668  1.00 44.37 LIG 0.13  C 
ENDROOT
BRANCH 1 8
ATOM      8  CA  TYR C  64      12.566  -3.749   8.461  1.00 49.73 LIG 0.40  C 
ATOM      9  N   TYR C  64      11.401  -4.357   7.823  1.00 50.52 LIG 0.61  N 
BRANCH 8 10
ATOM     10  CB  TYR C  64      13.535  -3.198   7.407  1.00 50.46 LIG 0.09  C 
BRANCH 10 11
ATOM     11  CG  TYR C  64      15.005  -3.388   7.711  1.00 47.68 LIG-0.06  A 
ATOM     12  CD2 TYR C  64      15.410  -3.944   8.920  1.00 48.34 LIG 0.01  A 
ATOM     13  CE2 TYR C  64      16.748  -4.124   9.213  1.00 49.15 LIG 0.04  A 
ATOM     14  CZ  TYR C  64      17.703  -3.748   8.291  1.00 50.59 LIG 0.07  A 
ATOM     15  CE1 TYR C  64      17.331  -3.195   7.081  1.00 46.73 LIG 0.04  A 
ATOM     16  CD1 TYR C  64      15.987  -3.019   6.797  1.00 46.22 LIG 0.01  A 
BRANCH 14 17
ATOM     17 OH   TYR C  64      19.038  -3.924   8.577  1.00 53.82 LIG-0.36  OA
ATOM     18 HH   TYR C  64      19.124  -4.160   9.379  1.00 53.82 LIG 0.22  HD
ENDBRANCH 14 17
ENDBRANCH 10 11
ENDBRANCH 8 10
ENDBRANCH 1 8
BRANCH 4 19
ATOM     19  C   PRO C  65      12.009  -0.367   6.753  1.00 37.07 LIG 0.24  C 
ATOM     20  N   HIS C  66      13.095  -0.053   7.456  1.00 40.38 LIG-0.35  N 
ATOM     21 H    HIS C  66      13.266  -0.374   8.235  1.00 40.38 LIG 0.16  HD
ATOM     22 O    PRO C  65      11.720   0.139   5.654  1.00 29.28 LIG-0.27  OA
BRANCH 20 23
ATOM     23  CA  HIS C  66      14.105   0.873   6.963  1.00 40.25 LIG 0.17  C 
BRANCH 23 24
ATOM     24  CB  HIS C  66      14.892   1.483   8.132  1.00 42.68 LIG 0.09  C 
BRANCH 24 25
ATOM     25  CG  HIS C  66      15.837   0.527   8.794  1.00 48.80 LIG 0.06  A 
ATOM     26 ND1  HIS C  66      17.204   0.587   8.623  1.00 53.13 LIG-0.24  NA
ATOM     27  CE1 HIS C  66      17.776  -0.374   9.327  1.00 55.16 LIG 0.23  A 
ATOM     28 NE2  HIS C  66      16.830  -1.056   9.948  1.00 53.86 LIG-0.25  NA
ATOM     29  CD2 HIS C  66      15.607  -0.513   9.630  1.00 53.41 LIG 0.14  A 
ENDBRANCH 24 25
ENDBRANCH 23 24
BRANCH 23 30
ATOM     30  C   HIS C  66      15.065   0.181   5.995  1.00 41.89 LIG 0.22  C 
ATOM     31 O    HIS C  66      16.183   0.652   5.773  1.00 44.58 LIG-0.29  OA
ENDBRANCH 23 30
ENDBRANCH 20 23
ENDBRANCH 4 19
TORSDOF 9
ENDMDL
MODEL 88
USER: ADFR SOLUTION from run 76
USER: SCORE 10.055544 LL:  -1.439 LR:  -8.617 RR:   0.000 FEB:  -5.932
USER: RMSD 4.567294
USER: SEED 75
USER: STATUS no improvement in best in 34 clusters for 5 generations
USER: GENES 11
USER: genes 0 Translation |==|  0.45139 0.38437 0.64624
USER: genes 1 Rotation |==|  0.87932 0.75715 0.35455 0.63725
USER: genes 2 Torsion [N]-C--CA-[N] |==|  0.37739
USER: genes 3 Torsion [C]-CA--CB-[CG] |==|  0.75650
USER: genes 4 Torsion [CA]-CB--CG-[CD2] |==|  0.20525
USER: genes 5 Torsion [CE2]-CZ--OH-[HH] |==|  0.22945
USER: genes 6 Torsion [N]-CA--C-[N] |==|  0.94608
USER: genes 7 Torsion [C]-N--CA-[C] |==|  0.50376
USER: genes 8 Torsion [N]-CA--CB-[CG] |==|  0.67404
USER: genes 9 Torsion [CA]-CB--CG-[ND1] |==|  0.02267
USER: genes 10 Torsion [N]-CA--C-[O] |==|  0.68027
ROOT
ATOM      1  C   TYR C  64      11.240  -2.570   9.709  1.00 51.57 LIG 0.26  C 
ATOM      2 O    TYR C  64      10.669  -1.709  10.379  1.00 54.62 LIG-0.27  OA
ATOM      3  N   PRO C  65      11.929  -2.273   8.595  1.00 43.10 LIG-0.34  N 
ATOM      4  CA  PRO C  65      12.754  -3.163   7.772  1.00 38.90 LIG 0.18  C 
ATOM      5  CB  PRO C  65      12.469  -2.669   6.361  1.00 40.80 LIG 0.04  C 
ATOM      6  CG  PRO C  65      12.252  -1.207   6.538  1.00 42.19 LIG 0.02  C 
ATOM      7  CD  PRO C  65      11.630  -1.012   7.893  1.00 44.37 LIG 0.13  C 
ENDROOT
BRANCH 1 8
ATOM      8  CA  TYR C  64      11.176  -4.035  10.136  1.00 49.73 LIG 0.40  C 
ATOM      9  N   TYR C  64      11.401  -4.126  11.576  1.00 50.52 LIG 0.61  N 
BRANCH 8 10
ATOM     10  CB  TYR C  64       9.803  -4.609   9.764  1.00 50.46 LIG 0.09  C 
BRANCH 10 11
ATOM     11  CG  TYR C  64       8.718  -4.428  10.803  1.00 47.68 LIG-0.06  A 
ATOM     12  CD2 TYR C  64       8.137  -3.181  11.007  1.00 48.34 LIG 0.01  A 
ATOM     13  CE2 TYR C  64       7.146  -2.997  11.952  1.00 49.15 LIG 0.04  A 
ATOM     14  CZ  TYR C  64       6.721  -4.071  12.709  1.00 50.59 LIG 0.07  A 
ATOM     15  CE1 TYR C  64       7.279  -5.321  12.528  1.00 46.73 LIG 0.04  A 
ATOM     16  CD1 TYR C  64       8.271  -5.494  11.577  1.00 46.22 LIG 0.01  A 
BRANCH 14 17
ATOM     17 OH   TYR C  64       5.735  -3.895  13.653  1.00 53.82 LIG-0.36  OA
ATOM     18 HH   TYR C  64       4.982  -3.925  13.281  1.00 53.82 LIG 0.22  HD
ENDBRANCH 14 17
ENDBRANCH 10 11
ENDBRANCH 8 10
ENDBRANCH 1 8
BRANCH 4 19
ATOM     19  C   PRO C  65      14.240  -3.010   8.080  1.00 37.07 LIG 0.24  C 
ATOM     20  N   HIS C  66      14.590  -1.881   8.694  1.00 40.38 LIG-0.35  N 
ATOM     21 H    HIS C  66      14.036  -1.250   8.880  1.00 40.38 LIG 0.16  HD
ATOM     22 O    PRO C  65      15.042  -3.901   7.749  1.00 29.28 LIG-0.27  OA
BRANCH 20 23
ATOM     23  CA  HIS C  66      15.958  -1.611   9.113  1.00 40.25 LIG 0.17  C 
BRANCH 23 24
ATOM     24  CB  HIS C  66      16.906  -1.643   7.906  1.00 42.68 LIG 0.09  C 
BRANCH 24 25
ATOM     25  CG  HIS C  66      17.949  -2.716   7.980  1.00 48.80 LIG 0.06  A 
ATOM     26 ND1  HIS C  66      17.948  -3.695   8.952  1.00 53.13 LIG-0.24  NA
ATOM     27  CE1 HIS C  66      18.979  -4.499   8.766  1.00 55.16 LIG 0.23  A 
ATOM     28 NE2  HIS C  66      19.651  -4.078   7.709  1.00 53.86 LIG-0.25  NA
ATOM     29  CD2 HIS C  66      19.027  -2.964   7.199  1.00 53.41 LIG 0.14  A 
ENDBRANCH 24 25
ENDBRANCH 23 24
BRANCH 23 30
ATOM     30  C   HIS C  66      16.063  -0.260   9.820  1.00 41.89 LIG 0.22  C 
ATOM     31 O    HIS C  66      16.721   0.659   9.327  1.00 44.58 LIG-0.29  OA
ENDBRANCH 23 30
ENDBRANCH 20 23
ENDBRANCH 4 19
TORSDOF 9
ENDMDL
MODEL 89
USER: ADFR SOLUTION from run 151
USER: SCORE 10.548748 LL:  -1.924 LR:  -8.625 RR:   0.000 FEB:  -5.940
USER: RMSD 4.918846
USER: SEED 150
USER: STATUS no improvement in best in 31 clusters for 5 generations
USER: GENES 11
USER: genes 0 Translation |==|  0.43000 0.23819 0.55980
USER: genes 1 Rotation |==|  0.21224 0.20247 0.36545 0.74610
USER: genes 2 Torsion [N]-C--CA-[N] |==|  0.41949
USER: genes 3 Torsion [C]-CA--CB-[CG] |==|  0.17123
USER: genes 4 Torsion [CA]-CB--CG-[CD2] |==|  0.72195
USER: genes 5 Torsion [CE2]-CZ--OH-[HH] |==|  0.20162
USER: genes 6 Torsion [N]-CA--C-[N] |==|  0.18200
USER: genes 7 Torsion [C]-N--CA-[C] |==|  0.11618
USER: genes 8 Torsion [N]-CA--CB-[CG] |==|  0.22628
USER: genes 9 Torsion [CA]-CB--CG-[ND1] |==|  0.74793
USER: genes 10 Torsion [N]-CA--C-[O] |==|  0.19241
ROOT
ATOM      1  C   TYR C  64      10.839  -4.873   8.153  1.00 51.57 LIG 0.26  C 
ATOM      2 O    TYR C  64      10.394  -5.935   8.588  1.00 54.62 LIG-0.27  OA
ATOM      3  N   PRO C  65      11.295  -3.901   8.962  1.00 43.10 LIG-0.34  N 
ATOM      4  CA  PRO C  65      11.960  -2.648   8.591  1.00 38.90 LIG 0.18  C 
ATOM      5  CB  PRO C  65      11.401  -1.662   9.607  1.00 40.80 LIG 0.04  C 
ATOM      6  CG  PRO C  65      11.199  -2.493  10.827  1.00 42.19 LIG 0.02  C 
ATOM      7  CD  PRO C  65      10.847  -3.880  10.365  1.00 44.37 LIG 0.13  C 
ENDROOT
BRANCH 1 8
ATOM      8  CA  TYR C  64      10.880  -4.622   6.648  1.00 49.73 LIG 0.40  C 
ATOM      9  N   TYR C  64      11.026  -5.899   5.953  1.00 50.52 LIG 0.61  N 
BRANCH 8 10
ATOM     10  CB  TYR C  64       9.589  -3.915   6.218  1.00 50.46 LIG 0.09  C 
BRANCH 10 11
ATOM     11  CG  TYR C  64       9.352  -2.557   6.841  1.00 47.68 LIG-0.06  A 
ATOM     12  CD2 TYR C  64       8.484  -2.417   7.919  1.00 48.34 LIG 0.01  A 
ATOM     13  CE2 TYR C  64       8.254  -1.184   8.500  1.00 49.15 LIG 0.04  A 
ATOM     14  CZ  TYR C  64       8.898  -0.068   8.004  1.00 50.59 LIG 0.07  A 
ATOM     15  CE1 TYR C  64       9.767  -0.177   6.936  1.00 46.73 LIG 0.04  A 
ATOM     16  CD1 TYR C  64       9.990  -1.417   6.361  1.00 46.22 LIG 0.01  A 
BRANCH 14 17
ATOM     17 OH   TYR C  64       8.674   1.163   8.577  1.00 53.82 LIG-0.36  OA
ATOM     18 HH   TYR C  64       9.052   1.196   9.327  1.00 53.82 LIG 0.22  HD
ENDBRANCH 14 17
ENDBRANCH 10 11
ENDBRANCH 8 10
ENDBRANCH 1 8
BRANCH 4 19
ATOM     19  C   PRO C  65      13.475  -2.739   8.743  1.00 37.07 LIG 0.24  C 
ATOM     20  N   HIS C  66      14.088  -3.592   7.925  1.00 40.38 LIG-0.35  N 
ATOM     21 H    HIS C  66      13.673  -4.097   7.367  1.00 40.38 LIG 0.16  HD
ATOM     22 O    PRO C  65      14.060  -2.050   9.598  1.00 29.28 LIG-0.27  OA
BRANCH 20 23
ATOM     23  CA  HIS C  66      15.535  -3.749   7.902  1.00 40.25 LIG 0.17  C 
BRANCH 23 24
ATOM     24  CB  HIS C  66      16.185  -2.629   7.076  1.00 42.68 LIG 0.09  C 
BRANCH 24 25
ATOM     25  CG  HIS C  66      16.359  -1.344   7.826  1.00 48.80 LIG 0.06  A 
ATOM     26 ND1  HIS C  66      15.405  -0.348   7.835  1.00 53.13 LIG-0.24  NA
ATOM     27  CE1 HIS C  66      15.830   0.659   8.577  1.00 55.16 LIG 0.23  A 
ATOM     28 NE2  HIS C  66      17.026   0.354   9.049  1.00 53.86 LIG-0.25  NA
ATOM     29  CD2 HIS C  66      17.380  -0.894   8.593  1.00 53.41 LIG 0.14  A 
ENDBRANCH 24 25
ENDBRANCH 23 24
BRANCH 23 30
ATOM     30  C   HIS C  66      16.114  -3.754   9.317  1.00 41.89 LIG 0.22  C 
ATOM     31 O    HIS C  66      15.901  -4.699  10.081  1.00 44.58 LIG-0.29  OA
ENDBRANCH 23 30
ENDBRANCH 20 23
ENDBRANCH 4 19
TORSDOF 9
ENDMDL
MODEL 90
USER: ADFR SOLUTION from run 56
USER: SCORE 10.477951 LL:  -1.865 LR:  -8.613 RR:   0.000 FEB:  -5.928
USER: RMSD 4.508143
USER: SEED 55
USER: STATUS no improvement in best in 51 clusters for 5 generations
USER: GENES 11
USER: genes 0 Translation |==|  0.49869 0.56688 0.51905
USER: genes 1 Rotation |==|  0.95693 0.69221 0.56403 0.51304
USER: genes 2 Torsion [N]-C--CA-[N] |==|  0.84894
USER: genes 3 Torsion [C]-CA--CB-[CG] |==|  0.22425
USER: genes 4 Torsion [CA]-CB--CG-[CD2] |==|  0.24922
USER: genes 5 Torsion [CE2]-CZ--OH-[HH] |==|  0.06319
USER: genes 6 Torsion [N]-CA--C-[N] |==|  0.02492
USER: genes 7 Torsion [C]-N--CA-[C] |==|  0.14678
USER: genes 8 Torsion [N]-CA--CB-[CG] |==|  0.31538
USER: genes 9 Torsion [CA]-CB--CG-[ND1] |==|  0.80769
USER: genes 10 Torsion [N]-CA--C-[O] |==|  0.06992
ROOT
ATOM      1  C   TYR C  64      12.126   0.304   7.420  1.00 51.57 LIG 0.26  C 
ATOM      2 O    TYR C  64      11.284   0.684   8.234  1.00 54.62 LIG-0.27  OA
ATOM      3  N   PRO C  65      13.336   0.880   7.317  1.00 43.10 LIG-0.34  N 
ATOM      4  CA  PRO C  65      14.474   0.464   6.492  1.00 38.90 LIG 0.18  C 
ATOM      5  CB  PRO C  65      15.062   1.793   6.042  1.00 40.80 LIG 0.04  C 
ATOM      6  CG  PRO C  65      14.800   2.700   7.193  1.00 42.19 LIG 0.02  C 
ATOM      7  CD  PRO C  65      13.512   2.251   7.827  1.00 44.37 LIG 0.13  C 
ENDROOT
BRANCH 1 8
ATOM      8  CA  TYR C  64      11.810  -0.857   6.480  1.00 49.73 LIG 0.40  C 
ATOM      9  N   TYR C  64      12.033  -0.430   5.100  1.00 50.52 LIG 0.61  N 
BRANCH 8 10
ATOM     10  CB  TYR C  64      12.709  -2.049   6.831  1.00 50.46 LIG 0.09  C 
BRANCH 10 11
ATOM     11  CG  TYR C  64      12.253  -2.885   8.006  1.00 47.68 LIG-0.06  A 
ATOM     12  CD2 TYR C  64      11.401  -3.968   7.813  1.00 48.34 LIG 0.01  A 
ATOM     13  CE2 TYR C  64      10.974  -4.741   8.876  1.00 49.15 LIG 0.04  A 
ATOM     14  CZ  TYR C  64      11.399  -4.437  10.153  1.00 50.59 LIG 0.07  A 
ATOM     15  CE1 TYR C  64      12.246  -3.369  10.374  1.00 46.73 LIG 0.04  A 
ATOM     16  CD1 TYR C  64      12.669  -2.600   9.303  1.00 46.22 LIG 0.01  A 
BRANCH 14 17
ATOM     17 OH   TYR C  64      10.977  -5.203  11.216  1.00 53.82 LIG-0.36  OA
ATOM     18 HH   TYR C  64      10.745  -5.962  10.940  1.00 53.82 LIG 0.22  HD
ENDBRANCH 14 17
ENDBRANCH 10 11
ENDBRANCH 8 10
ENDBRANCH 1 8
BRANCH 4 19
ATOM     19  C   PRO C  65      15.512  -0.310   7.299  1.00 37.07 LIG 0.24  C 
ATOM     20  N   HIS C  66      15.151  -0.643   8.537  1.00 40.38 LIG-0.35  N 
ATOM     21 H    HIS C  66      14.402  -0.413   8.891  1.00 40.38 LIG 0.16  HD
ATOM     22 O    PRO C  65      16.617  -0.582   6.798  1.00 29.28 LIG-0.27  OA
BRANCH 20 23
ATOM     23  CA  HIS C  66      16.002  -1.435   9.413  1.00 40.25 LIG 0.17  C 
BRANCH 23 24
ATOM     24  CB  HIS C  66      16.098  -2.881   8.906  1.00 42.68 LIG 0.09  C 
BRANCH 24 25
ATOM     25  CG  HIS C  66      17.465  -3.270   8.431  1.00 48.80 LIG 0.06  A 
ATOM     26 ND1  HIS C  66      18.034  -2.754   7.286  1.00 53.13 LIG-0.24  NA
ATOM     27  CE1 HIS C  66      19.238  -3.273   7.122  1.00 55.16 LIG 0.23  A 
ATOM     28 NE2  HIS C  66      19.471  -4.108   8.119  1.00 53.86 LIG-0.25  NA
ATOM     29  CD2 HIS C  66      18.377  -4.124   8.952  1.00 53.41 LIG 0.14  A 
ENDBRANCH 24 25
ENDBRANCH 23 24
BRANCH 23 30
ATOM     30  C   HIS C  66      17.401  -0.829   9.522  1.00 41.89 LIG 0.22  C 
ATOM     31 O    HIS C  66      17.581   0.376   9.327  1.00 44.58 LIG-0.29  OA
ENDBRANCH 23 30
ENDBRANCH 20 23
ENDBRANCH 4 19
TORSDOF 9
ENDMDL
MODEL 91
USER: ADFR SOLUTION from run 11
USER: SCORE 10.395131 LL:  -1.799 LR:  -8.596 RR:   0.000 FEB:  -5.911
USER: RMSD 5.890106
USER: SEED 522178
USER: STATUS no improvement in best in 17 clusters for 5 generations
USER: GENES 11
USER: genes 0 Translation |==|  0.51919 0.42260 0.49310
USER: genes 1 Rotation |==|  0.04475 0.30281 0.43869 0.51048
USER: genes 2 Torsion [N]-C--CA-[N] |==|  0.17641
USER: genes 3 Torsion [C]-CA--CB-[CG] |==|  0.51404
USER: genes 4 Torsion [CA]-CB--CG-[CD2] |==|  0.77847
USER: genes 5 Torsion [CE2]-CZ--OH-[HH] |==|  0.13555
USER: genes 6 Torsion [N]-CA--C-[N] |==|  0.78382
USER: genes 7 Torsion [C]-N--CA-[C] |==|  0.18067
USER: genes 8 Torsion [N]-CA--CB-[CG] |==|  0.89944
USER: genes 9 Torsion [CA]-CB--CG-[ND1] |==|  0.31633
USER: genes 10 Torsion [N]-CA--C-[O] |==|  0.62605
ROOT
ATOM      1  C   TYR C  64      12.511  -1.968   6.953  1.00 51.57 LIG 0.26  C 
ATOM      2 O    TYR C  64      11.697  -1.682   7.831  1.00 54.62 LIG-0.27  OA
ATOM      3  N   PRO C  65      13.696  -1.345   6.843  1.00 43.10 LIG-0.34  N 
ATOM      4  CA  PRO C  65      14.806  -1.656   5.937  1.00 38.90 LIG 0.18  C 
ATOM      5  CB  PRO C  65      15.332  -0.276   5.568  1.00 40.80 LIG 0.04  C 
ATOM      6  CG  PRO C  65      15.096   0.529   6.799  1.00 42.19 LIG 0.02  C 
ATOM      7  CD  PRO C  65      13.854  -0.012   7.452  1.00 44.37 LIG 0.13  C 
ENDROOT
BRANCH 1 8
ATOM      8  CA  TYR C  64      12.187  -3.062   5.938  1.00 49.73 LIG 0.40  C 
ATOM      9  N   TYR C  64      13.142  -4.157   6.092  1.00 50.52 LIG 0.61  N 
BRANCH 8 10
ATOM     10  CB  TYR C  64      10.754  -3.556   6.169  1.00 50.46 LIG 0.09  C 
BRANCH 10 11
ATOM     11  CG  TYR C  64      10.323  -4.729   5.316  1.00 47.68 LIG-0.06  A 
ATOM     12  CD2 TYR C  64       9.923  -4.533   3.998  1.00 48.34 LIG 0.01  A 
ATOM     13  CE2 TYR C  64       9.525  -5.593   3.205  1.00 49.15 LIG 0.04  A 
ATOM     14  CZ  TYR C  64       9.525  -6.870   3.727  1.00 50.59 LIG 0.07  A 
ATOM     15  CE1 TYR C  64       9.918  -7.095   5.031  1.00 46.73 LIG 0.04  A 
ATOM     16  CD1 TYR C  64      10.315  -6.026   5.818  1.00 46.22 LIG 0.01  A 
BRANCH 14 17
ATOM     17 OH   TYR C  64       9.130  -7.930   2.942  1.00 53.82 LIG-0.36  OA
ATOM     18 HH   TYR C  64       9.526  -7.894   2.202  1.00 53.82 LIG 0.22  HD
ENDBRANCH 14 17
ENDBRANCH 10 11
ENDBRANCH 8 10
ENDBRANCH 1 8
BRANCH 4 19
ATOM     19  C   PRO C  65      15.904  -2.454   6.633  1.00 37.07 LIG 0.24  C 
ATOM     20  N   HIS C  66      16.718  -1.753   7.419  1.00 40.38 LIG-0.35  N 
ATOM     21 H    HIS C  66      16.670  -0.900   7.513  1.00 40.38 LIG 0.16  HD
ATOM     22 O    PRO C  65      16.004  -3.679   6.441  1.00 29.28 LIG-0.27  OA
BRANCH 20 23
ATOM     23  CA  HIS C  66      17.776  -2.376   8.202  1.00 40.25 LIG 0.17  C 
BRANCH 23 24
ATOM     24  CB  HIS C  66      17.195  -3.447   9.137  1.00 42.68 LIG 0.09  C 
BRANCH 24 25
ATOM     25  CG  HIS C  66      15.852  -3.097   9.702  1.00 48.80 LIG 0.06  A 
ATOM     26 ND1  HIS C  66      14.705  -3.797   9.391  1.00 53.13 LIG-0.24  NA
ATOM     27  CE1 HIS C  66      13.681  -3.267  10.035  1.00 55.16 LIG 0.23  A 
ATOM     28 NE2  HIS C  66      14.121  -2.249  10.753  1.00 53.86 LIG-0.25  NA
ATOM     29  CD2 HIS C  66      15.476  -2.122  10.561  1.00 53.41 LIG 0.14  A 
ENDBRANCH 24 25
ENDBRANCH 23 24
BRANCH 23 30
ATOM     30  C   HIS C  66      18.840  -2.998   7.298  1.00 41.89 LIG 0.22  C 
ATOM     31 O    HIS C  66      19.276  -4.129   7.524  1.00 44.58 LIG-0.29  OA
ENDBRANCH 23 30
ENDBRANCH 20 23
ENDBRANCH 4 19
TORSDOF 9
ENDMDL
MODEL 92
USER: ADFR SOLUTION from run 63
USER: SCORE 10.197270 LL:  -1.600 LR:  -8.598 RR:   0.000 FEB:  -5.913
USER: RMSD 4.666153
USER: SEED 62
USER: STATUS no improvement in best in 41 clusters for 5 generations
USER: GENES 11
USER: genes 0 Translation |==|  0.74148 0.53425 0.57531
USER: genes 1 Rotation |==|  0.22458 0.28116 0.83447 0.61993
USER: genes 2 Torsion [N]-C--CA-[N] |==|  0.48299
USER: genes 3 Torsion [C]-CA--CB-[CG] |==|  0.30589
USER: genes 4 Torsion [CA]-CB--CG-[CD2] |==|  0.03588
USER: genes 5 Torsion [CE2]-CZ--OH-[HH] |==|  0.94583
USER: genes 6 Torsion [N]-CA--C-[N] |==|  0.84575
USER: genes 7 Torsion [C]-N--CA-[C] |==|  0.51723
USER: genes 8 Torsion [N]-CA--CB-[CG] |==|  0.64740
USER: genes 9 Torsion [CA]-CB--CG-[ND1] |==|  0.38116
USER: genes 10 Torsion [N]-CA--C-[O] |==|  0.35692
ROOT
ATOM      1  C   TYR C  64      16.679  -0.210   8.432  1.00 51.57 LIG 0.26  C 
ATOM      2 O    TYR C  64      17.523   0.376   9.111  1.00 54.62 LIG-0.27  OA
ATOM      3  N   PRO C  65      16.000   0.402   7.446  1.00 43.10 LIG-0.34  N 
ATOM      4  CA  PRO C  65      15.066  -0.190   6.484  1.00 38.90 LIG 0.18  C 
ATOM      5  CB  PRO C  65      14.008   0.895   6.338  1.00 40.80 LIG 0.04  C 
ATOM      6  CG  PRO C  65      14.777   2.159   6.505  1.00 42.19 LIG 0.02  C 
ATOM      7  CD  PRO C  65      15.901   1.872   7.462  1.00 44.37 LIG 0.13  C 
ENDROOT
BRANCH 1 8
ATOM      8  CA  TYR C  64      16.369  -1.680   8.702  1.00 49.73 LIG 0.40  C 
ATOM      9  N   TYR C  64      17.304  -2.192   9.701  1.00 50.52 LIG 0.61  N 
BRANCH 8 10
ATOM     10  CB  TYR C  64      14.923  -1.808   9.197  1.00 50.46 LIG 0.09  C 
BRANCH 10 11
ATOM     11  CG  TYR C  64      13.959  -2.465   8.233  1.00 47.68 LIG-0.06  A 
ATOM     12  CD2 TYR C  64      14.433  -3.144   7.116  1.00 48.34 LIG 0.01  A 
ATOM     13  CE2 TYR C  64      13.566  -3.749   6.225  1.00 49.15 LIG 0.04  A 
ATOM     14  CZ  TYR C  64      12.206  -3.680   6.445  1.00 50.59 LIG 0.07  A 
ATOM     15  CE1 TYR C  64      11.707  -3.013   7.547  1.00 46.73 LIG 0.04  A 
ATOM     16  CD1 TYR C  64      12.584  -2.411   8.434  1.00 46.22 LIG 0.01  A 
BRANCH 14 17
ATOM     17 OH   TYR C  64      11.338  -4.279   5.561  1.00 53.82 LIG-0.36  OA
ATOM     18 HH   TYR C  64      11.728  -4.407   4.828  1.00 53.82 LIG 0.22  HD
ENDBRANCH 14 17
ENDBRANCH 10 11
ENDBRANCH 8 10
ENDBRANCH 1 8
BRANCH 4 19
ATOM     19  C   PRO C  65      15.726  -0.448   5.133  1.00 37.07 LIG 0.24  C 
ATOM     20  N   HIS C  66      16.298   0.608   4.558  1.00 40.38 LIG-0.35  N 
ATOM     21 H    HIS C  66      16.276   1.400   4.890  1.00 40.38 LIG 0.16  HD
ATOM     22 O    PRO C  65      15.697  -1.586   4.630  1.00 29.28 LIG-0.27  OA
BRANCH 20 23
ATOM     23  CA  HIS C  66      17.023   0.514   3.299  1.00 40.25 LIG 0.17  C 
BRANCH 23 24
ATOM     24  CB  HIS C  66      16.078   0.099   2.163  1.00 42.68 LIG 0.09  C 
BRANCH 24 25
ATOM     25  CG  HIS C  66      16.548  -1.092   1.384  1.00 48.80 LIG 0.06  A 
ATOM     26 ND1  HIS C  66      15.706  -2.113   0.998  1.00 53.13 LIG-0.24  NA
ATOM     27  CE1 HIS C  66      16.395  -3.019   0.327  1.00 55.16 LIG 0.23  A 
ATOM     28 NE2  HIS C  66      17.654  -2.624   0.264  1.00 53.86 LIG-0.25  NA
ATOM     29  CD2 HIS C  66      17.776  -1.420   0.919  1.00 53.41 LIG 0.14  A 
ENDBRANCH 24 25
ENDBRANCH 23 24
BRANCH 23 30
ATOM     30  C   HIS C  66      17.702   1.839   2.952  1.00 41.89 LIG 0.22  C 
ATOM     31 O    HIS C  66      18.901   1.876   2.665  1.00 44.58 LIG-0.29  OA
ENDBRANCH 23 30
ENDBRANCH 20 23
ENDBRANCH 4 19
TORSDOF 9
ENDMDL
MODEL 93
USER: ADFR SOLUTION from run 104
USER: SCORE 10.773903 LL:  -2.183 LR:  -8.591 RR:   0.000 FEB:  -5.906
USER: RMSD 5.535761
USER: SEED 103
USER: STATUS no improvement in best in 25 clusters for 5 generations
USER: GENES 11
USER: genes 0 Translation |==|  0.62999 0.55192 0.49200
USER: genes 1 Rotation |==|  0.42169 0.81651 0.20180 0.73402
USER: genes 2 Torsion [N]-C--CA-[N] |==|  0.39389
USER: genes 3 Torsion [C]-CA--CB-[CG] |==|  0.09789
USER: genes 4 Torsion [CA]-CB--CG-[CD2] |==|  0.73119
USER: genes 5 Torsion [CE2]-CZ--OH-[HH] |==|  0.27404
USER: genes 6 Torsion [N]-CA--C-[N] |==|  0.57009
USER: genes 7 Torsion [C]-N--CA-[C] |==|  0.60767
USER: genes 8 Torsion [N]-CA--CB-[CG] |==|  0.83416
USER: genes 9 Torsion [CA]-CB--CG-[ND1] |==|  0.29389
USER: genes 10 Torsion [N]-CA--C-[O] |==|  0.83960
ROOT
ATOM      1  C   TYR C  64      14.588   0.069   6.933  1.00 51.57 LIG 0.26  C 
ATOM      2 O    TYR C  64      13.622   0.582   7.498  1.00 54.62 LIG-0.27  OA
ATOM      3  N   PRO C  65      14.465  -1.003   6.131  1.00 43.10 LIG-0.34  N 
ATOM      4  CA  PRO C  65      15.492  -1.641   5.303  1.00 38.90 LIG 0.18  C 
ATOM      5  CB  PRO C  65      15.151  -3.119   5.429  1.00 40.80 LIG 0.04  C 
ATOM      6  CG  PRO C  65      13.667  -3.126   5.558  1.00 42.19 LIG 0.02  C 
ATOM      7  CD  PRO C  65      13.279  -1.864   6.279  1.00 44.37 LIG 0.13  C 
ENDROOT
BRANCH 1 8
ATOM      8  CA  TYR C  64      15.987   0.647   7.136  1.00 49.73 LIG 0.40  C 
ATOM      9  N   TYR C  64      15.901   2.104   7.184  1.00 50.52 LIG 0.61  N 
BRANCH 8 10
ATOM     10  CB  TYR C  64      16.577   0.095   8.440  1.00 50.46 LIG 0.09  C 
BRANCH 10 11
ATOM     11  CG  TYR C  64      16.203  -1.334   8.770  1.00 47.68 LIG-0.06  A 
ATOM     12  CD2 TYR C  64      15.151  -1.605   9.638  1.00 48.34 LIG 0.01  A 
ATOM     13  CE2 TYR C  64      14.797  -2.904   9.952  1.00 49.15 LIG 0.04  A 
ATOM     14  CZ  TYR C  64      15.498  -3.953   9.394  1.00 50.59 LIG 0.07  A 
ATOM     15  CE1 TYR C  64      16.546  -3.714   8.527  1.00 46.73 LIG 0.04  A 
ATOM     16  CD1 TYR C  64      16.893  -2.409   8.219  1.00 46.22 LIG 0.01  A 
BRANCH 14 17
ATOM     17 OH   TYR C  64      15.151  -5.249   9.702  1.00 53.82 LIG-0.36  OA
ATOM     18 HH   TYR C  64      14.670  -5.564   9.089  1.00 53.82 LIG 0.22  HD
ENDBRANCH 14 17
ENDBRANCH 10 11
ENDBRANCH 8 10
ENDBRANCH 1 8
BRANCH 4 19
ATOM     19  C   PRO C  65      15.394  -1.214   3.842  1.00 37.07 LIG 0.24  C 
ATOM     20  N   HIS C  66      15.888  -2.075   2.953  1.00 40.38 LIG-0.35  N 
ATOM     21 H    HIS C  66      16.276  -2.811   3.170  1.00 40.38 LIG 0.16  HD
ATOM     22 O    PRO C  65      14.887  -0.118   3.543  1.00 29.28 LIG-0.27  OA
BRANCH 20 23
ATOM     23  CA  HIS C  66      15.813  -1.845   1.518  1.00 40.25 LIG 0.17  C 
BRANCH 23 24
ATOM     24  CB  HIS C  66      17.119  -1.223   1.004  1.00 42.68 LIG 0.09  C 
BRANCH 24 25
ATOM     25  CG  HIS C  66      17.457   0.093   1.637  1.00 48.80 LIG 0.06  A 
ATOM     26 ND1  HIS C  66      18.455   0.236   2.578  1.00 53.13 LIG-0.24  NA
ATOM     27  CE1 HIS C  66      18.526   1.501   2.952  1.00 55.16 LIG 0.23  A 
ATOM     28 NE2  HIS C  66      17.610   2.184   2.289  1.00 53.86 LIG-0.25  NA
ATOM     29  CD2 HIS C  66      16.927   1.325   1.460  1.00 53.41 LIG 0.14  A 
ENDBRANCH 24 25
ENDBRANCH 23 24
BRANCH 23 30
ATOM     30  C   HIS C  66      15.525  -3.144   0.764  1.00 41.89 LIG 0.22  C 
ATOM     31 O    HIS C  66      16.276  -4.116   0.874  1.00 44.58 LIG-0.29  OA
ENDBRANCH 23 30
ENDBRANCH 20 23
ENDBRANCH 4 19
TORSDOF 9
ENDMDL
MODEL 94
USER: ADFR SOLUTION from run 153
USER: SCORE 9.771411 LL:  -1.185 LR:  -8.587 RR:   0.000 FEB:  -5.902
USER: RMSD 5.271876
USER: SEED 152
USER: STATUS no improvement in best in 44 clusters for 5 generations
USER: GENES 11
USER: genes 0 Translation |==|  0.52335 0.39503 0.65363
USER: genes 1 Rotation |==|  0.67821 0.92264 0.35667 0.63811
USER: genes 2 Torsion [N]-C--CA-[N] |==|  0.89154
USER: genes 3 Torsion [C]-CA--CB-[CG] |==|  0.62913
USER: genes 4 Torsion [CA]-CB--CG-[CD2] |==|  0.36850
USER: genes 5 Torsion [CE2]-CZ--OH-[HH] |==|  0.20869
USER: genes 6 Torsion [N]-CA--C-[N] |==|  0.39796
USER: genes 7 Torsion [C]-N--CA-[C] |==|  0.12462
USER: genes 8 Torsion [N]-CA--CB-[CG] |==|  0.70952
USER: genes 9 Torsion [CA]-CB--CG-[ND1] |==|  0.62156
USER: genes 10 Torsion [N]-CA--C-[O] |==|  0.18355
ROOT
ATOM      1  C   TYR C  64      12.589  -2.402   9.842  1.00 51.57 LIG 0.26  C 
ATOM      2 O    TYR C  64      11.845  -2.215  10.806  1.00 54.62 LIG-0.27  OA
ATOM      3  N   PRO C  65      12.313  -1.921   8.618  1.00 43.10 LIG-0.34  N 
ATOM      4  CA  PRO C  65      13.153  -1.957   7.417  1.00 38.90 LIG 0.18  C 
ATOM      5  CB  PRO C  65      12.138  -2.193   6.308  1.00 40.80 LIG 0.04  C 
ATOM      6  CG  PRO C  65      10.920  -1.483   6.791  1.00 42.19 LIG 0.02  C 
ATOM      7  CD  PRO C  65      10.918  -1.577   8.292  1.00 44.37 LIG 0.13  C 
ENDROOT
BRANCH 1 8
ATOM      8  CA  TYR C  64      13.874  -3.209  10.015  1.00 49.73 LIG 0.40  C 
ATOM      9  N   TYR C  64      14.070  -4.056   8.841  1.00 50.52 LIG 0.61  N 
BRANCH 8 10
ATOM     10  CB  TYR C  64      15.054  -2.246  10.192  1.00 50.46 LIG 0.09  C 
BRANCH 10 11
ATOM     11  CG  TYR C  64      16.280  -2.557   9.362  1.00 47.68 LIG-0.06  A 
ATOM     12  CD2 TYR C  64      16.916  -1.554   8.639  1.00 48.34 LIG 0.01  A 
ATOM     13  CE2 TYR C  64      18.036  -1.822   7.875  1.00 49.15 LIG 0.04  A 
ATOM     14  CZ  TYR C  64      18.535  -3.108   7.827  1.00 50.59 LIG 0.07  A 
ATOM     15  CE1 TYR C  64      17.925  -4.124   8.535  1.00 46.73 LIG 0.04  A 
ATOM     16  CD1 TYR C  64      16.803  -3.845   9.299  1.00 46.22 LIG 0.01  A 
BRANCH 14 17
ATOM     17 OH   TYR C  64      19.650  -3.382   7.068  1.00 53.82 LIG-0.36  OA
ATOM     18 HH   TYR C  64      20.335  -3.091   7.459  1.00 53.82 LIG 0.22  HD
ENDBRANCH 14 17
ENDBRANCH 10 11
ENDBRANCH 8 10
ENDBRANCH 1 8
BRANCH 4 19
ATOM     19  C   PRO C  65      13.870  -0.631   7.183  1.00 37.07 LIG 0.24  C 
ATOM     20  N   HIS C  66      15.107  -0.721   6.698  1.00 40.38 LIG-0.35  N 
ATOM     21 H    HIS C  66      15.509  -1.467   6.556  1.00 40.38 LIG 0.16  HD
ATOM     22 O    PRO C  65      13.303   0.443   7.452  1.00 29.28 LIG-0.27  OA
BRANCH 20 23
ATOM     23  CA  HIS C  66      15.901   0.452   6.361  1.00 40.25 LIG 0.17  C 
BRANCH 23 24
ATOM     24  CB  HIS C  66      15.446   1.042   5.019  1.00 42.68 LIG 0.09  C 
BRANCH 24 25
ATOM     25  CG  HIS C  66      16.375   0.751   3.880  1.00 48.80 LIG 0.06  A 
ATOM     26 ND1  HIS C  66      16.742   1.703   2.952  1.00 53.13 LIG-0.24  NA
ATOM     27  CE1 HIS C  66      17.566   1.163   2.072  1.00 55.16 LIG 0.23  A 
ATOM     28 NE2  HIS C  66      17.747  -0.106   2.395  1.00 53.86 LIG-0.25  NA
ATOM     29  CD2 HIS C  66      17.012  -0.388   3.522  1.00 53.41 LIG 0.14  A 
ENDBRANCH 24 25
ENDBRANCH 23 24
BRANCH 23 30
ATOM     30  C   HIS C  66      15.809   1.516   7.455  1.00 41.89 LIG 0.22  C 
ATOM     31 O    HIS C  66      16.276   1.307   8.577  1.00 44.58 LIG-0.29  OA
ENDBRANCH 23 30
ENDBRANCH 20 23
ENDBRANCH 4 19
TORSDOF 9
ENDMDL
MODEL 95
USER: ADFR SOLUTION from run 111
USER: SCORE 10.390313 LL:  -1.803 LR:  -8.588 RR:   0.000 FEB:  -5.903
USER: RMSD 5.200658
USER: SEED 110
USER: STATUS no improvement in best in 27 clusters for 5 generations
USER: GENES 11
USER: genes 0 Translation |==|  0.57456 0.37819 0.43975
USER: genes 1 Rotation |==|  0.73609 0.91009 0.49861 0.66151
USER: genes 2 Torsion [N]-C--CA-[N] |==|  0.84754
USER: genes 3 Torsion [C]-CA--CB-[CG] |==|  0.19963
USER: genes 4 Torsion [CA]-CB--CG-[CD2] |==|  0.48923
USER: genes 5 Torsion [CE2]-CZ--OH-[HH] |==|  0.26099
USER: genes 6 Torsion [N]-CA--C-[N] |==|  0.98753
USER: genes 7 Torsion [C]-N--CA-[C] |==|  0.65575
USER: genes 8 Torsion [N]-CA--CB-[CG] |==|  0.48749
USER: genes 9 Torsion [CA]-CB--CG-[ND1] |==|  0.75105
USER: genes 10 Torsion [N]-CA--C-[O] |==|  0.31032
ROOT
ATOM      1  C   TYR C  64      13.549  -2.667   5.992  1.00 51.57 LIG 0.26  C 
ATOM      2 O    TYR C  64      12.504  -2.865   6.613  1.00 54.62 LIG-0.27  OA
ATOM      3  N   PRO C  65      13.692  -1.642   5.136  1.00 43.10 LIG-0.34  N 
ATOM      4  CA  PRO C  65      14.901  -1.212   4.427  1.00 38.90 LIG 0.18  C 
ATOM      5  CB  PRO C  65      14.357  -0.782   3.072  1.00 40.80 LIG 0.04  C 
ATOM      6  CG  PRO C  65      13.007  -0.240   3.393  1.00 42.19 LIG 0.02  C 
ATOM      7  CD  PRO C  65      12.483  -1.023   4.565  1.00 44.37 LIG 0.13  C 
ENDROOT
BRANCH 1 8
ATOM      8  CA  TYR C  64      14.738  -3.607   6.181  1.00 49.73 LIG 0.40  C 
ATOM      9  N   TYR C  64      15.151  -4.124   4.878  1.00 50.52 LIG 0.61  N 
BRANCH 8 10
ATOM     10  CB  TYR C  64      15.886  -2.840   6.849  1.00 50.46 LIG 0.09  C 
BRANCH 10 11
ATOM     11  CG  TYR C  64      15.681  -2.503   8.309  1.00 47.68 LIG-0.06  A 
ATOM     12  CD2 TYR C  64      16.689  -1.881   9.038  1.00 48.34 LIG 0.01  A 
ATOM     13  CE2 TYR C  64      16.519  -1.567  10.373  1.00 49.15 LIG 0.04  A 
ATOM     14  CZ  TYR C  64      15.327  -1.874  10.997  1.00 50.59 LIG 0.07  A 
ATOM     15  CE1 TYR C  64      14.308  -2.491  10.299  1.00 46.73 LIG 0.04  A 
ATOM     16  CD1 TYR C  64      14.488  -2.801   8.961  1.00 46.22 LIG 0.01  A 
BRANCH 14 17
ATOM     17 OH   TYR C  64      15.151  -1.564  12.327  1.00 53.82 LIG-0.36  OA
ATOM     18 HH   TYR C  64      14.776  -0.815  12.393  1.00 53.82 LIG 0.22  HD
ENDBRANCH 14 17
ENDBRANCH 10 11
ENDBRANCH 8 10
ENDBRANCH 1 8
BRANCH 4 19
ATOM     19  C   PRO C  65      15.572  -0.025   5.111  1.00 37.07 LIG 0.24  C 
ATOM     20  N   HIS C  66      14.924   0.481   6.159  1.00 40.38 LIG-0.35  N 
ATOM     21 H    HIS C  66      14.157   0.197   6.425  1.00 40.38 LIG 0.16  HD
ATOM     22 O    PRO C  65      16.651   0.418   4.678  1.00 29.28 LIG-0.27  OA
BRANCH 20 23
ATOM     23  CA  HIS C  66      15.461   1.573   6.957  1.00 40.25 LIG 0.17  C 
BRANCH 23 24
ATOM     24  CB  HIS C  66      14.594   2.830   6.802  1.00 42.68 LIG 0.09  C 
BRANCH 24 25
ATOM     25  CG  HIS C  66      15.017   3.972   7.675  1.00 48.80 LIG 0.06  A 
ATOM     26 ND1  HIS C  66      14.531   4.157   8.952  1.00 53.13 LIG-0.24  NA
ATOM     27  CE1 HIS C  66      15.080   5.237   9.479  1.00 55.16 LIG 0.23  A 
ATOM     28 NE2  HIS C  66      15.906   5.761   8.590  1.00 53.86 LIG-0.25  NA
ATOM     29  CD2 HIS C  66      15.884   4.988   7.452  1.00 53.41 LIG 0.14  A 
ENDBRANCH 24 25
ENDBRANCH 23 24
BRANCH 23 30
ATOM     30  C   HIS C  66      15.554   1.185   8.433  1.00 41.89 LIG 0.22  C 
ATOM     31 O    HIS C  66      16.651   1.039   8.977  1.00 44.58 LIG-0.29  OA
ENDBRANCH 23 30
ENDBRANCH 20 23
ENDBRANCH 4 19
TORSDOF 9
ENDMDL
MODEL 96
USER: ADFR SOLUTION from run 142
USER: SCORE 10.545184 LL:  -1.960 LR:  -8.585 RR:   0.000 FEB:  -5.900
USER: RMSD 7.238400
USER: SEED 141
USER: STATUS no improvement in best in 28 clusters for 5 generations
USER: GENES 11
USER: genes 0 Translation |==|  0.64097 0.63264 0.54894
USER: genes 1 Rotation |==|  0.05423 0.72642 0.50065 0.50489
USER: genes 2 Torsion [N]-C--CA-[N] |==|  0.13985
USER: genes 3 Torsion [C]-CA--CB-[CG] |==|  0.16840
USER: genes 4 Torsion [CA]-CB--CG-[CD2] |==|  0.61986
USER: genes 5 Torsion [CE2]-CZ--OH-[HH] |==|  0.31793
USER: genes 6 Torsion [N]-CA--C-[N] |==|  0.08279
USER: genes 7 Torsion [C]-N--CA-[C] |==|  0.60830
USER: genes 8 Torsion [N]-CA--CB-[CG] |==|  0.01138
USER: genes 9 Torsion [CA]-CB--CG-[ND1] |==|  0.22432
USER: genes 10 Torsion [N]-CA--C-[O] |==|  0.04387
ROOT
ATOM      1  C   TYR C  64      14.794   1.340   7.958  1.00 51.57 LIG 0.26  C 
ATOM      2 O    TYR C  64      15.308   1.853   8.952  1.00 54.62 LIG-0.27  OA
ATOM      3  N   PRO C  65      15.163   0.131   7.502  1.00 43.10 LIG-0.34  N 
ATOM      4  CA  PRO C  65      14.564  -0.653   6.418  1.00 38.90 LIG 0.18  C 
ATOM      5  CB  PRO C  65      15.778  -1.295   5.762  1.00 40.80 LIG 0.04  C 
ATOM      6  CG  PRO C  65      16.719  -1.509   6.897  1.00 42.19 LIG 0.02  C 
ATOM      7  CD  PRO C  65      16.488  -0.392   7.879  1.00 44.37 LIG 0.13  C 
ENDROOT
BRANCH 1 8
ATOM      8  CA  TYR C  64      13.699   2.082   7.195  1.00 49.73 LIG 0.40  C 
ATOM      9  N   TYR C  64      12.560   1.188   7.001  1.00 50.52 LIG 0.61  N 
BRANCH 8 10
ATOM     10  CB  TYR C  64      13.284   3.325   7.992  1.00 50.46 LIG 0.09  C 
BRANCH 10 11
ATOM     11  CG  TYR C  64      14.381   4.337   8.240  1.00 47.68 LIG-0.06  A 
ATOM     12  CD2 TYR C  64      14.523   4.933   9.488  1.00 48.34 LIG 0.01  A 
ATOM     13  CE2 TYR C  64      15.519   5.860   9.731  1.00 49.15 LIG 0.04  A 
ATOM     14  CZ  TYR C  64      16.391   6.202   8.717  1.00 50.59 LIG 0.07  A 
ATOM     15  CE1 TYR C  64      16.275   5.626   7.468  1.00 46.73 LIG 0.04  A 
ATOM     16  CD1 TYR C  64      15.273   4.698   7.235  1.00 46.22 LIG 0.01  A 
BRANCH 14 17
ATOM     17 OH   TYR C  64      17.385   7.125   8.952  1.00 53.82 LIG-0.36  OA
ATOM     18 HH   TYR C  64      18.135   6.751   8.894  1.00 53.82 LIG 0.22  HD
ENDBRANCH 14 17
ENDBRANCH 10 11
ENDBRANCH 8 10
ENDBRANCH 1 8
BRANCH 4 19
ATOM     19  C   PRO C  65      13.632  -1.739   6.947  1.00 37.07 LIG 0.24  C 
ATOM     20  N   HIS C  66      13.024  -1.467   8.100  1.00 40.38 LIG-0.35  N 
ATOM     21 H    HIS C  66      13.162  -0.750   8.552  1.00 40.38 LIG 0.16  HD
ATOM     22 O    PRO C  65      13.488  -2.801   6.316  1.00 29.28 LIG-0.27  OA
BRANCH 20 23
ATOM     23  CA  HIS C  66      12.057  -2.371   8.705  1.00 40.25 LIG 0.17  C 
BRANCH 23 24
ATOM     24  CB  HIS C  66      12.733  -3.251   9.766  1.00 42.68 LIG 0.09  C 
BRANCH 24 25
ATOM     25  CG  HIS C  66      14.175  -2.920  10.002  1.00 48.80 LIG 0.06  A 
ATOM     26 ND1  HIS C  66      14.581  -1.874  10.804  1.00 53.13 LIG-0.24  NA
ATOM     27  CE1 HIS C  66      15.901  -1.825  10.827  1.00 55.16 LIG 0.23  A 
ATOM     28 NE2  HIS C  66      16.368  -2.802  10.069  1.00 53.86 LIG-0.25  NA
ATOM     29  CD2 HIS C  66      15.307  -3.500   9.540  1.00 53.41 LIG 0.14  A 
ENDBRANCH 24 25
ENDBRANCH 23 24
BRANCH 23 30
ATOM     30  C   HIS C  66      10.896  -1.600   9.333  1.00 41.89 LIG 0.22  C 
ATOM     31 O    HIS C  66      10.700  -0.416   9.049  1.00 44.58 LIG-0.29  OA
ENDBRANCH 23 30
ENDBRANCH 20 23
ENDBRANCH 4 19
TORSDOF 9
ENDMDL
MODEL 97
USER: ADFR SOLUTION from run 21
USER: SCORE 10.694529 LL:  -2.116 LR:  -8.578 RR:   0.000 FEB:  -5.894
USER: RMSD 6.373823
USER: SEED 20
USER: STATUS no improvement in best in 20 clusters for 5 generations
USER: GENES 11
USER: genes 0 Translation |==|  0.74722 0.49889 0.60858
USER: genes 1 Rotation |==|  0.69224 0.21615 0.84609 0.61266
USER: genes 2 Torsion [N]-C--CA-[N] |==|  0.85268
USER: genes 3 Torsion [C]-CA--CB-[CG] |==|  0.19906
USER: genes 4 Torsion [CA]-CB--CG-[CD2] |==|  0.30232
USER: genes 5 Torsion [CE2]-CZ--OH-[HH] |==|  0.77328
USER: genes 6 Torsion [N]-CA--C-[N] |==|  0.52933
USER: genes 7 Torsion [C]-N--CA-[C] |==|  0.62389
USER: genes 8 Torsion [N]-CA--CB-[CG] |==|  0.85703
USER: genes 9 Torsion [CA]-CB--CG-[ND1] |==|  0.73454
USER: genes 10 Torsion [N]-CA--C-[O] |==|  0.05388
ROOT
ATOM      1  C   TYR C  64      16.786  -0.766   9.031  1.00 51.57 LIG 0.26  C 
ATOM      2 O    TYR C  64      17.138   0.376   9.326  1.00 54.62 LIG-0.27  OA
ATOM      3  N   PRO C  65      15.868  -1.441   9.744  1.00 43.10 LIG-0.34  N 
ATOM      4  CA  PRO C  65      15.265  -2.744   9.447  1.00 38.90 LIG 0.18  C 
ATOM      5  CB  PRO C  65      15.139  -3.374  10.827  1.00 40.80 LIG 0.04  C 
ATOM      6  CG  PRO C  65      14.883  -2.211  11.721  1.00 42.19 LIG 0.02  C 
ATOM      7  CD  PRO C  65      15.615  -1.033  11.137  1.00 44.37 LIG 0.13  C 
ENDROOT
BRANCH 1 8
ATOM      8  CA  TYR C  64      17.401  -1.466   7.821  1.00 49.73 LIG 0.40  C 
ATOM      9  N   TYR C  64      17.927  -2.765   8.235  1.00 50.52 LIG 0.61  N 
BRANCH 8 10
ATOM     10  CB  TYR C  64      16.329  -1.636   6.738  1.00 50.46 LIG 0.09  C 
BRANCH 10 11
ATOM     11  CG  TYR C  64      15.910  -0.365   6.032  1.00 47.68 LIG-0.06  A 
ATOM     12  CD2 TYR C  64      16.276  -0.139   4.710  1.00 48.34 LIG 0.01  A 
ATOM     13  CE2 TYR C  64      15.902   1.017   4.050  1.00 49.15 LIG 0.04  A 
ATOM     14  CZ  TYR C  64      15.151   1.966   4.713  1.00 50.59 LIG 0.07  A 
ATOM     15  CE1 TYR C  64      14.772   1.768   6.026  1.00 46.73 LIG 0.04  A 
ATOM     16  CD1 TYR C  64      15.151   0.606   6.678  1.00 46.22 LIG 0.01  A 
BRANCH 14 17
ATOM     17 OH   TYR C  64      14.776   3.119   4.062  1.00 53.82 LIG-0.36  OA
ATOM     18 HH   TYR C  64      15.412   3.669   4.077  1.00 53.82 LIG 0.22  HD
ENDBRANCH 14 17
ENDBRANCH 10 11
ENDBRANCH 8 10
ENDBRANCH 1 8
BRANCH 4 19
ATOM     19  C   PRO C  65      13.882  -2.603   8.819  1.00 37.07 LIG 0.24  C 
ATOM     20  N   HIS C  66      13.175  -3.727   8.719  1.00 40.38 LIG-0.35  N 
ATOM     21 H    HIS C  66      13.474  -4.499   8.952  1.00 40.38 LIG 0.16  HD
ATOM     22 O    PRO C  65      13.484  -1.492   8.427  1.00 29.28 LIG-0.27  OA
BRANCH 20 23
ATOM     23  CA  HIS C  66      11.815  -3.751   8.202  1.00 40.25 LIG 0.17  C 
BRANCH 23 24
ATOM     24  CB  HIS C  66      11.799  -4.261   6.753  1.00 42.68 LIG 0.09  C 
BRANCH 24 25
ATOM     25  CG  HIS C  66      12.758  -3.550   5.847  1.00 48.80 LIG 0.06  A 
ATOM     26 ND1  HIS C  66      12.385  -2.491   5.048  1.00 53.13 LIG-0.24  NA
ATOM     27  CE1 HIS C  66      13.434  -2.067   4.365  1.00 55.16 LIG 0.23  A 
ATOM     28 NE2  HIS C  66      14.474  -2.812   4.692  1.00 53.86 LIG-0.25  NA
ATOM     29  CD2 HIS C  66      14.077  -3.749   5.618  1.00 53.41 LIG 0.14  A 
ENDBRANCH 24 25
ENDBRANCH 23 24
BRANCH 23 30
ATOM     30  C   HIS C  66      10.908  -4.624   9.070  1.00 41.89 LIG 0.22  C 
ATOM     31 O    HIS C  66      11.227  -4.907  10.227  1.00 44.58 LIG-0.29  OA
ENDBRANCH 23 30
ENDBRANCH 20 23
ENDBRANCH 4 19
TORSDOF 9
ENDMDL
MODEL 98
USER: ADFR SOLUTION from run 188
USER: SCORE 10.880631 LL:  -2.297 LR:  -8.583 RR:   0.000 FEB:  -5.899
USER: RMSD 6.623155
USER: SEED 187
USER: STATUS no improvement in best in 22 clusters for 5 generations
USER: GENES 11
USER: genes 0 Translation |==|  0.68201 0.34230 0.50265
USER: genes 1 Rotation |==|  0.54992 0.10889 0.62325 0.78169
USER: genes 2 Torsion [N]-C--CA-[N] |==|  0.87070
USER: genes 3 Torsion [C]-CA--CB-[CG] |==|  0.33547
USER: genes 4 Torsion [CA]-CB--CG-[CD2] |==|  0.70390
USER: genes 5 Torsion [CE2]-CZ--OH-[HH] |==|  0.16709
USER: genes 6 Torsion [N]-CA--C-[N] |==|  0.08389
USER: genes 7 Torsion [C]-N--CA-[C] |==|  0.69447
USER: genes 8 Torsion [N]-CA--CB-[CG] |==|  0.00905
USER: genes 9 Torsion [CA]-CB--CG-[ND1] |==|  0.28086
USER: genes 10 Torsion [N]-CA--C-[O] |==|  0.87413
ROOT
ATOM      1  C   TYR C  64      15.564  -3.233   7.125  1.00 51.57 LIG 0.26  C 
ATOM      2 O    TYR C  64      16.741  -3.389   7.451  1.00 54.62 LIG-0.27  OA
ATOM      3  N   PRO C  65      14.604  -2.942   8.019  1.00 43.10 LIG-0.34  N 
ATOM      4  CA  PRO C  65      13.198  -2.609   7.768  1.00 38.90 LIG 0.18  C 
ATOM      5  CB  PRO C  65      12.484  -3.291   8.926  1.00 40.80 LIG 0.04  C 
ATOM      6  CG  PRO C  65      13.463  -3.199  10.045  1.00 42.19 LIG 0.02  C 
ATOM      7  CD  PRO C  65      14.837  -3.266   9.437  1.00 44.37 LIG 0.13  C 
ENDROOT
BRANCH 1 8
ATOM      8  CA  TYR C  64      15.152  -3.372   5.661  1.00 49.73 LIG 0.40  C 
ATOM      9  N   TYR C  64      13.956  -4.207   5.577  1.00 50.52 LIG 0.61  N 
BRANCH 8 10
ATOM     10  CB  TYR C  64      14.883  -1.979   5.078  1.00 50.46 LIG 0.09  C 
BRANCH 10 11
ATOM     11  CG  TYR C  64      15.736  -1.594   3.889  1.00 47.68 LIG-0.06  A 
ATOM     12  CD2 TYR C  64      16.760  -0.664   4.028  1.00 48.34 LIG 0.01  A 
ATOM     13  CE2 TYR C  64      17.548  -0.300   2.952  1.00 49.15 LIG 0.04  A 
ATOM     14  CZ  TYR C  64      17.318  -0.870   1.717  1.00 50.59 LIG 0.07  A 
ATOM     15  CE1 TYR C  64      16.309  -1.798   1.550  1.00 46.73 LIG 0.04  A 
ATOM     16  CD1 TYR C  64      15.525  -2.156   2.634  1.00 46.22 LIG 0.01  A 
BRANCH 14 17
ATOM     17 OH   TYR C  64      18.099  -0.512   0.641  1.00 53.82 LIG-0.36  OA
ATOM     18 HH   TYR C  64      18.902  -0.698   0.804  1.00 53.82 LIG 0.22  HD
ENDBRANCH 14 17
ENDBRANCH 10 11
ENDBRANCH 8 10
ENDBRANCH 1 8
BRANCH 4 19
ATOM     19  C   PRO C  65      12.949  -1.106   7.824  1.00 37.07 LIG 0.24  C 
ATOM     20  N   HIS C  66      13.973  -0.336   7.461  1.00 40.38 LIG-0.35  N 
ATOM     21 H    HIS C  66      14.745  -0.644   7.243  1.00 40.38 LIG 0.16  HD
ATOM     22 O    PRO C  65      11.848  -0.668   8.202  1.00 29.28 LIG-0.27  OA
BRANCH 20 23
ATOM     23  CA  HIS C  66      13.877   1.115   7.399  1.00 40.25 LIG 0.17  C 
BRANCH 23 24
ATOM     24  CB  HIS C  66      15.012   1.765   8.202  1.00 42.68 LIG 0.09  C 
BRANCH 24 25
ATOM     25  CG  HIS C  66      15.983   0.785   8.786  1.00 48.80 LIG 0.06  A 
ATOM     26 ND1  HIS C  66      17.215   0.526   8.223  1.00 53.13 LIG-0.24  NA
ATOM     27  CE1 HIS C  66      17.851  -0.374   8.952  1.00 55.16 LIG 0.23  A 
ATOM     28 NE2  HIS C  66      17.076  -0.710   9.968  1.00 53.86 LIG-0.25  NA
ATOM     29  CD2 HIS C  66      15.901   0.001   9.886  1.00 53.41 LIG 0.14  A 
ENDBRANCH 24 25
ENDBRANCH 23 24
BRANCH 23 30
ATOM     30  C   HIS C  66      13.912   1.611   5.954  1.00 41.89 LIG 0.22  C 
ATOM     31 O    HIS C  66      14.738   1.163   5.155  1.00 44.58 LIG-0.29  OA
ENDBRANCH 23 30
ENDBRANCH 20 23
ENDBRANCH 4 19
TORSDOF 9
ENDMDL
MODEL 99
USER: ADFR SOLUTION from run 13
USER: SCORE 10.653228 LL:  -2.089 LR:  -8.564 RR:   0.000 FEB:  -5.880
USER: RMSD 7.584193
USER: SEED 477809
USER: STATUS no improvement in best in 24 clusters for 5 generations
USER: GENES 11
USER: genes 0 Translation |==|  0.69086 0.47814 0.35010
USER: genes 1 Rotation |==|  0.67478 0.13846 0.34411 0.75384
USER: genes 2 Torsion [N]-C--CA-[N] |==|  0.36531
USER: genes 3 Torsion [C]-CA--CB-[CG] |==|  0.89283
USER: genes 4 Torsion [CA]-CB--CG-[CD2] |==|  0.78112
USER: genes 5 Torsion [CE2]-CZ--OH-[HH] |==|  0.00348
USER: genes 6 Torsion [N]-CA--C-[N] |==|  0.94569
USER: genes 7 Torsion [C]-N--CA-[C] |==|  0.78387
USER: genes 8 Torsion [N]-CA--CB-[CG] |==|  0.08212
USER: genes 9 Torsion [CA]-CB--CG-[ND1] |==|  0.14008
USER: genes 10 Torsion [N]-CA--C-[O] |==|  0.79556
ROOT
ATOM      1  C   TYR C  64      15.730  -1.093   4.379  1.00 51.57 LIG 0.26  C 
ATOM      2 O    TYR C  64      16.832  -1.499   4.009  1.00 54.62 LIG-0.27  OA
ATOM      3  N   PRO C  65      14.947  -1.800   5.211  1.00 43.10 LIG-0.34  N 
ATOM      4  CA  PRO C  65      13.680  -1.397   5.830  1.00 38.90 LIG 0.18  C 
ATOM      5  CB  PRO C  65      12.873  -2.687   5.806  1.00 40.80 LIG 0.04  C 
ATOM      6  CG  PRO C  65      13.904  -3.749   5.977  1.00 42.19 LIG 0.02  C 
ATOM      7  CD  PRO C  65      15.163  -3.254   5.322  1.00 44.37 LIG 0.13  C 
ENDROOT
BRANCH 1 8
ATOM      8  CA  TYR C  64      15.208   0.255   3.887  1.00 49.73 LIG 0.40  C 
ATOM      9  N   TYR C  64      16.251   1.264   4.058  1.00 50.52 LIG 0.61  N 
BRANCH 8 10
ATOM     10  CB  TYR C  64      14.807   0.133   2.412  1.00 50.46 LIG 0.09  C 
BRANCH 10 11
ATOM     11  CG  TYR C  64      15.715  -0.726   1.559  1.00 47.68 LIG-0.06  A 
ATOM     12  CD2 TYR C  64      16.925  -0.225   1.091  1.00 48.34 LIG 0.01  A 
ATOM     13  CE2 TYR C  64      17.766  -0.995   0.311  1.00 49.15 LIG 0.04  A 
ATOM     14  CZ  TYR C  64      17.401  -2.287  -0.012  1.00 50.59 LIG 0.07  A 
ATOM     15  CE1 TYR C  64      16.206  -2.811   0.439  1.00 46.73 LIG 0.04  A 
ATOM     16  CD1 TYR C  64      15.371  -2.031   1.221  1.00 46.22 LIG 0.01  A 
BRANCH 14 17
ATOM     17 OH   TYR C  64      18.233  -3.059  -0.790  1.00 53.82 LIG-0.36  OA
ATOM     18 HH   TYR C  64      18.927  -2.623  -0.977  1.00 53.82 LIG 0.22  HD
ENDBRANCH 14 17
ENDBRANCH 10 11
ENDBRANCH 8 10
ENDBRANCH 1 8
BRANCH 4 19
ATOM     19  C   PRO C  65      13.870  -0.938   7.272  1.00 37.07 LIG 0.24  C 
ATOM     20  N   HIS C  66      14.995  -1.338   7.863  1.00 40.38 LIG-0.35  N 
ATOM     21 H    HIS C  66      15.571  -1.853   7.487  1.00 40.38 LIG 0.16  HD
ATOM     22 O    PRO C  65      12.999  -0.244   7.827  1.00 29.28 LIG-0.27  OA
BRANCH 20 23
ATOM     23  CA  HIS C  66      15.354  -0.932   9.214  1.00 40.25 LIG 0.17  C 
BRANCH 23 24
ATOM     24  CB  HIS C  66      16.390  -1.897   9.808  1.00 42.68 LIG 0.09  C 
BRANCH 24 25
ATOM     25  CG  HIS C  66      17.286  -2.531   8.788  1.00 48.80 LIG 0.06  A 
ATOM     26 ND1  HIS C  66      17.963  -1.804   7.831  1.00 53.13 LIG-0.24  NA
ATOM     27  CE1 HIS C  66      18.672  -2.624   7.077  1.00 55.16 LIG 0.23  A 
ATOM     28 NE2  HIS C  66      18.481  -3.858   7.509  1.00 53.86 LIG-0.25  NA
ATOM     29  CD2 HIS C  66      17.617  -3.827   8.578  1.00 53.41 LIG 0.14  A 
ENDBRANCH 24 25
ENDBRANCH 23 24
BRANCH 23 30
ATOM     30  C   HIS C  66      15.901   0.495   9.236  1.00 41.89 LIG 0.22  C 
ATOM     31 O    HIS C  66      17.030   0.743   8.806  1.00 44.58 LIG-0.29  OA
ENDBRANCH 23 30
ENDBRANCH 20 23
ENDBRANCH 4 19
TORSDOF 9
ENDMDL
MODEL 100
USER: ADFR SOLUTION from run 112
USER: SCORE 10.914795 LL:  -2.356 LR:  -8.559 RR:   0.000 FEB:  -5.875
USER: RMSD 5.290782
USER: SEED 111
USER: STATUS no improvement in best in 37 clusters for 5 generations
USER: GENES 11
USER: genes 0 Translation |==|  0.47539 0.32189 0.50922
USER: genes 1 Rotation |==|  0.32765 0.25705 0.22661 0.79416
USER: genes 2 Torsion [N]-C--CA-[N] |==|  0.53239
USER: genes 3 Torsion [C]-CA--CB-[CG] |==|  0.36419
USER: genes 4 Torsion [CA]-CB--CG-[CD2] |==|  0.46087
USER: genes 5 Torsion [CE2]-CZ--OH-[HH] |==|  0.62595
USER: genes 6 Torsion [N]-CA--C-[N] |==|  0.41751
USER: genes 7 Torsion [C]-N--CA-[C] |==|  0.51161
USER: genes 8 Torsion [N]-CA--CB-[CG] |==|  0.08313
USER: genes 9 Torsion [CA]-CB--CG-[ND1] |==|  0.72642
USER: genes 10 Torsion [N]-CA--C-[O] |==|  0.94624
ROOT
ATOM      1  C   TYR C  64      11.690  -3.554   7.243  1.00 51.57 LIG 0.26  C 
ATOM      2 O    TYR C  64      11.171  -4.556   6.750  1.00 54.62 LIG-0.27  OA
ATOM      3  N   PRO C  65      11.933  -3.446   8.560  1.00 43.10 LIG-0.34  N 
ATOM      4  CA  PRO C  65      12.649  -2.380   9.267  1.00 38.90 LIG 0.18  C 
ATOM      5  CB  PRO C  65      11.856  -2.249  10.560  1.00 40.80 LIG 0.04  C 
ATOM      6  CG  PRO C  65      11.389  -3.638  10.827  1.00 42.19 LIG 0.02  C 
ATOM      7  CD  PRO C  65      11.172  -4.296   9.492  1.00 44.37 LIG 0.13  C 
ENDROOT
BRANCH 1 8
ATOM      8  CA  TYR C  64      12.076  -2.377   6.350  1.00 49.73 LIG 0.40  C 
ATOM      9  N   TYR C  64      11.487  -2.566   5.026  1.00 50.52 LIG 0.61  N 
BRANCH 8 10
ATOM     10  CB  TYR C  64      11.572  -1.075   6.987  1.00 50.46 LIG 0.09  C 
BRANCH 10 11
ATOM     11  CG  TYR C  64      12.590   0.040   7.081  1.00 47.68 LIG-0.06  A 
ATOM     12  CD2 TYR C  64      12.187   1.341   7.362  1.00 48.34 LIG 0.01  A 
ATOM     13  CE2 TYR C  64      13.104   2.372   7.451  1.00 49.15 LIG 0.04  A 
ATOM     14  CZ  TYR C  64      14.445   2.108   7.259  1.00 50.59 LIG 0.07  A 
ATOM     15  CE1 TYR C  64      14.874   0.825   6.980  1.00 46.73 LIG 0.04  A 
ATOM     16  CD1 TYR C  64      13.948  -0.200   6.893  1.00 46.22 LIG 0.01  A 
BRANCH 14 17
ATOM     17 OH   TYR C  64      15.362   3.130   7.345  1.00 53.82 LIG-0.36  OA
ATOM     18 HH   TYR C  64      15.901   3.079   6.702  1.00 53.82 LIG 0.22  HD
ENDBRANCH 14 17
ENDBRANCH 10 11
ENDBRANCH 8 10
ENDBRANCH 1 8
BRANCH 4 19
ATOM     19  C   PRO C  65      14.088  -2.771   9.585  1.00 37.07 LIG 0.24  C 
ATOM     20  N   HIS C  66      14.962  -1.767   9.640  1.00 40.38 LIG-0.35  N 
ATOM     21 H    HIS C  66      14.756  -0.949   9.472  1.00 40.38 LIG 0.16  HD
ATOM     22 O    PRO C  65      14.387  -3.965   9.763  1.00 29.28 LIG-0.27  OA
BRANCH 20 23
ATOM     23  CA  HIS C  66      16.360  -1.966   9.993  1.00 40.25 LIG 0.17  C 
BRANCH 23 24
ATOM     24  CB  HIS C  66      17.047  -2.884   8.972  1.00 42.68 LIG 0.09  C 
BRANCH 24 25
ATOM     25  CG  HIS C  66      16.474  -2.796   7.591  1.00 48.80 LIG 0.06  A 
ATOM     26 ND1  HIS C  66      15.560  -3.705   7.101  1.00 53.13 LIG-0.24  NA
ATOM     27  CE1 HIS C  66      15.233  -3.374   5.864  1.00 55.16 LIG 0.23  A 
ATOM     28 NE2  HIS C  66      15.901  -2.283   5.533  1.00 53.86 LIG-0.25  NA
ATOM     29  CD2 HIS C  66      16.686  -1.902   6.596  1.00 53.41 LIG 0.14  A 
ENDBRANCH 24 25
ENDBRANCH 23 24
BRANCH 23 30
ATOM     30  C   HIS C  66      17.104  -0.634  10.077  1.00 41.89 LIG 0.22  C 
ATOM     31 O    HIS C  66      16.651   0.376   9.532  1.00 44.58 LIG-0.29  OA
ENDBRANCH 23 30
ENDBRANCH 20 23
ENDBRANCH 4 19
TORSDOF 9
ENDMDL
MODEL 101
USER: ADFR SOLUTION from run 129
USER: SCORE 10.334544 LL:  -1.789 LR:  -8.545 RR:   0.000 FEB:  -5.860
USER: RMSD 7.107917
USER: SEED 128
USER: STATUS no improvement in best in 21 clusters for 5 generations
USER: GENES 11
USER: genes 0 Translation |==|  0.70171 0.55364 0.53961
USER: genes 1 Rotation |==|  0.91140 0.26707 0.60099 0.62766
USER: genes 2 Torsion [N]-C--CA-[N] |==|  0.30252
USER: genes 3 Torsion [C]-CA--CB-[CG] |==|  0.28674
USER: genes 4 Torsion [CA]-CB--CG-[CD2] |==|  0.54308
USER: genes 5 Torsion [CE2]-CZ--OH-[HH] |==|  0.01685
USER: genes 6 Torsion [N]-CA--C-[N] |==|  0.12356
USER: genes 7 Torsion [C]-N--CA-[C] |==|  0.19510
USER: genes 8 Torsion [N]-CA--CB-[CG] |==|  0.89216
USER: genes 9 Torsion [CA]-CB--CG-[ND1] |==|  0.91868
USER: genes 10 Torsion [N]-CA--C-[O] |==|  0.06291
ROOT
ATOM      1  C   TYR C  64      15.933   0.096   7.790  1.00 51.57 LIG 0.26  C 
ATOM      2 O    TYR C  64      16.420   1.093   8.323  1.00 54.62 LIG-0.27  OA
ATOM      3  N   PRO C  65      16.188  -1.149   8.228  1.00 43.10 LIG-0.34  N 
ATOM      4  CA  PRO C  65      15.592  -2.410   7.779  1.00 38.90 LIG 0.18  C 
ATOM      5  CB  PRO C  65      16.769  -3.373   7.836  1.00 40.80 LIG 0.04  C 
ATOM      6  CG  PRO C  65      17.575  -2.874   8.985  1.00 42.19 LIG 0.02  C 
ATOM      7  CD  PRO C  65      17.401  -1.381   9.032  1.00 44.37 LIG 0.13  C 
ENDROOT
BRANCH 1 8
ATOM      8  CA  TYR C  64      15.007   0.249   6.585  1.00 49.73 LIG 0.40  C 
ATOM      9  N   TYR C  64      13.734   0.812   7.028  1.00 50.52 LIG 0.61  N 
BRANCH 8 10
ATOM     10  CB  TYR C  64      15.674   1.163   5.550  1.00 50.46 LIG 0.09  C 
BRANCH 10 11
ATOM     11  CG  TYR C  64      16.276   0.461   4.352  1.00 47.68 LIG-0.06  A 
ATOM     12  CD2 TYR C  64      17.173   1.125   3.522  1.00 48.34 LIG 0.01  A 
ATOM     13  CE2 TYR C  64      17.731   0.499   2.424  1.00 49.15 LIG 0.04  A 
ATOM     14  CZ  TYR C  64      17.396  -0.810   2.144  1.00 50.59 LIG 0.07  A 
ATOM     15  CE1 TYR C  64      16.509  -1.495   2.951  1.00 46.73 LIG 0.04  A 
ATOM     16  CD1 TYR C  64      15.956  -0.859   4.050  1.00 46.22 LIG 0.01  A 
BRANCH 14 17
ATOM     17 OH   TYR C  64      17.948  -1.439   1.051  1.00 53.82 LIG-0.36  OA
ATOM     18 HH   TYR C  64      18.526  -0.939   0.702  1.00 53.82 LIG 0.22  HD
ENDBRANCH 14 17
ENDBRANCH 10 11
ENDBRANCH 8 10
ENDBRANCH 1 8
BRANCH 4 19
ATOM     19  C   PRO C  65      14.491  -2.888   8.720  1.00 37.07 LIG 0.24  C 
ATOM     20  N   HIS C  66      13.631  -1.955   9.126  1.00 40.38 LIG-0.35  N 
ATOM     21 H    HIS C  66      13.697  -1.125   8.914  1.00 40.38 LIG 0.16  HD
ATOM     22 O    PRO C  65      14.443  -4.081   9.072  1.00 29.28 LIG-0.27  OA
BRANCH 20 23
ATOM     23  CA  HIS C  66      12.489  -2.261   9.975  1.00 40.25 LIG 0.17  C 
BRANCH 23 24
ATOM     24  CB  HIS C  66      11.666  -3.411   9.376  1.00 42.68 LIG 0.09  C 
BRANCH 24 25
ATOM     25  CG  HIS C  66      11.544  -3.359   7.883  1.00 48.80 LIG 0.06  A 
ATOM     26 ND1  HIS C  66      11.569  -2.178   7.172  1.00 53.13 LIG-0.24  NA
ATOM     27  CE1 HIS C  66      11.445  -2.441   5.883  1.00 55.16 LIG 0.23  A 
ATOM     28 NE2  HIS C  66      11.340  -3.749   5.732  1.00 53.86 LIG-0.25  NA
ATOM     29  CD2 HIS C  66      11.398  -4.347   6.969  1.00 53.41 LIG 0.14  A 
ENDBRANCH 24 25
ENDBRANCH 23 24
BRANCH 23 30
ATOM     30  C   HIS C  66      12.934  -2.624  11.392  1.00 41.89 LIG 0.22  C 
ATOM     31 O    HIS C  66      14.027  -2.250  11.823  1.00 44.58 LIG-0.29  OA
ENDBRANCH 23 30
ENDBRANCH 20 23
ENDBRANCH 4 19
TORSDOF 9
ENDMDL
MODEL 102
USER: ADFR SOLUTION from run 99
USER: SCORE 10.515067 LL:  -1.961 LR:  -8.554 RR:   0.000 FEB:  -5.870
USER: RMSD 6.897514
USER: SEED 98
USER: STATUS no improvement in best in 37 clusters for 5 generations
USER: GENES 11
USER: genes 0 Translation |==|  0.64992 0.67068 0.56324
USER: genes 1 Rotation |==|  0.14256 0.64911 0.23980 0.67972
USER: genes 2 Torsion [N]-C--CA-[N] |==|  0.19974
USER: genes 3 Torsion [C]-CA--CB-[CG] |==|  0.13318
USER: genes 4 Torsion [CA]-CB--CG-[CD2] |==|  0.69997
USER: genes 5 Torsion [CE2]-CZ--OH-[HH] |==|  0.18597
USER: genes 6 Torsion [N]-CA--C-[N] |==|  0.00114
USER: genes 7 Torsion [C]-N--CA-[C] |==|  0.65843
USER: genes 8 Torsion [N]-CA--CB-[CG] |==|  0.97048
USER: genes 9 Torsion [CA]-CB--CG-[ND1] |==|  0.24268
USER: genes 10 Torsion [N]-CA--C-[O] |==|  0.01773
ROOT
ATOM      1  C   TYR C  64      14.962   1.939   8.215  1.00 51.57 LIG 0.26  C 
ATOM      2 O    TYR C  64      14.026   2.251   8.952  1.00 54.62 LIG-0.27  OA
ATOM      3  N   PRO C  65      15.694   0.830   8.415  1.00 43.10 LIG-0.34  N 
ATOM      4  CA  PRO C  65      16.746   0.270   7.562  1.00 38.90 LIG 0.18  C 
ATOM      5  CB  PRO C  65      17.751  -0.259   8.577  1.00 40.80 LIG 0.04  C 
ATOM      6  CG  PRO C  65      16.899  -0.693   9.719  1.00 42.19 LIG 0.02  C 
ATOM      7  CD  PRO C  65      15.709   0.225   9.759  1.00 44.37 LIG 0.13  C 
ENDROOT
BRANCH 1 8
ATOM      8  CA  TYR C  64      15.328   2.827   7.028  1.00 49.73 LIG 0.40  C 
ATOM      9  N   TYR C  64      14.938   2.157   5.790  1.00 50.52 LIG 0.61  N 
BRANCH 8 10
ATOM     10  CB  TYR C  64      14.608   4.174   7.165  1.00 50.46 LIG 0.09  C 
BRANCH 10 11
ATOM     11  CG  TYR C  64      14.710   4.832   8.524  1.00 47.68 LIG-0.06  A 
ATOM     12  CD2 TYR C  64      13.606   4.883   9.367  1.00 48.34 LIG 0.01  A 
ATOM     13  CE2 TYR C  64      13.681   5.481  10.611  1.00 49.15 LIG 0.04  A 
ATOM     14  CZ  TYR C  64      14.873   6.038  11.027  1.00 50.59 LIG 0.07  A 
ATOM     15  CE1 TYR C  64      15.987   6.001  10.211  1.00 46.73 LIG 0.04  A 
ATOM     16  CD1 TYR C  64      15.901   5.399   8.967  1.00 46.22 LIG 0.01  A 
BRANCH 14 17
ATOM     17 OH   TYR C  64      14.955   6.635  12.265  1.00 53.82 LIG-0.36  OA
ATOM     18 HH   TYR C  64      14.868   6.052  12.864  1.00 53.82 LIG 0.22  HD
ENDBRANCH 14 17
ENDBRANCH 10 11
ENDBRANCH 8 10
ENDBRANCH 1 8
BRANCH 4 19
ATOM     19  C   PRO C  65      16.232  -0.880   6.703  1.00 37.07 LIG 0.24  C 
ATOM     20  N   HIS C  66      14.943  -1.181   6.850  1.00 40.38 LIG-0.35  N 
ATOM     21 H    HIS C  66      14.426  -0.791   7.416  1.00 40.38 LIG 0.16  HD
ATOM     22 O    PRO C  65      17.004  -1.480   5.934  1.00 29.28 LIG-0.27  OA
BRANCH 20 23
ATOM     23  CA  HIS C  66      14.285  -2.210   6.058  1.00 40.25 LIG 0.17  C 
BRANCH 23 24
ATOM     24  CB  HIS C  66      13.837  -3.374   6.953  1.00 42.68 LIG 0.09  C 
BRANCH 24 25
ATOM     25  CG  HIS C  66      14.384  -3.316   8.347  1.00 48.80 LIG 0.06  A 
ATOM     26 ND1  HIS C  66      13.760  -2.628   9.367  1.00 53.13 LIG-0.24  NA
ATOM     27  CE1 HIS C  66      14.466  -2.755  10.476  1.00 55.16 LIG 0.23  A 
ATOM     28 NE2  HIS C  66      15.525  -3.501  10.214  1.00 53.86 LIG-0.25  NA
ATOM     29  CD2 HIS C  66      15.497  -3.863   8.888  1.00 53.41 LIG 0.14  A 
ENDBRANCH 24 25
ENDBRANCH 23 24
BRANCH 23 30
ATOM     30  C   HIS C  66      13.083  -1.642   5.303  1.00 41.89 LIG 0.22  C 
ATOM     31 O    HIS C  66      12.848  -0.431   5.314  1.00 44.58 LIG-0.29  OA
ENDBRANCH 23 30
ENDBRANCH 20 23
ENDBRANCH 4 19
TORSDOF 9
ENDMDL
MODEL 103
USER: ADFR SOLUTION from run 107
USER: SCORE 10.655054 LL:  -2.116 LR:  -8.539 RR:   0.000 FEB:  -5.854
USER: RMSD 6.403913
USER: SEED 106
USER: STATUS no improvement in best in 28 clusters for 5 generations
USER: GENES 11
USER: genes 0 Translation |==|  0.60376 0.33818 0.65952
USER: genes 1 Rotation |==|  0.40508 0.10798 0.78166 0.58933
USER: genes 2 Torsion [N]-C--CA-[N] |==|  0.13394
USER: genes 3 Torsion [C]-CA--CB-[CG] |==|  0.70984
USER: genes 4 Torsion [CA]-CB--CG-[CD2] |==|  0.60024
USER: genes 5 Torsion [CE2]-CZ--OH-[HH] |==|  0.42386
USER: genes 6 Torsion [N]-CA--C-[N] |==|  0.07291
USER: genes 7 Torsion [C]-N--CA-[C] |==|  0.73188
USER: genes 8 Torsion [N]-CA--CB-[CG] |==|  0.13267
USER: genes 9 Torsion [CA]-CB--CG-[ND1] |==|  0.83178
USER: genes 10 Torsion [N]-CA--C-[O] |==|  0.95623
ROOT
ATOM      1  C   TYR C  64      14.097  -3.298   9.948  1.00 51.57 LIG 0.26  C 
ATOM      2 O    TYR C  64      14.616  -2.774  10.934  1.00 54.62 LIG-0.27  OA
ATOM      3  N   PRO C  65      12.886  -2.931   9.495  1.00 43.10 LIG-0.34  N 
ATOM      4  CA  PRO C  65      12.200  -3.371   8.276  1.00 38.90 LIG 0.18  C 
ATOM      5  CB  PRO C  65      10.748  -3.456   8.724  1.00 40.80 LIG 0.04  C 
ATOM      6  CG  PRO C  65      10.628  -2.367   9.733  1.00 42.19 LIG 0.02  C 
ATOM      7  CD  PRO C  65      11.962  -2.249  10.418  1.00 44.37 LIG 0.13  C 
ENDROOT
BRANCH 1 8
ATOM      8  CA  TYR C  64      14.830  -4.407   9.198  1.00 49.73 LIG 0.40  C 
ATOM      9  N   TYR C  64      14.797  -4.120   7.766  1.00 50.52 LIG 0.61  N 
BRANCH 8 10
ATOM     10  CB  TYR C  64      16.276  -4.487   9.702  1.00 50.46 LIG 0.09  C 
BRANCH 10 11
ATOM     11  CG  TYR C  64      17.322  -3.907   8.775  1.00 47.68 LIG-0.06  A 
ATOM     12  CD2 TYR C  64      18.575  -4.498   8.668  1.00 48.34 LIG 0.01  A 
ATOM     13  CE2 TYR C  64      19.543  -3.981   7.827  1.00 49.15 LIG 0.04  A 
ATOM     14  CZ  TYR C  64      19.261  -2.857   7.077  1.00 50.59 LIG 0.07  A 
ATOM     15  CE1 TYR C  64      18.024  -2.249   7.162  1.00 46.73 LIG 0.04  A 
ATOM     16  CD1 TYR C  64      17.062  -2.776   8.007  1.00 46.22 LIG 0.01  A 
BRANCH 14 17
ATOM     17 OH   TYR C  64      20.220  -2.336   6.238  1.00 53.82 LIG-0.36  OA
ATOM     18 HH   TYR C  64      19.847  -1.934   5.601  1.00 53.82 LIG 0.22  HD
ENDBRANCH 14 17
ENDBRANCH 10 11
ENDBRANCH 8 10
ENDBRANCH 1 8
BRANCH 4 19
ATOM     19  C   PRO C  65      12.330  -2.353   7.149  1.00 37.07 LIG 0.24  C 
ATOM     20  N   HIS C  66      13.404  -1.566   7.201  1.00 40.38 LIG-0.35  N 
ATOM     21 H    HIS C  66      13.979  -1.589   7.840  1.00 40.38 LIG 0.16  HD
ATOM     22 O    PRO C  65      11.460  -2.286   6.263  1.00 29.28 LIG-0.27  OA
BRANCH 20 23
ATOM     23  CA  HIS C  66      13.706  -0.587   6.167  1.00 40.25 LIG 0.17  C 
BRANCH 23 24
ATOM     24  CB  HIS C  66      14.265   0.700   6.792  1.00 42.68 LIG 0.09  C 
BRANCH 24 25
ATOM     25  CG  HIS C  66      15.347   0.467   7.801  1.00 48.80 LIG 0.06  A 
ATOM     26 ND1  HIS C  66      15.151  -0.266   8.952  1.00 53.13 LIG-0.24  NA
ATOM     27  CE1 HIS C  66      16.276  -0.305   9.644  1.00 55.16 LIG 0.23  A 
ATOM     28 NE2  HIS C  66      17.196   0.376   8.984  1.00 53.86 LIG-0.25  NA
ATOM     29  CD2 HIS C  66      16.639   0.870   7.827  1.00 53.41 LIG 0.14  A 
ENDBRANCH 24 25
ENDBRANCH 23 24
BRANCH 23 30
ATOM     30  C   HIS C  66      14.702  -1.145   5.150  1.00 41.89 LIG 0.22  C 
ATOM     31 O    HIS C  66      15.361  -2.156   5.404  1.00 44.58 LIG-0.29  OA
ENDBRANCH 23 30
ENDBRANCH 20 23
ENDBRANCH 4 19
TORSDOF 9
ENDMDL
MODEL 104
USER: ADFR SOLUTION from run 87
USER: SCORE 10.008746 LL:  -1.464 LR:  -8.544 RR:   0.000 FEB:  -5.860
USER: RMSD 4.575185
USER: SEED 86
USER: STATUS no improvement in best in 21 clusters for 5 generations
USER: GENES 11
USER: genes 0 Translation |==|  0.39984 0.40791 0.54414
USER: genes 1 Rotation |==|  0.40267 0.43143 0.23047 0.90396
USER: genes 2 Torsion [N]-C--CA-[N] |==|  0.48750
USER: genes 3 Torsion [C]-CA--CB-[CG] |==|  0.89427
USER: genes 4 Torsion [CA]-CB--CG-[CD2] |==|  0.30274
USER: genes 5 Torsion [CE2]-CZ--OH-[HH] |==|  0.99807
USER: genes 6 Torsion [N]-CA--C-[N] |==|  0.51293
USER: genes 7 Torsion [C]-N--CA-[C] |==|  0.24402
USER: genes 8 Torsion [N]-CA--CB-[CG] |==|  0.50693
USER: genes 9 Torsion [CA]-CB--CG-[ND1] |==|  0.29434
USER: genes 10 Torsion [N]-CA--C-[O] |==|  0.23819
ROOT
ATOM      1  C   TYR C  64      10.273  -2.199   7.871  1.00 51.57 LIG 0.26  C 
ATOM      2 O    TYR C  64       9.560  -2.805   7.071  1.00 54.62 LIG-0.27  OA
ATOM      3  N   PRO C  65      11.115  -2.833   8.705  1.00 43.10 LIG-0.34  N 
ATOM      4  CA  PRO C  65      12.105  -2.249   9.615  1.00 38.90 LIG 0.18  C 
ATOM      5  CB  PRO C  65      12.025  -3.166  10.827  1.00 40.80 LIG 0.04  C 
ATOM      6  CG  PRO C  65      11.707  -4.497  10.239  1.00 42.19 LIG 0.02  C 
ATOM      7  CD  PRO C  65      10.868  -4.252   9.015  1.00 44.37 LIG 0.13  C 
ENDROOT
BRANCH 1 8
ATOM      8  CA  TYR C  64      10.217  -0.675   7.943  1.00 49.73 LIG 0.40  C 
ATOM      9  N   TYR C  64       9.330  -0.178   6.893  1.00 50.52 LIG 0.61  N 
BRANCH 8 10
ATOM     10  CB  TYR C  64       9.708  -0.254   9.327  1.00 50.46 LIG 0.09  C 
BRANCH 10 11
ATOM     11  CG  TYR C  64       8.618  -1.124   9.913  1.00 47.68 LIG-0.06  A 
ATOM     12  CD2 TYR C  64       8.886  -1.959  10.992  1.00 48.34 LIG 0.01  A 
ATOM     13  CE2 TYR C  64       7.902  -2.761  11.539  1.00 49.15 LIG 0.04  A 
ATOM     14  CZ  TYR C  64       6.629  -2.734  11.007  1.00 50.59 LIG 0.07  A 
ATOM     15  CE1 TYR C  64       6.333  -1.914   9.936  1.00 46.73 LIG 0.04  A 
ATOM     16  CD1 TYR C  64       7.326  -1.113   9.396  1.00 46.22 LIG 0.01  A 
BRANCH 14 17
ATOM     17 OH   TYR C  64       5.644  -3.531  11.547  1.00 53.82 LIG-0.36  OA
ATOM     18 HH   TYR C  64       5.964  -3.981  12.181  1.00 53.82 LIG 0.22  HD
ENDBRANCH 14 17
ENDBRANCH 10 11
ENDBRANCH 8 10
ENDBRANCH 1 8
BRANCH 4 19
ATOM     19  C   PRO C  65      13.513  -2.293   9.030  1.00 37.07 LIG 0.24  C 
ATOM     20  N   HIS C  66      14.487  -1.869   9.835  1.00 40.38 LIG-0.35  N 
ATOM     21 H    HIS C  66      14.348  -1.551  10.621  1.00 40.38 LIG 0.16  HD
ATOM     22 O    PRO C  65      13.696  -2.696   7.868  1.00 29.28 LIG-0.27  OA
BRANCH 20 23
ATOM     23  CA  HIS C  66      15.890  -1.907   9.450  1.00 40.25 LIG 0.17  C 
BRANCH 23 24
ATOM     24  CB  HIS C  66      16.176  -3.135   8.575  1.00 42.68 LIG 0.09  C 
BRANCH 24 25
ATOM     25  CG  HIS C  66      17.615  -3.282   8.183  1.00 48.80 LIG 0.06  A 
ATOM     26 ND1  HIS C  66      18.449  -4.228   8.740  1.00 53.13 LIG-0.24  NA
ATOM     27  CE1 HIS C  66      19.651  -4.124   8.202  1.00 55.16 LIG 0.23  A 
ATOM     28 NE2  HIS C  66      19.628  -3.144   7.316  1.00 53.86 LIG-0.25  NA
ATOM     29  CD2 HIS C  66      18.365  -2.600   7.286  1.00 53.41 LIG 0.14  A 
ENDBRANCH 24 25
ENDBRANCH 23 24
BRANCH 23 30
ATOM     30  C   HIS C  66      16.294  -0.634   8.707  1.00 41.89 LIG 0.22  C 
ATOM     31 O    HIS C  66      16.651   0.371   9.327  1.00 44.58 LIG-0.29  OA
ENDBRANCH 23 30
ENDBRANCH 20 23
ENDBRANCH 4 19
TORSDOF 9
ENDMDL
MODEL 105
USER: ADFR SOLUTION from run 149
USER: SCORE 10.671601 LL:  -2.139 LR:  -8.533 RR:   0.000 FEB:  -5.848
USER: RMSD 5.508228
USER: SEED 148
USER: STATUS no improvement in best in 29 clusters for 5 generations
USER: GENES 11
USER: genes 0 Translation |==|  0.56020 0.34293 0.47967
USER: genes 1 Rotation |==|  0.47957 0.70025 0.69586 0.91367
USER: genes 2 Torsion [N]-C--CA-[N] |==|  0.42336
USER: genes 3 Torsion [C]-CA--CB-[CG] |==|  0.19703
USER: genes 4 Torsion [CA]-CB--CG-[CD2] |==|  0.20666
USER: genes 5 Torsion [CE2]-CZ--OH-[HH] |==|  0.43447
USER: genes 6 Torsion [N]-CA--C-[N] |==|  0.32217
USER: genes 7 Torsion [C]-N--CA-[C] |==|  0.18729
USER: genes 8 Torsion [N]-CA--CB-[CG] |==|  0.85146
USER: genes 9 Torsion [CA]-CB--CG-[ND1] |==|  0.14946
USER: genes 10 Torsion [N]-CA--C-[O] |==|  0.07789
ROOT
ATOM      1  C   TYR C  64      13.280  -3.223   6.711  1.00 51.57 LIG 0.26  C 
ATOM      2 O    TYR C  64      13.115  -4.178   5.952  1.00 54.62 LIG-0.27  OA
ATOM      3  N   PRO C  65      13.714  -2.028   6.277  1.00 43.10 LIG-0.34  N 
ATOM      4  CA  PRO C  65      13.838  -0.777   7.031  1.00 38.90 LIG 0.18  C 
ATOM      5  CB  PRO C  65      15.114  -0.171   6.463  1.00 40.80 LIG 0.04  C 
ATOM      6  CG  PRO C  65      15.109  -0.614   5.041  1.00 42.19 LIG 0.02  C 
ATOM      7  CD  PRO C  65      14.444  -1.962   4.999  1.00 44.37 LIG 0.13  C 
ENDROOT
BRANCH 1 8
ATOM      8  CA  TYR C  64      12.992  -3.374   8.203  1.00 49.73 LIG 0.40  C 
ATOM      9  N   TYR C  64      11.972  -4.403   8.392  1.00 50.52 LIG 0.61  N 
BRANCH 8 10
ATOM     10  CB  TYR C  64      14.287  -3.754   8.931  1.00 50.46 LIG 0.09  C 
BRANCH 10 11
ATOM     11  CG  TYR C  64      15.324  -2.657   9.030  1.00 47.68 LIG-0.06  A 
ATOM     12  CD2 TYR C  64      15.151  -1.601   9.918  1.00 48.34 LIG 0.01  A 
ATOM     13  CE2 TYR C  64      16.088  -0.590  10.021  1.00 49.15 LIG 0.04  A 
ATOM     14  CZ  TYR C  64      17.219  -0.628   9.230  1.00 50.59 LIG 0.07  A 
ATOM     15  CE1 TYR C  64      17.418  -1.665   8.341  1.00 46.73 LIG 0.04  A 
ATOM     16  CD1 TYR C  64      16.473  -2.673   8.246  1.00 46.22 LIG 0.01  A 
BRANCH 14 17
ATOM     17 OH   TYR C  64      18.155   0.376   9.327  1.00 53.82 LIG-0.36  OA
ATOM     18 HH   TYR C  64      18.901   0.091   9.063  1.00 53.82 LIG 0.22  HD
ENDBRANCH 14 17
ENDBRANCH 10 11
ENDBRANCH 8 10
ENDBRANCH 1 8
BRANCH 4 19
ATOM     19  C   PRO C  65      12.665   0.164   6.773  1.00 37.07 LIG 0.24  C 
ATOM     20  N   HIS C  66      11.895   0.430   7.827  1.00 40.38 LIG-0.35  N 
ATOM     21 H    HIS C  66      12.011   0.075   8.601  1.00 40.38 LIG 0.16  HD
ATOM     22 O    PRO C  65      12.469   0.622   5.634  1.00 29.28 LIG-0.27  OA
BRANCH 20 23
ATOM     23  CA  HIS C  66      10.775   1.357   7.762  1.00 40.25 LIG 0.17  C 
BRANCH 23 24
ATOM     24  CB  HIS C  66      11.237   2.724   7.238  1.00 42.68 LIG 0.09  C 
BRANCH 24 25
ATOM     25  CG  HIS C  66      12.390   3.308   7.996  1.00 48.80 LIG 0.06  A 
ATOM     26 ND1  HIS C  66      13.571   2.626   8.202  1.00 53.13 LIG-0.24  NA
ATOM     27  CE1 HIS C  66      14.400   3.386   8.895  1.00 55.16 LIG 0.23  A 
ATOM     28 NE2  HIS C  66      13.801   4.536   9.147  1.00 53.86 LIG-0.25  NA
ATOM     29  CD2 HIS C  66      12.541   4.511   8.596  1.00 53.41 LIG 0.14  A 
ENDBRANCH 24 25
ENDBRANCH 23 24
BRANCH 23 30
ATOM     30  C   HIS C  66       9.656   0.811   6.874  1.00 41.89 LIG 0.22  C 
ATOM     31 O    HIS C  66       9.496  -0.405   6.738  1.00 44.58 LIG-0.29  OA
ENDBRANCH 23 30
ENDBRANCH 20 23
ENDBRANCH 4 19
TORSDOF 9
ENDMDL
MODEL 106
USER: ADFR SOLUTION from run 9
USER: SCORE 10.264421 LL:  -1.736 LR:  -8.529 RR:   0.000 FEB:  -5.844
USER: RMSD 6.319125
USER: SEED 754385
USER: STATUS no improvement in best in 38 clusters for 5 generations
USER: GENES 11
USER: genes 0 Translation |==|  0.63584 0.38933 0.67007
USER: genes 1 Rotation |==|  0.54101 0.08937 0.77294 0.57217
USER: genes 2 Torsion [N]-C--CA-[N] |==|  0.83393
USER: genes 3 Torsion [C]-CA--CB-[CG] |==|  0.17089
USER: genes 4 Torsion [CA]-CB--CG-[CD2] |==|  0.48084
USER: genes 5 Torsion [CE2]-CZ--OH-[HH] |==|  0.89460
USER: genes 6 Torsion [N]-CA--C-[N] |==|  0.93200
USER: genes 7 Torsion [C]-N--CA-[C] |==|  0.72976
USER: genes 8 Torsion [N]-CA--CB-[CG] |==|  0.44920
USER: genes 9 Torsion [CA]-CB--CG-[ND1] |==|  0.69246
USER: genes 10 Torsion [N]-CA--C-[O] |==|  0.77058
ROOT
ATOM      1  C   TYR C  64      14.698  -2.492  10.138  1.00 51.57 LIG 0.26  C 
ATOM      2 O    TYR C  64      15.173  -1.879  11.095  1.00 54.62 LIG-0.27  OA
ATOM      3  N   PRO C  65      13.377  -2.701  10.004  1.00 43.10 LIG-0.34  N 
ATOM      4  CA  PRO C  65      12.663  -3.298   8.871  1.00 38.90 LIG 0.18  C 
ATOM      5  CB  PRO C  65      11.566  -4.100   9.557  1.00 40.80 LIG 0.04  C 
ATOM      6  CG  PRO C  65      11.249  -3.296  10.770  1.00 42.19 LIG 0.02  C 
ATOM      7  CD  PRO C  65      12.523  -2.625  11.202  1.00 44.37 LIG 0.13  C 
ENDROOT
BRANCH 1 8
ATOM      8  CA  TYR C  64      15.619  -3.049   9.055  1.00 49.73 LIG 0.40  C 
ATOM      9  N   TYR C  64      15.457  -4.499   8.987  1.00 50.52 LIG 0.61  N 
BRANCH 8 10
ATOM     10  CB  TYR C  64      15.267  -2.399   7.711  1.00 50.46 LIG 0.09  C 
BRANCH 10 11
ATOM     11  CG  TYR C  64      15.437  -0.897   7.648  1.00 47.68 LIG-0.06  A 
ATOM     12  CD2 TYR C  64      15.286  -0.220   6.444  1.00 48.34 LIG 0.01  A 
ATOM     13  CE2 TYR C  64      15.439   1.152   6.369  1.00 49.15 LIG 0.04  A 
ATOM     14  CZ  TYR C  64      15.746   1.865   7.510  1.00 50.59 LIG 0.07  A 
ATOM     15  CE1 TYR C  64      15.901   1.219   8.720  1.00 46.73 LIG 0.04  A 
ATOM     16  CD1 TYR C  64      15.745  -0.156   8.785  1.00 46.22 LIG 0.01  A 
BRANCH 14 17
ATOM     17 OH   TYR C  64      15.900   3.231   7.442  1.00 53.82 LIG-0.36  OA
ATOM     18 HH   TYR C  64      16.286   3.435   6.724  1.00 53.82 LIG 0.22  HD
ENDBRANCH 14 17
ENDBRANCH 10 11
ENDBRANCH 8 10
ENDBRANCH 1 8
BRANCH 4 19
ATOM     19  C   PRO C  65      12.037  -2.239   7.969  1.00 37.07 LIG 0.24  C 
ATOM     20  N   HIS C  66      11.776  -1.068   8.547  1.00 40.38 LIG-0.35  N 
ATOM     21 H    HIS C  66      11.908  -0.910   9.382  1.00 40.38 LIG 0.16  HD
ATOM     22 O    PRO C  65      11.790  -2.499   6.778  1.00 29.28 LIG-0.27  OA
BRANCH 20 23
ATOM     23  CA  HIS C  66      11.238   0.065   7.809  1.00 40.25 LIG 0.17  C 
BRANCH 23 24
ATOM     24  CB  HIS C  66      10.191   0.808   8.651  1.00 42.68 LIG 0.09  C 
BRANCH 24 25
ATOM     25  CG  HIS C  66       9.903   2.200   8.174  1.00 48.80 LIG 0.06  A 
ATOM     26 ND1  HIS C  66      10.275   3.324   8.881  1.00 53.13 LIG-0.24  NA
ATOM     27  CE1 HIS C  66       9.894   4.403   8.220  1.00 55.16 LIG 0.23  A 
ATOM     28 NE2  HIS C  66       9.288   4.020   7.110  1.00 53.86 LIG-0.25  NA
ATOM     29  CD2 HIS C  66       9.280   2.646   7.059  1.00 53.41 LIG 0.14  A 
ENDBRANCH 24 25
ENDBRANCH 23 24
BRANCH 23 30
ATOM     30  C   HIS C  66      12.347   1.030   7.389  1.00 41.89 LIG 0.22  C 
ATOM     31 O    HIS C  66      12.777   1.876   8.177  1.00 44.58 LIG-0.29  OA
ENDBRANCH 23 30
ENDBRANCH 20 23
ENDBRANCH 4 19
TORSDOF 9
ENDMDL
MODEL 107
USER: ADFR SOLUTION from run 147
USER: SCORE 10.788783 LL:  -2.259 LR:  -8.529 RR:   0.000 FEB:  -5.845
USER: RMSD 5.602897
USER: SEED 146
USER: STATUS no improvement in best in 33 clusters for 5 generations
USER: GENES 11
USER: genes 0 Translation |==|  0.50298 0.38618 0.60847
USER: genes 1 Rotation |==|  0.72760 0.81788 0.21927 0.63542
USER: genes 2 Torsion [N]-C--CA-[N] |==|  0.80695
USER: genes 3 Torsion [C]-CA--CB-[CG] |==|  0.19621
USER: genes 4 Torsion [CA]-CB--CG-[CD2] |==|  0.02563
USER: genes 5 Torsion [CE2]-CZ--OH-[HH] |==|  0.41508
USER: genes 6 Torsion [N]-CA--C-[N] |==|  0.87081
USER: genes 7 Torsion [C]-N--CA-[C] |==|  0.13332
USER: genes 8 Torsion [N]-CA--CB-[CG] |==|  0.81253
USER: genes 9 Torsion [CA]-CB--CG-[ND1] |==|  0.56577
USER: genes 10 Torsion [N]-CA--C-[O] |==|  0.50999
ROOT
ATOM      1  C   TYR C  64      12.207  -2.542   9.030  1.00 51.57 LIG 0.26  C 
ATOM      2 O    TYR C  64      11.776  -1.600   9.695  1.00 54.62 LIG-0.27  OA
ATOM      3  N   PRO C  65      11.981  -2.650   7.709  1.00 43.10 LIG-0.34  N 
ATOM      4  CA  PRO C  65      12.526  -3.636   6.772  1.00 38.90 LIG 0.18  C 
ATOM      5  CB  PRO C  65      11.350  -3.895   5.840  1.00 40.80 LIG 0.04  C 
ATOM      6  CG  PRO C  65      10.650  -2.581   5.786  1.00 42.19 LIG 0.02  C 
ATOM      7  CD  PRO C  65      10.840  -1.923   7.125  1.00 44.37 LIG 0.13  C 
ENDROOT
BRANCH 1 8
ATOM      8  CA  TYR C  64      13.027  -3.641   9.702  1.00 49.73 LIG 0.40  C 
ATOM      9  N   TYR C  64      12.244  -4.874   9.729  1.00 50.52 LIG 0.61  N 
BRANCH 8 10
ATOM     10  CB  TYR C  64      14.333  -3.843   8.924  1.00 50.46 LIG 0.09  C 
BRANCH 10 11
ATOM     11  CG  TYR C  64      15.342  -2.722   9.041  1.00 47.68 LIG-0.06  A 
ATOM     12  CD2 TYR C  64      15.151  -1.694   9.958  1.00 48.34 LIG 0.01  A 
ATOM     13  CE2 TYR C  64      16.062  -0.662  10.077  1.00 49.15 LIG 0.04  A 
ATOM     14  CZ  TYR C  64      17.185  -0.649   9.274  1.00 50.59 LIG 0.07  A 
ATOM     15  CE1 TYR C  64      17.401  -1.658   8.355  1.00 46.73 LIG 0.04  A 
ATOM     16  CD1 TYR C  64      16.482  -2.688   8.244  1.00 46.22 LIG 0.01  A 
BRANCH 14 17
ATOM     17 OH   TYR C  64      18.096   0.376   9.387  1.00 53.82 LIG-0.36  OA
ATOM     18 HH   TYR C  64      18.864   0.091   9.199  1.00 53.82 LIG 0.22  HD
ENDBRANCH 14 17
ENDBRANCH 10 11
ENDBRANCH 8 10
ENDBRANCH 1 8
BRANCH 4 19
ATOM     19  C   PRO C  65      13.700  -3.077   5.974  1.00 37.07 LIG 0.24  C 
ATOM     20  N   HIS C  66      13.520  -1.865   5.453  1.00 40.38 LIG-0.35  N 
ATOM     21 H    HIS C  66      12.784  -1.425   5.517  1.00 40.38 LIG 0.16  HD
ATOM     22 O    PRO C  65      14.737  -3.749   5.833  1.00 29.28 LIG-0.27  OA
BRANCH 20 23
ATOM     23  CA  HIS C  66      14.565  -1.166   4.719  1.00 40.25 LIG 0.17  C 
BRANCH 23 24
ATOM     24  CB  HIS C  66      15.636  -0.636   5.682  1.00 42.68 LIG 0.09  C 
BRANCH 24 25
ATOM     25  CG  HIS C  66      15.154   0.458   6.586  1.00 48.80 LIG 0.06  A 
ATOM     26 ND1  HIS C  66      16.003   1.378   7.165  1.00 53.13 LIG-0.24  NA
ATOM     27  CE1 HIS C  66      15.300   2.217   7.905  1.00 55.16 LIG 0.23  A 
ATOM     28 NE2  HIS C  66      14.026   1.876   7.827  1.00 53.86 LIG-0.25  NA
ATOM     29  CD2 HIS C  66      13.909   0.777   7.009  1.00 53.41 LIG 0.14  A 
ENDBRANCH 24 25
ENDBRANCH 23 24
BRANCH 23 30
ATOM     30  C   HIS C  66      15.210  -2.077   3.674  1.00 41.89 LIG 0.22  C 
ATOM     31 O    HIS C  66      16.163  -1.682   2.998  1.00 44.58 LIG-0.29  OA
ENDBRANCH 23 30
ENDBRANCH 20 23
ENDBRANCH 4 19
TORSDOF 9
ENDMDL
MODEL 108
USER: ADFR SOLUTION from run 134
USER: SCORE 10.515614 LL:  -1.998 LR:  -8.517 RR:   0.000 FEB:  -5.833
USER: RMSD 5.450062
USER: SEED 133
USER: STATUS no improvement in best in 33 clusters for 5 generations
USER: GENES 11
USER: genes 0 Translation |==|  0.64404 0.36181 0.68491
USER: genes 1 Rotation |==|  0.45194 0.12144 0.81451 0.57394
USER: genes 2 Torsion [N]-C--CA-[N] |==|  0.86528
USER: genes 3 Torsion [C]-CA--CB-[CG] |==|  0.08868
USER: genes 4 Torsion [CA]-CB--CG-[CD2] |==|  0.61523
USER: genes 5 Torsion [CE2]-CZ--OH-[HH] |==|  0.87937
USER: genes 6 Torsion [N]-CA--C-[N] |==|  0.90458
USER: genes 7 Torsion [C]-N--CA-[C] |==|  0.49967
USER: genes 8 Torsion [N]-CA--CB-[CG] |==|  0.70450
USER: genes 9 Torsion [CA]-CB--CG-[ND1] |==|  0.94890
USER: genes 10 Torsion [N]-CA--C-[O] |==|  0.23281
ROOT
ATOM      1  C   TYR C  64      14.852  -2.925  10.405  1.00 51.57 LIG 0.26  C 
ATOM      2 O    TYR C  64      15.334  -2.199  11.275  1.00 54.62 LIG-0.27  OA
ATOM      3  N   PRO C  65      13.560  -2.850  10.043  1.00 43.10 LIG-0.34  N 
ATOM      4  CA  PRO C  65      12.880  -3.554   8.952  1.00 38.90 LIG 0.18  C 
ATOM      5  CB  PRO C  65      11.514  -3.858   9.552  1.00 40.80 LIG 0.04  C 
ATOM      6  CG  PRO C  65      11.262  -2.698  10.452  1.00 42.19 LIG 0.02  C 
ATOM      7  CD  PRO C  65      12.596  -2.249  10.981  1.00 44.37 LIG 0.13  C 
ENDROOT
BRANCH 1 8
ATOM      8  CA  TYR C  64      15.728  -3.959   9.701  1.00 49.73 LIG 0.40  C 
ATOM      9  N   TYR C  64      15.042  -5.249   9.702  1.00 50.52 LIG 0.61  N 
BRANCH 8 10
ATOM     10  CB  TYR C  64      16.004  -3.492   8.266  1.00 50.46 LIG 0.09  C 
BRANCH 10 11
ATOM     11  CG  TYR C  64      16.081  -1.994   8.072  1.00 47.68 LIG-0.06  A 
ATOM     12  CD2 TYR C  64      15.493  -1.395   6.963  1.00 48.34 LIG 0.01  A 
ATOM     13  CE2 TYR C  64      15.555  -0.028   6.770  1.00 49.15 LIG 0.04  A 
ATOM     14  CZ  TYR C  64      16.210   0.761   7.693  1.00 50.59 LIG 0.07  A 
ATOM     15  CE1 TYR C  64      16.802   0.194   8.805  1.00 46.73 LIG 0.04  A 
ATOM     16  CD1 TYR C  64      16.734  -1.177   8.990  1.00 46.22 LIG 0.01  A 
BRANCH 14 17
ATOM     17 OH   TYR C  64      16.276   2.123   7.507  1.00 53.82 LIG-0.36  OA
ATOM     18 HH   TYR C  64      16.455   2.287   6.702  1.00 53.82 LIG 0.22  HD
ENDBRANCH 14 17
ENDBRANCH 10 11
ENDBRANCH 8 10
ENDBRANCH 1 8
BRANCH 4 19
ATOM     19  C   PRO C  65      12.714  -2.672   7.719  1.00 37.07 LIG 0.24  C 
ATOM     20  N   HIS C  66      12.506  -1.378   7.958  1.00 40.38 LIG-0.35  N 
ATOM     21 H    HIS C  66      12.428  -1.048   8.747  1.00 40.38 LIG 0.16  HD
ATOM     22 O    PRO C  65      12.765  -3.171   6.581  1.00 29.28 LIG-0.27  OA
BRANCH 20 23
ATOM     23  CA  HIS C  66      12.390  -0.396   6.890  1.00 40.25 LIG 0.17  C 
BRANCH 23 24
ATOM     24  CB  HIS C  66      11.253  -0.774   5.930  1.00 42.68 LIG 0.09  C 
BRANCH 24 25
ATOM     25  CG  HIS C  66      11.723  -1.302   4.609  1.00 48.80 LIG 0.06  A 
ATOM     26 ND1  HIS C  66      13.002  -1.102   4.136  1.00 53.13 LIG-0.24  NA
ATOM     27  CE1 HIS C  66      13.128  -1.681   2.955  1.00 55.16 LIG 0.23  A 
ATOM     28 NE2  HIS C  66      11.977  -2.249   2.644  1.00 53.86 LIG-0.25  NA
ATOM     29  CD2 HIS C  66      11.081  -2.026   3.662  1.00 53.41 LIG 0.14  A 
ENDBRANCH 24 25
ENDBRANCH 23 24
BRANCH 23 30
ATOM     30  C   HIS C  66      12.151   1.006   7.452  1.00 41.89 LIG 0.22  C 
ATOM     31 O    HIS C  66      13.097   1.704   7.827  1.00 44.58 LIG-0.29  OA
ENDBRANCH 23 30
ENDBRANCH 20 23
ENDBRANCH 4 19
TORSDOF 9
ENDMDL
MODEL 109
USER: ADFR SOLUTION from run 76
USER: SCORE 10.504974 LL:  -1.990 LR:  -8.515 RR:   0.000 FEB:  -5.831
USER: RMSD 4.121819
USER: SEED 75
USER: STATUS no improvement in best in 34 clusters for 5 generations
USER: GENES 11
USER: genes 0 Translation |==|  0.44830 0.38110 0.60727
USER: genes 1 Rotation |==|  0.89972 0.71698 0.43044 0.69572
USER: genes 2 Torsion [N]-C--CA-[N] |==|  0.28638
USER: genes 3 Torsion [C]-CA--CB-[CG] |==|  0.73676
USER: genes 4 Torsion [CA]-CB--CG-[CD2] |==|  0.72645
USER: genes 5 Torsion [CE2]-CZ--OH-[HH] |==|  0.94415
USER: genes 6 Torsion [N]-CA--C-[N] |==|  0.97076
USER: genes 7 Torsion [C]-N--CA-[C] |==|  0.68057
USER: genes 8 Torsion [N]-CA--CB-[CG] |==|  0.91740
USER: genes 9 Torsion [CA]-CB--CG-[ND1] |==|  0.37599
USER: genes 10 Torsion [N]-CA--C-[O] |==|  0.01821
ROOT
ATOM      1  C   TYR C  64      11.182  -2.622   9.008  1.00 51.57 LIG 0.26  C 
ATOM      2 O    TYR C  64      10.406  -1.728   9.348  1.00 54.62 LIG-0.27  OA
ATOM      3  N   PRO C  65      12.273  -2.380   8.262  1.00 43.10 LIG-0.34  N 
ATOM      4  CA  PRO C  65      13.342  -3.309   7.887  1.00 38.90 LIG 0.18  C 
ATOM      5  CB  PRO C  65      13.670  -2.882   6.463  1.00 40.80 LIG 0.04  C 
ATOM      6  CG  PRO C  65      13.431  -1.412   6.474  1.00 42.19 LIG 0.02  C 
ATOM      7  CD  PRO C  65      12.314  -1.152   7.447  1.00 44.37 LIG 0.13  C 
ENDROOT
BRANCH 1 8
ATOM      8  CA  TYR C  64      10.917  -4.065   9.432  1.00 49.73 LIG 0.40  C 
ATOM      9  N   TYR C  64      11.297  -4.230  10.833  1.00 50.52 LIG 0.61  N 
BRANCH 8 10
ATOM     10  CB  TYR C  64       9.431  -4.385   9.231  1.00 50.46 LIG 0.09  C 
BRANCH 10 11
ATOM     11  CG  TYR C  64       8.555  -4.206  10.452  1.00 47.68 LIG-0.06  A 
ATOM     12  CD2 TYR C  64       8.207  -5.300  11.237  1.00 48.34 LIG 0.01  A 
ATOM     13  CE2 TYR C  64       7.407  -5.154  12.355  1.00 49.15 LIG 0.04  A 
ATOM     14  CZ  TYR C  64       6.945  -3.901  12.702  1.00 50.59 LIG 0.07  A 
ATOM     15  CE1 TYR C  64       7.276  -2.796  11.942  1.00 46.73 LIG 0.04  A 
ATOM     16  CD1 TYR C  64       8.078  -2.953  10.824  1.00 46.22 LIG 0.01  A 
BRANCH 14 17
ATOM     17 OH   TYR C  64       6.148  -3.749  13.814  1.00 53.82 LIG-0.36  OA
ATOM     18 HH   TYR C  64       5.804  -4.489  14.016  1.00 53.82 LIG 0.22  HD
ENDBRANCH 14 17
ENDBRANCH 10 11
ENDBRANCH 8 10
ENDBRANCH 1 8
BRANCH 4 19
ATOM     19  C   PRO C  65      14.576  -3.146   8.769  1.00 37.07 LIG 0.24  C 
ATOM     20  N   HIS C  66      14.580  -2.077   9.564  1.00 40.38 LIG-0.35  N 
ATOM     21 H    HIS C  66      13.957  -1.485   9.568  1.00 40.38 LIG 0.16  HD
ATOM     22 O    PRO C  65      15.501  -3.975   8.709  1.00 29.28 LIG-0.27  OA
BRANCH 20 23
ATOM     23  CA  HIS C  66      15.654  -1.813  10.510  1.00 40.25 LIG 0.17  C 
BRANCH 23 24
ATOM     24  CB  HIS C  66      16.283  -0.438  10.241  1.00 42.68 LIG 0.09  C 
BRANCH 24 25
ATOM     25  CG  HIS C  66      16.223  -0.012   8.805  1.00 48.80 LIG 0.06  A 
ATOM     26 ND1  HIS C  66      15.857   1.259   8.417  1.00 53.13 LIG-0.24  NA
ATOM     27  CE1 HIS C  66      15.897   1.344   7.099  1.00 55.16 LIG 0.23  A 
ATOM     28 NE2  HIS C  66      16.276   0.173   6.617  1.00 53.86 LIG-0.25  NA
ATOM     29  CD2 HIS C  66      16.485  -0.693   7.665  1.00 53.41 LIG 0.14  A 
ENDBRANCH 24 25
ENDBRANCH 23 24
BRANCH 23 30
ATOM     30  C   HIS C  66      15.150  -1.880  11.952  1.00 41.89 LIG 0.22  C 
ATOM     31 O    HIS C  66      14.000  -2.249  12.200  1.00 44.58 LIG-0.29  OA
ENDBRANCH 23 30
ENDBRANCH 20 23
ENDBRANCH 4 19
TORSDOF 9
ENDMDL
MODEL 110
USER: ADFR SOLUTION from run 128
USER: SCORE 10.440347 LL:  -1.922 LR:  -8.518 RR:   0.000 FEB:  -5.833
USER: RMSD 4.476809
USER: SEED 127
USER: STATUS no improvement in best in 34 clusters for 5 generations
USER: GENES 11
USER: genes 0 Translation |==|  0.53308 0.61081 0.52083
USER: genes 1 Rotation |==|  0.98671 0.47908 0.44585 0.59873
USER: genes 2 Torsion [N]-C--CA-[N] |==|  0.82808
USER: genes 3 Torsion [C]-CA--CB-[CG] |==|  0.34680
USER: genes 4 Torsion [CA]-CB--CG-[CD2] |==|  0.60980
USER: genes 5 Torsion [CE2]-CZ--OH-[HH] |==|  0.61608
USER: genes 6 Torsion [N]-CA--C-[N] |==|  0.08216
USER: genes 7 Torsion [C]-N--CA-[C] |==|  0.55714
USER: genes 8 Torsion [N]-CA--CB-[CG] |==|  0.04879
USER: genes 9 Torsion [CA]-CB--CG-[ND1] |==|  0.67812
USER: genes 10 Torsion [N]-CA--C-[O] |==|  0.68897
ROOT
ATOM      1  C   TYR C  64      12.771   0.996   7.452  1.00 51.57 LIG 0.26  C 
ATOM      2 O    TYR C  64      12.904   2.054   8.068  1.00 54.62 LIG-0.27  OA
ATOM      3  N   PRO C  65      13.822   0.296   6.993  1.00 43.10 LIG-0.34  N 
ATOM      4  CA  PRO C  65      13.827  -1.025   6.359  1.00 38.90 LIG 0.18  C 
ATOM      5  CB  PRO C  65      14.910  -0.882   5.299  1.00 40.80 LIG 0.04  C 
ATOM      6  CG  PRO C  65      15.888   0.054   5.922  1.00 42.19 LIG 0.02  C 
ATOM      7  CD  PRO C  65      15.106   0.993   6.798  1.00 44.37 LIG 0.13  C 
ENDROOT
BRANCH 1 8
ATOM      8  CA  TYR C  64      11.375   0.440   7.182  1.00 49.73 LIG 0.40  C 
ATOM      9  N   TYR C  64      11.155   0.377   5.739  1.00 50.52 LIG 0.61  N 
BRANCH 8 10
ATOM     10  CB  TYR C  64      11.258  -0.955   7.809  1.00 50.46 LIG 0.09  C 
BRANCH 10 11
ATOM     11  CG  TYR C  64      10.106  -1.142   8.772  1.00 47.68 LIG-0.06  A 
ATOM     12  CD2 TYR C  64      10.273  -1.883   9.937  1.00 48.34 LIG 0.01  A 
ATOM     13  CE2 TYR C  64       9.231  -2.064  10.827  1.00 49.15 LIG 0.04  A 
ATOM     14  CZ  TYR C  64       8.001  -1.499  10.558  1.00 50.59 LIG 0.07  A 
ATOM     15  CE1 TYR C  64       7.806  -0.756   9.410  1.00 46.73 LIG 0.04  A 
ATOM     16  CD1 TYR C  64       8.857  -0.580   8.525  1.00 46.22 LIG 0.01  A 
BRANCH 14 17
ATOM     17 OH   TYR C  64       6.959  -1.676  11.439  1.00 53.82 LIG-0.36  OA
ATOM     18 HH   TYR C  64       6.251  -1.827  11.011  1.00 53.82 LIG 0.22  HD
ENDBRANCH 14 17
ENDBRANCH 10 11
ENDBRANCH 8 10
ENDBRANCH 1 8
BRANCH 4 19
ATOM     19  C   PRO C  65      14.212  -2.128   7.340  1.00 37.07 LIG 0.24  C 
ATOM     20  N   HIS C  66      13.891  -1.907   8.613  1.00 40.38 LIG-0.35  N 
ATOM     21 H    HIS C  66      13.525  -1.181   8.892  1.00 40.38 LIG 0.16  HD
ATOM     22 O    PRO C  65      14.799  -3.148   6.936  1.00 29.28 LIG-0.27  OA
BRANCH 20 23
ATOM     23  CA  HIS C  66      14.132  -2.888   9.662  1.00 40.25 LIG 0.17  C 
BRANCH 23 24
ATOM     24  CB  HIS C  66      15.610  -2.879  10.077  1.00 42.68 LIG 0.09  C 
BRANCH 24 25
ATOM     25  CG  HIS C  66      16.353  -1.647   9.657  1.00 48.80 LIG 0.06  A 
ATOM     26 ND1  HIS C  66      17.401  -1.675   8.760  1.00 53.13 LIG-0.24  NA
ATOM     27  CE1 HIS C  66      17.856  -0.448   8.580  1.00 55.16 LIG 0.23  A 
ATOM     28 NE2  HIS C  66      17.142   0.376   9.327  1.00 53.86 LIG-0.25  NA
ATOM     29  CD2 HIS C  66      16.196  -0.350  10.011  1.00 53.41 LIG 0.14  A 
ENDBRANCH 24 25
ENDBRANCH 23 24
BRANCH 23 30
ATOM     30  C   HIS C  66      13.248  -2.624  10.881  1.00 41.89 LIG 0.22  C 
ATOM     31 O    HIS C  66      13.742  -2.250  11.947  1.00 44.58 LIG-0.29  OA
ENDBRANCH 23 30
ENDBRANCH 20 23
ENDBRANCH 4 19
TORSDOF 9
ENDMDL
MODEL 111
USER: ADFR SOLUTION from run 123
USER: SCORE 10.117400 LL:  -1.605 LR:  -8.512 RR:   0.000 FEB:  -5.828
USER: RMSD 6.301019
USER: SEED 122
USER: STATUS no improvement in best in 28 clusters for 5 generations
USER: GENES 11
USER: genes 0 Translation |==|  0.69163 0.58404 0.55998
USER: genes 1 Rotation |==|  0.90883 0.26364 0.65681 0.54904
USER: genes 2 Torsion [N]-C--CA-[N] |==|  0.82473
USER: genes 3 Torsion [C]-CA--CB-[CG] |==|  0.22545
USER: genes 4 Torsion [CA]-CB--CG-[CD2] |==|  0.58233
USER: genes 5 Torsion [CE2]-CZ--OH-[HH] |==|  0.19512
USER: genes 6 Torsion [N]-CA--C-[N] |==|  0.97878
USER: genes 7 Torsion [C]-N--CA-[C] |==|  0.45452
USER: genes 8 Torsion [N]-CA--CB-[CG] |==|  0.51042
USER: genes 9 Torsion [CA]-CB--CG-[ND1] |==|  0.77125
USER: genes 10 Torsion [N]-CA--C-[O] |==|  0.88522
ROOT
ATOM      1  C   TYR C  64      15.744   0.575   8.157  1.00 51.57 LIG 0.26  C 
ATOM      2 O    TYR C  64      15.901   1.501   8.952  1.00 54.62 LIG-0.27  OA
ATOM      3  N   PRO C  65      16.002  -0.703   8.484  1.00 43.10 LIG-0.34  N 
ATOM      4  CA  PRO C  65      15.749  -1.912   7.694  1.00 38.90 LIG 0.18  C 
ATOM      5  CB  PRO C  65      16.959  -2.778   8.016  1.00 40.80 LIG 0.04  C 
ATOM      6  CG  PRO C  65      17.282  -2.420   9.425  1.00 42.19 LIG 0.02  C 
ATOM      7  CD  PRO C  65      16.911  -0.975   9.611  1.00 44.37 LIG 0.13  C 
ENDROOT
BRANCH 1 8
ATOM      8  CA  TYR C  64      15.243   0.858   6.742  1.00 49.73 LIG 0.40  C 
ATOM      9  N   TYR C  64      16.276   0.474   5.782  1.00 50.52 LIG 0.61  N 
BRANCH 8 10
ATOM     10  CB  TYR C  64      13.953   0.068   6.496  1.00 50.46 LIG 0.09  C 
BRANCH 10 11
ATOM     11  CG  TYR C  64      12.691   0.691   7.051  1.00 47.68 LIG-0.06  A 
ATOM     12  CD2 TYR C  64      11.626  -0.108   7.452  1.00 48.34 LIG 0.01  A 
ATOM     13  CE2 TYR C  64      10.466   0.445   7.960  1.00 49.15 LIG 0.04  A 
ATOM     14  CZ  TYR C  64      10.359   1.816   8.073  1.00 50.59 LIG 0.07  A 
ATOM     15  CE1 TYR C  64      11.401   2.635   7.683  1.00 46.73 LIG 0.04  A 
ATOM     16  CD1 TYR C  64      12.559   2.071   7.176  1.00 46.22 LIG 0.01  A 
BRANCH 14 17
ATOM     17 OH   TYR C  64       9.206   2.374   8.577  1.00 53.82 LIG-0.36  OA
ATOM     18 HH   TYR C  64       9.151   2.209   9.399  1.00 53.82 LIG 0.22  HD
ENDBRANCH 14 17
ENDBRANCH 10 11
ENDBRANCH 8 10
ENDBRANCH 1 8
BRANCH 4 19
ATOM     19  C   PRO C  65      14.476  -2.626   8.135  1.00 37.07 LIG 0.24  C 
ATOM     20  N   HIS C  66      13.898  -2.149   9.236  1.00 40.38 LIG-0.35  N 
ATOM     21 H    HIS C  66      14.225  -1.507   9.705  1.00 40.38 LIG 0.16  HD
ATOM     22 O    PRO C  65      14.045  -3.595   7.486  1.00 29.28 LIG-0.27  OA
BRANCH 20 23
ATOM     23  CA  HIS C  66      12.644  -2.678   9.752  1.00 40.25 LIG 0.17  C 
BRANCH 23 24
ATOM     24  CB  HIS C  66      12.624  -4.210   9.653  1.00 42.68 LIG 0.09  C 
BRANCH 24 25
ATOM     25  CG  HIS C  66      11.330  -4.831  10.082  1.00 48.80 LIG 0.06  A 
ATOM     26 ND1  HIS C  66      11.020  -5.076  11.403  1.00 53.13 LIG-0.24  NA
ATOM     27  CE1 HIS C  66       9.819  -5.624  11.477  1.00 55.16 LIG 0.23  A 
ATOM     28 NE2  HIS C  66       9.339  -5.744  10.252  1.00 53.86 LIG-0.25  NA
ATOM     29  CD2 HIS C  66      10.266  -5.256   9.361  1.00 53.41 LIG 0.14  A 
ENDBRANCH 24 25
ENDBRANCH 23 24
BRANCH 23 30
ATOM     30  C   HIS C  66      12.417  -2.249  11.202  1.00 41.89 LIG 0.22  C 
ATOM     31 O    HIS C  66      13.347  -2.249  12.011  1.00 44.58 LIG-0.29  OA
ENDBRANCH 23 30
ENDBRANCH 20 23
ENDBRANCH 4 19
TORSDOF 9
ENDMDL
MODEL 112
USER: ADFR SOLUTION from run 136
USER: SCORE 10.739404 LL:  -2.236 LR:  -8.503 RR:   0.000 FEB:  -5.819
USER: RMSD 6.610370
USER: SEED 135
USER: STATUS no improvement in best in 25 clusters for 5 generations
USER: GENES 11
USER: genes 0 Translation |==|  0.55285 0.38077 0.66634
USER: genes 1 Rotation |==|  0.47597 0.93801 0.36438 0.69793
USER: genes 2 Torsion [N]-C--CA-[N] |==|  0.45243
USER: genes 3 Torsion [C]-CA--CB-[CG] |==|  0.35850
USER: genes 4 Torsion [CA]-CB--CG-[CD2] |==|  0.96331
USER: genes 5 Torsion [CE2]-CZ--OH-[HH] |==|  0.92453
USER: genes 6 Torsion [N]-CA--C-[N] |==|  0.05252
USER: genes 7 Torsion [C]-N--CA-[C] |==|  0.76899
USER: genes 8 Torsion [N]-CA--CB-[CG] |==|  0.91784
USER: genes 9 Torsion [CA]-CB--CG-[ND1] |==|  0.21500
USER: genes 10 Torsion [N]-CA--C-[O] |==|  0.81894
ROOT
ATOM      1  C   TYR C  64      13.142  -2.627  10.071  1.00 51.57 LIG 0.26  C 
ATOM      2 O    TYR C  64      12.423  -2.784  11.058  1.00 54.62 LIG-0.27  OA
ATOM      3  N   PRO C  65      12.693  -2.818   8.819  1.00 43.10 LIG-0.34  N 
ATOM      4  CA  PRO C  65      13.386  -2.553   7.555  1.00 38.90 LIG 0.18  C 
ATOM      5  CB  PRO C  65      12.931  -3.711   6.677  1.00 40.80 LIG 0.04  C 
ATOM      6  CG  PRO C  65      11.544  -3.982   7.147  1.00 42.19 LIG 0.02  C 
ATOM      7  CD  PRO C  65      11.503  -3.662   8.616  1.00 44.37 LIG 0.13  C 
ENDROOT
BRANCH 1 8
ATOM      8  CA  TYR C  64      14.599  -2.204  10.246  1.00 49.73 LIG 0.40  C 
ATOM      9  N   TYR C  64      14.782  -1.661  11.590  1.00 50.52 LIG 0.61  N 
BRANCH 8 10
ATOM     10  CB  TYR C  64      15.507  -3.420  10.024  1.00 50.46 LIG 0.09  C 
BRANCH 10 11
ATOM     11  CG  TYR C  64      16.642  -3.215   9.045  1.00 47.68 LIG-0.06  A 
ATOM     12  CD2 TYR C  64      16.661  -2.103   8.210  1.00 48.34 LIG 0.01  A 
ATOM     13  CE2 TYR C  64      17.690  -1.901   7.309  1.00 49.15 LIG 0.04  A 
ATOM     14  CZ  TYR C  64      18.719  -2.818   7.234  1.00 50.59 LIG 0.07  A 
ATOM     15  CE1 TYR C  64      18.726  -3.931   8.052  1.00 46.73 LIG 0.04  A 
ATOM     16  CD1 TYR C  64      17.691  -4.124   8.952  1.00 46.22 LIG 0.01  A 
BRANCH 14 17
ATOM     17 OH   TYR C  64      19.746  -2.624   6.339  1.00 53.82 LIG-0.36  OA
ATOM     18 HH   TYR C  64      19.467  -2.173   5.687  1.00 53.82 LIG 0.22  HD
ENDBRANCH 14 17
ENDBRANCH 10 11
ENDBRANCH 8 10
ENDBRANCH 1 8
BRANCH 4 19
ATOM     19  C   PRO C  65      12.949  -1.233   6.929  1.00 37.07 LIG 0.24  C 
ATOM     20  N   HIS C  66      12.354  -0.371   7.754  1.00 40.38 LIG-0.35  N 
ATOM     21 H    HIS C  66      12.184  -0.544   8.578  1.00 40.38 LIG 0.16  HD
ATOM     22 O    PRO C  65      13.143  -1.019   5.720  1.00 29.28 LIG-0.27  OA
BRANCH 20 23
ATOM     23  CA  HIS C  66      11.935   0.956   7.327  1.00 40.25 LIG 0.17  C 
BRANCH 23 24
ATOM     24  CB  HIS C  66      10.779   1.462   8.202  1.00 42.68 LIG 0.09  C 
BRANCH 24 25
ATOM     25  CG  HIS C  66       9.907   0.373   8.748  1.00 48.80 LIG 0.06  A 
ATOM     26 ND1  HIS C  66      10.276  -0.414   9.819  1.00 53.13 LIG-0.24  NA
ATOM     27  CE1 HIS C  66       9.314  -1.282  10.077  1.00 55.16 LIG 0.23  A 
ATOM     28 NE2  HIS C  66       8.333  -1.087   9.213  1.00 53.86 LIG-0.25  NA
ATOM     29  CD2 HIS C  66       8.681  -0.058   8.370  1.00 53.41 LIG 0.14  A 
ENDBRANCH 24 25
ENDBRANCH 23 24
BRANCH 23 30
ATOM     30  C   HIS C  66      13.098   1.947   7.379  1.00 41.89 LIG 0.22  C 
ATOM     31 O    HIS C  66      13.618   2.251   8.455  1.00 44.58 LIG-0.29  OA
ENDBRANCH 23 30
ENDBRANCH 20 23
ENDBRANCH 4 19
TORSDOF 9
ENDMDL
MODEL 113
USER: ADFR SOLUTION from run 138
USER: SCORE 10.224591 LL:  -1.721 LR:  -8.504 RR:   0.000 FEB:  -5.819
USER: RMSD 2.890448
USER: SEED 137
USER: STATUS no improvement in best in 29 clusters for 5 generations
USER: GENES 11
USER: genes 0 Translation |==|  0.67192 0.33128 0.60926
USER: genes 1 Rotation |==|  0.39072 0.59581 0.64837 0.95482
USER: genes 2 Torsion [N]-C--CA-[N] |==|  0.87761
USER: genes 3 Torsion [C]-CA--CB-[CG] |==|  0.16269
USER: genes 4 Torsion [CA]-CB--CG-[CD2] |==|  0.76132
USER: genes 5 Torsion [CE2]-CZ--OH-[HH] |==|  0.01046
USER: genes 6 Torsion [N]-CA--C-[N] |==|  0.66310
USER: genes 7 Torsion [C]-N--CA-[C] |==|  0.20720
USER: genes 8 Torsion [N]-CA--CB-[CG] |==|  0.80251
USER: genes 9 Torsion [CA]-CB--CG-[ND1] |==|  0.77904
USER: genes 10 Torsion [N]-CA--C-[O] |==|  0.94154
ROOT
ATOM      1  C   TYR C  64      15.375  -3.406   9.044  1.00 51.57 LIG 0.26  C 
ATOM      2 O    TYR C  64      15.526  -4.498   8.495  1.00 54.62 LIG-0.27  OA
ATOM      3  N   PRO C  65      16.107  -2.329   8.713  1.00 43.10 LIG-0.34  N 
ATOM      4  CA  PRO C  65      15.958  -0.949   9.184  1.00 38.90 LIG 0.18  C 
ATOM      5  CB  PRO C  65      17.401  -0.480   9.300  1.00 40.80 LIG 0.04  C 
ATOM      6  CG  PRO C  65      18.095  -1.208   8.202  1.00 42.19 LIG 0.02  C 
ATOM      7  CD  PRO C  65      17.403  -2.534   8.042  1.00 44.37 LIG 0.13  C 
ENDROOT
BRANCH 1 8
ATOM      8  CA  TYR C  64      14.328  -3.243  10.144  1.00 49.73 LIG 0.40  C 
ATOM      9  N   TYR C  64      14.908  -2.481  11.247  1.00 50.52 LIG 0.61  N 
BRANCH 8 10
ATOM     10  CB  TYR C  64      13.102  -2.521   9.571  1.00 50.46 LIG 0.09  C 
BRANCH 10 11
ATOM     11  CG  TYR C  64      12.432  -3.205   8.400  1.00 47.68 LIG-0.06  A 
ATOM     12  CD2 TYR C  64      12.883  -2.986   7.103  1.00 48.34 LIG 0.01  A 
ATOM     13  CE2 TYR C  64      12.282  -3.601   6.021  1.00 49.15 LIG 0.04  A 
ATOM     14  CZ  TYR C  64      11.214  -4.451   6.229  1.00 50.59 LIG 0.07  A 
ATOM     15  CE1 TYR C  64      10.746  -4.688   7.506  1.00 46.73 LIG 0.04  A 
ATOM     16  CD1 TYR C  64      11.356  -4.067   8.583  1.00 46.22 LIG 0.01  A 
BRANCH 14 17
ATOM     17 OH   TYR C  64      10.610  -5.066   5.157  1.00 53.82 LIG-0.36  OA
ATOM     18 HH   TYR C  64      11.026  -4.874   4.452  1.00 53.82 LIG 0.22  HD
ENDBRANCH 14 17
ENDBRANCH 10 11
ENDBRANCH 8 10
ENDBRANCH 1 8
BRANCH 4 19
ATOM     19  C   PRO C  65      15.214  -0.079   8.177  1.00 37.07 LIG 0.24  C 
ATOM     20  N   HIS C  66      15.877   0.988   7.734  1.00 40.38 LIG-0.35  N 
ATOM     21 H    HIS C  66      16.659   1.211   8.013  1.00 40.38 LIG 0.16  HD
ATOM     22 O    PRO C  65      14.058  -0.375   7.827  1.00 29.28 LIG-0.27  OA
BRANCH 20 23
ATOM     23  CA  HIS C  66      15.332   1.883   6.724  1.00 40.25 LIG 0.17  C 
BRANCH 23 24
ATOM     24  CB  HIS C  66      14.772   1.082   5.540  1.00 42.68 LIG 0.09  C 
BRANCH 24 25
ATOM     25  CG  HIS C  66      15.823   0.436   4.691  1.00 48.80 LIG 0.06  A 
ATOM     26 ND1  HIS C  66      16.544   1.126   3.738  1.00 53.13 LIG-0.24  NA
ATOM     27  CE1 HIS C  66      17.396   0.303   3.152  1.00 55.16 LIG 0.23  A 
ATOM     28 NE2  HIS C  66      17.255  -0.896   3.689  1.00 53.86 LIG-0.25  NA
ATOM     29  CD2 HIS C  66      16.276  -0.839   4.654  1.00 53.41 LIG 0.14  A 
ENDBRANCH 24 25
ENDBRANCH 23 24
BRANCH 23 30
ATOM     30  C   HIS C  66      14.239   2.778   7.309  1.00 41.89 LIG 0.22  C 
ATOM     31 O    HIS C  66      13.650   2.456   8.344  1.00 44.58 LIG-0.29  OA
ENDBRANCH 23 30
ENDBRANCH 20 23
ENDBRANCH 4 19
TORSDOF 9
ENDMDL
MODEL 114
USER: ADFR SOLUTION from run 53
USER: SCORE 10.000258 LL:  -1.498 LR:  -8.502 RR:   0.000 FEB:  -5.817
USER: RMSD 7.684512
USER: SEED 52
USER: STATUS no improvement in best in 33 clusters for 5 generations
USER: GENES 11
USER: genes 0 Translation |==|  0.69157 0.91802 0.64554
USER: genes 1 Rotation |==|  0.12539 0.56042 0.82537 0.51229
USER: genes 2 Torsion [N]-C--CA-[N] |==|  0.41656
USER: genes 3 Torsion [C]-CA--CB-[CG] |==|  0.39922
USER: genes 4 Torsion [CA]-CB--CG-[CD2] |==|  0.27132
USER: genes 5 Torsion [CE2]-CZ--OH-[HH] |==|  0.05365
USER: genes 6 Torsion [N]-CA--C-[N] |==|  0.88566
USER: genes 7 Torsion [C]-N--CA-[C] |==|  0.18867
USER: genes 8 Torsion [N]-CA--CB-[CG] |==|  0.50681
USER: genes 9 Torsion [CA]-CB--CG-[ND1] |==|  0.07106
USER: genes 10 Torsion [N]-CA--C-[O] |==|  0.05724
ROOT
ATOM      1  C   TYR C  64      15.743   5.835   9.697  1.00 51.57 LIG 0.26  C 
ATOM      2 O    TYR C  64      16.835   6.374   9.877  1.00 54.62 LIG-0.27  OA
ATOM      3  N   PRO C  65      15.379   5.331   8.505  1.00 43.10 LIG-0.34  N 
ATOM      4  CA  PRO C  65      14.178   4.560   8.173  1.00 38.90 LIG 0.18  C 
ATOM      5  CB  PRO C  65      13.826   5.074   6.784  1.00 40.80 LIG 0.04  C 
ATOM      6  CG  PRO C  65      15.151   5.380   6.177  1.00 42.19 LIG 0.02  C 
ATOM      7  CD  PRO C  65      16.057   5.823   7.293  1.00 44.37 LIG 0.13  C 
ENDROOT
BRANCH 1 8
ATOM      8  CA  TYR C  64      14.747   5.723  10.849  1.00 49.73 LIG 0.40  C 
ATOM      9  N   TYR C  64      15.480   5.629  12.109  1.00 50.52 LIG 0.61  N 
BRANCH 8 10
ATOM     10  CB  TYR C  64      13.831   6.954  10.845  1.00 50.46 LIG 0.09  C 
BRANCH 10 11
ATOM     11  CG  TYR C  64      12.393   6.698  11.238  1.00 47.68 LIG-0.06  A 
ATOM     12  CD2 TYR C  64      11.963   6.941  12.538  1.00 48.34 LIG 0.01  A 
ATOM     13  CE2 TYR C  64      10.653   6.711  12.914  1.00 49.15 LIG 0.04  A 
ATOM     14  CZ  TYR C  64       9.752   6.233  11.985  1.00 50.59 LIG 0.07  A 
ATOM     15  CE1 TYR C  64      10.151   5.983  10.686  1.00 46.73 LIG 0.04  A 
ATOM     16  CD1 TYR C  64      11.466   6.217  10.319  1.00 46.22 LIG 0.01  A 
BRANCH 14 17
ATOM     17 OH   TYR C  64       8.447   6.001  12.353  1.00 53.82 LIG-0.36  OA
ATOM     18 HH   TYR C  64       8.274   6.427  13.057  1.00 53.82 LIG 0.22  HD
ENDBRANCH 14 17
ENDBRANCH 10 11
ENDBRANCH 8 10
ENDBRANCH 1 8
BRANCH 4 19
ATOM     19  C   PRO C  65      14.460   3.063   8.109  1.00 37.07 LIG 0.24  C 
ATOM     20  N   HIS C  66      15.604   2.715   7.522  1.00 40.38 LIG-0.35  N 
ATOM     21 H    HIS C  66      16.144   3.278   7.162  1.00 40.38 LIG 0.16  HD
ATOM     22 O    PRO C  65      13.642   2.251   8.577  1.00 29.28 LIG-0.27  OA
BRANCH 20 23
ATOM     23  CA  HIS C  66      16.049   1.331   7.437  1.00 40.25 LIG 0.17  C 
BRANCH 23 24
ATOM     24  CB  HIS C  66      16.084   0.690   8.831  1.00 42.68 LIG 0.09  C 
BRANCH 24 25
ATOM     25  CG  HIS C  66      16.589  -0.721   8.839  1.00 48.80 LIG 0.06  A 
ATOM     26 ND1  HIS C  66      17.438  -1.217   7.873  1.00 53.13 LIG-0.24  NA
ATOM     27  CE1 HIS C  66      17.715  -2.481   8.139  1.00 55.16 LIG 0.23  A 
ATOM     28 NE2  HIS C  66      17.076  -2.824   9.244  1.00 53.86 LIG-0.25  NA
ATOM     29  CD2 HIS C  66      16.363  -1.740   9.701  1.00 53.41 LIG 0.14  A 
ENDBRANCH 24 25
ENDBRANCH 23 24
BRANCH 23 30
ATOM     30  C   HIS C  66      15.146   0.515   6.512  1.00 41.89 LIG 0.22  C 
ATOM     31 O    HIS C  66      14.438   1.074   5.670  1.00 44.58 LIG-0.29  OA
ENDBRANCH 23 30
ENDBRANCH 20 23
ENDBRANCH 4 19
TORSDOF 9
ENDMDL
MODEL 115
USER: ADFR SOLUTION from run 20
USER: SCORE 9.986031 LL:  -1.497 LR:  -8.489 RR:   0.000 FEB:  -5.804
USER: RMSD 3.440958
USER: SEED 19
USER: STATUS no improvement in best in 19 clusters for 5 generations
USER: GENES 11
USER: genes 0 Translation |==|  0.64661 0.38532 0.64801
USER: genes 1 Rotation |==|  0.12600 0.40395 0.58602 0.80577
USER: genes 2 Torsion [N]-C--CA-[N] |==|  0.28502
USER: genes 3 Torsion [C]-CA--CB-[CG] |==|  0.63675
USER: genes 4 Torsion [CA]-CB--CG-[CD2] |==|  0.85002
USER: genes 5 Torsion [CE2]-CZ--OH-[HH] |==|  0.31876
USER: genes 6 Torsion [N]-CA--C-[N] |==|  0.47972
USER: genes 7 Torsion [C]-N--CA-[C] |==|  0.61762
USER: genes 8 Torsion [N]-CA--CB-[CG] |==|  0.96509
USER: genes 9 Torsion [CA]-CB--CG-[ND1] |==|  0.28734
USER: genes 10 Torsion [N]-CA--C-[O] |==|  0.39681
ROOT
ATOM      1  C   TYR C  64      14.900  -2.555   9.741  1.00 51.57 LIG 0.26  C 
ATOM      2 O    TYR C  64      15.221  -3.318  10.653  1.00 54.62 LIG-0.27  OA
ATOM      3  N   PRO C  65      15.757  -1.663   9.216  1.00 43.10 LIG-0.34  N 
ATOM      4  CA  PRO C  65      15.560  -0.786   8.059  1.00 38.90 LIG 0.18  C 
ATOM      5  CB  PRO C  65      16.271   0.491   8.485  1.00 40.80 LIG 0.04  C 
ATOM      6  CG  PRO C  65      17.397   0.001   9.327  1.00 42.19 LIG 0.02  C 
ATOM      7  CD  PRO C  65      16.925  -1.250  10.015  1.00 44.37 LIG 0.13  C 
ENDROOT
BRANCH 1 8
ATOM      8  CA  TYR C  64      13.484  -2.600   9.170  1.00 49.73 LIG 0.40  C 
ATOM      9  N   TYR C  64      13.364  -3.749   8.276  1.00 50.52 LIG 0.61  N 
BRANCH 8 10
ATOM     10  CB  TYR C  64      12.479  -2.703  10.324  1.00 50.46 LIG 0.09  C 
BRANCH 10 11
ATOM     11  CG  TYR C  64      11.431  -3.786  10.180  1.00 47.68 LIG-0.06  A 
ATOM     12  CD2 TYR C  64      10.637  -3.852   9.041  1.00 48.34 LIG 0.01  A 
ATOM     13  CE2 TYR C  64       9.675  -4.834   8.894  1.00 49.15 LIG 0.04  A 
ATOM     14  CZ  TYR C  64       9.498  -5.767   9.895  1.00 50.59 LIG 0.07  A 
ATOM     15  CE1 TYR C  64      10.273  -5.726  11.037  1.00 46.73 LIG 0.04  A 
ATOM     16  CD1 TYR C  64      11.234  -4.739  11.174  1.00 46.22 LIG 0.01  A 
BRANCH 14 17
ATOM     17 OH   TYR C  64       8.541  -6.747   9.755  1.00 53.82 LIG-0.36  OA
ATOM     18 HH   TYR C  64       8.914  -7.499   9.710  1.00 53.82 LIG 0.22  HD
ENDBRANCH 14 17
ENDBRANCH 10 11
ENDBRANCH 8 10
ENDBRANCH 1 8
BRANCH 4 19
ATOM     19  C   PRO C  65      16.218  -1.344   6.801  1.00 37.07 LIG 0.24  C 
ATOM     20  N   HIS C  66      15.960  -0.686   5.672  1.00 40.38 LIG-0.35  N 
ATOM     21 H    HIS C  66      15.428  -0.011   5.627  1.00 40.38 LIG 0.16  HD
ATOM     22 O    PRO C  65      16.934  -2.359   6.867  1.00 29.28 LIG-0.27  OA
BRANCH 20 23
ATOM     23  CA  HIS C  66      16.560  -1.053   4.398  1.00 40.25 LIG 0.17  C 
BRANCH 23 24
ATOM     24  CB  HIS C  66      15.575  -1.874   3.555  1.00 42.68 LIG 0.09  C 
BRANCH 24 25
ATOM     25  CG  HIS C  66      14.379  -2.358   4.317  1.00 48.80 LIG 0.06  A 
ATOM     26 ND1  HIS C  66      13.134  -1.776   4.203  1.00 53.13 LIG-0.24  NA
ATOM     27  CE1 HIS C  66      12.279  -2.412   4.986  1.00 55.16 LIG 0.23  A 
ATOM     28 NE2  HIS C  66      12.924  -3.386   5.603  1.00 53.86 LIG-0.25  NA
ATOM     29  CD2 HIS C  66      14.240  -3.373   5.202  1.00 53.41 LIG 0.14  A 
ENDBRANCH 24 25
ENDBRANCH 23 24
BRANCH 23 30
ATOM     30  C   HIS C  66      17.005   0.185   3.619  1.00 41.89 LIG 0.22  C 
ATOM     31 O    HIS C  66      18.042   0.170   2.952  1.00 44.58 LIG-0.29  OA
ENDBRANCH 23 30
ENDBRANCH 20 23
ENDBRANCH 4 19
TORSDOF 9
ENDMDL
MODEL 116
USER: ADFR SOLUTION from run 44
USER: SCORE 10.208107 LL:  -1.728 LR:  -8.480 RR:   0.000 FEB:  -5.795
USER: RMSD 7.494901
USER: SEED 43
USER: STATUS no improvement in best in 24 clusters for 5 generations
USER: GENES 11
USER: genes 0 Translation |==|  0.66680 0.50521 0.56232
USER: genes 1 Rotation |==|  0.78798 0.25243 0.77068 0.68030
USER: genes 2 Torsion [N]-C--CA-[N] |==|  0.34796
USER: genes 3 Torsion [C]-CA--CB-[CG] |==|  0.16854
USER: genes 4 Torsion [CA]-CB--CG-[CD2] |==|  0.54414
USER: genes 5 Torsion [CE2]-CZ--OH-[HH] |==|  0.32526
USER: genes 6 Torsion [N]-CA--C-[N] |==|  0.09386
USER: genes 7 Torsion [C]-N--CA-[C] |==|  0.50186
USER: genes 8 Torsion [N]-CA--CB-[CG] |==|  0.65675
USER: genes 9 Torsion [CA]-CB--CG-[ND1] |==|  0.65031
USER: genes 10 Torsion [N]-CA--C-[O] |==|  0.98937
ROOT
ATOM      1  C   TYR C  64      15.278  -0.667   8.199  1.00 51.57 LIG 0.26  C 
ATOM      2 O    TYR C  64      15.732   0.472   8.319  1.00 54.62 LIG-0.27  OA
ATOM      3  N   PRO C  65      14.897  -1.403   9.257  1.00 43.10 LIG-0.34  N 
ATOM      4  CA  PRO C  65      14.233  -2.709   9.263  1.00 38.90 LIG 0.18  C 
ATOM      5  CB  PRO C  65      14.879  -3.406  10.452  1.00 40.80 LIG 0.04  C 
ATOM      6  CG  PRO C  65      15.149  -2.293  11.405  1.00 42.19 LIG 0.02  C 
ATOM      7  CD  PRO C  65      15.442  -1.068  10.584  1.00 44.37 LIG 0.13  C 
ENDROOT
BRANCH 1 8
ATOM      8  CA  TYR C  64      15.137  -1.291   6.812  1.00 49.73 LIG 0.40  C 
ATOM      9  N   TYR C  64      14.344  -0.402   5.966  1.00 50.52 LIG 0.61  N 
BRANCH 8 10
ATOM     10  CB  TYR C  64      16.532  -1.509   6.213  1.00 50.46 LIG 0.09  C 
BRANCH 10 11
ATOM     11  CG  TYR C  64      17.440  -2.433   6.995  1.00 47.68 LIG-0.06  A 
ATOM     12  CD2 TYR C  64      18.807  -2.454   6.747  1.00 48.34 LIG 0.01  A 
ATOM     13  CE2 TYR C  64      19.651  -3.292   7.452  1.00 49.15 LIG 0.04  A 
ATOM     14  CZ  TYR C  64      19.129  -4.124   8.421  1.00 50.59 LIG 0.07  A 
ATOM     15  CE1 TYR C  64      17.774  -4.124   8.690  1.00 46.73 LIG 0.04  A 
ATOM     16  CD1 TYR C  64      16.938  -3.280   7.978  1.00 46.22 LIG 0.01  A 
BRANCH 14 17
ATOM     17 OH   TYR C  64      19.963  -4.961   9.126  1.00 53.82 LIG-0.36  OA
ATOM     18 HH   TYR C  64      19.946  -4.754   9.940  1.00 53.82 LIG 0.22  HD
ENDBRANCH 14 17
ENDBRANCH 10 11
ENDBRANCH 8 10
ENDBRANCH 1 8
BRANCH 4 19
ATOM     19  C   PRO C  65      12.731  -2.585   9.496  1.00 37.07 LIG 0.24  C 
ATOM     20  N   HIS C  66      12.154  -1.499   8.983  1.00 40.38 LIG-0.35  N 
ATOM     21 H    HIS C  66      12.588  -0.878   8.577  1.00 40.38 LIG 0.16  HD
ATOM     22 O    PRO C  65      12.123  -3.458  10.140  1.00 29.28 LIG-0.27  OA
BRANCH 20 23
ATOM     23  CA  HIS C  66      10.720  -1.264   9.064  1.00 40.25 LIG 0.17  C 
BRANCH 23 24
ATOM     24  CB  HIS C  66      10.260  -1.242  10.528  1.00 42.68 LIG 0.09  C 
BRANCH 24 25
ATOM     25  CG  HIS C  66       9.179  -2.232  10.841  1.00 48.80 LIG 0.06  A 
ATOM     26 ND1  HIS C  66       7.984  -1.873  11.429  1.00 53.13 LIG-0.24  NA
ATOM     27  CE1 HIS C  66       7.230  -2.948  11.580  1.00 55.16 LIG 0.23  A 
ATOM     28 NE2  HIS C  66       7.891  -3.991  11.111  1.00 53.86 LIG-0.25  NA
ATOM     29  CD2 HIS C  66       9.114  -3.569  10.644  1.00 53.41 LIG 0.14  A 
ENDBRANCH 24 25
ENDBRANCH 23 24
BRANCH 23 30
ATOM     30  C   HIS C  66      10.335   0.048   8.379  1.00 41.89 LIG 0.22  C 
ATOM     31 O    HIS C  66      11.201   0.791   7.911  1.00 44.58 LIG-0.29  OA
ENDBRANCH 23 30
ENDBRANCH 20 23
ENDBRANCH 4 19
TORSDOF 9
ENDMDL
MODEL 117
USER: ADFR SOLUTION from run 34
USER: SCORE 10.330545 LL:  -1.850 LR:  -8.481 RR:   0.000 FEB:  -5.796
USER: RMSD 6.401468
USER: SEED 33
USER: STATUS no improvement in best in 28 clusters for 5 generations
USER: GENES 11
USER: genes 0 Translation |==|  0.75892 0.48037 0.60105
USER: genes 1 Rotation |==|  0.64765 0.19939 0.85272 0.61585
USER: genes 2 Torsion [N]-C--CA-[N] |==|  0.82981
USER: genes 3 Torsion [C]-CA--CB-[CG] |==|  0.18739
USER: genes 4 Torsion [CA]-CB--CG-[CD2] |==|  0.33258
USER: genes 5 Torsion [CE2]-CZ--OH-[HH] |==|  0.66583
USER: genes 6 Torsion [N]-CA--C-[N] |==|  0.83456
USER: genes 7 Torsion [C]-N--CA-[C] |==|  0.15180
USER: genes 8 Torsion [N]-CA--CB-[CG] |==|  0.73588
USER: genes 9 Torsion [CA]-CB--CG-[ND1] |==|  0.26905
USER: genes 10 Torsion [N]-CA--C-[O] |==|  0.10906
ROOT
ATOM      1  C   TYR C  64      17.006  -1.058   8.896  1.00 51.57 LIG 0.26  C 
ATOM      2 O    TYR C  64      17.458   0.036   9.233  1.00 54.62 LIG-0.27  OA
ATOM      3  N   PRO C  65      15.917  -1.593   9.474  1.00 43.10 LIG-0.34  N 
ATOM      4  CA  PRO C  65      15.197  -2.814   9.101  1.00 38.90 LIG 0.18  C 
ATOM      5  CB  PRO C  65      14.798  -3.391  10.452  1.00 40.80 LIG 0.04  C 
ATOM      6  CG  PRO C  65      14.573  -2.184  11.295  1.00 42.19 LIG 0.02  C 
ATOM      7  CD  PRO C  65      15.526  -1.124  10.815  1.00 44.37 LIG 0.13  C 
ENDROOT
BRANCH 1 8
ATOM      8  CA  TYR C  64      17.687  -1.859   7.788  1.00 49.73 LIG 0.40  C 
ATOM      9  N   TYR C  64      18.152  -3.132   8.334  1.00 50.52 LIG 0.61  N 
BRANCH 8 10
ATOM     10  CB  TYR C  64      16.690  -2.090   6.647  1.00 50.46 LIG 0.09  C 
BRANCH 10 11
ATOM     11  CG  TYR C  64      16.275  -0.851   5.882  1.00 47.68 LIG-0.06  A 
ATOM     12  CD2 TYR C  64      16.522  -0.749   4.518  1.00 48.34 LIG 0.01  A 
ATOM     13  CE2 TYR C  64      16.151   0.376   3.805  1.00 49.15 LIG 0.04  A 
ATOM     14  CZ  TYR C  64      15.523   1.417   4.457  1.00 50.59 LIG 0.07  A 
ATOM     15  CE1 TYR C  64      15.264   1.343   5.811  1.00 46.73 LIG 0.04  A 
ATOM     16  CD1 TYR C  64      15.639   0.211   6.516  1.00 46.22 LIG 0.01  A 
BRANCH 14 17
ATOM     17 OH   TYR C  64      15.151   2.540   3.753  1.00 53.82 LIG-0.36  OA
ATOM     18 HH   TYR C  64      15.536   3.214   4.076  1.00 53.82 LIG 0.22  HD
ENDBRANCH 14 17
ENDBRANCH 10 11
ENDBRANCH 8 10
ENDBRANCH 1 8
BRANCH 4 19
ATOM     19  C   PRO C  65      13.946  -2.511   8.282  1.00 37.07 LIG 0.24  C 
ATOM     20  N   HIS C  66      13.037  -1.741   8.878  1.00 40.38 LIG-0.35  N 
ATOM     21 H    HIS C  66      13.114  -1.454   9.685  1.00 40.38 LIG 0.16  HD
ATOM     22 O    PRO C  65      13.817  -2.984   7.139  1.00 29.28 LIG-0.27  OA
BRANCH 20 23
ATOM     23  CA  HIS C  66      11.819  -1.309   8.209  1.00 40.25 LIG 0.17  C 
BRANCH 23 24
ATOM     24  CB  HIS C  66      12.147  -0.336   7.068  1.00 42.68 LIG 0.09  C 
BRANCH 24 25
ATOM     25  CG  HIS C  66      12.056   1.109   7.454  1.00 48.80 LIG 0.06  A 
ATOM     26 ND1  HIS C  66      13.155   1.854   7.827  1.00 53.13 LIG-0.24  NA
ATOM     27  CE1 HIS C  66      12.774   3.087   8.108  1.00 55.16 LIG 0.23  A 
ATOM     28 NE2  HIS C  66      11.467   3.170   7.932  1.00 53.86 LIG-0.25  NA
ATOM     29  CD2 HIS C  66      10.994   1.944   7.524  1.00 53.41 LIG 0.14  A 
ENDBRANCH 24 25
ENDBRANCH 23 24
BRANCH 23 30
ATOM     30  C   HIS C  66      11.034  -2.503   7.665  1.00 41.89 LIG 0.22  C 
ATOM     31 O    HIS C  66      10.950  -3.549   8.313  1.00 44.58 LIG-0.29  OA
ENDBRANCH 23 30
ENDBRANCH 20 23
ENDBRANCH 4 19
TORSDOF 9
ENDMDL
MODEL 118
USER: ADFR SOLUTION from run 156
USER: SCORE 10.120601 LL:  -1.636 LR:  -8.484 RR:   0.000 FEB:  -5.799
USER: RMSD 5.942588
USER: SEED 155
USER: STATUS no improvement in best in 31 clusters for 5 generations
USER: GENES 11
USER: genes 0 Translation |==|  0.68088 0.53172 0.41023
USER: genes 1 Rotation |==|  0.36322 0.80917 0.51201 0.86818
USER: genes 2 Torsion [N]-C--CA-[N] |==|  0.34478
USER: genes 3 Torsion [C]-CA--CB-[CG] |==|  0.87523
USER: genes 4 Torsion [CA]-CB--CG-[CD2] |==|  0.28920
USER: genes 5 Torsion [CE2]-CZ--OH-[HH] |==|  0.75832
USER: genes 6 Torsion [N]-CA--C-[N] |==|  0.39372
USER: genes 7 Torsion [C]-N--CA-[C] |==|  0.74009
USER: genes 8 Torsion [N]-CA--CB-[CG] |==|  0.93513
USER: genes 9 Torsion [CA]-CB--CG-[ND1] |==|  0.35104
USER: genes 10 Torsion [N]-CA--C-[O] |==|  0.04824
ROOT
ATOM      1  C   TYR C  64      15.543  -0.249   5.461  1.00 51.57 LIG 0.26  C 
ATOM      2 O    TYR C  64      14.908  -1.260   5.764  1.00 54.62 LIG-0.27  OA
ATOM      3  N   PRO C  65      16.057  -0.066   4.233  1.00 43.10 LIG-0.34  N 
ATOM      4  CA  PRO C  65      16.721   1.125   3.695  1.00 38.90 LIG 0.18  C 
ATOM      5  CB  PRO C  65      17.818   0.529   2.824  1.00 40.80 LIG 0.04  C 
ATOM      6  CG  PRO C  65      17.212  -0.731   2.311  1.00 42.19 LIG 0.02  C 
ATOM      7  CD  PRO C  65      16.285  -1.244   3.379  1.00 44.37 LIG 0.13  C 
ENDROOT
BRANCH 1 8
ATOM      8  CA  TYR C  64      15.772   0.848   6.498  1.00 49.73 LIG 0.40  C 
ATOM      9  N   TYR C  64      14.481   1.293   7.018  1.00 50.52 LIG 0.61  N 
BRANCH 8 10
ATOM     10  CB  TYR C  64      16.651   0.298   7.628  1.00 50.46 LIG 0.09  C 
BRANCH 10 11
ATOM     11  CG  TYR C  64      16.275  -1.077   8.136  1.00 47.68 LIG-0.06  A 
ATOM     12  CD2 TYR C  64      17.027  -2.191   7.779  1.00 48.34 LIG 0.01  A 
ATOM     13  CE2 TYR C  64      16.697  -3.454   8.234  1.00 49.15 LIG 0.04  A 
ATOM     14  CZ  TYR C  64      15.602  -3.616   9.058  1.00 50.59 LIG 0.07  A 
ATOM     15  CE1 TYR C  64      14.838  -2.527   9.430  1.00 46.73 LIG 0.04  A 
ATOM     16  CD1 TYR C  64      15.177  -1.266   8.970  1.00 46.22 LIG 0.01  A 
BRANCH 14 17
ATOM     17 OH   TYR C  64      15.268  -4.870   9.514  1.00 53.82 LIG-0.36  OA
ATOM     18 HH   TYR C  64      14.770  -5.249   8.952  1.00 53.82 LIG 0.22  HD
ENDBRANCH 14 17
ENDBRANCH 10 11
ENDBRANCH 8 10
ENDBRANCH 1 8
BRANCH 4 19
ATOM     19  C   PRO C  65      15.781   1.963   2.835  1.00 37.07 LIG 0.24  C 
ATOM     20  N   HIS C  66      15.913   3.283   2.950  1.00 40.38 LIG-0.35  N 
ATOM     21 H    HIS C  66      16.460   3.659   3.497  1.00 40.38 LIG 0.16  HD
ATOM     22 O    PRO C  65      14.949   1.408   2.094  1.00 29.28 LIG-0.27  OA
BRANCH 20 23
ATOM     23  CA  HIS C  66      15.136   4.220   2.152  1.00 40.25 LIG 0.17  C 
BRANCH 23 24
ATOM     24  CB  HIS C  66      14.783   5.466   2.976  1.00 42.68 LIG 0.09  C 
BRANCH 24 25
ATOM     25  CG  HIS C  66      14.793   5.239   4.457  1.00 48.80 LIG 0.06  A 
ATOM     26 ND1  HIS C  66      15.526   6.019   5.328  1.00 53.13 LIG-0.24  NA
ATOM     27  CE1 HIS C  66      15.340   5.589   6.563  1.00 55.16 LIG 0.23  A 
ATOM     28 NE2  HIS C  66      14.514   4.559   6.527  1.00 53.86 LIG-0.25  NA
ATOM     29  CD2 HIS C  66      14.158   4.319   5.220  1.00 53.41 LIG 0.14  A 
ENDBRANCH 24 25
ENDBRANCH 23 24
BRANCH 23 30
ATOM     30  C   HIS C  66      15.892   4.630   0.888  1.00 41.89 LIG 0.22  C 
ATOM     31 O    HIS C  66      16.847   3.963   0.482  1.00 44.58 LIG-0.29  OA
ENDBRANCH 23 30
ENDBRANCH 20 23
ENDBRANCH 4 19
TORSDOF 9
ENDMDL
MODEL 119
USER: ADFR SOLUTION from run 13
USER: SCORE 11.019038 LL:  -2.536 LR:  -8.483 RR:   0.000 FEB:  -5.799
USER: RMSD 7.254961
USER: SEED 477809
USER: STATUS no improvement in best in 24 clusters for 5 generations
USER: GENES 11
USER: genes 0 Translation |==|  0.59644 0.44853 0.43208
USER: genes 1 Rotation |==|  0.81855 0.81151 0.72556 0.52473
USER: genes 2 Torsion [N]-C--CA-[N] |==|  0.40236
USER: genes 3 Torsion [C]-CA--CB-[CG] |==|  0.19114
USER: genes 4 Torsion [CA]-CB--CG-[CD2] |==|  0.22331
USER: genes 5 Torsion [CE2]-CZ--OH-[HH] |==|  0.72829
USER: genes 6 Torsion [N]-CA--C-[N] |==|  0.16339
USER: genes 7 Torsion [C]-N--CA-[C] |==|  0.56656
USER: genes 8 Torsion [N]-CA--CB-[CG] |==|  0.13227
USER: genes 9 Torsion [CA]-CB--CG-[ND1] |==|  0.06405
USER: genes 10 Torsion [N]-CA--C-[O] |==|  0.03307
ROOT
ATOM      1  C   TYR C  64      13.959  -1.560   5.854  1.00 51.57 LIG 0.26  C 
ATOM      2 O    TYR C  64      12.807  -1.991   5.910  1.00 54.62 LIG-0.27  OA
ATOM      3  N   PRO C  65      14.333  -0.429   6.477  1.00 43.10 LIG-0.34  N 
ATOM      4  CA  PRO C  65      15.680   0.136   6.603  1.00 38.90 LIG 0.18  C 
ATOM      5  CB  PRO C  65      15.424   1.632   6.488  1.00 40.80 LIG 0.04  C 
ATOM      6  CG  PRO C  65      14.084   1.808   7.113  1.00 42.19 LIG 0.02  C 
ATOM      7  CD  PRO C  65      13.298   0.556   6.836  1.00 44.37 LIG 0.13  C 
ENDROOT
BRANCH 1 8
ATOM      8  CA  TYR C  64      15.019  -2.313   5.054  1.00 49.73 LIG 0.40  C 
ATOM      9  N   TYR C  64      14.776  -3.749   5.171  1.00 50.52 LIG 0.61  N 
BRANCH 8 10
ATOM     10  CB  TYR C  64      14.955  -1.869   3.588  1.00 50.46 LIG 0.09  C 
BRANCH 10 11
ATOM     11  CG  TYR C  64      15.398  -0.448   3.317  1.00 47.68 LIG-0.06  A 
ATOM     12  CD2 TYR C  64      16.750  -0.137   3.223  1.00 48.34 LIG 0.01  A 
ATOM     13  CE2 TYR C  64      17.173   1.156   2.978  1.00 49.15 LIG 0.04  A 
ATOM     14  CZ  TYR C  64      16.237   2.159   2.821  1.00 50.59 LIG 0.07  A 
ATOM     15  CE1 TYR C  64      14.888   1.879   2.908  1.00 46.73 LIG 0.04  A 
ATOM     16  CD1 TYR C  64      14.475   0.580   3.154  1.00 46.22 LIG 0.01  A 
BRANCH 14 17
ATOM     17 OH   TYR C  64      16.651   3.449   2.577  1.00 53.82 LIG-0.36  OA
ATOM     18 HH   TYR C  64      16.653   3.884   3.296  1.00 53.82 LIG 0.22  HD
ENDBRANCH 14 17
ENDBRANCH 10 11
ENDBRANCH 8 10
ENDBRANCH 1 8
BRANCH 4 19
ATOM     19  C   PRO C  65      16.304  -0.174   7.960  1.00 37.07 LIG 0.24  C 
ATOM     20  N   HIS C  66      16.428  -1.467   8.257  1.00 40.38 LIG-0.35  N 
ATOM     21 H    HIS C  66      16.145  -2.100   7.749  1.00 40.38 LIG 0.16  HD
ATOM     22 O    PRO C  65      16.652   0.751   8.715  1.00 29.28 LIG-0.27  OA
BRANCH 20 23
ATOM     23  CA  HIS C  66      17.060  -1.929   9.484  1.00 40.25 LIG 0.17  C 
BRANCH 23 24
ATOM     24  CB  HIS C  66      16.070  -1.870  10.655  1.00 42.68 LIG 0.09  C 
BRANCH 24 25
ATOM     25  CG  HIS C  66      14.730  -2.466  10.350  1.00 48.80 LIG 0.06  A 
ATOM     26 ND1  HIS C  66      14.536  -3.400   9.355  1.00 53.13 LIG-0.24  NA
ATOM     27  CE1 HIS C  66      13.261  -3.744   9.318  1.00 55.16 LIG 0.23  A 
ATOM     28 NE2  HIS C  66      12.619  -3.066  10.253  1.00 53.86 LIG-0.25  NA
ATOM     29  CD2 HIS C  66      13.516  -2.258  10.912  1.00 53.41 LIG 0.14  A 
ENDBRANCH 24 25
ENDBRANCH 23 24
BRANCH 23 30
ATOM     30  C   HIS C  66      17.596  -3.353   9.327  1.00 41.89 LIG 0.22  C 
ATOM     31 O    HIS C  66      17.665  -3.880   8.214  1.00 44.58 LIG-0.29  OA
ENDBRANCH 23 30
ENDBRANCH 20 23
ENDBRANCH 4 19
TORSDOF 9
ENDMDL
MODEL 120
USER: ADFR SOLUTION from run 14
USER: SCORE 10.155698 LL:  -1.700 LR:  -8.456 RR:   0.000 FEB:  -5.771
USER: RMSD 7.386672
USER: SEED 854250
USER: STATUS no improvement in best in 23 clusters for 5 generations
USER: GENES 11
USER: genes 0 Translation |==|  0.69403 0.53676 0.51027
USER: genes 1 Rotation |==|  0.82431 0.32210 0.80763 0.63615
USER: genes 2 Torsion [N]-C--CA-[N] |==|  0.19075
USER: genes 3 Torsion [C]-CA--CB-[CG] |==|  0.46692
USER: genes 4 Torsion [CA]-CB--CG-[CD2] |==|  0.13209
USER: genes 5 Torsion [CE2]-CZ--OH-[HH] |==|  0.53889
USER: genes 6 Torsion [N]-CA--C-[N] |==|  0.87196
USER: genes 7 Torsion [C]-N--CA-[C] |==|  0.16589
USER: genes 8 Torsion [N]-CA--CB-[CG] |==|  0.85037
USER: genes 9 Torsion [CA]-CB--CG-[ND1] |==|  0.21781
USER: genes 10 Torsion [N]-CA--C-[O] |==|  0.42772
ROOT
ATOM      1  C   TYR C  64      15.789  -0.170   7.262  1.00 51.57 LIG 0.26  C 
ATOM      2 O    TYR C  64      15.782   1.061   7.296  1.00 54.62 LIG-0.27  OA
ATOM      3  N   PRO C  65      15.704  -0.919   8.374  1.00 43.10 LIG-0.34  N 
ATOM      4  CA  PRO C  65      15.577  -2.376   8.481  1.00 38.90 LIG 0.18  C 
ATOM      5  CB  PRO C  65      16.429  -2.695   9.702  1.00 40.80 LIG 0.04  C 
ATOM      6  CG  PRO C  65      16.256  -1.498  10.572  1.00 42.19 LIG 0.02  C 
ATOM      7  CD  PRO C  65      16.074  -0.313   9.665  1.00 44.37 LIG 0.13  C 
ENDROOT
BRANCH 1 8
ATOM      8  CA  TYR C  64      15.901  -0.897   5.923  1.00 49.73 LIG 0.40  C 
ATOM      9  N   TYR C  64      14.638  -1.574   5.639  1.00 50.52 LIG 0.61  N 
BRANCH 8 10
ATOM     10  CB  TYR C  64      16.231   0.120   4.824  1.00 50.46 LIG 0.09  C 
BRANCH 10 11
ATOM     11  CG  TYR C  64      16.650  -0.470   3.495  1.00 47.68 LIG-0.06  A 
ATOM     12  CD2 TYR C  64      15.915  -1.499   2.917  1.00 48.34 LIG 0.01  A 
ATOM     13  CE2 TYR C  64      16.284  -2.050   1.704  1.00 49.15 LIG 0.04  A 
ATOM     14  CZ  TYR C  64      17.402  -1.572   1.052  1.00 50.59 LIG 0.07  A 
ATOM     15  CE1 TYR C  64      18.151  -0.550   1.602  1.00 46.73 LIG 0.04  A 
ATOM     16  CD1 TYR C  64      17.772  -0.004   2.817  1.00 46.22 LIG 0.01  A 
BRANCH 14 17
ATOM     17 OH   TYR C  64      17.776  -2.116  -0.155  1.00 53.82 LIG-0.36  OA
ATOM     18 HH   TYR C  64      18.559  -1.874  -0.342  1.00 53.82 LIG 0.22  HD
ENDBRANCH 14 17
ENDBRANCH 10 11
ENDBRANCH 8 10
ENDBRANCH 1 8
BRANCH 4 19
ATOM     19  C   PRO C  65      14.136  -2.805   8.735  1.00 37.07 LIG 0.24  C 
ATOM     20  N   HIS C  66      13.485  -2.121   9.674  1.00 40.38 LIG-0.35  N 
ATOM     21 H    HIS C  66      13.846  -1.499  10.145  1.00 40.38 LIG 0.16  HD
ATOM     22 O    PRO C  65      13.642  -3.749   8.093  1.00 29.28 LIG-0.27  OA
BRANCH 20 23
ATOM     23  CA  HIS C  66      12.085  -2.365   9.991  1.00 40.25 LIG 0.17  C 
BRANCH 23 24
ATOM     24  CB  HIS C  66      11.197  -2.066   8.775  1.00 42.68 LIG 0.09  C 
BRANCH 24 25
ATOM     25  CG  HIS C  66      11.392  -0.695   8.202  1.00 48.80 LIG 0.06  A 
ATOM     26 ND1  HIS C  66      12.458  -0.369   7.390  1.00 53.13 LIG-0.24  NA
ATOM     27  CE1 HIS C  66      12.366   0.901   7.036  1.00 55.16 LIG 0.23  A 
ATOM     28 NE2  HIS C  66      11.280   1.411   7.589  1.00 53.86 LIG-0.25  NA
ATOM     29  CD2 HIS C  66      10.654   0.432   8.325  1.00 53.41 LIG 0.14  A 
ENDBRANCH 24 25
ENDBRANCH 23 24
BRANCH 23 30
ATOM     30  C   HIS C  66      11.866  -3.807  10.452  1.00 41.89 LIG 0.22  C 
ATOM     31 O    HIS C  66      10.923  -4.094  11.193  1.00 44.58 LIG-0.29  OA
ENDBRANCH 23 30
ENDBRANCH 20 23
ENDBRANCH 4 19
TORSDOF 9
ENDMDL
MODEL 121
USER: ADFR SOLUTION from run 5
USER: SCORE 10.350482 LL:  -1.901 LR:  -8.449 RR:   0.000 FEB:  -5.765
USER: RMSD 4.787747
USER: SEED 102169
USER: STATUS no improvement in best in 23 clusters for 5 generations
USER: GENES 11
USER: genes 0 Translation |==|  0.51342 0.40670 0.46365
USER: genes 1 Rotation |==|  0.87482 0.79141 0.41113 0.62919
USER: genes 2 Torsion [N]-C--CA-[N] |==|  0.09985
USER: genes 3 Torsion [C]-CA--CB-[CG] |==|  0.83313
USER: genes 4 Torsion [CA]-CB--CG-[CD2] |==|  0.85713
USER: genes 5 Torsion [CE2]-CZ--OH-[HH] |==|  0.32385
USER: genes 6 Torsion [N]-CA--C-[N] |==|  0.12516
USER: genes 7 Torsion [C]-N--CA-[C] |==|  0.70929
USER: genes 8 Torsion [N]-CA--CB-[CG] |==|  0.88964
USER: genes 9 Torsion [CA]-CB--CG-[ND1] |==|  0.65707
USER: genes 10 Torsion [N]-CA--C-[O] |==|  0.87704
ROOT
ATOM      1  C   TYR C  64      12.403  -2.218   6.423  1.00 51.57 LIG 0.26  C 
ATOM      2 O    TYR C  64      11.628  -1.593   7.148  1.00 54.62 LIG-0.27  OA
ATOM      3  N   PRO C  65      13.134  -1.619   5.468  1.00 43.10 LIG-0.34  N 
ATOM      4  CA  PRO C  65      14.177  -2.204   4.620  1.00 38.90 LIG 0.18  C 
ATOM      5  CB  PRO C  65      13.949  -1.510   3.285  1.00 40.80 LIG 0.04  C 
ATOM      6  CG  PRO C  65      13.464  -0.156   3.672  1.00 42.19 LIG 0.02  C 
ATOM      7  CD  PRO C  65      12.689  -0.312   4.952  1.00 44.37 LIG 0.13  C 
ENDROOT
BRANCH 1 8
ATOM      8  CA  TYR C  64      12.554  -3.729   6.590  1.00 49.73 LIG 0.40  C 
ATOM      9  N   TYR C  64      13.945  -4.101   6.343  1.00 50.52 LIG 0.61  N 
BRANCH 8 10
ATOM     10  CB  TYR C  64      12.131  -4.124   8.010  1.00 50.46 LIG 0.09  C 
BRANCH 10 11
ATOM     11  CG  TYR C  64      12.926  -3.487   9.128  1.00 47.68 LIG-0.06  A 
ATOM     12  CD2 TYR C  64      14.315  -3.543   9.127  1.00 48.34 LIG 0.01  A 
ATOM     13  CE2 TYR C  64      15.057  -2.967  10.141  1.00 49.15 LIG 0.04  A 
ATOM     14  CZ  TYR C  64      14.410  -2.322  11.175  1.00 50.59 LIG 0.07  A 
ATOM     15  CE1 TYR C  64      13.031  -2.249  11.202  1.00 46.73 LIG 0.04  A 
ATOM     16  CD1 TYR C  64      12.297  -2.829  10.181  1.00 46.22 LIG 0.01  A 
BRANCH 14 17
ATOM     17 OH   TYR C  64      15.142  -1.747  12.188  1.00 53.82 LIG-0.36  OA
ATOM     18 HH   TYR C  64      15.017  -0.916  12.188  1.00 53.82 LIG 0.22  HD
ENDBRANCH 14 17
ENDBRANCH 10 11
ENDBRANCH 8 10
ENDBRANCH 1 8
BRANCH 4 19
ATOM     19  C   PRO C  65      15.577  -1.882   5.133  1.00 37.07 LIG 0.24  C 
ATOM     20  N   HIS C  66      15.760  -2.028   6.445  1.00 40.38 LIG-0.35  N 
ATOM     21 H    HIS C  66      15.134  -2.251   6.990  1.00 40.38 LIG 0.16  HD
ATOM     22 O    PRO C  65      16.459  -1.499   4.345  1.00 29.28 LIG-0.27  OA
BRANCH 20 23
ATOM     23  CA  HIS C  66      17.053  -1.822   7.081  1.00 40.25 LIG 0.17  C 
BRANCH 23 24
ATOM     24  CB  HIS C  66      16.903  -0.947   8.333  1.00 42.68 LIG 0.09  C 
BRANCH 24 25
ATOM     25  CG  HIS C  66      15.931   0.182   8.174  1.00 48.80 LIG 0.06  A 
ATOM     26 ND1  HIS C  66      16.276   1.501   8.382  1.00 53.13 LIG-0.24  NA
ATOM     27  CE1 HIS C  66      15.223   2.269   8.167  1.00 55.16 LIG 0.23  A 
ATOM     28 NE2  HIS C  66      14.206   1.497   7.827  1.00 53.86 LIG-0.25  NA
ATOM     29  CD2 HIS C  66      14.623   0.186   7.825  1.00 53.41 LIG 0.14  A 
ENDBRANCH 24 25
ENDBRANCH 23 24
BRANCH 23 30
ATOM     30  C   HIS C  66      17.706  -3.153   7.452  1.00 41.89 LIG 0.22  C 
ATOM     31 O    HIS C  66      17.047  -4.051   7.983  1.00 44.58 LIG-0.29  OA
ENDBRANCH 23 30
ENDBRANCH 20 23
ENDBRANCH 4 19
TORSDOF 9
ENDMDL
MODEL 122
USER: ADFR SOLUTION from run 25
USER: SCORE 11.155763 LL:  -2.717 LR:  -8.439 RR:   0.000 FEB:  -5.754
USER: RMSD 6.628187
USER: SEED 24
USER: STATUS no improvement in best in 20 clusters for 5 generations
USER: GENES 11
USER: genes 0 Translation |==|  0.61146 0.38278 0.45009
USER: genes 1 Rotation |==|  0.33640 0.07354 0.31317 0.58040
USER: genes 2 Torsion [N]-C--CA-[N] |==|  0.82988
USER: genes 3 Torsion [C]-CA--CB-[CG] |==|  0.22427
USER: genes 4 Torsion [CA]-CB--CG-[CD2] |==|  0.82401
USER: genes 5 Torsion [CE2]-CZ--OH-[HH] |==|  0.68327
USER: genes 6 Torsion [N]-CA--C-[N] |==|  0.03739
USER: genes 7 Torsion [C]-N--CA-[C] |==|  0.75212
USER: genes 8 Torsion [N]-CA--CB-[CG] |==|  0.97387
USER: genes 9 Torsion [CA]-CB--CG-[ND1] |==|  0.22473
USER: genes 10 Torsion [N]-CA--C-[O] |==|  0.17024
ROOT
ATOM      1  C   TYR C  64      14.241  -2.595   6.179  1.00 51.57 LIG 0.26  C 
ATOM      2 O    TYR C  64      13.862  -3.749   6.381  1.00 54.62 LIG-0.27  OA
ATOM      3  N   PRO C  65      13.634  -1.533   6.734  1.00 43.10 LIG-0.34  N 
ATOM      4  CA  PRO C  65      14.042  -0.125   6.686  1.00 38.90 LIG 0.18  C 
ATOM      5  CB  PRO C  65      12.710   0.603   6.579  1.00 40.80 LIG 0.04  C 
ATOM      6  CG  PRO C  65      11.777  -0.256   7.361  1.00 42.19 LIG 0.02  C 
ATOM      7  CD  PRO C  65      12.244  -1.676   7.201  1.00 44.37 LIG 0.13  C 
ENDROOT
BRANCH 1 8
ATOM      8  CA  TYR C  64      15.437  -2.333   5.267  1.00 49.73 LIG 0.40  C 
ATOM      9  N   TYR C  64      15.005  -1.525   4.129  1.00 50.52 LIG 0.61  N 
BRANCH 8 10
ATOM     10  CB  TYR C  64      16.530  -1.609   6.063  1.00 50.46 LIG 0.09  C 
BRANCH 10 11
ATOM     11  CG  TYR C  64      17.395  -2.493   6.934  1.00 47.68 LIG-0.06  A 
ATOM     12  CD2 TYR C  64      16.839  -3.202   7.993  1.00 48.34 LIG 0.01  A 
ATOM     13  CE2 TYR C  64      17.616  -4.013   8.799  1.00 49.15 LIG 0.04  A 
ATOM     14  CZ  TYR C  64      18.969  -4.124   8.550  1.00 50.59 LIG 0.07  A 
ATOM     15  CE1 TYR C  64      19.548  -3.432   7.505  1.00 46.73 LIG 0.04  A 
ATOM     16  CD1 TYR C  64      18.761  -2.623   6.703  1.00 46.22 LIG 0.01  A 
BRANCH 14 17
ATOM     17 OH   TYR C  64      19.748  -4.929   9.349  1.00 53.82 LIG-0.36  OA
ATOM     18 HH   TYR C  64      20.293  -4.455   9.779  1.00 53.82 LIG 0.22  HD
ENDBRANCH 14 17
ENDBRANCH 10 11
ENDBRANCH 8 10
ENDBRANCH 1 8
BRANCH 4 19
ATOM     19  C   PRO C  65      14.761   0.304   7.960  1.00 37.07 LIG 0.24  C 
ATOM     20  N   HIS C  66      15.151  -0.683   8.765  1.00 40.38 LIG-0.35  N 
ATOM     21 H    HIS C  66      14.983  -1.512   8.614  1.00 40.38 LIG 0.16  HD
ATOM     22 O    PRO C  65      14.942   1.511   8.200  1.00 29.28 LIG-0.27  OA
BRANCH 20 23
ATOM     23  CA  HIS C  66      15.904  -0.443   9.987  1.00 40.25 LIG 0.17  C 
BRANCH 23 24
ATOM     24  CB  HIS C  66      15.560  -1.499  11.047  1.00 42.68 LIG 0.09  C 
BRANCH 24 25
ATOM     25  CG  HIS C  66      14.398  -2.372  10.682  1.00 48.80 LIG 0.06  A 
ATOM     26 ND1  HIS C  66      14.515  -3.456   9.837  1.00 53.13 LIG-0.24  NA
ATOM     27  CE1 HIS C  66      13.334  -4.035   9.702  1.00 55.16 LIG 0.23  A 
ATOM     28 NE2  HIS C  66      12.456  -3.366  10.428  1.00 53.86 LIG-0.25  NA
ATOM     29  CD2 HIS C  66      13.097  -2.320  11.050  1.00 53.41 LIG 0.14  A 
ENDBRANCH 24 25
ENDBRANCH 23 24
BRANCH 23 30
ATOM     30  C   HIS C  66      17.409  -0.447   9.719  1.00 41.89 LIG 0.22  C 
ATOM     31 O    HIS C  66      17.914   0.376   8.952  1.00 44.58 LIG-0.29  OA
ENDBRANCH 23 30
ENDBRANCH 20 23
ENDBRANCH 4 19
TORSDOF 9
ENDMDL
MODEL 123
USER: ADFR SOLUTION from run 95
USER: SCORE 10.658106 LL:  -2.232 LR:  -8.426 RR:   0.000 FEB:  -5.741
USER: RMSD 7.508166
USER: SEED 94
USER: STATUS no improvement in best in 22 clusters for 5 generations
USER: GENES 11
USER: genes 0 Translation |==|  0.68784 0.55745 0.46274
USER: genes 1 Rotation |==|  0.87688 0.21021 0.48755 0.65436
USER: genes 2 Torsion [N]-C--CA-[N] |==|  0.32398
USER: genes 3 Torsion [C]-CA--CB-[CG] |==|  0.14995
USER: genes 4 Torsion [CA]-CB--CG-[CD2] |==|  0.13449
USER: genes 5 Torsion [CE2]-CZ--OH-[HH] |==|  0.38455
USER: genes 6 Torsion [N]-CA--C-[N] |==|  0.69877
USER: genes 7 Torsion [C]-N--CA-[C] |==|  0.16839
USER: genes 8 Torsion [N]-CA--CB-[CG] |==|  0.92286
USER: genes 9 Torsion [CA]-CB--CG-[ND1] |==|  0.37033
USER: genes 10 Torsion [N]-CA--C-[O] |==|  0.66879
ROOT
ATOM      1  C   TYR C  64      15.673   0.156   6.406  1.00 51.57 LIG 0.26  C 
ATOM      2 O    TYR C  64      16.651   0.794   6.797  1.00 54.62 LIG-0.27  OA
ATOM      3  N   PRO C  65      15.530  -1.159   6.647  1.00 43.10 LIG-0.34  N 
ATOM      4  CA  PRO C  65      14.377  -2.016   6.356  1.00 38.90 LIG 0.18  C 
ATOM      5  CB  PRO C  65      15.033  -3.323   5.935  1.00 40.80 LIG 0.04  C 
ATOM      6  CG  PRO C  65      16.274  -3.374   6.757  1.00 42.19 LIG 0.02  C 
ATOM      7  CD  PRO C  65      16.730  -1.955   6.957  1.00 44.37 LIG 0.13  C 
ENDROOT
BRANCH 1 8
ATOM      8  CA  TYR C  64      14.571   0.857   5.616  1.00 49.73 LIG 0.40  C 
ATOM      9  N   TYR C  64      13.942   1.868   6.463  1.00 50.52 LIG 0.61  N 
BRANCH 8 10
ATOM     10  CB  TYR C  64      15.179   1.500   4.364  1.00 50.46 LIG 0.09  C 
BRANCH 10 11
ATOM     11  CG  TYR C  64      15.979   0.571   3.476  1.00 47.68 LIG-0.06  A 
ATOM     12  CD2 TYR C  64      15.460  -0.662   3.097  1.00 48.34 LIG 0.01  A 
ATOM     13  CE2 TYR C  64      16.177  -1.523   2.288  1.00 49.15 LIG 0.04  A 
ATOM     14  CZ  TYR C  64      17.431  -1.154   1.846  1.00 50.59 LIG 0.07  A 
ATOM     15  CE1 TYR C  64      17.971   0.065   2.205  1.00 46.73 LIG 0.04  A 
ATOM     16  CD1 TYR C  64      17.244   0.921   3.016  1.00 46.22 LIG 0.01  A 
BRANCH 14 17
ATOM     17 OH   TYR C  64      18.151  -2.007   1.040  1.00 53.82 LIG-0.36  OA
ATOM     18 HH   TYR C  64      18.526  -1.567   0.430  1.00 53.82 LIG 0.22  HD
ENDBRANCH 14 17
ENDBRANCH 10 11
ENDBRANCH 8 10
ENDBRANCH 1 8
BRANCH 4 19
ATOM     19  C   PRO C  65      13.514  -2.249   7.591  1.00 37.07 LIG 0.24  C 
ATOM     20  N   HIS C  66      13.570  -3.473   8.113  1.00 40.38 LIG-0.35  N 
ATOM     21 H    HIS C  66      14.026  -4.116   7.769  1.00 40.38 LIG 0.16  HD
ATOM     22 O    PRO C  65      12.807  -1.330   8.043  1.00 29.28 LIG-0.27  OA
BRANCH 20 23
ATOM     23  CA  HIS C  66      12.855  -3.839   9.327  1.00 40.25 LIG 0.17  C 
BRANCH 23 24
ATOM     24  CB  HIS C  66      13.346  -2.999  10.515  1.00 42.68 LIG 0.09  C 
BRANCH 24 25
ATOM     25  CG  HIS C  66      14.765  -2.534  10.385  1.00 48.80 LIG 0.06  A 
ATOM     26 ND1  HIS C  66      15.152  -1.235  10.638  1.00 53.13 LIG-0.24  NA
ATOM     27  CE1 HIS C  66      16.454  -1.120  10.446  1.00 55.16 LIG 0.23  A 
ATOM     28 NE2  HIS C  66      16.926  -2.297  10.077  1.00 53.86 LIG-0.25  NA
ATOM     29  CD2 HIS C  66      15.889  -3.199  10.031  1.00 53.41 LIG 0.14  A 
ENDBRANCH 24 25
ENDBRANCH 23 24
BRANCH 23 30
ATOM     30  C   HIS C  66      11.346  -3.662   9.155  1.00 41.89 LIG 0.22  C 
ATOM     31 O    HIS C  66      10.718  -2.880   9.873  1.00 44.58 LIG-0.29  OA
ENDBRANCH 23 30
ENDBRANCH 20 23
ENDBRANCH 4 19
TORSDOF 9
ENDMDL
MODEL 124
USER: ADFR SOLUTION from run 193
USER: SCORE 10.274715 LL:  -1.854 LR:  -8.420 RR:   0.000 FEB:  -5.736
USER: RMSD 4.081083
USER: SEED 192
USER: STATUS no improvement in best in 29 clusters for 5 generations
USER: GENES 11
USER: genes 0 Translation |==|  0.48261 0.39005 0.61851
USER: genes 1 Rotation |==|  0.18295 0.13829 0.63586 0.51365
USER: genes 2 Torsion [N]-C--CA-[N] |==|  0.38086
USER: genes 3 Torsion [C]-CA--CB-[CG] |==|  0.87592
USER: genes 4 Torsion [CA]-CB--CG-[CD2] |==|  0.76825
USER: genes 5 Torsion [CE2]-CZ--OH-[HH] |==|  0.43921
USER: genes 6 Torsion [N]-CA--C-[N] |==|  0.01888
USER: genes 7 Torsion [C]-N--CA-[C] |==|  0.50581
USER: genes 8 Torsion [N]-CA--CB-[CG] |==|  0.19184
USER: genes 9 Torsion [CA]-CB--CG-[ND1] |==|  0.85880
USER: genes 10 Torsion [N]-CA--C-[O] |==|  0.48578
ROOT
ATOM      1  C   TYR C  64      11.825  -2.481   9.210  1.00 51.57 LIG 0.26  C 
ATOM      2 O    TYR C  64      11.563  -2.278  10.396  1.00 54.62 LIG-0.27  OA
ATOM      3  N   PRO C  65      11.805  -1.499   8.293  1.00 43.10 LIG-0.34  N 
ATOM      4  CA  PRO C  65      12.210  -1.562   6.885  1.00 38.90 LIG 0.18  C 
ATOM      5  CB  PRO C  65      11.184  -0.666   6.204  1.00 40.80 LIG 0.04  C 
ATOM      6  CG  PRO C  65      10.892   0.374   7.229  1.00 42.19 LIG 0.02  C 
ATOM      7  CD  PRO C  65      11.025  -0.282   8.576  1.00 44.37 LIG 0.13  C 
ENDROOT
BRANCH 1 8
ATOM      8  CA  TYR C  64      12.184  -3.888   8.737  1.00 49.73 LIG 0.40  C 
ATOM      9  N   TYR C  64      13.096  -4.499   9.701  1.00 50.52 LIG 0.61  N 
BRANCH 8 10
ATOM     10  CB  TYR C  64      10.902  -4.717   8.602  1.00 50.46 LIG 0.09  C 
BRANCH 10 11
ATOM     11  CG  TYR C  64       9.920  -4.590   9.746  1.00 47.68 LIG-0.06  A 
ATOM     12  CD2 TYR C  64      10.076  -5.352  10.898  1.00 48.34 LIG 0.01  A 
ATOM     13  CE2 TYR C  64       9.188  -5.249  11.952  1.00 49.15 LIG 0.04  A 
ATOM     14  CZ  TYR C  64       8.125  -4.373  11.863  1.00 50.59 LIG 0.07  A 
ATOM     15  CE1 TYR C  64       7.946  -3.602  10.731  1.00 46.73 LIG 0.04  A 
ATOM     16  CD1 TYR C  64       8.842  -3.712   9.681  1.00 46.22 LIG 0.01  A 
BRANCH 14 17
ATOM     17 OH   TYR C  64       7.237  -4.265  12.908  1.00 53.82 LIG-0.36  OA
ATOM     18 HH   TYR C  64       6.841  -3.525  12.865  1.00 53.82 LIG 0.22  HD
ENDBRANCH 14 17
ENDBRANCH 10 11
ENDBRANCH 8 10
ENDBRANCH 1 8
BRANCH 4 19
ATOM     19  C   PRO C  65      13.610  -0.997   6.668  1.00 37.07 LIG 0.24  C 
ATOM     20  N   HIS C  66      14.283  -0.678   7.772  1.00 40.38 LIG-0.35  N 
ATOM     21 H    HIS C  66      13.954  -0.743   8.563  1.00 40.38 LIG 0.16  HD
ATOM     22 O    PRO C  65      14.052  -0.848   5.514  1.00 29.28 LIG-0.27  OA
BRANCH 20 23
ATOM     23  CA  HIS C  66      15.653  -0.187   7.737  1.00 40.25 LIG 0.17  C 
BRANCH 23 24
ATOM     24  CB  HIS C  66      15.739   1.111   6.922  1.00 42.68 LIG 0.09  C 
BRANCH 24 25
ATOM     25  CG  HIS C  66      15.074   2.285   7.575  1.00 48.80 LIG 0.06  A 
ATOM     26 ND1  HIS C  66      13.782   2.240   8.056  1.00 53.13 LIG-0.24  NA
ATOM     27  CE1 HIS C  66      13.468   3.413   8.577  1.00 55.16 LIG 0.23  A 
ATOM     28 NE2  HIS C  66      14.508   4.217   8.452  1.00 53.86 LIG-0.25  NA
ATOM     29  CD2 HIS C  66      15.526   3.535   7.827  1.00 53.41 LIG 0.14  A 
ENDBRANCH 24 25
ENDBRANCH 23 24
BRANCH 23 30
ATOM     30  C   HIS C  66      16.191   0.049   9.149  1.00 41.89 LIG 0.22  C 
ATOM     31 O    HIS C  66      17.367   0.376   9.327  1.00 44.58 LIG-0.29  OA
ENDBRANCH 23 30
ENDBRANCH 20 23
ENDBRANCH 4 19
TORSDOF 9
ENDMDL
MODEL 125
USER: ADFR SOLUTION from run 193
USER: SCORE 9.973717 LL:  -1.566 LR:  -8.407 RR:   0.000 FEB:  -5.723
USER: RMSD 2.337289
USER: SEED 192
USER: STATUS no improvement in best in 29 clusters for 5 generations
USER: GENES 11
USER: genes 0 Translation |==|  0.68965 0.35707 0.52296
USER: genes 1 Rotation |==|  0.45372 0.33899 0.61155 0.95770
USER: genes 2 Torsion [N]-C--CA-[N] |==|  0.46963
USER: genes 3 Torsion [C]-CA--CB-[CG] |==|  0.36664
USER: genes 4 Torsion [CA]-CB--CG-[CD2] |==|  0.48939
USER: genes 5 Torsion [CE2]-CZ--OH-[HH] |==|  0.61882
USER: genes 6 Torsion [N]-CA--C-[N] |==|  0.23839
USER: genes 7 Torsion [C]-N--CA-[C] |==|  0.72222
USER: genes 8 Torsion [N]-CA--CB-[CG] |==|  0.51278
USER: genes 9 Torsion [CA]-CB--CG-[ND1] |==|  0.54299
USER: genes 10 Torsion [N]-CA--C-[O] |==|  0.07477
ROOT
ATOM      1  C   TYR C  64      15.707  -3.000   7.490  1.00 51.57 LIG 0.26  C 
ATOM      2 O    TYR C  64      16.497  -3.731   6.893  1.00 54.62 LIG-0.27  OA
ATOM      3  N   PRO C  65      16.116  -2.055   8.354  1.00 43.10 LIG-0.34  N 
ATOM      4  CA  PRO C  65      15.310  -1.039   9.038  1.00 38.90 LIG 0.18  C 
ATOM      5  CB  PRO C  65      15.966  -0.963  10.409  1.00 40.80 LIG 0.04  C 
ATOM      6  CG  PRO C  65      17.403  -1.234  10.126  1.00 42.19 LIG 0.02  C 
ATOM      7  CD  PRO C  65      17.453  -2.181   8.959  1.00 44.37 LIG 0.13  C 
ENDROOT
BRANCH 1 8
ATOM      8  CA  TYR C  64      14.204  -3.154   7.265  1.00 49.73 LIG 0.40  C 
ATOM      9  N   TYR C  64      13.979  -4.034   6.120  1.00 50.52 LIG 0.61  N 
BRANCH 8 10
ATOM     10  CB  TYR C  64      13.561  -3.735   8.530  1.00 50.46 LIG 0.09  C 
BRANCH 10 11
ATOM     11  CG  TYR C  64      12.320  -3.019   9.017  1.00 47.68 LIG-0.06  A 
ATOM     12  CD2 TYR C  64      11.609  -3.505  10.109  1.00 48.34 LIG 0.01  A 
ATOM     13  CE2 TYR C  64      10.473  -2.865  10.567  1.00 49.15 LIG 0.04  A 
ATOM     14  CZ  TYR C  64      10.034  -1.721   9.931  1.00 50.59 LIG 0.07  A 
ATOM     15  CE1 TYR C  64      10.722  -1.215   8.845  1.00 46.73 LIG 0.04  A 
ATOM     16  CD1 TYR C  64      11.859  -1.864   8.395  1.00 46.22 LIG 0.01  A 
BRANCH 14 17
ATOM     17 OH   TYR C  64       8.903  -1.078  10.381  1.00 53.82 LIG-0.36  OA
ATOM     18 HH   TYR C  64       8.433  -0.847   9.725  1.00 53.82 LIG 0.22  HD
ENDBRANCH 14 17
ENDBRANCH 10 11
ENDBRANCH 8 10
ENDBRANCH 1 8
BRANCH 4 19
ATOM     19  C   PRO C  65      15.400   0.319   8.350  1.00 37.07 LIG 0.24  C 
ATOM     20  N   HIS C  66      14.548   0.516   7.345  1.00 40.38 LIG-0.35  N 
ATOM     21 H    HIS C  66      14.002  -0.084   7.061  1.00 40.38 LIG 0.16  HD
ATOM     22 O    PRO C  65      16.238   1.157   8.727  1.00 29.28 LIG-0.27  OA
BRANCH 20 23
ATOM     23  CA  HIS C  66      14.464   1.780   6.628  1.00 40.25 LIG 0.17  C 
BRANCH 23 24
ATOM     24  CB  HIS C  66      14.335   1.535   5.118  1.00 42.68 LIG 0.09  C 
BRANCH 24 25
ATOM     25  CG  HIS C  66      14.352   2.787   4.295  1.00 48.80 LIG 0.06  A 
ATOM     26 ND1  HIS C  66      13.944   2.821   2.978  1.00 53.13 LIG-0.24  NA
ATOM     27  CE1 HIS C  66      14.067   4.052   2.513  1.00 55.16 LIG 0.23  A 
ATOM     28 NE2  HIS C  66      14.540   4.818   3.480  1.00 53.86 LIG-0.25  NA
ATOM     29  CD2 HIS C  66      14.728   4.049   4.605  1.00 53.41 LIG 0.14  A 
ENDBRANCH 24 25
ENDBRANCH 23 24
BRANCH 23 30
ATOM     30  C   HIS C  66      13.285   2.618   7.121  1.00 41.89 LIG 0.22  C 
ATOM     31 O    HIS C  66      12.858   2.489   8.271  1.00 44.58 LIG-0.29  OA
ENDBRANCH 23 30
ENDBRANCH 20 23
ENDBRANCH 4 19
TORSDOF 9
ENDMDL
MODEL 126
USER: ADFR SOLUTION from run 186
USER: SCORE 10.313560 LL:  -1.906 LR:  -8.408 RR:   0.000 FEB:  -5.723
USER: RMSD 5.249485
USER: SEED 185
USER: STATUS no improvement in best in 28 clusters for 5 generations
USER: GENES 11
USER: genes 0 Translation |==|  0.61695 0.62369 0.50132
USER: genes 1 Rotation |==|  0.46093 0.86669 0.24400 0.72016
USER: genes 2 Torsion [N]-C--CA-[N] |==|  0.34961
USER: genes 3 Torsion [C]-CA--CB-[CG] |==|  0.14289
USER: genes 4 Torsion [CA]-CB--CG-[CD2] |==|  0.62483
USER: genes 5 Torsion [CE2]-CZ--OH-[HH] |==|  0.30151
USER: genes 6 Torsion [N]-CA--C-[N] |==|  0.22630
USER: genes 7 Torsion [C]-N--CA-[C] |==|  0.15269
USER: genes 8 Torsion [N]-CA--CB-[CG] |==|  0.96230
USER: genes 9 Torsion [CA]-CB--CG-[ND1] |==|  0.33529
USER: genes 10 Torsion [N]-CA--C-[O] |==|  0.12665
ROOT
ATOM      1  C   TYR C  64      14.344   1.199   7.101  1.00 51.57 LIG 0.26  C 
ATOM      2 O    TYR C  64      13.458   1.597   7.858  1.00 54.62 LIG-0.27  OA
ATOM      3  N   PRO C  65      14.083   0.419   6.038  1.00 43.10 LIG-0.34  N 
ATOM      4  CA  PRO C  65      15.005  -0.026   4.989  1.00 38.90 LIG 0.18  C 
ATOM      5  CB  PRO C  65      14.534  -1.447   4.713  1.00 40.80 LIG 0.04  C 
ATOM      6  CG  PRO C  65      13.064  -1.380   4.943  1.00 42.19 LIG 0.02  C 
ATOM      7  CD  PRO C  65      12.831  -0.357   6.021  1.00 44.37 LIG 0.13  C 
ENDROOT
BRANCH 1 8
ATOM      8  CA  TYR C  64      15.799   1.587   7.357  1.00 49.73 LIG 0.40  C 
ATOM      9  N   TYR C  64      15.897   3.041   7.452  1.00 50.52 LIG 0.61  N 
BRANCH 8 10
ATOM     10  CB  TYR C  64      16.276   0.925   8.655  1.00 50.46 LIG 0.09  C 
BRANCH 10 11
ATOM     11  CG  TYR C  64      16.037  -0.566   8.752  1.00 47.68 LIG-0.06  A 
ATOM     12  CD2 TYR C  64      15.526  -1.124   9.919  1.00 48.34 LIG 0.01  A 
ATOM     13  CE2 TYR C  64      15.303  -2.484  10.024  1.00 49.15 LIG 0.04  A 
ATOM     14  CZ  TYR C  64      15.591  -3.306   8.954  1.00 50.59 LIG 0.07  A 
ATOM     15  CE1 TYR C  64      16.098  -2.780   7.782  1.00 46.73 LIG 0.04  A 
ATOM     16  CD1 TYR C  64      16.318  -1.415   7.686  1.00 46.22 LIG 0.01  A 
BRANCH 14 17
ATOM     17 OH   TYR C  64      15.372  -4.661   9.053  1.00 53.82 LIG-0.36  OA
ATOM     18 HH   TYR C  64      14.712  -4.874   8.577  1.00 53.82 LIG 0.22  HD
ENDBRANCH 14 17
ENDBRANCH 10 11
ENDBRANCH 8 10
ENDBRANCH 1 8
BRANCH 4 19
ATOM     19  C   PRO C  65      14.875   0.813   3.721  1.00 37.07 LIG 0.24  C 
ATOM     20  N   HIS C  66      15.525   1.975   3.728  1.00 40.38 LIG-0.35  N 
ATOM     21 H    HIS C  66      15.963   2.271   4.406  1.00 40.38 LIG 0.16  HD
ATOM     22 O    PRO C  65      14.186   0.405   2.770  1.00 29.28 LIG-0.27  OA
BRANCH 20 23
ATOM     23  CA  HIS C  66      15.553   2.862   2.574  1.00 40.25 LIG 0.17  C 
BRANCH 23 24
ATOM     24  CB  HIS C  66      16.343   2.222   1.423  1.00 42.68 LIG 0.09  C 
BRANCH 24 25
ATOM     25  CG  HIS C  66      17.155   1.031   1.831  1.00 48.80 LIG 0.06  A 
ATOM     26 ND1  HIS C  66      16.978  -0.220   1.278  1.00 53.13 LIG-0.24  NA
ATOM     27  CE1 HIS C  66      17.831  -1.066   1.826  1.00 55.16 LIG 0.23  A 
ATOM     28 NE2  HIS C  66      18.556  -0.411   2.716  1.00 53.86 LIG-0.25  NA
ATOM     29  CD2 HIS C  66      18.151   0.903   2.738  1.00 53.41 LIG 0.14  A 
ENDBRANCH 24 25
ENDBRANCH 23 24
BRANCH 23 30
ATOM     30  C   HIS C  66      14.138   3.204   2.105  1.00 41.89 LIG 0.22  C 
ATOM     31 O    HIS C  66      13.267   3.527   2.917  1.00 44.58 LIG-0.29  OA
ENDBRANCH 23 30
ENDBRANCH 20 23
ENDBRANCH 4 19
TORSDOF 9
ENDMDL
MODEL 127
USER: ADFR SOLUTION from run 147
USER: SCORE 10.204320 LL:  -1.805 LR:  -8.399 RR:   0.000 FEB:  -5.715
USER: RMSD 6.722379
USER: SEED 146
USER: STATUS no improvement in best in 33 clusters for 5 generations
USER: GENES 11
USER: genes 0 Translation |==|  0.66623 0.39548 0.50596
USER: genes 1 Rotation |==|  0.58860 0.12977 0.72501 0.73334
USER: genes 2 Torsion [N]-C--CA-[N] |==|  0.89312
USER: genes 3 Torsion [C]-CA--CB-[CG] |==|  0.30116
USER: genes 4 Torsion [CA]-CB--CG-[CD2] |==|  0.74601
USER: genes 5 Torsion [CE2]-CZ--OH-[HH] |==|  0.39670
USER: genes 6 Torsion [N]-CA--C-[N] |==|  0.82060
USER: genes 7 Torsion [C]-N--CA-[C] |==|  0.18070
USER: genes 8 Torsion [N]-CA--CB-[CG] |==|  0.87353
USER: genes 9 Torsion [CA]-CB--CG-[ND1] |==|  0.80744
USER: genes 10 Torsion [N]-CA--C-[O] |==|  0.14887
ROOT
ATOM      1  C   TYR C  64      15.268  -2.395   7.184  1.00 51.57 LIG 0.26  C 
ATOM      2 O    TYR C  64      16.351  -1.989   7.605  1.00 54.62 LIG-0.27  OA
ATOM      3  N   PRO C  65      14.147  -2.344   7.923  1.00 43.10 LIG-0.34  N 
ATOM      4  CA  PRO C  65      12.776  -2.671   7.519  1.00 38.90 LIG 0.18  C 
ATOM      5  CB  PRO C  65      12.210  -3.332   8.768  1.00 40.80 LIG 0.04  C 
ATOM      6  CG  PRO C  65      12.899  -2.624   9.882  1.00 42.19 LIG 0.02  C 
ATOM      7  CD  PRO C  65      14.269  -2.249   9.389  1.00 44.37 LIG 0.13  C 
ENDROOT
BRANCH 1 8
ATOM      8  CA  TYR C  64      15.166  -2.986   5.780  1.00 49.73 LIG 0.40  C 
ATOM      9  N   TYR C  64      14.251  -4.124   5.803  1.00 50.52 LIG 0.61  N 
BRANCH 8 10
ATOM     10  CB  TYR C  64      14.664  -1.905   4.814  1.00 50.46 LIG 0.09  C 
BRANCH 10 11
ATOM     11  CG  TYR C  64      15.692  -1.373   3.840  1.00 47.68 LIG-0.06  A 
ATOM     12  CD2 TYR C  64      16.458  -0.258   4.162  1.00 48.34 LIG 0.01  A 
ATOM     13  CE2 TYR C  64      17.401   0.242   3.284  1.00 49.15 LIG 0.04  A 
ATOM     14  CZ  TYR C  64      17.588  -0.375   2.063  1.00 50.59 LIG 0.07  A 
ATOM     15  CE1 TYR C  64      16.843  -1.485   1.717  1.00 46.73 LIG 0.04  A 
ATOM     16  CD1 TYR C  64      15.901  -1.978   2.604  1.00 46.22 LIG 0.01  A 
BRANCH 14 17
ATOM     17 OH   TYR C  64      18.525   0.118   1.184  1.00 53.82 LIG-0.36  OA
ATOM     18 HH   TYR C  64      18.901  -0.521   0.787  1.00 53.82 LIG 0.22  HD
ENDBRANCH 14 17
ENDBRANCH 10 11
ENDBRANCH 8 10
ENDBRANCH 1 8
BRANCH 4 19
ATOM     19  C   PRO C  65      11.965  -1.423   7.187  1.00 37.07 LIG 0.24  C 
ATOM     20  N   HIS C  66      11.746  -0.589   8.202  1.00 40.38 LIG-0.35  N 
ATOM     21 H    HIS C  66      12.003  -0.744   9.008  1.00 40.38 LIG 0.16  HD
ATOM     22 O    PRO C  65      11.544  -1.239   6.031  1.00 29.28 LIG-0.27  OA
BRANCH 20 23
ATOM     23  CA  HIS C  66      11.045   0.676   8.037  1.00 40.25 LIG 0.17  C 
BRANCH 23 24
ATOM     24  CB  HIS C  66      11.750   1.550   6.990  1.00 42.68 LIG 0.09  C 
BRANCH 24 25
ATOM     25  CG  HIS C  66      13.239   1.608   7.148  1.00 48.80 LIG 0.06  A 
ATOM     26 ND1  HIS C  66      13.854   2.251   8.202  1.00 53.13 LIG-0.24  NA
ATOM     27  CE1 HIS C  66      15.164   2.136   8.081  1.00 55.16 LIG 0.23  A 
ATOM     28 NE2  HIS C  66      15.423   1.441   6.987  1.00 53.86 LIG-0.25  NA
ATOM     29  CD2 HIS C  66      14.234   1.101   6.385  1.00 53.41 LIG 0.14  A 
ENDBRANCH 24 25
ENDBRANCH 23 24
BRANCH 23 30
ATOM     30  C   HIS C  66       9.588   0.452   7.631  1.00 41.89 LIG 0.22  C 
ATOM     31 O    HIS C  66       8.854  -0.282   8.298  1.00 44.58 LIG-0.29  OA
ENDBRANCH 23 30
ENDBRANCH 20 23
ENDBRANCH 4 19
TORSDOF 9
ENDMDL
MODEL 128
USER: ADFR SOLUTION from run 153
USER: SCORE 10.544677 LL:  -2.150 LR:  -8.395 RR:   0.000 FEB:  -5.710
USER: RMSD 5.874249
USER: SEED 152
USER: STATUS no improvement in best in 44 clusters for 5 generations
USER: GENES 11
USER: genes 0 Translation |==|  0.53646 0.38394 0.64541
USER: genes 1 Rotation |==|  0.65097 0.90428 0.31687 0.67387
USER: genes 2 Torsion [N]-C--CA-[N] |==|  0.88136
USER: genes 3 Torsion [C]-CA--CB-[CG] |==|  0.65635
USER: genes 4 Torsion [CA]-CB--CG-[CD2] |==|  0.34927
USER: genes 5 Torsion [CE2]-CZ--OH-[HH] |==|  0.65963
USER: genes 6 Torsion [N]-CA--C-[N] |==|  0.06951
USER: genes 7 Torsion [C]-N--CA-[C] |==|  0.58350
USER: genes 8 Torsion [N]-CA--CB-[CG] |==|  0.06230
USER: genes 9 Torsion [CA]-CB--CG-[ND1] |==|  0.21877
USER: genes 10 Torsion [N]-CA--C-[O] |==|  0.14230
ROOT
ATOM      1  C   TYR C  64      12.835  -2.577   9.694  1.00 51.57 LIG 0.26  C 
ATOM      2 O    TYR C  64      12.025  -2.222  10.551  1.00 54.62 LIG-0.27  OA
ATOM      3  N   PRO C  65      12.607  -2.415   8.380  1.00 43.10 LIG-0.34  N 
ATOM      4  CA  PRO C  65      13.518  -2.672   7.261  1.00 38.90 LIG 0.18  C 
ATOM      5  CB  PRO C  65      12.586  -3.229   6.195  1.00 40.80 LIG 0.04  C 
ATOM      6  CG  PRO C  65      11.304  -2.512   6.439  1.00 42.19 LIG 0.02  C 
ATOM      7  CD  PRO C  65      11.217  -2.253   7.918  1.00 44.37 LIG 0.13  C 
ENDROOT
BRANCH 1 8
ATOM      8  CA  TYR C  64      14.150  -3.231  10.111  1.00 49.73 LIG 0.40  C 
ATOM      9  N   TYR C  64      14.420  -4.368   9.234  1.00 50.52 LIG 0.61  N 
BRANCH 8 10
ATOM     10  CB  TYR C  64      15.279  -2.196  10.020  1.00 50.46 LIG 0.09  C 
BRANCH 10 11
ATOM     11  CG  TYR C  64      16.446  -2.581   9.138  1.00 47.68 LIG-0.06  A 
ATOM     12  CD2 TYR C  64      16.863  -1.740   8.113  1.00 48.34 LIG 0.01  A 
ATOM     13  CE2 TYR C  64      17.927  -2.077   7.298  1.00 49.15 LIG 0.04  A 
ATOM     14  CZ  TYR C  64      18.591  -3.269   7.503  1.00 50.59 LIG 0.07  A 
ATOM     15  CE1 TYR C  64      18.200  -4.124   8.515  1.00 46.73 LIG 0.04  A 
ATOM     16  CD1 TYR C  64      17.133  -3.777   9.327  1.00 46.22 LIG 0.01  A 
BRANCH 14 17
ATOM     17 OH   TYR C  64      19.651  -3.611   6.695  1.00 53.82 LIG-0.36  OA
ATOM     18 HH   TYR C  64      19.496  -4.351   6.326  1.00 53.82 LIG 0.22  HD
ENDBRANCH 14 17
ENDBRANCH 10 11
ENDBRANCH 8 10
ENDBRANCH 1 8
BRANCH 4 19
ATOM     19  C   PRO C  65      14.172  -1.391   6.752  1.00 37.07 LIG 0.24  C 
ATOM     20  N   HIS C  66      14.262  -0.398   7.635  1.00 40.38 LIG-0.35  N 
ATOM     21 H    HIS C  66      13.944  -0.441   8.432  1.00 40.38 LIG 0.16  HD
ATOM     22 O    PRO C  65      14.572  -1.317   5.577  1.00 29.28 LIG-0.27  OA
BRANCH 20 23
ATOM     23  CA  HIS C  66      14.915   0.866   7.325  1.00 40.25 LIG 0.17  C 
BRANCH 23 24
ATOM     24  CB  HIS C  66      13.919   1.845   6.689  1.00 42.68 LIG 0.09  C 
BRANCH 24 25
ATOM     25  CG  HIS C  66      12.485   1.543   7.001  1.00 48.80 LIG 0.06  A 
ATOM     26 ND1  HIS C  66      11.895   1.877   8.202  1.00 53.13 LIG-0.24  NA
ATOM     27  CE1 HIS C  66      10.631   1.492   8.191  1.00 55.16 LIG 0.23  A 
ATOM     28 NE2  HIS C  66      10.379   0.921   7.027  1.00 53.86 LIG-0.25  NA
ATOM     29  CD2 HIS C  66      11.523   0.939   6.265  1.00 53.41 LIG 0.14  A 
ENDBRANCH 24 25
ENDBRANCH 23 24
BRANCH 23 30
ATOM     30  C   HIS C  66      15.531   1.492   8.577  1.00 41.89 LIG 0.22  C 
ATOM     31 O    HIS C  66      16.276   0.834   9.308  1.00 44.58 LIG-0.29  OA
ENDBRANCH 23 30
ENDBRANCH 20 23
ENDBRANCH 4 19
TORSDOF 9
ENDMDL
MODEL 129
USER: ADFR SOLUTION from run 199
USER: SCORE 10.614254 LL:  -2.229 LR:  -8.385 RR:   0.000 FEB:  -5.701
USER: RMSD 7.446646
USER: SEED 198
USER: STATUS no improvement in best in 51 clusters for 5 generations
USER: GENES 11
USER: genes 0 Translation |==|  0.63144 0.56006 0.42076
USER: genes 1 Rotation |==|  0.22558 0.24162 0.17180 0.51489
USER: genes 2 Torsion [N]-C--CA-[N] |==|  0.29273
USER: genes 3 Torsion [C]-CA--CB-[CG] |==|  0.21007
USER: genes 4 Torsion [CA]-CB--CG-[CD2] |==|  0.33506
USER: genes 5 Torsion [CE2]-CZ--OH-[HH] |==|  0.78515
USER: genes 6 Torsion [N]-CA--C-[N] |==|  0.98632
USER: genes 7 Torsion [C]-N--CA-[C] |==|  0.88134
USER: genes 8 Torsion [N]-CA--CB-[CG] |==|  0.10475
USER: genes 9 Torsion [CA]-CB--CG-[ND1] |==|  0.68911
USER: genes 10 Torsion [N]-CA--C-[O] |==|  0.85304
ROOT
ATOM      1  C   TYR C  64      14.616   0.197   5.651  1.00 51.57 LIG 0.26  C 
ATOM      2 O    TYR C  64      13.542  -0.224   5.219  1.00 54.62 LIG-0.27  OA
ATOM      3  N   PRO C  65      14.698   0.944   6.764  1.00 43.10 LIG-0.34  N 
ATOM      4  CA  PRO C  65      15.901   1.408   7.461  1.00 38.90 LIG 0.18  C 
ATOM      5  CB  PRO C  65      15.501   2.802   7.923  1.00 40.80 LIG 0.04  C 
ATOM      6  CG  PRO C  65      14.042   2.676   8.193  1.00 42.19 LIG 0.02  C 
ATOM      7  CD  PRO C  65      13.497   1.665   7.222  1.00 44.37 LIG 0.13  C 
ENDROOT
BRANCH 1 8
ATOM      8  CA  TYR C  64      15.914  -0.123   4.913  1.00 49.73 LIG 0.40  C 
ATOM      9  N   TYR C  64      16.276  -1.516   5.161  1.00 50.52 LIG 0.61  N 
BRANCH 8 10
ATOM     10  CB  TYR C  64      15.716   0.127   3.413  1.00 50.46 LIG 0.09  C 
BRANCH 10 11
ATOM     11  CG  TYR C  64      15.708   1.580   2.989  1.00 47.68 LIG-0.06  A 
ATOM     12  CD2 TYR C  64      16.639   2.052   2.071  1.00 48.34 LIG 0.01  A 
ATOM     13  CE2 TYR C  64      16.647   3.376   1.674  1.00 49.15 LIG 0.04  A 
ATOM     14  CZ  TYR C  64      15.713   4.248   2.197  1.00 50.59 LIG 0.07  A 
ATOM     15  CE1 TYR C  64      14.775   3.807   3.109  1.00 46.73 LIG 0.04  A 
ATOM     16  CD1 TYR C  64      14.776   2.478   3.500  1.00 46.22 LIG 0.01  A 
BRANCH 14 17
ATOM     17 OH   TYR C  64      15.716   5.568   1.806  1.00 53.82 LIG-0.36  OA
ATOM     18 HH   TYR C  64      16.335   5.976   2.202  1.00 53.82 LIG 0.22  HD
ENDBRANCH 14 17
ENDBRANCH 10 11
ENDBRANCH 8 10
ENDBRANCH 1 8
BRANCH 4 19
ATOM     19  C   PRO C  65      16.230   0.541   8.671  1.00 37.07 LIG 0.24  C 
ATOM     20  N   HIS C  66      15.343  -0.409   8.960  1.00 40.38 LIG-0.35  N 
ATOM     21 H    HIS C  66      14.608  -0.519   8.529  1.00 40.38 LIG 0.16  HD
ATOM     22 O    PRO C  65      17.267   0.750   9.327  1.00 29.28 LIG-0.27  OA
BRANCH 20 23
ATOM     23  CA  HIS C  66      15.541  -1.360  10.045  1.00 40.25 LIG 0.17  C 
BRANCH 23 24
ATOM     24  CB  HIS C  66      14.569  -2.541   9.910  1.00 42.68 LIG 0.09  C 
BRANCH 24 25
ATOM     25  CG  HIS C  66      14.333  -2.977   8.496  1.00 48.80 LIG 0.06  A 
ATOM     26 ND1  HIS C  66      13.122  -2.815   7.857  1.00 53.13 LIG-0.24  NA
ATOM     27  CE1 HIS C  66      13.211  -3.287   6.625  1.00 55.16 LIG 0.23  A 
ATOM     28 NE2  HIS C  66      14.435  -3.749   6.443  1.00 53.86 LIG-0.25  NA
ATOM     29  CD2 HIS C  66      15.157  -3.567   7.599  1.00 53.41 LIG 0.14  A 
ENDBRANCH 24 25
ENDBRANCH 23 24
BRANCH 23 30
ATOM     30  C   HIS C  66      16.981  -1.873  10.074  1.00 41.89 LIG 0.22  C 
ATOM     31 O    HIS C  66      17.499  -2.354   9.063  1.00 44.58 LIG-0.29  OA
ENDBRANCH 23 30
ENDBRANCH 20 23
ENDBRANCH 4 19
TORSDOF 9
ENDMDL
MODEL 130
USER: ADFR SOLUTION from run 185
USER: SCORE 10.601076 LL:  -2.217 LR:  -8.384 RR:   0.000 FEB:  -5.700
USER: RMSD 4.981786
USER: SEED 184
USER: STATUS no improvement in best in 31 clusters for 5 generations
USER: GENES 11
USER: genes 0 Translation |==|  0.44304 0.35511 0.62025
USER: genes 1 Rotation |==|  0.89627 0.74451 0.44319 0.67308
USER: genes 2 Torsion [N]-C--CA-[N] |==|  0.33381
USER: genes 3 Torsion [C]-CA--CB-[CG] |==|  0.26251
USER: genes 4 Torsion [CA]-CB--CG-[CD2] |==|  0.83507
USER: genes 5 Torsion [CE2]-CZ--OH-[HH] |==|  0.59946
USER: genes 6 Torsion [N]-CA--C-[N] |==|  0.94498
USER: genes 7 Torsion [C]-N--CA-[C] |==|  0.68798
USER: genes 8 Torsion [N]-CA--CB-[CG] |==|  0.90290
USER: genes 9 Torsion [CA]-CB--CG-[ND1] |==|  0.38753
USER: genes 10 Torsion [N]-CA--C-[O] |==|  0.01072
ROOT
ATOM      1  C   TYR C  64      11.083  -3.031   9.242  1.00 51.57 LIG 0.26  C 
ATOM      2 O    TYR C  64      10.240  -2.262   9.704  1.00 54.62 LIG-0.27  OA
ATOM      3  N   PRO C  65      12.107  -2.603   8.484  1.00 43.10 LIG-0.34  N 
ATOM      4  CA  PRO C  65      13.244  -3.374   7.972  1.00 38.90 LIG 0.18  C 
ATOM      5  CB  PRO C  65      13.458  -2.772   6.591  1.00 40.80 LIG 0.04  C 
ATOM      6  CG  PRO C  65      13.076  -1.344   6.767  1.00 42.19 LIG 0.02  C 
ATOM      7  CD  PRO C  65      11.987  -1.301   7.804  1.00 44.37 LIG 0.13  C 
ENDROOT
BRANCH 1 8
ATOM      8  CA  TYR C  64      10.983  -4.529   9.519  1.00 49.73 LIG 0.40  C 
ATOM      9  N   TYR C  64      11.046  -4.755  10.961  1.00 50.52 LIG 0.61  N 
BRANCH 8 10
ATOM     10  CB  TYR C  64       9.666  -5.062   8.944  1.00 50.46 LIG 0.09  C 
BRANCH 10 11
ATOM     11  CG  TYR C  64       9.752  -5.648   7.551  1.00 47.68 LIG-0.06  A 
ATOM     12  CD2 TYR C  64      10.191  -4.870   6.485  1.00 48.34 LIG 0.01  A 
ATOM     13  CE2 TYR C  64      10.275  -5.389   5.207  1.00 49.15 LIG 0.04  A 
ATOM     14  CZ  TYR C  64       9.918  -6.703   4.981  1.00 50.59 LIG 0.07  A 
ATOM     15  CE1 TYR C  64       9.480  -7.499   6.021  1.00 46.73 LIG 0.04  A 
ATOM     16  CD1 TYR C  64       9.400  -6.970   7.298  1.00 46.22 LIG 0.01  A 
BRANCH 14 17
ATOM     17 OH   TYR C  64       9.999  -7.225   3.710  1.00 53.82 LIG-0.36  OA
ATOM     18 HH   TYR C  64       9.366  -7.765   3.588  1.00 53.82 LIG 0.22  HD
ENDBRANCH 14 17
ENDBRANCH 10 11
ENDBRANCH 8 10
ENDBRANCH 1 8
BRANCH 4 19
ATOM     19  C   PRO C  65      14.497  -3.175   8.819  1.00 37.07 LIG 0.24  C 
ATOM     20  N   HIS C  66      14.510  -2.085   9.584  1.00 40.38 LIG-0.35  N 
ATOM     21 H    HIS C  66      13.881  -1.498   9.587  1.00 40.38 LIG 0.16  HD
ATOM     22 O    PRO C  65      15.429  -3.996   8.760  1.00 29.28 LIG-0.27  OA
BRANCH 20 23
ATOM     23  CA  HIS C  66      15.604  -1.783  10.496  1.00 40.25 LIG 0.17  C 
BRANCH 23 24
ATOM     24  CB  HIS C  66      16.168  -0.383  10.217  1.00 42.68 LIG 0.09  C 
BRANCH 24 25
ATOM     25  CG  HIS C  66      16.156  -0.001   8.768  1.00 48.80 LIG 0.06  A 
ATOM     26 ND1  HIS C  66      15.820   1.264   8.331  1.00 53.13 LIG-0.24  NA
ATOM     27  CE1 HIS C  66      15.901   1.308   7.013  1.00 55.16 LIG 0.23  A 
ATOM     28 NE2  HIS C  66      16.276   0.118   6.578  1.00 53.86 LIG-0.25  NA
ATOM     29  CD2 HIS C  66      16.442  -0.719   7.657  1.00 53.41 LIG 0.14  A 
ENDBRANCH 24 25
ENDBRANCH 23 24
BRANCH 23 30
ATOM     30  C   HIS C  66      15.151  -1.880  11.953  1.00 41.89 LIG 0.22  C 
ATOM     31 O    HIS C  66      14.008  -2.249  12.234  1.00 44.58 LIG-0.29  OA
ENDBRANCH 23 30
ENDBRANCH 20 23
ENDBRANCH 4 19
TORSDOF 9
ENDMDL
MODEL 131
USER: ADFR SOLUTION from run 143
USER: SCORE 10.099358 LL:  -1.724 LR:  -8.375 RR:   0.000 FEB:  -5.690
USER: RMSD 6.303359
USER: SEED 142
USER: STATUS no improvement in best in 39 clusters for 5 generations
USER: GENES 11
USER: genes 0 Translation |==|  0.68247 0.61244 0.55036
USER: genes 1 Rotation |==|  0.22864 0.32004 0.80797 0.72167
USER: genes 2 Torsion [N]-C--CA-[N] |==|  0.19693
USER: genes 3 Torsion [C]-CA--CB-[CG] |==|  0.76148
USER: genes 4 Torsion [CA]-CB--CG-[CD2] |==|  0.10092
USER: genes 5 Torsion [CE2]-CZ--OH-[HH] |==|  0.42441
USER: genes 6 Torsion [N]-CA--C-[N] |==|  0.97247
USER: genes 7 Torsion [C]-N--CA-[C] |==|  0.62389
USER: genes 8 Torsion [N]-CA--CB-[CG] |==|  0.88996
USER: genes 9 Torsion [CA]-CB--CG-[ND1] |==|  0.29309
USER: genes 10 Torsion [N]-CA--C-[O] |==|  0.69295
ROOT
ATOM      1  C   TYR C  64      15.572   1.022   7.984  1.00 51.57 LIG 0.26  C 
ATOM      2 O    TYR C  64      16.657   1.126   8.556  1.00 54.62 LIG-0.27  OA
ATOM      3  N   PRO C  65      15.055   2.015   7.241  1.00 43.10 LIG-0.34  N 
ATOM      4  CA  PRO C  65      13.848   1.993   6.409  1.00 38.90 LIG 0.18  C 
ATOM      5  CB  PRO C  65      13.273   3.387   6.620  1.00 40.80 LIG 0.04  C 
ATOM      6  CG  PRO C  65      14.481   4.240   6.802  1.00 42.19 LIG 0.02  C 
ATOM      7  CD  PRO C  65      15.526   3.392   7.473  1.00 44.37 LIG 0.13  C 
ENDROOT
BRANCH 1 8
ATOM      8  CA  TYR C  64      14.763  -0.267   8.108  1.00 49.73 LIG 0.40  C 
ATOM      9  N   TYR C  64      14.786  -0.973   6.829  1.00 50.52 LIG 0.61  N 
BRANCH 8 10
ATOM     10  CB  TYR C  64      15.368  -1.137   9.218  1.00 50.46 LIG 0.09  C 
BRANCH 10 11
ATOM     11  CG  TYR C  64      16.508  -2.036   8.793  1.00 47.68 LIG-0.06  A 
ATOM     12  CD2 TYR C  64      17.428  -1.608   7.843  1.00 48.34 LIG 0.01  A 
ATOM     13  CE2 TYR C  64      18.475  -2.417   7.443  1.00 49.15 LIG 0.04  A 
ATOM     14  CZ  TYR C  64      18.612  -3.675   7.995  1.00 50.59 LIG 0.07  A 
ATOM     15  CE1 TYR C  64      17.713  -4.126   8.942  1.00 46.73 LIG 0.04  A 
ATOM     16  CD1 TYR C  64      16.668  -3.307   9.336  1.00 46.22 LIG 0.01  A 
BRANCH 14 17
ATOM     17 OH   TYR C  64      19.651  -4.486   7.601  1.00 53.82 LIG-0.36  OA
ATOM     18 HH   TYR C  64      19.846  -5.015   8.224  1.00 53.82 LIG 0.22  HD
ENDBRANCH 14 17
ENDBRANCH 10 11
ENDBRANCH 8 10
ENDBRANCH 1 8
BRANCH 4 19
ATOM     19  C   PRO C  65      14.175   1.792   4.933  1.00 37.07 LIG 0.24  C 
ATOM     20  N   HIS C  66      15.464   1.875   4.610  1.00 40.38 LIG-0.35  N 
ATOM     21 H    HIS C  66      16.084   2.068   5.174  1.00 40.38 LIG 0.16  HD
ATOM     22 O    PRO C  65      13.264   1.577   4.114  1.00 29.28 LIG-0.27  OA
BRANCH 20 23
ATOM     23  CA  HIS C  66      15.947   1.645   3.256  1.00 40.25 LIG 0.17  C 
BRANCH 23 24
ATOM     24  CB  HIS C  66      16.251   2.979   2.559  1.00 42.68 LIG 0.09  C 
BRANCH 24 25
ATOM     25  CG  HIS C  66      15.256   4.060   2.853  1.00 48.80 LIG 0.06  A 
ATOM     26 ND1  HIS C  66      15.526   5.116   3.698  1.00 53.13 LIG-0.24  NA
ATOM     27  CE1 HIS C  66      14.470   5.907   3.762  1.00 55.16 LIG 0.23  A 
ATOM     28 NE2  HIS C  66      13.524   5.404   2.990  1.00 53.86 LIG-0.25  NA
ATOM     29  CD2 HIS C  66      13.991   4.247   2.411  1.00 53.41 LIG 0.14  A 
ENDBRANCH 24 25
ENDBRANCH 23 24
BRANCH 23 30
ATOM     30  C   HIS C  66      17.196   0.763   3.257  1.00 41.89 LIG 0.22  C 
ATOM     31 O    HIS C  66      18.296   1.230   2.952  1.00 44.58 LIG-0.29  OA
ENDBRANCH 23 30
ENDBRANCH 20 23
ENDBRANCH 4 19
TORSDOF 9
ENDMDL
MODEL 132
USER: ADFR SOLUTION from run 88
USER: SCORE 10.110284 LL:  -1.731 LR:  -8.379 RR:   0.000 FEB:  -5.695
USER: RMSD 3.715023
USER: SEED 87
USER: STATUS no improvement in best in 20 clusters for 5 generations
USER: GENES 11
USER: genes 0 Translation |==|  0.64933 0.31443 0.64443
USER: genes 1 Rotation |==|  0.26328 0.50141 0.64139 0.91710
USER: genes 2 Torsion [N]-C--CA-[N] |==|  0.87615
USER: genes 3 Torsion [C]-CA--CB-[CG] |==|  0.64493
USER: genes 4 Torsion [CA]-CB--CG-[CD2] |==|  0.33780
USER: genes 5 Torsion [CE2]-CZ--OH-[HH] |==|  0.59677
USER: genes 6 Torsion [N]-CA--C-[N] |==|  0.53897
USER: genes 7 Torsion [C]-N--CA-[C] |==|  0.78457
USER: genes 8 Torsion [N]-CA--CB-[CG] |==|  0.07042
USER: genes 9 Torsion [CA]-CB--CG-[ND1] |==|  0.81530
USER: genes 10 Torsion [N]-CA--C-[O] |==|  0.18261
ROOT
ATOM      1  C   TYR C  64      14.951  -3.672   9.677  1.00 51.57 LIG 0.26  C 
ATOM      2 O    TYR C  64      15.455  -4.793   9.747  1.00 54.62 LIG-0.27  OA
ATOM      3  N   PRO C  65      15.643  -2.599   9.258  1.00 43.10 LIG-0.34  N 
ATOM      4  CA  PRO C  65      15.151  -1.241   9.006  1.00 38.90 LIG 0.18  C 
ATOM      5  CB  PRO C  65      16.303  -0.374   9.493  1.00 40.80 LIG 0.04  C 
ATOM      6  CG  PRO C  65      17.510  -1.191   9.188  1.00 42.19 LIG 0.02  C 
ATOM      7  CD  PRO C  65      17.115  -2.635   9.327  1.00 44.37 LIG 0.13  C 
ENDROOT
BRANCH 1 8
ATOM      8  CA  TYR C  64      13.492  -3.464  10.076  1.00 49.73 LIG 0.40  C 
ATOM      9  N   TYR C  64      13.388  -2.263  10.902  1.00 50.52 LIG 0.61  N 
BRANCH 8 10
ATOM     10  CB  TYR C  64      12.637  -3.327   8.810  1.00 50.46 LIG 0.09  C 
BRANCH 10 11
ATOM     11  CG  TYR C  64      11.744  -2.106   8.756  1.00 47.68 LIG-0.06  A 
ATOM     12  CD2 TYR C  64      11.866  -1.189   7.718  1.00 48.34 LIG 0.01  A 
ATOM     13  CE2 TYR C  64      11.059  -0.069   7.653  1.00 49.15 LIG 0.04  A 
ATOM     14  CZ  TYR C  64      10.113   0.146   8.635  1.00 50.59 LIG 0.07  A 
ATOM     15  CE1 TYR C  64       9.969  -0.749   9.677  1.00 46.73 LIG 0.04  A 
ATOM     16  CD1 TYR C  64      10.782  -1.869   9.732  1.00 46.22 LIG 0.01  A 
BRANCH 14 17
ATOM     17 OH   TYR C  64       9.307   1.260   8.577  1.00 53.82 LIG-0.36  OA
ATOM     18 HH   TYR C  64       9.151   1.534   9.356  1.00 53.82 LIG 0.22  HD
ENDBRANCH 14 17
ENDBRANCH 10 11
ENDBRANCH 8 10
ENDBRANCH 1 8
BRANCH 4 19
ATOM     19  C   PRO C  65      14.910  -0.988   7.521  1.00 37.07 LIG 0.24  C 
ATOM     20  N   HIS C  66      14.745   0.287   7.172  1.00 40.38 LIG-0.35  N 
ATOM     21 H    HIS C  66      14.733   0.936   7.735  1.00 40.38 LIG 0.16  HD
ATOM     22 O    PRO C  65      14.866  -1.941   6.723  1.00 29.28 LIG-0.27  OA
BRANCH 20 23
ATOM     23  CA  HIS C  66      14.569   0.701   5.788  1.00 40.25 LIG 0.17  C 
BRANCH 23 24
ATOM     24  CB  HIS C  66      13.925   2.093   5.720  1.00 42.68 LIG 0.09  C 
BRANCH 24 25
ATOM     25  CG  HIS C  66      14.168   2.936   6.935  1.00 48.80 LIG 0.06  A 
ATOM     26 ND1  HIS C  66      13.651   2.626   8.175  1.00 53.13 LIG-0.24  NA
ATOM     27  CE1 HIS C  66      14.031   3.541   9.049  1.00 55.16 LIG 0.23  A 
ATOM     28 NE2  HIS C  66      14.777   4.433   8.422  1.00 53.86 LIG-0.25  NA
ATOM     29  CD2 HIS C  66      14.877   4.077   7.097  1.00 53.41 LIG 0.14  A 
ENDBRANCH 24 25
ENDBRANCH 23 24
BRANCH 23 30
ATOM     30  C   HIS C  66      15.901   0.707   5.038  1.00 41.89 LIG 0.22  C 
ATOM     31 O    HIS C  66      16.513  -0.344   4.833  1.00 44.58 LIG-0.29  OA
ENDBRANCH 23 30
ENDBRANCH 20 23
ENDBRANCH 4 19
TORSDOF 9
ENDMDL
MODEL 133
USER: ADFR SOLUTION from run 146
USER: SCORE 10.511825 LL:  -2.143 LR:  -8.368 RR:   0.000 FEB:  -5.684
USER: RMSD 4.325572
USER: SEED 145
USER: STATUS no improvement in best in 27 clusters for 5 generations
USER: GENES 11
USER: genes 0 Translation |==|  0.50619 0.37557 0.59490
USER: genes 1 Rotation |==|  0.91236 0.73177 0.33942 0.52134
USER: genes 2 Torsion [N]-C--CA-[N] |==|  0.39387
USER: genes 3 Torsion [C]-CA--CB-[CG] |==|  0.78257
USER: genes 4 Torsion [CA]-CB--CG-[CD2] |==|  0.75313
USER: genes 5 Torsion [CE2]-CZ--OH-[HH] |==|  0.85219
USER: genes 6 Torsion [N]-CA--C-[N] |==|  0.02405
USER: genes 7 Torsion [C]-N--CA-[C] |==|  0.62527
USER: genes 8 Torsion [N]-CA--CB-[CG] |==|  0.09838
USER: genes 9 Torsion [CA]-CB--CG-[ND1] |==|  0.73571
USER: genes 10 Torsion [N]-CA--C-[O] |==|  0.02044
ROOT
ATOM      1  C   TYR C  64      12.267  -2.709   8.785  1.00 51.57 LIG 0.26  C 
ATOM      2 O    TYR C  64      12.122  -2.022   9.797  1.00 54.62 LIG-0.27  OA
ATOM      3  N   PRO C  65      12.824  -2.225   7.662  1.00 43.10 LIG-0.34  N 
ATOM      4  CA  PRO C  65      13.172  -2.948   6.435  1.00 38.90 LIG 0.18  C 
ATOM      5  CB  PRO C  65      12.836  -1.937   5.348  1.00 40.80 LIG 0.04  C 
ATOM      6  CG  PRO C  65      13.135  -0.624   5.984  1.00 42.19 LIG 0.02  C 
ATOM      7  CD  PRO C  65      12.839  -0.766   7.452  1.00 44.37 LIG 0.13  C 
ENDROOT
BRANCH 1 8
ATOM      8  CA  TYR C  64      11.803  -4.164   8.778  1.00 49.73 LIG 0.40  C 
ATOM      9  N   TYR C  64      12.093  -4.766  10.077  1.00 50.52 LIG 0.61  N 
BRANCH 8 10
ATOM     10  CB  TYR C  64      10.300  -4.212   8.480  1.00 50.46 LIG 0.09  C 
BRANCH 10 11
ATOM     11  CG  TYR C  64       9.394  -3.880   9.645  1.00 47.68 LIG-0.06  A 
ATOM     12  CD2 TYR C  64       8.966  -4.878  10.513  1.00 48.34 LIG 0.01  A 
ATOM     13  CE2 TYR C  64       8.137  -4.591  11.582  1.00 49.15 LIG 0.04  A 
ATOM     14  CZ  TYR C  64       7.726  -3.291  11.795  1.00 50.59 LIG 0.07  A 
ATOM     15  CE1 TYR C  64       8.137  -2.279  10.949  1.00 46.73 LIG 0.04  A 
ATOM     16  CD1 TYR C  64       8.967  -2.577   9.882  1.00 46.22 LIG 0.01  A 
BRANCH 14 17
ATOM     17 OH   TYR C  64       6.901  -2.999  12.857  1.00 53.82 LIG-0.36  OA
ATOM     18 HH   TYR C  64       6.225  -3.497  12.832  1.00 53.82 LIG 0.22  HD
ENDBRANCH 14 17
ENDBRANCH 10 11
ENDBRANCH 8 10
ENDBRANCH 1 8
BRANCH 4 19
ATOM     19  C   PRO C  65      14.657  -3.291   6.376  1.00 37.07 LIG 0.24  C 
ATOM     20  N   HIS C  66      15.349  -3.055   7.489  1.00 40.38 LIG-0.35  N 
ATOM     21 H    HIS C  66      15.010  -2.697   8.193  1.00 40.38 LIG 0.16  HD
ATOM     22 O    PRO C  65      15.152  -3.749   5.331  1.00 29.28 LIG-0.27  OA
BRANCH 20 23
ATOM     23  CA  HIS C  66      16.761  -3.386   7.616  1.00 40.25 LIG 0.17  C 
BRANCH 23 24
ATOM     24  CB  HIS C  66      17.625  -2.124   7.478  1.00 42.68 LIG 0.09  C 
BRANCH 24 25
ATOM     25  CG  HIS C  66      17.003  -0.894   8.066  1.00 48.80 LIG 0.06  A 
ATOM     26 ND1  HIS C  66      16.275   0.007   7.317  1.00 53.13 LIG-0.24  NA
ATOM     27  CE1 HIS C  66      15.850   0.984   8.098  1.00 55.16 LIG 0.23  A 
ATOM     28 NE2  HIS C  66      16.276   0.751   9.327  1.00 53.86 LIG-0.25  NA
ATOM     29  CD2 HIS C  66      17.000  -0.418   9.333  1.00 53.41 LIG 0.14  A 
ENDBRANCH 24 25
ENDBRANCH 23 24
BRANCH 23 30
ATOM     30  C   HIS C  66      17.051  -4.070   8.952  1.00 41.89 LIG 0.22  C 
ATOM     31 O    HIS C  66      16.130  -4.399   9.704  1.00 44.58 LIG-0.29  OA
ENDBRANCH 23 30
ENDBRANCH 20 23
ENDBRANCH 4 19
TORSDOF 9
ENDMDL
MODEL 134
USER: ADFR SOLUTION from run 9
USER: SCORE 9.679451 LL:  -1.308 LR:  -8.371 RR:   0.000 FEB:  -5.687
USER: RMSD 7.282752
USER: SEED 754385
USER: STATUS no improvement in best in 38 clusters for 5 generations
USER: GENES 11
USER: genes 0 Translation |==|  0.70842 0.53103 0.58085
USER: genes 1 Rotation |==|  0.87199 0.20314 0.50116 0.65327
USER: genes 2 Torsion [N]-C--CA-[N] |==|  0.52620
USER: genes 3 Torsion [C]-CA--CB-[CG] |==|  0.74945
USER: genes 4 Torsion [CA]-CB--CG-[CD2] |==|  0.30942
USER: genes 5 Torsion [CE2]-CZ--OH-[HH] |==|  0.07246
USER: genes 6 Torsion [N]-CA--C-[N] |==|  0.46145
USER: genes 7 Torsion [C]-N--CA-[C] |==|  0.67028
USER: genes 8 Torsion [N]-CA--CB-[CG] |==|  0.96520
USER: genes 9 Torsion [CA]-CB--CG-[ND1] |==|  0.15411
USER: genes 10 Torsion [N]-CA--C-[O] |==|  0.40353
ROOT
ATOM      1  C   TYR C  64      16.059  -0.260   8.532  1.00 51.57 LIG 0.26  C 
ATOM      2 O    TYR C  64      17.026   0.376   8.951  1.00 54.62 LIG-0.27  OA
ATOM      3  N   PRO C  65      15.882  -1.563   8.810  1.00 43.10 LIG-0.34  N 
ATOM      4  CA  PRO C  65      14.731  -2.413   8.490  1.00 38.90 LIG 0.18  C 
ATOM      5  CB  PRO C  65      15.385  -3.744   8.149  1.00 40.80 LIG 0.04  C 
ATOM      6  CG  PRO C  65      16.581  -3.784   9.035  1.00 42.19 LIG 0.02  C 
ATOM      7  CD  PRO C  65      17.051  -2.366   9.210  1.00 44.37 LIG 0.13  C 
ENDROOT
BRANCH 1 8
ATOM      8  CA  TYR C  64      15.011   0.429   7.661  1.00 49.73 LIG 0.40  C 
ATOM      9  N   TYR C  64      15.492   1.758   7.293  1.00 50.52 LIG 0.61  N 
BRANCH 8 10
ATOM     10  CB  TYR C  64      14.756  -0.422   6.411  1.00 50.46 LIG 0.09  C 
BRANCH 10 11
ATOM     11  CG  TYR C  64      15.633  -0.108   5.219  1.00 47.68 LIG-0.06  A 
ATOM     12  CD2 TYR C  64      16.590  -1.020   4.788  1.00 48.34 LIG 0.01  A 
ATOM     13  CE2 TYR C  64      17.401  -0.749   3.702  1.00 49.15 LIG 0.04  A 
ATOM     14  CZ  TYR C  64      17.260   0.448   3.030  1.00 50.59 LIG 0.07  A 
ATOM     15  CE1 TYR C  64      16.317   1.372   3.435  1.00 46.73 LIG 0.04  A 
ATOM     16  CD1 TYR C  64      15.509   1.091   4.524  1.00 46.22 LIG 0.01  A 
BRANCH 14 17
ATOM     17 OH   TYR C  64      18.064   0.725   1.948  1.00 53.82 LIG-0.36  OA
ATOM     18 HH   TYR C  64      18.316   0.005   1.594  1.00 53.82 LIG 0.22  HD
ENDBRANCH 14 17
ENDBRANCH 10 11
ENDBRANCH 8 10
ENDBRANCH 1 8
BRANCH 4 19
ATOM     19  C   PRO C  65      13.801  -2.589   9.686  1.00 37.07 LIG 0.24  C 
ATOM     20  N   HIS C  66      12.600  -3.097   9.414  1.00 40.38 LIG-0.35  N 
ATOM     21 H    HIS C  66      12.332  -3.284   8.619  1.00 40.38 LIG 0.16  HD
ATOM     22 O    PRO C  65      14.176  -2.256  10.824  1.00 29.28 LIG-0.27  OA
BRANCH 20 23
ATOM     23  CA  HIS C  66      11.621  -3.386  10.452  1.00 40.25 LIG 0.17  C 
BRANCH 23 24
ATOM     24  CB  HIS C  66      10.347  -2.557  10.236  1.00 42.68 LIG 0.09  C 
BRANCH 24 25
ATOM     25  CG  HIS C  66      10.500  -1.458   9.229  1.00 48.80 LIG 0.06  A 
ATOM     26 ND1  HIS C  66      10.931  -1.680   7.939  1.00 53.13 LIG-0.24  NA
ATOM     27  CE1 HIS C  66      10.965  -0.533   7.284  1.00 55.16 LIG 0.23  A 
ATOM     28 NE2  HIS C  66      10.572   0.426   8.103  1.00 53.86 LIG-0.25  NA
ATOM     29  CD2 HIS C  66      10.276  -0.126   9.327  1.00 53.41 LIG 0.14  A 
ENDBRANCH 24 25
ENDBRANCH 23 24
BRANCH 23 30
ATOM     30  C   HIS C  66      11.273  -4.874  10.486  1.00 41.89 LIG 0.22  C 
ATOM     31 O    HIS C  66      11.025  -5.438  11.555  1.00 44.58 LIG-0.29  OA
ENDBRANCH 23 30
ENDBRANCH 20 23
ENDBRANCH 4 19
TORSDOF 9
ENDMDL
MODEL 135
USER: ADFR SOLUTION from run 166
USER: SCORE 10.192936 LL:  -1.822 LR:  -8.371 RR:   0.000 FEB:  -5.686
USER: RMSD 4.483846
USER: SEED 165
USER: STATUS no improvement in best in 34 clusters for 5 generations
USER: GENES 11
USER: genes 0 Translation |==|  0.74961 0.53573 0.56397
USER: genes 1 Rotation |==|  0.27621 0.26785 0.85167 0.64951
USER: genes 2 Torsion [N]-C--CA-[N] |==|  0.35302
USER: genes 3 Torsion [C]-CA--CB-[CG] |==|  0.29755
USER: genes 4 Torsion [CA]-CB--CG-[CD2] |==|  0.07208
USER: genes 5 Torsion [CE2]-CZ--OH-[HH] |==|  0.09538
USER: genes 6 Torsion [N]-CA--C-[N] |==|  0.90779
USER: genes 7 Torsion [C]-N--CA-[C] |==|  0.59281
USER: genes 8 Torsion [N]-CA--CB-[CG] |==|  0.17347
USER: genes 9 Torsion [CA]-CB--CG-[ND1] |==|  0.79426
USER: genes 10 Torsion [N]-CA--C-[O] |==|  0.48038
ROOT
ATOM      1  C   TYR C  64      16.831  -0.186   8.228  1.00 51.57 LIG 0.26  C 
ATOM      2 O    TYR C  64      17.776   0.376   8.782  1.00 54.62 LIG-0.27  OA
ATOM      3  N   PRO C  65      15.929   0.484   7.491  1.00 43.10 LIG-0.34  N 
ATOM      4  CA  PRO C  65      14.835  -0.059   6.680  1.00 38.90 LIG 0.18  C 
ATOM      5  CB  PRO C  65      13.725   0.959   6.897  1.00 40.80 LIG 0.04  C 
ATOM      6  CG  PRO C  65      14.455   2.247   7.055  1.00 42.19 LIG 0.02  C 
ATOM      7  CD  PRO C  65      15.771   1.932   7.712  1.00 44.37 LIG 0.13  C 
ENDROOT
BRANCH 1 8
ATOM      8  CA  TYR C  64      16.651  -1.696   8.370  1.00 49.73 LIG 0.40  C 
ATOM      9  N   TYR C  64      17.894  -2.364   7.992  1.00 50.52 LIG 0.61  N 
BRANCH 8 10
ATOM     10  CB  TYR C  64      16.279  -2.025   9.821  1.00 50.46 LIG 0.09  C 
BRANCH 10 11
ATOM     11  CG  TYR C  64      14.839  -2.433  10.048  1.00 47.68 LIG-0.06  A 
ATOM     12  CD2 TYR C  64      14.099  -3.008   9.020  1.00 48.34 LIG 0.01  A 
ATOM     13  CE2 TYR C  64      12.783  -3.385   9.210  1.00 49.15 LIG 0.04  A 
ATOM     14  CZ  TYR C  64      12.190  -3.191  10.441  1.00 50.59 LIG 0.07  A 
ATOM     15  CE1 TYR C  64      12.901  -2.624  11.480  1.00 46.73 LIG 0.04  A 
ATOM     16  CD1 TYR C  64      14.220  -2.250  11.280  1.00 46.22 LIG 0.01  A 
BRANCH 14 17
ATOM     17 OH   TYR C  64      10.880  -3.564  10.636  1.00 53.82 LIG-0.36  OA
ATOM     18 HH   TYR C  64      10.714  -4.254  10.186  1.00 53.82 LIG 0.22  HD
ENDBRANCH 14 17
ENDBRANCH 10 11
ENDBRANCH 8 10
ENDBRANCH 1 8
BRANCH 4 19
ATOM     19  C   PRO C  65      15.197  -0.116   5.199  1.00 37.07 LIG 0.24  C 
ATOM     20  N   HIS C  66      15.998   0.854   4.762  1.00 40.38 LIG-0.35  N 
ATOM     21 H    HIS C  66      16.274   1.501   5.256  1.00 40.38 LIG 0.16  HD
ATOM     22 O    PRO C  65      14.741  -1.021   4.479  1.00 29.28 LIG-0.27  OA
BRANCH 20 23
ATOM     23  CA  HIS C  66      16.486   0.905   3.391  1.00 40.25 LIG 0.17  C 
BRANCH 23 24
ATOM     24  CB  HIS C  66      15.532   1.725   2.511  1.00 42.68 LIG 0.09  C 
BRANCH 24 25
ATOM     25  CG  HIS C  66      15.406   3.160   2.923  1.00 48.80 LIG 0.06  A 
ATOM     26 ND1  HIS C  66      14.698   3.558   4.038  1.00 53.13 LIG-0.24  NA
ATOM     27  CE1 HIS C  66      14.763   4.873   4.152  1.00 55.16 LIG 0.23  A 
ATOM     28 NE2  HIS C  66      15.487   5.343   3.152  1.00 53.86 LIG-0.25  NA
ATOM     29  CD2 HIS C  66      15.900   4.291   2.368  1.00 53.41 LIG 0.14  A 
ENDBRANCH 24 25
ENDBRANCH 23 24
BRANCH 23 30
ATOM     30  C   HIS C  66      17.893   1.500   3.327  1.00 41.89 LIG 0.22  C 
ATOM     31 O    HIS C  66      18.526   1.507   2.268  1.00 44.58 LIG-0.29  OA
ENDBRANCH 23 30
ENDBRANCH 20 23
ENDBRANCH 4 19
TORSDOF 9
ENDMDL
MODEL 136
USER: ADFR SOLUTION from run 112
USER: SCORE 10.104901 LL:  -1.750 LR:  -8.355 RR:   0.000 FEB:  -5.671
USER: RMSD 3.418588
USER: SEED 111
USER: STATUS no improvement in best in 37 clusters for 5 generations
USER: GENES 11
USER: genes 0 Translation |==|  0.68000 0.29072 0.63999
USER: genes 1 Rotation |==|  0.19433 0.59523 0.62072 0.86458
USER: genes 2 Torsion [N]-C--CA-[N] |==|  0.86018
USER: genes 3 Torsion [C]-CA--CB-[CG] |==|  0.57741
USER: genes 4 Torsion [CA]-CB--CG-[CD2] |==|  0.31424
USER: genes 5 Torsion [CE2]-CZ--OH-[HH] |==|  0.67037
USER: genes 6 Torsion [N]-CA--C-[N] |==|  0.47071
USER: genes 7 Torsion [C]-N--CA-[C] |==|  0.18406
USER: genes 8 Torsion [N]-CA--CB-[CG] |==|  0.78794
USER: genes 9 Torsion [CA]-CB--CG-[ND1] |==|  0.52597
USER: genes 10 Torsion [N]-CA--C-[O] |==|  0.01500
ROOT
ATOM      1  C   TYR C  64      15.526  -4.045   9.597  1.00 51.57 LIG 0.26  C 
ATOM      2 O    TYR C  64      15.874  -5.124  10.077  1.00 54.62 LIG-0.27  OA
ATOM      3  N   PRO C  65      16.244  -3.416   8.651  1.00 43.10 LIG-0.34  N 
ATOM      4  CA  PRO C  65      15.898  -2.203   7.904  1.00 38.90 LIG 0.18  C 
ATOM      5  CB  PRO C  65      17.239  -1.494   7.783  1.00 40.80 LIG 0.04  C 
ATOM      6  CG  PRO C  65      18.220  -2.612   7.691  1.00 42.19 LIG 0.02  C 
ATOM      7  CD  PRO C  65      17.672  -3.749   8.509  1.00 44.37 LIG 0.13  C 
ENDROOT
BRANCH 1 8
ATOM      8  CA  TYR C  64      14.241  -3.374  10.077  1.00 49.73 LIG 0.40  C 
ATOM      9  N   TYR C  64      14.528  -1.985  10.427  1.00 50.52 LIG 0.61  N 
BRANCH 8 10
ATOM     10  CB  TYR C  64      13.188  -3.446   8.964  1.00 50.46 LIG 0.09  C 
BRANCH 10 11
ATOM     11  CG  TYR C  64      12.159  -2.337   8.967  1.00 47.68 LIG-0.06  A 
ATOM     12  CD2 TYR C  64      12.123  -1.405   7.936  1.00 48.34 LIG 0.01  A 
ATOM     13  CE2 TYR C  64      11.191  -0.385   7.924  1.00 49.15 LIG 0.04  A 
ATOM     14  CZ  TYR C  64      10.276  -0.288   8.953  1.00 50.59 LIG 0.07  A 
ATOM     15  CE1 TYR C  64      10.287  -1.200   9.990  1.00 46.73 LIG 0.04  A 
ATOM     16  CD1 TYR C  64      11.225  -2.219   9.992  1.00 46.22 LIG 0.01  A 
BRANCH 14 17
ATOM     17 OH   TYR C  64       9.345   0.726   8.947  1.00 53.82 LIG-0.36  OA
ATOM     18 HH   TYR C  64       9.452   1.209   9.627  1.00 53.82 LIG 0.22  HD
ENDBRANCH 14 17
ENDBRANCH 10 11
ENDBRANCH 8 10
ENDBRANCH 1 8
BRANCH 4 19
ATOM     19  C   PRO C  65      15.358  -2.522   6.514  1.00 37.07 LIG 0.24  C 
ATOM     20  N   HIS C  66      14.818  -1.499   5.854  1.00 40.38 LIG-0.35  N 
ATOM     21 H    HIS C  66      14.734  -0.711   6.187  1.00 40.38 LIG 0.16  HD
ATOM     22 O    PRO C  65      15.427  -3.681   6.067  1.00 29.28 LIG-0.27  OA
BRANCH 20 23
ATOM     23  CA  HIS C  66      14.316  -1.624   4.494  1.00 40.25 LIG 0.17  C 
BRANCH 23 24
ATOM     24  CB  HIS C  66      15.415  -2.152   3.560  1.00 42.68 LIG 0.09  C 
BRANCH 24 25
ATOM     25  CG  HIS C  66      16.438  -1.124   3.183  1.00 48.80 LIG 0.06  A 
ATOM     26 ND1  HIS C  66      17.393  -1.341   2.213  1.00 53.13 LIG-0.24  NA
ATOM     27  CE1 HIS C  66      18.151  -0.265   2.095  1.00 55.16 LIG 0.23  A 
ATOM     28 NE2  HIS C  66      17.722   0.643   2.955  1.00 53.86 LIG-0.25  NA
ATOM     29  CD2 HIS C  66      16.652   0.129   3.648  1.00 53.41 LIG 0.14  A 
ENDBRANCH 24 25
ENDBRANCH 23 24
BRANCH 23 30
ATOM     30  C   HIS C  66      13.099  -2.547   4.437  1.00 41.89 LIG 0.22  C 
ATOM     31 O    HIS C  66      12.602  -2.999   5.471  1.00 44.58 LIG-0.29  OA
ENDBRANCH 23 30
ENDBRANCH 20 23
ENDBRANCH 4 19
TORSDOF 9
ENDMDL
MODEL 137
USER: ADFR SOLUTION from run 194
USER: SCORE 10.044809 LL:  -1.702 LR:  -8.343 RR:   0.000 FEB:  -5.658
USER: RMSD 5.898987
USER: SEED 193
USER: STATUS no improvement in best in 24 clusters for 5 generations
USER: GENES 11
USER: genes 0 Translation |==|  0.54592 0.32575 0.48775
USER: genes 1 Rotation |==|  0.49607 0.75452 0.62120 0.91294
USER: genes 2 Torsion [N]-C--CA-[N] |==|  0.45181
USER: genes 3 Torsion [C]-CA--CB-[CG] |==|  0.24903
USER: genes 4 Torsion [CA]-CB--CG-[CD2] |==|  0.65751
USER: genes 5 Torsion [CE2]-CZ--OH-[HH] |==|  0.94842
USER: genes 6 Torsion [N]-CA--C-[N] |==|  0.26429
USER: genes 7 Torsion [C]-N--CA-[C] |==|  0.76644
USER: genes 8 Torsion [N]-CA--CB-[CG] |==|  0.53920
USER: genes 9 Torsion [CA]-CB--CG-[ND1] |==|  0.81264
USER: genes 10 Torsion [N]-CA--C-[O] |==|  0.98104
ROOT
ATOM      1  C   TYR C  64      13.012  -3.493   6.856  1.00 51.57 LIG 0.26  C 
ATOM      2 O    TYR C  64      12.446  -4.444   6.315  1.00 54.62 LIG-0.27  OA
ATOM      3  N   PRO C  65      13.641  -2.537   6.152  1.00 43.10 LIG-0.34  N 
ATOM      4  CA  PRO C  65      14.245  -1.295   6.644  1.00 38.90 LIG 0.18  C 
ATOM      5  CB  PRO C  65      15.485  -1.160   5.771  1.00 40.80 LIG 0.04  C 
ATOM      6  CG  PRO C  65      15.063  -1.750   4.470  1.00 42.19 LIG 0.02  C 
ATOM      7  CD  PRO C  65      14.075  -2.841   4.777  1.00 44.37 LIG 0.13  C 
ENDROOT
BRANCH 1 8
ATOM      8  CA  TYR C  64      13.018  -3.374   8.379  1.00 49.73 LIG 0.40  C 
ATOM      9  N   TYR C  64      11.971  -4.231   8.931  1.00 50.52 LIG 0.61  N 
BRANCH 8 10
ATOM     10  CB  TYR C  64      14.395  -3.787   8.912  1.00 50.46 LIG 0.09  C 
BRANCH 10 11
ATOM     11  CG  TYR C  64      15.411  -2.672   9.028  1.00 47.68 LIG-0.06  A 
ATOM     12  CD2 TYR C  64      16.635  -2.762   8.376  1.00 48.34 LIG 0.01  A 
ATOM     13  CE2 TYR C  64      17.575  -1.753   8.472  1.00 49.15 LIG 0.04  A 
ATOM     14  CZ  TYR C  64      17.294  -0.633   9.227  1.00 50.59 LIG 0.07  A 
ATOM     15  CE1 TYR C  64      16.086  -0.515   9.885  1.00 46.73 LIG 0.04  A 
ATOM     16  CD1 TYR C  64      15.151  -1.532   9.782  1.00 46.22 LIG 0.01  A 
BRANCH 14 17
ATOM     17 OH   TYR C  64      18.225   0.376   9.328  1.00 53.82 LIG-0.36  OA
ATOM     18 HH   TYR C  64      18.982   0.082   9.108  1.00 53.82 LIG 0.22  HD
ENDBRANCH 14 17
ENDBRANCH 10 11
ENDBRANCH 8 10
ENDBRANCH 1 8
BRANCH 4 19
ATOM     19  C   PRO C  65      13.333  -0.092   6.429  1.00 37.07 LIG 0.24  C 
ATOM     20  N   HIS C  66      12.566   0.244   7.465  1.00 40.38 LIG-0.35  N 
ATOM     21 H    HIS C  66      12.543  -0.198   8.202  1.00 40.38 LIG 0.16  HD
ATOM     22 O    PRO C  65      13.327   0.501   5.336  1.00 29.28 LIG-0.27  OA
BRANCH 20 23
ATOM     23  CA  HIS C  66      11.687   1.404   7.442  1.00 40.25 LIG 0.17  C 
BRANCH 23 24
ATOM     24  CB  HIS C  66      10.505   1.203   8.401  1.00 42.68 LIG 0.09  C 
BRANCH 24 25
ATOM     25  CG  HIS C  66       9.386   2.180   8.202  1.00 48.80 LIG 0.06  A 
ATOM     26 ND1  HIS C  66       9.512   3.526   8.475  1.00 53.13 LIG-0.24  NA
ATOM     27  CE1 HIS C  66       8.372   4.136   8.202  1.00 55.16 LIG 0.23  A 
ATOM     28 NE2  HIS C  66       7.511   3.235   7.763  1.00 53.86 LIG-0.25  NA
ATOM     29  CD2 HIS C  66       8.122   2.003   7.754  1.00 53.41 LIG 0.14  A 
ENDBRANCH 24 25
ENDBRANCH 23 24
BRANCH 23 30
ATOM     30  C   HIS C  66      12.445   2.679   7.812  1.00 41.89 LIG 0.22  C 
ATOM     31 O    HIS C  66      13.614   2.626   8.202  1.00 44.58 LIG-0.29  OA
ENDBRANCH 23 30
ENDBRANCH 20 23
ENDBRANCH 4 19
TORSDOF 9
ENDMDL
MODEL 138
USER: ADFR SOLUTION from run 88
USER: SCORE 10.130413 LL:  -1.789 LR:  -8.341 RR:   0.000 FEB:  -5.656
USER: RMSD 6.790808
USER: SEED 87
USER: STATUS no improvement in best in 20 clusters for 5 generations
USER: GENES 11
USER: genes 0 Translation |==|  0.61572 0.42799 0.50067
USER: genes 1 Rotation |==|  0.83826 0.35435 0.70713 0.76733
USER: genes 2 Torsion [N]-C--CA-[N] |==|  0.86881
USER: genes 3 Torsion [C]-CA--CB-[CG] |==|  0.10933
USER: genes 4 Torsion [CA]-CB--CG-[CD2] |==|  0.16012
USER: genes 5 Torsion [CE2]-CZ--OH-[HH] |==|  0.48069
USER: genes 6 Torsion [N]-CA--C-[N] |==|  0.36929
USER: genes 7 Torsion [C]-N--CA-[C] |==|  0.66076
USER: genes 8 Torsion [N]-CA--CB-[CG] |==|  0.57670
USER: genes 9 Torsion [CA]-CB--CG-[ND1] |==|  0.77846
USER: genes 10 Torsion [N]-CA--C-[O] |==|  0.69146
ROOT
ATOM      1  C   TYR C  64      14.321  -1.883   7.089  1.00 51.57 LIG 0.26  C 
ATOM      2 O    TYR C  64      14.632  -0.753   6.712  1.00 54.62 LIG-0.27  OA
ATOM      3  N   PRO C  65      14.660  -2.354   8.301  1.00 43.10 LIG-0.34  N 
ATOM      4  CA  PRO C  65      14.261  -3.617   8.930  1.00 38.90 LIG 0.18  C 
ATOM      5  CB  PRO C  65      15.523  -4.032   9.672  1.00 40.80 LIG 0.04  C 
ATOM      6  CG  PRO C  65      16.134  -2.736  10.077  1.00 42.19 LIG 0.02  C 
ATOM      7  CD  PRO C  65      15.792  -1.733   9.010  1.00 44.37 LIG 0.13  C 
ENDROOT
BRANCH 1 8
ATOM      8  CA  TYR C  64      13.526  -2.804   6.166  1.00 49.73 LIG 0.40  C 
ATOM      9  N   TYR C  64      14.152  -4.124   6.151  1.00 50.52 LIG 0.61  N 
BRANCH 8 10
ATOM     10  CB  TYR C  64      12.080  -2.896   6.669  1.00 50.46 LIG 0.09  C 
BRANCH 10 11
ATOM     11  CG  TYR C  64      11.486  -1.603   7.186  1.00 47.68 LIG-0.06  A 
ATOM     12  CD2 TYR C  64      11.423  -0.480   6.369  1.00 48.34 LIG 0.01  A 
ATOM     13  CE2 TYR C  64      10.885   0.709   6.826  1.00 49.15 LIG 0.04  A 
ATOM     14  CZ  TYR C  64      10.400   0.785   8.116  1.00 50.59 LIG 0.07  A 
ATOM     15  CE1 TYR C  64      10.449  -0.315   8.949  1.00 46.73 LIG 0.04  A 
ATOM     16  CD1 TYR C  64      10.990  -1.502   8.482  1.00 46.22 LIG 0.01  A 
BRANCH 14 17
ATOM     17 OH   TYR C  64       9.864   1.965   8.577  1.00 53.82 LIG-0.36  OA
ATOM     18 HH   TYR C  64       9.526   1.842   9.336  1.00 53.82 LIG 0.22  HD
ENDBRANCH 14 17
ENDBRANCH 10 11
ENDBRANCH 8 10
ENDBRANCH 1 8
BRANCH 4 19
ATOM     19  C   PRO C  65      13.120  -3.424   9.924  1.00 37.07 LIG 0.24  C 
ATOM     20  N   HIS C  66      12.111  -4.287   9.821  1.00 40.38 LIG-0.35  N 
ATOM     21 H    HIS C  66      12.067  -4.896   9.217  1.00 40.38 LIG 0.16  HD
ATOM     22 O    PRO C  65      13.164  -2.498  10.754  1.00 29.28 LIG-0.27  OA
BRANCH 20 23
ATOM     23  CA  HIS C  66      10.978  -4.276  10.735  1.00 40.25 LIG 0.17  C 
BRANCH 23 24
ATOM     24  CB  HIS C  66       9.684  -3.928   9.984  1.00 42.68 LIG 0.09  C 
BRANCH 24 25
ATOM     25  CG  HIS C  66       8.645  -3.268  10.838  1.00 48.80 LIG 0.06  A 
ATOM     26 ND1  HIS C  66       7.823  -3.971  11.693  1.00 53.13 LIG-0.24  NA
ATOM     27  CE1 HIS C  66       7.013  -3.130  12.313  1.00 55.16 LIG 0.23  A 
ATOM     28 NE2  HIS C  66       7.280  -1.907  11.891  1.00 53.86 LIG-0.25  NA
ATOM     29  CD2 HIS C  66       8.296  -1.967  10.966  1.00 53.41 LIG 0.14  A 
ENDBRANCH 24 25
ENDBRANCH 23 24
BRANCH 23 30
ATOM     30  C   HIS C  66      10.823  -5.624  11.440  1.00 41.89 LIG 0.22  C 
ATOM     31 O    HIS C  66       9.865  -6.359  11.189  1.00 44.58 LIG-0.29  OA
ENDBRANCH 23 30
ENDBRANCH 20 23
ENDBRANCH 4 19
TORSDOF 9
ENDMDL
MODEL 139
USER: ADFR SOLUTION from run 10
USER: SCORE 10.483192 LL:  -2.149 LR:  -8.334 RR:   0.000 FEB:  -5.649
USER: RMSD 7.310344
USER: SEED 356363
USER: STATUS no improvement in best in 39 clusters for 5 generations
USER: GENES 11
USER: genes 0 Translation |==|  0.67614 0.59864 0.47153
USER: genes 1 Rotation |==|  0.84573 0.30811 0.23428 0.65179
USER: genes 2 Torsion [N]-C--CA-[N] |==|  0.42361
USER: genes 3 Torsion [C]-CA--CB-[CG] |==|  0.81613
USER: genes 4 Torsion [CA]-CB--CG-[CD2] |==|  0.78808
USER: genes 5 Torsion [CE2]-CZ--OH-[HH] |==|  0.41235
USER: genes 6 Torsion [N]-CA--C-[N] |==|  0.29982
USER: genes 7 Torsion [C]-N--CA-[C] |==|  0.58747
USER: genes 8 Torsion [N]-CA--CB-[CG] |==|  0.98410
USER: genes 9 Torsion [CA]-CB--CG-[ND1] |==|  0.71685
USER: genes 10 Torsion [N]-CA--C-[O] |==|  0.00368
ROOT
ATOM      1  C   TYR C  64      15.454   0.805   6.565  1.00 51.57 LIG 0.26  C 
ATOM      2 O    TYR C  64      16.539   1.303   6.264  1.00 54.62 LIG-0.27  OA
ATOM      3  N   PRO C  65      15.112  -0.444   6.203  1.00 43.10 LIG-0.34  N 
ATOM      4  CA  PRO C  65      13.922  -1.208   6.587  1.00 38.90 LIG 0.18  C 
ATOM      5  CB  PRO C  65      13.588  -1.968   5.311  1.00 40.80 LIG 0.04  C 
ATOM      6  CG  PRO C  65      14.921  -2.224   4.697  1.00 42.19 LIG 0.02  C 
ATOM      7  CD  PRO C  65      15.806  -1.064   5.060  1.00 44.37 LIG 0.13  C 
ENDROOT
BRANCH 1 8
ATOM      8  CA  TYR C  64      14.440   1.612   7.373  1.00 49.73 LIG 0.40  C 
ATOM      9  N   TYR C  64      15.151   2.585   8.199  1.00 50.52 LIG 0.61  N 
BRANCH 8 10
ATOM     10  CB  TYR C  64      13.477   2.319   6.411  1.00 50.46 LIG 0.09  C 
BRANCH 10 11
ATOM     11  CG  TYR C  64      14.095   3.389   5.538  1.00 47.68 LIG-0.06  A 
ATOM     12  CD2 TYR C  64      14.407   4.636   6.067  1.00 48.34 LIG 0.01  A 
ATOM     13  CE2 TYR C  64      14.971   5.626   5.284  1.00 49.15 LIG 0.04  A 
ATOM     14  CZ  TYR C  64      15.232   5.373   3.952  1.00 50.59 LIG 0.07  A 
ATOM     15  CE1 TYR C  64      14.934   4.143   3.401  1.00 46.73 LIG 0.04  A 
ATOM     16  CD1 TYR C  64      14.370   3.158   4.194  1.00 46.22 LIG 0.01  A 
BRANCH 14 17
ATOM     17 OH   TYR C  64      15.794   6.354   3.167  1.00 53.82 LIG-0.36  OA
ATOM     18 HH   TYR C  64      16.276   5.999   2.577  1.00 53.82 LIG 0.22  HD
ENDBRANCH 14 17
ENDBRANCH 10 11
ENDBRANCH 8 10
ENDBRANCH 1 8
BRANCH 4 19
ATOM     19  C   PRO C  65      14.216  -2.196   7.711  1.00 37.07 LIG 0.24  C 
ATOM     20  N   HIS C  66      13.712  -1.884   8.903  1.00 40.38 LIG-0.35  N 
ATOM     21 H    HIS C  66      13.279  -1.158   9.060  1.00 40.38 LIG 0.16  HD
ATOM     22 O    PRO C  65      14.899  -3.212   7.487  1.00 29.28 LIG-0.27  OA
BRANCH 20 23
ATOM     23  CA  HIS C  66      13.850  -2.753  10.062  1.00 40.25 LIG 0.17  C 
BRANCH 23 24
ATOM     24  CB  HIS C  66      15.141  -2.430  10.827  1.00 42.68 LIG 0.09  C 
BRANCH 24 25
ATOM     25  CG  HIS C  66      16.012  -1.416  10.150  1.00 48.80 LIG 0.06  A 
ATOM     26 ND1  HIS C  66      17.142  -1.758   9.436  1.00 53.13 LIG-0.24  NA
ATOM     27  CE1 HIS C  66      17.703  -0.664   8.952  1.00 55.16 LIG 0.23  A 
ATOM     28 NE2  HIS C  66      16.979   0.376   9.326  1.00 53.86 LIG-0.25  NA
ATOM     29  CD2 HIS C  66      15.916  -0.068  10.077  1.00 53.41 LIG 0.14  A 
ENDBRANCH 24 25
ENDBRANCH 23 24
BRANCH 23 30
ATOM     30  C   HIS C  66      12.646  -2.624  10.996  1.00 41.89 LIG 0.22  C 
ATOM     31 O    HIS C  66      11.708  -1.875  10.714  1.00 44.58 LIG-0.29  OA
ENDBRANCH 23 30
ENDBRANCH 20 23
ENDBRANCH 4 19
TORSDOF 9
ENDMDL
MODEL 140
USER: ADFR SOLUTION from run 56
USER: SCORE 10.018028 LL:  -1.685 LR:  -8.333 RR:   0.000 FEB:  -5.648
USER: RMSD 5.966652
USER: SEED 55
USER: STATUS no improvement in best in 51 clusters for 5 generations
USER: GENES 11
USER: genes 0 Translation |==|  0.68605 0.61650 0.54850
USER: genes 1 Rotation |==|  0.28259 0.33239 0.82716 0.76001
USER: genes 2 Torsion [N]-C--CA-[N] |==|  0.24090
USER: genes 3 Torsion [C]-CA--CB-[CG] |==|  0.75411
USER: genes 4 Torsion [CA]-CB--CG-[CD2] |==|  0.11356
USER: genes 5 Torsion [CE2]-CZ--OH-[HH] |==|  0.35171
USER: genes 6 Torsion [N]-CA--C-[N] |==|  0.99009
USER: genes 7 Torsion [C]-N--CA-[C] |==|  0.81021
USER: genes 8 Torsion [N]-CA--CB-[CG] |==|  0.28283
USER: genes 9 Torsion [CA]-CB--CG-[ND1] |==|  0.81711
USER: genes 10 Torsion [N]-CA--C-[O] |==|  0.93799
ROOT
ATOM      1  C   TYR C  64      15.639   1.086   7.950  1.00 51.57 LIG 0.26  C 
ATOM      2 O    TYR C  64      16.835   1.126   8.241  1.00 54.62 LIG-0.27  OA
ATOM      3  N   PRO C  65      14.978   2.158   7.483  1.00 43.10 LIG-0.34  N 
ATOM      4  CA  PRO C  65      13.602   2.231   6.983  1.00 38.90 LIG 0.18  C 
ATOM      5  CB  PRO C  65      13.133   3.585   7.494  1.00 40.80 LIG 0.04  C 
ATOM      6  CG  PRO C  65      14.368   4.417   7.468  1.00 42.19 LIG 0.02  C 
ATOM      7  CD  PRO C  65      15.526   3.499   7.752  1.00 44.37 LIG 0.13  C 
ENDROOT
BRANCH 1 8
ATOM      8  CA  TYR C  64      14.855  -0.214   8.119  1.00 49.73 LIG 0.40  C 
ATOM      9  N   TYR C  64      14.867  -0.948   6.856  1.00 50.52 LIG 0.61  N 
BRANCH 8 10
ATOM     10  CB  TYR C  64      15.495  -1.047   9.237  1.00 50.46 LIG 0.09  C 
BRANCH 10 11
ATOM     11  CG  TYR C  64      16.600  -1.983   8.801  1.00 47.68 LIG-0.06  A 
ATOM     12  CD2 TYR C  64      17.541  -1.575   7.862  1.00 48.34 LIG 0.01  A 
ATOM     13  CE2 TYR C  64      18.557  -2.418   7.452  1.00 49.15 LIG 0.04  A 
ATOM     14  CZ  TYR C  64      18.642  -3.689   7.983  1.00 50.59 LIG 0.07  A 
ATOM     15  CE1 TYR C  64      17.723  -4.121   8.919  1.00 46.73 LIG 0.04  A 
ATOM     16  CD1 TYR C  64      16.709  -3.268   9.323  1.00 46.22 LIG 0.01  A 
BRANCH 14 17
ATOM     17 OH   TYR C  64      19.651  -4.533   7.579  1.00 53.82 LIG-0.36  OA
ATOM     18 HH   TYR C  64      20.063  -4.821   8.253  1.00 53.82 LIG 0.22  HD
ENDBRANCH 14 17
ENDBRANCH 10 11
ENDBRANCH 8 10
ENDBRANCH 1 8
BRANCH 4 19
ATOM     19  C   PRO C  65      13.547   2.211   5.458  1.00 37.07 LIG 0.24  C 
ATOM     20  N   HIS C  66      14.725   2.208   4.837  1.00 40.38 LIG-0.35  N 
ATOM     21 H    HIS C  66      15.479   2.253   5.248  1.00 40.38 LIG 0.16  HD
ATOM     22 O    PRO C  65      12.450   2.210   4.872  1.00 29.28 LIG-0.27  OA
BRANCH 20 23
ATOM     23  CA  HIS C  66      14.845   2.126   3.389  1.00 40.25 LIG 0.17  C 
BRANCH 23 24
ATOM     24  CB  HIS C  66      16.289   2.407   2.951  1.00 42.68 LIG 0.09  C 
BRANCH 24 25
ATOM     25  CG  HIS C  66      17.071   1.177   2.606  1.00 48.80 LIG 0.06  A 
ATOM     26 ND1  HIS C  66      17.403   0.216   3.538  1.00 53.13 LIG-0.24  NA
ATOM     27  CE1 HIS C  66      18.086  -0.749   2.949  1.00 55.16 LIG 0.23  A 
ATOM     28 NE2  HIS C  66      18.211  -0.450   1.668  1.00 53.86 LIG-0.25  NA
ATOM     29  CD2 HIS C  66      17.585   0.751   1.429  1.00 53.41 LIG 0.14  A 
ENDBRANCH 24 25
ENDBRANCH 23 24
BRANCH 23 30
ATOM     30  C   HIS C  66      14.403   0.756   2.874  1.00 41.89 LIG 0.22  C 
ATOM     31 O    HIS C  66      14.402  -0.226   3.619  1.00 44.58 LIG-0.29  OA
ENDBRANCH 23 30
ENDBRANCH 20 23
ENDBRANCH 4 19
TORSDOF 9
ENDMDL
MODEL 141
USER: ADFR SOLUTION from run 30
USER: SCORE 10.333595 LL:  -2.017 LR:  -8.317 RR:   0.000 FEB:  -5.632
USER: RMSD 6.690039
USER: SEED 29
USER: STATUS no improvement in best in 27 clusters for 5 generations
USER: GENES 11
USER: genes 0 Translation |==|  0.68719 0.38556 0.63058
USER: genes 1 Rotation |==|  0.23645 0.84009 0.73045 0.60849
USER: genes 2 Torsion [N]-C--CA-[N] |==|  0.38966
USER: genes 3 Torsion [C]-CA--CB-[CG] |==|  0.22743
USER: genes 4 Torsion [CA]-CB--CG-[CD2] |==|  0.25778
USER: genes 5 Torsion [CE2]-CZ--OH-[HH] |==|  0.26546
USER: genes 6 Torsion [N]-CA--C-[N] |==|  0.26758
USER: genes 7 Torsion [C]-N--CA-[C] |==|  0.13241
USER: genes 8 Torsion [N]-CA--CB-[CG] |==|  0.94715
USER: genes 9 Torsion [CA]-CB--CG-[ND1] |==|  0.83355
USER: genes 10 Torsion [N]-CA--C-[O] |==|  0.25770
ROOT
ATOM      1  C   TYR C  64      15.661  -2.551   9.427  1.00 51.57 LIG 0.26  C 
ATOM      2 O    TYR C  64      16.564  -3.342   9.702  1.00 54.62 LIG-0.27  OA
ATOM      3  N   PRO C  65      14.771  -2.790   8.449  1.00 43.10 LIG-0.34  N 
ATOM      4  CA  PRO C  65      13.581  -2.011   8.093  1.00 38.90 LIG 0.18  C 
ATOM      5  CB  PRO C  65      13.564  -2.107   6.574  1.00 40.80 LIG 0.04  C 
ATOM      6  CG  PRO C  65      14.128  -3.458   6.302  1.00 42.19 LIG 0.02  C 
ATOM      7  CD  PRO C  65      15.126  -3.749   7.388  1.00 44.37 LIG 0.13  C 
ENDROOT
BRANCH 1 8
ATOM      8  CA  TYR C  64      15.526  -1.245  10.207  1.00 49.73 LIG 0.40  C 
ATOM      9  N   TYR C  64      15.797  -1.499  11.619  1.00 50.52 LIG 0.61  N 
BRANCH 8 10
ATOM     10  CB  TYR C  64      16.514  -0.217   9.641  1.00 50.46 LIG 0.09  C 
BRANCH 10 11
ATOM     11  CG  TYR C  64      16.054   0.514   8.399  1.00 47.68 LIG-0.06  A 
ATOM     12  CD2 TYR C  64      15.397   1.735   8.501  1.00 48.34 LIG 0.01  A 
ATOM     13  CE2 TYR C  64      14.969   2.415   7.377  1.00 49.15 LIG 0.04  A 
ATOM     14  CZ  TYR C  64      15.199   1.876   6.127  1.00 50.59 LIG 0.07  A 
ATOM     15  CE1 TYR C  64      15.851   0.666   5.995  1.00 46.73 LIG 0.04  A 
ATOM     16  CD1 TYR C  64      16.276  -0.008   7.128  1.00 46.22 LIG 0.01  A 
BRANCH 14 17
ATOM     17 OH   TYR C  64      14.775   2.548   5.003  1.00 53.82 LIG-0.36  OA
ATOM     18 HH   TYR C  64      15.409   3.006   4.695  1.00 53.82 LIG 0.22  HD
ENDBRANCH 14 17
ENDBRANCH 10 11
ENDBRANCH 8 10
ENDBRANCH 1 8
BRANCH 4 19
ATOM     19  C   PRO C  65      12.306  -2.625   8.660  1.00 37.07 LIG 0.24  C 
ATOM     20  N   HIS C  66      11.879  -2.111   9.813  1.00 40.38 LIG-0.35  N 
ATOM     21 H    HIS C  66      12.301  -1.499  10.245  1.00 40.38 LIG 0.16  HD
ATOM     22 O    PRO C  65      11.738  -3.554   8.059  1.00 29.28 LIG-0.27  OA
BRANCH 20 23
ATOM     23  CA  HIS C  66      10.645  -2.543  10.452  1.00 40.25 LIG 0.17  C 
BRANCH 23 24
ATOM     24  CB  HIS C  66       9.427  -1.974   9.711  1.00 42.68 LIG 0.09  C 
BRANCH 24 25
ATOM     25  CG  HIS C  66       9.741  -0.798   8.837  1.00 48.80 LIG 0.06  A 
ATOM     26 ND1  HIS C  66      10.276   0.375   9.327  1.00 53.13 LIG-0.24  NA
ATOM     27  CE1 HIS C  66      10.447   1.227   8.332  1.00 55.16 LIG 0.23  A 
ATOM     28 NE2  HIS C  66      10.042   0.651   7.214  1.00 53.86 LIG-0.25  NA
ATOM     29  CD2 HIS C  66       9.594  -0.617   7.504  1.00 53.41 LIG 0.14  A 
ENDBRANCH 24 25
ENDBRANCH 23 24
BRANCH 23 30
ATOM     30  C   HIS C  66      10.555  -4.068  10.507  1.00 41.89 LIG 0.22  C 
ATOM     31 O    HIS C  66      10.959  -4.687  11.494  1.00 44.58 LIG-0.29  OA
ENDBRANCH 23 30
ENDBRANCH 20 23
ENDBRANCH 4 19
TORSDOF 9
ENDMDL
MODEL 142
USER: ADFR SOLUTION from run 6
USER: SCORE 10.521570 LL:  -2.216 LR:  -8.305 RR:   0.000 FEB:  -5.621
USER: RMSD 4.918155
USER: SEED 483022
USER: STATUS no improvement in best in 25 clusters for 5 generations
USER: GENES 11
USER: genes 0 Translation |==|  0.41396 0.20685 0.63224
USER: genes 1 Rotation |==|  0.14982 0.26071 0.51247 0.76450
USER: genes 2 Torsion [N]-C--CA-[N] |==|  0.38759
USER: genes 3 Torsion [C]-CA--CB-[CG] |==|  0.07376
USER: genes 4 Torsion [CA]-CB--CG-[CD2] |==|  0.73791
USER: genes 5 Torsion [CE2]-CZ--OH-[HH] |==|  0.03137
USER: genes 6 Torsion [N]-CA--C-[N] |==|  0.87010
USER: genes 7 Torsion [C]-N--CA-[C] |==|  0.51300
USER: genes 8 Torsion [N]-CA--CB-[CG] |==|  0.23639
USER: genes 9 Torsion [CA]-CB--CG-[ND1] |==|  0.27192
USER: genes 10 Torsion [N]-CA--C-[O] |==|  0.95891
ROOT
ATOM      1  C   TYR C  64      10.538  -5.366   9.457  1.00 51.57 LIG 0.26  C 
ATOM      2 O    TYR C  64      10.530  -6.168  10.392  1.00 54.62 LIG-0.27  OA
ATOM      3  N   PRO C  65      11.222  -4.211   9.508  1.00 43.10 LIG-0.34  N 
ATOM      4  CA  PRO C  65      11.424  -3.226   8.441  1.00 38.90 LIG 0.18  C 
ATOM      5  CB  PRO C  65      11.362  -1.904   9.192  1.00 40.80 LIG 0.04  C 
ATOM      6  CG  PRO C  65      11.941  -2.231  10.525  1.00 42.19 LIG 0.02  C 
ATOM      7  CD  PRO C  65      11.581  -3.659  10.827  1.00 44.37 LIG 0.13  C 
ENDROOT
BRANCH 1 8
ATOM      8  CA  TYR C  64       9.748  -5.668   8.185  1.00 49.73 LIG 0.40  C 
ATOM      9  N   TYR C  64       9.899  -7.083   7.853  1.00 50.52 LIG 0.61  N 
BRANCH 8 10
ATOM     10  CB  TYR C  64       8.272  -5.319   8.413  1.00 50.46 LIG 0.09  C 
BRANCH 10 11
ATOM     11  CG  TYR C  64       8.008  -4.250   9.451  1.00 47.68 LIG-0.06  A 
ATOM     12  CD2 TYR C  64       7.728  -4.598  10.767  1.00 48.34 LIG 0.01  A 
ATOM     13  CE2 TYR C  64       7.483  -3.635  11.727  1.00 49.15 LIG 0.04  A 
ATOM     14  CZ  TYR C  64       7.519  -2.300  11.376  1.00 50.59 LIG 0.07  A 
ATOM     15  CE1 TYR C  64       7.796  -1.924  10.076  1.00 46.73 LIG 0.04  A 
ATOM     16  CD1 TYR C  64       8.040  -2.898   9.122  1.00 46.22 LIG 0.01  A 
BRANCH 14 17
ATOM     17 OH   TYR C  64       7.276  -1.336  12.327  1.00 53.82 LIG-0.36  OA
ATOM     18 HH   TYR C  64       7.276  -1.687  13.090  1.00 53.82 LIG 0.22  HD
ENDBRANCH 14 17
ENDBRANCH 10 11
ENDBRANCH 8 10
ENDBRANCH 1 8
BRANCH 4 19
ATOM     19  C   PRO C  65      12.789  -3.376   7.777  1.00 37.07 LIG 0.24  C 
ATOM     20  N   HIS C  66      13.824  -3.503   8.606  1.00 40.38 LIG-0.35  N 
ATOM     21 H    HIS C  66      13.754  -3.466   9.462  1.00 40.38 LIG 0.16  HD
ATOM     22 O    PRO C  65      12.887  -3.363   6.538  1.00 29.28 LIG-0.27  OA
BRANCH 20 23
ATOM     23  CA  HIS C  66      15.183  -3.717   8.132  1.00 40.25 LIG 0.17  C 
BRANCH 23 24
ATOM     24  CB  HIS C  66      15.653  -2.524   7.287  1.00 42.68 LIG 0.09  C 
BRANCH 24 25
ATOM     25  CG  HIS C  66      16.224  -1.396   8.092  1.00 48.80 LIG 0.06  A 
ATOM     26 ND1  HIS C  66      17.579  -1.221   8.278  1.00 53.13 LIG-0.24  NA
ATOM     27  CE1 HIS C  66      17.784  -0.149   9.023  1.00 55.16 LIG 0.23  A 
ATOM     28 NE2  HIS C  66      16.611   0.378   9.328  1.00 53.86 LIG-0.25  NA
ATOM     29  CD2 HIS C  66      15.619  -0.385   8.758  1.00 53.41 LIG 0.14  A 
ENDBRANCH 24 25
ENDBRANCH 23 24
BRANCH 23 30
ATOM     30  C   HIS C  66      16.147  -3.941   9.297  1.00 41.89 LIG 0.22  C 
ATOM     31 O    HIS C  66      15.814  -3.662  10.452  1.00 44.58 LIG-0.29  OA
ENDBRANCH 23 30
ENDBRANCH 20 23
ENDBRANCH 4 19
TORSDOF 9
ENDMDL
MODEL 143
USER: ADFR SOLUTION from run 137
USER: SCORE 10.019565 LL:  -1.717 LR:  -8.302 RR:   0.000 FEB:  -5.618
USER: RMSD 8.139635
USER: SEED 136
USER: STATUS no improvement in best in 52 clusters for 5 generations
USER: GENES 11
USER: genes 0 Translation |==|  0.51421 0.36189 0.58085
USER: genes 1 Rotation |==|  0.47838 0.61566 0.95029 0.68274
USER: genes 2 Torsion [N]-C--CA-[N] |==|  0.21390
USER: genes 3 Torsion [C]-CA--CB-[CG] |==|  0.20582
USER: genes 4 Torsion [CA]-CB--CG-[CD2] |==|  0.60326
USER: genes 5 Torsion [CE2]-CZ--OH-[HH] |==|  0.91639
USER: genes 6 Torsion [N]-CA--C-[N] |==|  0.38141
USER: genes 7 Torsion [C]-N--CA-[C] |==|  0.61822
USER: genes 8 Torsion [N]-CA--CB-[CG] |==|  0.81045
USER: genes 9 Torsion [CA]-CB--CG-[ND1] |==|  0.19400
USER: genes 10 Torsion [N]-CA--C-[O] |==|  0.15760
ROOT
ATOM      1  C   TYR C  64      12.417  -2.924   8.532  1.00 51.57 LIG 0.26  C 
ATOM      2 O    TYR C  64      12.915  -2.983   7.407  1.00 54.62 LIG-0.27  OA
ATOM      3  N   PRO C  65      11.297  -2.228   8.786  1.00 43.10 LIG-0.34  N 
ATOM      4  CA  PRO C  65      10.527  -2.167  10.032  1.00 38.90 LIG 0.18  C 
ATOM      5  CB  PRO C  65      10.082  -0.712  10.078  1.00 40.80 LIG 0.04  C 
ATOM      6  CG  PRO C  65       9.900  -0.356   8.643  1.00 42.19 LIG 0.02  C 
ATOM      7  CD  PRO C  65      10.908  -1.151   7.859  1.00 44.37 LIG 0.13  C 
ENDROOT
BRANCH 1 8
ATOM      8  CA  TYR C  64      13.078  -3.656   9.698  1.00 49.73 LIG 0.40  C 
ATOM      9  N   TYR C  64      12.325  -4.874   9.988  1.00 50.52 LIG 0.61  N 
BRANCH 8 10
ATOM     10  CB  TYR C  64      14.528  -3.991   9.327  1.00 50.46 LIG 0.09  C 
BRANCH 10 11
ATOM     11  CG  TYR C  64      15.489  -2.822   9.334  1.00 47.68 LIG-0.06  A 
ATOM     12  CD2 TYR C  64      16.498  -2.733   8.382  1.00 48.34 LIG 0.01  A 
ATOM     13  CE2 TYR C  64      17.385  -1.673   8.375  1.00 49.15 LIG 0.04  A 
ATOM     14  CZ  TYR C  64      17.268  -0.682   9.328  1.00 50.59 LIG 0.07  A 
ATOM     15  CE1 TYR C  64      16.275  -0.744  10.285  1.00 46.73 LIG 0.04  A 
ATOM     16  CD1 TYR C  64      15.391  -1.810  10.283  1.00 46.22 LIG 0.01  A 
BRANCH 14 17
ATOM     17 OH   TYR C  64      18.148   0.376   9.327  1.00 53.82 LIG-0.36  OA
ATOM     18 HH   TYR C  64      18.889   0.124   9.021  1.00 53.82 LIG 0.22  HD
ENDBRANCH 14 17
ENDBRANCH 10 11
ENDBRANCH 8 10
ENDBRANCH 1 8
BRANCH 4 19
ATOM     19  C   PRO C  65       9.304  -3.077   9.993  1.00 37.07 LIG 0.24  C 
ATOM     20  N   HIS C  66       9.070  -3.781  11.099  1.00 40.38 LIG-0.35  N 
ATOM     21 H    HIS C  66       9.584  -3.767  11.788  1.00 40.38 LIG 0.16  HD
ATOM     22 O    PRO C  65       8.602  -3.138   8.967  1.00 29.28 LIG-0.27  OA
BRANCH 20 23
ATOM     23  CA  HIS C  66       7.909  -4.647  11.244  1.00 40.25 LIG 0.17  C 
BRANCH 23 24
ATOM     24  CB  HIS C  66       8.297  -6.112  11.001  1.00 42.68 LIG 0.09  C 
BRANCH 24 25
ATOM     25  CG  HIS C  66       8.674  -6.415   9.583  1.00 48.80 LIG 0.06  A 
ATOM     26 ND1  HIS C  66       9.834  -5.948   9.002  1.00 53.13 LIG-0.24  NA
ATOM     27  CE1 HIS C  66       9.901  -6.374   7.753  1.00 55.16 LIG 0.23  A 
ATOM     28 NE2  HIS C  66       8.826  -7.101   7.502  1.00 53.86 LIG-0.25  NA
ATOM     29  CD2 HIS C  66       8.042  -7.141   8.631  1.00 53.41 LIG 0.14  A 
ENDBRANCH 24 25
ENDBRANCH 23 24
BRANCH 23 30
ATOM     30  C   HIS C  66       7.278  -4.499  12.628  1.00 41.89 LIG 0.22  C 
ATOM     31 O    HIS C  66       6.901  -3.396  13.034  1.00 44.58 LIG-0.29  OA
ENDBRANCH 23 30
ENDBRANCH 20 23
ENDBRANCH 4 19
TORSDOF 9
ENDMDL
MODEL 144
USER: ADFR SOLUTION from run 82
USER: SCORE 9.861409 LL:  -1.566 LR:  -8.296 RR:   0.000 FEB:  -5.611
USER: RMSD 3.764290
USER: SEED 81
USER: STATUS no improvement in best in 27 clusters for 5 generations
USER: GENES 11
USER: genes 0 Translation |==|  0.66328 0.38730 0.50526
USER: genes 1 Rotation |==|  0.20707 0.34001 0.63753 0.84595
USER: genes 2 Torsion [N]-C--CA-[N] |==|  0.36810
USER: genes 3 Torsion [C]-CA--CB-[CG] |==|  0.28111
USER: genes 4 Torsion [CA]-CB--CG-[CD2] |==|  0.51555
USER: genes 5 Torsion [CE2]-CZ--OH-[HH] |==|  0.04216
USER: genes 6 Torsion [N]-CA--C-[N] |==|  0.71421
USER: genes 7 Torsion [C]-N--CA-[C] |==|  0.18381
USER: genes 8 Torsion [N]-CA--CB-[CG] |==|  0.31780
USER: genes 9 Torsion [CA]-CB--CG-[ND1] |==|  0.71831
USER: genes 10 Torsion [N]-CA--C-[O] |==|  0.31789
ROOT
ATOM      1  C   TYR C  64      15.212  -2.524   7.172  1.00 51.57 LIG 0.26  C 
ATOM      2 O    TYR C  64      15.889  -3.358   7.775  1.00 54.62 LIG-0.27  OA
ATOM      3  N   PRO C  65      15.649  -1.273   6.947  1.00 43.10 LIG-0.34  N 
ATOM      4  CA  PRO C  65      15.016  -0.220   6.147  1.00 38.90 LIG 0.18  C 
ATOM      5  CB  PRO C  65      15.321   1.036   6.951  1.00 40.80 LIG 0.04  C 
ATOM      6  CG  PRO C  65      16.651   0.751   7.557  1.00 42.19 LIG 0.02  C 
ATOM      7  CD  PRO C  65      16.715  -0.731   7.808  1.00 44.37 LIG 0.13  C 
ENDROOT
BRANCH 1 8
ATOM      8  CA  TYR C  64      13.825  -2.896   6.653  1.00 49.73 LIG 0.40  C 
ATOM      9  N   TYR C  64      13.903  -4.175   5.952  1.00 50.52 LIG 0.61  N 
BRANCH 8 10
ATOM     10  CB  TYR C  64      12.852  -2.984   7.836  1.00 50.46 LIG 0.09  C 
BRANCH 10 11
ATOM     11  CG  TYR C  64      11.948  -1.785   8.026  1.00 47.68 LIG-0.06  A 
ATOM     12  CD2 TYR C  64      11.108  -1.704   9.131  1.00 48.34 LIG 0.01  A 
ATOM     13  CE2 TYR C  64      10.275  -0.617   9.319  1.00 49.15 LIG 0.04  A 
ATOM     14  CZ  TYR C  64      10.276   0.409   8.396  1.00 50.59 LIG 0.07  A 
ATOM     15  CE1 TYR C  64      11.101   0.355   7.289  1.00 46.73 LIG 0.04  A 
ATOM     16  CD1 TYR C  64      11.932  -0.738   7.110  1.00 46.22 LIG 0.01  A 
BRANCH 14 17
ATOM     17 OH   TYR C  64       9.449   1.494   8.577  1.00 53.82 LIG-0.36  OA
ATOM     18 HH   TYR C  64       9.166   1.502   9.368  1.00 53.82 LIG 0.22  HD
ENDBRANCH 14 17
ENDBRANCH 10 11
ENDBRANCH 8 10
ENDBRANCH 1 8
BRANCH 4 19
ATOM     19  C   PRO C  65      15.640  -0.105   4.760  1.00 37.07 LIG 0.24  C 
ATOM     20  N   HIS C  66      16.480   0.914   4.586  1.00 40.38 LIG-0.35  N 
ATOM     21 H    HIS C  66      16.644   1.502   5.190  1.00 40.38 LIG 0.16  HD
ATOM     22 O    PRO C  65      15.346  -0.925   3.872  1.00 29.28 LIG-0.27  OA
BRANCH 20 23
ATOM     23  CA  HIS C  66      17.204   1.125   3.341  1.00 40.25 LIG 0.17  C 
BRANCH 23 24
ATOM     24  CB  HIS C  66      18.026  -0.120   2.978  1.00 42.68 LIG 0.09  C 
BRANCH 24 25
ATOM     25  CG  HIS C  66      17.570  -0.806   1.727  1.00 48.80 LIG 0.06  A 
ATOM     26 ND1  HIS C  66      16.801  -1.951   1.739  1.00 53.13 LIG-0.24  NA
ATOM     27  CE1 HIS C  66      16.551  -2.325   0.497  1.00 55.16 LIG 0.23  A 
ATOM     28 NE2  HIS C  66      17.131  -1.465  -0.322  1.00 53.86 LIG-0.25  NA
ATOM     29  CD2 HIS C  66      17.776  -0.506   0.423  1.00 53.41 LIG 0.14  A 
ENDBRANCH 24 25
ENDBRANCH 23 24
BRANCH 23 30
ATOM     30  C   HIS C  66      16.250   1.470   2.197  1.00 41.89 LIG 0.22  C 
ATOM     31 O    HIS C  66      16.285   2.580   1.661  1.00 44.58 LIG-0.29  OA
ENDBRANCH 23 30
ENDBRANCH 20 23
ENDBRANCH 4 19
TORSDOF 9
ENDMDL
MODEL 145
USER: ADFR SOLUTION from run 145
USER: SCORE 10.296240 LL:  -2.000 LR:  -8.296 RR:   0.000 FEB:  -5.612
USER: RMSD 7.324131
USER: SEED 144
USER: STATUS no improvement in best in 32 clusters for 5 generations
USER: GENES 11
USER: genes 0 Translation |==|  0.49954 0.34215 0.62214
USER: genes 1 Rotation |==|  0.60269 0.26338 0.92470 0.55563
USER: genes 2 Torsion [N]-C--CA-[N] |==|  0.35682
USER: genes 3 Torsion [C]-CA--CB-[CG] |==|  0.77436
USER: genes 4 Torsion [CA]-CB--CG-[CD2] |==|  0.27188
USER: genes 5 Torsion [CE2]-CZ--OH-[HH] |==|  0.23731
USER: genes 6 Torsion [N]-CA--C-[N] |==|  0.23665
USER: genes 7 Torsion [C]-N--CA-[C] |==|  0.61868
USER: genes 8 Torsion [N]-CA--CB-[CG] |==|  0.01880
USER: genes 9 Torsion [CA]-CB--CG-[ND1] |==|  0.75364
USER: genes 10 Torsion [N]-CA--C-[O] |==|  0.62083
ROOT
ATOM      1  C   TYR C  64      12.142  -3.235   9.276  1.00 51.57 LIG 0.26  C 
ATOM      2 O    TYR C  64      12.293  -2.014   9.318  1.00 54.62 LIG-0.27  OA
ATOM      3  N   PRO C  65      11.019  -3.835   9.704  1.00 43.10 LIG-0.34  N 
ATOM      4  CA  PRO C  65      10.648  -5.249   9.604  1.00 38.90 LIG 0.18  C 
ATOM      5  CB  PRO C  65       9.927  -5.498  10.921  1.00 40.80 LIG 0.04  C 
ATOM      6  CG  PRO C  65       9.265  -4.196  11.210  1.00 42.19 LIG 0.02  C 
ATOM      7  CD  PRO C  65      10.151  -3.115  10.654  1.00 44.37 LIG 0.13  C 
ENDROOT
BRANCH 1 8
ATOM      8  CA  TYR C  64      13.256  -4.124   8.725  1.00 49.73 LIG 0.40  C 
ATOM      9  N   TYR C  64      13.664  -3.624   7.415  1.00 50.52 LIG 0.61  N 
BRANCH 8 10
ATOM     10  CB  TYR C  64      14.438  -4.114   9.702  1.00 50.46 LIG 0.09  C 
BRANCH 10 11
ATOM     11  CG  TYR C  64      15.362  -2.921   9.596  1.00 47.68 LIG-0.06  A 
ATOM     12  CD2 TYR C  64      15.224  -1.842  10.462  1.00 48.34 LIG 0.01  A 
ATOM     13  CE2 TYR C  64      16.058  -0.744  10.377  1.00 49.15 LIG 0.04  A 
ATOM     14  CZ  TYR C  64      17.049  -0.715   9.417  1.00 50.59 LIG 0.07  A 
ATOM     15  CE1 TYR C  64      17.211  -1.773   8.544  1.00 46.73 LIG 0.04  A 
ATOM     16  CD1 TYR C  64      16.370  -2.869   8.637  1.00 46.22 LIG 0.01  A 
BRANCH 14 17
ATOM     17 OH   TYR C  64      17.884   0.376   9.327  1.00 53.82 LIG-0.36  OA
ATOM     18 HH   TYR C  64      18.524   0.284   9.863  1.00 53.82 LIG 0.22  HD
ENDBRANCH 14 17
ENDBRANCH 10 11
ENDBRANCH 8 10
ENDBRANCH 1 8
BRANCH 4 19
ATOM     19  C   PRO C  65       9.697  -5.509   8.441  1.00 37.07 LIG 0.24  C 
ATOM     20  N   HIS C  66      10.272  -5.704   7.255  1.00 40.38 LIG-0.35  N 
ATOM     21 H    HIS C  66      11.120  -5.652   7.125  1.00 40.38 LIG 0.16  HD
ATOM     22 O    PRO C  65       8.467  -5.519   8.629  1.00 29.28 LIG-0.27  OA
BRANCH 20 23
ATOM     23  CA  HIS C  66       9.507  -6.025   6.059  1.00 40.25 LIG 0.17  C 
BRANCH 23 24
ATOM     24  CB  HIS C  66       9.315  -4.775   5.190  1.00 42.68 LIG 0.09  C 
BRANCH 24 25
ATOM     25  CG  HIS C  66      10.075  -3.576   5.672  1.00 48.80 LIG 0.06  A 
ATOM     26 ND1  HIS C  66       9.557  -2.680   6.583  1.00 53.13 LIG-0.24  NA
ATOM     27  CE1 HIS C  66      10.448  -1.733   6.820  1.00 55.16 LIG 0.23  A 
ATOM     28 NE2  HIS C  66      11.525  -1.982   6.096  1.00 53.86 LIG-0.25  NA
ATOM     29  CD2 HIS C  66      11.316  -3.130   5.368  1.00 53.41 LIG 0.14  A 
ENDBRANCH 24 25
ENDBRANCH 23 24
BRANCH 23 30
ATOM     30  C   HIS C  66      10.191  -7.124   5.245  1.00 41.89 LIG 0.22  C 
ATOM     31 O    HIS C  66      10.275  -7.037   4.017  1.00 44.58 LIG-0.29  OA
ENDBRANCH 23 30
ENDBRANCH 20 23
ENDBRANCH 4 19
TORSDOF 9
ENDMDL
MODEL 146
USER: ADFR SOLUTION from run 199
USER: SCORE 10.209044 LL:  -1.921 LR:  -8.288 RR:   0.000 FEB:  -5.604
USER: RMSD 8.436827
USER: SEED 198
USER: STATUS no improvement in best in 51 clusters for 5 generations
USER: GENES 11
USER: genes 0 Translation |==|  0.47409 0.36963 0.51990
USER: genes 1 Rotation |==|  0.75555 0.53431 0.91918 0.58836
USER: genes 2 Torsion [N]-C--CA-[N] |==|  0.32799
USER: genes 3 Torsion [C]-CA--CB-[CG] |==|  0.19541
USER: genes 4 Torsion [CA]-CB--CG-[CD2] |==|  0.12584
USER: genes 5 Torsion [CE2]-CZ--OH-[HH] |==|  0.20165
USER: genes 6 Torsion [N]-CA--C-[N] |==|  0.02381
USER: genes 7 Torsion [C]-N--CA-[C] |==|  0.46343
USER: genes 8 Torsion [N]-CA--CB-[CG] |==|  0.20467
USER: genes 9 Torsion [CA]-CB--CG-[ND1] |==|  0.86500
USER: genes 10 Torsion [N]-CA--C-[O] |==|  0.45381
ROOT
ATOM      1  C   TYR C  64      11.665  -2.802   7.435  1.00 51.57 LIG 0.26  C 
ATOM      2 O    TYR C  64      11.017  -2.101   6.657  1.00 54.62 LIG-0.27  OA
ATOM      3  N   PRO C  65      11.456  -2.783   8.763  1.00 43.10 LIG-0.34  N 
ATOM      4  CA  PRO C  65      12.056  -3.641   9.789  1.00 38.90 LIG 0.18  C 
ATOM      5  CB  PRO C  65      12.248  -2.680  10.954  1.00 40.80 LIG 0.04  C 
ATOM      6  CG  PRO C  65      11.101  -1.739  10.825  1.00 42.19 LIG 0.02  C 
ATOM      7  CD  PRO C  65      10.798  -1.607   9.358  1.00 44.37 LIG 0.13  C 
ENDROOT
BRANCH 1 8
ATOM      8  CA  TYR C  64      12.752  -3.732   6.901  1.00 49.73 LIG 0.40  C 
ATOM      9  N   TYR C  64      12.144  -4.719   6.012  1.00 50.52 LIG 0.61  N 
BRANCH 8 10
ATOM     10  CB  TYR C  64      13.803  -2.902   6.153  1.00 50.46 LIG 0.09  C 
BRANCH 10 11
ATOM     11  CG  TYR C  64      14.675  -2.020   7.020  1.00 47.68 LIG-0.06  A 
ATOM     12  CD2 TYR C  64      15.234  -2.516   8.192  1.00 48.34 LIG 0.01  A 
ATOM     13  CE2 TYR C  64      16.032  -1.723   8.996  1.00 49.15 LIG 0.04  A 
ATOM     14  CZ  TYR C  64      16.281  -0.416   8.630  1.00 50.59 LIG 0.07  A 
ATOM     15  CE1 TYR C  64      15.739   0.103   7.471  1.00 46.73 LIG 0.04  A 
ATOM     16  CD1 TYR C  64      14.942  -0.700   6.672  1.00 46.22 LIG 0.01  A 
BRANCH 14 17
ATOM     17 OH   TYR C  64      17.074   0.378   9.426  1.00 53.82 LIG-0.36  OA
ATOM     18 HH   TYR C  64      17.876   0.136   9.355  1.00 53.82 LIG 0.22  HD
ENDBRANCH 14 17
ENDBRANCH 10 11
ENDBRANCH 8 10
ENDBRANCH 1 8
BRANCH 4 19
ATOM     19  C   PRO C  65      11.120  -4.771  10.206  1.00 37.07 LIG 0.24  C 
ATOM     20  N   HIS C  66      10.018  -4.911   9.471  1.00 40.38 LIG-0.35  N 
ATOM     21 H    HIS C  66       9.809  -4.385   8.824  1.00 40.38 LIG 0.16  HD
ATOM     22 O    PRO C  65      11.401  -5.487  11.184  1.00 29.28 LIG-0.27  OA
BRANCH 20 23
ATOM     23  CA  HIS C  66       9.057  -5.979   9.699  1.00 40.25 LIG 0.17  C 
BRANCH 23 24
ATOM     24  CB  HIS C  66       8.772  -6.136  11.200  1.00 42.68 LIG 0.09  C 
BRANCH 24 25
ATOM     25  CG  HIS C  66       7.919  -5.045  11.774  1.00 48.80 LIG 0.06  A 
ATOM     26 ND1  HIS C  66       8.169  -3.707  11.555  1.00 53.13 LIG-0.24  NA
ATOM     27  CE1 HIS C  66       7.257  -2.983  12.179  1.00 55.16 LIG 0.23  A 
ATOM     28 NE2  HIS C  66       6.424  -3.803  12.796  1.00 53.86 LIG-0.25  NA
ATOM     29  CD2 HIS C  66       6.817  -5.099  12.559  1.00 53.41 LIG 0.14  A 
ENDBRANCH 24 25
ENDBRANCH 23 24
BRANCH 23 30
ATOM     30  C   HIS C  66       7.751  -5.719   8.947  1.00 41.89 LIG 0.22  C 
ATOM     31 O    HIS C  66       6.940  -6.629   8.762  1.00 44.58 LIG-0.29  OA
ENDBRANCH 23 30
ENDBRANCH 20 23
ENDBRANCH 4 19
TORSDOF 9
ENDMDL
MODEL 147
USER: ADFR SOLUTION from run 44
USER: SCORE 10.648111 LL:  -2.367 LR:  -8.281 RR:   0.000 FEB:  -5.596
USER: RMSD 5.573260
USER: SEED 43
USER: STATUS no improvement in best in 24 clusters for 5 generations
USER: GENES 11
USER: genes 0 Translation |==|  0.66950 0.43561 0.40439
USER: genes 1 Rotation |==|  0.53948 0.51292 0.84347 0.86097
USER: genes 2 Torsion [N]-C--CA-[N] |==|  0.43318
USER: genes 3 Torsion [C]-CA--CB-[CG] |==|  0.25025
USER: genes 4 Torsion [CA]-CB--CG-[CD2] |==|  0.18090
USER: genes 5 Torsion [CE2]-CZ--OH-[HH] |==|  0.72807
USER: genes 6 Torsion [N]-CA--C-[N] |==|  0.44780
USER: genes 7 Torsion [C]-N--CA-[C] |==|  0.75687
USER: genes 8 Torsion [N]-CA--CB-[CG] |==|  0.97621
USER: genes 9 Torsion [CA]-CB--CG-[ND1] |==|  0.78751
USER: genes 10 Torsion [N]-CA--C-[O] |==|  0.03440
ROOT
ATOM      1  C   TYR C  64      15.329  -1.763   5.356  1.00 51.57 LIG 0.26  C 
ATOM      2 O    TYR C  64      15.904  -1.840   4.270  1.00 54.62 LIG-0.27  OA
ATOM      3  N   PRO C  65      15.042  -0.585   5.934  1.00 43.10 LIG-0.34  N 
ATOM      4  CA  PRO C  65      14.261  -0.335   7.150  1.00 38.90 LIG 0.18  C 
ATOM      5  CB  PRO C  65      15.008   0.825   7.793  1.00 40.80 LIG 0.04  C 
ATOM      6  CG  PRO C  65      15.526   1.596   6.629  1.00 42.19 LIG 0.02  C 
ATOM      7  CD  PRO C  65      15.810   0.607   5.532  1.00 44.37 LIG 0.13  C 
ENDROOT
BRANCH 1 8
ATOM      8  CA  TYR C  64      14.920  -3.035   6.095  1.00 49.73 LIG 0.40  C 
ATOM      9  N   TYR C  64      14.776  -4.124   5.131  1.00 50.52 LIG 0.61  N 
BRANCH 8 10
ATOM     10  CB  TYR C  64      15.987  -3.376   7.142  1.00 50.46 LIG 0.09  C 
BRANCH 10 11
ATOM     11  CG  TYR C  64      15.772  -2.770   8.512  1.00 47.68 LIG-0.06  A 
ATOM     12  CD2 TYR C  64      14.678  -3.144   9.285  1.00 48.34 LIG 0.01  A 
ATOM     13  CE2 TYR C  64      14.466  -2.600  10.538  1.00 49.15 LIG 0.04  A 
ATOM     14  CZ  TYR C  64      15.356  -1.670  11.035  1.00 50.59 LIG 0.07  A 
ATOM     15  CE1 TYR C  64      16.453  -1.281  10.290  1.00 46.73 LIG 0.04  A 
ATOM     16  CD1 TYR C  64      16.656  -1.832   9.036  1.00 46.22 LIG 0.01  A 
BRANCH 14 17
ATOM     17 OH   TYR C  64      15.151  -1.124  12.281  1.00 53.82 LIG-0.36  OA
ATOM     18 HH   TYR C  64      14.776  -0.376  12.202  1.00 53.82 LIG 0.22  HD
ENDBRANCH 14 17
ENDBRANCH 10 11
ENDBRANCH 8 10
ENDBRANCH 1 8
BRANCH 4 19
ATOM     19  C   PRO C  65      12.830   0.088   6.832  1.00 37.07 LIG 0.24  C 
ATOM     20  N   HIS C  66      11.955  -0.040   7.827  1.00 40.38 LIG-0.35  N 
ATOM     21 H    HIS C  66      12.153  -0.374   8.594  1.00 40.38 LIG 0.16  HD
ATOM     22 O    PRO C  65      12.540   0.511   5.699  1.00 29.28 LIG-0.27  OA
BRANCH 20 23
ATOM     23  CA  HIS C  66      10.566   0.379   7.705  1.00 40.25 LIG 0.17  C 
BRANCH 23 24
ATOM     24  CB  HIS C  66       9.662  -0.489   8.593  1.00 42.68 LIG 0.09  C 
BRANCH 24 25
ATOM     25  CG  HIS C  66      10.359  -1.666   9.205  1.00 48.80 LIG 0.06  A 
ATOM     26 ND1  HIS C  66      10.661  -2.808   8.494  1.00 53.13 LIG-0.24  NA
ATOM     27  CE1 HIS C  66      11.273  -3.669   9.288  1.00 55.16 LIG 0.23  A 
ATOM     28 NE2  HIS C  66      11.379  -3.127  10.488  1.00 53.86 LIG-0.25  NA
ATOM     29  CD2 HIS C  66      10.813  -1.874  10.462  1.00 53.41 LIG 0.14  A 
ENDBRANCH 24 25
ENDBRANCH 23 24
BRANCH 23 30
ATOM     30  C   HIS C  66      10.398   1.852   8.076  1.00 41.89 LIG 0.22  C 
ATOM     31 O    HIS C  66      11.382   2.586   8.202  1.00 44.58 LIG-0.29  OA
ENDBRANCH 23 30
ENDBRANCH 20 23
ENDBRANCH 4 19
TORSDOF 9
ENDMDL
MODEL 148
USER: ADFR SOLUTION from run 54
USER: SCORE 10.299733 LL:  -2.020 LR:  -8.280 RR:   0.000 FEB:  -5.595
USER: RMSD 5.027860
USER: SEED 53
USER: STATUS no improvement in best in 50 clusters for 5 generations
USER: GENES 11
USER: genes 0 Translation |==|  0.50340 0.38812 0.60500
USER: genes 1 Rotation |==|  0.75749 0.80810 0.23562 0.63738
USER: genes 2 Torsion [N]-C--CA-[N] |==|  0.80956
USER: genes 3 Torsion [C]-CA--CB-[CG] |==|  0.16526
USER: genes 4 Torsion [CA]-CB--CG-[CD2] |==|  0.54939
USER: genes 5 Torsion [CE2]-CZ--OH-[HH] |==|  0.20983
USER: genes 6 Torsion [N]-CA--C-[N] |==|  0.93958
USER: genes 7 Torsion [C]-N--CA-[C] |==|  0.53847
USER: genes 8 Torsion [N]-CA--CB-[CG] |==|  0.47855
USER: genes 9 Torsion [CA]-CB--CG-[ND1] |==|  0.76137
USER: genes 10 Torsion [N]-CA--C-[O] |==|  0.30637
ROOT
ATOM      1  C   TYR C  64      12.215  -2.511   8.967  1.00 51.57 LIG 0.26  C 
ATOM      2 O    TYR C  64      11.777  -1.570   9.630  1.00 54.62 LIG-0.27  OA
ATOM      3  N   PRO C  65      12.133  -2.544   7.626  1.00 43.10 LIG-0.34  N 
ATOM      4  CA  PRO C  65      12.713  -3.525   6.704  1.00 38.90 LIG 0.18  C 
ATOM      5  CB  PRO C  65      11.636  -3.654   5.636  1.00 40.80 LIG 0.04  C 
ATOM      6  CG  PRO C  65      11.039  -2.291   5.574  1.00 42.19 LIG 0.02  C 
ATOM      7  CD  PRO C  65      11.119  -1.709   6.959  1.00 44.37 LIG 0.13  C 
ENDROOT
BRANCH 1 8
ATOM      8  CA  TYR C  64      12.875  -3.697   9.668  1.00 49.73 LIG 0.40  C 
ATOM      9  N   TYR C  64      12.022  -4.874   9.524  1.00 50.52 LIG 0.61  N 
BRANCH 8 10
ATOM     10  CB  TYR C  64      14.254  -3.946   9.044  1.00 50.46 LIG 0.09  C 
BRANCH 10 11
ATOM     11  CG  TYR C  64      15.225  -2.789   9.127  1.00 47.68 LIG-0.06  A 
ATOM     12  CD2 TYR C  64      16.343  -2.746   8.301  1.00 48.34 LIG 0.01  A 
ATOM     13  CE2 TYR C  64      17.241  -1.697   8.363  1.00 49.15 LIG 0.04  A 
ATOM     14  CZ  TYR C  64      17.026  -0.671   9.261  1.00 50.59 LIG 0.07  A 
ATOM     15  CE1 TYR C  64      15.924  -0.687  10.093  1.00 46.73 LIG 0.04  A 
ATOM     16  CD1 TYR C  64      15.030  -1.742  10.022  1.00 46.22 LIG 0.01  A 
BRANCH 14 17
ATOM     17 OH   TYR C  64      17.917   0.376   9.329  1.00 53.82 LIG-0.36  OA
ATOM     18 HH   TYR C  64      17.802   0.885   8.671  1.00 53.82 LIG 0.22  HD
ENDBRANCH 14 17
ENDBRANCH 10 11
ENDBRANCH 8 10
ENDBRANCH 1 8
BRANCH 4 19
ATOM     19  C   PRO C  65      14.006  -3.020   6.071  1.00 37.07 LIG 0.24  C 
ATOM     20  N   HIS C  66      14.169  -1.698   6.066  1.00 40.38 LIG-0.35  N 
ATOM     21 H    HIS C  66      13.579  -1.146   6.359  1.00 40.38 LIG 0.16  HD
ATOM     22 O    PRO C  65      14.823  -3.825   5.591  1.00 29.28 LIG-0.27  OA
BRANCH 20 23
ATOM     23  CA  HIS C  66      15.374  -1.062   5.556  1.00 40.25 LIG 0.17  C 
BRANCH 23 24
ATOM     24  CB  HIS C  66      15.436  -1.172   4.026  1.00 42.68 LIG 0.09  C 
BRANCH 24 25
ATOM     25  CG  HIS C  66      16.550  -0.386   3.404  1.00 48.80 LIG 0.06  A 
ATOM     26 ND1  HIS C  66      16.430   0.948   3.074  1.00 53.13 LIG-0.24  NA
ATOM     27  CE1 HIS C  66      17.566   1.373   2.548  1.00 55.16 LIG 0.23  A 
ATOM     28 NE2  HIS C  66      18.417   0.363   2.524  1.00 53.86 LIG-0.25  NA
ATOM     29  CD2 HIS C  66      17.805  -0.749   3.053  1.00 53.41 LIG 0.14  A 
ENDBRANCH 24 25
ENDBRANCH 23 24
BRANCH 23 30
ATOM     30  C   HIS C  66      15.444   0.407   5.975  1.00 41.89 LIG 0.22  C 
ATOM     31 O    HIS C  66      16.279   0.788   6.798  1.00 44.58 LIG-0.29  OA
ENDBRANCH 23 30
ENDBRANCH 20 23
ENDBRANCH 4 19
TORSDOF 9
ENDMDL
MODEL 149
USER: ADFR SOLUTION from run 108
USER: SCORE 10.209437 LL:  -1.936 LR:  -8.273 RR:   0.000 FEB:  -5.589
USER: RMSD 4.692257
USER: SEED 107
USER: STATUS no improvement in best in 16 clusters for 5 generations
USER: GENES 11
USER: genes 0 Translation |==|  0.77952 0.45359 0.54320
USER: genes 1 Rotation |==|  0.36118 0.20296 0.85856 0.61802
USER: genes 2 Torsion [N]-C--CA-[N] |==|  0.40212
USER: genes 3 Torsion [C]-CA--CB-[CG] |==|  0.10586
USER: genes 4 Torsion [CA]-CB--CG-[CD2] |==|  0.26028
USER: genes 5 Torsion [CE2]-CZ--OH-[HH] |==|  0.69832
USER: genes 6 Torsion [N]-CA--C-[N] |==|  0.55257
USER: genes 7 Torsion [C]-N--CA-[C] |==|  0.50538
USER: genes 8 Torsion [N]-CA--CB-[CG] |==|  0.72490
USER: genes 9 Torsion [CA]-CB--CG-[ND1] |==|  0.96254
USER: genes 10 Torsion [N]-CA--C-[O] |==|  0.00754
ROOT
ATOM      1  C   TYR C  64      17.392  -1.480   7.855  1.00 51.57 LIG 0.26  C 
ATOM      2 O    TYR C  64      18.154  -0.720   8.453  1.00 54.62 LIG-0.27  OA
ATOM      3  N   PRO C  65      16.212  -1.070   7.360  1.00 43.10 LIG-0.34  N 
ATOM      4  CA  PRO C  65      15.266  -1.819   6.526  1.00 38.90 LIG 0.18  C 
ATOM      5  CB  PRO C  65      13.917  -1.351   7.052  1.00 40.80 LIG 0.04  C 
ATOM      6  CG  PRO C  65      14.167   0.063   7.451  1.00 42.19 LIG 0.02  C 
ATOM      7  CD  PRO C  65      15.594   0.145   7.919  1.00 44.37 LIG 0.13  C 
ENDROOT
BRANCH 1 8
ATOM      8  CA  TYR C  64      17.775  -2.945   7.657  1.00 49.73 LIG 0.40  C 
ATOM      9  N   TYR C  64      19.218  -3.040   7.451  1.00 50.52 LIG 0.61  N 
BRANCH 8 10
ATOM     10  CB  TYR C  64      17.348  -3.749   8.891  1.00 50.46 LIG 0.09  C 
BRANCH 10 11
ATOM     11  CG  TYR C  64      16.028  -3.343   9.509  1.00 47.68 LIG-0.06  A 
ATOM     12  CD2 TYR C  64      14.851  -3.988   9.147  1.00 48.34 LIG 0.01  A 
ATOM     13  CE2 TYR C  64      13.637  -3.629   9.701  1.00 49.15 LIG 0.04  A 
ATOM     14  CZ  TYR C  64      13.589  -2.612  10.633  1.00 50.59 LIG 0.07  A 
ATOM     15  CE1 TYR C  64      14.742  -1.954  11.013  1.00 46.73 LIG 0.04  A 
ATOM     16  CD1 TYR C  64      15.954  -2.322  10.452  1.00 46.22 LIG 0.01  A 
BRANCH 14 17
ATOM     17 OH   TYR C  64      12.383  -2.249  11.188  1.00 53.82 LIG-0.36  OA
ATOM     18 HH   TYR C  64      12.151  -1.499  10.888  1.00 53.82 LIG 0.22  HD
ENDBRANCH 14 17
ENDBRANCH 10 11
ENDBRANCH 8 10
ENDBRANCH 1 8
BRANCH 4 19
ATOM     19  C   PRO C  65      15.395  -1.457   5.050  1.00 37.07 LIG 0.24  C 
ATOM     20  N   HIS C  66      14.352  -1.772   4.285  1.00 40.38 LIG-0.35  N 
ATOM     21 H    HIS C  66      13.657  -2.186   4.575  1.00 40.38 LIG 0.16  HD
ATOM     22 O    PRO C  65      16.432  -0.914   4.628  1.00 29.28 LIG-0.27  OA
BRANCH 20 23
ATOM     23  CA  HIS C  66      14.292  -1.437   2.869  1.00 40.25 LIG 0.17  C 
BRANCH 23 24
ATOM     24  CB  HIS C  66      15.458  -2.089   2.112  1.00 42.68 LIG 0.09  C 
BRANCH 24 25
ATOM     25  CG  HIS C  66      16.609  -1.164   1.856  1.00 48.80 LIG 0.06  A 
ATOM     26 ND1  HIS C  66      16.521   0.203   2.015  1.00 53.13 LIG-0.24  NA
ATOM     27  CE1 HIS C  66      17.685   0.755   1.721  1.00 55.16 LIG 0.23  A 
ATOM     28 NE2  HIS C  66      18.526  -0.204   1.377  1.00 53.86 LIG-0.25  NA
ATOM     29  CD2 HIS C  66      17.877  -1.414   1.452  1.00 53.41 LIG 0.14  A 
ENDBRANCH 24 25
ENDBRANCH 23 24
BRANCH 23 30
ATOM     30  C   HIS C  66      12.964  -1.875   2.253  1.00 41.89 LIG 0.22  C 
ATOM     31 O    HIS C  66      12.086  -2.389   2.950  1.00 44.58 LIG-0.29  OA
ENDBRANCH 23 30
ENDBRANCH 20 23
ENDBRANCH 4 19
TORSDOF 9
ENDMDL
MODEL 150
USER: ADFR SOLUTION from run 54
USER: SCORE 10.143403 LL:  -1.882 LR:  -8.262 RR:   0.000 FEB:  -5.577
USER: RMSD 6.475939
USER: SEED 53
USER: STATUS no improvement in best in 50 clusters for 5 generations
USER: GENES 11
USER: genes 0 Translation |==|  0.74357 0.50134 0.61243
USER: genes 1 Rotation |==|  0.70074 0.19523 0.83085 0.58577
USER: genes 2 Torsion [N]-C--CA-[N] |==|  0.87393
USER: genes 3 Torsion [C]-CA--CB-[CG] |==|  0.09986
USER: genes 4 Torsion [CA]-CB--CG-[CD2] |==|  0.61889
USER: genes 5 Torsion [CE2]-CZ--OH-[HH] |==|  0.88000
USER: genes 6 Torsion [N]-CA--C-[N] |==|  0.47984
USER: genes 7 Torsion [C]-N--CA-[C] |==|  0.11926
USER: genes 8 Torsion [N]-CA--CB-[CG] |==|  0.20616
USER: genes 9 Torsion [CA]-CB--CG-[ND1] |==|  0.21887
USER: genes 10 Torsion [N]-CA--C-[O] |==|  0.21450
ROOT
ATOM      1  C   TYR C  64      16.718  -0.728   9.101  1.00 51.57 LIG 0.26  C 
ATOM      2 O    TYR C  64      17.003   0.376   9.566  1.00 54.62 LIG-0.27  OA
ATOM      3  N   PRO C  65      15.814  -1.538   9.678  1.00 43.10 LIG-0.34  N 
ATOM      4  CA  PRO C  65      15.286  -2.811   9.179  1.00 38.90 LIG 0.18  C 
ATOM      5  CB  PRO C  65      15.151  -3.636  10.452  1.00 40.80 LIG 0.04  C 
ATOM      6  CG  PRO C  65      14.811  -2.624  11.491  1.00 42.19 LIG 0.02  C 
ATOM      7  CD  PRO C  65      15.499  -1.344  11.104  1.00 44.37 LIG 0.13  C 
ENDROOT
BRANCH 1 8
ATOM      8  CA  TYR C  64      17.402  -1.220   7.827  1.00 49.73 LIG 0.40  C 
ATOM      9  N   TYR C  64      17.820  -2.608   8.014  1.00 50.52 LIG 0.61  N 
BRANCH 8 10
ATOM     10  CB  TYR C  64      16.425  -1.102   6.652  1.00 50.46 LIG 0.09  C 
BRANCH 10 11
ATOM     11  CG  TYR C  64      15.505   0.099   6.688  1.00 47.68 LIG-0.06  A 
ATOM     12  CD2 TYR C  64      14.160  -0.033   6.361  1.00 48.34 LIG 0.01  A 
ATOM     13  CE2 TYR C  64      13.306   1.053   6.388  1.00 49.15 LIG 0.04  A 
ATOM     14  CZ  TYR C  64      13.794   2.293   6.746  1.00 50.59 LIG 0.07  A 
ATOM     15  CE1 TYR C  64      15.125   2.454   7.077  1.00 46.73 LIG 0.04  A 
ATOM     16  CD1 TYR C  64      15.972   1.359   7.047  1.00 46.22 LIG 0.01  A 
BRANCH 14 17
ATOM     17 OH   TYR C  64      12.949   3.379   6.775  1.00 53.82 LIG-0.36  OA
ATOM     18 HH   TYR C  64      12.454   3.368   6.095  1.00 53.82 LIG 0.22  HD
ENDBRANCH 14 17
ENDBRANCH 10 11
ENDBRANCH 8 10
ENDBRANCH 1 8
BRANCH 4 19
ATOM     19  C   PRO C  65      13.917  -2.645   8.528  1.00 37.07 LIG 0.24  C 
ATOM     20  N   HIS C  66      13.433  -3.725   7.916  1.00 40.38 LIG-0.35  N 
ATOM     21 H    HIS C  66      13.865  -4.465   7.847  1.00 40.38 LIG 0.16  HD
ATOM     22 O    PRO C  65      13.329  -1.550   8.577  1.00 29.28 LIG-0.27  OA
BRANCH 20 23
ATOM     23  CA  HIS C  66      12.115  -3.749   7.300  1.00 40.25 LIG 0.17  C 
BRANCH 23 24
ATOM     24  CB  HIS C  66      11.027  -3.947   8.366  1.00 42.68 LIG 0.09  C 
BRANCH 24 25
ATOM     25  CG  HIS C  66      10.764  -2.730   9.200  1.00 48.80 LIG 0.06  A 
ATOM     26 ND1  HIS C  66      10.001  -1.671   8.758  1.00 53.13 LIG-0.24  NA
ATOM     27  CE1 HIS C  66       9.941  -0.748   9.702  1.00 55.16 LIG 0.23  A 
ATOM     28 NE2  HIS C  66      10.639  -1.171  10.742  1.00 53.86 LIG-0.25  NA
ATOM     29  CD2 HIS C  66      11.165  -2.408  10.452  1.00 53.41 LIG 0.14  A 
ENDBRANCH 24 25
ENDBRANCH 23 24
BRANCH 23 30
ATOM     30  C   HIS C  66      11.846  -2.465   6.516  1.00 41.89 LIG 0.22  C 
ATOM     31 O    HIS C  66      12.352  -2.289   5.404  1.00 44.58 LIG-0.29  OA
ENDBRANCH 23 30
ENDBRANCH 20 23
ENDBRANCH 4 19
TORSDOF 9
ENDMDL
MODEL 151
USER: ADFR SOLUTION from run 124
USER: SCORE 10.522977 LL:  -2.269 LR:  -8.254 RR:   0.000 FEB:  -5.569
USER: RMSD 7.983296
USER: SEED 123
USER: STATUS no improvement in best in 34 clusters for 5 generations
USER: GENES 11
USER: genes 0 Translation |==|  0.65199 0.42440 0.22633
USER: genes 1 Rotation |==|  0.75990 0.65619 0.89153 0.56896
USER: genes 2 Torsion [N]-C--CA-[N] |==|  0.40261
USER: genes 3 Torsion [C]-CA--CB-[CG] |==|  0.06852
USER: genes 4 Torsion [CA]-CB--CG-[CD2] |==|  0.25483
USER: genes 5 Torsion [CE2]-CZ--OH-[HH] |==|  0.81274
USER: genes 6 Torsion [N]-CA--C-[N] |==|  0.59485
USER: genes 7 Torsion [C]-N--CA-[C] |==|  0.80739
USER: genes 8 Torsion [N]-CA--CB-[CG] |==|  0.07598
USER: genes 9 Torsion [CA]-CB--CG-[ND1] |==|  0.77366
USER: genes 10 Torsion [N]-CA--C-[O] |==|  0.91666
ROOT
ATOM      1  C   TYR C  64      15.001  -1.940   2.151  1.00 51.57 LIG 0.26  C 
ATOM      2 O    TYR C  64      14.089  -1.782   1.338  1.00 54.62 LIG-0.27  OA
ATOM      3  N   PRO C  65      14.934  -1.464   3.406  1.00 43.10 LIG-0.34  N 
ATOM      4  CA  PRO C  65      15.874  -1.677   4.510  1.00 38.90 LIG 0.18  C 
ATOM      5  CB  PRO C  65      15.873  -0.327   5.213  1.00 40.80 LIG 0.04  C 
ATOM      6  CG  PRO C  65      14.482   0.167   5.020  1.00 42.19 LIG 0.02  C 
ATOM      7  CD  PRO C  65      14.004  -0.358   3.694  1.00 44.37 LIG 0.13  C 
ENDROOT
BRANCH 1 8
ATOM      8  CA  TYR C  64      16.265  -2.695   1.744  1.00 49.73 LIG 0.40  C 
ATOM      9  N   TYR C  64      15.905  -3.770   0.823  1.00 50.52 LIG 0.61  N 
BRANCH 8 10
ATOM     10  CB  TYR C  64      17.244  -1.718   1.082  1.00 50.46 LIG 0.09  C 
BRANCH 10 11
ATOM     11  CG  TYR C  64      17.080  -0.265   1.472  1.00 47.68 LIG-0.06  A 
ATOM     12  CD2 TYR C  64      17.800   0.264   2.538  1.00 48.34 LIG 0.01  A 
ATOM     13  CE2 TYR C  64      17.661   1.588   2.909  1.00 49.15 LIG 0.04  A 
ATOM     14  CZ  TYR C  64      16.794   2.403   2.209  1.00 50.59 LIG 0.07  A 
ATOM     15  CE1 TYR C  64      16.068   1.905   1.146  1.00 46.73 LIG 0.04  A 
ATOM     16  CD1 TYR C  64      16.214   0.577   0.782  1.00 46.22 LIG 0.01  A 
BRANCH 14 17
ATOM     17 OH   TYR C  64      16.651   3.723   2.573  1.00 53.82 LIG-0.36  OA
ATOM     18 HH   TYR C  64      16.283   3.767   3.327  1.00 53.82 LIG 0.22  HD
ENDBRANCH 14 17
ENDBRANCH 10 11
ENDBRANCH 8 10
ENDBRANCH 1 8
BRANCH 4 19
ATOM     19  C   PRO C  65      15.390  -2.757   5.472  1.00 37.07 LIG 0.24  C 
ATOM     20  N   HIS C  66      15.700  -2.570   6.754  1.00 40.38 LIG-0.35  N 
ATOM     21 H    HIS C  66      16.174  -1.911   7.037  1.00 40.38 LIG 0.16  HD
ATOM     22 O    PRO C  65      14.759  -3.739   5.044  1.00 29.28 LIG-0.27  OA
BRANCH 20 23
ATOM     23  CA  HIS C  66      15.258  -3.475   7.805  1.00 40.25 LIG 0.17  C 
BRANCH 23 24
ATOM     24  CB  HIS C  66      15.996  -3.178   9.118  1.00 42.68 LIG 0.09  C 
BRANCH 24 25
ATOM     25  CG  HIS C  66      16.450  -1.756   9.252  1.00 48.80 LIG 0.06  A 
ATOM     26 ND1  HIS C  66      17.606  -1.282   8.666  1.00 53.13 LIG-0.24  NA
ATOM     27  CE1 HIS C  66      17.748   0.000   8.952  1.00 55.16 LIG 0.23  A 
ATOM     28 NE2  HIS C  66      16.726   0.376   9.701  1.00 53.86 LIG-0.25  NA
ATOM     29  CD2 HIS C  66      15.901  -0.705   9.904  1.00 53.41 LIG 0.14  A 
ENDBRANCH 24 25
ENDBRANCH 23 24
BRANCH 23 30
ATOM     30  C   HIS C  66      13.748  -3.374   8.023  1.00 41.89 LIG 0.22  C 
ATOM     31 O    HIS C  66      13.151  -2.315   7.813  1.00 44.58 LIG-0.29  OA
ENDBRANCH 23 30
ENDBRANCH 20 23
ENDBRANCH 4 19
TORSDOF 9
ENDMDL
MODEL 152
USER: ADFR SOLUTION from run 78
USER: SCORE 10.058260 LL:  -1.809 LR:  -8.249 RR:   0.000 FEB:  -5.564
USER: RMSD 2.874022
USER: SEED 77
USER: STATUS no improvement in best in 25 clusters for 5 generations
USER: GENES 11
USER: genes 0 Translation |==|  0.67005 0.32852 0.63395
USER: genes 1 Rotation |==|  0.33391 0.64600 0.59933 0.93730
USER: genes 2 Torsion [N]-C--CA-[N] |==|  0.91107
USER: genes 3 Torsion [C]-CA--CB-[CG] |==|  0.22738
USER: genes 4 Torsion [CA]-CB--CG-[CD2] |==|  0.69033
USER: genes 5 Torsion [CE2]-CZ--OH-[HH] |==|  0.25724
USER: genes 6 Torsion [N]-CA--C-[N] |==|  0.25773
USER: genes 7 Torsion [C]-N--CA-[C] |==|  0.59283
USER: genes 8 Torsion [N]-CA--CB-[CG] |==|  0.88548
USER: genes 9 Torsion [CA]-CB--CG-[ND1] |==|  0.22265
USER: genes 10 Torsion [N]-CA--C-[O] |==|  0.15484
ROOT
ATOM      1  C   TYR C  64      15.339  -3.450   9.488  1.00 51.57 LIG 0.26  C 
ATOM      2 O    TYR C  64      15.274  -4.666   9.311  1.00 54.62 LIG-0.27  OA
ATOM      3  N   PRO C  65      16.176  -2.666   8.787  1.00 43.10 LIG-0.34  N 
ATOM      4  CA  PRO C  65      16.277  -1.204   8.799  1.00 38.90 LIG 0.18  C 
ATOM      5  CB  PRO C  65      17.776  -0.973   8.672  1.00 40.80 LIG 0.04  C 
ATOM      6  CG  PRO C  65      18.235  -2.110   7.827  1.00 42.19 LIG 0.02  C 
ATOM      7  CD  PRO C  65      17.349  -3.283   8.142  1.00 44.37 LIG 0.13  C 
ENDROOT
BRANCH 1 8
ATOM      8  CA  TYR C  64      14.454  -2.782  10.538  1.00 49.73 LIG 0.40  C 
ATOM      9  N   TYR C  64      15.162  -1.637  11.104  1.00 50.52 LIG 0.61  N 
BRANCH 8 10
ATOM     10  CB  TYR C  64      13.141  -2.338   9.881  1.00 50.46 LIG 0.09  C 
BRANCH 10 11
ATOM     11  CG  TYR C  64      12.091  -3.416   9.728  1.00 47.68 LIG-0.06  A 
ATOM     12  CD2 TYR C  64      11.745  -3.889   8.467  1.00 48.34 LIG 0.01  A 
ATOM     13  CE2 TYR C  64      10.787  -4.873   8.308  1.00 49.15 LIG 0.04  A 
ATOM     14  CZ  TYR C  64      10.163  -5.400   9.421  1.00 50.59 LIG 0.07  A 
ATOM     15  CE1 TYR C  64      10.488  -4.951  10.686  1.00 46.73 LIG 0.04  A 
ATOM     16  CD1 TYR C  64      11.449  -3.964  10.833  1.00 46.22 LIG 0.01  A 
BRANCH 14 17
ATOM     17 OH   TYR C  64       9.208  -6.379   9.270  1.00 53.82 LIG-0.36  OA
ATOM     18 HH   TYR C  64       9.570  -7.136   9.328  1.00 53.82 LIG 0.22  HD
ENDBRANCH 14 17
ENDBRANCH 10 11
ENDBRANCH 8 10
ENDBRANCH 1 8
BRANCH 4 19
ATOM     19  C   PRO C  65      15.558  -0.572   7.611  1.00 37.07 LIG 0.24  C 
ATOM     20  N   HIS C  66      14.292  -0.216   7.824  1.00 40.38 LIG-0.35  N 
ATOM     21 H    HIS C  66      13.876  -0.359   8.563  1.00 40.38 LIG 0.16  HD
ATOM     22 O    PRO C  65      16.150  -0.428   6.527  1.00 29.28 LIG-0.27  OA
BRANCH 20 23
ATOM     23  CA  HIS C  66      13.489   0.456   6.813  1.00 40.25 LIG 0.17  C 
BRANCH 23 24
ATOM     24  CB  HIS C  66      12.728  -0.569   5.960  1.00 42.68 LIG 0.09  C 
BRANCH 24 25
ATOM     25  CG  HIS C  66      13.537  -1.778   5.597  1.00 48.80 LIG 0.06  A 
ATOM     26 ND1  HIS C  66      13.738  -2.831   6.464  1.00 53.13 LIG-0.24  NA
ATOM     27  CE1 HIS C  66      14.482  -3.749   5.872  1.00 55.16 LIG 0.23  A 
ATOM     28 NE2  HIS C  66      14.772  -3.330   4.653  1.00 53.86 LIG-0.25  NA
ATOM     29  CD2 HIS C  66      14.192  -2.098   4.457  1.00 53.41 LIG 0.14  A 
ENDBRANCH 24 25
ENDBRANCH 23 24
BRANCH 23 30
ATOM     30  C   HIS C  66      12.503   1.435   7.450  1.00 41.89 LIG 0.22  C 
ATOM     31 O    HIS C  66      12.901   2.329   8.202  1.00 44.58 LIG-0.29  OA
ENDBRANCH 23 30
ENDBRANCH 20 23
ENDBRANCH 4 19
TORSDOF 9
ENDMDL
MODEL 153
USER: ADFR SOLUTION from run 150
USER: SCORE 10.810643 LL:  -2.563 LR:  -8.248 RR:   0.000 FEB:  -5.563
USER: RMSD 5.038072
USER: SEED 149
USER: STATUS no improvement in best in 28 clusters for 5 generations
USER: GENES 11
USER: genes 0 Translation |==|  0.63555 0.57243 0.51157
USER: genes 1 Rotation |==|  0.44424 0.79753 0.19905 0.76037
USER: genes 2 Torsion [N]-C--CA-[N] |==|  0.40329
USER: genes 3 Torsion [C]-CA--CB-[CG] |==|  0.10480
USER: genes 4 Torsion [CA]-CB--CG-[CD2] |==|  0.73851
USER: genes 5 Torsion [CE2]-CZ--OH-[HH] |==|  0.24508
USER: genes 6 Torsion [N]-CA--C-[N] |==|  0.20474
USER: genes 7 Torsion [C]-N--CA-[C] |==|  0.69099
USER: genes 8 Torsion [N]-CA--CB-[CG] |==|  0.93965
USER: genes 9 Torsion [CA]-CB--CG-[ND1] |==|  0.85767
USER: genes 10 Torsion [N]-CA--C-[O] |==|  0.84100
ROOT
ATOM      1  C   TYR C  64      14.693   0.392   7.285  1.00 51.57 LIG 0.26  C 
ATOM      2 O    TYR C  64      13.643   0.889   7.694  1.00 54.62 LIG-0.27  OA
ATOM      3  N   PRO C  65      14.711  -0.675   6.468  1.00 43.10 LIG-0.34  N 
ATOM      4  CA  PRO C  65      15.864  -1.294   5.808  1.00 38.90 LIG 0.18  C 
ATOM      5  CB  PRO C  65      15.526  -2.777   5.871  1.00 40.80 LIG 0.04  C 
ATOM      6  CG  PRO C  65      14.041  -2.803   5.765  1.00 42.19 LIG 0.02  C 
ATOM      7  CD  PRO C  65      13.528  -1.552   6.423  1.00 44.37 LIG 0.13  C 
ENDROOT
BRANCH 1 8
ATOM      8  CA  TYR C  64      16.035   0.985   7.709  1.00 49.73 LIG 0.40  C 
ATOM      9  N   TYR C  64      15.901   2.435   7.829  1.00 50.52 LIG 0.61  N 
BRANCH 8 10
ATOM     10  CB  TYR C  64      16.459   0.366   9.046  1.00 50.46 LIG 0.09  C 
BRANCH 10 11
ATOM     11  CG  TYR C  64      16.138  -1.102   9.216  1.00 47.68 LIG-0.06  A 
ATOM     12  CD2 TYR C  64      14.963  -1.499   9.844  1.00 48.34 LIG 0.01  A 
ATOM     13  CE2 TYR C  64      14.654  -2.836  10.009  1.00 49.15 LIG 0.04  A 
ATOM     14  CZ  TYR C  64      15.526  -3.798   9.541  1.00 50.59 LIG 0.07  A 
ATOM     15  CE1 TYR C  64      16.701  -3.434   8.912  1.00 46.73 LIG 0.04  A 
ATOM     16  CD1 TYR C  64      17.000  -2.091   8.752  1.00 46.22 LIG 0.01  A 
BRANCH 14 17
ATOM     17 OH   TYR C  64      15.225  -5.132   9.702  1.00 53.82 LIG-0.36  OA
ATOM     18 HH   TYR C  64      14.769  -5.397   9.048  1.00 53.82 LIG 0.22  HD
ENDBRANCH 14 17
ENDBRANCH 10 11
ENDBRANCH 8 10
ENDBRANCH 1 8
BRANCH 4 19
ATOM     19  C   PRO C  65      15.990  -0.858   4.352  1.00 37.07 LIG 0.24  C 
ATOM     20  N   HIS C  66      16.425   0.385   4.156  1.00 40.38 LIG-0.35  N 
ATOM     21 H    HIS C  66      16.592   0.936   4.795  1.00 40.38 LIG 0.16  HD
ATOM     22 O    PRO C  65      15.685  -1.642   3.436  1.00 29.28 LIG-0.27  OA
BRANCH 20 23
ATOM     23  CA  HIS C  66      16.660   0.931   2.828  1.00 40.25 LIG 0.17  C 
BRANCH 23 24
ATOM     24  CB  HIS C  66      15.896   2.250   2.645  1.00 42.68 LIG 0.09  C 
BRANCH 24 25
ATOM     25  CG  HIS C  66      14.737   2.417   3.580  1.00 48.80 LIG 0.06  A 
ATOM     26 ND1  HIS C  66      13.761   1.456   3.740  1.00 53.13 LIG-0.24  NA
ATOM     27  CE1 HIS C  66      12.874   1.875   4.625  1.00 55.16 LIG 0.23  A 
ATOM     28 NE2  HIS C  66      13.239   3.073   5.046  1.00 53.86 LIG-0.25  NA
ATOM     29  CD2 HIS C  66      14.401   3.435   4.406  1.00 53.41 LIG 0.14  A 
ENDBRANCH 24 25
ENDBRANCH 23 24
BRANCH 23 30
ATOM     30  C   HIS C  66      18.151   1.155   2.577  1.00 41.89 LIG 0.22  C 
ATOM     31 O    HIS C  66      18.814   1.876   3.327  1.00 44.58 LIG-0.29  OA
ENDBRANCH 23 30
ENDBRANCH 20 23
ENDBRANCH 4 19
TORSDOF 9
ENDMDL
MODEL 154
USER: ADFR SOLUTION from run 123
USER: SCORE 10.431758 LL:  -2.190 LR:  -8.242 RR:   0.000 FEB:  -5.557
USER: RMSD 5.669029
USER: SEED 122
USER: STATUS no improvement in best in 28 clusters for 5 generations
USER: GENES 11
USER: genes 0 Translation |==|  0.64075 0.36515 0.68949
USER: genes 1 Rotation |==|  0.48424 0.12495 0.82344 0.56691
USER: genes 2 Torsion [N]-C--CA-[N] |==|  0.87979
USER: genes 3 Torsion [C]-CA--CB-[CG] |==|  0.09425
USER: genes 4 Torsion [CA]-CB--CG-[CD2] |==|  0.69781
USER: genes 5 Torsion [CE2]-CZ--OH-[HH] |==|  0.75226
USER: genes 6 Torsion [N]-CA--C-[N] |==|  0.34789
USER: genes 7 Torsion [C]-N--CA-[C] |==|  0.74398
USER: genes 8 Torsion [N]-CA--CB-[CG] |==|  0.70255
USER: genes 9 Torsion [CA]-CB--CG-[ND1] |==|  0.36996
USER: genes 10 Torsion [N]-CA--C-[O] |==|  0.02959
ROOT
ATOM      1  C   TYR C  64      14.790  -2.873  10.488  1.00 51.57 LIG 0.26  C 
ATOM      2 O    TYR C  64      15.237  -2.074  11.312  1.00 54.62 LIG-0.27  OA
ATOM      3  N   PRO C  65      13.478  -2.960  10.211  1.00 43.10 LIG-0.34  N 
ATOM      4  CA  PRO C  65      12.818  -3.765   9.179  1.00 38.90 LIG 0.18  C 
ATOM      5  CB  PRO C  65      11.540  -4.214   9.873  1.00 40.80 LIG 0.04  C 
ATOM      6  CG  PRO C  65      11.209  -3.071  10.770  1.00 42.19 LIG 0.02  C 
ATOM      7  CD  PRO C  65      12.511  -2.456  11.202  1.00 44.37 LIG 0.13  C 
ENDROOT
BRANCH 1 8
ATOM      8  CA  TYR C  64      15.737  -3.811   9.743  1.00 49.73 LIG 0.40  C 
ATOM      9  N   TYR C  64      15.151  -5.149   9.702  1.00 50.52 LIG 0.61  N 
BRANCH 8 10
ATOM     10  CB  TYR C  64      15.965  -3.276   8.324  1.00 50.46 LIG 0.09  C 
BRANCH 10 11
ATOM     11  CG  TYR C  64      15.973  -1.768   8.190  1.00 47.68 LIG-0.06  A 
ATOM     12  CD2 TYR C  64      14.920  -1.110   7.565  1.00 48.34 LIG 0.01  A 
ATOM     13  CE2 TYR C  64      14.912   0.266   7.433  1.00 49.15 LIG 0.04  A 
ATOM     14  CZ  TYR C  64      15.967   1.003   7.932  1.00 50.59 LIG 0.07  A 
ATOM     15  CE1 TYR C  64      17.026   0.376   8.559  1.00 46.73 LIG 0.04  A 
ATOM     16  CD1 TYR C  64      17.024  -1.003   8.686  1.00 46.22 LIG 0.01  A 
BRANCH 14 17
ATOM     17 OH   TYR C  64      15.966   2.373   7.804  1.00 53.82 LIG-0.36  OA
ATOM     18 HH   TYR C  64      16.330   2.587   7.077  1.00 53.82 LIG 0.22  HD
ENDBRANCH 14 17
ENDBRANCH 10 11
ENDBRANCH 8 10
ENDBRANCH 1 8
BRANCH 4 19
ATOM     19  C   PRO C  65      12.469  -2.937   7.946  1.00 37.07 LIG 0.24  C 
ATOM     20  N   HIS C  66      12.938  -3.399   6.788  1.00 40.38 LIG-0.35  N 
ATOM     21 H    HIS C  66      13.439  -4.095   6.722  1.00 40.38 LIG 0.16  HD
ATOM     22 O    PRO C  65      11.798  -1.897   8.061  1.00 29.28 LIG-0.27  OA
BRANCH 20 23
ATOM     23  CA  HIS C  66      12.641  -2.760   5.514  1.00 40.25 LIG 0.17  C 
BRANCH 23 24
ATOM     24  CB  HIS C  66      13.840  -2.873   4.562  1.00 42.68 LIG 0.09  C 
BRANCH 24 25
ATOM     25  CG  HIS C  66      14.580  -1.586   4.360  1.00 48.80 LIG 0.06  A 
ATOM     26 ND1  HIS C  66      15.955  -1.497   4.423  1.00 53.13 LIG-0.24  NA
ATOM     27  CE1 HIS C  66      16.323  -0.247   4.204  1.00 55.16 LIG 0.23  A 
ATOM     28 NE2  HIS C  66      15.238   0.478   4.002  1.00 53.86 LIG-0.25  NA
ATOM     29  CD2 HIS C  66      14.134  -0.337   4.096  1.00 53.41 LIG 0.14  A 
ENDBRANCH 24 25
ENDBRANCH 23 24
BRANCH 23 30
ATOM     30  C   HIS C  66      11.401  -3.374   4.863  1.00 41.89 LIG 0.22  C 
ATOM     31 O    HIS C  66      10.678  -4.149   5.494  1.00 44.58 LIG-0.29  OA
ENDBRANCH 23 30
ENDBRANCH 20 23
ENDBRANCH 4 19
TORSDOF 9
ENDMDL
MODEL 155
USER: ADFR SOLUTION from run 137
USER: SCORE 10.080794 LL:  -1.845 LR:  -8.236 RR:   0.000 FEB:  -5.551
USER: RMSD 6.249099
USER: SEED 136
USER: STATUS no improvement in best in 52 clusters for 5 generations
USER: GENES 11
USER: genes 0 Translation |==|  0.61957 0.37887 0.68511
USER: genes 1 Rotation |==|  0.52145 0.15476 0.85963 0.53182
USER: genes 2 Torsion [N]-C--CA-[N] |==|  0.08155
USER: genes 3 Torsion [C]-CA--CB-[CG] |==|  0.85529
USER: genes 4 Torsion [CA]-CB--CG-[CD2] |==|  0.28240
USER: genes 5 Torsion [CE2]-CZ--OH-[HH] |==|  0.31788
USER: genes 6 Torsion [N]-CA--C-[N] |==|  0.10817
USER: genes 7 Torsion [C]-N--CA-[C] |==|  0.72065
USER: genes 8 Torsion [N]-CA--CB-[CG] |==|  0.84378
USER: genes 9 Torsion [CA]-CB--CG-[ND1] |==|  0.00259
USER: genes 10 Torsion [N]-CA--C-[O] |==|  0.96500
ROOT
ATOM      1  C   TYR C  64      14.393  -2.657  10.409  1.00 51.57 LIG 0.26  C 
ATOM      2 O    TYR C  64      14.650  -1.653  11.074  1.00 54.62 LIG-0.27  OA
ATOM      3  N   PRO C  65      13.133  -3.070  10.190  1.00 43.10 LIG-0.34  N 
ATOM      4  CA  PRO C  65      12.671  -4.161   9.327  1.00 38.90 LIG 0.18  C 
ATOM      5  CB  PRO C  65      11.516  -4.749  10.125  1.00 40.80 LIG 0.04  C 
ATOM      6  CG  PRO C  65      10.938  -3.570  10.827  1.00 42.19 LIG 0.02  C 
ATOM      7  CD  PRO C  65      12.073  -2.624  11.111  1.00 44.37 LIG 0.13  C 
ENDROOT
BRANCH 1 8
ATOM      8  CA  TYR C  64      15.526  -3.482   9.803  1.00 49.73 LIG 0.40  C 
ATOM      9  N   TYR C  64      15.051  -4.124   8.580  1.00 50.52 LIG 0.61  N 
BRANCH 8 10
ATOM     10  CB  TYR C  64      16.717  -2.563   9.506  1.00 50.46 LIG 0.09  C 
BRANCH 10 11
ATOM     11  CG  TYR C  64      16.400  -1.330   8.689  1.00 47.68 LIG-0.06  A 
ATOM     12  CD2 TYR C  64      16.269  -0.090   9.305  1.00 48.34 LIG 0.01  A 
ATOM     13  CE2 TYR C  64      15.978   1.047   8.573  1.00 49.15 LIG 0.04  A 
ATOM     14  CZ  TYR C  64      15.816   0.952   7.206  1.00 50.59 LIG 0.07  A 
ATOM     15  CE1 TYR C  64      15.941  -0.266   6.567  1.00 46.73 LIG 0.04  A 
ATOM     16  CD1 TYR C  64      16.233  -1.398   7.309  1.00 46.22 LIG 0.01  A 
BRANCH 14 17
ATOM     17 OH   TYR C  64      15.526   2.080   6.472  1.00 53.82 LIG-0.36  OA
ATOM     18 HH   TYR C  64      16.167   2.251   5.956  1.00 53.82 LIG 0.22  HD
ENDBRANCH 14 17
ENDBRANCH 10 11
ENDBRANCH 8 10
ENDBRANCH 1 8
BRANCH 4 19
ATOM     19  C   PRO C  65      12.160  -3.649   7.984  1.00 37.07 LIG 0.24  C 
ATOM     20  N   HIS C  66      12.850  -2.645   7.447  1.00 40.38 LIG-0.35  N 
ATOM     21 H    HIS C  66      13.520  -2.269   7.833  1.00 40.38 LIG 0.16  HD
ATOM     22 O    PRO C  65      11.151  -4.158   7.464  1.00 29.28 LIG-0.27  OA
BRANCH 20 23
ATOM     23  CA  HIS C  66      12.530  -2.086   6.142  1.00 40.25 LIG 0.17  C 
BRANCH 23 24
ATOM     24  CB  HIS C  66      12.601  -0.553   6.180  1.00 42.68 LIG 0.09  C 
BRANCH 24 25
ATOM     25  CG  HIS C  66      11.722   0.071   7.220  1.00 48.80 LIG 0.06  A 
ATOM     26 ND1  HIS C  66      10.936  -0.669   8.077  1.00 53.13 LIG-0.24  NA
ATOM     27  CE1 HIS C  66      10.276   0.146   8.881  1.00 55.16 LIG 0.23  A 
ATOM     28 NE2  HIS C  66      10.605   1.389   8.577  1.00 53.86 LIG-0.25  NA
ATOM     29  CD2 HIS C  66      11.508   1.369   7.540  1.00 53.41 LIG 0.14  A 
ENDBRANCH 24 25
ENDBRANCH 23 24
BRANCH 23 30
ATOM     30  C   HIS C  66      13.471  -2.624   5.064  1.00 41.89 LIG 0.22  C 
ATOM     31 O    HIS C  66      14.496  -3.237   5.372  1.00 44.58 LIG-0.29  OA
ENDBRANCH 23 30
ENDBRANCH 20 23
ENDBRANCH 4 19
TORSDOF 9
ENDMDL
MODEL 156
USER: ADFR SOLUTION from run 116
USER: SCORE 10.271640 LL:  -2.031 LR:  -8.241 RR:   0.000 FEB:  -5.556
USER: RMSD 7.825237
USER: SEED 115
USER: STATUS no improvement in best in 26 clusters for 5 generations
USER: GENES 11
USER: genes 0 Translation |==|  0.61537 0.35316 0.66247
USER: genes 1 Rotation |==|  0.32412 0.86410 0.77617 0.60112
USER: genes 2 Torsion [N]-C--CA-[N] |==|  0.33028
USER: genes 3 Torsion [C]-CA--CB-[CG] |==|  0.18181
USER: genes 4 Torsion [CA]-CB--CG-[CD2] |==|  0.25955
USER: genes 5 Torsion [CE2]-CZ--OH-[HH] |==|  0.06684
USER: genes 6 Torsion [N]-CA--C-[N] |==|  0.92451
USER: genes 7 Torsion [C]-N--CA-[C] |==|  0.57533
USER: genes 8 Torsion [N]-CA--CB-[CG] |==|  0.80616
USER: genes 9 Torsion [CA]-CB--CG-[ND1] |==|  0.30852
USER: genes 10 Torsion [N]-CA--C-[O] |==|  0.06230
ROOT
ATOM      1  C   TYR C  64      14.314  -3.062  10.001  1.00 51.57 LIG 0.26  C 
ATOM      2 O    TYR C  64      15.028  -4.060   9.901  1.00 54.62 LIG-0.27  OA
ATOM      3  N   PRO C  65      13.159  -2.935   9.327  1.00 43.10 LIG-0.34  N 
ATOM      4  CA  PRO C  65      12.153  -1.874   9.438  1.00 38.90 LIG 0.18  C 
ATOM      5  CB  PRO C  65      11.694  -1.700   7.998  1.00 40.80 LIG 0.04  C 
ATOM      6  CG  PRO C  65      11.801  -3.072   7.427  1.00 42.19 LIG 0.02  C 
ATOM      7  CD  PRO C  65      12.953  -3.749   8.116  1.00 44.37 LIG 0.13  C 
ENDROOT
BRANCH 1 8
ATOM      8  CA  TYR C  64      14.734  -1.911  10.914  1.00 49.73 LIG 0.40  C 
ATOM      9  N   TYR C  64      14.825  -2.398  12.288  1.00 50.52 LIG 0.61  N 
BRANCH 8 10
ATOM     10  CB  TYR C  64      16.086  -1.361  10.442  1.00 50.46 LIG 0.09  C 
BRANCH 10 11
ATOM     11  CG  TYR C  64      16.083  -0.706   9.078  1.00 47.68 LIG-0.06  A 
ATOM     12  CD2 TYR C  64      15.900   0.667   8.956  1.00 48.34 LIG 0.01  A 
ATOM     13  CE2 TYR C  64      15.894   1.281   7.718  1.00 49.15 LIG 0.04  A 
ATOM     14  CZ  TYR C  64      16.074   0.521   6.580  1.00 50.59 LIG 0.07  A 
ATOM     15  CE1 TYR C  64      16.259  -0.845   6.671  1.00 46.73 LIG 0.04  A 
ATOM     16  CD1 TYR C  64      16.264  -1.451   7.917  1.00 46.22 LIG 0.01  A 
BRANCH 14 17
ATOM     17 OH   TYR C  64      16.068   1.126   5.344  1.00 53.82 LIG-0.36  OA
ATOM     18 HH   TYR C  64      16.276   1.936   5.427  1.00 53.82 LIG 0.22  HD
ENDBRANCH 14 17
ENDBRANCH 10 11
ENDBRANCH 8 10
ENDBRANCH 1 8
BRANCH 4 19
ATOM     19  C   PRO C  65      10.972  -2.295  10.306  1.00 37.07 LIG 0.24  C 
ATOM     20  N   HIS C  66      10.724  -3.603  10.350  1.00 40.38 LIG-0.35  N 
ATOM     21 H    HIS C  66      11.164  -4.185   9.897  1.00 40.38 LIG 0.16  HD
ATOM     22 O    PRO C  65      10.301  -1.438  10.908  1.00 29.28 LIG-0.27  OA
BRANCH 20 23
ATOM     23  CA  HIS C  66       9.673  -4.171  11.181  1.00 40.25 LIG 0.17  C 
BRANCH 23 24
ATOM     24  CB  HIS C  66       8.323  -4.123  10.451  1.00 42.68 LIG 0.09  C 
BRANCH 24 25
ATOM     25  CG  HIS C  66       7.768  -2.740  10.290  1.00 48.80 LIG 0.06  A 
ATOM     26 ND1  HIS C  66       7.674  -2.109   9.068  1.00 53.13 LIG-0.24  NA
ATOM     27  CE1 HIS C  66       7.146  -0.909   9.234  1.00 55.16 LIG 0.23  A 
ATOM     28 NE2  HIS C  66       6.894  -0.738  10.519  1.00 53.86 LIG-0.25  NA
ATOM     29  CD2 HIS C  66       7.275  -1.870  11.202  1.00 53.41 LIG 0.14  A 
ENDBRANCH 24 25
ENDBRANCH 23 24
BRANCH 23 30
ATOM     30  C   HIS C  66       9.998  -5.612  11.576  1.00 41.89 LIG 0.22  C 
ATOM     31 O    HIS C  66      11.162  -6.019  11.568  1.00 44.58 LIG-0.29  OA
ENDBRANCH 23 30
ENDBRANCH 20 23
ENDBRANCH 4 19
TORSDOF 9
ENDMDL
MODEL 157
USER: ADFR SOLUTION from run 45
USER: SCORE 9.920407 LL:  -1.709 LR:  -8.211 RR:   0.000 FEB:  -5.527
USER: RMSD 5.550275
USER: SEED 44
USER: STATUS no improvement in best in 43 clusters for 5 generations
USER: GENES 11
USER: genes 0 Translation |==|  0.51639 0.32597 0.52715
USER: genes 1 Rotation |==|  0.56856 0.83615 0.55440 0.85965
USER: genes 2 Torsion [N]-C--CA-[N] |==|  0.51187
USER: genes 3 Torsion [C]-CA--CB-[CG] |==|  0.29859
USER: genes 4 Torsion [CA]-CB--CG-[CD2] |==|  0.09386
USER: genes 5 Torsion [CE2]-CZ--OH-[HH] |==|  0.43621
USER: genes 6 Torsion [N]-CA--C-[N] |==|  0.45477
USER: genes 7 Torsion [C]-N--CA-[C] |==|  0.77521
USER: genes 8 Torsion [N]-CA--CB-[CG] |==|  0.46550
USER: genes 9 Torsion [CA]-CB--CG-[ND1] |==|  0.76215
USER: genes 10 Torsion [N]-CA--C-[O] |==|  0.98112
ROOT
ATOM      1  C   TYR C  64      12.458  -3.490   7.566  1.00 51.57 LIG 0.26  C 
ATOM      2 O    TYR C  64      11.451  -4.171   7.371  1.00 54.62 LIG-0.27  OA
ATOM      3  N   PRO C  65      12.992  -2.707   6.612  1.00 43.10 LIG-0.34  N 
ATOM      4  CA  PRO C  65      14.101  -1.757   6.732  1.00 38.90 LIG 0.18  C 
ATOM      5  CB  PRO C  65      14.825  -1.922   5.403  1.00 40.80 LIG 0.04  C 
ATOM      6  CG  PRO C  65      13.729  -2.233   4.444  1.00 42.19 LIG 0.02  C 
ATOM      7  CD  PRO C  65      12.680  -2.999   5.202  1.00 44.37 LIG 0.13  C 
ENDROOT
BRANCH 1 8
ATOM      8  CA  TYR C  64      13.148  -3.520   8.928  1.00 49.73 LIG 0.40  C 
ATOM      9  N   TYR C  64      12.480  -4.499   9.782  1.00 50.52 LIG 0.61  N 
BRANCH 8 10
ATOM     10  CB  TYR C  64      14.626  -3.885   8.737  1.00 50.46 LIG 0.09  C 
BRANCH 10 11
ATOM     11  CG  TYR C  64      15.608  -2.753   8.939  1.00 47.68 LIG-0.06  A 
ATOM     12  CD2 TYR C  64      15.358  -1.761   9.880  1.00 48.34 LIG 0.01  A 
ATOM     13  CE2 TYR C  64      16.244  -0.718  10.077  1.00 49.15 LIG 0.04  A 
ATOM     14  CZ  TYR C  64      17.401  -0.659   9.327  1.00 50.59 LIG 0.07  A 
ATOM     15  CE1 TYR C  64      17.677  -1.631   8.386  1.00 46.73 LIG 0.04  A 
ATOM     16  CD1 TYR C  64      16.782  -2.672   8.197  1.00 46.22 LIG 0.01  A 
BRANCH 14 17
ATOM     17 OH   TYR C  64      18.288   0.376   9.517  1.00 53.82 LIG-0.36  OA
ATOM     18 HH   TYR C  64      19.052   0.143   9.256  1.00 53.82 LIG 0.22  HD
ENDBRANCH 14 17
ENDBRANCH 10 11
ENDBRANCH 8 10
ENDBRANCH 1 8
BRANCH 4 19
ATOM     19  C   PRO C  65      13.610  -0.320   6.874  1.00 37.07 LIG 0.24  C 
ATOM     20  N   HIS C  66      14.507   0.556   7.321  1.00 40.38 LIG-0.35  N 
ATOM     21 H    HIS C  66      15.306   0.341   7.556  1.00 40.38 LIG 0.16  HD
ATOM     22 O    PRO C  65      12.434  -0.031   6.592  1.00 29.28 LIG-0.27  OA
BRANCH 20 23
ATOM     23  CA  HIS C  66      14.215   1.976   7.452  1.00 40.25 LIG 0.17  C 
BRANCH 23 24
ATOM     24  CB  HIS C  66      15.151   2.626   8.481  1.00 42.68 LIG 0.09  C 
BRANCH 24 25
ATOM     25  CG  HIS C  66      15.123   4.124   8.468  1.00 48.80 LIG 0.06  A 
ATOM     26 ND1  HIS C  66      15.901   4.879   7.616  1.00 53.13 LIG-0.24  NA
ATOM     27  CE1 HIS C  66      15.665   6.162   7.827  1.00 55.16 LIG 0.23  A 
ATOM     28 NE2  HIS C  66      14.762   6.267   8.786  1.00 53.86 LIG-0.25  NA
ATOM     29  CD2 HIS C  66      14.408   5.006   9.204  1.00 53.41 LIG 0.14  A 
ENDBRANCH 24 25
ENDBRANCH 23 24
BRANCH 23 30
ATOM     30  C   HIS C  66      14.342   2.694   6.108  1.00 41.89 LIG 0.22  C 
ATOM     31 O    HIS C  66      14.776   2.102   5.117  1.00 44.58 LIG-0.29  OA
ENDBRANCH 23 30
ENDBRANCH 20 23
ENDBRANCH 4 19
TORSDOF 9
ENDMDL
MODEL 158
USER: ADFR SOLUTION from run 45
USER: SCORE 10.179772 LL:  -1.981 LR:  -8.199 RR:   0.000 FEB:  -5.514
USER: RMSD 4.586469
USER: SEED 44
USER: STATUS no improvement in best in 43 clusters for 5 generations
USER: GENES 11
USER: genes 0 Translation |==|  0.55243 0.34644 0.44919
USER: genes 1 Rotation |==|  0.54525 0.75484 0.57979 0.92029
USER: genes 2 Torsion [N]-C--CA-[N] |==|  0.48570
USER: genes 3 Torsion [C]-CA--CB-[CG] |==|  0.27957
USER: genes 4 Torsion [CA]-CB--CG-[CD2] |==|  0.12519
USER: genes 5 Torsion [CE2]-CZ--OH-[HH] |==|  0.50199
USER: genes 6 Torsion [N]-CA--C-[N] |==|  0.54050
USER: genes 7 Torsion [C]-N--CA-[C] |==|  0.17816
USER: genes 8 Torsion [N]-CA--CB-[CG] |==|  0.82076
USER: genes 9 Torsion [CA]-CB--CG-[ND1] |==|  0.66214
USER: genes 10 Torsion [N]-CA--C-[O] |==|  0.07779
ROOT
ATOM      1  C   TYR C  64      13.134  -3.168   6.162  1.00 51.57 LIG 0.26  C 
ATOM      2 O    TYR C  64      12.342  -3.906   5.577  1.00 54.62 LIG-0.27  OA
ATOM      3  N   PRO C  65      13.961  -2.337   5.505  1.00 43.10 LIG-0.34  N 
ATOM      4  CA  PRO C  65      14.860  -1.321   6.061  1.00 38.90 LIG 0.18  C 
ATOM      5  CB  PRO C  65      16.075  -1.418   5.149  1.00 40.80 LIG 0.04  C 
ATOM      6  CG  PRO C  65      15.493  -1.781   3.827  1.00 42.19 LIG 0.02  C 
ATOM      7  CD  PRO C  65      14.277  -2.624   4.094  1.00 44.37 LIG 0.13  C 
ENDROOT
BRANCH 1 8
ATOM      8  CA  TYR C  64      13.203  -3.177   7.688  1.00 49.73 LIG 0.40  C 
ATOM      9  N   TYR C  64      12.151  -4.046   8.210  1.00 50.52 LIG 0.61  N 
BRANCH 8 10
ATOM     10  CB  TYR C  64      14.585  -3.676   8.127  1.00 50.46 LIG 0.09  C 
BRANCH 10 11
ATOM     11  CG  TYR C  64      15.564  -2.599   8.543  1.00 47.68 LIG-0.06  A 
ATOM     12  CD2 TYR C  64      15.162  -1.564   9.379  1.00 48.34 LIG 0.01  A 
ATOM     13  CE2 TYR C  64      16.043  -0.573   9.767  1.00 49.15 LIG 0.04  A 
ATOM     14  CZ  TYR C  64      17.348  -0.609   9.319  1.00 50.59 LIG 0.07  A 
ATOM     15  CE1 TYR C  64      17.776  -1.625   8.489  1.00 46.73 LIG 0.04  A 
ATOM     16  CD1 TYR C  64      16.885  -2.614   8.106  1.00 46.22 LIG 0.01  A 
BRANCH 14 17
ATOM     17 OH   TYR C  64      18.230   0.376   9.702  1.00 53.82 LIG-0.36  OA
ATOM     18 HH   TYR C  64      18.979   0.234   9.349  1.00 53.82 LIG 0.22  HD
ENDBRANCH 14 17
ENDBRANCH 10 11
ENDBRANCH 8 10
ENDBRANCH 1 8
BRANCH 4 19
ATOM     19  C   PRO C  65      14.263   0.079   5.973  1.00 37.07 LIG 0.24  C 
ATOM     20  N   HIS C  66      15.114   1.084   6.170  1.00 40.38 LIG-0.35  N 
ATOM     21 H    HIS C  66      15.942   0.972   6.373  1.00 40.38 LIG 0.16  HD
ATOM     22 O    PRO C  65      13.050   0.228   5.742  1.00 29.28 LIG-0.27  OA
BRANCH 20 23
ATOM     23  CA  HIS C  66      14.715   2.480   6.058  1.00 40.25 LIG 0.17  C 
BRANCH 23 24
ATOM     24  CB  HIS C  66      14.150   2.768   4.660  1.00 42.68 LIG 0.09  C 
BRANCH 24 25
ATOM     25  CG  HIS C  66      15.151   2.612   3.555  1.00 48.80 LIG 0.06  A 
ATOM     26 ND1  HIS C  66      15.476   3.637   2.692  1.00 53.13 LIG-0.24  NA
ATOM     27  CE1 HIS C  66      16.383   3.212   1.829  1.00 55.16 LIG 0.23  A 
ATOM     28 NE2  HIS C  66      16.657   1.949   2.101  1.00 53.86 LIG-0.25  NA
ATOM     29  CD2 HIS C  66      15.899   1.550   3.177  1.00 53.41 LIG 0.14  A 
ENDBRANCH 24 25
ENDBRANCH 23 24
BRANCH 23 30
ATOM     30  C   HIS C  66      13.681   2.846   7.122  1.00 41.89 LIG 0.22  C 
ATOM     31 O    HIS C  66      13.650   2.251   8.202  1.00 44.58 LIG-0.29  OA
ENDBRANCH 23 30
ENDBRANCH 20 23
ENDBRANCH 4 19
TORSDOF 9
ENDMDL
MODEL 159
USER: ADFR SOLUTION from run 75
USER: SCORE 10.094978 LL:  -1.904 LR:  -8.191 RR:   0.000 FEB:  -5.506
USER: RMSD 4.161018
USER: SEED 74
USER: STATUS no improvement in best in 22 clusters for 5 generations
USER: GENES 11
USER: genes 0 Translation |==|  0.66614 0.31564 0.64597
USER: genes 1 Rotation |==|  0.30613 0.64636 0.62130 0.91986
USER: genes 2 Torsion [N]-C--CA-[N] |==|  0.88383
USER: genes 3 Torsion [C]-CA--CB-[CG] |==|  0.23061
USER: genes 4 Torsion [CA]-CB--CG-[CD2] |==|  0.17564
USER: genes 5 Torsion [CE2]-CZ--OH-[HH] |==|  0.75023
USER: genes 6 Torsion [N]-CA--C-[N] |==|  0.27497
USER: genes 7 Torsion [C]-N--CA-[C] |==|  0.66737
USER: genes 8 Torsion [N]-CA--CB-[CG] |==|  0.21234
USER: genes 9 Torsion [CA]-CB--CG-[ND1] |==|  0.89204
USER: genes 10 Torsion [N]-CA--C-[O] |==|  0.06432
ROOT
ATOM      1  C   TYR C  64      15.266  -3.653   9.704  1.00 51.57 LIG 0.26  C 
ATOM      2 O    TYR C  64      15.347  -4.880   9.643  1.00 54.62 LIG-0.27  OA
ATOM      3  N   PRO C  65      15.983  -2.845   8.905  1.00 43.10 LIG-0.34  N 
ATOM      4  CA  PRO C  65      15.902  -1.387   8.778  1.00 38.90 LIG 0.18  C 
ATOM      5  CB  PRO C  65      17.358  -0.989   8.579  1.00 40.80 LIG 0.04  C 
ATOM      6  CG  PRO C  65      17.935  -2.138   7.827  1.00 42.19 LIG 0.02  C 
ATOM      7  CD  PRO C  65      17.208  -3.374   8.280  1.00 44.37 LIG 0.13  C 
ENDROOT
BRANCH 1 8
ATOM      8  CA  TYR C  64      14.329  -2.999  10.718  1.00 49.73 LIG 0.40  C 
ATOM      9  N   TYR C  64      15.002  -1.853  11.323  1.00 50.52 LIG 0.61  N 
BRANCH 8 10
ATOM     10  CB  TYR C  64      13.044  -2.559  10.005  1.00 50.46 LIG 0.09  C 
BRANCH 10 11
ATOM     11  CG  TYR C  64      11.999  -3.637   9.821  1.00 47.68 LIG-0.06  A 
ATOM     12  CD2 TYR C  64      11.401  -4.236  10.924  1.00 48.34 LIG 0.01  A 
ATOM     13  CE2 TYR C  64      10.445  -5.223  10.774  1.00 49.15 LIG 0.04  A 
ATOM     14  CZ  TYR C  64      10.075  -5.624   9.507  1.00 50.59 LIG 0.07  A 
ATOM     15  CE1 TYR C  64      10.651  -5.046   8.392  1.00 46.73 LIG 0.04  A 
ATOM     16  CD1 TYR C  64      11.607  -4.057   8.554  1.00 46.22 LIG 0.01  A 
BRANCH 14 17
ATOM     17 OH   TYR C  64       9.124  -6.607   9.350  1.00 53.82 LIG-0.36  OA
ATOM     18 HH   TYR C  64       9.499  -7.359   9.327  1.00 53.82 LIG 0.22  HD
ENDBRANCH 14 17
ENDBRANCH 10 11
ENDBRANCH 8 10
ENDBRANCH 1 8
BRANCH 4 19
ATOM     19  C   PRO C  65      15.084  -0.964   7.562  1.00 37.07 LIG 0.24  C 
ATOM     20  N   HIS C  66      13.821  -0.621   7.806  1.00 40.38 LIG-0.35  N 
ATOM     21 H    HIS C  66      13.459  -0.664   8.585  1.00 40.38 LIG 0.16  HD
ATOM     22 O    PRO C  65      15.599  -0.966   6.430  1.00 29.28 LIG-0.27  OA
BRANCH 20 23
ATOM     23  CA  HIS C  66      12.928  -0.134   6.765  1.00 40.25 LIG 0.17  C 
BRANCH 23 24
ATOM     24  CB  HIS C  66      11.733  -1.083   6.594  1.00 42.68 LIG 0.09  C 
BRANCH 24 25
ATOM     25  CG  HIS C  66      10.694  -0.953   7.666  1.00 48.80 LIG 0.06  A 
ATOM     26 ND1  HIS C  66      11.011  -0.748   8.993  1.00 53.13 LIG-0.24  NA
ATOM     27  CE1 HIS C  66       9.899  -0.671   9.702  1.00 55.16 LIG 0.23  A 
ATOM     28 NE2  HIS C  66       8.872  -0.819   8.884  1.00 53.86 LIG-0.25  NA
ATOM     29  CD2 HIS C  66       9.343  -0.998   7.605  1.00 53.41 LIG 0.14  A 
ENDBRANCH 24 25
ENDBRANCH 23 24
BRANCH 23 30
ATOM     30  C   HIS C  66      12.430   1.277   7.077  1.00 41.89 LIG 0.22  C 
ATOM     31 O    HIS C  66      13.070   2.018   7.827  1.00 44.58 LIG-0.29  OA
ENDBRANCH 23 30
ENDBRANCH 20 23
ENDBRANCH 4 19
TORSDOF 9
ENDMDL
MODEL 160
USER: ADFR SOLUTION from run 195
USER: SCORE 10.280848 LL:  -2.096 LR:  -8.185 RR:   0.000 FEB:  -5.500
USER: RMSD 4.936657
USER: SEED 194
USER: STATUS no improvement in best in 45 clusters for 5 generations
USER: GENES 11
USER: genes 0 Translation |==|  0.58637 0.57073 0.50911
USER: genes 1 Rotation |==|  0.96586 0.57335 0.37436 0.60869
USER: genes 2 Torsion [N]-C--CA-[N] |==|  0.84437
USER: genes 3 Torsion [C]-CA--CB-[CG] |==|  0.41277
USER: genes 4 Torsion [CA]-CB--CG-[CD2] |==|  0.43799
USER: genes 5 Torsion [CE2]-CZ--OH-[HH] |==|  0.78462
USER: genes 6 Torsion [N]-CA--C-[N] |==|  0.92783
USER: genes 7 Torsion [C]-N--CA-[C] |==|  0.18150
USER: genes 8 Torsion [N]-CA--CB-[CG] |==|  0.83766
USER: genes 9 Torsion [CA]-CB--CG-[ND1] |==|  0.43788
USER: genes 10 Torsion [N]-CA--C-[O] |==|  0.60028
ROOT
ATOM      1  C   TYR C  64      13.771   0.365   7.241  1.00 51.57 LIG 0.26  C 
ATOM      2 O    TYR C  64      13.785   1.448   7.827  1.00 54.62 LIG-0.27  OA
ATOM      3  N   PRO C  65      14.752  -0.011   6.403  1.00 43.10 LIG-0.34  N 
ATOM      4  CA  PRO C  65      14.932  -1.304   5.737  1.00 38.90 LIG 0.18  C 
ATOM      5  CB  PRO C  65      15.474  -0.903   4.373  1.00 40.80 LIG 0.04  C 
ATOM      6  CG  PRO C  65      16.276   0.319   4.660  1.00 42.19 LIG 0.02  C 
ATOM      7  CD  PRO C  65      15.608   1.028   5.805  1.00 44.37 LIG 0.13  C 
ENDROOT
BRANCH 1 8
ATOM      8  CA  TYR C  64      12.608  -0.602   7.452  1.00 49.73 LIG 0.40  C 
ATOM      9  N   TYR C  64      12.010  -0.922   6.158  1.00 50.52 LIG 0.61  N 
BRANCH 8 10
ATOM     10  CB  TYR C  64      13.126  -1.871   8.139  1.00 50.46 LIG 0.09  C 
BRANCH 10 11
ATOM     11  CG  TYR C  64      12.141  -2.564   9.056  1.00 47.68 LIG-0.06  A 
ATOM     12  CD2 TYR C  64      12.292  -3.912   9.364  1.00 48.34 LIG 0.01  A 
ATOM     13  CE2 TYR C  64      11.401  -4.560  10.198  1.00 49.15 LIG 0.04  A 
ATOM     14  CZ  TYR C  64      10.342  -3.859  10.739  1.00 50.59 LIG 0.07  A 
ATOM     15  CE1 TYR C  64      10.168  -2.520  10.452  1.00 46.73 LIG 0.04  A 
ATOM     16  CD1 TYR C  64      11.067  -1.879   9.615  1.00 46.22 LIG 0.01  A 
BRANCH 14 17
ATOM     17 OH   TYR C  64       9.451  -4.499  11.571  1.00 53.82 LIG-0.36  OA
ATOM     18 HH   TYR C  64       8.922  -4.962  11.111  1.00 53.82 LIG 0.22  HD
ENDBRANCH 14 17
ENDBRANCH 10 11
ENDBRANCH 8 10
ENDBRANCH 1 8
BRANCH 4 19
ATOM     19  C   PRO C  65      15.953  -2.180   6.458  1.00 37.07 LIG 0.24  C 
ATOM     20  N   HIS C  66      16.872  -1.530   7.170  1.00 40.38 LIG-0.35  N 
ATOM     21 H    HIS C  66      16.927  -0.673   7.204  1.00 40.38 LIG 0.16  HD
ATOM     22 O    PRO C  65      15.902  -3.418   6.350  1.00 29.28 LIG-0.27  OA
BRANCH 20 23
ATOM     23  CA  HIS C  66      17.876  -2.220   7.965  1.00 40.25 LIG 0.17  C 
BRANCH 23 24
ATOM     24  CB  HIS C  66      17.208  -3.154   8.984  1.00 42.68 LIG 0.09  C 
BRANCH 24 25
ATOM     25  CG  HIS C  66      16.276  -2.458   9.928  1.00 48.80 LIG 0.06  A 
ATOM     26 ND1  HIS C  66      15.263  -3.112  10.597  1.00 53.13 LIG-0.24  NA
ATOM     27  CE1 HIS C  66      14.611  -2.249  11.357  1.00 55.16 LIG 0.23  A 
ATOM     28 NE2  HIS C  66      15.164  -1.059  11.205  1.00 53.86 LIG-0.25  NA
ATOM     29  CD2 HIS C  66      16.207  -1.163  10.315  1.00 53.41 LIG 0.14  A 
ENDBRANCH 24 25
ENDBRANCH 23 24
BRANCH 23 30
ATOM     30  C   HIS C  66      18.832  -3.018   7.078  1.00 41.89 LIG 0.22  C 
ATOM     31 O    HIS C  66      19.276  -4.107   7.451  1.00 44.58 LIG-0.29  OA
ENDBRANCH 23 30
ENDBRANCH 20 23
ENDBRANCH 4 19
TORSDOF 9
ENDMDL
MODEL 161
USER: ADFR SOLUTION from run 82
USER: SCORE 9.773949 LL:  -1.602 LR:  -8.172 RR:   0.000 FEB:  -5.487
USER: RMSD 6.572363
USER: SEED 81
USER: STATUS no improvement in best in 27 clusters for 5 generations
USER: GENES 11
USER: genes 0 Translation |==|  0.70794 0.54763 0.57755
USER: genes 1 Rotation |==|  0.87760 0.20104 0.62070 0.55894
USER: genes 2 Torsion [N]-C--CA-[N] |==|  0.84521
USER: genes 3 Torsion [C]-CA--CB-[CG] |==|  0.26586
USER: genes 4 Torsion [CA]-CB--CG-[CD2] |==|  0.01004
USER: genes 5 Torsion [CE2]-CZ--OH-[HH] |==|  0.41789
USER: genes 6 Torsion [N]-CA--C-[N] |==|  0.00201
USER: genes 7 Torsion [C]-N--CA-[C] |==|  0.14281
USER: genes 8 Torsion [N]-CA--CB-[CG] |==|  0.53245
USER: genes 9 Torsion [CA]-CB--CG-[ND1] |==|  0.97321
USER: genes 10 Torsion [N]-CA--C-[O] |==|  0.36234
ROOT
ATOM      1  C   TYR C  64      16.050   0.001   8.473  1.00 51.57 LIG 0.26  C 
ATOM      2 O    TYR C  64      16.515   0.751   9.332  1.00 54.62 LIG-0.27  OA
ATOM      3  N   PRO C  65      15.944  -1.325   8.659  1.00 43.10 LIG-0.34  N 
ATOM      4  CA  PRO C  65      15.306  -2.317   7.789  1.00 38.90 LIG 0.18  C 
ATOM      5  CB  PRO C  65      16.228  -3.521   7.924  1.00 40.80 LIG 0.04  C 
ATOM      6  CG  PRO C  65      16.721  -3.428   9.327  1.00 42.19 LIG 0.02  C 
ATOM      7  CD  PRO C  65      16.798  -1.967   9.674  1.00 44.37 LIG 0.13  C 
ENDROOT
BRANCH 1 8
ATOM      8  CA  TYR C  64      15.573   0.571   7.139  1.00 49.73 LIG 0.40  C 
ATOM      9  N   TYR C  64      16.271  -0.109   6.050  1.00 50.52 LIG 0.61  N 
BRANCH 8 10
ATOM     10  CB  TYR C  64      14.057   0.372   7.019  1.00 50.46 LIG 0.09  C 
BRANCH 10 11
ATOM     11  CG  TYR C  64      13.210   1.555   7.435  1.00 47.68 LIG-0.06  A 
ATOM     12  CD2 TYR C  64      13.807   2.750   7.818  1.00 48.34 LIG 0.01  A 
ATOM     13  CE2 TYR C  64      13.048   3.840   8.202  1.00 49.15 LIG 0.04  A 
ATOM     14  CZ  TYR C  64      11.672   3.743   8.204  1.00 50.59 LIG 0.07  A 
ATOM     15  CE1 TYR C  64      11.051   2.569   7.827  1.00 46.73 LIG 0.04  A 
ATOM     16  CD1 TYR C  64      11.820   1.483   7.443  1.00 46.22 LIG 0.01  A 
BRANCH 14 17
ATOM     17 OH   TYR C  64      10.910   4.824   8.586  1.00 53.82 LIG-0.36  OA
ATOM     18 HH   TYR C  64      10.172   4.803   8.185  1.00 53.82 LIG 0.22  HD
ENDBRANCH 14 17
ENDBRANCH 10 11
ENDBRANCH 8 10
ENDBRANCH 1 8
BRANCH 4 19
ATOM     19  C   PRO C  65      13.907  -2.686   8.273  1.00 37.07 LIG 0.24  C 
ATOM     20  N   HIS C  66      13.490  -2.056   9.370  1.00 40.38 LIG-0.35  N 
ATOM     21 H    HIS C  66      13.977  -1.503   9.814  1.00 40.38 LIG 0.16  HD
ATOM     22 O    PRO C  65      13.237  -3.535   7.660  1.00 29.28 LIG-0.27  OA
BRANCH 20 23
ATOM     23  CA  HIS C  66      12.158  -2.249   9.923  1.00 40.25 LIG 0.17  C 
BRANCH 23 24
ATOM     24  CB  HIS C  66      11.100  -1.601   9.018  1.00 42.68 LIG 0.09  C 
BRANCH 24 25
ATOM     25  CG  HIS C  66       9.741  -1.509   9.641  1.00 48.80 LIG 0.06  A 
ATOM     26 ND1  HIS C  66       9.418  -2.133  10.827  1.00 53.13 LIG-0.24  NA
ATOM     27  CE1 HIS C  66       8.158  -1.874  11.130  1.00 55.16 LIG 0.23  A 
ATOM     28 NE2  HIS C  66       7.651  -1.104  10.184  1.00 53.86 LIG-0.25  NA
ATOM     29  CD2 HIS C  66       8.622  -0.862   9.240  1.00 53.41 LIG 0.14  A 
ENDBRANCH 24 25
ENDBRANCH 23 24
BRANCH 23 30
ATOM     30  C   HIS C  66      11.845  -3.734  10.107  1.00 41.89 LIG 0.22  C 
ATOM     31 O    HIS C  66      11.401  -4.156  11.178  1.00 44.58 LIG-0.29  OA
ENDBRANCH 23 30
ENDBRANCH 20 23
ENDBRANCH 4 19
TORSDOF 9
ENDMDL
MODEL 162
USER: ADFR SOLUTION from run 71
USER: SCORE 10.450849 LL:  -2.284 LR:  -8.167 RR:   0.000 FEB:  -5.482
USER: RMSD 7.252604
USER: SEED 70
USER: STATUS no improvement in best in 36 clusters for 5 generations
USER: GENES 11
USER: genes 0 Translation |==|  0.58496 0.60445 0.41082
USER: genes 1 Rotation |==|  0.17232 0.29341 0.19386 0.57887
USER: genes 2 Torsion [N]-C--CA-[N] |==|  0.86995
USER: genes 3 Torsion [C]-CA--CB-[CG] |==|  0.44648
USER: genes 4 Torsion [CA]-CB--CG-[CD2] |==|  0.74726
USER: genes 5 Torsion [CE2]-CZ--OH-[HH] |==|  0.43013
USER: genes 6 Torsion [N]-CA--C-[N] |==|  0.07151
USER: genes 7 Torsion [C]-N--CA-[C] |==|  0.77388
USER: genes 8 Torsion [N]-CA--CB-[CG] |==|  0.08856
USER: genes 9 Torsion [CA]-CB--CG-[ND1] |==|  0.15573
USER: genes 10 Torsion [N]-CA--C-[O] |==|  0.98414
ROOT
ATOM      1  C   TYR C  64      13.744   0.896   5.472  1.00 51.57 LIG 0.26  C 
ATOM      2 O    TYR C  64      12.556   0.601   5.335  1.00 54.62 LIG-0.27  OA
ATOM      3  N   PRO C  65      14.238   1.368   6.629  1.00 43.10 LIG-0.34  N 
ATOM      4  CA  PRO C  65      15.635   1.642   6.977  1.00 38.90 LIG 0.18  C 
ATOM      5  CB  PRO C  65      15.526   2.899   7.828  1.00 40.80 LIG 0.04  C 
ATOM      6  CG  PRO C  65      14.220   2.737   8.526  1.00 42.19 LIG 0.02  C 
ATOM      7  CD  PRO C  65      13.311   1.983   7.595  1.00 44.37 LIG 0.13  C 
ENDROOT
BRANCH 1 8
ATOM      8  CA  TYR C  64      14.711   0.734   4.301  1.00 49.73 LIG 0.40  C 
ATOM      9  N   TYR C  64      15.519   1.945   4.175  1.00 50.52 LIG 0.61  N 
BRANCH 8 10
ATOM     10  CB  TYR C  64      15.602  -0.490   4.549  1.00 50.46 LIG 0.09  C 
BRANCH 10 11
ATOM     11  CG  TYR C  64      16.284  -1.058   3.324  1.00 47.68 LIG-0.06  A 
ATOM     12  CD2 TYR C  64      15.674  -2.059   2.577  1.00 48.34 LIG 0.01  A 
ATOM     13  CE2 TYR C  64      16.283  -2.590   1.455  1.00 49.15 LIG 0.04  A 
ATOM     14  CZ  TYR C  64      17.521  -2.119   1.067  1.00 50.59 LIG 0.07  A 
ATOM     15  CE1 TYR C  64      18.151  -1.124   1.789  1.00 46.73 LIG 0.04  A 
ATOM     16  CD1 TYR C  64      17.531  -0.599   2.911  1.00 46.22 LIG 0.01  A 
BRANCH 14 17
ATOM     17 OH   TYR C  64      18.134  -2.643  -0.048  1.00 53.82 LIG-0.36  OA
ATOM     18 HH   TYR C  64      18.668  -2.078  -0.366  1.00 53.82 LIG 0.22  HD
ENDBRANCH 14 17
ENDBRANCH 10 11
ENDBRANCH 8 10
ENDBRANCH 1 8
BRANCH 4 19
ATOM     19  C   PRO C  65      16.250   0.515   7.801  1.00 37.07 LIG 0.24  C 
ATOM     20  N   HIS C  66      15.703  -0.688   7.636  1.00 40.38 LIG-0.35  N 
ATOM     21 H    HIS C  66      15.022  -0.834   7.131  1.00 40.38 LIG 0.16  HD
ATOM     22 O    PRO C  65      17.193   0.751   8.577  1.00 29.28 LIG-0.27  OA
BRANCH 20 23
ATOM     23  CA  HIS C  66      16.214  -1.877   8.302  1.00 40.25 LIG 0.17  C 
BRANCH 23 24
ATOM     24  CB  HIS C  66      15.115  -2.943   8.418  1.00 42.68 LIG 0.09  C 
BRANCH 24 25
ATOM     25  CG  HIS C  66      14.129  -2.926   7.290  1.00 48.80 LIG 0.06  A 
ATOM     26 ND1  HIS C  66      14.504  -3.043   5.968  1.00 53.13 LIG-0.24  NA
ATOM     27  CE1 HIS C  66      13.428  -2.999   5.202  1.00 55.16 LIG 0.23  A 
ATOM     28 NE2  HIS C  66      12.368  -2.857   5.979  1.00 53.86 LIG-0.25  NA
ATOM     29  CD2 HIS C  66      12.781  -2.808   7.290  1.00 53.41 LIG 0.14  A 
ENDBRANCH 24 25
ENDBRANCH 23 24
BRANCH 23 30
ATOM     30  C   HIS C  66      17.419  -2.453   7.558  1.00 41.89 LIG 0.22  C 
ATOM     31 O    HIS C  66      17.776  -1.979   6.476  1.00 44.58 LIG-0.29  OA
ENDBRANCH 23 30
ENDBRANCH 20 23
ENDBRANCH 4 19
TORSDOF 9
ENDMDL
MODEL 163
USER: ADFR SOLUTION from run 195
USER: SCORE 10.274640 LL:  -2.106 LR:  -8.169 RR:   0.000 FEB:  -5.484
USER: RMSD 5.729194
USER: SEED 194
USER: STATUS no improvement in best in 45 clusters for 5 generations
USER: GENES 11
USER: genes 0 Translation |==|  0.70845 0.58187 0.55330
USER: genes 1 Rotation |==|  0.09802 0.73838 0.33635 0.56931
USER: genes 2 Torsion [N]-C--CA-[N] |==|  0.13496
USER: genes 3 Torsion [C]-CA--CB-[CG] |==|  0.80192
USER: genes 4 Torsion [CA]-CB--CG-[CD2] |==|  0.98871
USER: genes 5 Torsion [CE2]-CZ--OH-[HH] |==|  0.19990
USER: genes 6 Torsion [N]-CA--C-[N] |==|  0.07118
USER: genes 7 Torsion [C]-N--CA-[C] |==|  0.64733
USER: genes 8 Torsion [N]-CA--CB-[CG] |==|  0.99071
USER: genes 9 Torsion [CA]-CB--CG-[ND1] |==|  0.27902
USER: genes 10 Torsion [N]-CA--C-[O] |==|  0.08524
ROOT
ATOM      1  C   TYR C  64      16.060   0.540   8.036  1.00 51.57 LIG 0.26  C 
ATOM      2 O    TYR C  64      15.869   1.105   9.114  1.00 54.62 LIG-0.27  OA
ATOM      3  N   PRO C  65      16.458  -0.740   7.957  1.00 43.10 LIG-0.34  N 
ATOM      4  CA  PRO C  65      16.605  -1.574   6.761  1.00 38.90 LIG 0.18  C 
ATOM      5  CB  PRO C  65      17.845  -2.398   7.079  1.00 40.80 LIG 0.04  C 
ATOM      6  CG  PRO C  65      17.776  -2.578   8.556  1.00 42.19 LIG 0.02  C 
ATOM      7  CD  PRO C  65      17.125  -1.347   9.123  1.00 44.37 LIG 0.13  C 
ENDROOT
BRANCH 1 8
ATOM      8  CA  TYR C  64      15.846   1.300   6.729  1.00 49.73 LIG 0.40  C 
ATOM      9  N   TYR C  64      15.030   0.487   5.830  1.00 50.52 LIG 0.61  N 
BRANCH 8 10
ATOM     10  CB  TYR C  64      15.156   2.636   7.028  1.00 50.46 LIG 0.09  C 
BRANCH 10 11
ATOM     11  CG  TYR C  64      13.704   2.541   7.443  1.00 47.68 LIG-0.06  A 
ATOM     12  CD2 TYR C  64      13.052   1.313   7.452  1.00 48.34 LIG 0.01  A 
ATOM     13  CE2 TYR C  64      11.725   1.209   7.827  1.00 49.15 LIG 0.04  A 
ATOM     14  CZ  TYR C  64      11.033   2.342   8.200  1.00 50.59 LIG 0.07  A 
ATOM     15  CE1 TYR C  64      11.655   3.575   8.202  1.00 46.73 LIG 0.04  A 
ATOM     16  CD1 TYR C  64      12.985   3.669   7.825  1.00 46.22 LIG 0.01  A 
BRANCH 14 17
ATOM     17 OH   TYR C  64       9.712   2.246   8.574  1.00 53.82 LIG-0.36  OA
ATOM     18 HH   TYR C  64       9.660   1.877   9.327  1.00 53.82 LIG 0.22  HD
ENDBRANCH 14 17
ENDBRANCH 10 11
ENDBRANCH 8 10
ENDBRANCH 1 8
BRANCH 4 19
ATOM     19  C   PRO C  65      15.410  -2.502   6.562  1.00 37.07 LIG 0.24  C 
ATOM     20  N   HIS C  66      14.263  -2.090   7.098  1.00 40.38 LIG-0.35  N 
ATOM     21 H    HIS C  66      14.187  -1.371   7.563  1.00 40.38 LIG 0.16  HD
ATOM     22 O    PRO C  65      15.546  -3.571   5.942  1.00 29.28 LIG-0.27  OA
BRANCH 20 23
ATOM     23  CA  HIS C  66      13.019  -2.829   6.943  1.00 40.25 LIG 0.17  C 
BRANCH 23 24
ATOM     24  CB  HIS C  66      12.589  -3.446   8.282  1.00 42.68 LIG 0.09  C 
BRANCH 24 25
ATOM     25  CG  HIS C  66      13.565  -3.222   9.396  1.00 48.80 LIG 0.06  A 
ATOM     26 ND1  HIS C  66      13.391  -2.249  10.358  1.00 53.13 LIG-0.24  NA
ATOM     27  CE1 HIS C  66      14.402  -2.287  11.208  1.00 55.16 LIG 0.23  A 
ATOM     28 NE2  HIS C  66      15.226  -3.249  10.833  1.00 53.86 LIG-0.25  NA
ATOM     29  CD2 HIS C  66      14.725  -3.849   9.701  1.00 53.41 LIG 0.14  A 
ENDBRANCH 24 25
ENDBRANCH 23 24
BRANCH 23 30
ATOM     30  C   HIS C  66      11.905  -1.930   6.404  1.00 41.89 LIG 0.22  C 
ATOM     31 O    HIS C  66      12.166  -0.986   5.655  1.00 44.58 LIG-0.29  OA
ENDBRANCH 23 30
ENDBRANCH 20 23
ENDBRANCH 4 19
TORSDOF 9
ENDMDL
MODEL 164
USER: ADFR SOLUTION from run 112
USER: SCORE 10.618840 LL:  -2.458 LR:  -8.161 RR:   0.000 FEB:  -5.476
USER: RMSD 3.899124
USER: SEED 111
USER: STATUS no improvement in best in 37 clusters for 5 generations
USER: GENES 11
USER: genes 0 Translation |==|  0.48542 0.42185 0.52404
USER: genes 1 Rotation |==|  0.46725 0.36080 0.17896 0.85564
USER: genes 2 Torsion [N]-C--CA-[N] |==|  0.36923
USER: genes 3 Torsion [C]-CA--CB-[CG] |==|  0.12074
USER: genes 4 Torsion [CA]-CB--CG-[CD2] |==|  0.65300
USER: genes 5 Torsion [CE2]-CZ--OH-[HH] |==|  0.06558
USER: genes 6 Torsion [N]-CA--C-[N] |==|  0.28877
USER: genes 7 Torsion [C]-N--CA-[C] |==|  0.50304
USER: genes 8 Torsion [N]-CA--CB-[CG] |==|  0.09775
USER: genes 9 Torsion [CA]-CB--CG-[ND1] |==|  0.70514
USER: genes 10 Torsion [N]-CA--C-[O] |==|  0.97056
ROOT
ATOM      1  C   TYR C  64      11.878  -1.980   7.510  1.00 51.57 LIG 0.26  C 
ATOM      2 O    TYR C  64      11.484  -2.437   6.437  1.00 54.62 LIG-0.27  OA
ATOM      3  N   PRO C  65      12.167  -2.764   8.562  1.00 43.10 LIG-0.34  N 
ATOM      4  CA  PRO C  65      12.756  -2.380   9.848  1.00 38.90 LIG 0.18  C 
ATOM      5  CB  PRO C  65      12.017  -3.273  10.833  1.00 40.80 LIG 0.04  C 
ATOM      6  CG  PRO C  65      11.766  -4.519  10.056  1.00 42.19 LIG 0.02  C 
ATOM      7  CD  PRO C  65      11.581  -4.115   8.619  1.00 44.37 LIG 0.13  C 
ENDROOT
BRANCH 1 8
ATOM      8  CA  TYR C  64      12.048  -0.472   7.680  1.00 49.73 LIG 0.40  C 
ATOM      9  N   TYR C  64      12.775   0.061   6.530  1.00 50.52 LIG 0.61  N 
BRANCH 8 10
ATOM     10  CB  TYR C  64      10.666   0.182   7.799  1.00 50.46 LIG 0.09  C 
BRANCH 10 11
ATOM     11  CG  TYR C  64       9.679  -0.538   8.692  1.00 47.68 LIG-0.06  A 
ATOM     12  CD2 TYR C  64       8.434  -0.918   8.204  1.00 48.34 LIG 0.01  A 
ATOM     13  CE2 TYR C  64       7.520  -1.576   9.006  1.00 49.15 LIG 0.04  A 
ATOM     14  CZ  TYR C  64       7.848  -1.863  10.316  1.00 50.59 LIG 0.07  A 
ATOM     15  CE1 TYR C  64       9.078  -1.499  10.827  1.00 46.73 LIG 0.04  A 
ATOM     16  CD1 TYR C  64       9.987  -0.841  10.015  1.00 46.22 LIG 0.01  A 
BRANCH 14 17
ATOM     17 OH   TYR C  64       6.943  -2.517  11.120  1.00 53.82 LIG-0.36  OA
ATOM     18 HH   TYR C  64       6.406  -2.953  10.642  1.00 53.82 LIG 0.22  HD
ENDBRANCH 14 17
ENDBRANCH 10 11
ENDBRANCH 8 10
ENDBRANCH 1 8
BRANCH 4 19
ATOM     19  C   PRO C  65      14.251  -2.680   9.903  1.00 37.07 LIG 0.24  C 
ATOM     20  N   HIS C  66      15.057  -1.629   9.772  1.00 40.38 LIG-0.35  N 
ATOM     21 H    HIS C  66      14.776  -0.830   9.625  1.00 40.38 LIG 0.16  HD
ATOM     22 O    PRO C  65      14.648  -3.849  10.052  1.00 29.28 LIG-0.27  OA
BRANCH 20 23
ATOM     23  CA  HIS C  66      16.506  -1.738   9.865  1.00 40.25 LIG 0.17  C 
BRANCH 23 24
ATOM     24  CB  HIS C  66      17.042  -2.713   8.806  1.00 42.68 LIG 0.09  C 
BRANCH 24 25
ATOM     25  CG  HIS C  66      16.289  -2.677   7.511  1.00 48.80 LIG 0.06  A 
ATOM     26 ND1  HIS C  66      15.421  -3.676   7.123  1.00 53.13 LIG-0.24  NA
ATOM     27  CE1 HIS C  66      14.904  -3.374   5.945  1.00 55.16 LIG 0.23  A 
ATOM     28 NE2  HIS C  66      15.406  -2.216   5.553  1.00 53.86 LIG-0.25  NA
ATOM     29  CD2 HIS C  66      16.276  -1.760   6.516  1.00 53.41 LIG 0.14  A 
ENDBRANCH 24 25
ENDBRANCH 23 24
BRANCH 23 30
ATOM     30  C   HIS C  66      17.176  -0.374   9.702  1.00 41.89 LIG 0.22  C 
ATOM     31 O    HIS C  66      16.526   0.605   9.327  1.00 44.58 LIG-0.29  OA
ENDBRANCH 23 30
ENDBRANCH 20 23
ENDBRANCH 4 19
TORSDOF 9
ENDMDL
MODEL 165
USER: ADFR SOLUTION from run 48
USER: SCORE 10.344167 LL:  -2.188 LR:  -8.156 RR:   0.000 FEB:  -5.471
USER: RMSD 6.189350
USER: SEED 47
USER: STATUS no improvement in best in 44 clusters for 5 generations
USER: GENES 11
USER: genes 0 Translation |==|  0.66212 0.67307 0.53447
USER: genes 1 Rotation |==|  0.39060 0.13184 0.79221 0.63077
USER: genes 2 Torsion [N]-C--CA-[N] |==|  0.23168
USER: genes 3 Torsion [C]-CA--CB-[CG] |==|  0.31427
USER: genes 4 Torsion [CA]-CB--CG-[CD2] |==|  0.72126
USER: genes 5 Torsion [CE2]-CZ--OH-[HH] |==|  0.37749
USER: genes 6 Torsion [N]-CA--C-[N] |==|  0.10216
USER: genes 7 Torsion [C]-N--CA-[C] |==|  0.67211
USER: genes 8 Torsion [N]-CA--CB-[CG] |==|  0.95198
USER: genes 9 Torsion [CA]-CB--CG-[ND1] |==|  0.23700
USER: genes 10 Torsion [N]-CA--C-[O] |==|  0.00506
ROOT
ATOM      1  C   TYR C  64      15.191   1.977   7.698  1.00 51.57 LIG 0.26  C 
ATOM      2 O    TYR C  64      15.901   2.470   8.574  1.00 54.62 LIG-0.27  OA
ATOM      3  N   PRO C  65      13.998   2.498   7.363  1.00 43.10 LIG-0.34  N 
ATOM      4  CA  PRO C  65      13.107   2.100   6.269  1.00 38.90 LIG 0.18  C 
ATOM      5  CB  PRO C  65      11.727   2.262   6.888  1.00 40.80 LIG 0.04  C 
ATOM      6  CG  PRO C  65      11.894   3.412   7.820  1.00 42.19 LIG 0.02  C 
ATOM      7  CD  PRO C  65      13.307   3.364   8.334  1.00 44.37 LIG 0.13  C 
ENDROOT
BRANCH 1 8
ATOM      8  CA  TYR C  64      15.655   0.728   6.951  1.00 49.73 LIG 0.40  C 
ATOM      9  N   TYR C  64      16.276   1.126   5.690  1.00 50.52 LIG 0.61  N 
BRANCH 8 10
ATOM     10  CB  TYR C  64      16.651  -0.042   7.827  1.00 50.46 LIG 0.09  C 
BRANCH 10 11
ATOM     11  CG  TYR C  64      16.178  -1.393   8.319  1.00 47.68 LIG-0.06  A 
ATOM     12  CD2 TYR C  64      15.692  -1.542   9.613  1.00 48.34 LIG 0.01  A 
ATOM     13  CE2 TYR C  64      15.257  -2.768  10.078  1.00 49.15 LIG 0.04  A 
ATOM     14  CZ  TYR C  64      15.305  -3.868   9.245  1.00 50.59 LIG 0.07  A 
ATOM     15  CE1 TYR C  64      15.781  -3.749   7.954  1.00 46.73 LIG 0.04  A 
ATOM     16  CD1 TYR C  64      16.214  -2.515   7.497  1.00 46.22 LIG 0.01  A 
BRANCH 14 17
ATOM     17 OH   TYR C  64      14.874  -5.092   9.702  1.00 53.82 LIG-0.36  OA
ATOM     18 HH   TYR C  64      14.401  -5.461   9.113  1.00 53.82 LIG 0.22  HD
ENDBRANCH 14 17
ENDBRANCH 10 11
ENDBRANCH 8 10
ENDBRANCH 1 8
BRANCH 4 19
ATOM     19  C   PRO C  65      13.240   3.021   5.061  1.00 37.07 LIG 0.24  C 
ATOM     20  N   HIS C  66      14.469   3.464   4.803  1.00 40.38 LIG-0.35  N 
ATOM     21 H    HIS C  66      15.151   3.285   5.295  1.00 40.38 LIG 0.16  HD
ATOM     22 O    PRO C  65      12.235   3.325   4.393  1.00 29.28 LIG-0.27  OA
BRANCH 20 23
ATOM     23  CA  HIS C  66      14.773   4.300   3.650  1.00 40.25 LIG 0.17  C 
BRANCH 23 24
ATOM     24  CB  HIS C  66      15.344   5.651   4.102  1.00 42.68 LIG 0.09  C 
BRANCH 24 25
ATOM     25  CG  HIS C  66      15.085   5.971   5.542  1.00 48.80 LIG 0.06  A 
ATOM     26 ND1  HIS C  66      15.901   5.532   6.564  1.00 53.13 LIG-0.24  NA
ATOM     27  CE1 HIS C  66      15.430   5.968   7.719  1.00 55.16 LIG 0.23  A 
ATOM     28 NE2  HIS C  66      14.337   6.673   7.485  1.00 53.86 LIG-0.25  NA
ATOM     29  CD2 HIS C  66      14.100   6.689   6.130  1.00 53.41 LIG 0.14  A 
ENDBRANCH 24 25
ENDBRANCH 23 24
BRANCH 23 30
ATOM     30  C   HIS C  66      15.759   3.607   2.709  1.00 41.89 LIG 0.22  C 
ATOM     31 O    HIS C  66      16.167   2.469   2.952  1.00 44.58 LIG-0.29  OA
ENDBRANCH 23 30
ENDBRANCH 20 23
ENDBRANCH 4 19
TORSDOF 9
ENDMDL
MODEL 166
USER: ADFR SOLUTION from run 2
USER: SCORE 10.309440 LL:  -2.150 LR:  -8.159 RR:   0.000 FEB:  -5.475
USER: RMSD 6.905116
USER: SEED 596781
USER: STATUS no improvement in best in 26 clusters for 5 generations
USER: GENES 11
USER: genes 0 Translation |==|  0.66732 0.37268 0.63451
USER: genes 1 Rotation |==|  0.25682 0.84407 0.73599 0.62958
USER: genes 2 Torsion [N]-C--CA-[N] |==|  0.39166
USER: genes 3 Torsion [C]-CA--CB-[CG] |==|  0.20597
USER: genes 4 Torsion [CA]-CB--CG-[CD2] |==|  0.77333
USER: genes 5 Torsion [CE2]-CZ--OH-[HH] |==|  0.73421
USER: genes 6 Torsion [N]-CA--C-[N] |==|  0.92629
USER: genes 7 Torsion [C]-N--CA-[C] |==|  0.71469
USER: genes 8 Torsion [N]-CA--CB-[CG] |==|  0.87152
USER: genes 9 Torsion [CA]-CB--CG-[ND1] |==|  0.95445
USER: genes 10 Torsion [N]-CA--C-[O] |==|  0.63718
ROOT
ATOM      1  C   TYR C  64      15.288  -2.754   9.498  1.00 51.57 LIG 0.26  C 
ATOM      2 O    TYR C  64      16.107  -3.647   9.718  1.00 54.62 LIG-0.27  OA
ATOM      3  N   PRO C  65      14.387  -2.836   8.505  1.00 43.10 LIG-0.34  N 
ATOM      4  CA  PRO C  65      13.282  -1.921   8.202  1.00 38.90 LIG 0.18  C 
ATOM      5  CB  PRO C  65      13.268  -1.909   6.680  1.00 40.80 LIG 0.04  C 
ATOM      6  CG  PRO C  65      13.700  -3.287   6.314  1.00 42.19 LIG 0.02  C 
ATOM      7  CD  PRO C  65      14.656  -3.749   7.380  1.00 44.37 LIG 0.13  C 
ENDROOT
BRANCH 1 8
ATOM      8  CA  TYR C  64      15.276  -1.498  10.367  1.00 49.73 LIG 0.40  C 
ATOM      9  N   TYR C  64      15.526  -1.874  11.756  1.00 50.52 LIG 0.61  N 
BRANCH 8 10
ATOM     10  CB  TYR C  64      16.351  -0.527   9.865  1.00 50.46 LIG 0.09  C 
BRANCH 10 11
ATOM     11  CG  TYR C  64      16.028   0.194   8.575  1.00 47.68 LIG-0.06  A 
ATOM     12  CD2 TYR C  64      16.227  -0.431   7.348  1.00 48.34 LIG 0.01  A 
ATOM     13  CE2 TYR C  64      15.938   0.214   6.160  1.00 49.15 LIG 0.04  A 
ATOM     14  CZ  TYR C  64      15.441   1.501   6.188  1.00 50.59 LIG 0.07  A 
ATOM     15  CE1 TYR C  64      15.231   2.146   7.392  1.00 46.73 LIG 0.04  A 
ATOM     16  CD1 TYR C  64      15.524   1.491   8.576  1.00 46.22 LIG 0.01  A 
BRANCH 14 17
ATOM     17 OH   TYR C  64      15.151   2.149   5.009  1.00 53.82 LIG-0.36  OA
ATOM     18 HH   TYR C  64      15.804   2.628   4.785  1.00 53.82 LIG 0.22  HD
ENDBRANCH 14 17
ENDBRANCH 10 11
ENDBRANCH 8 10
ENDBRANCH 1 8
BRANCH 4 19
ATOM     19  C   PRO C  65      11.948  -2.445   8.723  1.00 37.07 LIG 0.24  C 
ATOM     20  N   HIS C  66      11.854  -3.769   8.843  1.00 40.38 LIG-0.35  N 
ATOM     21 H    HIS C  66      12.478  -4.312   8.611  1.00 40.38 LIG 0.16  HD
ATOM     22 O    PRO C  65      11.029  -1.653   8.996  1.00 29.28 LIG-0.27  OA
BRANCH 20 23
ATOM     23  CA  HIS C  66      10.671  -4.422   9.385  1.00 40.25 LIG 0.17  C 
BRANCH 23 24
ATOM     24  CB  HIS C  66      10.276  -5.626   8.518  1.00 42.68 LIG 0.09  C 
BRANCH 24 25
ATOM     25  CG  HIS C  66      10.274  -5.341   7.046  1.00 48.80 LIG 0.06  A 
ATOM     26 ND1  HIS C  66      10.271  -4.062   6.532  1.00 53.13 LIG-0.24  NA
ATOM     27  CE1 HIS C  66      10.273  -4.120   5.212  1.00 55.16 LIG 0.23  A 
ATOM     28 NE2  HIS C  66      10.276  -5.391   4.851  1.00 53.86 LIG-0.25  NA
ATOM     29  CD2 HIS C  66      10.276  -6.175   5.980  1.00 53.41 LIG 0.14  A 
ENDBRANCH 24 25
ENDBRANCH 23 24
BRANCH 23 30
ATOM     30  C   HIS C  66      10.900  -4.873  10.827  1.00 41.89 LIG 0.22  C 
ATOM     31 O    HIS C  66      10.623  -6.023  11.178  1.00 44.58 LIG-0.29  OA
ENDBRANCH 23 30
ENDBRANCH 20 23
ENDBRANCH 4 19
TORSDOF 9
ENDMDL
MODEL 167
USER: ADFR SOLUTION from run 26
USER: SCORE 10.192892 LL:  -2.047 LR:  -8.146 RR:   0.000 FEB:  -5.461
USER: RMSD 6.825629
USER: SEED 25
USER: STATUS no improvement in best in 50 clusters for 5 generations
USER: GENES 11
USER: genes 0 Translation |==|  0.65038 0.57884 0.40376
USER: genes 1 Rotation |==|  0.91864 0.40295 0.28187 0.63319
USER: genes 2 Torsion [N]-C--CA-[N] |==|  0.27847
USER: genes 3 Torsion [C]-CA--CB-[CG] |==|  0.83242
USER: genes 4 Torsion [CA]-CB--CG-[CD2] |==|  0.85236
USER: genes 5 Torsion [CE2]-CZ--OH-[HH] |==|  0.46041
USER: genes 6 Torsion [N]-CA--C-[N] |==|  0.14603
USER: genes 7 Torsion [C]-N--CA-[C] |==|  0.67506
USER: genes 8 Torsion [N]-CA--CB-[CG] |==|  0.11265
USER: genes 9 Torsion [CA]-CB--CG-[ND1] |==|  0.82610
USER: genes 10 Torsion [N]-CA--C-[O] |==|  0.87157
ROOT
ATOM      1  C   TYR C  64      14.971   0.493   5.345  1.00 51.57 LIG 0.26  C 
ATOM      2 O    TYR C  64      15.790   1.407   5.438  1.00 54.62 LIG-0.27  OA
ATOM      3  N   PRO C  65      15.220  -0.627   4.644  1.00 43.10 LIG-0.34  N 
ATOM      4  CA  PRO C  65      14.402  -1.839   4.546  1.00 38.90 LIG 0.18  C 
ATOM      5  CB  PRO C  65      14.588  -2.249   3.092  1.00 40.80 LIG 0.04  C 
ATOM      6  CG  PRO C  65      15.982  -1.823   2.784  1.00 42.19 LIG 0.02  C 
ATOM      7  CD  PRO C  65      16.259  -0.591   3.600  1.00 44.37 LIG 0.13  C 
ENDROOT
BRANCH 1 8
ATOM      8  CA  TYR C  64      13.614   0.610   6.036  1.00 49.73 LIG 0.40  C 
ATOM      9  N   TYR C  64      13.768   0.287   7.452  1.00 50.52 LIG 0.61  N 
BRANCH 8 10
ATOM     10  CB  TYR C  64      13.080   2.037   5.860  1.00 50.46 LIG 0.09  C 
BRANCH 10 11
ATOM     11  CG  TYR C  64      13.948   3.133   6.440  1.00 47.68 LIG-0.06  A 
ATOM     12  CD2 TYR C  64      14.359   3.080   7.767  1.00 48.34 LIG 0.01  A 
ATOM     13  CE2 TYR C  64      15.151   4.073   8.312  1.00 49.15 LIG 0.04  A 
ATOM     14  CZ  TYR C  64      15.543   5.138   7.527  1.00 50.59 LIG 0.07  A 
ATOM     15  CE1 TYR C  64      15.151   5.217   6.205  1.00 46.73 LIG 0.04  A 
ATOM     16  CD1 TYR C  64      14.358   4.216   5.668  1.00 46.22 LIG 0.01  A 
BRANCH 14 17
ATOM     17 OH   TYR C  64      16.331   6.131   8.064  1.00 53.82 LIG-0.36  OA
ATOM     18 HH   TYR C  64      16.651   6.600   7.445  1.00 53.82 LIG 0.22  HD
ENDBRANCH 14 17
ENDBRANCH 10 11
ENDBRANCH 8 10
ENDBRANCH 1 8
BRANCH 4 19
ATOM     19  C   PRO C  65      14.911  -2.947   5.461  1.00 37.07 LIG 0.24  C 
ATOM     20  N   HIS C  66      15.081  -2.610   6.738  1.00 40.38 LIG-0.35  N 
ATOM     21 H    HIS C  66      14.956  -1.815   7.041  1.00 40.38 LIG 0.16  HD
ATOM     22 O    PRO C  65      15.151  -4.078   5.001  1.00 29.28 LIG-0.27  OA
BRANCH 20 23
ATOM     23  CA  HIS C  66      15.501  -3.568   7.750  1.00 40.25 LIG 0.17  C 
BRANCH 23 24
ATOM     24  CB  HIS C  66      16.816  -3.121   8.404  1.00 42.68 LIG 0.09  C 
BRANCH 24 25
ATOM     25  CG  HIS C  66      16.892  -1.648   8.673  1.00 48.80 LIG 0.06  A 
ATOM     26 ND1  HIS C  66      16.853  -0.702   7.670  1.00 53.13 LIG-0.24  NA
ATOM     27  CE1 HIS C  66      16.936   0.504   8.202  1.00 55.16 LIG 0.23  A 
ATOM     28 NE2  HIS C  66      17.026   0.376   9.514  1.00 53.86 LIG-0.25  NA
ATOM     29  CD2 HIS C  66      17.002  -0.961   9.833  1.00 53.41 LIG 0.14  A 
ENDBRANCH 24 25
ENDBRANCH 23 24
BRANCH 23 30
ATOM     30  C   HIS C  66      14.424  -3.750   8.821  1.00 41.89 LIG 0.22  C 
ATOM     31 O    HIS C  66      13.865  -2.772   9.322  1.00 44.58 LIG-0.29  OA
ENDBRANCH 23 30
ENDBRANCH 20 23
ENDBRANCH 4 19
TORSDOF 9
ENDMDL
MODEL 168
USER: ADFR SOLUTION from run 17
USER: SCORE 10.455978 LL:  -2.317 LR:  -8.139 RR:   0.000 FEB:  -5.455
USER: RMSD 5.898015
USER: SEED 16
USER: STATUS no improvement in best in 19 clusters for 5 generations
USER: GENES 11
USER: genes 0 Translation |==|  0.55207 0.37337 0.63650
USER: genes 1 Rotation |==|  0.48968 0.92110 0.36794 0.73479
USER: genes 2 Torsion [N]-C--CA-[N] |==|  0.45986
USER: genes 3 Torsion [C]-CA--CB-[CG] |==|  0.34077
USER: genes 4 Torsion [CA]-CB--CG-[CD2] |==|  0.95191
USER: genes 5 Torsion [CE2]-CZ--OH-[HH] |==|  0.93815
USER: genes 6 Torsion [N]-CA--C-[N] |==|  0.48677
USER: genes 7 Torsion [C]-N--CA-[C] |==|  0.50563
USER: genes 8 Torsion [N]-CA--CB-[CG] |==|  0.09003
USER: genes 9 Torsion [CA]-CB--CG-[ND1] |==|  0.64554
USER: genes 10 Torsion [N]-CA--C-[O] |==|  0.92141
ROOT
ATOM      1  C   TYR C  64      13.127  -2.743   9.534  1.00 51.57 LIG 0.26  C 
ATOM      2 O    TYR C  64      12.252  -2.922  10.381  1.00 54.62 LIG-0.27  OA
ATOM      3  N   PRO C  65      12.898  -2.905   8.220  1.00 43.10 LIG-0.34  N 
ATOM      4  CA  PRO C  65      13.794  -2.612   7.098  1.00 38.90 LIG 0.18  C 
ATOM      5  CB  PRO C  65      13.498  -3.749   6.130  1.00 40.80 LIG 0.04  C 
ATOM      6  CG  PRO C  65      12.052  -4.029   6.351  1.00 42.19 LIG 0.02  C 
ATOM      7  CD  PRO C  65      11.761  -3.743   7.798  1.00 44.37 LIG 0.13  C 
ENDROOT
BRANCH 1 8
ATOM      8  CA  TYR C  64      14.532  -2.326   9.963  1.00 49.73 LIG 0.40  C 
ATOM      9  N   TYR C  64      14.494  -1.874  11.352  1.00 50.52 LIG 0.61  N 
BRANCH 8 10
ATOM     10  CB  TYR C  64      15.483  -3.520   9.807  1.00 50.46 LIG 0.09  C 
BRANCH 10 11
ATOM     11  CG  TYR C  64      16.678  -3.288   8.909  1.00 47.68 LIG-0.06  A 
ATOM     12  CD2 TYR C  64      16.692  -2.223   8.015  1.00 48.34 LIG 0.01  A 
ATOM     13  CE2 TYR C  64      17.776  -1.998   7.186  1.00 49.15 LIG 0.04  A 
ATOM     14  CZ  TYR C  64      18.865  -2.842   7.246  1.00 50.59 LIG 0.07  A 
ATOM     15  CE1 TYR C  64      18.879  -3.907   8.126  1.00 46.73 LIG 0.04  A 
ATOM     16  CD1 TYR C  64      17.789  -4.124   8.952  1.00 46.22 LIG 0.01  A 
BRANCH 14 17
ATOM     17 OH   TYR C  64      19.947  -2.624   6.424  1.00 53.82 LIG-0.36  OA
ATOM     18 HH   TYR C  64      19.707  -2.170   5.759  1.00 53.82 LIG 0.22  HD
ENDBRANCH 14 17
ENDBRANCH 10 11
ENDBRANCH 8 10
ENDBRANCH 1 8
BRANCH 4 19
ATOM     19  C   PRO C  65      13.465  -1.277   6.438  1.00 37.07 LIG 0.24  C 
ATOM     20  N   HIS C  66      14.296  -0.890   5.471  1.00 40.38 LIG-0.35  N 
ATOM     21 H    HIS C  66      14.999  -1.329   5.245  1.00 40.38 LIG 0.16  HD
ATOM     22 O    PRO C  65      12.481  -0.618   6.816  1.00 29.28 LIG-0.27  OA
BRANCH 20 23
ATOM     23  CA  HIS C  66      14.085   0.327   4.701  1.00 40.25 LIG 0.17  C 
BRANCH 23 24
ATOM     24  CB  HIS C  66      14.071   1.553   5.626  1.00 42.68 LIG 0.09  C 
BRANCH 24 25
ATOM     25  CG  HIS C  66      14.965   1.425   6.821  1.00 48.80 LIG 0.06  A 
ATOM     26 ND1  HIS C  66      14.524   1.637   8.110  1.00 53.13 LIG-0.24  NA
ATOM     27  CE1 HIS C  66      15.526   1.451   8.952  1.00 55.16 LIG 0.23  A 
ATOM     28 NE2  HIS C  66      16.601   1.126   8.256  1.00 53.86 LIG-0.25  NA
ATOM     29  CD2 HIS C  66      16.276   1.104   6.920  1.00 53.41 LIG 0.14  A 
ENDBRANCH 24 25
ENDBRANCH 23 24
BRANCH 23 30
ATOM     30  C   HIS C  66      15.162   0.497   3.630  1.00 41.89 LIG 0.22  C 
ATOM     31 O    HIS C  66      16.291   0.026   3.791  1.00 44.58 LIG-0.29  OA
ENDBRANCH 23 30
ENDBRANCH 20 23
ENDBRANCH 4 19
TORSDOF 9
ENDMDL
MODEL 169
USER: ADFR SOLUTION from run 195
USER: SCORE 10.109942 LL:  -1.972 LR:  -8.138 RR:   0.000 FEB:  -5.454
USER: RMSD 7.926638
USER: SEED 194
USER: STATUS no improvement in best in 45 clusters for 5 generations
USER: GENES 11
USER: genes 0 Translation |==|  0.49388 0.30416 0.67777
USER: genes 1 Rotation |==|  0.61527 0.10921 0.78644 0.54416
USER: genes 2 Torsion [N]-C--CA-[N] |==|  0.27719
USER: genes 3 Torsion [C]-CA--CB-[CG] |==|  0.72720
USER: genes 4 Torsion [CA]-CB--CG-[CD2] |==|  0.21780
USER: genes 5 Torsion [CE2]-CZ--OH-[HH] |==|  0.59302
USER: genes 6 Torsion [N]-CA--C-[N] |==|  0.75812
USER: genes 7 Torsion [C]-N--CA-[C] |==|  0.14601
USER: genes 8 Torsion [N]-CA--CB-[CG] |==|  0.95497
USER: genes 9 Torsion [CA]-CB--CG-[ND1] |==|  0.30836
USER: genes 10 Torsion [N]-CA--C-[O] |==|  0.12236
ROOT
ATOM      1  C   TYR C  64      12.036  -3.834  10.277  1.00 51.57 LIG 0.26  C 
ATOM      2 O    TYR C  64      12.358  -3.058  11.177  1.00 54.62 LIG-0.27  OA
ATOM      3  N   PRO C  65      10.844  -4.452  10.255  1.00 43.10 LIG-0.34  N 
ATOM      4  CA  PRO C  65      10.276  -5.296   9.199  1.00 38.90 LIG 0.18  C 
ATOM      5  CB  PRO C  65       9.541  -6.369   9.990  1.00 40.80 LIG 0.04  C 
ATOM      6  CG  PRO C  65       9.072  -5.648  11.206  1.00 42.19 LIG 0.02  C 
ATOM      7  CD  PRO C  65      10.096  -4.592  11.518  1.00 44.37 LIG 0.13  C 
ENDROOT
BRANCH 1 8
ATOM      8  CA  TYR C  64      13.008  -4.124   9.135  1.00 49.73 LIG 0.40  C 
ATOM      9  N   TYR C  64      12.945  -3.034   8.164  1.00 50.52 LIG 0.61  N 
BRANCH 8 10
ATOM     10  CB  TYR C  64      14.425  -4.264   9.702  1.00 50.46 LIG 0.09  C 
BRANCH 10 11
ATOM     11  CG  TYR C  64      15.295  -3.030   9.595  1.00 47.68 LIG-0.06  A 
ATOM     12  CD2 TYR C  64      15.136  -1.976  10.487  1.00 48.34 LIG 0.01  A 
ATOM     13  CE2 TYR C  64      15.921  -0.841  10.403  1.00 49.15 LIG 0.04  A 
ATOM     14  CZ  TYR C  64      16.882  -0.751   9.417  1.00 50.59 LIG 0.07  A 
ATOM     15  CE1 TYR C  64      17.064  -1.784   8.518  1.00 46.73 LIG 0.04  A 
ATOM     16  CD1 TYR C  64      16.272  -2.916   8.611  1.00 46.22 LIG 0.01  A 
BRANCH 14 17
ATOM     17 OH   TYR C  64      17.667   0.376   9.327  1.00 53.82 LIG-0.36  OA
ATOM     18 HH   TYR C  64      17.849   0.528   8.521  1.00 53.82 LIG 0.22  HD
ENDBRANCH 14 17
ENDBRANCH 10 11
ENDBRANCH 8 10
ENDBRANCH 1 8
BRANCH 4 19
ATOM     19  C   PRO C  65       9.286  -4.531   8.328  1.00 37.07 LIG 0.24  C 
ATOM     20  N   HIS C  66       8.028  -4.510   8.764  1.00 40.38 LIG-0.35  N 
ATOM     21 H    HIS C  66       7.762  -4.926   9.468  1.00 40.38 LIG 0.16  HD
ATOM     22 O    PRO C  65       9.668  -3.987   7.277  1.00 29.28 LIG-0.27  OA
BRANCH 20 23
ATOM     23  CA  HIS C  66       6.976  -3.771   8.081  1.00 40.25 LIG 0.17  C 
BRANCH 23 24
ATOM     24  CB  HIS C  66       7.193  -2.259   8.234  1.00 42.68 LIG 0.09  C 
BRANCH 24 25
ATOM     25  CG  HIS C  66       8.154  -1.890   9.322  1.00 48.80 LIG 0.06  A 
ATOM     26 ND1  HIS C  66       9.398  -1.349   9.070  1.00 53.13 LIG-0.24  NA
ATOM     27  CE1 HIS C  66      10.018  -1.124  10.215  1.00 55.16 LIG 0.23  A 
ATOM     28 NE2  HIS C  66       9.223  -1.499  11.201  1.00 53.86 LIG-0.25  NA
ATOM     29  CD2 HIS C  66       8.051  -1.983  10.669  1.00 53.41 LIG 0.14  A 
ENDBRANCH 24 25
ENDBRANCH 23 24
BRANCH 23 30
ATOM     30  C   HIS C  66       6.915  -4.140   6.599  1.00 41.89 LIG 0.22  C 
ATOM     31 O    HIS C  66       6.989  -5.318   6.239  1.00 44.58 LIG-0.29  OA
ENDBRANCH 23 30
ENDBRANCH 20 23
ENDBRANCH 4 19
TORSDOF 9
ENDMDL
MODEL 170
USER: ADFR SOLUTION from run 56
USER: SCORE 9.856282 LL:  -1.723 LR:  -8.134 RR:   0.000 FEB:  -5.449
USER: RMSD 7.578962
USER: SEED 55
USER: STATUS no improvement in best in 51 clusters for 5 generations
USER: GENES 11
USER: genes 0 Translation |==|  0.49313 0.32874 0.67930
USER: genes 1 Rotation |==|  0.68266 0.08088 0.68431 0.58369
USER: genes 2 Torsion [N]-C--CA-[N] |==|  0.31439
USER: genes 3 Torsion [C]-CA--CB-[CG] |==|  0.72952
USER: genes 4 Torsion [CA]-CB--CG-[CD2] |==|  0.21632
USER: genes 5 Torsion [CE2]-CZ--OH-[HH] |==|  0.29921
USER: genes 6 Torsion [N]-CA--C-[N] |==|  0.95290
USER: genes 7 Torsion [C]-N--CA-[C] |==|  0.19837
USER: genes 8 Torsion [N]-CA--CB-[CG] |==|  0.82515
USER: genes 9 Torsion [CA]-CB--CG-[ND1] |==|  0.55124
USER: genes 10 Torsion [N]-CA--C-[O] |==|  0.15043
ROOT
ATOM      1  C   TYR C  64      12.022  -3.446  10.304  1.00 51.57 LIG 0.26  C 
ATOM      2 O    TYR C  64      12.656  -2.999  11.261  1.00 54.62 LIG-0.27  OA
ATOM      3  N   PRO C  65      10.895  -4.161  10.462  1.00 43.10 LIG-0.34  N 
ATOM      4  CA  PRO C  65       9.976  -4.647   9.428  1.00 38.90 LIG 0.18  C 
ATOM      5  CB  PRO C  65       9.563  -6.010   9.966  1.00 40.80 LIG 0.04  C 
ATOM      6  CG  PRO C  65       9.572  -5.821  11.444  1.00 42.19 LIG 0.02  C 
ATOM      7  CD  PRO C  65      10.651  -4.822  11.756  1.00 44.37 LIG 0.13  C 
ENDROOT
BRANCH 1 8
ATOM      8  CA  TYR C  64      12.513  -3.199   8.880  1.00 49.73 LIG 0.40  C 
ATOM      9  N   TYR C  64      12.407  -1.774   8.577  1.00 50.52 LIG 0.61  N 
BRANCH 8 10
ATOM     10  CB  TYR C  64      13.967  -3.672   8.758  1.00 50.46 LIG 0.09  C 
BRANCH 10 11
ATOM     11  CG  TYR C  64      15.018  -2.593   8.901  1.00 47.68 LIG-0.06  A 
ATOM     12  CD2 TYR C  64      15.362  -2.105  10.156  1.00 48.34 LIG 0.01  A 
ATOM     13  CE2 TYR C  64      16.319  -1.119  10.304  1.00 49.15 LIG 0.04  A 
ATOM     14  CZ  TYR C  64      16.947  -0.607   9.187  1.00 50.59 LIG 0.07  A 
ATOM     15  CE1 TYR C  64      16.626  -1.073   7.927  1.00 46.73 LIG 0.04  A 
ATOM     16  CD1 TYR C  64      15.666  -2.062   7.790  1.00 46.22 LIG 0.01  A 
BRANCH 14 17
ATOM     17 OH   TYR C  64      17.900   0.376   9.327  1.00 53.82 LIG-0.36  OA
ATOM     18 HH   TYR C  64      18.661   0.053   9.176  1.00 53.82 LIG 0.22  HD
ENDBRANCH 14 17
ENDBRANCH 10 11
ENDBRANCH 8 10
ENDBRANCH 1 8
BRANCH 4 19
ATOM     19  C   PRO C  65       8.746  -3.755   9.292  1.00 37.07 LIG 0.24  C 
ATOM     20  N   HIS C  66       8.516  -2.928  10.310  1.00 40.38 LIG-0.35  N 
ATOM     21 H    HIS C  66       8.994  -2.910  11.025  1.00 40.38 LIG 0.16  HD
ATOM     22 O    PRO C  65       8.024  -3.835   8.282  1.00 29.28 LIG-0.27  OA
BRANCH 20 23
ATOM     23  CA  HIS C  66       7.421  -1.969  10.306  1.00 40.25 LIG 0.17  C 
BRANCH 23 24
ATOM     24  CB  HIS C  66       7.436  -1.140   9.014  1.00 42.68 LIG 0.09  C 
BRANCH 24 25
ATOM     25  CG  HIS C  66       8.665  -0.299   8.845  1.00 48.80 LIG 0.06  A 
ATOM     26 ND1  HIS C  66       8.724   0.772   7.979  1.00 53.13 LIG-0.24  NA
ATOM     27  CE1 HIS C  66       9.924   1.322   8.044  1.00 55.16 LIG 0.23  A 
ATOM     28 NE2  HIS C  66      10.646   0.646   8.921  1.00 53.86 LIG-0.25  NA
ATOM     29  CD2 HIS C  66       9.881  -0.374   9.435  1.00 53.41 LIG 0.14  A 
ENDBRANCH 24 25
ENDBRANCH 23 24
BRANCH 23 30
ATOM     30  C   HIS C  66       6.071  -2.671  10.457  1.00 41.89 LIG 0.22  C 
ATOM     31 O    HIS C  66       5.863  -3.438  11.401  1.00 44.58 LIG-0.29  OA
ENDBRANCH 23 30
ENDBRANCH 20 23
ENDBRANCH 4 19
TORSDOF 9
ENDMDL
MODEL 171
USER: ADFR SOLUTION from run 186
USER: SCORE 9.926466 LL:  -1.821 LR:  -8.106 RR:   0.000 FEB:  -5.421
USER: RMSD 3.186282
USER: SEED 185
USER: STATUS no improvement in best in 28 clusters for 5 generations
USER: GENES 11
USER: genes 0 Translation |==|  0.66391 0.31577 0.64470
USER: genes 1 Rotation |==|  0.28656 0.63220 0.61992 0.91543
USER: genes 2 Torsion [N]-C--CA-[N] |==|  0.88121
USER: genes 3 Torsion [C]-CA--CB-[CG] |==|  0.24567
USER: genes 4 Torsion [CA]-CB--CG-[CD2] |==|  0.14615
USER: genes 5 Torsion [CE2]-CZ--OH-[HH] |==|  0.73591
USER: genes 6 Torsion [N]-CA--C-[N] |==|  0.95355
USER: genes 7 Torsion [C]-N--CA-[C] |==|  0.66874
USER: genes 8 Torsion [N]-CA--CB-[CG] |==|  0.79375
USER: genes 9 Torsion [CA]-CB--CG-[ND1] |==|  0.46153
USER: genes 10 Torsion [N]-CA--C-[O] |==|  0.94974
ROOT
ATOM      1  C   TYR C  64      15.224  -3.651   9.682  1.00 51.57 LIG 0.26  C 
ATOM      2 O    TYR C  64      15.362  -4.874   9.701  1.00 54.62 LIG-0.27  OA
ATOM      3  N   PRO C  65      15.957  -2.859   8.880  1.00 43.10 LIG-0.34  N 
ATOM      4  CA  PRO C  65      15.822  -1.416   8.658  1.00 38.90 LIG 0.18  C 
ATOM      5  CB  PRO C  65      17.270  -0.964   8.525  1.00 40.80 LIG 0.04  C 
ATOM      6  CG  PRO C  65      17.943  -2.128   7.884  1.00 42.19 LIG 0.02  C 
ATOM      7  CD  PRO C  65      17.241  -3.367   8.366  1.00 44.37 LIG 0.13  C 
ENDROOT
BRANCH 1 8
ATOM      8  CA  TYR C  64      14.196  -2.982  10.592  1.00 49.73 LIG 0.40  C 
ATOM      9  N   TYR C  64      14.788  -1.785  11.184  1.00 50.52 LIG 0.61  N 
BRANCH 8 10
ATOM     10  CB  TYR C  64      12.952  -2.624   9.770  1.00 50.46 LIG 0.09  C 
BRANCH 10 11
ATOM     11  CG  TYR C  64      11.899  -3.706   9.677  1.00 47.68 LIG-0.06  A 
ATOM     12  CD2 TYR C  64      11.401  -4.308  10.827  1.00 48.34 LIG 0.01  A 
ATOM     13  CE2 TYR C  64      10.440  -5.298  10.759  1.00 49.15 LIG 0.04  A 
ATOM     14  CZ  TYR C  64       9.963  -5.700   9.528  1.00 50.59 LIG 0.07  A 
ATOM     15  CE1 TYR C  64      10.438  -5.120   8.369  1.00 46.73 LIG 0.04  A 
ATOM     16  CD1 TYR C  64      11.401  -4.127   8.447  1.00 46.22 LIG 0.01  A 
BRANCH 14 17
ATOM     17 OH   TYR C  64       9.006  -6.687   9.453  1.00 53.82 LIG-0.36  OA
ATOM     18 HH   TYR C  64       9.378  -7.430   9.327  1.00 53.82 LIG 0.22  HD
ENDBRANCH 14 17
ENDBRANCH 10 11
ENDBRANCH 8 10
ENDBRANCH 1 8
BRANCH 4 19
ATOM     19  C   PRO C  65      15.067  -1.105   7.370  1.00 37.07 LIG 0.24  C 
ATOM     20  N   HIS C  66      14.963  -2.110   6.503  1.00 40.38 LIG-0.35  N 
ATOM     21 H    HIS C  66      15.323  -2.881   6.624  1.00 40.38 LIG 0.16  HD
ATOM     22 O    PRO C  65      14.604   0.034   7.176  1.00 29.28 LIG-0.27  OA
BRANCH 20 23
ATOM     23  CA  HIS C  66      14.220  -1.994   5.256  1.00 40.25 LIG 0.17  C 
BRANCH 23 24
ATOM     24  CB  HIS C  66      15.151  -2.201   4.053  1.00 42.68 LIG 0.09  C 
BRANCH 24 25
ATOM     25  CG  HIS C  66      16.058  -1.040   3.779  1.00 48.80 LIG 0.06  A 
ATOM     26 ND1  HIS C  66      17.146  -1.124   2.936  1.00 53.13 LIG-0.24  NA
ATOM     27  CE1 HIS C  66      17.753   0.049   2.886  1.00 55.16 LIG 0.23  A 
ATOM     28 NE2  HIS C  66      17.099   0.891   3.665  1.00 53.86 LIG-0.25  NA
ATOM     29  CD2 HIS C  66      16.034   0.234   4.236  1.00 53.41 LIG 0.14  A 
ENDBRANCH 24 25
ENDBRANCH 23 24
BRANCH 23 30
ATOM     30  C   HIS C  66      13.070  -2.999   5.202  1.00 41.89 LIG 0.22  C 
ATOM     31 O    HIS C  66      13.053  -3.978   5.952  1.00 44.58 LIG-0.29  OA
ENDBRANCH 23 30
ENDBRANCH 20 23
ENDBRANCH 4 19
TORSDOF 9
ENDMDL
MODEL 172
USER: ADFR SOLUTION from run 64
USER: SCORE 9.962643 LL:  -1.849 LR:  -8.113 RR:   0.000 FEB:  -5.429
USER: RMSD 6.252897
USER: SEED 63
USER: STATUS no improvement in best in 38 clusters for 5 generations
USER: GENES 11
USER: genes 0 Translation |==|  0.51039 0.87654 0.54114
USER: genes 1 Rotation |==|  0.04349 0.47143 0.31179 0.57321
USER: genes 2 Torsion [N]-C--CA-[N] |==|  0.84202
USER: genes 3 Torsion [C]-CA--CB-[CG] |==|  0.14485
USER: genes 4 Torsion [CA]-CB--CG-[CD2] |==|  0.07852
USER: genes 5 Torsion [CE2]-CZ--OH-[HH] |==|  0.93595
USER: genes 6 Torsion [N]-CA--C-[N] |==|  0.50483
USER: genes 7 Torsion [C]-N--CA-[C] |==|  0.19960
USER: genes 8 Torsion [N]-CA--CB-[CG] |==|  0.46010
USER: genes 9 Torsion [CA]-CB--CG-[ND1] |==|  0.13460
USER: genes 10 Torsion [N]-CA--C-[O] |==|  0.07465
ROOT
ATOM      1  C   TYR C  64      12.346   5.182   7.817  1.00 51.57 LIG 0.26  C 
ATOM      2 O    TYR C  64      11.444   5.576   8.557  1.00 54.62 LIG-0.27  OA
ATOM      3  N   PRO C  65      13.580   4.909   8.273  1.00 43.10 LIG-0.34  N 
ATOM      4  CA  PRO C  65      14.709   4.321   7.545  1.00 38.90 LIG 0.18  C 
ATOM      5  CB  PRO C  65      15.901   5.078   8.113  1.00 40.80 LIG 0.04  C 
ATOM      6  CG  PRO C  65      15.508   5.342   9.525  1.00 42.19 LIG 0.02  C 
ATOM      7  CD  PRO C  65      14.014   5.513   9.545  1.00 44.37 LIG 0.13  C 
ENDROOT
BRANCH 1 8
ATOM      8  CA  TYR C  64      12.082   4.991   6.325  1.00 49.73 LIG 0.40  C 
ATOM      9  N   TYR C  64      13.027   5.804   5.564  1.00 50.52 LIG 0.61  N 
BRANCH 8 10
ATOM     10  CB  TYR C  64      12.235   3.507   5.972  1.00 50.46 LIG 0.09  C 
BRANCH 10 11
ATOM     11  CG  TYR C  64      11.436   2.547   6.826  1.00 47.68 LIG-0.06  A 
ATOM     12  CD2 TYR C  64      10.245   2.954   7.418  1.00 48.34 LIG 0.01  A 
ATOM     13  CE2 TYR C  64       9.503   2.091   8.202  1.00 49.15 LIG 0.04  A 
ATOM     14  CZ  TYR C  64       9.949   0.800   8.403  1.00 50.59 LIG 0.07  A 
ATOM     15  CE1 TYR C  64      11.128   0.369   7.827  1.00 46.73 LIG 0.04  A 
ATOM     16  CD1 TYR C  64      11.864   1.241   7.042  1.00 46.22 LIG 0.01  A 
BRANCH 14 17
ATOM     17 OH   TYR C  64       9.216  -0.064   9.183  1.00 53.82 LIG-0.36  OA
ATOM     18 HH   TYR C  64       8.729   0.376   9.708  1.00 53.82 LIG 0.22  HD
ENDBRANCH 14 17
ENDBRANCH 10 11
ENDBRANCH 8 10
ENDBRANCH 1 8
BRANCH 4 19
ATOM     19  C   PRO C  65      14.861   2.831   7.834  1.00 37.07 LIG 0.24  C 
ATOM     20  N   HIS C  66      15.888   2.229   7.238  1.00 40.38 LIG-0.35  N 
ATOM     21 H    HIS C  66      16.420   2.626   6.691  1.00 40.38 LIG 0.16  HD
ATOM     22 O    PRO C  65      14.049   2.252   8.577  1.00 29.28 LIG-0.27  OA
BRANCH 20 23
ATOM     23  CA  HIS C  66      16.208   0.826   7.461  1.00 40.25 LIG 0.17  C 
BRANCH 23 24
ATOM     24  CB  HIS C  66      16.276   0.522   8.964  1.00 42.68 LIG 0.09  C 
BRANCH 24 25
ATOM     25  CG  HIS C  66      16.261  -0.941   9.289  1.00 48.80 LIG 0.06  A 
ATOM     26 ND1  HIS C  66      17.079  -1.855   8.660  1.00 53.13 LIG-0.24  NA
ATOM     27  CE1 HIS C  66      16.849  -3.060   9.152  1.00 55.16 LIG 0.23  A 
ATOM     28 NE2  HIS C  66      15.911  -2.961  10.077  1.00 53.86 LIG-0.25  NA
ATOM     29  CD2 HIS C  66      15.526  -1.645  10.181  1.00 53.41 LIG 0.14  A 
ENDBRANCH 24 25
ENDBRANCH 23 24
BRANCH 23 30
ATOM     30  C   HIS C  66      15.182  -0.088   6.791  1.00 41.89 LIG 0.22  C 
ATOM     31 O    HIS C  66      14.554   0.290   5.799  1.00 44.58 LIG-0.29  OA
ENDBRANCH 23 30
ENDBRANCH 20 23
ENDBRANCH 4 19
TORSDOF 9
ENDMDL
MODEL 173
USER: ADFR SOLUTION from run 82
USER: SCORE 9.957923 LL:  -1.847 LR:  -8.111 RR:   0.000 FEB:  -5.426
USER: RMSD 7.568786
USER: SEED 81
USER: STATUS no improvement in best in 27 clusters for 5 generations
USER: GENES 11
USER: genes 0 Translation |==|  0.70738 0.39279 0.62418
USER: genes 1 Rotation |==|  0.18857 0.79683 0.73913 0.58786
USER: genes 2 Torsion [N]-C--CA-[N] |==|  0.37302
USER: genes 3 Torsion [C]-CA--CB-[CG] |==|  0.22042
USER: genes 4 Torsion [CA]-CB--CG-[CD2] |==|  0.29305
USER: genes 5 Torsion [CE2]-CZ--OH-[HH] |==|  0.30021
USER: genes 6 Torsion [N]-CA--C-[N] |==|  0.64331
USER: genes 7 Torsion [C]-N--CA-[C] |==|  0.54007
USER: genes 8 Torsion [N]-CA--CB-[CG] |==|  0.69097
USER: genes 9 Torsion [CA]-CB--CG-[ND1] |==|  0.54548
USER: genes 10 Torsion [N]-CA--C-[O] |==|  0.97300
ROOT
ATOM      1  C   TYR C  64      16.039  -2.438   9.312  1.00 51.57 LIG 0.26  C 
ATOM      2 O    TYR C  64      17.105  -2.968   9.626  1.00 54.62 LIG-0.27  OA
ATOM      3  N   PRO C  65      15.293  -2.878   8.285  1.00 43.10 LIG-0.34  N 
ATOM      4  CA  PRO C  65      13.958  -2.432   7.875  1.00 38.90 LIG 0.18  C 
ATOM      5  CB  PRO C  65      14.041  -2.491   6.356  1.00 40.80 LIG 0.04  C 
ATOM      6  CG  PRO C  65      14.955  -3.638   6.099  1.00 42.19 LIG 0.02  C 
ATOM      7  CD  PRO C  65      15.941  -3.682   7.234  1.00 44.37 LIG 0.13  C 
ENDROOT
BRANCH 1 8
ATOM      8  CA  TYR C  64      15.526  -1.233  10.098  1.00 49.73 LIG 0.40  C 
ATOM      9  N   TYR C  64      15.655  -1.503  11.528  1.00 50.52 LIG 0.61  N 
BRANCH 8 10
ATOM     10  CB  TYR C  64      16.337   0.008   9.705  1.00 50.46 LIG 0.09  C 
BRANCH 10 11
ATOM     11  CG  TYR C  64      15.938   0.660   8.398  1.00 47.68 LIG-0.06  A 
ATOM     12  CD2 TYR C  64      15.228   1.855   8.394  1.00 48.34 LIG 0.01  A 
ATOM     13  CE2 TYR C  64      14.855   2.463   7.210  1.00 49.15 LIG 0.04  A 
ATOM     14  CZ  TYR C  64      15.194   1.876   6.008  1.00 50.59 LIG 0.07  A 
ATOM     15  CE1 TYR C  64      15.901   0.689   5.981  1.00 46.73 LIG 0.04  A 
ATOM     16  CD1 TYR C  64      16.270   0.089   7.174  1.00 46.22 LIG 0.01  A 
BRANCH 14 17
ATOM     17 OH   TYR C  64      14.826   2.475   4.825  1.00 53.82 LIG-0.36  OA
ATOM     18 HH   TYR C  64      15.505   2.801   4.452  1.00 53.82 LIG 0.22  HD
ENDBRANCH 14 17
ENDBRANCH 10 11
ENDBRANCH 8 10
ENDBRANCH 1 8
BRANCH 4 19
ATOM     19  C   PRO C  65      12.865  -3.375   8.366  1.00 37.07 LIG 0.24  C 
ATOM     20  N   HIS C  66      12.010  -3.803   7.439  1.00 40.38 LIG-0.35  N 
ATOM     21 H    HIS C  66      12.032  -3.547   6.619  1.00 40.38 LIG 0.16  HD
ATOM     22 O    PRO C  65      12.804  -3.690   9.568  1.00 29.28 LIG-0.27  OA
BRANCH 20 23
ATOM     23  CA  HIS C  66      10.950  -4.756   7.733  1.00 40.25 LIG 0.17  C 
BRANCH 23 24
ATOM     24  CB  HIS C  66       9.844  -4.090   8.565  1.00 42.68 LIG 0.09  C 
BRANCH 24 25
ATOM     25  CG  HIS C  66       9.756  -4.593   9.974  1.00 48.80 LIG 0.06  A 
ATOM     26 ND1  HIS C  66       8.654  -4.381  10.776  1.00 53.13 LIG-0.24  NA
ATOM     27  CE1 HIS C  66       8.859  -4.938  11.957  1.00 55.16 LIG 0.23  A 
ATOM     28 NE2  HIS C  66      10.053  -5.503  11.951  1.00 53.86 LIG-0.25  NA
ATOM     29  CD2 HIS C  66      10.635  -5.300  10.721  1.00 53.41 LIG 0.14  A 
ENDBRANCH 24 25
ENDBRANCH 23 24
BRANCH 23 30
ATOM     30  C   HIS C  66      10.356  -5.337   6.450  1.00 41.89 LIG 0.22  C 
ATOM     31 O    HIS C  66      10.651  -4.864   5.350  1.00 44.58 LIG-0.29  OA
ENDBRANCH 23 30
ENDBRANCH 20 23
ENDBRANCH 4 19
TORSDOF 9
ENDMDL
MODEL 174
USER: ADFR SOLUTION from run 129
USER: SCORE 10.163249 LL:  -2.064 LR:  -8.099 RR:   0.000 FEB:  -5.415
USER: RMSD 6.451923
USER: SEED 128
USER: STATUS no improvement in best in 21 clusters for 5 generations
USER: GENES 11
USER: genes 0 Translation |==|  0.70620 0.49950 0.34558
USER: genes 1 Rotation |==|  0.59405 0.21323 0.18711 0.74701
USER: genes 2 Torsion [N]-C--CA-[N] |==|  0.52277
USER: genes 3 Torsion [C]-CA--CB-[CG] |==|  0.34003
USER: genes 4 Torsion [CA]-CB--CG-[CD2] |==|  0.97877
USER: genes 5 Torsion [CE2]-CZ--OH-[HH] |==|  0.40266
USER: genes 6 Torsion [N]-CA--C-[N] |==|  0.46933
USER: genes 7 Torsion [C]-N--CA-[C] |==|  0.16319
USER: genes 8 Torsion [N]-CA--CB-[CG] |==|  0.88967
USER: genes 9 Torsion [CA]-CB--CG-[ND1] |==|  0.81975
USER: genes 10 Torsion [N]-CA--C-[O] |==|  0.10286
ROOT
ATOM      1  C   TYR C  64      16.017  -0.757   4.298  1.00 51.57 LIG 0.26  C 
ATOM      2 O    TYR C  64      16.562  -1.284   3.328  1.00 54.62 LIG-0.27  OA
ATOM      3  N   PRO C  65      15.308  -1.463   5.194  1.00 43.10 LIG-0.34  N 
ATOM      4  CA  PRO C  65      14.713  -1.000   6.451  1.00 38.90 LIG 0.18  C 
ATOM      5  CB  PRO C  65      13.405  -1.775   6.505  1.00 40.80 LIG 0.04  C 
ATOM      6  CG  PRO C  65      13.736  -3.068   5.845  1.00 42.19 LIG 0.02  C 
ATOM      7  CD  PRO C  65      14.774  -2.777   4.796  1.00 44.37 LIG 0.13  C 
ENDROOT
BRANCH 1 8
ATOM      8  CA  TYR C  64      16.131   0.751   4.511  1.00 49.73 LIG 0.40  C 
ATOM      9  N   TYR C  64      16.764   1.354   3.341  1.00 50.52 LIG 0.61  N 
BRANCH 8 10
ATOM     10  CB  TYR C  64      14.731   1.336   4.732  1.00 50.46 LIG 0.09  C 
BRANCH 10 11
ATOM     11  CG  TYR C  64      14.534   2.083   6.033  1.00 47.68 LIG-0.06  A 
ATOM     12  CD2 TYR C  64      15.526   2.075   7.008  1.00 48.34 LIG 0.01  A 
ATOM     13  CE2 TYR C  64      15.363   2.751   8.202  1.00 49.15 LIG 0.04  A 
ATOM     14  CZ  TYR C  64      14.195   3.450   8.434  1.00 50.59 LIG 0.07  A 
ATOM     15  CE1 TYR C  64      13.194   3.478   7.483  1.00 46.73 LIG 0.04  A 
ATOM     16  CD1 TYR C  64      13.368   2.797   6.289  1.00 46.22 LIG 0.01  A 
BRANCH 14 17
ATOM     17 OH   TYR C  64      14.026   4.126   9.621  1.00 53.82 LIG-0.36  OA
ATOM     18 HH   TYR C  64      13.591   4.832   9.483  1.00 53.82 LIG 0.22  HD
ENDBRANCH 14 17
ENDBRANCH 10 11
ENDBRANCH 8 10
ENDBRANCH 1 8
BRANCH 4 19
ATOM     19  C   PRO C  65      15.574  -1.361   7.658  1.00 37.07 LIG 0.24  C 
ATOM     20  N   HIS C  66      15.229  -0.784   8.807  1.00 40.38 LIG-0.35  N 
ATOM     21 H    HIS C  66      14.591  -0.213   8.879  1.00 40.38 LIG 0.16  HD
ATOM     22 O    PRO C  65      16.536  -2.139   7.529  1.00 29.28 LIG-0.27  OA
BRANCH 20 23
ATOM     23  CA  HIS C  66      15.910  -1.072  10.061  1.00 40.25 LIG 0.17  C 
BRANCH 23 24
ATOM     24  CB  HIS C  66      15.718  -2.544  10.452  1.00 42.68 LIG 0.09  C 
BRANCH 24 25
ATOM     25  CG  HIS C  66      14.342  -3.072  10.180  1.00 48.80 LIG 0.06  A 
ATOM     26 ND1  HIS C  66      13.220  -2.602  10.829  1.00 53.13 LIG-0.24  NA
ATOM     27  CE1 HIS C  66      12.155  -3.247  10.386  1.00 55.16 LIG 0.23  A 
ATOM     28 NE2  HIS C  66      12.546  -4.119   9.473  1.00 53.86 LIG-0.25  NA
ATOM     29  CD2 HIS C  66      13.910  -4.030   9.327  1.00 53.41 LIG 0.14  A 
ENDBRANCH 24 25
ENDBRANCH 23 24
BRANCH 23 30
ATOM     30  C   HIS C  66      17.401  -0.749   9.968  1.00 41.89 LIG 0.22  C 
ATOM     31 O    HIS C  66      17.794   0.229   9.327  1.00 44.58 LIG-0.29  OA
ENDBRANCH 23 30
ENDBRANCH 20 23
ENDBRANCH 4 19
TORSDOF 9
ENDMDL
MODEL 175
USER: ADFR SOLUTION from run 110
USER: SCORE 10.255226 LL:  -2.169 LR:  -8.086 RR:   0.000 FEB:  -5.401
USER: RMSD 4.844843
USER: SEED 109
USER: STATUS no improvement in best in 23 clusters for 5 generations
USER: GENES 11
USER: genes 0 Translation |==|  0.54047 0.49315 0.48267
USER: genes 1 Rotation |==|  0.63137 0.69730 0.57443 0.93390
USER: genes 2 Torsion [N]-C--CA-[N] |==|  0.39032
USER: genes 3 Torsion [C]-CA--CB-[CG] |==|  0.19353
USER: genes 4 Torsion [CA]-CB--CG-[CD2] |==|  0.71912
USER: genes 5 Torsion [CE2]-CZ--OH-[HH] |==|  0.86768
USER: genes 6 Torsion [N]-CA--C-[N] |==|  0.69188
USER: genes 7 Torsion [C]-N--CA-[C] |==|  0.14826
USER: genes 8 Torsion [N]-CA--CB-[CG] |==|  0.83807
USER: genes 9 Torsion [CA]-CB--CG-[ND1] |==|  0.76257
USER: genes 10 Torsion [N]-CA--C-[O] |==|  0.33850
ROOT
ATOM      1  C   TYR C  64      12.910  -0.857   6.765  1.00 51.57 LIG 0.26  C 
ATOM      2 O    TYR C  64      12.120  -1.182   5.878  1.00 54.62 LIG-0.27  OA
ATOM      3  N   PRO C  65      13.993  -0.101   6.520  1.00 43.10 LIG-0.34  N 
ATOM      4  CA  PRO C  65      14.945   0.462   7.482  1.00 38.90 LIG 0.18  C 
ATOM      5  CB  PRO C  65      16.273   0.337   6.748  1.00 40.80 LIG 0.04  C 
ATOM      6  CG  PRO C  65      15.902   0.520   5.317  1.00 42.19 LIG 0.02  C 
ATOM      7  CD  PRO C  65      14.517  -0.041   5.144  1.00 44.37 LIG 0.13  C 
ENDROOT
BRANCH 1 8
ATOM      8  CA  TYR C  64      12.676  -1.318   8.202  1.00 49.73 LIG 0.40  C 
ATOM      9  N   TYR C  64      11.248  -1.246   8.502  1.00 50.52 LIG 0.61  N 
BRANCH 8 10
ATOM     10  CB  TYR C  64      13.192  -2.753   8.361  1.00 50.46 LIG 0.09  C 
BRANCH 10 11
ATOM     11  CG  TYR C  64      14.696  -2.915   8.305  1.00 47.68 LIG-0.06  A 
ATOM     12  CD2 TYR C  64      15.313  -3.369   7.145  1.00 48.34 LIG 0.01  A 
ATOM     13  CE2 TYR C  64      16.685  -3.524   7.077  1.00 49.15 LIG 0.04  A 
ATOM     14  CZ  TYR C  64      17.459  -3.222   8.179  1.00 50.59 LIG 0.07  A 
ATOM     15  CE1 TYR C  64      16.873  -2.768   9.344  1.00 46.73 LIG 0.04  A 
ATOM     16  CD1 TYR C  64      15.498  -2.616   9.402  1.00 46.22 LIG 0.01  A 
BRANCH 14 17
ATOM     17 OH   TYR C  64      18.826  -3.374   8.118  1.00 53.82 LIG-0.36  OA
ATOM     18 HH   TYR C  64      19.010  -4.125   7.790  1.00 53.82 LIG 0.22  HD
ENDBRANCH 14 17
ENDBRANCH 10 11
ENDBRANCH 8 10
ENDBRANCH 1 8
BRANCH 4 19
ATOM     19  C   PRO C  65      14.658   1.931   7.775  1.00 37.07 LIG 0.24  C 
ATOM     20  N   HIS C  66      15.556   2.800   7.313  1.00 40.38 LIG-0.35  N 
ATOM     21 H    HIS C  66      16.277   2.567   6.907  1.00 40.38 LIG 0.16  HD
ATOM     22 O    PRO C  65      13.644   2.254   8.419  1.00 29.28 LIG-0.27  OA
BRANCH 20 23
ATOM     23  CA  HIS C  66      15.395   4.240   7.455  1.00 40.25 LIG 0.17  C 
BRANCH 23 24
ATOM     24  CB  HIS C  66      14.241   4.742   6.577  1.00 42.68 LIG 0.09  C 
BRANCH 24 25
ATOM     25  CG  HIS C  66      14.408   4.438   5.119  1.00 48.80 LIG 0.06  A 
ATOM     26 ND1  HIS C  66      15.120   5.252   4.263  1.00 53.13 LIG-0.24  NA
ATOM     27  CE1 HIS C  66      15.099   4.734   3.047  1.00 55.16 LIG 0.23  A 
ATOM     28 NE2  HIS C  66      14.399   3.614   3.083  1.00 53.86 LIG-0.25  NA
ATOM     29  CD2 HIS C  66      13.955   3.408   4.368  1.00 53.41 LIG 0.14  A 
ENDBRANCH 24 25
ENDBRANCH 23 24
BRANCH 23 30
ATOM     30  C   HIS C  66      15.147   4.628   8.912  1.00 41.89 LIG 0.22  C 
ATOM     31 O    HIS C  66      15.901   5.412   9.492  1.00 44.58 LIG-0.29  OA
ENDBRANCH 23 30
ENDBRANCH 20 23
ENDBRANCH 4 19
TORSDOF 9
ENDMDL
MODEL 176
USER: ADFR SOLUTION from run 56
USER: SCORE 9.916383 LL:  -1.826 LR:  -8.090 RR:   0.000 FEB:  -5.406
USER: RMSD 6.340531
USER: SEED 55
USER: STATUS no improvement in best in 51 clusters for 5 generations
USER: GENES 11
USER: genes 0 Translation |==|  0.64259 0.56790 0.41290
USER: genes 1 Rotation |==|  0.82290 0.29664 0.28498 0.74113
USER: genes 2 Torsion [N]-C--CA-[N] |==|  0.15897
USER: genes 3 Torsion [C]-CA--CB-[CG] |==|  0.67492
USER: genes 4 Torsion [CA]-CB--CG-[CD2] |==|  0.29826
USER: genes 5 Torsion [CE2]-CZ--OH-[HH] |==|  0.08683
USER: genes 6 Torsion [N]-CA--C-[N] |==|  0.06818
USER: genes 7 Torsion [C]-N--CA-[C] |==|  0.52183
USER: genes 8 Torsion [N]-CA--CB-[CG] |==|  0.16288
USER: genes 9 Torsion [CA]-CB--CG-[ND1] |==|  0.97230
USER: genes 10 Torsion [N]-CA--C-[O] |==|  0.00467
ROOT
ATOM      1  C   TYR C  64      14.825   0.320   5.509  1.00 51.57 LIG 0.26  C 
ATOM      2 O    TYR C  64      15.799   0.853   4.977  1.00 54.62 LIG-0.27  OA
ATOM      3  N   PRO C  65      14.724  -1.012   5.652  1.00 43.10 LIG-0.34  N 
ATOM      4  CA  PRO C  65      13.695  -1.774   6.367  1.00 38.90 LIG 0.18  C 
ATOM      5  CB  PRO C  65      13.514  -2.999   5.481  1.00 40.80 LIG 0.04  C 
ATOM      6  CG  PRO C  65      14.874  -3.228   4.918  1.00 42.19 LIG 0.02  C 
ATOM      7  CD  PRO C  65      15.526  -1.880   4.773  1.00 44.37 LIG 0.13  C 
ENDROOT
BRANCH 1 8
ATOM      8  CA  TYR C  64      13.675   1.180   6.031  1.00 49.73 LIG 0.40  C 
ATOM      9  N   TYR C  64      13.477   0.905   7.452  1.00 50.52 LIG 0.61  N 
BRANCH 8 10
ATOM     10  CB  TYR C  64      14.009   2.659   5.806  1.00 50.46 LIG 0.09  C 
BRANCH 10 11
ATOM     11  CG  TYR C  64      14.140   3.496   7.060  1.00 47.68 LIG-0.06  A 
ATOM     12  CD2 TYR C  64      15.388   3.929   7.492  1.00 48.34 LIG 0.01  A 
ATOM     13  CE2 TYR C  64      15.526   4.693   8.635  1.00 49.15 LIG 0.04  A 
ATOM     14  CZ  TYR C  64      14.405   5.035   9.364  1.00 50.59 LIG 0.07  A 
ATOM     15  CE1 TYR C  64      13.152   4.620   8.958  1.00 46.73 LIG 0.04  A 
ATOM     16  CD1 TYR C  64      13.025   3.855   7.810  1.00 46.22 LIG 0.01  A 
BRANCH 14 17
ATOM     17 OH   TYR C  64      14.535   5.795  10.504  1.00 53.82 LIG-0.36  OA
ATOM     18 HH   TYR C  64      15.191   6.313  10.422  1.00 53.82 LIG 0.22  HD
ENDBRANCH 14 17
ENDBRANCH 10 11
ENDBRANCH 8 10
ENDBRANCH 1 8
BRANCH 4 19
ATOM     19  C   PRO C  65      14.164  -2.207   7.752  1.00 37.07 LIG 0.24  C 
ATOM     20  N   HIS C  66      15.124  -1.461   8.297  1.00 40.38 LIG-0.35  N 
ATOM     21 H    HIS C  66      15.495  -0.798   7.895  1.00 40.38 LIG 0.16  HD
ATOM     22 O    PRO C  65      13.664  -3.206   8.298  1.00 29.28 LIG-0.27  OA
BRANCH 20 23
ATOM     23  CA  HIS C  66      15.636  -1.703   9.637  1.00 40.25 LIG 0.17  C 
BRANCH 23 24
ATOM     24  CB  HIS C  66      16.356  -3.057   9.702  1.00 42.68 LIG 0.09  C 
BRANCH 24 25
ATOM     25  CG  HIS C  66      17.505  -3.182   8.748  1.00 48.80 LIG 0.06  A 
ATOM     26 ND1  HIS C  66      17.757  -2.257   7.757  1.00 53.13 LIG-0.24  NA
ATOM     27  CE1 HIS C  66      18.829  -2.624   7.077  1.00 55.16 LIG 0.23  A 
ATOM     28 NE2  HIS C  66      19.282  -3.754   7.591  1.00 53.86 LIG-0.25  NA
ATOM     29  CD2 HIS C  66      18.470  -4.124   8.637  1.00 53.41 LIG 0.14  A 
ENDBRANCH 24 25
ENDBRANCH 23 24
BRANCH 23 30
ATOM     30  C   HIS C  66      16.585  -0.588  10.077  1.00 41.89 LIG 0.22  C 
ATOM     31 O    HIS C  66      16.807   0.376   9.340  1.00 44.58 LIG-0.29  OA
ENDBRANCH 23 30
ENDBRANCH 20 23
ENDBRANCH 4 19
TORSDOF 9
ENDMDL
MODEL 177
USER: ADFR SOLUTION from run 115
USER: SCORE 9.968231 LL:  -1.913 LR:  -8.056 RR:   0.000 FEB:  -5.371
USER: RMSD 5.927848
USER: SEED 114
USER: STATUS no improvement in best in 25 clusters for 5 generations
USER: GENES 11
USER: genes 0 Translation |==|  0.51692 0.38831 0.67611
USER: genes 1 Rotation |==|  0.34906 0.08750 0.72496 0.58033
USER: genes 2 Torsion [N]-C--CA-[N] |==|  0.84155
USER: genes 3 Torsion [C]-CA--CB-[CG] |==|  0.18819
USER: genes 4 Torsion [CA]-CB--CG-[CD2] |==|  0.97175
USER: genes 5 Torsion [CE2]-CZ--OH-[HH] |==|  0.32061
USER: genes 6 Torsion [N]-CA--C-[N] |==|  0.07959
USER: genes 7 Torsion [C]-N--CA-[C] |==|  0.80347
USER: genes 8 Torsion [N]-CA--CB-[CG] |==|  0.65287
USER: genes 9 Torsion [CA]-CB--CG-[ND1] |==|  0.62400
USER: genes 10 Torsion [N]-CA--C-[O] |==|  0.98634
ROOT
ATOM      1  C   TYR C  64      12.468  -2.508  10.247  1.00 51.57 LIG 0.26  C 
ATOM      2 O    TYR C  64      12.829  -2.256  11.397  1.00 54.62 LIG-0.27  OA
ATOM      3  N   PRO C  65      11.465  -1.845   9.648  1.00 43.10 LIG-0.34  N 
ATOM      4  CA  PRO C  65      11.010  -1.946   8.258  1.00 38.90 LIG 0.18  C 
ATOM      5  CB  PRO C  65       9.500  -1.813   8.392  1.00 40.80 LIG 0.04  C 
ATOM      6  CG  PRO C  65       9.331  -0.892   9.550  1.00 42.19 LIG 0.02  C 
ATOM      7  CD  PRO C  65      10.477  -1.146  10.489  1.00 44.37 LIG 0.13  C 
ENDROOT
BRANCH 1 8
ATOM      8  CA  TYR C  64      13.165  -3.610   9.452  1.00 49.73 LIG 0.40  C 
ATOM      9  N   TYR C  64      12.174  -4.596   9.029  1.00 50.52 LIG 0.61  N 
BRANCH 8 10
ATOM     10  CB  TYR C  64      13.866  -2.989   8.237  1.00 50.46 LIG 0.09  C 
BRANCH 10 11
ATOM     11  CG  TYR C  64      15.042  -2.091   8.551  1.00 47.68 LIG-0.06  A 
ATOM     12  CD2 TYR C  64      15.302  -1.701   9.860  1.00 48.34 LIG 0.01  A 
ATOM     13  CE2 TYR C  64      16.372  -0.881  10.165  1.00 49.15 LIG 0.04  A 
ATOM     14  CZ  TYR C  64      17.201  -0.440   9.153  1.00 50.59 LIG 0.07  A 
ATOM     15  CE1 TYR C  64      16.968  -0.812   7.844  1.00 46.73 LIG 0.04  A 
ATOM     16  CD1 TYR C  64      15.893  -1.635   7.549  1.00 46.22 LIG 0.01  A 
BRANCH 14 17
ATOM     17 OH   TYR C  64      18.267   0.377   9.449  1.00 53.82 LIG-0.36  OA
ATOM     18 HH   TYR C  64      18.985  -0.022   9.270  1.00 53.82 LIG 0.22  HD
ENDBRANCH 14 17
ENDBRANCH 10 11
ENDBRANCH 8 10
ENDBRANCH 1 8
BRANCH 4 19
ATOM     19  C   PRO C  65      11.552  -0.810   7.396  1.00 37.07 LIG 0.24  C 
ATOM     20  N   HIS C  66      12.722  -0.302   7.777  1.00 40.38 LIG-0.35  N 
ATOM     21 H    HIS C  66      13.143  -0.557   8.482  1.00 40.38 LIG 0.16  HD
ATOM     22 O    PRO C  65      10.903  -0.407   6.414  1.00 29.28 LIG-0.27  OA
BRANCH 20 23
ATOM     23  CA  HIS C  66      13.402   0.742   7.026  1.00 40.25 LIG 0.17  C 
BRANCH 23 24
ATOM     24  CB  HIS C  66      14.541   1.349   7.858  1.00 42.68 LIG 0.09  C 
BRANCH 24 25
ATOM     25  CG  HIS C  66      14.456   2.837   8.012  1.00 48.80 LIG 0.06  A 
ATOM     26 ND1  HIS C  66      15.547   3.668   7.864  1.00 53.13 LIG-0.24  NA
ATOM     27  CE1 HIS C  66      15.172   4.921   8.053  1.00 55.16 LIG 0.23  A 
ATOM     28 NE2  HIS C  66      13.878   4.934   8.319  1.00 53.86 LIG-0.25  NA
ATOM     29  CD2 HIS C  66      13.407   3.642   8.301  1.00 53.41 LIG 0.14  A 
ENDBRANCH 24 25
ENDBRANCH 23 24
BRANCH 23 30
ATOM     30  C   HIS C  66      13.953   0.204   5.705  1.00 41.89 LIG 0.22  C 
ATOM     31 O    HIS C  66      13.876  -0.996   5.434  1.00 44.58 LIG-0.29  OA
ENDBRANCH 23 30
ENDBRANCH 20 23
ENDBRANCH 4 19
TORSDOF 9
ENDMDL
MODEL 178
USER: ADFR SOLUTION from run 199
USER: SCORE 10.069491 LL:  -2.012 LR:  -8.057 RR:   0.000 FEB:  -5.373
USER: RMSD 7.700503
USER: SEED 198
USER: STATUS no improvement in best in 51 clusters for 5 generations
USER: GENES 11
USER: genes 0 Translation |==|  0.48985 0.33662 0.54085
USER: genes 1 Rotation |==|  0.53280 0.78679 0.85438 0.70271
USER: genes 2 Torsion [N]-C--CA-[N] |==|  0.31499
USER: genes 3 Torsion [C]-CA--CB-[CG] |==|  0.31245
USER: genes 4 Torsion [CA]-CB--CG-[CD2] |==|  0.55342
USER: genes 5 Torsion [CE2]-CZ--OH-[HH] |==|  0.90398
USER: genes 6 Torsion [N]-CA--C-[N] |==|  0.91809
USER: genes 7 Torsion [C]-N--CA-[C] |==|  0.19009
USER: genes 8 Torsion [N]-CA--CB-[CG] |==|  0.86154
USER: genes 9 Torsion [CA]-CB--CG-[ND1] |==|  0.41729
USER: genes 10 Torsion [N]-CA--C-[O] |==|  0.09035
ROOT
ATOM      1  C   TYR C  64      11.961  -3.322   7.812  1.00 51.57 LIG 0.26  C 
ATOM      2 O    TYR C  64      11.861  -4.137   6.895  1.00 54.62 LIG-0.27  OA
ATOM      3  N   PRO C  65      11.199  -2.217   7.877  1.00 43.10 LIG-0.34  N 
ATOM      4  CA  PRO C  65      11.118  -1.231   8.959  1.00 38.90 LIG 0.18  C 
ATOM      5  CB  PRO C  65      10.954   0.079   8.202  1.00 40.80 LIG 0.04  C 
ATOM      6  CG  PRO C  65      10.174  -0.309   6.994  1.00 42.19 LIG 0.02  C 
ATOM      7  CD  PRO C  65      10.576  -1.714   6.640  1.00 44.37 LIG 0.13  C 
ENDROOT
BRANCH 1 8
ATOM      8  CA  TYR C  64      12.980  -3.548   8.927  1.00 49.73 LIG 0.40  C 
ATOM      9  N   TYR C  64      12.590  -4.723   9.702  1.00 50.52 LIG 0.61  N 
BRANCH 8 10
ATOM     10  CB  TYR C  64      14.369  -3.743   8.307  1.00 50.46 LIG 0.09  C 
BRANCH 10 11
ATOM     11  CG  TYR C  64      15.368  -2.641   8.586  1.00 47.68 LIG-0.06  A 
ATOM     12  CD2 TYR C  64      16.494  -2.491   7.785  1.00 48.34 LIG 0.01  A 
ATOM     13  CE2 TYR C  64      17.417  -1.490   8.026  1.00 49.15 LIG 0.04  A 
ATOM     14  CZ  TYR C  64      17.219  -0.622   9.081  1.00 50.59 LIG 0.07  A 
ATOM     15  CE1 TYR C  64      16.108  -0.747   9.892  1.00 46.73 LIG 0.04  A 
ATOM     16  CD1 TYR C  64      15.190  -1.753   9.642  1.00 46.22 LIG 0.01  A 
BRANCH 14 17
ATOM     17 OH   TYR C  64      18.134   0.376   9.327  1.00 53.82 LIG-0.36  OA
ATOM     18 HH   TYR C  64      18.906   0.101   9.140  1.00 53.82 LIG 0.22  HD
ENDBRANCH 14 17
ENDBRANCH 10 11
ENDBRANCH 8 10
ENDBRANCH 1 8
BRANCH 4 19
ATOM     19  C   PRO C  65       9.904  -1.463   9.853  1.00 37.07 LIG 0.24  C 
ATOM     20  N   HIS C  66       8.848  -2.019   9.262  1.00 40.38 LIG-0.35  N 
ATOM     21 H    HIS C  66       8.818  -2.207   8.424  1.00 40.38 LIG 0.16  HD
ATOM     22 O    PRO C  65       9.937  -1.127  11.050  1.00 29.28 LIG-0.27  OA
BRANCH 20 23
ATOM     23  CA  HIS C  66       7.636  -2.362   9.991  1.00 40.25 LIG 0.17  C 
BRANCH 23 24
ATOM     24  CB  HIS C  66       7.967  -3.252  11.197  1.00 42.68 LIG 0.09  C 
BRANCH 24 25
ATOM     25  CG  HIS C  66       8.837  -4.426  10.867  1.00 48.80 LIG 0.06  A 
ATOM     26 ND1  HIS C  66       9.717  -4.983  11.771  1.00 53.13 LIG-0.24  NA
ATOM     27  CE1 HIS C  66      10.344  -5.999  11.204  1.00 55.16 LIG 0.23  A 
ATOM     28 NE2  HIS C  66       9.902  -6.123   9.965  1.00 53.86 LIG-0.25  NA
ATOM     29  CD2 HIS C  66       8.960  -5.149   9.729  1.00 53.41 LIG 0.14  A 
ENDBRANCH 24 25
ENDBRANCH 23 24
BRANCH 23 30
ATOM     30  C   HIS C  66       6.897  -1.108  10.458  1.00 41.89 LIG 0.22  C 
ATOM     31 O    HIS C  66       6.929  -0.073   9.788  1.00 44.58 LIG-0.29  OA
ENDBRANCH 23 30
ENDBRANCH 20 23
ENDBRANCH 4 19
TORSDOF 9
ENDMDL
MODEL 179
USER: ADFR SOLUTION from run 151
USER: SCORE 10.616595 LL:  -2.570 LR:  -8.046 RR:   0.000 FEB:  -5.361
USER: RMSD 3.655645
USER: SEED 150
USER: STATUS no improvement in best in 31 clusters for 5 generations
USER: GENES 11
USER: genes 0 Translation |==|  0.64040 0.34624 0.49549
USER: genes 1 Rotation |==|  0.54075 0.48957 0.53094 0.99727
USER: genes 2 Torsion [N]-C--CA-[N] |==|  0.85016
USER: genes 3 Torsion [C]-CA--CB-[CG] |==|  0.20073
USER: genes 4 Torsion [CA]-CB--CG-[CD2] |==|  0.98924
USER: genes 5 Torsion [CE2]-CZ--OH-[HH] |==|  0.29561
USER: genes 6 Torsion [N]-CA--C-[N] |==|  0.04794
USER: genes 7 Torsion [C]-N--CA-[C] |==|  0.84799
USER: genes 8 Torsion [N]-CA--CB-[CG] |==|  0.85589
USER: genes 9 Torsion [CA]-CB--CG-[ND1] |==|  0.72842
USER: genes 10 Torsion [N]-CA--C-[O] |==|  0.88796
ROOT
ATOM      1  C   TYR C  64      14.783  -3.171   6.996  1.00 51.57 LIG 0.26  C 
ATOM      2 O    TYR C  64      14.786  -3.742   5.905  1.00 54.62 LIG-0.27  OA
ATOM      3  N   PRO C  65      15.905  -2.686   7.555  1.00 43.10 LIG-0.34  N 
ATOM      4  CA  PRO C  65      16.039  -1.883   8.774  1.00 38.90 LIG 0.18  C 
ATOM      5  CB  PRO C  65      17.325  -2.420   9.386  1.00 40.80 LIG 0.04  C 
ATOM      6  CG  PRO C  65      18.151  -2.786   8.202  1.00 42.19 LIG 0.02  C 
ATOM      7  CD  PRO C  65      17.204  -3.231   7.122  1.00 44.37 LIG 0.13  C 
ENDROOT
BRANCH 1 8
ATOM      8  CA  TYR C  64      13.475  -2.996   7.763  1.00 49.73 LIG 0.40  C 
ATOM      9  N   TYR C  64      13.633  -3.539   9.110  1.00 50.52 LIG 0.61  N 
BRANCH 8 10
ATOM     10  CB  TYR C  64      13.117  -1.506   7.818  1.00 50.46 LIG 0.09  C 
BRANCH 10 11
ATOM     11  CG  TYR C  64      12.642  -0.901   6.515  1.00 47.68 LIG-0.06  A 
ATOM     12  CD2 TYR C  64      12.627  -1.660   5.350  1.00 48.34 LIG 0.01  A 
ATOM     13  CE2 TYR C  64      12.197  -1.123   4.151  1.00 49.15 LIG 0.04  A 
ATOM     14  CZ  TYR C  64      11.773   0.190   4.107  1.00 50.59 LIG 0.07  A 
ATOM     15  CE1 TYR C  64      11.777   0.967   5.248  1.00 46.73 LIG 0.04  A 
ATOM     16  CD1 TYR C  64      12.209   0.419   6.445  1.00 46.22 LIG 0.01  A 
BRANCH 14 17
ATOM     17 OH   TYR C  64      11.344   0.731   2.916  1.00 53.82 LIG-0.36  OA
ATOM     18 HH   TYR C  64      10.508   0.813   2.930  1.00 53.82 LIG 0.22  HD
ENDBRANCH 14 17
ENDBRANCH 10 11
ENDBRANCH 8 10
ENDBRANCH 1 8
BRANCH 4 19
ATOM     19  C   PRO C  65      16.200  -0.398   8.464  1.00 37.07 LIG 0.24  C 
ATOM     20  N   HIS C  66      15.843  -0.021   7.237  1.00 40.38 LIG-0.35  N 
ATOM     21 H    HIS C  66      15.574  -0.569   6.632  1.00 40.38 LIG 0.16  HD
ATOM     22 O    PRO C  65      16.651   0.376   9.327  1.00 29.28 LIG-0.27  OA
BRANCH 20 23
ATOM     23  CA  HIS C  66      15.877   1.369   6.806  1.00 40.25 LIG 0.17  C 
BRANCH 23 24
ATOM     24  CB  HIS C  66      15.342   1.501   5.373  1.00 42.68 LIG 0.09  C 
BRANCH 24 25
ATOM     25  CG  HIS C  66      15.995   0.575   4.392  1.00 48.80 LIG 0.06  A 
ATOM     26 ND1  HIS C  66      17.026   0.968   3.565  1.00 53.13 LIG-0.24  NA
ATOM     27  CE1 HIS C  66      17.401  -0.054   2.815  1.00 55.16 LIG 0.23  A 
ATOM     28 NE2  HIS C  66      16.650  -1.096   3.126  1.00 53.86 LIG-0.25  NA
ATOM     29  CD2 HIS C  66      15.762  -0.728   4.109  1.00 53.41 LIG 0.14  A 
ENDBRANCH 24 25
ENDBRANCH 23 24
BRANCH 23 30
ATOM     30  C   HIS C  66      15.066   2.260   7.747  1.00 41.89 LIG 0.22  C 
ATOM     31 O    HIS C  66      13.985   1.876   8.202  1.00 44.58 LIG-0.29  OA
ENDBRANCH 23 30
ENDBRANCH 20 23
ENDBRANCH 4 19
TORSDOF 9
ENDMDL
MODEL 180
USER: ADFR SOLUTION from run 48
USER: SCORE 10.567708 LL:  -2.513 LR:  -8.055 RR:   0.000 FEB:  -5.370
USER: RMSD 7.147836
USER: SEED 47
USER: STATUS no improvement in best in 44 clusters for 5 generations
USER: GENES 11
USER: genes 0 Translation |==|  0.53603 0.47278 0.38733
USER: genes 1 Rotation |==|  0.93781 0.60744 0.70359 0.57298
USER: genes 2 Torsion [N]-C--CA-[N] |==|  0.40536
USER: genes 3 Torsion [C]-CA--CB-[CG] |==|  0.21425
USER: genes 4 Torsion [CA]-CB--CG-[CD2] |==|  0.72746
USER: genes 5 Torsion [CE2]-CZ--OH-[HH] |==|  0.64548
USER: genes 6 Torsion [N]-CA--C-[N] |==|  0.94766
USER: genes 7 Torsion [C]-N--CA-[C] |==|  0.58528
USER: genes 8 Torsion [N]-CA--CB-[CG] |==|  0.02611
USER: genes 9 Torsion [CA]-CB--CG-[ND1] |==|  0.74167
USER: genes 10 Torsion [N]-CA--C-[O] |==|  0.90077
ROOT
ATOM      1  C   TYR C  64      12.827  -1.178   5.049  1.00 51.57 LIG 0.26  C 
ATOM      2 O    TYR C  64      11.806  -0.524   5.268  1.00 54.62 LIG-0.27  OA
ATOM      3  N   PRO C  65      13.964  -0.984   5.738  1.00 43.10 LIG-0.34  N 
ATOM      4  CA  PRO C  65      15.207  -1.759   5.676  1.00 38.90 LIG 0.18  C 
ATOM      5  CB  PRO C  65      16.276  -0.686   5.821  1.00 40.80 LIG 0.04  C 
ATOM      6  CG  PRO C  65      15.640   0.323   6.714  1.00 42.19 LIG 0.02  C 
ATOM      7  CD  PRO C  65      14.165   0.304   6.424  1.00 44.37 LIG 0.13  C 
ENDROOT
BRANCH 1 8
ATOM      8  CA  TYR C  64      12.829  -2.249   3.961  1.00 49.73 LIG 0.40  C 
ATOM      9  N   TYR C  64      11.511  -2.878   3.905  1.00 50.52 LIG 0.61  N 
BRANCH 8 10
ATOM     10  CB  TYR C  64      13.179  -1.601   2.616  1.00 50.46 LIG 0.09  C 
BRANCH 10 11
ATOM     11  CG  TYR C  64      14.643  -1.283   2.407  1.00 47.68 LIG-0.06  A 
ATOM     12  CD2 TYR C  64      15.125   0.002   2.631  1.00 48.34 LIG 0.01  A 
ATOM     13  CE2 TYR C  64      16.459   0.311   2.445  1.00 49.15 LIG 0.04  A 
ATOM     14  CZ  TYR C  64      17.333  -0.674   2.030  1.00 50.59 LIG 0.07  A 
ATOM     15  CE1 TYR C  64      16.883  -1.959   1.801  1.00 46.73 LIG 0.04  A 
ATOM     16  CD1 TYR C  64      15.544  -2.258   1.991  1.00 46.22 LIG 0.01  A 
BRANCH 14 17
ATOM     17 OH   TYR C  64      18.663  -0.373   1.842  1.00 53.82 LIG-0.36  OA
ATOM     18 HH   TYR C  64      18.901  -0.623   1.075  1.00 53.82 LIG 0.22  HD
ENDBRANCH 14 17
ENDBRANCH 10 11
ENDBRANCH 8 10
ENDBRANCH 1 8
BRANCH 4 19
ATOM     19  C   PRO C  65      15.317  -2.753   6.828  1.00 37.07 LIG 0.24  C 
ATOM     20  N   HIS C  66      14.533  -2.512   7.877  1.00 40.38 LIG-0.35  N 
ATOM     21 H    HIS C  66      14.019  -1.825   7.938  1.00 40.38 LIG 0.16  HD
ATOM     22 O    PRO C  65      16.112  -3.707   6.757  1.00 29.28 LIG-0.27  OA
BRANCH 20 23
ATOM     23  CA  HIS C  66      14.474  -3.399   9.029  1.00 40.25 LIG 0.17  C 
BRANCH 23 24
ATOM     24  CB  HIS C  66      15.542  -3.012  10.062  1.00 42.68 LIG 0.09  C 
BRANCH 24 25
ATOM     25  CG  HIS C  66      16.229  -1.713   9.769  1.00 48.80 LIG 0.06  A 
ATOM     26 ND1  HIS C  66      17.407  -1.635   9.056  1.00 53.13 LIG-0.24  NA
ATOM     27  CE1 HIS C  66      17.774  -0.370   8.953  1.00 55.16 LIG 0.23  A 
ATOM     28 NE2  HIS C  66      16.877   0.376   9.573  1.00 53.86 LIG-0.25  NA
ATOM     29  CD2 HIS C  66      15.901  -0.441  10.093  1.00 53.41 LIG 0.14  A 
ENDBRANCH 24 25
ENDBRANCH 23 24
BRANCH 23 30
ATOM     30  C   HIS C  66      13.090  -3.373   9.678  1.00 41.89 LIG 0.22  C 
ATOM     31 O    HIS C  66      12.436  -2.328   9.723  1.00 44.58 LIG-0.29  OA
ENDBRANCH 23 30
ENDBRANCH 20 23
ENDBRANCH 4 19
TORSDOF 9
ENDMDL
MODEL 181
USER: ADFR SOLUTION from run 101
USER: SCORE 10.073744 LL:  -2.021 LR:  -8.053 RR:   0.000 FEB:  -5.368
USER: RMSD 6.091281
USER: SEED 100
USER: STATUS no improvement in best in 20 clusters for 5 generations
USER: GENES 11
USER: genes 0 Translation |==|  0.62253 0.42568 0.49609
USER: genes 1 Rotation |==|  0.83772 0.34645 0.71832 0.75438
USER: genes 2 Torsion [N]-C--CA-[N] |==|  0.86678
USER: genes 3 Torsion [C]-CA--CB-[CG] |==|  0.10319
USER: genes 4 Torsion [CA]-CB--CG-[CD2] |==|  0.14181
USER: genes 5 Torsion [CE2]-CZ--OH-[HH] |==|  0.50967
USER: genes 6 Torsion [N]-CA--C-[N] |==|  0.37648
USER: genes 7 Torsion [C]-N--CA-[C] |==|  0.69568
USER: genes 8 Torsion [N]-CA--CB-[CG] |==|  0.11729
USER: genes 9 Torsion [CA]-CB--CG-[ND1] |==|  0.75521
USER: genes 10 Torsion [N]-CA--C-[O] |==|  0.32812
ROOT
ATOM      1  C   TYR C  64      14.448  -1.920   7.007  1.00 51.57 LIG 0.26  C 
ATOM      2 O    TYR C  64      14.754  -0.770   6.688  1.00 54.62 LIG-0.27  OA
ATOM      3  N   PRO C  65      14.722  -2.425   8.221  1.00 43.10 LIG-0.34  N 
ATOM      4  CA  PRO C  65      14.315  -3.717   8.781  1.00 38.90 LIG 0.18  C 
ATOM      5  CB  PRO C  65      15.538  -4.130   9.588  1.00 40.80 LIG 0.04  C 
ATOM      6  CG  PRO C  65      16.091  -2.835  10.074  1.00 42.19 LIG 0.02  C 
ATOM      7  CD  PRO C  65      15.793  -1.803   9.021  1.00 44.37 LIG 0.13  C 
ENDROOT
BRANCH 1 8
ATOM      8  CA  TYR C  64      13.735  -2.825   6.005  1.00 49.73 LIG 0.40  C 
ATOM      9  N   TYR C  64      14.404  -4.124   5.973  1.00 50.52 LIG 0.61  N 
BRANCH 8 10
ATOM     10  CB  TYR C  64      12.268  -2.981   6.422  1.00 50.46 LIG 0.09  C 
BRANCH 10 11
ATOM     11  CG  TYR C  64      11.621  -1.744   7.004  1.00 47.68 LIG-0.06  A 
ATOM     12  CD2 TYR C  64      11.694  -0.528   6.333  1.00 48.34 LIG 0.01  A 
ATOM     13  CE2 TYR C  64      11.109   0.613   6.851  1.00 49.15 LIG 0.04  A 
ATOM     14  CZ  TYR C  64      10.439   0.546   8.055  1.00 50.59 LIG 0.07  A 
ATOM     15  CE1 TYR C  64      10.349  -0.648   8.743  1.00 46.73 LIG 0.04  A 
ATOM     16  CD1 TYR C  64      10.937  -1.785   8.215  1.00 46.22 LIG 0.01  A 
BRANCH 14 17
ATOM     17 OH   TYR C  64       9.855   1.678   8.577  1.00 53.82 LIG-0.36  OA
ATOM     18 HH   TYR C  64       9.526   1.503   9.330  1.00 53.82 LIG 0.22  HD
ENDBRANCH 14 17
ENDBRANCH 10 11
ENDBRANCH 8 10
ENDBRANCH 1 8
BRANCH 4 19
ATOM     19  C   PRO C  65      13.110  -3.584   9.707  1.00 37.07 LIG 0.24  C 
ATOM     20  N   HIS C  66      12.155  -4.498   9.548  1.00 40.38 LIG-0.35  N 
ATOM     21 H    HIS C  66      12.178  -5.108   8.943  1.00 40.38 LIG 0.16  HD
ATOM     22 O    PRO C  65      13.058  -2.658  10.536  1.00 29.28 LIG-0.27  OA
BRANCH 20 23
ATOM     23  CA  HIS C  66      10.971  -4.547  10.394  1.00 40.25 LIG 0.17  C 
BRANCH 23 24
ATOM     24  CB  HIS C  66       9.698  -4.579   9.537  1.00 42.68 LIG 0.09  C 
BRANCH 24 25
ATOM     25  CG  HIS C  66       9.789  -5.483   8.345  1.00 48.80 LIG 0.06  A 
ATOM     26 ND1  HIS C  66      10.276  -5.064   7.124  1.00 53.13 LIG-0.24  NA
ATOM     27  CE1 HIS C  66      10.239  -6.071   6.270  1.00 55.16 LIG 0.23  A 
ATOM     28 NE2  HIS C  66       9.746  -7.128   6.891  1.00 53.86 LIG-0.25  NA
ATOM     29  CD2 HIS C  66       9.456  -6.786   8.190  1.00 53.41 LIG 0.14  A 
ENDBRANCH 24 25
ENDBRANCH 23 24
BRANCH 23 30
ATOM     30  C   HIS C  66      11.004  -5.762  11.321  1.00 41.89 LIG 0.22  C 
ATOM     31 O    HIS C  66      11.020  -5.618  12.546  1.00 44.58 LIG-0.29  OA
ENDBRANCH 23 30
ENDBRANCH 20 23
ENDBRANCH 4 19
TORSDOF 9
ENDMDL
MODEL 182
USER: ADFR SOLUTION from run 85
USER: SCORE 10.007736 LL:  -1.986 LR:  -8.022 RR:   0.000 FEB:  -5.337
USER: RMSD 2.565338
USER: SEED 84
USER: STATUS no improvement in best in 21 clusters for 5 generations
USER: GENES 11
USER: genes 0 Translation |==|  0.61093 0.34046 0.60244
USER: genes 1 Rotation |==|  0.56039 0.65350 0.47911 0.97155
USER: genes 2 Torsion [N]-C--CA-[N] |==|  0.13423
USER: genes 3 Torsion [C]-CA--CB-[CG] |==|  0.79652
USER: genes 4 Torsion [CA]-CB--CG-[CD2] |==|  0.13322
USER: genes 5 Torsion [CE2]-CZ--OH-[HH] |==|  0.60405
USER: genes 6 Torsion [N]-CA--C-[N] |==|  0.97942
USER: genes 7 Torsion [C]-N--CA-[C] |==|  0.79930
USER: genes 8 Torsion [N]-CA--CB-[CG] |==|  0.01441
USER: genes 9 Torsion [CA]-CB--CG-[ND1] |==|  0.77446
USER: genes 10 Torsion [N]-CA--C-[O] |==|  0.71464
ROOT
ATOM      1  C   TYR C  64      14.231  -3.262   8.921  1.00 51.57 LIG 0.26  C 
ATOM      2 O    TYR C  64      13.462  -3.723   8.077  1.00 54.62 LIG-0.27  OA
ATOM      3  N   PRO C  65      15.512  -2.970   8.641  1.00 43.10 LIG-0.34  N 
ATOM      4  CA  PRO C  65      16.502  -2.308   9.497  1.00 38.90 LIG 0.18  C 
ATOM      5  CB  PRO C  65      17.786  -3.051   9.156  1.00 40.80 LIG 0.04  C 
ATOM      6  CG  PRO C  65      17.618  -3.398   7.717  1.00 42.19 LIG 0.02  C 
ATOM      7  CD  PRO C  65      16.150  -3.621   7.483  1.00 44.37 LIG 0.13  C 
ENDROOT
BRANCH 1 8
ATOM      8  CA  TYR C  64      13.739  -3.007  10.344  1.00 49.73 LIG 0.40  C 
ATOM      9  N   TYR C  64      14.142  -1.665  10.757  1.00 50.52 LIG 0.61  N 
BRANCH 8 10
ATOM     10  CB  TYR C  64      12.213  -3.152  10.384  1.00 50.46 LIG 0.09  C 
BRANCH 10 11
ATOM     11  CG  TYR C  64      11.434  -2.023   9.744  1.00 47.68 LIG-0.06  A 
ATOM     12  CD2 TYR C  64      11.780  -1.556   8.481  1.00 48.34 LIG 0.01  A 
ATOM     13  CE2 TYR C  64      11.080  -0.525   7.882  1.00 49.15 LIG 0.04  A 
ATOM     14  CZ  TYR C  64      10.017   0.052   8.547  1.00 50.59 LIG 0.07  A 
ATOM     15  CE1 TYR C  64       9.651  -0.393   9.802  1.00 46.73 LIG 0.04  A 
ATOM     16  CD1 TYR C  64      10.358  -1.426  10.393  1.00 46.22 LIG 0.01  A 
BRANCH 14 17
ATOM     17 OH   TYR C  64       9.316   1.079   7.957  1.00 53.82 LIG-0.36  OA
ATOM     18 HH   TYR C  64       9.098   1.642   8.542  1.00 53.82 LIG 0.22  HD
ENDBRANCH 14 17
ENDBRANCH 10 11
ENDBRANCH 8 10
ENDBRANCH 1 8
BRANCH 4 19
ATOM     19  C   PRO C  65      16.657  -0.830   9.153  1.00 37.07 LIG 0.24  C 
ATOM     20  N   HIS C  66      16.010  -0.419   8.064  1.00 40.38 LIG-0.35  N 
ATOM     21 H    HIS C  66      15.560  -0.943   7.553  1.00 40.38 LIG 0.16  HD
ATOM     22 O    PRO C  65      17.362  -0.094   9.865  1.00 29.28 LIG-0.27  OA
BRANCH 20 23
ATOM     23  CA  HIS C  66      16.006   0.973   7.637  1.00 40.25 LIG 0.17  C 
BRANCH 23 24
ATOM     24  CB  HIS C  66      15.502   1.091   6.192  1.00 42.68 LIG 0.09  C 
BRANCH 24 25
ATOM     25  CG  HIS C  66      15.023  -0.203   5.607  1.00 48.80 LIG 0.06  A 
ATOM     26 ND1  HIS C  66      15.879  -1.148   5.081  1.00 53.13 LIG-0.24  NA
ATOM     27  CE1 HIS C  66      15.178  -2.179   4.644  1.00 55.16 LIG 0.23  A 
ATOM     28 NE2  HIS C  66      13.898  -1.938   4.866  1.00 53.86 LIG-0.25  NA
ATOM     29  CD2 HIS C  66      13.775  -0.707   5.467  1.00 53.41 LIG 0.14  A 
ENDBRANCH 24 25
ENDBRANCH 23 24
BRANCH 23 30
ATOM     30  C   HIS C  66      15.141   1.832   8.560  1.00 41.89 LIG 0.22  C 
ATOM     31 O    HIS C  66      14.012   2.188   8.214  1.00 44.58 LIG-0.29  OA
ENDBRANCH 23 30
ENDBRANCH 20 23
ENDBRANCH 4 19
TORSDOF 9
ENDMDL
MODEL 183
USER: ADFR SOLUTION from run 153
USER: SCORE 10.091517 LL:  -2.074 LR:  -8.017 RR:   0.000 FEB:  -5.333
USER: RMSD 7.240799
USER: SEED 152
USER: STATUS no improvement in best in 44 clusters for 5 generations
USER: GENES 11
USER: genes 0 Translation |==|  0.57494 0.38533 0.46257
USER: genes 1 Rotation |==|  0.63191 0.41776 0.95677 0.63115
USER: genes 2 Torsion [N]-C--CA-[N] |==|  0.39843
USER: genes 3 Torsion [C]-CA--CB-[CG] |==|  0.10326
USER: genes 4 Torsion [CA]-CB--CG-[CD2] |==|  0.23125
USER: genes 5 Torsion [CE2]-CZ--OH-[HH] |==|  0.60693
USER: genes 6 Torsion [N]-CA--C-[N] |==|  0.55394
USER: genes 7 Torsion [C]-N--CA-[C] |==|  0.55892
USER: genes 8 Torsion [N]-CA--CB-[CG] |==|  0.73164
USER: genes 9 Torsion [CA]-CB--CG-[ND1] |==|  0.80766
USER: genes 10 Torsion [N]-CA--C-[O] |==|  0.95764
ROOT
ATOM      1  C   TYR C  64      13.556  -2.555   6.403  1.00 51.57 LIG 0.26  C 
ATOM      2 O    TYR C  64      13.672  -1.579   5.661  1.00 54.62 LIG-0.27  OA
ATOM      3  N   PRO C  65      12.623  -2.617   7.368  1.00 43.10 LIG-0.34  N 
ATOM      4  CA  PRO C  65      12.287  -3.749   8.237  1.00 38.90 LIG 0.18  C 
ATOM      5  CB  PRO C  65      11.982  -3.070   9.564  1.00 40.80 LIG 0.04  C 
ATOM      6  CG  PRO C  65      11.386  -1.766   9.162  1.00 42.19 LIG 0.02  C 
ATOM      7  CD  PRO C  65      12.039  -1.360   7.869  1.00 44.37 LIG 0.13  C 
ENDROOT
BRANCH 1 8
ATOM      8  CA  TYR C  64      14.495  -3.749   6.246  1.00 49.73 LIG 0.40  C 
ATOM      9  N   TYR C  64      14.776  -3.954   4.827  1.00 50.52 LIG 0.61  N 
BRANCH 8 10
ATOM     10  CB  TYR C  64      15.790  -3.477   7.022  1.00 50.46 LIG 0.09  C 
BRANCH 10 11
ATOM     11  CG  TYR C  64      15.622  -2.742   8.333  1.00 47.68 LIG-0.06  A 
ATOM     12  CD2 TYR C  64      15.283  -3.432   9.491  1.00 48.34 LIG 0.01  A 
ATOM     13  CE2 TYR C  64      15.125  -2.776  10.697  1.00 49.15 LIG 0.04  A 
ATOM     14  CZ  TYR C  64      15.307  -1.409  10.756  1.00 50.59 LIG 0.07  A 
ATOM     15  CE1 TYR C  64      15.646  -0.697   9.622  1.00 46.73 LIG 0.04  A 
ATOM     16  CD1 TYR C  64      15.803  -1.365   8.419  1.00 46.22 LIG 0.01  A 
BRANCH 14 17
ATOM     17 OH   TYR C  64      15.151  -0.749  11.954  1.00 53.82 LIG-0.36  OA
ATOM     18 HH   TYR C  64      14.776  -0.009  11.819  1.00 53.82 LIG 0.22  HD
ENDBRANCH 14 17
ENDBRANCH 10 11
ENDBRANCH 8 10
ENDBRANCH 1 8
BRANCH 4 19
ATOM     19  C   PRO C  65      11.052  -4.498   7.747  1.00 37.07 LIG 0.24  C 
ATOM     20  N   HIS C  66      10.443  -5.262   8.652  1.00 40.38 LIG-0.35  N 
ATOM     21 H    HIS C  66      10.732  -5.371   9.454  1.00 40.38 LIG 0.16  HD
ATOM     22 O    PRO C  65      10.679  -4.384   6.566  1.00 29.28 LIG-0.27  OA
BRANCH 20 23
ATOM     23  CA  HIS C  66       9.217  -5.991   8.361  1.00 40.25 LIG 0.17  C 
BRANCH 23 24
ATOM     24  CB  HIS C  66       9.526  -7.270   7.570  1.00 42.68 LIG 0.09  C 
BRANCH 24 25
ATOM     25  CG  HIS C  66       9.362  -7.124   6.088  1.00 48.80 LIG 0.06  A 
ATOM     26 ND1  HIS C  66       8.133  -6.962   5.484  1.00 53.13 LIG-0.24  NA
ATOM     27  CE1 HIS C  66       8.297  -6.857   4.177  1.00 55.16 LIG 0.23  A 
ATOM     28 NE2  HIS C  66       9.588  -6.946   3.911  1.00 53.86 LIG-0.25  NA
ATOM     29  CD2 HIS C  66      10.276  -7.115   5.090  1.00 53.41 LIG 0.14  A 
ENDBRANCH 24 25
ENDBRANCH 23 24
BRANCH 23 30
ATOM     30  C   HIS C  66       8.465  -6.343   9.644  1.00 41.89 LIG 0.22  C 
ATOM     31 O    HIS C  66       9.024  -6.270  10.742  1.00 44.58 LIG-0.29  OA
ENDBRANCH 23 30
ENDBRANCH 20 23
ENDBRANCH 4 19
TORSDOF 9
ENDMDL
MODEL 184
USER: ADFR SOLUTION from run 199
USER: SCORE 10.275006 LL:  -2.264 LR:  -8.011 RR:   0.000 FEB:  -5.326
USER: RMSD 5.559117
USER: SEED 198
USER: STATUS no improvement in best in 51 clusters for 5 generations
USER: GENES 11
USER: genes 0 Translation |==|  0.55941 0.34781 0.60687
USER: genes 1 Rotation |==|  0.39995 0.84192 0.55097 0.84710
USER: genes 2 Torsion [N]-C--CA-[N] |==|  0.40619
USER: genes 3 Torsion [C]-CA--CB-[CG] |==|  0.16647
USER: genes 4 Torsion [CA]-CB--CG-[CD2] |==|  0.21265
USER: genes 5 Torsion [CE2]-CZ--OH-[HH] |==|  0.77064
USER: genes 6 Torsion [N]-CA--C-[N] |==|  0.19920
USER: genes 7 Torsion [C]-N--CA-[C] |==|  0.16821
USER: genes 8 Torsion [N]-CA--CB-[CG] |==|  0.93308
USER: genes 9 Torsion [CA]-CB--CG-[ND1] |==|  0.83043
USER: genes 10 Torsion [N]-CA--C-[O] |==|  0.09805
ROOT
ATOM      1  C   TYR C  64      13.265  -3.146   9.001  1.00 51.57 LIG 0.26  C 
ATOM      2 O    TYR C  64      12.673  -4.199   9.238  1.00 54.62 LIG-0.27  OA
ATOM      3  N   PRO C  65      13.539  -2.743   7.748  1.00 43.10 LIG-0.34  N 
ATOM      4  CA  PRO C  65      14.119  -1.471   7.309  1.00 38.90 LIG 0.18  C 
ATOM      5  CB  PRO C  65      15.011  -1.894   6.151  1.00 40.80 LIG 0.04  C 
ATOM      6  CG  PRO C  65      14.284  -3.047   5.552  1.00 42.19 LIG 0.02  C 
ATOM      7  CD  PRO C  65      13.566  -3.749   6.672  1.00 44.37 LIG 0.13  C 
ENDROOT
BRANCH 1 8
ATOM      8  CA  TYR C  64      13.719  -2.249  10.150  1.00 49.73 LIG 0.40  C 
ATOM      9  N   TYR C  64      12.748  -2.337  11.239  1.00 50.52 LIG 0.61  N 
BRANCH 8 10
ATOM     10  CB  TYR C  64      15.107  -2.699  10.623  1.00 50.46 LIG 0.09  C 
BRANCH 10 11
ATOM     11  CG  TYR C  64      16.199  -2.648   9.578  1.00 47.68 LIG-0.06  A 
ATOM     12  CD2 TYR C  64      16.774  -1.434   9.217  1.00 48.34 LIG 0.01  A 
ATOM     13  CE2 TYR C  64      17.772  -1.369   8.263  1.00 49.15 LIG 0.04  A 
ATOM     14  CZ  TYR C  64      18.210  -2.529   7.657  1.00 50.59 LIG 0.07  A 
ATOM     15  CE1 TYR C  64      17.659  -3.749   7.997  1.00 46.73 LIG 0.04  A 
ATOM     16  CD1 TYR C  64      16.660  -3.803   8.954  1.00 46.22 LIG 0.01  A 
BRANCH 14 17
ATOM     17 OH   TYR C  64      19.204  -2.472   6.707  1.00 53.82 LIG-0.36  OA
ATOM     18 HH   TYR C  64      18.869  -2.270   5.963  1.00 53.82 LIG 0.22  HD
ENDBRANCH 14 17
ENDBRANCH 10 11
ENDBRANCH 8 10
ENDBRANCH 1 8
BRANCH 4 19
ATOM     19  C   PRO C  65      13.054  -0.500   6.809  1.00 37.07 LIG 0.24  C 
ATOM     20  N   HIS C  66      12.267   0.028   7.744  1.00 40.38 LIG-0.35  N 
ATOM     21 H    HIS C  66      12.314  -0.179   8.577  1.00 40.38 LIG 0.16  HD
ATOM     22 O    PRO C  65      12.953  -0.255   5.593  1.00 29.28 LIG-0.27  OA
BRANCH 20 23
ATOM     23  CA  HIS C  66      11.245   1.018   7.438  1.00 40.25 LIG 0.17  C 
BRANCH 23 24
ATOM     24  CB  HIS C  66      11.882   2.286   6.851  1.00 42.68 LIG 0.09  C 
BRANCH 24 25
ATOM     25  CG  HIS C  66      13.317   2.480   7.235  1.00 48.80 LIG 0.06  A 
ATOM     26 ND1  HIS C  66      13.728   2.626   8.544  1.00 53.13 LIG-0.24  NA
ATOM     27  CE1 HIS C  66      15.040   2.776   8.577  1.00 55.16 LIG 0.23  A 
ATOM     28 NE2  HIS C  66      15.496   2.734   7.338  1.00 53.86 LIG-0.25  NA
ATOM     29  CD2 HIS C  66      14.437   2.550   6.480  1.00 53.41 LIG 0.14  A 
ENDBRANCH 24 25
ENDBRANCH 23 24
BRANCH 23 30
ATOM     30  C   HIS C  66      10.208   0.459   6.463  1.00 41.89 LIG 0.22  C 
ATOM     31 O    HIS C  66       9.870  -0.726   6.516  1.00 44.58 LIG-0.29  OA
ENDBRANCH 23 30
ENDBRANCH 20 23
ENDBRANCH 4 19
TORSDOF 9
ENDMDL
MODEL 185
USER: ADFR SOLUTION from run 7
USER: SCORE 10.148719 LL:  -2.160 LR:  -7.989 RR:   0.000 FEB:  -5.304
USER: RMSD 7.624042
USER: SEED 926039
USER: STATUS no improvement in best in 33 clusters for 5 generations
USER: GENES 11
USER: genes 0 Translation |==|  0.46972 0.37308 0.51149
USER: genes 1 Rotation |==|  0.73694 0.53869 0.92688 0.60067
USER: genes 2 Torsion [N]-C--CA-[N] |==|  0.32434
USER: genes 3 Torsion [C]-CA--CB-[CG] |==|  0.20236
USER: genes 4 Torsion [CA]-CB--CG-[CD2] |==|  0.70063
USER: genes 5 Torsion [CE2]-CZ--OH-[HH] |==|  0.43984
USER: genes 6 Torsion [N]-CA--C-[N] |==|  0.92098
USER: genes 7 Torsion [C]-N--CA-[C] |==|  0.17832
USER: genes 8 Torsion [N]-CA--CB-[CG] |==|  0.84939
USER: genes 9 Torsion [CA]-CB--CG-[ND1] |==|  0.82074
USER: genes 10 Torsion [N]-CA--C-[O] |==|  0.10779
ROOT
ATOM      1  C   TYR C  64      11.583  -2.748   7.284  1.00 51.57 LIG 0.26  C 
ATOM      2 O    TYR C  64      11.015  -2.076   6.423  1.00 54.62 LIG-0.27  OA
ATOM      3  N   PRO C  65      11.272  -2.656   8.588  1.00 43.10 LIG-0.34  N 
ATOM      4  CA  PRO C  65      11.769  -3.471   9.700  1.00 38.90 LIG 0.18  C 
ATOM      5  CB  PRO C  65      11.894  -2.455  10.827  1.00 40.80 LIG 0.04  C 
ATOM      6  CG  PRO C  65      10.782  -1.500  10.562  1.00 42.19 LIG 0.02  C 
ATOM      7  CD  PRO C  65      10.598  -1.438   9.070  1.00 44.37 LIG 0.13  C 
ENDROOT
BRANCH 1 8
ATOM      8  CA  TYR C  64      12.686  -3.725   6.884  1.00 49.73 LIG 0.40  C 
ATOM      9  N   TYR C  64      12.120  -4.763   6.025  1.00 50.52 LIG 0.61  N 
BRANCH 8 10
ATOM     10  CB  TYR C  64      13.796  -2.961   6.152  1.00 50.46 LIG 0.09  C 
BRANCH 10 11
ATOM     11  CG  TYR C  64      14.664  -2.079   7.022  1.00 47.68 LIG-0.06  A 
ATOM     12  CD2 TYR C  64      14.547  -0.694   6.962  1.00 48.34 LIG 0.01  A 
ATOM     13  CE2 TYR C  64      15.332   0.126   7.749  1.00 49.15 LIG 0.04  A 
ATOM     14  CZ  TYR C  64      16.249  -0.435   8.613  1.00 50.59 LIG 0.07  A 
ATOM     15  CE1 TYR C  64      16.387  -1.807   8.696  1.00 46.73 LIG 0.04  A 
ATOM     16  CD1 TYR C  64      15.595  -2.621   7.903  1.00 46.22 LIG 0.01  A 
BRANCH 14 17
ATOM     17 OH   TYR C  64      17.035   0.376   9.400  1.00 53.82 LIG-0.36  OA
ATOM     18 HH   TYR C  64      17.316  -0.061  10.061  1.00 53.82 LIG 0.22  HD
ENDBRANCH 14 17
ENDBRANCH 10 11
ENDBRANCH 8 10
ENDBRANCH 1 8
BRANCH 4 19
ATOM     19  C   PRO C  65      10.778  -4.560  10.098  1.00 37.07 LIG 0.24  C 
ATOM     20  N   HIS C  66       9.495  -4.286   9.868  1.00 40.38 LIG-0.35  N 
ATOM     21 H    HIS C  66       9.219  -3.535   9.553  1.00 40.38 LIG 0.16  HD
ATOM     22 O    PRO C  65      11.183  -5.617  10.612  1.00 29.28 LIG-0.27  OA
BRANCH 20 23
ATOM     23  CA  HIS C  66       8.432  -5.244  10.133  1.00 40.25 LIG 0.17  C 
BRANCH 23 24
ATOM     24  CB  HIS C  66       8.662  -6.537   9.338  1.00 42.68 LIG 0.09  C 
BRANCH 24 25
ATOM     25  CG  HIS C  66       8.838  -6.323   7.866  1.00 48.80 LIG 0.06  A 
ATOM     26 ND1  HIS C  66       7.837  -5.826   7.058  1.00 53.13 LIG-0.24  NA
ATOM     27  CE1 HIS C  66       8.277  -5.744   5.815  1.00 55.16 LIG 0.23  A 
ATOM     28 NE2  HIS C  66       9.527  -6.171   5.786  1.00 53.86 LIG-0.25  NA
ATOM     29  CD2 HIS C  66       9.901  -6.540   7.057  1.00 53.41 LIG 0.14  A 
ENDBRANCH 24 25
ENDBRANCH 23 24
BRANCH 23 30
ATOM     30  C   HIS C  66       8.332  -5.561  11.625  1.00 41.89 LIG 0.22  C 
ATOM     31 O    HIS C  66       8.486  -4.675  12.469  1.00 44.58 LIG-0.29  OA
ENDBRANCH 23 30
ENDBRANCH 20 23
ENDBRANCH 4 19
TORSDOF 9
ENDMDL
MODEL 186
USER: ADFR SOLUTION from run 167
USER: SCORE 10.563599 LL:  -2.583 LR:  -7.981 RR:   0.000 FEB:  -5.296
USER: RMSD 6.073553
USER: SEED 166
USER: STATUS no improvement in best in 33 clusters for 5 generations
USER: GENES 11
USER: genes 0 Translation |==|  0.73345 0.53650 0.58614
USER: genes 1 Rotation |==|  0.89992 0.21140 0.49068 0.58179
USER: genes 2 Torsion [N]-C--CA-[N] |==|  0.46910
USER: genes 3 Torsion [C]-CA--CB-[CG] |==|  0.29520
USER: genes 4 Torsion [CA]-CB--CG-[CD2] |==|  0.61204
USER: genes 5 Torsion [CE2]-CZ--OH-[HH] |==|  0.26651
USER: genes 6 Torsion [N]-CA--C-[N] |==|  0.23192
USER: genes 7 Torsion [C]-N--CA-[C] |==|  0.19300
USER: genes 8 Torsion [N]-CA--CB-[CG] |==|  0.86275
USER: genes 9 Torsion [CA]-CB--CG-[ND1] |==|  0.75943
USER: genes 10 Torsion [N]-CA--C-[O] |==|  0.03167
ROOT
ATOM      1  C   TYR C  64      16.528  -0.174   8.628  1.00 51.57 LIG 0.26  C 
ATOM      2 O    TYR C  64      17.375   0.381   9.328  1.00 54.62 LIG-0.27  OA
ATOM      3  N   PRO C  65      16.445  -1.511   8.525  1.00 43.10 LIG-0.34  N 
ATOM      4  CA  PRO C  65      15.425  -2.309   7.837  1.00 38.90 LIG 0.18  C 
ATOM      5  CB  PRO C  65      16.238  -3.454   7.251  1.00 40.80 LIG 0.04  C 
ATOM      6  CG  PRO C  65      17.322  -3.663   8.251  1.00 42.19 LIG 0.02  C 
ATOM      7  CD  PRO C  65      17.631  -2.321   8.856  1.00 44.37 LIG 0.13  C 
ENDROOT
BRANCH 1 8
ATOM      8  CA  TYR C  64      15.527   0.662   7.833  1.00 49.73 LIG 0.40  C 
ATOM      9  N   TYR C  64      15.606   2.052   8.277  1.00 50.52 LIG 0.61  N 
BRANCH 8 10
ATOM     10  CB  TYR C  64      15.850   0.551   6.339  1.00 50.46 LIG 0.09  C 
BRANCH 10 11
ATOM     11  CG  TYR C  64      14.901  -0.304   5.528  1.00 47.68 LIG-0.06  A 
ATOM     12  CD2 TYR C  64      15.384  -1.153   4.539  1.00 48.34 LIG 0.01  A 
ATOM     13  CE2 TYR C  64      14.531  -1.940   3.789  1.00 49.15 LIG 0.04  A 
ATOM     14  CZ  TYR C  64      13.172  -1.885   4.025  1.00 50.59 LIG 0.07  A 
ATOM     15  CE1 TYR C  64      12.663  -1.052   5.002  1.00 46.73 LIG 0.04  A 
ATOM     16  CD1 TYR C  64      13.527  -0.268   5.749  1.00 46.22 LIG 0.01  A 
BRANCH 14 17
ATOM     17 OH   TYR C  64      12.316  -2.666   3.282  1.00 53.82 LIG-0.36  OA
ATOM     18 HH   TYR C  64      12.147  -3.374   3.702  1.00 53.82 LIG 0.22  HD
ENDBRANCH 14 17
ENDBRANCH 10 11
ENDBRANCH 8 10
ENDBRANCH 1 8
BRANCH 4 19
ATOM     19  C   PRO C  65      14.384  -2.861   8.805  1.00 37.07 LIG 0.24  C 
ATOM     20  N   HIS C  66      13.392  -2.032   9.123  1.00 40.38 LIG-0.35  N 
ATOM     21 H    HIS C  66      13.343  -1.221   8.842  1.00 40.38 LIG 0.16  HD
ATOM     22 O    PRO C  65      14.499  -4.015   9.255  1.00 29.28 LIG-0.27  OA
BRANCH 20 23
ATOM     23  CA  HIS C  66      12.287  -2.428   9.983  1.00 40.25 LIG 0.17  C 
BRANCH 23 24
ATOM     24  CB  HIS C  66      11.637  -3.719   9.465  1.00 42.68 LIG 0.09  C 
BRANCH 24 25
ATOM     25  CG  HIS C  66      11.307  -3.690   8.004  1.00 48.80 LIG 0.06  A 
ATOM     26 ND1  HIS C  66      10.121  -3.184   7.516  1.00 53.13 LIG-0.24  NA
ATOM     27  CE1 HIS C  66      10.109  -3.287   6.198  1.00 55.16 LIG 0.23  A 
ATOM     28 NE2  HIS C  66      11.245  -3.842   5.814  1.00 53.86 LIG-0.25  NA
ATOM     29  CD2 HIS C  66      12.011  -4.105   6.925  1.00 53.41 LIG 0.14  A 
ENDBRANCH 24 25
ENDBRANCH 23 24
BRANCH 23 30
ATOM     30  C   HIS C  66      12.752  -2.624  11.426  1.00 41.89 LIG 0.22  C 
ATOM     31 O    HIS C  66      13.872  -2.251  11.783  1.00 44.58 LIG-0.29  OA
ENDBRANCH 23 30
ENDBRANCH 20 23
ENDBRANCH 4 19
TORSDOF 9
ENDMDL
