MODEL 1
USER: ADFR SOLUTION from run 76
USER: SCORE 22.275144 LL:  -4.507 LR: -20.956 RR:   0.000 FEB: -13.499
USER: RMSD 6.390228
USER: SEED 75
USER: STATUS searching
USER: GENES 27
USER: genes 0 Translation |==|  0.43015 0.34930 0.36973
USER: genes 1 Rotation |==|  0.55225 0.02421 0.64015 0.53543
USER: genes 2 Torsion [C]-CA--N-[C] |==|  0.08796
USER: genes 3 Torsion [N]-C--CA-[N] |==|  0.56102
USER: genes 4 Torsion [C]-CA--N-[C] |==|  0.75838
USER: genes 5 Torsion [N]-C--CA-[N] |==|  0.41344
USER: genes 6 Torsion [C]-CA--N-[C] |==|  0.53333
USER: genes 7 Torsion [N]-C--CA-[N] |==|  0.10980
USER: genes 8 Torsion [C]-CA--N-[H1] |==|  0.57799
USER: genes 9 Torsion [C]-CA--CB-[CG] |==|  0.78539
USER: genes 10 Torsion [CA]-CB--CG-[OD2] |==|  0.94618
USER: genes 11 Torsion [C]-CA--CB-[CG] |==|  0.24067
USER: genes 12 Torsion [CA]-CB--CG-[CD] |==|  0.43624
USER: genes 13 Torsion [CB]-CG--CD-[OE1] |==|  0.60275
USER: genes 14 Torsion [N]-CA--C-[N] |==|  0.22119
USER: genes 15 Torsion [C]-N--CA-[CB] |==|  0.50313
USER: genes 16 Torsion [N]-CA--CB-[CG] |==|  0.90704
USER: genes 17 Torsion [CA]-CB--CG-[CD] |==|  0.65226
USER: genes 18 Torsion [CB]-CG--CD-[NE] |==|  0.87753
USER: genes 19 Torsion [CG]-CD--NE-[HE] |==|  0.98516
USER: genes 20 Torsion [N]-CA--C-[N] |==|  0.74582
USER: genes 21 Torsion [C]-N--CA-[CB] |==|  0.44023
USER: genes 22 Torsion [N]-CA--CB-[CG] |==|  0.84873
USER: genes 23 Torsion [CA]-CB--CG-[ND1] |==|  0.93823
USER: genes 24 Torsion [N]-CA--C-[O] |==|  0.21038
USER: genes 25 Torsion [N]-CA--CB-[CG] |==|  0.09977
USER: genes 26 Torsion [CA]-CB--CG-[CD2] |==|  0.68754
ROOT
ATOM      1  CA  PHE A   4      61.648  42.768 105.623  1.00  8.73 LIG 0.18  C 
ENDROOT
BRANCH 1 2
ATOM      2  N   PHE A   4      62.870  42.650 106.404  1.00  8.80 LIG-0.35  N 
ATOM      3  C   GLU A   3      63.089  43.426 107.460  1.00  9.88 LIG 0.24  C 
ATOM      4 O    GLU A   3      62.279  44.295 107.818  1.00 11.78 LIG-0.27  OA
ATOM      5 H    PHE A   4      63.417  42.049 106.124  1.00  8.80 LIG 0.16  HD
BRANCH 3 6
ATOM      6  CA  GLU A   3      64.427  43.245 108.194  1.00  9.13 LIG 0.18  C 
BRANCH 6 7
ATOM      7  N   GLU A   3      64.416  43.720 109.585  1.00  7.51 LIG-0.35  N 
ATOM      8  C   ALA A   2      64.686  44.991 109.876  1.00 12.24 LIG 0.24  C 
ATOM      9 O    ALA A   2      64.920  45.836 108.996  1.00 10.29 LIG-0.27  OA
ATOM     10 H    GLU A   3      64.226  43.119 110.169  1.00  7.51 LIG 0.16  HD
BRANCH 8 11
ATOM     11  CA  ALA A   2      64.676  45.379 111.358  1.00  7.33 LIG 0.17  C 
ATOM     12  CB  ALA A   2      63.265  45.750 111.801  1.00  8.39 LIG 0.04  C 
BRANCH 11 13
ATOM     13  N   ALA A   2      65.616  46.459 111.683  1.00  8.02 LIG-0.35  N 
ATOM     14 H    ALA A   2      65.944  46.861 110.997  1.00  8.02 LIG 0.16  HD
ATOM     15  C   ASP A   1      65.922  46.773 112.942  1.00  8.83 LIG 0.25  C 
ATOM     16 O    ASP A   1      65.452  46.185 113.913  1.00  7.52 LIG-0.27  OA
BRANCH 15 17
ATOM     17  CA  ASP A   1      66.906  47.915 113.149  1.00  7.69 LIG 0.28  C 
BRANCH 17 18
ATOM     18  N   ASP A   1      66.680  49.035 112.190  1.00 12.20 LIG-0.07  N 
ATOM     19 H3   ASP A   1      66.084  49.602 112.531  1.00 12.20 LIG 0.28  HD
ATOM     20 H1   ASP A   1      67.447  49.463 112.047  1.00 12.20 LIG 0.28  HD
ATOM     21 H2   ASP A   1      66.373  48.710 111.420  1.00 12.20 LIG 0.28  HD
ENDBRANCH 17 18
BRANCH 17 22
ATOM     22  CB  ASP A   1      66.787  48.414 114.591  1.00 12.14 LIG 0.15  C 
BRANCH 22 23
ATOM     23  CG  ASP A   1      65.560  49.294 114.816  1.00 11.50 LIG 0.17  C 
ATOM     24 OD2  ASP A   1      65.040  49.801 113.806  1.00  7.11 LIG-0.65  OA
ATOM     25 OD1  ASP A   1      65.103  49.466 115.977  1.00  8.56 LIG-0.65  OA
ENDBRANCH 22 23
ENDBRANCH 17 22
ENDBRANCH 15 17
ENDBRANCH 11 13
ENDBRANCH 8 11
ENDBRANCH 6 7
BRANCH 6 26
ATOM     26  CB  GLU A   3      64.857  41.771 108.130  1.00  8.36 LIG 0.04  C 
BRANCH 26 27
ATOM     27  CG  GLU A   3      65.657  41.367 106.880  1.00  8.75 LIG 0.12  C 
BRANCH 27 28
ATOM     28  CD  GLU A   3      66.524  40.123 107.069  1.00 11.41 LIG 0.17  C 
ATOM     29 OE1  GLU A   3      67.642  40.074 106.518  1.00  7.99 LIG-0.65  OA
ATOM     30 OE2  GLU A   3      66.090  39.189 107.788  1.00 13.12 LIG-0.65  OA
ENDBRANCH 27 28
ENDBRANCH 26 27
ENDBRANCH 6 26
ENDBRANCH 3 6
ENDBRANCH 1 2
BRANCH 1 31
ATOM     31  C   PHE A   4      61.115  44.205 105.606  1.00 10.65 LIG 0.24  C 
ATOM     32  N   ARG A   5      61.698  45.056 104.771  1.00  9.73 LIG-0.35  N 
ATOM     33 H    ARG A   5      62.345  44.847 104.244  1.00  9.73 LIG 0.16  HD
ATOM     34 O    PHE A   4      60.165  44.521 106.307  1.00 11.27 LIG-0.27  OA
BRANCH 32 35
ATOM     35  CA  ARG A   5      61.270  46.452 104.679  1.00 16.16 LIG 0.18  C 
BRANCH 35 36
ATOM     36  CB  ARG A   5      62.095  47.201 103.615  1.00 18.38 LIG 0.04  C 
BRANCH 36 37
ATOM     37  CG  ARG A   5      63.555  46.750 103.466  1.00 17.37 LIG 0.02  C 
BRANCH 37 38
ATOM     38  CD  ARG A   5      64.547  47.922 103.620  1.00 18.74 LIG 0.14  C 
BRANCH 38 39
ATOM     39  NE  ARG A   5      64.110  49.115 102.886  1.00 16.23 LIG-0.23  N 
ATOM     40 HE   ARG A   5      63.409  49.050 102.392  1.00 16.23 LIG 0.18  HD
ATOM     41  CZ  ARG A   5      64.728  50.289 102.935  1.00 23.02 LIG 0.67  C 
ATOM     42  NH2 ARG A   5      64.251  51.331 102.261  1.00 17.77 LIG-0.23  N 
ATOM     43  NH1 ARG A   5      65.832  50.427 103.663  1.00 22.06 LIG-0.23  N 
ATOM     44 1HH2 ARG A   5      63.538  51.248 101.788  1.00 17.77 LIG 0.17  HD
ATOM     45 2HH2 ARG A   5      64.657  52.089 102.297  1.00 17.77 LIG 0.17  HD
ATOM     46 2HH1 ARG A   5      66.233  51.186 103.696  1.00 22.06 LIG 0.17  HD
ATOM     47 1HH1 ARG A   5      66.145  49.756 104.101  1.00 22.06 LIG 0.17  HD
ENDBRANCH 38 39
ENDBRANCH 37 38
ENDBRANCH 36 37
ENDBRANCH 35 36
BRANCH 35 48
ATOM     48  C   ARG A   5      59.768  46.562 104.339  1.00 22.64 LIG 0.24  C 
ATOM     49 O    ARG A   5      58.923  46.571 105.224  1.00 28.37 LIG-0.27  OA
ATOM     50  N   HIS A   6      59.462  46.640 103.051  1.00 30.17 LIG-0.35  N 
ATOM     51 H    HIS A   6      60.032  46.489 102.425  1.00 30.17 LIG 0.16  HD
BRANCH 50 52
ATOM     52  CA  HIS A   6      58.131  46.990 102.557  1.00 40.98 LIG 0.17  C 
BRANCH 52 53
ATOM     53  CB  HIS A   6      58.209  47.517 101.101  1.00 38.64 LIG 0.09  C 
BRANCH 53 54
ATOM     54  CG  HIS A   6      59.158  48.665 100.896  1.00 38.02 LIG 0.06  A 
ATOM     55 ND1  HIS A   6      59.553  49.492 101.929  1.00 51.26 LIG-0.24  NA
ATOM     56  CE1 HIS A   6      60.389  50.408 101.467  1.00 35.95 LIG 0.23  A 
ATOM     57 NE2  HIS A   6      60.551  50.205 100.171  1.00 45.10 LIG-0.25  NA
ATOM     58  CD2 HIS A   6      59.789  49.124  99.788  1.00 36.38 LIG 0.14  A 
ENDBRANCH 53 54
ENDBRANCH 52 53
BRANCH 52 59
ATOM     59  C   HIS A   6      57.246  45.749 102.578  1.00 40.61 LIG 0.22  C 
ATOM     60 O    HIS A   6      56.790  45.332 103.649  1.00 40.83 LIG-0.29  OA
ENDBRANCH 52 59
ENDBRANCH 50 52
ENDBRANCH 35 48
ENDBRANCH 32 35
ENDBRANCH 1 31
BRANCH 1 61
ATOM     61  CB  PHE A   4      60.577  41.796 106.140  1.00  8.88 LIG 0.07  C 
BRANCH 61 62
ATOM     62  CG  PHE A   4      60.598  41.621 107.635  1.00  5.46 LIG-0.06  A 
ATOM     63  CD2 PHE A   4      60.967  40.408 108.206  1.00  6.98 LIG 0.01  A 
ATOM     64  CE2 PHE A   4      60.979  40.250 109.596  1.00  8.89 LIG 0.00  A 
ATOM     65  CZ  PHE A   4      60.612  41.317 110.415  1.00  4.47 LIG 0.00  A 
ATOM     66  CE1 PHE A   4      60.248  42.521 109.856  1.00  8.64 LIG 0.00  A 
ATOM     67  CD1 PHE A   4      60.228  42.668 108.470  1.00  9.90 LIG 0.01  A 
ENDBRANCH 61 62
ENDBRANCH 1 61
TORSDOF 25
ENDMDL
MODEL 2
USER: ADFR SOLUTION from run 46
USER: SCORE 22.379615 LL:  -5.086 LR: -20.500 RR:   0.000 FEB: -13.042
USER: RMSD 7.629393
USER: SEED 45
USER: STATUS 1 or 2 clusters left
USER: GENES 27
USER: genes 0 Translation |==|  0.62269 0.54839 0.64348
USER: genes 1 Rotation |==|  0.32927 0.64480 0.05698 0.56017
USER: genes 2 Torsion [C]-CA--N-[C] |==|  0.16667
USER: genes 3 Torsion [N]-C--CA-[N] |==|  0.96592
USER: genes 4 Torsion [C]-CA--N-[C] |==|  0.79292
USER: genes 5 Torsion [N]-C--CA-[N] |==|  0.68423
USER: genes 6 Torsion [C]-CA--N-[C] |==|  0.79878
USER: genes 7 Torsion [N]-C--CA-[N] |==|  0.47014
USER: genes 8 Torsion [C]-CA--N-[H1] |==|  0.97574
USER: genes 9 Torsion [C]-CA--CB-[CG] |==|  0.81892
USER: genes 10 Torsion [CA]-CB--CG-[OD2] |==|  0.41791
USER: genes 11 Torsion [C]-CA--CB-[CG] |==|  0.25830
USER: genes 12 Torsion [CA]-CB--CG-[CD] |==|  0.02676
USER: genes 13 Torsion [CB]-CG--CD-[OE1] |==|  0.60514
USER: genes 14 Torsion [N]-CA--C-[N] |==|  0.15901
USER: genes 15 Torsion [C]-N--CA-[CB] |==|  0.46675
USER: genes 16 Torsion [N]-CA--CB-[CG] |==|  0.92071
USER: genes 17 Torsion [CA]-CB--CG-[CD] |==|  0.60284
USER: genes 18 Torsion [CB]-CG--CD-[NE] |==|  0.06348
USER: genes 19 Torsion [CG]-CD--NE-[HE] |==|  0.87793
USER: genes 20 Torsion [N]-CA--C-[N] |==|  0.71580
USER: genes 21 Torsion [C]-N--CA-[CB] |==|  0.22509
USER: genes 22 Torsion [N]-CA--CB-[CG] |==|  0.81051
USER: genes 23 Torsion [CA]-CB--CG-[ND1] |==|  0.85719
USER: genes 24 Torsion [N]-CA--C-[O] |==|  0.50904
USER: genes 25 Torsion [N]-CA--CB-[CG] |==|  0.53612
USER: genes 26 Torsion [CA]-CB--CG-[CD2] |==|  0.58066
ROOT
ATOM      1  CA  PHE A   4      64.969  46.651 110.961  1.00  8.73 LIG 0.18  C 
ENDROOT
BRANCH 1 2
ATOM      2  N   PHE A   4      65.246  47.998 110.484  1.00  8.80 LIG-0.35  N 
ATOM      3  C   GLU A   3      64.266  48.799 110.082  1.00  9.88 LIG 0.24  C 
ATOM      4 O    GLU A   3      63.080  48.438 110.074  1.00 11.78 LIG-0.27  OA
ATOM      5 H    PHE A   4      66.078  48.215 110.489  1.00  8.80 LIG 0.16  HD
BRANCH 3 6
ATOM      6  CA  GLU A   3      64.670  50.189 109.563  1.00  9.13 LIG 0.18  C 
BRANCH 6 7
ATOM      7  N   GLU A   3      66.066  50.552 109.846  1.00  7.51 LIG-0.35  N 
ATOM      8  C   ALA A   2      66.447  50.900 111.072  1.00 12.24 LIG 0.24  C 
ATOM      9 O    ALA A   2      65.660  50.900 112.034  1.00 10.29 LIG-0.27  OA
ATOM     10 H    GLU A   3      66.591  50.518 109.166  1.00  7.51 LIG 0.16  HD
BRANCH 8 11
ATOM     11  CA  ALA A   2      67.917  51.287 111.257  1.00  7.33 LIG 0.17  C 
ATOM     12  CB  ALA A   2      68.600  51.447 109.903  1.00  8.39 LIG 0.04  C 
BRANCH 11 13
ATOM     13  N   ALA A   2      68.666  50.348 112.101  1.00  8.02 LIG-0.35  N 
ATOM     14 H    ALA A   2      69.223  49.853 111.671  1.00  8.02 LIG 0.16  HD
ATOM     15  C   ASP A   1      68.483  50.283 113.420  1.00  8.83 LIG 0.25  C 
ATOM     16 O    ASP A   1      67.678  50.992 114.021  1.00  7.52 LIG-0.27  OA
BRANCH 15 17
ATOM     17  CA  ASP A   1      69.323  49.271 114.185  1.00  7.69 LIG 0.28  C 
BRANCH 17 18
ATOM     18  N   ASP A   1      69.227  49.459 115.662  1.00 12.20 LIG-0.07  N 
ATOM     19 H3   ASP A   1      70.046  49.502 116.009  1.00 12.20 LIG 0.28  HD
ATOM     20 H1   ASP A   1      68.791  50.215 115.837  1.00 12.20 LIG 0.28  HD
ATOM     21 H2   ASP A   1      68.788  48.773 116.021  1.00 12.20 LIG 0.28  HD
ENDBRANCH 17 18
BRANCH 17 22
ATOM     22  CB  ASP A   1      68.872  47.861 113.796  1.00 12.14 LIG 0.15  C 
BRANCH 22 23
ATOM     23  CG  ASP A   1      67.441  47.554 114.231  1.00 11.50 LIG 0.17  C 
ATOM     24 OD2  ASP A   1      66.802  46.748 113.529  1.00  7.11 LIG-0.65  OA
ATOM     25 OD1  ASP A   1      66.961  48.087 115.266  1.00  8.56 LIG-0.65  OA
ENDBRANCH 22 23
ENDBRANCH 17 22
ENDBRANCH 15 17
ENDBRANCH 11 13
ENDBRANCH 8 11
ENDBRANCH 6 7
BRANCH 6 26
ATOM     26  CB  GLU A   3      64.381  50.283 108.056  1.00  8.36 LIG 0.04  C 
BRANCH 26 27
ATOM     27  CG  GLU A   3      63.008  50.863 107.678  1.00  8.75 LIG 0.12  C 
BRANCH 27 28
ATOM     28  CD  GLU A   3      62.242  51.468 108.853  1.00 11.41 LIG 0.17  C 
ATOM     29 OE1  GLU A   3      61.005  51.317 108.912  1.00  7.99 LIG-0.65  OA
ATOM     30 OE2  GLU A   3      62.884  52.090 109.736  1.00 13.12 LIG-0.65  OA
ENDBRANCH 27 28
ENDBRANCH 26 27
ENDBRANCH 6 26
ENDBRANCH 3 6
ENDBRANCH 1 2
BRANCH 1 31
ATOM     31  C   PHE A   4      64.286  45.794 109.891  1.00 10.65 LIG 0.24  C 
ATOM     32  N   ARG A   5      64.921  45.650 108.734  1.00  9.73 LIG-0.35  N 
ATOM     33 H    ARG A   5      65.684  46.004 108.557  1.00  9.73 LIG 0.16  HD
ATOM     34 O    PHE A   4      63.223  45.238 110.128  1.00 11.27 LIG-0.27  OA
BRANCH 32 35
ATOM     35  CA  ARG A   5      64.354  44.857 107.644  1.00 16.16 LIG 0.18  C 
BRANCH 35 36
ATOM     36  CB  ARG A   5      65.135  45.099 106.338  1.00 18.38 LIG 0.04  C 
BRANCH 36 37
ATOM     37  CG  ARG A   5      65.799  46.477 106.205  1.00 17.37 LIG 0.02  C 
BRANCH 37 38
ATOM     38  CD  ARG A   5      65.744  47.015 104.760  1.00 18.74 LIG 0.14  C 
BRANCH 38 39
ATOM     39  NE  ARG A   5      64.658  46.405 103.985  1.00 16.23 LIG-0.23  N 
ATOM     40 HE   ARG A   5      64.543  45.555 104.052  1.00 16.23 LIG 0.18  HD
ATOM     41  CZ  ARG A   5      63.841  47.081 103.186  1.00 23.02 LIG 0.67  C 
ATOM     42  NH2 ARG A   5      62.862  46.457 102.539  1.00 17.77 LIG-0.23  N 
ATOM     43  NH1 ARG A   5      64.000  48.392 103.030  1.00 22.06 LIG-0.23  N 
ATOM     44 1HH2 ARG A   5      62.754  45.609 102.635  1.00 17.77 LIG 0.17  HD
ATOM     45 2HH2 ARG A   5      62.335  46.901 102.023  1.00 17.77 LIG 0.17  HD
ATOM     46 2HH1 ARG A   5      63.471  48.830 102.513  1.00 22.06 LIG 0.17  HD
ATOM     47 1HH1 ARG A   5      64.631  48.801 103.446  1.00 22.06 LIG 0.17  HD
ENDBRANCH 38 39
ENDBRANCH 37 38
ENDBRANCH 36 37
ENDBRANCH 35 36
BRANCH 35 48
ATOM     48  C   ARG A   5      64.361  43.350 107.977  1.00 22.64 LIG 0.24  C 
ATOM     49 O    ARG A   5      63.528  42.871 108.734  1.00 28.37 LIG-0.27  OA
ATOM     50  N   HIS A   6      65.313  42.626 107.403  1.00 30.17 LIG-0.35  N 
ATOM     51 H    HIS A   6      65.982  42.976 106.991  1.00 30.17 LIG 0.16  HD
BRANCH 50 52
ATOM     52  CA  HIS A   6      65.329  41.164 107.409  1.00 40.98 LIG 0.17  C 
BRANCH 52 53
ATOM     53  CB  HIS A   6      64.395  40.603 106.306  1.00 38.64 LIG 0.09  C 
BRANCH 53 54
ATOM     54  CG  HIS A   6      62.929  40.839 106.540  1.00 38.02 LIG 0.06  A 
ATOM     55 ND1  HIS A   6      62.306  40.507 107.727  1.00 51.26 LIG-0.24  NA
ATOM     56  CE1 HIS A   6      61.024  40.828 107.659  1.00 35.95 LIG 0.23  A 
ATOM     57 NE2  HIS A   6      60.792  41.357 106.470  1.00 45.10 LIG-0.25  NA
ATOM     58  CD2 HIS A   6      61.966  41.372 105.750  1.00 36.38 LIG 0.14  A 
ENDBRANCH 53 54
ENDBRANCH 52 53
BRANCH 52 59
ATOM     59  C   HIS A   6      66.747  40.677 107.138  1.00 40.61 LIG 0.22  C 
ATOM     60 O    HIS A   6      66.978  39.466 107.039  1.00 40.83 LIG-0.29  OA
ENDBRANCH 52 59
ENDBRANCH 50 52
ENDBRANCH 35 48
ENDBRANCH 32 35
ENDBRANCH 1 31
BRANCH 1 61
ATOM     61  CB  PHE A   4      64.128  46.692 112.246  1.00  8.88 LIG 0.07  C 
BRANCH 61 62
ATOM     62  CG  PHE A   4      64.064  45.369 112.963  1.00  5.46 LIG-0.06  A 
ATOM     63  CD2 PHE A   4      62.958  45.030 113.734  1.00  6.98 LIG 0.01  A 
ATOM     64  CE2 PHE A   4      62.907  43.802 114.402  1.00  8.89 LIG 0.00  A 
ATOM     65  CZ  PHE A   4      63.977  42.915 114.300  1.00  4.47 LIG 0.00  A 
ATOM     66  CE1 PHE A   4      65.074  43.245 113.536  1.00  8.64 LIG 0.00  A 
ATOM     67  CD1 PHE A   4      65.123  44.474 112.882  1.00  9.90 LIG 0.01  A 
ENDBRANCH 61 62
ENDBRANCH 1 61
TORSDOF 25
ENDMDL
MODEL 3
USER: ADFR SOLUTION from run 22
USER: SCORE 23.995113 LL:  -5.555 LR: -20.026 RR:   0.000 FEB: -12.569
USER: RMSD 5.616112
USER: SEED 21
USER: STATUS 1 or 2 clusters left
USER: GENES 27
USER: genes 0 Translation |==|  0.41414 0.40969 0.41615
USER: genes 1 Rotation |==|  0.48420 0.04040 0.69303 0.53545
USER: genes 2 Torsion [C]-CA--N-[C] |==|  0.75270
USER: genes 3 Torsion [N]-C--CA-[N] |==|  0.93765
USER: genes 4 Torsion [C]-CA--N-[C] |==|  0.83140
USER: genes 5 Torsion [N]-C--CA-[N] |==|  0.07800
USER: genes 6 Torsion [C]-CA--N-[C] |==|  0.65010
USER: genes 7 Torsion [N]-C--CA-[N] |==|  0.53328
USER: genes 8 Torsion [C]-CA--N-[H1] |==|  0.91595
USER: genes 9 Torsion [C]-CA--CB-[CG] |==|  0.81042
USER: genes 10 Torsion [CA]-CB--CG-[OD2] |==|  0.63489
USER: genes 11 Torsion [C]-CA--CB-[CG] |==|  0.15967
USER: genes 12 Torsion [CA]-CB--CG-[CD] |==|  0.41255
USER: genes 13 Torsion [CB]-CG--CD-[OE1] |==|  0.17041
USER: genes 14 Torsion [N]-CA--C-[N] |==|  0.44117
USER: genes 15 Torsion [C]-N--CA-[CB] |==|  0.26587
USER: genes 16 Torsion [N]-CA--CB-[CG] |==|  0.96722
USER: genes 17 Torsion [CA]-CB--CG-[CD] |==|  0.63417
USER: genes 18 Torsion [CB]-CG--CD-[NE] |==|  0.92018
USER: genes 19 Torsion [CG]-CD--NE-[HE] |==|  0.96878
USER: genes 20 Torsion [N]-CA--C-[N] |==|  0.82296
USER: genes 21 Torsion [C]-N--CA-[CB] |==|  0.36578
USER: genes 22 Torsion [N]-CA--CB-[CG] |==|  0.82215
USER: genes 23 Torsion [CA]-CB--CG-[ND1] |==|  0.98827
USER: genes 24 Torsion [N]-CA--C-[O] |==|  0.11966
USER: genes 25 Torsion [N]-CA--CB-[CG] |==|  0.94231
USER: genes 26 Torsion [CA]-CB--CG-[CD2] |==|  0.26184
ROOT
ATOM      1  CA  PHE A   4      61.372  43.946 106.528  1.00  8.73 LIG 0.18  C 
ENDROOT
BRANCH 1 2
ATOM      2  N   PHE A   4      62.475  43.755 107.458  1.00  8.80 LIG-0.35  N 
ATOM      3  C   GLU A   3      63.709  43.523 107.022  1.00  9.88 LIG 0.24  C 
ATOM      4 O    GLU A   3      63.976  43.440 105.814  1.00 11.78 LIG-0.27  OA
ATOM      5 H    PHE A   4      62.257  43.805 108.288  1.00  8.80 LIG 0.16  HD
BRANCH 3 6
ATOM      6  CA  GLU A   3      64.795  43.299 108.087  1.00  9.13 LIG 0.18  C 
BRANCH 6 7
ATOM      7  N   GLU A   3      64.469  43.866 109.403  1.00  7.51 LIG-0.35  N 
ATOM      8  C   ALA A   2      64.263  45.173 109.553  1.00 12.24 LIG 0.24  C 
ATOM      9 O    ALA A   2      64.299  45.962 108.594  1.00 10.29 LIG-0.27  OA
ATOM     10 H    GLU A   3      64.426  43.292 110.041  1.00  7.51 LIG 0.16  HD
BRANCH 8 11
ATOM     11  CA  ALA A   2      63.957  45.668 110.969  1.00  7.33 LIG 0.17  C 
ATOM     12  CB  ALA A   2      64.402  47.117 111.134  1.00  8.39 LIG 0.04  C 
BRANCH 11 13
ATOM     13  N   ALA A   2      64.546  44.829 112.020  1.00  8.02 LIG-0.35  N 
ATOM     14 H    ALA A   2      65.394  44.706 111.940  1.00  8.02 LIG 0.16  HD
ATOM     15  C   ASP A   1      63.812  44.310 113.005  1.00  8.83 LIG 0.25  C 
ATOM     16 O    ASP A   1      62.599  44.488 113.102  1.00  7.52 LIG-0.27  OA
BRANCH 15 17
ATOM     17  CA  ASP A   1      64.540  43.461 114.036  1.00  7.69 LIG 0.28  C 
BRANCH 17 18
ATOM     18  N   ASP A   1      63.597  42.707 114.913  1.00 12.20 LIG-0.07  N 
ATOM     19 H3   ASP A   1      63.968  42.587 115.713  1.00 12.20 LIG 0.28  HD
ATOM     20 H1   ASP A   1      62.842  43.168 115.002  1.00 12.20 LIG 0.28  HD
ATOM     21 H2   ASP A   1      63.420  41.915 114.547  1.00 12.20 LIG 0.28  HD
ENDBRANCH 17 18
BRANCH 17 22
ATOM     22  CB  ASP A   1      65.478  42.497 113.307  1.00 12.14 LIG 0.15  C 
BRANCH 22 23
ATOM     23  CG  ASP A   1      64.732  41.430 112.510  1.00 11.50 LIG 0.17  C 
ATOM     24 OD2  ASP A   1      65.103  40.252 112.665  1.00  7.11 LIG-0.65  OA
ATOM     25 OD1  ASP A   1      63.776  41.749 111.755  1.00  8.56 LIG-0.65  OA
ENDBRANCH 22 23
ENDBRANCH 17 22
ENDBRANCH 15 17
ENDBRANCH 11 13
ENDBRANCH 8 11
ENDBRANCH 6 7
BRANCH 6 26
ATOM     26  CB  GLU A   3      65.101  41.797 108.206  1.00  8.36 LIG 0.04  C 
BRANCH 26 27
ATOM     27  CG  GLU A   3      65.553  41.107 106.908  1.00  8.75 LIG 0.12  C 
BRANCH 27 28
ATOM     28  CD  GLU A   3      66.526  39.948 107.124  1.00 11.41 LIG 0.17  C 
ATOM     29 OE1  GLU A   3      66.154  38.963 107.792  1.00  7.99 LIG-0.65  OA
ATOM     30 OE2  GLU A   3      67.670  40.017 106.610  1.00 13.12 LIG-0.65  OA
ENDBRANCH 27 28
ENDBRANCH 26 27
ENDBRANCH 6 26
ENDBRANCH 3 6
ENDBRANCH 1 2
BRANCH 1 31
ATOM     31  C   PHE A   4      61.209  45.415 106.126  1.00 10.65 LIG 0.24  C 
ATOM     32  N   ARG A   5      60.558  45.665 104.997  1.00  9.73 LIG-0.35  N 
ATOM     33 H    ARG A   5      60.225  45.056 104.489  1.00  9.73 LIG 0.16  HD
ATOM     34 O    PHE A   4      61.629  46.306 106.850  1.00 11.27 LIG-0.27  OA
BRANCH 32 35
ATOM     35  CA  ARG A   5      60.351  47.031 104.519  1.00 16.16 LIG 0.18  C 
BRANCH 35 36
ATOM     36  CB  ARG A   5      61.441  47.417 103.499  1.00 18.38 LIG 0.04  C 
BRANCH 36 37
ATOM     37  CG  ARG A   5      62.635  46.457 103.407  1.00 17.37 LIG 0.02  C 
BRANCH 37 38
ATOM     38  CD  ARG A   5      63.987  47.200 103.456  1.00 18.74 LIG 0.14  C 
BRANCH 38 39
ATOM     39  NE  ARG A   5      63.889  48.561 102.915  1.00 16.23 LIG-0.23  N 
ATOM     40 HE   ARG A   5      63.170  48.776 102.494  1.00 16.23 LIG 0.18  HD
ATOM     41  CZ  ARG A   5      64.839  49.480 103.033  1.00 23.02 LIG 0.67  C 
ATOM     42  NH2 ARG A   5      64.661  50.701 102.538  1.00 17.77 LIG-0.23  N 
ATOM     43  NH1 ARG A   5      65.978  49.181 103.651  1.00 22.06 LIG-0.23  N 
ATOM     44 1HH2 ARG A   5      63.926  50.900 102.137  1.00 17.77 LIG 0.17  HD
ATOM     45 2HH2 ARG A   5      65.281  51.293 102.618  1.00 17.77 LIG 0.17  HD
ATOM     46 2HH1 ARG A   5      66.594  49.776 103.728  1.00 22.06 LIG 0.17  HD
ATOM     47 1HH1 ARG A   5      66.099  48.394 103.973  1.00 22.06 LIG 0.17  HD
ENDBRANCH 38 39
ENDBRANCH 37 38
ENDBRANCH 36 37
ENDBRANCH 35 36
BRANCH 35 48
ATOM     48  C   ARG A   5      58.959  47.201 103.873  1.00 22.64 LIG 0.24  C 
ATOM     49 O    ARG A   5      58.128  47.953 104.364  1.00 28.37 LIG-0.27  OA
ATOM     50  N   HIS A   6      58.729  46.490 102.778  1.00 30.17 LIG-0.35  N 
ATOM     51 H    HIS A   6      59.248  45.857 102.514  1.00 30.17 LIG 0.16  HD
BRANCH 50 52
ATOM     52  CA  HIS A   6      57.574  46.701 101.906  1.00 40.98 LIG 0.17  C 
BRANCH 52 53
ATOM     53  CB  HIS A   6      58.016  46.780 100.423  1.00 38.64 LIG 0.09  C 
BRANCH 53 54
ATOM     54  CG  HIS A   6      58.907  47.945 100.091  1.00 38.02 LIG 0.06  A 
ATOM     55 ND1  HIS A   6      59.229  48.917 101.017  1.00 51.26 LIG-0.24  NA
ATOM     56  CE1 HIS A   6      60.026  49.814 100.458  1.00 35.95 LIG 0.23  A 
ATOM     57 NE2  HIS A   6      60.235  49.457  99.203  1.00 45.10 LIG-0.25  NA
ATOM     58  CD2 HIS A   6      59.543  48.294  98.947  1.00 36.38 LIG 0.14  A 
ENDBRANCH 53 54
ENDBRANCH 52 53
BRANCH 52 59
ATOM     59  C   HIS A   6      56.606  45.534 102.063  1.00 40.61 LIG 0.22  C 
ATOM     60 O    HIS A   6      56.352  45.088 103.188  1.00 40.83 LIG-0.29  OA
ENDBRANCH 52 59
ENDBRANCH 50 52
ENDBRANCH 35 48
ENDBRANCH 32 35
ENDBRANCH 1 31
BRANCH 1 61
ATOM     61  CB  PHE A   4      60.064  43.394 107.117  1.00  8.88 LIG 0.07  C 
BRANCH 61 62
ATOM     62  CG  PHE A   4      60.279  42.386 108.214  1.00  5.46 LIG-0.06  A 
ATOM     63  CD2 PHE A   4      60.287  42.776 109.549  1.00  6.98 LIG 0.01  A 
ATOM     64  CE2 PHE A   4      60.493  41.835 110.563  1.00  8.89 LIG 0.00  A 
ATOM     65  CZ  PHE A   4      60.698  40.497 110.233  1.00  4.47 LIG 0.00  A 
ATOM     66  CE1 PHE A   4      60.689  40.104 108.913  1.00  8.64 LIG 0.00  A 
ATOM     67  CD1 PHE A   4      60.494  41.049 107.907  1.00  9.90 LIG 0.01  A 
ENDBRANCH 61 62
ENDBRANCH 1 61
TORSDOF 25
ENDMDL
MODEL 4
USER: ADFR SOLUTION from run 113
USER: SCORE 23.311016 LL:  -5.251 LR: -19.875 RR:   0.000 FEB: -12.418
USER: RMSD 7.333053
USER: SEED 112
USER: STATUS 1 or 2 clusters left
USER: GENES 27
USER: genes 0 Translation |==|  0.64951 0.56546 0.63563
USER: genes 1 Rotation |==|  0.28958 0.67089 0.08009 0.51402
USER: genes 2 Torsion [C]-CA--N-[C] |==|  0.85864
USER: genes 3 Torsion [N]-C--CA-[N] |==|  0.51559
USER: genes 4 Torsion [C]-CA--N-[C] |==|  0.63003
USER: genes 5 Torsion [N]-C--CA-[N] |==|  0.00828
USER: genes 6 Torsion [C]-CA--N-[C] |==|  0.19073
USER: genes 7 Torsion [N]-C--CA-[N] |==|  0.70821
USER: genes 8 Torsion [C]-CA--N-[H1] |==|  0.54964
USER: genes 9 Torsion [C]-CA--CB-[CG] |==|  0.17627
USER: genes 10 Torsion [CA]-CB--CG-[OD2] |==|  0.01813
USER: genes 11 Torsion [C]-CA--CB-[CG] |==|  0.83043
USER: genes 12 Torsion [CA]-CB--CG-[CD] |==|  0.45715
USER: genes 13 Torsion [CB]-CG--CD-[OE1] |==|  0.53366
USER: genes 14 Torsion [N]-CA--C-[N] |==|  0.36739
USER: genes 15 Torsion [C]-N--CA-[CB] |==|  0.19266
USER: genes 16 Torsion [N]-CA--CB-[CG] |==|  0.62510
USER: genes 17 Torsion [CA]-CB--CG-[CD] |==|  0.40512
USER: genes 18 Torsion [CB]-CG--CD-[NE] |==|  0.21058
USER: genes 19 Torsion [CG]-CD--NE-[HE] |==|  0.93447
USER: genes 20 Torsion [N]-CA--C-[N] |==|  0.71111
USER: genes 21 Torsion [C]-N--CA-[CB] |==|  0.27635
USER: genes 22 Torsion [N]-CA--CB-[CG] |==|  0.86543
USER: genes 23 Torsion [CA]-CB--CG-[ND1] |==|  0.84284
USER: genes 24 Torsion [N]-CA--C-[O] |==|  0.38167
USER: genes 25 Torsion [N]-CA--CB-[CG] |==|  0.49676
USER: genes 26 Torsion [CA]-CB--CG-[CD2] |==|  0.18177
ROOT
ATOM      1  CA  PHE A   4      65.432  46.983 110.808  1.00  8.73 LIG 0.18  C 
ENDROOT
BRANCH 1 2
ATOM      2  N   PHE A   4      65.783  48.304 110.306  1.00  8.80 LIG-0.35  N 
ATOM      3  C   GLU A   3      66.150  48.483 109.042  1.00  9.88 LIG 0.24  C 
ATOM      4 O    GLU A   3      66.229  47.542 108.238  1.00 11.78 LIG-0.27  OA
ATOM      5 H    PHE A   4      65.731  48.934 110.889  1.00  8.80 LIG 0.16  HD
BRANCH 3 6
ATOM      6  CA  GLU A   3      66.534  49.911 108.622  1.00  9.13 LIG 0.18  C 
BRANCH 6 7
ATOM      7  N   GLU A   3      66.803  50.062 107.185  1.00  7.51 LIG-0.35  N 
ATOM      8  C   ALA A   2      67.881  50.714 106.755  1.00 12.24 LIG 0.24  C 
ATOM      9 O    ALA A   2      68.722  51.189 107.537  1.00 10.29 LIG-0.27  OA
ATOM     10 H    GLU A   3      66.217  49.701 106.670  1.00  7.51 LIG 0.16  HD
BRANCH 8 11
ATOM     11  CA  ALA A   2      68.056  50.840 105.239  1.00  7.33 LIG 0.17  C 
ATOM     12  CB  ALA A   2      68.274  52.298 104.848  1.00  8.39 LIG 0.04  C 
BRANCH 11 13
ATOM     13  N   ALA A   2      66.943  50.265 104.475  1.00  8.02 LIG-0.35  N 
ATOM     14 H    ALA A   2      67.146  49.556 104.033  1.00  8.02 LIG 0.16  HD
ATOM     15  C   ASP A   1      65.727  50.813 104.478  1.00  8.83 LIG 0.25  C 
ATOM     16 O    ASP A   1      65.452  51.831 105.109  1.00  7.52 LIG-0.27  OA
BRANCH 15 17
ATOM     17  CA  ASP A   1      64.655  50.120 103.649  1.00  7.69 LIG 0.28  C 
BRANCH 17 18
ATOM     18  N   ASP A   1      64.353  50.859 102.388  1.00 12.20 LIG-0.07  N 
ATOM     19 H3   ASP A   1      64.992  50.699 101.789  1.00 12.20 LIG 0.28  HD
ATOM     20 H1   ASP A   1      63.570  50.587 102.065  1.00 12.20 LIG 0.28  HD
ATOM     21 H2   ASP A   1      64.317  51.732 102.557  1.00 12.20 LIG 0.28  HD
ENDBRANCH 17 18
BRANCH 17 22
ATOM     22  CB  ASP A   1      65.119  48.696 103.335  1.00 12.14 LIG 0.15  C 
BRANCH 22 23
ATOM     23  CG  ASP A   1      65.281  47.834 104.584  1.00 11.50 LIG 0.17  C 
ATOM     24 OD2  ASP A   1      64.907  48.332 105.662  1.00  7.11 LIG-0.65  OA
ATOM     25 OD1  ASP A   1      65.753  46.670 104.499  1.00  8.56 LIG-0.65  OA
ENDBRANCH 22 23
ENDBRANCH 17 22
ENDBRANCH 15 17
ENDBRANCH 11 13
ENDBRANCH 8 11
ENDBRANCH 6 7
BRANCH 6 26
ATOM     26  CB  GLU A   3      65.443  50.895 109.074  1.00  8.36 LIG 0.04  C 
BRANCH 26 27
ATOM     27  CG  GLU A   3      64.046  50.656 108.478  1.00  8.75 LIG 0.12  C 
BRANCH 27 28
ATOM     28  CD  GLU A   3      62.922  51.390 109.208  1.00 11.41 LIG 0.17  C 
ATOM     29 OE1  GLU A   3      61.738  51.090 108.955  1.00  7.99 LIG-0.65  OA
ATOM     30 OE2  GLU A   3      63.225  52.267 110.055  1.00 13.12 LIG-0.65  OA
ENDBRANCH 27 28
ENDBRANCH 26 27
ENDBRANCH 6 26
ENDBRANCH 3 6
ENDBRANCH 1 2
BRANCH 1 31
ATOM     31  C   PHE A   4      64.401  46.286 109.915  1.00 10.65 LIG 0.24  C 
ATOM     32  N   ARG A   5      64.649  45.028 109.573  1.00  9.73 LIG-0.35  N 
ATOM     33 H    ARG A   5      65.346  44.590 109.823  1.00  9.73 LIG 0.16  HD
ATOM     34 O    PHE A   4      63.378  46.866 109.581  1.00 11.27 LIG-0.27  OA
BRANCH 32 35
ATOM     35  CA  ARG A   5      63.733  44.272 108.720  1.00 16.16 LIG 0.18  C 
BRANCH 35 36
ATOM     36  CB  ARG A   5      63.752  44.827 107.282  1.00 18.38 LIG 0.04  C 
BRANCH 36 37
ATOM     37  CG  ARG A   5      62.378  45.013 106.623  1.00 17.37 LIG 0.02  C 
BRANCH 37 38
ATOM     38  CD  ARG A   5      62.343  46.235 105.681  1.00 18.74 LIG 0.14  C 
BRANCH 38 39
ATOM     39  NE  ARG A   5      63.028  45.972 104.410  1.00 16.23 LIG-0.23  N 
ATOM     40 HE   ARG A   5      63.626  45.354 104.395  1.00 16.23 LIG 0.18  HD
ATOM     41  CZ  ARG A   5      62.783  46.627 103.282  1.00 23.02 LIG 0.67  C 
ATOM     42  NH2 ARG A   5      63.428  46.309 102.164  1.00 17.77 LIG-0.23  N 
ATOM     43  NH1 ARG A   5      61.887  47.610 103.266  1.00 22.06 LIG-0.23  N 
ATOM     44 1HH2 ARG A   5      64.009  45.675 102.167  1.00 17.77 LIG 0.17  HD
ATOM     45 2HH2 ARG A   5      63.264  46.738 101.436  1.00 17.77 LIG 0.17  HD
ATOM     46 2HH1 ARG A   5      61.728  48.034 102.536  1.00 22.06 LIG 0.17  HD
ATOM     47 1HH1 ARG A   5      61.467  47.820 103.986  1.00 22.06 LIG 0.17  HD
ENDBRANCH 38 39
ENDBRANCH 37 38
ENDBRANCH 36 37
ENDBRANCH 35 36
BRANCH 35 48
ATOM     48  C   ARG A   5      64.090  42.771 108.697  1.00 22.64 LIG 0.24  C 
ATOM     49 O    ARG A   5      63.819  42.047 109.646  1.00 28.37 LIG-0.27  OA
ATOM     50  N   HIS A   6      64.700  42.328 107.606  1.00 30.17 LIG-0.35  N 
ATOM     51 H    HIS A   6      65.021  42.852 107.004  1.00 30.17 LIG 0.16  HD
BRANCH 50 52
ATOM     52  CA  HIS A   6      64.893  40.909 107.307  1.00 40.98 LIG 0.17  C 
BRANCH 52 53
ATOM     53  CB  HIS A   6      63.823  40.412 106.302  1.00 38.64 LIG 0.09  C 
BRANCH 53 54
ATOM     54  CG  HIS A   6      62.410  40.791 106.646  1.00 38.02 LIG 0.06  A 
ATOM     55 ND1  HIS A   6      61.826  40.457 107.852  1.00 51.26 LIG-0.24  NA
ATOM     56  CE1 HIS A   6      60.587  40.918 107.887  1.00 35.95 LIG 0.23  A 
ATOM     57 NE2  HIS A   6      60.344  41.541 106.747  1.00 45.10 LIG-0.25  NA
ATOM     58  CD2 HIS A   6      61.466  41.472 105.952  1.00 36.38 LIG 0.14  A 
ENDBRANCH 53 54
ENDBRANCH 52 53
BRANCH 52 59
ATOM     59  C   HIS A   6      66.271  40.710 106.688  1.00 40.61 LIG 0.22  C 
ATOM     60 O    HIS A   6      66.975  39.756 107.038  1.00 40.83 LIG-0.29  OA
ENDBRANCH 52 59
ENDBRANCH 50 52
ENDBRANCH 35 48
ENDBRANCH 32 35
ENDBRANCH 1 31
BRANCH 1 61
ATOM     61  CB  PHE A   4      64.929  47.070 112.257  1.00  8.88 LIG 0.07  C 
BRANCH 61 62
ATOM     62  CG  PHE A   4      64.521  45.738 112.830  1.00  5.46 LIG-0.06  A 
ATOM     63  CD2 PHE A   4      65.459  44.733 113.035  1.00  6.98 LIG 0.01  A 
ATOM     64  CE2 PHE A   4      65.073  43.497 113.562  1.00  8.89 LIG 0.00  A 
ATOM     65  CZ  PHE A   4      63.736  43.269 113.881  1.00  4.47 LIG 0.00  A 
ATOM     66  CE1 PHE A   4      62.802  44.261 113.683  1.00  8.64 LIG 0.00  A 
ATOM     67  CD1 PHE A   4      63.192  45.487 113.146  1.00  9.90 LIG 0.01  A 
ENDBRANCH 61 62
ENDBRANCH 1 61
TORSDOF 25
ENDMDL
MODEL 5
USER: ADFR SOLUTION from run 175
USER: SCORE 23.428531 LL:  -5.338 LR: -19.567 RR:   0.000 FEB: -12.110
USER: RMSD 6.381321
USER: SEED 174
USER: STATUS 1 or 2 clusters left
USER: GENES 27
USER: genes 0 Translation |==|  0.41079 0.40376 0.39150
USER: genes 1 Rotation |==|  0.37242 0.97535 0.41810 0.53252
USER: genes 2 Torsion [C]-CA--N-[C] |==|  0.55017
USER: genes 3 Torsion [N]-C--CA-[N] |==|  0.03349
USER: genes 4 Torsion [C]-CA--N-[C] |==|  0.21899
USER: genes 5 Torsion [N]-C--CA-[N] |==|  0.92711
USER: genes 6 Torsion [C]-CA--N-[C] |==|  0.77222
USER: genes 7 Torsion [N]-C--CA-[N] |==|  0.88020
USER: genes 8 Torsion [C]-CA--N-[H1] |==|  0.25285
USER: genes 9 Torsion [C]-CA--CB-[CG] |==|  0.51764
USER: genes 10 Torsion [CA]-CB--CG-[OD2] |==|  0.69795
USER: genes 11 Torsion [C]-CA--CB-[CG] |==|  0.16471
USER: genes 12 Torsion [CA]-CB--CG-[CD] |==|  0.49651
USER: genes 13 Torsion [CB]-CG--CD-[OE1] |==|  0.62538
USER: genes 14 Torsion [N]-CA--C-[N] |==|  0.43034
USER: genes 15 Torsion [C]-N--CA-[CB] |==|  0.19314
USER: genes 16 Torsion [N]-CA--CB-[CG] |==|  0.21374
USER: genes 17 Torsion [CA]-CB--CG-[CD] |==|  0.67623
USER: genes 18 Torsion [CB]-CG--CD-[NE] |==|  0.35879
USER: genes 19 Torsion [CG]-CD--NE-[HE] |==|  0.18719
USER: genes 20 Torsion [N]-CA--C-[N] |==|  0.88175
USER: genes 21 Torsion [C]-N--CA-[CB] |==|  0.47725
USER: genes 22 Torsion [N]-CA--CB-[CG] |==|  0.74421
USER: genes 23 Torsion [CA]-CB--CG-[ND1] |==|  0.10061
USER: genes 24 Torsion [N]-CA--C-[O] |==|  0.98190
USER: genes 25 Torsion [N]-CA--CB-[CG] |==|  0.09104
USER: genes 26 Torsion [CA]-CB--CG-[CD2] |==|  0.63258
ROOT
ATOM      1  CA  PHE A   4      61.314  43.830 106.047  1.00  8.73 LIG 0.18  C 
ENDROOT
BRANCH 1 2
ATOM      2  N   PHE A   4      62.414  43.884 106.998  1.00  8.80 LIG-0.35  N 
ATOM      3  C   GLU A   3      63.552  43.236 106.771  1.00  9.88 LIG 0.24  C 
ATOM      4 O    GLU A   3      63.725  42.545 105.756  1.00 11.78 LIG-0.27  OA
ATOM      5 H    PHE A   4      62.260  44.360 107.698  1.00  8.80 LIG 0.16  HD
BRANCH 3 6
ATOM      6  CA  GLU A   3      64.637  43.329 107.856  1.00  9.13 LIG 0.18  C 
BRANCH 6 7
ATOM      7  N   GLU A   3      64.166  43.896 109.127  1.00  7.51 LIG-0.35  N 
ATOM      8  C   ALA A   2      63.474  43.157 109.992  1.00 12.24 LIG 0.24  C 
ATOM      9 O    ALA A   2      63.227  41.956 109.786  1.00 10.29 LIG-0.27  OA
ATOM     10 H    GLU A   3      64.374  44.721 109.253  1.00  7.51 LIG 0.16  HD
BRANCH 8 11
ATOM     11  CA  ALA A   2      63.005  43.848 111.275  1.00  7.33 LIG 0.17  C 
ATOM     12  CB  ALA A   2      61.550  44.288 111.141  1.00  8.39 LIG 0.04  C 
BRANCH 11 13
ATOM     13  N   ALA A   2      63.849  44.983 111.668  1.00  8.02 LIG-0.35  N 
ATOM     14 H    ALA A   2      63.543  45.750 111.429  1.00  8.02 LIG 0.16  HD
ATOM     15  C   ASP A   1      64.990  44.816 112.337  1.00  8.83 LIG 0.25  C 
ATOM     16 O    ASP A   1      65.419  43.712 112.666  1.00  7.52 LIG-0.27  OA
BRANCH 15 17
ATOM     17  CA  ASP A   1      65.773  46.072 112.691  1.00  7.69 LIG 0.28  C 
BRANCH 17 18
ATOM     18  N   ASP A   1      65.830  47.039 111.556  1.00 12.20 LIG-0.07  N 
ATOM     19 H3   ASP A   1      65.786  46.596 110.786  1.00 12.20 LIG 0.28  HD
ATOM     20 H1   ASP A   1      65.144  47.604 111.613  1.00 12.20 LIG 0.28  HD
ATOM     21 H2   ASP A   1      66.593  47.496 111.593  1.00 12.20 LIG 0.28  HD
ENDBRANCH 17 18
BRANCH 17 22
ATOM     22  CB  ASP A   1      65.131  46.724 113.917  1.00 12.14 LIG 0.15  C 
BRANCH 22 23
ATOM     23  CG  ASP A   1      65.748  48.077 114.263  1.00 11.50 LIG 0.17  C 
ATOM     24 OD2  ASP A   1      66.453  48.127 115.288  1.00  7.11 LIG-0.65  OA
ATOM     25 OD1  ASP A   1      65.556  49.074 113.519  1.00  8.56 LIG-0.65  OA
ENDBRANCH 22 23
ENDBRANCH 17 22
ENDBRANCH 15 17
ENDBRANCH 11 13
ENDBRANCH 8 11
ENDBRANCH 6 7
BRANCH 6 26
ATOM     26  CB  GLU A   3      65.263  41.943 108.081  1.00  8.36 LIG 0.04  C 
BRANCH 26 27
ATOM     27  CG  GLU A   3      65.923  41.305 106.847  1.00  8.75 LIG 0.12  C 
BRANCH 27 28
ATOM     28  CD  GLU A   3      66.561  39.943 107.116  1.00 11.41 LIG 0.17  C 
ATOM     29 OE1  GLU A   3      67.699  39.707 106.663  1.00  7.99 LIG-0.65  OA
ATOM     30 OE2  GLU A   3      65.924  39.102 107.799  1.00 13.12 LIG-0.65  OA
ENDBRANCH 27 28
ENDBRANCH 26 27
ENDBRANCH 6 26
ENDBRANCH 3 6
ENDBRANCH 1 2
BRANCH 1 31
ATOM     31  C   PHE A   4      60.308  44.964 106.270  1.00 10.65 LIG 0.24  C 
ATOM     32  N   ARG A   5      59.580  45.340 105.226  1.00  9.73 LIG-0.35  N 
ATOM     33 H    ARG A   5      59.640  44.985 104.444  1.00  9.73 LIG 0.16  HD
ATOM     34 O    PHE A   4      60.164  45.456 107.380  1.00 11.27 LIG-0.27  OA
BRANCH 32 35
ATOM     35  CA  ARG A   5      58.594  46.416 105.328  1.00 16.16 LIG 0.18  C 
BRANCH 35 36
ATOM     36  CB  ARG A   5      59.295  47.775 105.517  1.00 18.38 LIG 0.04  C 
BRANCH 36 37
ATOM     37  CG  ARG A   5      59.917  48.384 104.253  1.00 17.37 LIG 0.02  C 
BRANCH 37 38
ATOM     38  CD  ARG A   5      61.450  48.517 104.361  1.00 18.74 LIG 0.14  C 
BRANCH 38 39
ATOM     39  NE  ARG A   5      62.139  47.937 103.203  1.00 16.23 LIG-0.23  N 
ATOM     40 HE   ARG A   5      62.040  48.324 102.441  1.00 16.23 LIG 0.18  HD
ATOM     41  CZ  ARG A   5      62.906  46.855 103.255  1.00 23.02 LIG 0.67  C 
ATOM     42  NH2 ARG A   5      63.519  46.409 102.163  1.00 17.77 LIG-0.23  N 
ATOM     43  NH1 ARG A   5      63.063  46.209 104.407  1.00 22.06 LIG-0.23  N 
ATOM     44 1HH2 ARG A   5      63.420  46.823 101.415  1.00 17.77 LIG 0.17  HD
ATOM     45 2HH2 ARG A   5      64.014  45.707 102.204  1.00 17.77 LIG 0.17  HD
ATOM     46 2HH1 ARG A   5      63.560  45.508 104.442  1.00 22.06 LIG 0.17  HD
ATOM     47 1HH1 ARG A   5      62.669  46.493 105.116  1.00 22.06 LIG 0.17  HD
ENDBRANCH 38 39
ENDBRANCH 37 38
ENDBRANCH 36 37
ENDBRANCH 35 36
BRANCH 35 48
ATOM     48  C   ARG A   5      57.688  46.473 104.080  1.00 22.64 LIG 0.24  C 
ATOM     49 O    ARG A   5      56.481  46.645 104.189  1.00 28.37 LIG-0.27  OA
ATOM     50  N   HIS A   6      58.290  46.323 102.909  1.00 30.17 LIG-0.35  N 
ATOM     51 H    HIS A   6      59.105  46.059 102.833  1.00 30.17 LIG 0.16  HD
BRANCH 50 52
ATOM     52  CA  HIS A   6      57.640  46.587 101.626  1.00 40.98 LIG 0.17  C 
BRANCH 52 53
ATOM     53  CB  HIS A   6      58.667  46.515 100.467  1.00 38.64 LIG 0.09  C 
BRANCH 53 54
ATOM     54  CG  HIS A   6      59.305  47.827 100.107  1.00 38.02 LIG 0.06  A 
ATOM     55 ND1  HIS A   6      59.622  48.781 101.055  1.00 51.26 LIG-0.24  NA
ATOM     56  CE1 HIS A   6      60.173  49.827 100.462  1.00 35.95 LIG 0.23  A 
ATOM     57 NE2  HIS A   6      60.228  49.587  99.163  1.00 45.10 LIG-0.25  NA
ATOM     58  CD2 HIS A   6      59.688  48.345  98.915  1.00 36.38 LIG 0.14  A 
ENDBRANCH 53 54
ENDBRANCH 52 53
BRANCH 52 59
ATOM     59  C   HIS A   6      56.561  45.538 101.385  1.00 40.61 LIG 0.22  C 
ATOM     60 O    HIS A   6      56.442  44.582 102.161  1.00 40.83 LIG-0.29  OA
ENDBRANCH 52 59
ENDBRANCH 50 52
ENDBRANCH 35 48
ENDBRANCH 32 35
ENDBRANCH 1 31
BRANCH 1 61
ATOM     61  CB  PHE A   4      60.616  42.463 106.102  1.00  8.88 LIG 0.07  C 
BRANCH 61 62
ATOM     62  CG  PHE A   4      60.616  41.844 107.475  1.00  5.46 LIG-0.06  A 
ATOM     63  CD2 PHE A   4      60.986  40.517 107.658  1.00  6.98 LIG 0.01  A 
ATOM     64  CE2 PHE A   4      60.978  39.946 108.935  1.00  8.89 LIG 0.00  A 
ATOM     65  CZ  PHE A   4      60.592  40.714 110.033  1.00  4.47 LIG 0.00  A 
ATOM     66  CE1 PHE A   4      60.228  42.030 109.858  1.00  8.64 LIG 0.00  A 
ATOM     67  CD1 PHE A   4      60.227  42.589 108.581  1.00  9.90 LIG 0.01  A 
ENDBRANCH 61 62
ENDBRANCH 1 61
TORSDOF 25
ENDMDL
MODEL 6
USER: ADFR SOLUTION from run 126
USER: SCORE 23.804571 LL:  -5.539 LR: -19.505 RR:   0.000 FEB: -12.047
USER: RMSD 7.189027
USER: SEED 125
USER: STATUS no improvement in best in 3 clusters for 5 generations
USER: GENES 27
USER: genes 0 Translation |==|  0.66309 0.55639 0.67942
USER: genes 1 Rotation |==|  0.40532 0.71420 0.06184 0.55629
USER: genes 2 Torsion [C]-CA--N-[C] |==|  0.64227
USER: genes 3 Torsion [N]-C--CA-[N] |==|  0.89850
USER: genes 4 Torsion [C]-CA--N-[C] |==|  0.86094
USER: genes 5 Torsion [N]-C--CA-[N] |==|  0.52623
USER: genes 6 Torsion [C]-CA--N-[C] |==|  0.58544
USER: genes 7 Torsion [N]-C--CA-[N] |==|  0.44600
USER: genes 8 Torsion [C]-CA--N-[H1] |==|  0.55904
USER: genes 9 Torsion [C]-CA--CB-[CG] |==|  0.74710
USER: genes 10 Torsion [CA]-CB--CG-[OD2] |==|  0.04269
USER: genes 11 Torsion [C]-CA--CB-[CG] |==|  0.02297
USER: genes 12 Torsion [CA]-CB--CG-[CD] |==|  0.66392
USER: genes 13 Torsion [CB]-CG--CD-[OE1] |==|  0.57736
USER: genes 14 Torsion [N]-CA--C-[N] |==|  0.89614
USER: genes 15 Torsion [C]-N--CA-[CB] |==|  0.86111
USER: genes 16 Torsion [N]-CA--CB-[CG] |==|  0.47906
USER: genes 17 Torsion [CA]-CB--CG-[CD] |==|  0.34484
USER: genes 18 Torsion [CB]-CG--CD-[NE] |==|  0.75005
USER: genes 19 Torsion [CG]-CD--NE-[HE] |==|  0.25193
USER: genes 20 Torsion [N]-CA--C-[N] |==|  0.86573
USER: genes 21 Torsion [C]-N--CA-[CB] |==|  0.29604
USER: genes 22 Torsion [N]-CA--CB-[CG] |==|  0.46065
USER: genes 23 Torsion [CA]-CB--CG-[ND1] |==|  0.74593
USER: genes 24 Torsion [N]-CA--C-[O] |==|  0.05343
USER: genes 25 Torsion [N]-CA--CB-[CG] |==|  0.57569
USER: genes 26 Torsion [CA]-CB--CG-[CD2] |==|  0.54702
ROOT
ATOM      1  CA  PHE A   4      65.666  46.807 111.662  1.00  8.73 LIG 0.18  C 
ENDROOT
BRANCH 1 2
ATOM      2  N   PHE A   4      66.262  48.134 111.672  1.00  8.80 LIG-0.35  N 
ATOM      3  C   GLU A   3      67.477  48.338 112.170  1.00  9.88 LIG 0.24  C 
ATOM      4 O    GLU A   3      68.150  47.421 112.663  1.00 11.78 LIG-0.27  OA
ATOM      5 H    PHE A   4      65.767  48.752 111.336  1.00  8.80 LIG 0.16  HD
BRANCH 3 6
ATOM      6  CA  GLU A   3      67.999  49.784 112.166  1.00  9.13 LIG 0.18  C 
BRANCH 6 7
ATOM      7  N   GLU A   3      67.599  50.562 110.985  1.00  7.51 LIG-0.35  N 
ATOM      8  C   ALA A   2      67.775  50.081 109.757  1.00 12.24 LIG 0.24  C 
ATOM      9 O    ALA A   2      68.245  48.949 109.552  1.00 10.29 LIG-0.27  OA
ATOM     10 H    GLU A   3      67.254  51.330 111.160  1.00  7.51 LIG 0.16  HD
BRANCH 8 11
ATOM     11  CA  ALA A   2      67.351  50.980 108.593  1.00  7.33 LIG 0.17  C 
ATOM     12  CB  ALA A   2      65.975  51.582 108.858  1.00  8.39 LIG 0.04  C 
BRANCH 11 13
ATOM     13  N   ALA A   2      67.370  50.299 107.293  1.00  8.02 LIG-0.35  N 
ATOM     14 H    ALA A   2      67.200  49.457 107.333  1.00  8.02 LIG 0.16  HD
ATOM     15  C   ASP A   1      67.631  50.949 106.158  1.00  8.83 LIG 0.25  C 
ATOM     16 O    ASP A   1      67.880  52.152 106.117  1.00  7.52 LIG-0.27  OA
BRANCH 15 17
ATOM     17  CA  ASP A   1      67.616  50.132 104.875  1.00  7.69 LIG 0.28  C 
BRANCH 17 18
ATOM     18  N   ASP A   1      67.455  50.987 103.663  1.00 12.20 LIG-0.07  N 
ATOM     19 H3   ASP A   1      68.243  51.336 103.439  1.00 12.20 LIG 0.28  HD
ATOM     20 H1   ASP A   1      67.148  50.494 102.990  1.00 12.20 LIG 0.28  HD
ATOM     21 H2   ASP A   1      66.879  51.644 103.837  1.00 12.20 LIG 0.28  HD
ENDBRANCH 17 18
BRANCH 17 22
ATOM     22  CB  ASP A   1      68.913  49.324 104.790  1.00 12.14 LIG 0.15  C 
BRANCH 22 23
ATOM     23  CG  ASP A   1      70.026  50.062 104.051  1.00 11.50 LIG 0.17  C 
ATOM     24 OD2  ASP A   1      69.871  51.285 103.878  1.00  7.11 LIG-0.65  OA
ATOM     25 OD1  ASP A   1      71.053  49.445 103.663  1.00  8.56 LIG-0.65  OA
ENDBRANCH 22 23
ENDBRANCH 17 22
ENDBRANCH 15 17
ENDBRANCH 11 13
ENDBRANCH 8 11
ENDBRANCH 6 7
BRANCH 6 26
ATOM     26  CB  GLU A   3      67.561  50.496 113.457  1.00  8.36 LIG 0.04  C 
BRANCH 26 27
ATOM     27  CG  GLU A   3      66.905  49.599 114.519  1.00  8.75 LIG 0.12  C 
BRANCH 27 28
ATOM     28  CD  GLU A   3      65.485  50.018 114.899  1.00 11.41 LIG 0.17  C 
ATOM     29 OE1  GLU A   3      65.059  49.749 116.039  1.00  7.99 LIG-0.65  OA
ATOM     30 OE2  GLU A   3      64.792  50.636 114.052  1.00 13.12 LIG-0.65  OA
ENDBRANCH 27 28
ENDBRANCH 26 27
ENDBRANCH 6 26
ENDBRANCH 3 6
ENDBRANCH 1 2
BRANCH 1 31
ATOM     31  C   PHE A   4      65.142  46.425 110.274  1.00 10.65 LIG 0.24  C 
ATOM     32  N   ARG A   5      64.582  47.388 109.553  1.00  9.73 LIG-0.35  N 
ATOM     33 H    ARG A   5      64.502  48.203 109.817  1.00  9.73 LIG 0.16  HD
ATOM     34 O    PHE A   4      65.284  45.287 109.849  1.00 11.27 LIG-0.27  OA
BRANCH 32 35
ATOM     35  CA  ARG A   5      64.045  47.130 108.217  1.00 16.16 LIG 0.18  C 
BRANCH 35 36
ATOM     36  CB  ARG A   5      65.080  46.385 107.353  1.00 18.38 LIG 0.04  C 
BRANCH 36 37
ATOM     37  CG  ARG A   5      64.577  45.894 105.988  1.00 17.37 LIG 0.02  C 
BRANCH 37 38
ATOM     38  CD  ARG A   5      65.439  46.425 104.823  1.00 18.74 LIG 0.14  C 
BRANCH 38 39
ATOM     39  NE  ARG A   5      64.944  47.707 104.310  1.00 16.23 LIG-0.23  N 
ATOM     40 HE   ARG A   5      65.258  48.429 104.658  1.00 16.23 LIG 0.18  HD
ATOM     41  CZ  ARG A   5      64.044  47.826 103.342  1.00 23.02 LIG 0.67  C 
ATOM     42  NH2 ARG A   5      63.668  49.027 102.913  1.00 17.77 LIG-0.23  N 
ATOM     43  NH1 ARG A   5      63.511  46.737 102.795  1.00 22.06 LIG-0.23  N 
ATOM     44 1HH2 ARG A   5      64.009  49.735 103.263  1.00 17.77 LIG 0.17  HD
ATOM     45 2HH2 ARG A   5      63.084  49.096 102.285  1.00 17.77 LIG 0.17  HD
ATOM     46 2HH1 ARG A   5      62.928  46.812 102.168  1.00 22.06 LIG 0.17  HD
ATOM     47 1HH1 ARG A   5      63.750  45.958 103.068  1.00 22.06 LIG 0.17  HD
ENDBRANCH 38 39
ENDBRANCH 37 38
ENDBRANCH 36 37
ENDBRANCH 35 36
BRANCH 35 48
ATOM     48  C   ARG A   5      62.740  46.307 108.282  1.00 22.64 LIG 0.24  C 
ATOM     49 O    ARG A   5      61.749  46.653 107.653  1.00 28.37 LIG-0.27  OA
ATOM     50  N   HIS A   6      62.764  45.227 109.050  1.00 30.17 LIG-0.35  N 
ATOM     51 H    HIS A   6      63.402  45.060 109.602  1.00 30.17 LIG 0.16  HD
BRANCH 50 52
ATOM     52  CA  HIS A   6      61.716  44.207 109.043  1.00 40.98 LIG 0.17  C 
BRANCH 52 53
ATOM     53  CB  HIS A   6      62.210  42.920 108.334  1.00 38.64 LIG 0.09  C 
BRANCH 53 54
ATOM     54  CG  HIS A   6      61.351  41.707 108.558  1.00 38.02 LIG 0.06  A 
ATOM     55 ND1  HIS A   6      61.579  40.819 109.591  1.00 51.26 LIG-0.24  NA
ATOM     56  CE1 HIS A   6      60.675  39.854 109.553  1.00 35.95 LIG 0.23  A 
ATOM     57 NE2  HIS A   6      59.866  40.084 108.533  1.00 45.10 LIG-0.25  NA
ATOM     58  CD2 HIS A   6      60.270  41.234 107.892  1.00 36.38 LIG 0.14  A 
ENDBRANCH 53 54
ENDBRANCH 52 53
BRANCH 52 59
ATOM     59  C   HIS A   6      61.345  43.859 110.479  1.00 40.61 LIG 0.22  C 
ATOM     60 O    HIS A   6      61.631  44.636 111.398  1.00 40.83 LIG-0.29  OA
ENDBRANCH 52 59
ENDBRANCH 50 52
ENDBRANCH 35 48
ENDBRANCH 32 35
ENDBRANCH 1 31
BRANCH 1 61
ATOM     61  CB  PHE A   4      64.550  46.705 112.713  1.00  8.88 LIG 0.07  C 
BRANCH 61 62
ATOM     62  CG  PHE A   4      64.336  45.305 113.226  1.00  5.46 LIG-0.06  A 
ATOM     63  CD2 PHE A   4      63.168  44.964 113.899  1.00  6.98 LIG 0.01  A 
ATOM     64  CE2 PHE A   4      62.978  43.664 114.378  1.00  8.89 LIG 0.00  A 
ATOM     65  CZ  PHE A   4      63.970  42.704 114.184  1.00  4.47 LIG 0.00  A 
ATOM     66  CE1 PHE A   4      65.127  43.035 113.516  1.00  8.64 LIG 0.00  A 
ATOM     67  CD1 PHE A   4      65.315  44.335 113.051  1.00  9.90 LIG 0.01  A 
ENDBRANCH 61 62
ENDBRANCH 1 61
TORSDOF 25
ENDMDL
MODEL 7
USER: ADFR SOLUTION from run 42
USER: SCORE 25.336001 LL:  -6.517 LR: -19.478 RR:   0.000 FEB: -12.021
USER: RMSD 5.536330
USER: SEED 41
USER: STATUS no improvement in best in 2 clusters for 5 generations
USER: GENES 27
USER: genes 0 Translation |==|  0.40363 0.45574 0.59689
USER: genes 1 Rotation |==|  0.53171 0.19722 0.42376 0.88924
USER: genes 2 Torsion [C]-CA--N-[C] |==|  0.66588
USER: genes 3 Torsion [N]-C--CA-[N] |==|  0.89515
USER: genes 4 Torsion [C]-CA--N-[C] |==|  0.86643
USER: genes 5 Torsion [N]-C--CA-[N] |==|  0.96413
USER: genes 6 Torsion [C]-CA--N-[C] |==|  0.83483
USER: genes 7 Torsion [N]-C--CA-[N] |==|  0.17187
USER: genes 8 Torsion [C]-CA--N-[H1] |==|  0.44756
USER: genes 9 Torsion [C]-CA--CB-[CG] |==|  0.51944
USER: genes 10 Torsion [CA]-CB--CG-[OD2] |==|  0.58925
USER: genes 11 Torsion [C]-CA--CB-[CG] |==|  0.94781
USER: genes 12 Torsion [CA]-CB--CG-[CD] |==|  0.73110
USER: genes 13 Torsion [CB]-CG--CD-[OE1] |==|  0.91518
USER: genes 14 Torsion [N]-CA--C-[N] |==|  0.92074
USER: genes 15 Torsion [C]-N--CA-[CB] |==|  0.83131
USER: genes 16 Torsion [N]-CA--CB-[CG] |==|  0.63411
USER: genes 17 Torsion [CA]-CB--CG-[CD] |==|  0.10912
USER: genes 18 Torsion [CB]-CG--CD-[NE] |==|  0.34065
USER: genes 19 Torsion [CG]-CD--NE-[HE] |==|  0.92782
USER: genes 20 Torsion [N]-CA--C-[N] |==|  0.37803
USER: genes 21 Torsion [C]-N--CA-[CB] |==|  0.52058
USER: genes 22 Torsion [N]-CA--CB-[CG] |==|  0.15916
USER: genes 23 Torsion [CA]-CB--CG-[ND1] |==|  0.84410
USER: genes 24 Torsion [N]-CA--C-[O] |==|  0.65770
USER: genes 25 Torsion [N]-CA--CB-[CG] |==|  0.30127
USER: genes 26 Torsion [CA]-CB--CG-[CD2] |==|  0.77100
ROOT
ATOM      1  CA  PHE A   4      61.191  44.844 110.052  1.00  8.73 LIG 0.18  C 
ENDROOT
BRANCH 1 2
ATOM      2  N   PHE A   4      61.493  44.353 108.716  1.00  8.80 LIG-0.35  N 
ATOM      3  C   GLU A   3      60.605  44.444 107.733  1.00  9.88 LIG 0.24  C 
ATOM      4 O    GLU A   3      59.477  44.931 107.906  1.00 11.78 LIG-0.27  OA
ATOM      5 H    PHE A   4      62.277  44.010 108.630  1.00  8.80 LIG 0.16  HD
BRANCH 3 6
ATOM      6  CA  GLU A   3      61.011  43.863 106.369  1.00  9.13 LIG 0.18  C 
BRANCH 6 7
ATOM      7  N   GLU A   3      62.423  44.078 106.022  1.00  7.51 LIG-0.35  N 
ATOM      8  C   ALA A   2      62.983  45.279 106.148  1.00 12.24 LIG 0.24  C 
ATOM      9 O    ALA A   2      62.358  46.256 106.593  1.00 10.29 LIG-0.27  OA
ATOM     10 H    GLU A   3      62.835  43.378 105.742  1.00  7.51 LIG 0.16  HD
BRANCH 8 11
ATOM     11  CA  ALA A   2      64.452  45.405 105.735  1.00  7.33 LIG 0.17  C 
ATOM     12  CB  ALA A   2      64.580  46.264 104.481  1.00  8.39 LIG 0.04  C 
BRANCH 11 13
ATOM     13  N   ALA A   2      65.116  44.110 105.539  1.00  8.02 LIG-0.35  N 
ATOM     14 H    ALA A   2      65.431  43.991 104.748  1.00  8.02 LIG 0.16  HD
ATOM     15  C   ASP A   1      65.211  43.210 106.518  1.00  8.83 LIG 0.25  C 
ATOM     16 O    ASP A   1      64.750  43.391 107.643  1.00  7.52 LIG-0.27  OA
BRANCH 15 17
ATOM     17  CA  ASP A   1      65.927  41.908 106.191  1.00  7.69 LIG 0.28  C 
BRANCH 17 18
ATOM     18  N   ASP A   1      67.353  42.127 105.813  1.00 12.20 LIG-0.07  N 
ATOM     19 H3   ASP A   1      67.711  42.742 106.348  1.00 12.20 LIG 0.28  HD
ATOM     20 H1   ASP A   1      67.803  41.364 105.896  1.00 12.20 LIG 0.28  HD
ATOM     21 H2   ASP A   1      67.397  42.407 104.969  1.00 12.20 LIG 0.28  HD
ENDBRANCH 17 18
BRANCH 17 22
ATOM     22  CB  ASP A   1      65.833  40.977 107.402  1.00 12.14 LIG 0.15  C 
BRANCH 22 23
ATOM     23  CG  ASP A   1      66.665  39.707 107.242  1.00 11.50 LIG 0.17  C 
ATOM     24 OD2  ASP A   1      66.228  38.677 107.788  1.00  7.11 LIG-0.65  OA
ATOM     25 OD1  ASP A   1      67.728  39.722 106.567  1.00  8.56 LIG-0.65  OA
ENDBRANCH 22 23
ENDBRANCH 17 22
ENDBRANCH 15 17
ENDBRANCH 11 13
ENDBRANCH 8 11
ENDBRANCH 6 7
BRANCH 6 26
ATOM     26  CB  GLU A   3      60.664  42.366 106.320  1.00  8.36 LIG 0.04  C 
BRANCH 26 27
ATOM     27  CG  GLU A   3      60.444  41.691 107.685  1.00  8.75 LIG 0.12  C 
BRANCH 27 28
ATOM     28  CD  GLU A   3      61.673  40.960 108.224  1.00 11.41 LIG 0.17  C 
ATOM     29 OE1  GLU A   3      62.480  40.457 107.417  1.00  7.99 LIG-0.65  OA
ATOM     30 OE2  GLU A   3      61.840  40.898 109.467  1.00 13.12 LIG-0.65  OA
ENDBRANCH 27 28
ENDBRANCH 26 27
ENDBRANCH 6 26
ENDBRANCH 3 6
ENDBRANCH 1 2
BRANCH 1 31
ATOM     31  C   PHE A   4      62.170  45.935 110.498  1.00 10.65 LIG 0.24  C 
ATOM     32  N   ARG A   5      63.395  45.893 109.989  1.00  9.73 LIG-0.35  N 
ATOM     33 H    ARG A   5      63.663  45.297 109.429  1.00  9.73 LIG 0.16  HD
ATOM     34 O    PHE A   4      61.805  46.823 111.255  1.00 11.27 LIG-0.27  OA
BRANCH 32 35
ATOM     35  CA  ARG A   5      64.408  46.883 110.351  1.00 16.16 LIG 0.18  C 
BRANCH 35 36
ATOM     36  CB  ARG A   5      63.947  48.298 109.954  1.00 18.38 LIG 0.04  C 
BRANCH 36 37
ATOM     37  CG  ARG A   5      64.976  49.143 109.190  1.00 17.37 LIG 0.02  C 
BRANCH 37 38
ATOM     38  CD  ARG A   5      65.774  48.307 108.168  1.00 18.74 LIG 0.14  C 
BRANCH 38 39
ATOM     39  NE  ARG A   5      65.651  48.836 106.805  1.00 16.23 LIG-0.23  N 
ATOM     40 HE   ARG A   5      64.946  49.289 106.610  1.00 16.23 LIG 0.18  HD
ATOM     41  CZ  ARG A   5      66.559  48.662 105.852  1.00 23.02 LIG 0.67  C 
ATOM     42  NH2 ARG A   5      66.386  49.199 104.649  1.00 17.77 LIG-0.23  N 
ATOM     43  NH1 ARG A   5      67.651  47.944 106.100  1.00 22.06 LIG-0.23  N 
ATOM     44 1HH2 ARG A   5      65.681  49.664 104.482  1.00 17.77 LIG 0.17  HD
ATOM     45 2HH2 ARG A   5      66.978  49.082 104.036  1.00 17.77 LIG 0.17  HD
ATOM     46 2HH1 ARG A   5      68.239  47.831 105.484  1.00 22.06 LIG 0.17  HD
ATOM     47 1HH1 ARG A   5      67.768  47.594 106.876  1.00 22.06 LIG 0.17  HD
ENDBRANCH 38 39
ENDBRANCH 37 38
ENDBRANCH 36 37
ENDBRANCH 35 36
BRANCH 35 48
ATOM     48  C   ARG A   5      64.718  46.847 111.863  1.00 22.64 LIG 0.24  C 
ATOM     49 O    ARG A   5      63.816  46.772 112.687  1.00 28.37 LIG-0.27  OA
ATOM     50  N   HIS A   6      65.999  46.907 112.202  1.00 30.17 LIG-0.35  N 
ATOM     51 H    HIS A   6      66.622  47.106 111.643  1.00 30.17 LIG 0.16  HD
BRANCH 50 52
ATOM     52  CA  HIS A   6      66.490  46.645 113.554  1.00 40.98 LIG 0.17  C 
BRANCH 52 53
ATOM     53  CB  HIS A   6      68.000  46.978 113.661  1.00 38.64 LIG 0.09  C 
BRANCH 53 54
ATOM     54  CG  HIS A   6      68.363  48.391 113.298  1.00 38.02 LIG 0.06  A 
ATOM     55 ND1  HIS A   6      68.040  48.946 112.076  1.00 51.26 LIG-0.24  NA
ATOM     56  CE1 HIS A   6      68.474  50.196 112.029  1.00 35.95 LIG 0.23  A 
ATOM     57 NE2  HIS A   6      69.065  50.472 113.179  1.00 45.10 LIG-0.25  NA
ATOM     58  CD2 HIS A   6      69.013  49.359 113.988  1.00 36.38 LIG 0.14  A 
ENDBRANCH 53 54
ENDBRANCH 52 53
BRANCH 52 59
ATOM     59  C   HIS A   6      65.729  47.521 114.542  1.00 40.61 LIG 0.22  C 
ATOM     60 O    HIS A   6      66.344  48.292 115.288  1.00 40.83 LIG-0.29  OA
ENDBRANCH 52 59
ENDBRANCH 50 52
ENDBRANCH 35 48
ENDBRANCH 32 35
ENDBRANCH 1 31
BRANCH 1 61
ATOM     61  CB  PHE A   4      61.168  43.687 111.063  1.00  8.88 LIG 0.07  C 
BRANCH 61 62
ATOM     62  CG  PHE A   4      62.343  43.690 112.005  1.00  5.46 LIG-0.06  A 
ATOM     63  CD2 PHE A   4      63.564  43.146 111.622  1.00  6.98 LIG 0.01  A 
ATOM     64  CE2 PHE A   4      64.650  43.147 112.503  1.00  8.89 LIG 0.00  A 
ATOM     65  CZ  PHE A   4      64.505  43.693 113.778  1.00  4.47 LIG 0.00  A 
ATOM     66  CE1 PHE A   4      63.299  44.235 114.162  1.00  8.64 LIG 0.00  A 
ATOM     67  CD1 PHE A   4      62.218  44.221 113.282  1.00  9.90 LIG 0.01  A 
ENDBRANCH 61 62
ENDBRANCH 1 61
TORSDOF 25
ENDMDL
MODEL 8
USER: ADFR SOLUTION from run 146
USER: SCORE 21.986317 LL:  -5.385 LR: -19.355 RR:   0.000 FEB: -11.897
USER: RMSD 7.419662
USER: SEED 145
USER: STATUS no improvement in best in 2 clusters for 5 generations
USER: GENES 27
USER: genes 0 Translation |==|  0.59426 0.54036 0.61983
USER: genes 1 Rotation |==|  0.55925 0.58414 0.01339 0.55115
USER: genes 2 Torsion [C]-CA--N-[C] |==|  0.65762
USER: genes 3 Torsion [N]-C--CA-[N] |==|  0.97941
USER: genes 4 Torsion [C]-CA--N-[C] |==|  0.18779
USER: genes 5 Torsion [N]-C--CA-[N] |==|  0.01948
USER: genes 6 Torsion [C]-CA--N-[C] |==|  0.18963
USER: genes 7 Torsion [N]-C--CA-[N] |==|  0.64862
USER: genes 8 Torsion [C]-CA--N-[H1] |==|  0.46828
USER: genes 9 Torsion [C]-CA--CB-[CG] |==|  0.59859
USER: genes 10 Torsion [CA]-CB--CG-[OD2] |==|  0.39003
USER: genes 11 Torsion [C]-CA--CB-[CG] |==|  0.16535
USER: genes 12 Torsion [CA]-CB--CG-[CD] |==|  0.69239
USER: genes 13 Torsion [CB]-CG--CD-[OE1] |==|  0.90014
USER: genes 14 Torsion [N]-CA--C-[N] |==|  0.76799
USER: genes 15 Torsion [C]-N--CA-[CB] |==|  0.76546
USER: genes 16 Torsion [N]-CA--CB-[CG] |==|  0.72644
USER: genes 17 Torsion [CA]-CB--CG-[CD] |==|  0.15645
USER: genes 18 Torsion [CB]-CG--CD-[NE] |==|  0.41608
USER: genes 19 Torsion [CG]-CD--NE-[HE] |==|  0.75337
USER: genes 20 Torsion [N]-CA--C-[N] |==|  0.62916
USER: genes 21 Torsion [C]-N--CA-[CB] |==|  0.20157
USER: genes 22 Torsion [N]-CA--CB-[CG] |==|  0.80459
USER: genes 23 Torsion [CA]-CB--CG-[ND1] |==|  0.85556
USER: genes 24 Torsion [N]-CA--C-[O] |==|  0.40715
USER: genes 25 Torsion [N]-CA--CB-[CG] |==|  0.49072
USER: genes 26 Torsion [CA]-CB--CG-[CD2] |==|  0.16726
ROOT
ATOM      1  CA  PHE A   4      64.479  46.494 110.500  1.00  8.73 LIG 0.18  C 
ENDROOT
BRANCH 1 2
ATOM      2  N   PHE A   4      65.386  47.627 110.388  1.00  8.80 LIG-0.35  N 
ATOM      3  C   GLU A   3      66.223  47.937 111.372  1.00  9.88 LIG 0.24  C 
ATOM      4 O    GLU A   3      66.261  47.295 112.432  1.00 11.78 LIG-0.27  OA
ATOM      5 H    PHE A   4      65.328  48.060 109.647  1.00  8.80 LIG 0.16  HD
BRANCH 3 6
ATOM      6  CA  GLU A   3      67.113  49.174 111.167  1.00  9.13 LIG 0.18  C 
BRANCH 6 7
ATOM      7  N   GLU A   3      67.033  49.753 109.819  1.00  7.51 LIG-0.35  N 
ATOM      8  C   ALA A   2      65.917  50.338 109.390  1.00 12.24 LIG 0.24  C 
ATOM      9 O    ALA A   2      64.912  50.455 110.113  1.00 10.29 LIG-0.27  OA
ATOM     10 H    GLU A   3      67.751  49.679 109.352  1.00  7.51 LIG 0.16  HD
BRANCH 8 11
ATOM     11  CA  ALA A   2      65.926  50.885 107.960  1.00  7.33 LIG 0.17  C 
ATOM     12  CB  ALA A   2      64.680  50.429 107.208  1.00  8.39 LIG 0.04  C 
BRANCH 11 13
ATOM     13  N   ALA A   2      67.136  50.532 107.209  1.00  8.02 LIG-0.35  N 
ATOM     14 H    ALA A   2      67.650  51.199 107.032  1.00  8.02 LIG 0.16  HD
ATOM     15  C   ASP A   1      67.399  49.278 106.842  1.00  8.83 LIG 0.25  C 
ATOM     16 O    ASP A   1      66.653  48.335 107.096  1.00  7.52 LIG-0.27  OA
BRANCH 15 17
ATOM     17  CA  ASP A   1      68.689  49.039 106.071  1.00  7.69 LIG 0.28  C 
BRANCH 17 18
ATOM     18  N   ASP A   1      68.454  48.315 104.788  1.00 12.20 LIG-0.07  N 
ATOM     19 H3   ASP A   1      67.788  48.705 104.345  1.00 12.20 LIG 0.28  HD
ATOM     20 H1   ASP A   1      69.193  48.340 104.293  1.00 12.20 LIG 0.28  HD
ATOM     21 H2   ASP A   1      68.241  47.468 104.960  1.00 12.20 LIG 0.28  HD
ENDBRANCH 17 18
BRANCH 17 22
ATOM     22  CB  ASP A   1      69.362  50.388 105.808  1.00 12.14 LIG 0.15  C 
BRANCH 22 23
ATOM     23  CG  ASP A   1      70.069  50.446 104.456  1.00 11.50 LIG 0.17  C 
ATOM     24 OD2  ASP A   1      69.976  51.511 103.819  1.00  7.11 LIG-0.65  OA
ATOM     25 OD1  ASP A   1      70.728  49.457 104.038  1.00  8.56 LIG-0.65  OA
ENDBRANCH 22 23
ENDBRANCH 17 22
ENDBRANCH 15 17
ENDBRANCH 11 13
ENDBRANCH 8 11
ENDBRANCH 6 7
BRANCH 6 26
ATOM     26  CB  GLU A   3      66.779  50.233 112.231  1.00  8.36 LIG 0.04  C 
BRANCH 26 27
ATOM     27  CG  GLU A   3      66.972  49.790 113.691  1.00  8.75 LIG 0.12  C 
BRANCH 27 28
ATOM     28  CD  GLU A   3      65.667  49.633 114.472  1.00 11.41 LIG 0.17  C 
ATOM     29 OE1  GLU A   3      64.728  50.421 114.246  1.00  7.99 LIG-0.65  OA
ATOM     30 OE2  GLU A   3      65.575  48.703 115.311  1.00 13.12 LIG-0.65  OA
ENDBRANCH 27 28
ENDBRANCH 26 27
ENDBRANCH 6 26
ENDBRANCH 3 6
ENDBRANCH 1 2
BRANCH 1 31
ATOM     31  C   PHE A   4      64.667  45.494 109.355  1.00 10.65 LIG 0.24  C 
ATOM     32  N   ARG A   5      64.037  45.753 108.215  1.00  9.73 LIG-0.35  N 
ATOM     33 H    ARG A   5      63.540  46.443 108.087  1.00  9.73 LIG 0.16  HD
ATOM     34 O    PHE A   4      65.405  44.529 109.490  1.00 11.27 LIG-0.27  OA
BRANCH 32 35
ATOM     35  CA  ARG A   5      64.145  44.861 107.062  1.00 16.16 LIG 0.18  C 
BRANCH 35 36
ATOM     36  CB  ARG A   5      65.411  45.184 106.245  1.00 18.38 LIG 0.04  C 
BRANCH 36 37
ATOM     37  CG  ARG A   5      65.197  46.065 105.006  1.00 17.37 LIG 0.02  C 
BRANCH 37 38
ATOM     38  CD  ARG A   5      64.518  47.407 105.354  1.00 18.74 LIG 0.14  C 
BRANCH 38 39
ATOM     39  NE  ARG A   5      64.923  48.483 104.443  1.00 16.23 LIG-0.23  N 
ATOM     40 HE   ARG A   5      65.622  48.942 104.647  1.00 16.23 LIG 0.18  HD
ATOM     41  CZ  ARG A   5      64.279  48.795 103.325  1.00 23.02 LIG 0.67  C 
ATOM     42  NH2 ARG A   5      64.728  49.768 102.538  1.00 17.77 LIG-0.23  N 
ATOM     43  NH1 ARG A   5      63.178  48.132 102.986  1.00 22.06 LIG-0.23  N 
ATOM     44 1HH2 ARG A   5      65.440  50.201 102.752  1.00 17.77 LIG 0.17  HD
ATOM     45 2HH2 ARG A   5      64.306  49.965 101.814  1.00 17.77 LIG 0.17  HD
ATOM     46 2HH1 ARG A   5      62.761  48.333 102.262  1.00 22.06 LIG 0.17  HD
ATOM     47 1HH1 ARG A   5      62.883  47.502 103.491  1.00 22.06 LIG 0.17  HD
ENDBRANCH 38 39
ENDBRANCH 37 38
ENDBRANCH 36 37
ENDBRANCH 35 36
BRANCH 35 48
ATOM     48  C   ARG A   5      64.174  43.379 107.493  1.00 22.64 LIG 0.24  C 
ATOM     49 O    ARG A   5      63.377  42.950 108.316  1.00 28.37 LIG-0.27  OA
ATOM     50  N   HIS A   6      65.104  42.621 106.928  1.00 30.17 LIG-0.35  N 
ATOM     51 H    HIS A   6      65.752  42.944 106.465  1.00 30.17 LIG 0.16  HD
BRANCH 50 52
ATOM     52  CA  HIS A   6      65.128  41.162 107.029  1.00 40.98 LIG 0.17  C 
BRANCH 52 53
ATOM     53  CB  HIS A   6      64.004  40.536 106.164  1.00 38.64 LIG 0.09  C 
BRANCH 53 54
ATOM     54  CG  HIS A   6      62.611  40.757 106.684  1.00 38.02 LIG 0.06  A 
ATOM     55 ND1  HIS A   6      62.249  40.457 107.982  1.00 51.26 LIG-0.24  NA
ATOM     56  CE1 HIS A   6      60.972  40.754 108.166  1.00 35.95 LIG 0.23  A 
ATOM     57 NE2  HIS A   6      60.492  41.238 107.033  1.00 45.10 LIG-0.25  NA
ATOM     58  CD2 HIS A   6      61.496  41.246 106.089  1.00 36.38 LIG 0.14  A 
ENDBRANCH 53 54
ENDBRANCH 52 53
BRANCH 52 59
ATOM     59  C   HIS A   6      66.471  40.647 106.528  1.00 40.61 LIG 0.22  C 
ATOM     60 O    HIS A   6      66.978  39.641 107.038  1.00 40.83 LIG-0.29  OA
ENDBRANCH 52 59
ENDBRANCH 50 52
ENDBRANCH 35 48
ENDBRANCH 32 35
ENDBRANCH 1 31
BRANCH 1 61
ATOM     61  CB  PHE A   4      63.020  46.972 110.572  1.00  8.88 LIG 0.07  C 
BRANCH 61 62
ATOM     62  CG  PHE A   4      62.022  45.845 110.609  1.00  5.46 LIG-0.06  A 
ATOM     63  CD2 PHE A   4      62.041  44.910 111.637  1.00  6.98 LIG 0.01  A 
ATOM     64  CE2 PHE A   4      61.114  43.863 111.663  1.00  8.89 LIG 0.00  A 
ATOM     65  CZ  PHE A   4      60.168  43.753 110.645  1.00  4.47 LIG 0.00  A 
ATOM     66  CE1 PHE A   4      60.142  44.677 109.625  1.00  8.64 LIG 0.00  A 
ATOM     67  CD1 PHE A   4      61.076  45.712 109.600  1.00  9.90 LIG 0.01  A 
ENDBRANCH 61 62
ENDBRANCH 1 61
TORSDOF 25
ENDMDL
MODEL 9
USER: ADFR SOLUTION from run 55
USER: SCORE 22.694984 LL:  -5.889 LR: -19.159 RR:   0.000 FEB: -11.701
USER: RMSD 4.594946
USER: SEED 54
USER: STATUS no improvement in best in 20 clusters for 5 generations
USER: GENES 27
USER: genes 0 Translation |==|  0.57353 0.49537 0.57086
USER: genes 1 Rotation |==|  0.31604 0.42799 0.46630 0.95808
USER: genes 2 Torsion [C]-CA--N-[C] |==|  0.64434
USER: genes 3 Torsion [N]-C--CA-[N] |==|  0.92840
USER: genes 4 Torsion [C]-CA--N-[C] |==|  0.82347
USER: genes 5 Torsion [N]-C--CA-[N] |==|  0.81667
USER: genes 6 Torsion [C]-CA--N-[C] |==|  0.85033
USER: genes 7 Torsion [N]-C--CA-[N] |==|  0.46645
USER: genes 8 Torsion [C]-CA--N-[H1] |==|  0.18319
USER: genes 9 Torsion [C]-CA--CB-[CG] |==|  0.39134
USER: genes 10 Torsion [CA]-CB--CG-[OD2] |==|  0.13937
USER: genes 11 Torsion [C]-CA--CB-[CG] |==|  0.50783
USER: genes 12 Torsion [CA]-CB--CG-[CD] |==|  0.18612
USER: genes 13 Torsion [CB]-CG--CD-[OE1] |==|  0.08394
USER: genes 14 Torsion [N]-CA--C-[N] |==|  0.34499
USER: genes 15 Torsion [C]-N--CA-[CB] |==|  0.32701
USER: genes 16 Torsion [N]-CA--CB-[CG] |==|  0.95704
USER: genes 17 Torsion [CA]-CB--CG-[CD] |==|  0.79891
USER: genes 18 Torsion [CB]-CG--CD-[NE] |==|  0.88851
USER: genes 19 Torsion [CG]-CD--NE-[HE] |==|  0.32412
USER: genes 20 Torsion [N]-CA--C-[N] |==|  0.20661
USER: genes 21 Torsion [C]-N--CA-[CB] |==|  0.85116
USER: genes 22 Torsion [N]-CA--CB-[CG] |==|  0.82663
USER: genes 23 Torsion [CA]-CB--CG-[ND1] |==|  0.00506
USER: genes 24 Torsion [N]-CA--C-[O] |==|  0.72243
USER: genes 25 Torsion [N]-CA--CB-[CG] |==|  0.86154
USER: genes 26 Torsion [CA]-CB--CG-[CD2] |==|  0.81322
ROOT
ATOM      1  CA  PHE A   4      64.121  45.617 109.545  1.00  8.73 LIG 0.18  C 
ENDROOT
BRANCH 1 2
ATOM      2  N   PHE A   4      63.123  44.592 109.280  1.00  8.80 LIG-0.35  N 
ATOM      3  C   GLU A   3      61.870  44.728 109.700  1.00  9.88 LIG 0.24  C 
ATOM      4 O    GLU A   3      61.496  45.717 110.348  1.00 11.78 LIG-0.27  OA
ATOM      5 H    PHE A   4      63.415  43.913 108.840  1.00  8.80 LIG 0.16  HD
BRANCH 3 6
ATOM      6  CA  GLU A   3      60.903  43.571 109.399  1.00  9.13 LIG 0.18  C 
BRANCH 6 7
ATOM      7  N   GLU A   3      61.276  42.769 108.226  1.00  7.51 LIG-0.35  N 
ATOM      8  C   ALA A   2      61.304  43.308 107.009  1.00 12.24 LIG 0.24  C 
ATOM      9 O    ALA A   2      61.056  44.509 106.813  1.00 10.29 LIG-0.27  OA
ATOM     10 H    GLU A   3      61.466  41.948 108.398  1.00  7.51 LIG 0.16  HD
BRANCH 8 11
ATOM     11  CA  ALA A   2      61.678  42.380 105.849  1.00  7.33 LIG 0.17  C 
ATOM     12  CB  ALA A   2      60.706  41.207 105.772  1.00  8.39 LIG 0.04  C 
BRANCH 11 13
ATOM     13  N   ALA A   2      63.061  41.896 105.913  1.00  8.02 LIG-0.35  N 
ATOM     14 H    ALA A   2      63.139  41.040 105.877  1.00  8.02 LIG 0.16  HD
ATOM     15  C   ASP A   1      64.097  42.729 106.018  1.00  8.83 LIG 0.25  C 
ATOM     16 O    ASP A   1      63.972  43.951 106.076  1.00  7.52 LIG-0.27  OA
BRANCH 15 17
ATOM     17  CA  ASP A   1      65.484  42.104 106.070  1.00  7.69 LIG 0.28  C 
BRANCH 17 18
ATOM     18  N   ASP A   1      66.566  43.117 105.898  1.00 12.20 LIG-0.07  N 
ATOM     19 H3   ASP A   1      66.424  43.578 105.150  1.00 12.20 LIG 0.28  HD
ATOM     20 H1   ASP A   1      66.566  43.673 106.592  1.00 12.20 LIG 0.28  HD
ATOM     21 H2   ASP A   1      67.353  42.705 105.848  1.00 12.20 LIG 0.28  HD
ENDBRANCH 17 18
BRANCH 17 22
ATOM     22  CB  ASP A   1      65.645  41.373 107.405  1.00 12.14 LIG 0.15  C 
BRANCH 22 23
ATOM     23  CG  ASP A   1      66.398  40.052 107.273  1.00 11.50 LIG 0.17  C 
ATOM     24 OD2  ASP A   1      67.480  40.082 106.658  1.00  7.11 LIG-0.65  OA
ATOM     25 OD1  ASP A   1      65.936  39.000 107.788  1.00  8.56 LIG-0.65  OA
ENDBRANCH 22 23
ENDBRANCH 17 22
ENDBRANCH 15 17
ENDBRANCH 11 13
ENDBRANCH 8 11
ENDBRANCH 6 7
BRANCH 6 26
ATOM     26  CB  GLU A   3      60.762  42.679 110.643  1.00  8.36 LIG 0.04  C 
BRANCH 26 27
ATOM     27  CG  GLU A   3      59.874  41.435 110.470  1.00  8.75 LIG 0.12  C 
BRANCH 27 28
ATOM     28  CD  GLU A   3      60.442  40.391 109.510  1.00 11.41 LIG 0.17  C 
ATOM     29 OE1  GLU A   3      61.679  40.281 109.399  1.00  7.99 LIG-0.65  OA
ATOM     30 OE2  GLU A   3      59.644  39.664 108.869  1.00 13.12 LIG-0.65  OA
ENDBRANCH 27 28
ENDBRANCH 26 27
ENDBRANCH 6 26
ENDBRANCH 3 6
ENDBRANCH 1 2
BRANCH 1 31
ATOM     31  C   PHE A   4      64.850  46.051 108.269  1.00 10.65 LIG 0.24  C 
ATOM     32  N   ARG A   5      64.829  47.344 107.970  1.00  9.73 LIG-0.35  N 
ATOM     33 H    ARG A   5      64.437  47.942 108.449  1.00  9.73 LIG 0.16  HD
ATOM     34 O    PHE A   4      65.456  45.232 107.593  1.00 11.27 LIG-0.27  OA
BRANCH 32 35
ATOM     35  CA  ARG A   5      65.488  47.863 106.773  1.00 16.16 LIG 0.18  C 
BRANCH 35 36
ATOM     36  CB  ARG A   5      64.457  48.505 105.824  1.00 18.38 LIG 0.04  C 
BRANCH 36 37
ATOM     37  CG  ARG A   5      62.988  48.158 106.106  1.00 17.37 LIG 0.02  C 
BRANCH 37 38
ATOM     38  CD  ARG A   5      62.646  46.705 105.717  1.00 18.74 LIG 0.14  C 
BRANCH 38 39
ATOM     39  NE  ARG A   5      63.286  46.304 104.458  1.00 16.23 LIG-0.23  N 
ATOM     40 HE   ARG A   5      63.861  45.665 104.485  1.00 16.23 LIG 0.18  HD
ATOM     41  CZ  ARG A   5      63.033  46.865 103.282  1.00 23.02 LIG 0.67  C 
ATOM     42  NH2 ARG A   5      63.636  46.424 102.182  1.00 17.77 LIG-0.23  N 
ATOM     43  NH1 ARG A   5      62.173  47.876 103.200  1.00 22.06 LIG-0.23  N 
ATOM     44 1HH2 ARG A   5      64.193  45.771 102.229  1.00 17.77 LIG 0.17  HD
ATOM     45 2HH2 ARG A   5      63.467  46.792 101.422  1.00 17.77 LIG 0.17  HD
ATOM     46 2HH1 ARG A   5      62.009  48.239 102.439  1.00 22.06 LIG 0.17  HD
ATOM     47 1HH1 ARG A   5      61.781  48.165 103.908  1.00 22.06 LIG 0.17  HD
ENDBRANCH 38 39
ENDBRANCH 37 38
ENDBRANCH 36 37
ENDBRANCH 35 36
BRANCH 35 48
ATOM     48  C   ARG A   5      66.575  48.900 107.129  1.00 22.64 LIG 0.24  C 
ATOM     49 O    ARG A   5      66.388  50.095 106.938  1.00 28.37 LIG-0.27  OA
ATOM     50  N   HIS A   6      67.699  48.420 107.641  1.00 30.17 LIG-0.35  N 
ATOM     51 H    HIS A   6      67.892  47.582 107.642  1.00 30.17 LIG 0.16  HD
BRANCH 50 52
ATOM     52  CA  HIS A   6      68.729  49.257 108.255  1.00 40.98 LIG 0.17  C 
BRANCH 52 53
ATOM     53  CB  HIS A   6      69.162  50.389 107.289  1.00 38.64 LIG 0.09  C 
BRANCH 53 54
ATOM     54  CG  HIS A   6      69.787  49.918 106.005  1.00 38.02 LIG 0.06  A 
ATOM     55 ND1  HIS A   6      69.927  48.579 105.698  1.00 51.26 LIG-0.24  NA
ATOM     56  CE1 HIS A   6      70.501  48.455 104.512  1.00 35.95 LIG 0.23  A 
ATOM     57 NE2  HIS A   6      70.738  49.666 104.037  1.00 45.10 LIG-0.25  NA
ATOM     58  CD2 HIS A   6      70.304  50.598 104.953  1.00 36.38 LIG 0.14  A 
ENDBRANCH 53 54
ENDBRANCH 52 53
BRANCH 52 59
ATOM     59  C   HIS A   6      68.171  49.889 109.525  1.00 40.61 LIG 0.22  C 
ATOM     60 O    HIS A   6      67.767  51.058 109.509  1.00 40.83 LIG-0.29  OA
ENDBRANCH 52 59
ENDBRANCH 50 52
ENDBRANCH 35 48
ENDBRANCH 32 35
ENDBRANCH 1 31
BRANCH 1 61
ATOM     61  CB  PHE A   4      65.123  45.138 110.607  1.00  8.88 LIG 0.07  C 
BRANCH 61 62
ATOM     62  CG  PHE A   4      64.465  44.577 111.841  1.00  5.46 LIG-0.06  A 
ATOM     63  CD2 PHE A   4      63.736  45.397 112.695  1.00  6.98 LIG 0.01  A 
ATOM     64  CE2 PHE A   4      63.133  44.871 113.842  1.00  8.89 LIG 0.00  A 
ATOM     65  CZ  PHE A   4      63.269  43.515 114.134  1.00  4.47 LIG 0.00  A 
ATOM     66  CE1 PHE A   4      63.987  42.697 113.291  1.00  8.64 LIG 0.00  A 
ATOM     67  CD1 PHE A   4      64.595  43.230 112.155  1.00  9.90 LIG 0.01  A 
ENDBRANCH 61 62
ENDBRANCH 1 61
TORSDOF 25
ENDMDL
MODEL 10
USER: ADFR SOLUTION from run 76
USER: SCORE 22.220544 LL:  -5.282 LR: -19.037 RR:   0.000 FEB: -11.580
USER: RMSD 6.339792
USER: SEED 75
USER: STATUS searching
USER: GENES 27
USER: genes 0 Translation |==|  0.43645 0.33731 0.37418
USER: genes 1 Rotation |==|  0.56517 0.02758 0.64649 0.53330
USER: genes 2 Torsion [C]-CA--N-[C] |==|  0.08889
USER: genes 3 Torsion [N]-C--CA-[N] |==|  0.56109
USER: genes 4 Torsion [C]-CA--N-[C] |==|  0.75518
USER: genes 5 Torsion [N]-C--CA-[N] |==|  0.40945
USER: genes 6 Torsion [C]-CA--N-[C] |==|  0.54932
USER: genes 7 Torsion [N]-C--CA-[N] |==|  0.09839
USER: genes 8 Torsion [C]-CA--N-[H1] |==|  0.57631
USER: genes 9 Torsion [C]-CA--CB-[CG] |==|  0.78303
USER: genes 10 Torsion [CA]-CB--CG-[OD2] |==|  0.94273
USER: genes 11 Torsion [C]-CA--CB-[CG] |==|  0.24616
USER: genes 12 Torsion [CA]-CB--CG-[CD] |==|  0.46990
USER: genes 13 Torsion [CB]-CG--CD-[OE1] |==|  0.58257
USER: genes 14 Torsion [N]-CA--C-[N] |==|  0.20530
USER: genes 15 Torsion [C]-N--CA-[CB] |==|  0.53959
USER: genes 16 Torsion [N]-CA--CB-[CG] |==|  0.90487
USER: genes 17 Torsion [CA]-CB--CG-[CD] |==|  0.69550
USER: genes 18 Torsion [CB]-CG--CD-[NE] |==|  0.84593
USER: genes 19 Torsion [CG]-CD--NE-[HE] |==|  0.01271
USER: genes 20 Torsion [N]-CA--C-[N] |==|  0.36804
USER: genes 21 Torsion [C]-N--CA-[CB] |==|  0.32789
USER: genes 22 Torsion [N]-CA--CB-[CG] |==|  0.98975
USER: genes 23 Torsion [CA]-CB--CG-[ND1] |==|  0.18215
USER: genes 24 Torsion [N]-CA--C-[O] |==|  0.98998
USER: genes 25 Torsion [N]-CA--CB-[CG] |==|  0.11477
USER: genes 26 Torsion [CA]-CB--CG-[CD2] |==|  0.67969
ROOT
ATOM      1  CA  PHE A   4      61.757  42.535 105.710  1.00  8.73 LIG 0.18  C 
ENDROOT
BRANCH 1 2
ATOM      2  N   PHE A   4      62.987  42.502 106.487  1.00  8.80 LIG-0.35  N 
ATOM      3  C   GLU A   3      63.164  43.309 107.527  1.00  9.88 LIG 0.24  C 
ATOM      4 O    GLU A   3      62.307  44.135 107.874  1.00 11.78 LIG-0.27  OA
ATOM      5 H    PHE A   4      63.567  41.928 106.215  1.00  8.80 LIG 0.16  HD
BRANCH 3 6
ATOM      6  CA  GLU A   3      64.513  43.219 108.258  1.00  9.13 LIG 0.18  C 
BRANCH 6 7
ATOM      7  N   GLU A   3      64.480  43.718 109.640  1.00  7.51 LIG-0.35  N 
ATOM      8  C   ALA A   2      64.699  45.003 109.910  1.00 12.24 LIG 0.24  C 
ATOM      9 O    ALA A   2      64.903  45.841 109.014  1.00 10.29 LIG-0.27  OA
ATOM     10 H    GLU A   3      64.312  43.120 110.235  1.00  7.51 LIG 0.16  HD
BRANCH 8 11
ATOM     11  CA  ALA A   2      64.670  45.417 111.384  1.00  7.33 LIG 0.17  C 
ATOM     12  CB  ALA A   2      63.250  45.775 111.808  1.00  8.39 LIG 0.04  C 
BRANCH 11 13
ATOM     13  N   ALA A   2      65.591  46.516 111.698  1.00  8.02 LIG-0.35  N 
ATOM     14 H    ALA A   2      65.858  46.961 111.012  1.00  8.02 LIG 0.16  HD
ATOM     15  C   ASP A   1      65.969  46.785 112.948  1.00  8.83 LIG 0.25  C 
ATOM     16 O    ASP A   1      65.585  46.136 113.919  1.00  7.52 LIG-0.27  OA
BRANCH 15 17
ATOM     17  CA  ASP A   1      66.924  47.953 113.145  1.00  7.69 LIG 0.28  C 
BRANCH 17 18
ATOM     18  N   ASP A   1      66.656  49.067 112.190  1.00 12.20 LIG-0.07  N 
ATOM     19 H3   ASP A   1      66.043  49.613 112.533  1.00 12.20 LIG 0.28  HD
ATOM     20 H1   ASP A   1      67.408  49.521 112.045  1.00 12.20 LIG 0.28  HD
ATOM     21 H2   ASP A   1      66.358  48.734 111.420  1.00 12.20 LIG 0.28  HD
ENDBRANCH 17 18
BRANCH 17 22
ATOM     22  CB  ASP A   1      66.806  48.448 114.588  1.00 12.14 LIG 0.15  C 
BRANCH 22 23
ATOM     23  CG  ASP A   1      65.570  49.311 114.823  1.00 11.50 LIG 0.17  C 
ATOM     24 OD2  ASP A   1      65.051  49.833 113.819  1.00  7.11 LIG-0.65  OA
ATOM     25 OD1  ASP A   1      65.104  49.457 115.984  1.00  8.56 LIG-0.65  OA
ENDBRANCH 22 23
ENDBRANCH 17 22
ENDBRANCH 15 17
ENDBRANCH 11 13
ENDBRANCH 8 11
ENDBRANCH 6 7
BRANCH 6 26
ATOM     26  CB  GLU A   3      65.028  41.771 108.218  1.00  8.36 LIG 0.04  C 
BRANCH 26 27
ATOM     27  CG  GLU A   3      65.885  41.405 106.995  1.00  8.75 LIG 0.12  C 
BRANCH 27 28
ATOM     28  CD  GLU A   3      66.592  40.055 107.110  1.00 11.41 LIG 0.17  C 
ATOM     29 OE1  GLU A   3      67.681  39.891 106.525  1.00  7.99 LIG-0.65  OA
ATOM     30 OE2  GLU A   3      66.061  39.153 107.804  1.00 13.12 LIG-0.65  OA
ENDBRANCH 27 28
ENDBRANCH 26 27
ENDBRANCH 6 26
ENDBRANCH 3 6
ENDBRANCH 1 2
BRANCH 1 31
ATOM     31  C   PHE A   4      61.146  43.939 105.662  1.00 10.65 LIG 0.24  C 
ATOM     32  N   ARG A   5      61.749  44.835 104.891  1.00  9.73 LIG-0.35  N 
ATOM     33 H    ARG A   5      62.451  44.671 104.422  1.00  9.73 LIG 0.16  HD
ATOM     34 O    PHE A   4      60.122  44.190 106.280  1.00 11.27 LIG-0.27  OA
BRANCH 32 35
ATOM     35  CA  ARG A   5      61.252  46.206 104.778  1.00 16.16 LIG 0.18  C 
BRANCH 35 36
ATOM     36  CB  ARG A   5      61.901  46.919 103.576  1.00 18.38 LIG 0.04  C 
BRANCH 36 37
ATOM     37  CG  ARG A   5      63.355  46.527 103.276  1.00 17.37 LIG 0.02  C 
BRANCH 37 38
ATOM     38  CD  ARG A   5      64.345  47.663 103.606  1.00 18.74 LIG 0.14  C 
BRANCH 38 39
ATOM     39  NE  ARG A   5      64.006  48.911 102.913  1.00 16.23 LIG-0.23  N 
ATOM     40 HE   ARG A   5      63.282  48.930 102.449  1.00 16.23 LIG 0.18  HD
ATOM     41  CZ  ARG A   5      64.745  50.013 102.956  1.00 23.02 LIG 0.67  C 
ATOM     42  NH2 ARG A   5      64.352  51.113 102.322  1.00 17.77 LIG-0.23  N 
ATOM     43  NH1 ARG A   5      65.886  50.020 103.638  1.00 22.06 LIG-0.23  N 
ATOM     44 1HH2 ARG A   5      63.615  51.115 101.879  1.00 17.77 LIG 0.17  HD
ATOM     45 2HH2 ARG A   5      64.836  51.824 102.354  1.00 17.77 LIG 0.17  HD
ATOM     46 2HH1 ARG A   5      66.366  50.733 103.666  1.00 22.06 LIG 0.17  HD
ATOM     47 1HH1 ARG A   5      66.145  49.311 104.050  1.00 22.06 LIG 0.17  HD
ENDBRANCH 38 39
ENDBRANCH 37 38
ENDBRANCH 36 37
ENDBRANCH 35 36
BRANCH 35 48
ATOM     48  C   ARG A   5      59.716  46.240 104.630  1.00 22.64 LIG 0.24  C 
ATOM     49 O    ARG A   5      59.147  45.511 103.828  1.00 28.37 LIG-0.27  OA
ATOM     50  N   HIS A   6      59.069  47.096 105.408  1.00 30.17 LIG-0.35  N 
ATOM     51 H    HIS A   6      59.468  47.707 105.863  1.00 30.17 LIG 0.16  HD
BRANCH 50 52
ATOM     52  CA  HIS A   6      57.616  47.095 105.578  1.00 40.98 LIG 0.17  C 
BRANCH 52 53
ATOM     53  CB  HIS A   6      57.238  46.814 107.055  1.00 38.64 LIG 0.09  C 
BRANCH 53 54
ATOM     54  CG  HIS A   6      58.403  46.521 107.959  1.00 38.02 LIG 0.06  A 
ATOM     55 ND1  HIS A   6      59.368  47.464 108.252  1.00 51.26 LIG-0.24  NA
ATOM     56  CE1 HIS A   6      60.266  46.940 109.070  1.00 35.95 LIG 0.23  A 
ATOM     57 NE2  HIS A   6      59.918  45.689 109.320  1.00 45.10 LIG-0.25  NA
ATOM     58  CD2 HIS A   6      58.759  45.402 108.634  1.00 36.38 LIG 0.14  A 
ENDBRANCH 53 54
ENDBRANCH 52 53
BRANCH 52 59
ATOM     59  C   HIS A   6      57.065  48.461 105.187  1.00 40.61 LIG 0.22  C 
ATOM     60 O    HIS A   6      57.838  49.372 104.865  1.00 40.83 LIG-0.29  OA
ENDBRANCH 52 59
ENDBRANCH 50 52
ENDBRANCH 35 48
ENDBRANCH 32 35
ENDBRANCH 1 31
BRANCH 1 61
ATOM     61  CB  PHE A   4      60.742  41.518 106.255  1.00  8.88 LIG 0.07  C 
BRANCH 61 62
ATOM     62  CG  PHE A   4      60.688  41.473 107.759  1.00  5.46 LIG-0.06  A 
ATOM     63  CD2 PHE A   4      61.069  40.329 108.452  1.00  6.98 LIG 0.01  A 
ATOM     64  CE2 PHE A   4      61.011  40.291 109.849  1.00  8.89 LIG 0.00  A 
ATOM     65  CZ  PHE A   4      60.562  41.408 110.552  1.00  4.47 LIG 0.00  A 
ATOM     66  CE1 PHE A   4      60.187  42.545 109.872  1.00  8.64 LIG 0.00  A 
ATOM     67  CD1 PHE A   4      60.236  42.571 108.479  1.00  9.90 LIG 0.01  A 
ENDBRANCH 61 62
ENDBRANCH 1 61
TORSDOF 25
ENDMDL
