MODEL 1
USER: ADFR SOLUTION from run 1
USER: SCORE 23.606297 LL:  -3.743 LR: -22.250 RR:   0.000 FEB: -13.301
USER: RMSD 6.041997
USER: SEED 348956
USER: STATUS no improvement in best in 2 clusters for 5 generations
USER: GENES 32
USER: genes 0 Translation |==|  0.73514 0.49507 0.46371
USER: genes 1 Rotation |==|  0.42239 0.32398 0.29005 0.91099
USER: genes 2 Torsion [C]-CA--N-[C] |==|  0.57030
USER: genes 3 Torsion [N]-C--CA-[N] |==|  0.38773
USER: genes 4 Torsion [C]-CA--N-[C] |==|  0.59277
USER: genes 5 Torsion [N]-C--CA-[N] |==|  0.90440
USER: genes 6 Torsion [C]-CA--CB-[CG] |==|  0.09780
USER: genes 7 Torsion [CA]-CB--CG-[CD] |==|  0.34247
USER: genes 8 Torsion [CB]-CG--CD-[NE] |==|  0.28695
USER: genes 9 Torsion [CG]-CD--NE-[CZ] |==|  0.21897
USER: genes 10 Torsion [C]-CA--N-[C] |==|  0.76667
USER: genes 11 Torsion [N]-C--CA-[N] |==|  0.05883
USER: genes 12 Torsion [C]-CA--N-[H1] |==|  0.45313
USER: genes 13 Torsion [C]-CA--CB-[CG2] |==|  0.45026
USER: genes 14 Torsion [CA]-CB--OG1-[HG1] |==|  0.36196
USER: genes 15 Torsion [N]-CA--CB-[CG] |==|  0.23770
USER: genes 16 Torsion [CA]-CB--CG-[CD] |==|  0.44783
USER: genes 17 Torsion [CB]-CG--CD-[CE] |==|  0.49866
USER: genes 18 Torsion [CG]-CD--CE-[NZ] |==|  0.42273
USER: genes 19 Torsion [CD]-CE--NZ-[HZ1] |==|  0.97009
USER: genes 20 Torsion [N]-CA--C-[N] |==|  0.01773
USER: genes 21 Torsion [C]-N--CA-[CB] |==|  0.25862
USER: genes 22 Torsion [N]-CA--C-[N] |==|  0.42541
USER: genes 23 Torsion [C]-N--CA-[CB] |==|  0.59376
USER: genes 24 Torsion [N]-CA--CB-[CG2] |==|  0.43141
USER: genes 25 Torsion [CA]-CB--OG1-[HG1] |==|  0.59996
USER: genes 26 Torsion [N]-CA--C-[N] |==|  0.36415
USER: genes 27 Torsion [C]-N--CA-[CB] |==|  0.44082
USER: genes 28 Torsion [N]-CA--C-[O] |==|  0.64778
USER: genes 29 Torsion [N]-CA--CB-[CG] |==|  0.69512
USER: genes 30 Torsion [CA]-CB--CG-[CD] |==|  0.81252
USER: genes 31 Torsion [CB]-CG--CD-[NE2] |==|  0.28805
ROOT
ATOM      1  CA  LYS B   4      39.837  55.008   9.940  1.00 30.17 LIG 0.18  C 
ENDROOT
BRANCH 1 2
ATOM      2  N   LYS B   4      38.816  54.240  10.626  1.00 25.68 LIG-0.35  N 
ATOM      3 H    LYS B   4      38.014  54.426  10.379  1.00 25.68 LIG 0.16  HD
ATOM      4  C   THR B   3      39.106  53.324  11.557  1.00 23.58 LIG 0.24  C 
ATOM      5 O    THR B   3      40.259  53.036  11.900  1.00 24.56 LIG-0.27  OA
BRANCH 4 6
ATOM      6  CA  THR B   3      37.917  52.631  12.225  1.00 21.46 LIG 0.20  C 
BRANCH 6 7
ATOM      7  N   THR B   3      38.163  51.217  12.418  1.00 21.22 LIG-0.34  N 
ATOM      8 H    THR B   3      38.986  51.027  12.580  1.00 21.22 LIG 0.16  HD
ATOM      9  C   ARG B   2      37.213  50.315  12.351  1.00 21.22 LIG 0.24  C 
ATOM     10 O    ARG B   2      36.067  50.598  12.116  1.00 22.30 LIG-0.27  OA
BRANCH 9 11
ATOM     11  CA  ARG B   2      37.639  48.863  12.618  1.00 22.28 LIG 0.18  C 
BRANCH 11 12
ATOM     12  CB  ARG B   2      37.662  48.529  14.113  1.00 24.95 LIG 0.04  C 
BRANCH 12 13
ATOM     13  CG  ARG B   2      36.615  49.173  14.995  1.00 25.01 LIG 0.02  C 
BRANCH 13 14
ATOM     14  CD  ARG B   2      35.824  48.072  15.728  1.00 28.81 LIG 0.14  C 
BRANCH 14 15
ATOM     15  NE  ARG B   2      36.181  47.883  17.135  1.00 31.55 LIG-0.23  N 
ATOM     16 HE   ARG B   2      36.693  47.220  17.326  1.00 31.55 LIG 0.18  HD
ATOM     17  CZ  ARG B   2      35.775  48.659  18.150  1.00 33.58 LIG 0.67  C 
ATOM     18  NH2 ARG B   2      35.039  49.742  17.936  1.00 33.13 LIG-0.23  N 
ATOM     19  NH1 ARG B   2      36.128  48.366  19.385  1.00 37.12 LIG-0.23  N 
ATOM     20 1HH2 ARG B   2      34.813  49.958  17.135  1.00 33.13 LIG 0.17  HD
ATOM     21 2HH2 ARG B   2      34.787  50.229  18.599  1.00 33.13 LIG 0.17  HD
ATOM     22 2HH1 ARG B   2      35.867  48.863  20.037  1.00 37.12 LIG 0.17  HD
ATOM     23 1HH1 ARG B   2      36.620  47.677  19.540  1.00 37.12 LIG 0.17  HD
ENDBRANCH 14 15
ENDBRANCH 13 14
ENDBRANCH 12 13
ENDBRANCH 11 12
BRANCH 11 24
ATOM     24  N   ARG B   2      38.981  48.662  12.106  1.00 22.27 LIG-0.35  N 
ATOM     25  C   ALA B   1      39.163  48.373  10.828  1.00 22.85 LIG 0.25  C 
ATOM     26 O    ALA B   1      38.218  48.265  10.038  1.00 22.62 LIG-0.27  OA
ATOM     27 H    ARG B   2      39.611  48.745  12.686  1.00 22.27 LIG 0.16  HD
BRANCH 25 28
ATOM     28  CA  ALA B   1      40.618  48.147  10.384  1.00 23.76 LIG 0.27  C 
ATOM     29  CB  ALA B   1      40.715  47.081   9.299  1.00 24.39 LIG 0.05  C 
BRANCH 28 30
ATOM     30  N   ALA B   1      41.494  47.805  11.499  1.00 25.03 LIG-0.07  N 
ATOM     31 H1   ALA B   1      42.248  47.449  11.186  1.00 25.03 LIG 0.28  HD
ATOM     32 H3   ALA B   1      41.086  47.218  12.029  1.00 25.03 LIG 0.28  HD
ATOM     33 H2   ALA B   1      41.684  48.541  11.963  1.00 25.03 LIG 0.28  HD
ENDBRANCH 28 30
ENDBRANCH 25 28
ENDBRANCH 11 24
ENDBRANCH 9 11
ENDBRANCH 6 7
BRANCH 6 34
ATOM     34  CB  THR B   3      37.593  53.308  13.552  1.00 21.53 LIG 0.15  C 
ATOM     35  CG2 THR B   3      36.232  52.967  14.017  1.00 22.92 LIG 0.04  C 
BRANCH 34 36
ATOM     36 OG1  THR B   3      38.543  52.873  14.514  1.00 22.47 LIG-0.39  OA
ATOM     37 HG1  THR B   3      38.864  53.539  14.912  1.00 22.47 LIG 0.21  HD
ENDBRANCH 34 36
ENDBRANCH 6 34
ENDBRANCH 4 6
ENDBRANCH 1 2
BRANCH 1 38
ATOM     38  CB  LYS B   4      40.372  54.221   8.773  1.00 32.55 LIG 0.04  C 
BRANCH 38 39
ATOM     39  CG  LYS B   4      39.553  54.384   7.524  1.00 30.49 LIG 0.00  C 
BRANCH 39 40
ATOM     40  CD  LYS B   4      40.369  53.966   6.301  1.00 34.18 LIG 0.03  C 
BRANCH 40 41
ATOM     41  CE  LYS B   4      39.550  54.113   5.029  1.00 33.34 LIG 0.23  C 
BRANCH 41 42
ATOM     42  NZ  LYS B   4      40.370  54.371   3.818  1.00 36.76 LIG-0.08  N 
ATOM     43 HZ1  LYS B   4      41.207  54.552   4.059  1.00 36.76 LIG 0.27  HD
ATOM     44 HZ2  LYS B   4      40.362  53.651   3.295  1.00 36.76 LIG 0.27  HD
ATOM     45 HZ3  LYS B   4      40.033  55.064   3.373  1.00 36.76 LIG 0.27  HD
ENDBRANCH 41 42
ENDBRANCH 40 41
ENDBRANCH 39 40
ENDBRANCH 38 39
ENDBRANCH 1 38
BRANCH 1 46
ATOM     46  C   LYS B   4      39.256  56.306   9.459  1.00 34.41 LIG 0.24  C 
ATOM     47  N   GLN B   5      38.015  56.585   9.835  1.00 39.81 LIG-0.35  N 
ATOM     48 H    GLN B   5      37.546  56.116  10.382  1.00 39.81 LIG 0.16  HD
ATOM     49 O    LYS B   4      39.947  57.070   8.756  1.00 33.27 LIG-0.27  OA
BRANCH 47 50
ATOM     50  CA  GLN B   5      37.357  57.778   9.302  1.00 46.50 LIG 0.18  C 
BRANCH 50 51
ATOM     51  C   GLN B   5      36.550  58.521  10.369  1.00 52.91 LIG 0.24  C 
ATOM     52  N   THR B   6      36.393  59.836  10.164  1.00 59.38 LIG-0.34  N 
ATOM     53 H    THR B   6      36.586  60.215   9.416  1.00 59.38 LIG 0.16  HD
ATOM     54 O    GLN B   5      36.148  57.937  11.364  1.00 55.19 LIG-0.27  OA
BRANCH 52 55
ATOM     55  CA  THR B   6      35.873  60.793  11.195  1.00 66.40 LIG 0.20  C 
BRANCH 55 56
ATOM     56  CB  THR B   6      35.026  61.956  10.573  1.00 64.05 LIG 0.15  C 
ATOM     57  CG2 THR B   6      34.048  62.519  11.599  1.00 70.60 LIG 0.04  C 
BRANCH 56 58
ATOM     58 OG1  THR B   6      35.864  63.019  10.087  1.00 62.34 LIG-0.39  OA
ATOM     59 HG1  THR B   6      35.486  63.757  10.221  1.00 62.34 LIG 0.21  HD
ENDBRANCH 56 58
ENDBRANCH 55 56
BRANCH 55 60
ATOM     60  C   THR B   6      34.948  60.111  12.246  1.00 68.19 LIG 0.24  C 
ATOM     61 O    THR B   6      34.002  59.379  11.882  1.00 63.20 LIG-0.27  OA
ATOM     62  N   ALA B   7      35.210  60.369  13.531  1.00 78.65 LIG-0.35  N 
ATOM     63 H    ALA B   7      35.917  60.779  13.798  1.00 78.65 LIG 0.16  HD
BRANCH 62 64
ATOM     64  CA  ALA B   7      34.304  59.972  14.613  1.00 81.14 LIG 0.16  C 
ATOM     65  CB  ALA B   7      35.054  59.906  15.946  1.00 91.84 LIG 0.04  C 
BRANCH 64 66
ATOM     66  C   ALA B   7      33.128  60.957  14.712  1.00 81.58 LIG 0.22  C 
ATOM     67 O    ALA B   7      32.842  61.508  15.779  1.00 77.41 LIG-0.29  OA
ENDBRANCH 64 66
ENDBRANCH 62 64
ENDBRANCH 55 60
ENDBRANCH 52 55
ENDBRANCH 50 51
BRANCH 50 68
ATOM     68  CB  GLN B   5      36.520  57.508   8.040  1.00 52.07 LIG 0.04  C 
BRANCH 68 69
ATOM     69  CG  GLN B   5      37.018  58.050   6.721  1.00 55.77 LIG 0.10  C 
BRANCH 69 70
ATOM     70  CD  GLN B   5      36.964  59.571   6.696  1.00 63.27 LIG 0.21  C 
ATOM     71  NE2 GLN B   5      38.116  60.196   6.848  1.00 63.75 LIG-0.37  N 
ATOM     72 21HE GLN B   5      38.841  59.744   6.945  1.00 63.75 LIG 0.16  HD
ATOM     73 22HE GLN B   5      38.141  61.056   6.850  1.00 63.75 LIG 0.16  HD
ATOM     74 OE1  GLN B   5      35.915  60.167   6.556  1.00 68.43 LIG-0.27  OA
ENDBRANCH 69 70
ENDBRANCH 68 69
ENDBRANCH 50 68
ENDBRANCH 47 50
ENDBRANCH 1 46
TORSDOF 30
ENDMDL
MODEL 2
USER: ADFR SOLUTION from run 198
USER: SCORE 23.825060 LL:  -4.692 LR: -21.582 RR:   0.000 FEB: -12.633
USER: RMSD 9.080450
USER: SEED 197
USER: STATUS no improvement in best in 4 clusters for 5 generations
USER: GENES 32
USER: genes 0 Translation |==|  0.62230 0.18742 0.56966
USER: genes 1 Rotation |==|  0.82019 0.47268 0.12164 0.55979
USER: genes 2 Torsion [C]-CA--N-[C] |==|  0.82516
USER: genes 3 Torsion [N]-C--CA-[N] |==|  0.00004
USER: genes 4 Torsion [C]-CA--N-[C] |==|  0.18094
USER: genes 5 Torsion [N]-C--CA-[N] |==|  0.33345
USER: genes 6 Torsion [C]-CA--CB-[CG] |==|  0.69292
USER: genes 7 Torsion [CA]-CB--CG-[CD] |==|  0.69756
USER: genes 8 Torsion [CB]-CG--CD-[NE] |==|  0.60770
USER: genes 9 Torsion [CG]-CD--NE-[CZ] |==|  0.27713
USER: genes 10 Torsion [C]-CA--N-[C] |==|  0.61784
USER: genes 11 Torsion [N]-C--CA-[N] |==|  0.77147
USER: genes 12 Torsion [C]-CA--N-[H1] |==|  0.36645
USER: genes 13 Torsion [C]-CA--CB-[CG2] |==|  0.21451
USER: genes 14 Torsion [CA]-CB--OG1-[HG1] |==|  0.34213
USER: genes 15 Torsion [N]-CA--CB-[CG] |==|  0.86361
USER: genes 16 Torsion [CA]-CB--CG-[CD] |==|  0.71900
USER: genes 17 Torsion [CB]-CG--CD-[CE] |==|  0.63110
USER: genes 18 Torsion [CG]-CD--CE-[NZ] |==|  0.28401
USER: genes 19 Torsion [CD]-CE--NZ-[HZ1] |==|  0.53293
USER: genes 20 Torsion [N]-CA--C-[N] |==|  0.37526
USER: genes 21 Torsion [C]-N--CA-[CB] |==|  0.85467
USER: genes 22 Torsion [N]-CA--C-[N] |==|  0.80864
USER: genes 23 Torsion [C]-N--CA-[CB] |==|  0.81150
USER: genes 24 Torsion [N]-CA--CB-[CG2] |==|  0.48699
USER: genes 25 Torsion [CA]-CB--OG1-[HG1] |==|  0.44093
USER: genes 26 Torsion [N]-CA--C-[N] |==|  0.77580
USER: genes 27 Torsion [C]-N--CA-[CB] |==|  0.31558
USER: genes 28 Torsion [N]-CA--C-[O] |==|  0.76702
USER: genes 29 Torsion [N]-CA--CB-[CG] |==|  0.38065
USER: genes 30 Torsion [CA]-CB--CG-[CD] |==|  0.69773
USER: genes 31 Torsion [CB]-CG--CD-[NE2] |==|  0.41225
ROOT
ATOM      1  CA  LYS B   4      37.214  48.086  12.483  1.00 30.17 LIG 0.18  C 
ENDROOT
BRANCH 1 2
ATOM      2  N   LYS B   4      36.488  49.124  11.776  1.00 25.68 LIG-0.35  N 
ATOM      3 H    LYS B   4      36.991  49.734  11.440  1.00 25.68 LIG 0.16  HD
ATOM      4  C   THR B   3      35.155  49.122  11.663  1.00 23.58 LIG 0.24  C 
ATOM      5 O    THR B   3      34.428  48.235  12.126  1.00 24.56 LIG-0.27  OA
BRANCH 4 6
ATOM      6  CA  THR B   3      34.532  50.312  10.930  1.00 21.46 LIG 0.20  C 
BRANCH 6 7
ATOM      7  N   THR B   3      35.540  51.248  10.479  1.00 21.22 LIG-0.34  N 
ATOM      8 H    THR B   3      35.493  52.018  10.859  1.00 21.22 LIG 0.16  HD
ATOM      9  C   ARG B   2      36.440  50.944   9.574  1.00 21.22 LIG 0.24  C 
ATOM     10 O    ARG B   2      36.487  49.863   9.046  1.00 22.30 LIG-0.27  OA
BRANCH 9 11
ATOM     11  CA  ARG B   2      37.460  52.043   9.237  1.00 22.28 LIG 0.18  C 
BRANCH 11 12
ATOM     12  CB  ARG B   2      37.429  52.430   7.755  1.00 24.95 LIG 0.04  C 
BRANCH 12 13
ATOM     13  CG  ARG B   2      38.617  52.046   6.902  1.00 25.01 LIG 0.02  C 
BRANCH 13 14
ATOM     14  CD  ARG B   2      39.414  53.315   6.542  1.00 28.81 LIG 0.14  C 
BRANCH 14 15
ATOM     15  NE  ARG B   2      39.948  53.348   5.180  1.00 31.55 LIG-0.23  N 
ATOM     16 HE   ARG B   2      40.673  52.911   5.029  1.00 31.55 LIG 0.18  HD
ATOM     17  CZ  ARG B   2      39.400  54.003   4.146  1.00 33.58 LIG 0.67  C 
ATOM     18  NH2 ARG B   2      38.246  54.645   4.273  1.00 33.13 LIG-0.23  N 
ATOM     19  NH1 ARG B   2      39.995  53.994   2.970  1.00 37.12 LIG-0.23  N 
ATOM     20 1HH2 ARG B   2      37.835  54.647   5.029  1.00 33.13 LIG 0.17  HD
ATOM     21 2HH2 ARG B   2      37.908  55.061   3.599  1.00 33.13 LIG 0.17  HD
ATOM     22 2HH1 ARG B   2      39.643  54.415   2.307  1.00 37.12 LIG 0.17  HD
ATOM     23 1HH1 ARG B   2      40.735  53.568   2.866  1.00 37.12 LIG 0.17  HD
ENDBRANCH 14 15
ENDBRANCH 13 14
ENDBRANCH 12 13
ENDBRANCH 11 12
BRANCH 11 24
ATOM     24  N   ARG B   2      38.794  51.555   9.531  1.00 22.27 LIG-0.35  N 
ATOM     25  C   ALA B   1      39.668  52.346  10.130  1.00 22.85 LIG 0.25  C 
ATOM     26 O    ALA B   1      39.390  53.507  10.455  1.00 22.62 LIG-0.27  OA
ATOM     27 H    ARG B   2      38.949  50.744   9.290  1.00 22.27 LIG 0.16  HD
BRANCH 25 28
ATOM     28  CA  ALA B   1      41.066  51.752  10.373  1.00 23.76 LIG 0.27  C 
ATOM     29  CB  ALA B   1      41.555  50.958   9.168  1.00 24.39 LIG 0.05  C 
BRANCH 28 30
ATOM     30  N   ALA B   1      41.120  50.924  11.572  1.00 25.03 LIG-0.07  N 
ATOM     31 H1   ALA B   1      41.519  50.152  11.382  1.00 25.03 LIG 0.28  HD
ATOM     32 H3   ALA B   1      40.293  50.768  11.862  1.00 25.03 LIG 0.28  HD
ATOM     33 H2   ALA B   1      41.580  51.348  12.205  1.00 25.03 LIG 0.28  HD
ENDBRANCH 28 30
ENDBRANCH 25 28
ENDBRANCH 11 24
ENDBRANCH 9 11
ENDBRANCH 6 7
BRANCH 6 34
ATOM     34  CB  THR B   3      33.690  49.822   9.757  1.00 21.53 LIG 0.15  C 
ATOM     35  CG2 THR B   3      32.386  49.291  10.210  1.00 22.92 LIG 0.04  C 
BRANCH 34 36
ATOM     36 OG1  THR B   3      33.474  50.916   8.878  1.00 22.47 LIG-0.39  OA
ATOM     37 HG1  THR B   3      33.754  50.720   8.111  1.00 22.47 LIG 0.21  HD
ENDBRANCH 34 36
ENDBRANCH 6 34
ENDBRANCH 4 6
ENDBRANCH 1 2
BRANCH 1 38
ATOM     38  CB  LYS B   4      38.695  48.318  12.351  1.00 32.55 LIG 0.04  C 
BRANCH 38 39
ATOM     39  CG  LYS B   4      39.131  48.567  10.934  1.00 30.49 LIG 0.00  C 
BRANCH 39 40
ATOM     40  CD  LYS B   4      39.747  47.299  10.342  1.00 34.18 LIG 0.03  C 
BRANCH 40 41
ATOM     41  CE  LYS B   4      41.059  47.612   9.642  1.00 33.34 LIG 0.23  C 
BRANCH 41 42
ATOM     42  NZ  LYS B   4      42.261  47.245  10.433  1.00 36.76 LIG-0.08  N 
ATOM     43 HZ1  LYS B   4      42.984  47.602  10.058  1.00 36.76 LIG 0.27  HD
ATOM     44 HZ2  LYS B   4      42.175  47.554  11.263  1.00 36.76 LIG 0.27  HD
ATOM     45 HZ3  LYS B   4      42.344  46.359  10.454  1.00 36.76 LIG 0.27  HD
ENDBRANCH 41 42
ENDBRANCH 40 41
ENDBRANCH 39 40
ENDBRANCH 38 39
ENDBRANCH 1 38
BRANCH 1 46
ATOM     46  C   LYS B   4      36.821  48.091  13.931  1.00 34.41 LIG 0.24  C 
ATOM     47  N   GLN B   5      36.573  46.916  14.492  1.00 39.81 LIG-0.35  N 
ATOM     48 H    GLN B   5      36.683  46.153  14.112  1.00 39.81 LIG 0.16  HD
ATOM     49 O    LYS B   4      36.762  49.172  14.552  1.00 33.27 LIG-0.27  OA
BRANCH 47 50
ATOM     50  CA  GLN B   5      36.074  46.869  15.867  1.00 46.50 LIG 0.18  C 
BRANCH 50 51
ATOM     51  C   GLN B   5      34.594  47.248  15.959  1.00 52.91 LIG 0.24  C 
ATOM     52  N   THR B   6      34.309  48.531  15.704  1.00 59.38 LIG-0.34  N 
ATOM     53 H    THR B   6      34.880  49.073  15.357  1.00 59.38 LIG 0.16  HD
ATOM     54 O    GLN B   5      33.762  46.426  16.311  1.00 55.19 LIG-0.27  OA
BRANCH 52 55
ATOM     55  CA  THR B   6      32.983  49.173  15.988  1.00 66.40 LIG 0.20  C 
BRANCH 55 56
ATOM     56  CB  THR B   6      31.833  48.623  15.075  1.00 64.05 LIG 0.15  C 
ATOM     57  CG2 THR B   6      30.490  49.221  15.481  1.00 70.60 LIG 0.04  C 
BRANCH 56 58
ATOM     58 OG1  THR B   6      32.077  48.909  13.687  1.00 62.34 LIG-0.39  OA
ATOM     59 HG1  THR B   6      31.634  48.379  13.209  1.00 62.34 LIG 0.21  HD
ENDBRANCH 56 58
ENDBRANCH 55 56
BRANCH 55 60
ATOM     60  C   THR B   6      32.502  48.953  17.453  1.00 68.19 LIG 0.24  C 
ATOM     61 O    THR B   6      32.674  49.838  18.319  1.00 63.20 LIG-0.27  OA
ATOM     62  N   ALA B   7      31.929  47.777  17.724  1.00 78.65 LIG-0.35  N 
ATOM     63 H    ALA B   7      31.707  47.206  17.121  1.00 78.65 LIG 0.16  HD
BRANCH 62 64
ATOM     64  CA  ALA B   7      31.622  47.350  19.092  1.00 81.14 LIG 0.16  C 
ATOM     65  CB  ALA B   7      30.108  47.258  19.301  1.00 91.84 LIG 0.04  C 
BRANCH 64 66
ATOM     66  C   ALA B   7      32.284  45.994  19.389  1.00 81.58 LIG 0.22  C 
ATOM     67 O    ALA B   7      31.745  44.933  19.061  1.00 77.41 LIG-0.29  OA
ENDBRANCH 64 66
ENDBRANCH 62 64
ENDBRANCH 55 60
ENDBRANCH 52 55
ENDBRANCH 50 51
BRANCH 50 68
ATOM     68  CB  GLN B   5      36.931  47.670  16.862  1.00 52.07 LIG 0.04  C 
BRANCH 68 69
ATOM     69  CG  GLN B   5      36.226  48.523  17.889  1.00 55.77 LIG 0.10  C 
BRANCH 69 70
ATOM     70  CD  GLN B   5      36.391  50.004  17.581  1.00 63.27 LIG 0.21  C 
ATOM     71  NE2 GLN B   5      35.390  50.787  17.935  1.00 63.75 LIG-0.37  N 
ATOM     72 21HE GLN B   5      34.699  50.453  18.323  1.00 63.75 LIG 0.16  HD
ATOM     73 22HE GLN B   5      35.428  51.631  17.776  1.00 63.75 LIG 0.16  HD
ATOM     74 OE1  GLN B   5      37.386  50.430  17.030  1.00 68.43 LIG-0.27  OA
ENDBRANCH 69 70
ENDBRANCH 68 69
ENDBRANCH 50 68
ENDBRANCH 47 50
ENDBRANCH 1 46
TORSDOF 30
ENDMDL
MODEL 3
USER: ADFR SOLUTION from run 58
USER: SCORE 23.456711 LL:  -3.553 LR: -21.230 RR:   0.000 FEB: -12.281
USER: RMSD 7.094258
USER: SEED 57
USER: STATUS searching
USER: GENES 32
USER: genes 0 Translation |==|  0.71796 0.43649 0.51302
USER: genes 1 Rotation |==|  0.36853 0.20574 0.36113 0.85615
USER: genes 2 Torsion [C]-CA--N-[C] |==|  0.72886
USER: genes 3 Torsion [N]-C--CA-[N] |==|  0.37101
USER: genes 4 Torsion [C]-CA--N-[C] |==|  0.84827
USER: genes 5 Torsion [N]-C--CA-[N] |==|  0.97645
USER: genes 6 Torsion [C]-CA--CB-[CG] |==|  0.98196
USER: genes 7 Torsion [CA]-CB--CG-[CD] |==|  0.56861
USER: genes 8 Torsion [CB]-CG--CD-[NE] |==|  0.01671
USER: genes 9 Torsion [CG]-CD--NE-[CZ] |==|  0.55130
USER: genes 10 Torsion [C]-CA--N-[C] |==|  0.67736
USER: genes 11 Torsion [N]-C--CA-[N] |==|  0.12613
USER: genes 12 Torsion [C]-CA--N-[H1] |==|  0.37552
USER: genes 13 Torsion [C]-CA--CB-[CG2] |==|  0.26021
USER: genes 14 Torsion [CA]-CB--OG1-[HG1] |==|  0.59702
USER: genes 15 Torsion [N]-CA--CB-[CG] |==|  0.93791
USER: genes 16 Torsion [CA]-CB--CG-[CD] |==|  0.43088
USER: genes 17 Torsion [CB]-CG--CD-[CE] |==|  0.55138
USER: genes 18 Torsion [CG]-CD--CE-[NZ] |==|  0.71681
USER: genes 19 Torsion [CD]-CE--NZ-[HZ1] |==|  0.59045
USER: genes 20 Torsion [N]-CA--C-[N] |==|  0.45073
USER: genes 21 Torsion [C]-N--CA-[CB] |==|  0.85368
USER: genes 22 Torsion [N]-CA--C-[N] |==|  0.47082
USER: genes 23 Torsion [C]-N--CA-[CB] |==|  0.55046
USER: genes 24 Torsion [N]-CA--CB-[CG2] |==|  0.22198
USER: genes 25 Torsion [CA]-CB--OG1-[HG1] |==|  0.32034
USER: genes 26 Torsion [N]-CA--C-[N] |==|  0.41119
USER: genes 27 Torsion [C]-N--CA-[CB] |==|  0.24884
USER: genes 28 Torsion [N]-CA--C-[O] |==|  0.59010
USER: genes 29 Torsion [N]-CA--CB-[CG] |==|  0.65919
USER: genes 30 Torsion [CA]-CB--CG-[CD] |==|  0.30322
USER: genes 31 Torsion [CB]-CG--CD-[NE2] |==|  0.43095
ROOT
ATOM      1  CA  LYS B   4      39.438  53.690  11.123  1.00 30.17 LIG 0.18  C 
ENDROOT
BRANCH 1 2
ATOM      2  N   LYS B   4      38.279  53.124  11.787  1.00 25.68 LIG-0.35  N 
ATOM      3 H    LYS B   4      38.006  52.385  11.442  1.00 25.68 LIG 0.16  HD
ATOM      4  C   THR B   3      37.696  53.706  12.841  1.00 23.58 LIG 0.24  C 
ATOM      5 O    THR B   3      38.099  54.756  13.354  1.00 24.56 LIG-0.27  OA
BRANCH 4 6
ATOM      6  CA  THR B   3      36.453  53.011  13.401  1.00 21.46 LIG 0.20  C 
BRANCH 6 7
ATOM      7  N   THR B   3      36.505  52.906  14.844  1.00 21.22 LIG-0.34  N 
ATOM      8 H    THR B   3      35.819  53.239  15.242  1.00 21.22 LIG 0.16  HD
ATOM      9  C   ARG B   2      37.509  52.351  15.480  1.00 21.22 LIG 0.24  C 
ATOM     10 O    ARG B   2      38.465  51.895  14.909  1.00 22.30 LIG-0.27  OA
BRANCH 9 11
ATOM     11  CA  ARG B   2      37.388  52.287  17.011  1.00 22.28 LIG 0.18  C 
BRANCH 11 12
ATOM     12  CB  ARG B   2      37.192  50.856  17.520  1.00 24.95 LIG 0.04  C 
BRANCH 12 13
ATOM     13  CG  ARG B   2      36.994  49.764  16.492  1.00 25.01 LIG 0.02  C 
BRANCH 13 14
ATOM     14  CD  ARG B   2      36.226  48.594  17.136  1.00 28.81 LIG 0.14  C 
BRANCH 14 15
ATOM     15  NE  ARG B   2      35.749  48.838  18.498  1.00 31.55 LIG-0.23  N 
ATOM     16 HE   ARG B   2      35.702  49.657  18.758  1.00 31.55 LIG 0.18  HD
ATOM     17  CZ  ARG B   2      35.381  47.892  19.373  1.00 33.58 LIG 0.67  C 
ATOM     18  NH2 ARG B   2      35.359  46.610  19.032  1.00 33.13 LIG-0.23  N 
ATOM     19  NH1 ARG B   2      35.007  48.231  20.590  1.00 37.12 LIG-0.23  N 
ATOM     20 1HH2 ARG B   2      35.584  46.372  18.236  1.00 33.13 LIG 0.17  HD
ATOM     21 2HH2 ARG B   2      35.120  46.016  19.606  1.00 33.13 LIG 0.17  HD
ATOM     22 2HH1 ARG B   2      34.770  47.623  21.152  1.00 37.12 LIG 0.17  HD
ATOM     23 1HH1 ARG B   2      34.998  49.059  20.823  1.00 37.12 LIG 0.17  HD
ENDBRANCH 14 15
ENDBRANCH 13 14
ENDBRANCH 12 13
ENDBRANCH 11 12
BRANCH 11 24
ATOM     24  N   ARG B   2      36.232  53.059  17.426  1.00 22.27 LIG-0.35  N 
ATOM     25  C   ALA B   1      36.393  54.135  18.179  1.00 22.85 LIG 0.25  C 
ATOM     26 O    ALA B   1      37.509  54.516  18.551  1.00 22.62 LIG-0.27  OA
ATOM     27 H    ARG B   2      35.474  52.762  17.148  1.00 22.27 LIG 0.16  HD
BRANCH 25 28
ATOM     28  CA  ALA B   1      35.108  54.871  18.595  1.00 23.76 LIG 0.27  C 
ATOM     29  CB  ALA B   1      35.385  55.930  19.655  1.00 24.39 LIG 0.05  C 
BRANCH 28 30
ATOM     30  N   ALA B   1      34.070  53.958  19.061  1.00 25.03 LIG-0.07  N 
ATOM     31 H1   ALA B   1      33.702  54.282  19.804  1.00 25.03 LIG 0.28  HD
ATOM     32 H3   ALA B   1      34.429  53.161  19.230  1.00 25.03 LIG 0.28  HD
ATOM     33 H2   ALA B   1      33.445  53.875  18.433  1.00 25.03 LIG 0.28  HD
ENDBRANCH 28 30
ENDBRANCH 25 28
ENDBRANCH 11 24
ENDBRANCH 9 11
ENDBRANCH 6 7
BRANCH 6 34
ATOM     34  CB  THR B   3      35.195  53.752  12.960  1.00 21.53 LIG 0.15  C 
ATOM     35  CG2 THR B   3      34.630  53.173  11.723  1.00 22.92 LIG 0.04  C 
BRANCH 34 36
ATOM     36 OG1  THR B   3      34.238  53.660  14.005  1.00 22.47 LIG-0.39  OA
ATOM     37 HG1  THR B   3      33.467  53.605  13.675  1.00 22.47 LIG 0.21  HD
ENDBRANCH 34 36
ENDBRANCH 6 34
ENDBRANCH 4 6
ENDBRANCH 1 2
BRANCH 1 38
ATOM     38  CB  LYS B   4      40.385  52.590  10.722  1.00 32.55 LIG 0.04  C 
BRANCH 38 39
ATOM     39  CG  LYS B   4      40.206  51.333  11.525  1.00 30.49 LIG 0.00  C 
BRANCH 39 40
ATOM     40  CD  LYS B   4      40.697  50.124  10.729  1.00 34.18 LIG 0.03  C 
BRANCH 40 41
ATOM     41  CE  LYS B   4      40.130  48.835  11.298  1.00 33.34 LIG 0.23  C 
BRANCH 41 42
ATOM     42  NZ  LYS B   4      41.094  48.075  12.133  1.00 36.76 LIG-0.08  N 
ATOM     43 HZ1  LYS B   4      40.938  47.204  12.048  1.00 36.76 LIG 0.27  HD
ATOM     44 HZ2  LYS B   4      41.924  48.254  11.866  1.00 36.76 LIG 0.27  HD
ATOM     45 HZ3  LYS B   4      41.001  48.313  12.985  1.00 36.76 LIG 0.27  HD
ENDBRANCH 41 42
ENDBRANCH 40 41
ENDBRANCH 39 40
ENDBRANCH 38 39
ENDBRANCH 1 38
BRANCH 1 46
ATOM     46  C   LYS B   4      39.000  54.458   9.911  1.00 34.41 LIG 0.24  C 
ATOM     47  N   GLN B   5      39.865  55.325   9.402  1.00 39.81 LIG-0.35  N 
ATOM     48 H    GLN B   5      40.675  55.432   9.672  1.00 39.81 LIG 0.16  HD
ATOM     49 O    LYS B   4      37.873  54.248   9.420  1.00 33.27 LIG-0.27  OA
BRANCH 47 50
ATOM     50  CA  GLN B   5      39.451  56.185   8.294  1.00 46.50 LIG 0.18  C 
BRANCH 50 51
ATOM     51  C   GLN B   5      38.538  57.324   8.753  1.00 52.91 LIG 0.24  C 
ATOM     52  N   THR B   6      38.296  58.274   7.841  1.00 59.38 LIG-0.34  N 
ATOM     53 H    THR B   6      38.499  58.182   7.010  1.00 59.38 LIG 0.16  HD
ATOM     54 O    GLN B   5      38.129  57.367   9.904  1.00 55.19 LIG-0.27  OA
BRANCH 52 55
ATOM     55  CA  THR B   6      37.653  59.594   8.150  1.00 66.40 LIG 0.20  C 
BRANCH 55 56
ATOM     56  CB  THR B   6      37.086  60.308   6.875  1.00 64.05 LIG 0.15  C 
ATOM     57  CG2 THR B   6      35.736  59.719   6.483  1.00 70.60 LIG 0.04  C 
BRANCH 56 58
ATOM     58 OG1  THR B   6      36.941  61.724   7.082  1.00 62.34 LIG-0.39  OA
ATOM     59 HG1  THR B   6      37.462  62.138   6.569  1.00 62.34 LIG 0.21  HD
ENDBRANCH 56 58
ENDBRANCH 55 56
BRANCH 55 60
ATOM     60  C   THR B   6      36.454  59.471   9.135  1.00 68.19 LIG 0.24  C 
ATOM     61 O    THR B   6      35.723  58.457   9.125  1.00 63.20 LIG-0.27  OA
ATOM     62  N   ALA B   7      36.247  60.504   9.958  1.00 78.65 LIG-0.35  N 
ATOM     63 H    ALA B   7      36.801  61.155  10.051  1.00 78.65 LIG 0.16  HD
BRANCH 62 64
ATOM     64  CA  ALA B   7      35.042  60.621  10.784  1.00 81.14 LIG 0.16  C 
ATOM     65  CB  ALA B   7      35.252  59.945  12.141  1.00 91.84 LIG 0.04  C 
BRANCH 64 66
ATOM     66  C   ALA B   7      34.669  62.100  10.978  1.00 81.58 LIG 0.22  C 
ATOM     67 O    ALA B   7      34.134  62.494  12.018  1.00 77.41 LIG-0.29  OA
ENDBRANCH 64 66
ENDBRANCH 62 64
ENDBRANCH 55 60
ENDBRANCH 52 55
ENDBRANCH 50 51
BRANCH 50 68
ATOM     68  CB  GLN B   5      38.848  55.413   7.107  1.00 52.07 LIG 0.04  C 
BRANCH 68 69
ATOM     69  CG  GLN B   5      39.486  55.576   5.749  1.00 55.77 LIG 0.10  C 
BRANCH 69 70
ATOM     70  CD  GLN B   5      40.219  54.310   5.330  1.00 63.27 LIG 0.21  C 
ATOM     71  NE2 GLN B   5      40.370  54.127   4.032  1.00 63.75 LIG-0.37  N 
ATOM     72 21HE GLN B   5      40.068  54.712   3.478  1.00 63.75 LIG 0.16  HD
ATOM     73 22HE GLN B   5      40.770  53.424   3.741  1.00 63.75 LIG 0.16  HD
ATOM     74 OE1  GLN B   5      40.628  53.513   6.150  1.00 68.43 LIG-0.27  OA
ENDBRANCH 69 70
ENDBRANCH 68 69
ENDBRANCH 50 68
ENDBRANCH 47 50
ENDBRANCH 1 46
TORSDOF 30
ENDMDL
MODEL 4
USER: ADFR SOLUTION from run 177
USER: SCORE 24.694806 LL:  -4.739 LR: -21.114 RR:   0.000 FEB: -12.165
USER: RMSD 9.329564
USER: SEED 176
USER: STATUS no improvement in best in 2 clusters for 5 generations
USER: GENES 32
USER: genes 0 Translation |==|  0.66501 0.23070 0.39405
USER: genes 1 Rotation |==|  0.19274 0.68360 0.73187 0.76100
USER: genes 2 Torsion [C]-CA--N-[C] |==|  0.67617
USER: genes 3 Torsion [N]-C--CA-[N] |==|  0.62283
USER: genes 4 Torsion [C]-CA--N-[C] |==|  0.17183
USER: genes 5 Torsion [N]-C--CA-[N] |==|  0.13193
USER: genes 6 Torsion [C]-CA--CB-[CG] |==|  0.17071
USER: genes 7 Torsion [CA]-CB--CG-[CD] |==|  0.41766
USER: genes 8 Torsion [CB]-CG--CD-[NE] |==|  0.87546
USER: genes 9 Torsion [CG]-CD--NE-[CZ] |==|  0.43360
USER: genes 10 Torsion [C]-CA--N-[C] |==|  0.15892
USER: genes 11 Torsion [N]-C--CA-[N] |==|  0.04060
USER: genes 12 Torsion [C]-CA--N-[H1] |==|  0.53781
USER: genes 13 Torsion [C]-CA--CB-[CG2] |==|  0.22810
USER: genes 14 Torsion [CA]-CB--OG1-[HG1] |==|  0.49768
USER: genes 15 Torsion [N]-CA--CB-[CG] |==|  0.91661
USER: genes 16 Torsion [CA]-CB--CG-[CD] |==|  0.26598
USER: genes 17 Torsion [CB]-CG--CD-[CE] |==|  0.99465
USER: genes 18 Torsion [CG]-CD--CE-[NZ] |==|  0.47699
USER: genes 19 Torsion [CD]-CE--NZ-[HZ1] |==|  0.04806
USER: genes 20 Torsion [N]-CA--C-[N] |==|  0.99474
USER: genes 21 Torsion [C]-N--CA-[CB] |==|  0.85551
USER: genes 22 Torsion [N]-CA--C-[N] |==|  0.88334
USER: genes 23 Torsion [C]-N--CA-[CB] |==|  0.76532
USER: genes 24 Torsion [N]-CA--CB-[CG2] |==|  0.44983
USER: genes 25 Torsion [CA]-CB--OG1-[HG1] |==|  0.50944
USER: genes 26 Torsion [N]-CA--C-[N] |==|  0.29168
USER: genes 27 Torsion [C]-N--CA-[CB] |==|  0.31169
USER: genes 28 Torsion [N]-CA--C-[O] |==|  0.04371
USER: genes 29 Torsion [N]-CA--CB-[CG] |==|  0.36225
USER: genes 30 Torsion [CA]-CB--CG-[CD] |==|  0.67843
USER: genes 31 Torsion [CB]-CG--CD-[NE2] |==|  0.46001
ROOT
ATOM      1  CA  LYS B   4      38.207  49.060   8.268  1.00 30.17 LIG 0.18  C 
ENDROOT
BRANCH 1 2
ATOM      2  N   LYS B   4      39.436  49.816   8.131  1.00 25.68 LIG-0.35  N 
ATOM      3 H    LYS B   4      39.968  49.743   8.803  1.00 25.68 LIG 0.16  HD
ATOM      4  C   THR B   3      39.709  50.558   7.052  1.00 23.58 LIG 0.24  C 
ATOM      5 O    THR B   3      38.958  50.649   6.074  1.00 24.56 LIG-0.27  OA
BRANCH 4 6
ATOM      6  CA  THR B   3      41.026  51.337   7.077  1.00 21.46 LIG 0.20  C 
BRANCH 6 7
ATOM      7  N   THR B   3      40.853  52.694   6.601  1.00 21.22 LIG-0.34  N 
ATOM      8 H    THR B   3      41.309  52.875   5.895  1.00 21.22 LIG 0.16  HD
ATOM      9  C   ARG B   2      40.071  53.562   7.197  1.00 21.22 LIG 0.24  C 
ATOM     10 O    ARG B   2      39.445  53.295   8.190  1.00 22.30 LIG-0.27  OA
BRANCH 9 11
ATOM     11  CA  ARG B   2      39.973  54.947   6.539  1.00 22.28 LIG 0.18  C 
BRANCH 11 12
ATOM     12  CB  ARG B   2      38.808  55.773   7.095  1.00 24.95 LIG 0.04  C 
BRANCH 12 13
ATOM     13  CG  ARG B   2      38.826  56.114   8.568  1.00 25.01 LIG 0.02  C 
BRANCH 13 14
ATOM     14  CD  ARG B   2      38.098  57.454   8.788  1.00 28.81 LIG 0.14  C 
BRANCH 14 15
ATOM     15  NE  ARG B   2      38.445  58.512   7.838  1.00 31.55 LIG-0.23  N 
ATOM     16 HE   ARG B   2      39.209  58.456   7.447  1.00 31.55 LIG 0.18  HD
ATOM     17  CZ  ARG B   2      37.670  59.561   7.528  1.00 33.58 LIG 0.67  C 
ATOM     18  NH2 ARG B   2      36.449  59.688   8.033  1.00 33.13 LIG-0.23  N 
ATOM     19  NH1 ARG B   2      38.107  60.476   6.686  1.00 37.12 LIG-0.23  N 
ATOM     20 1HH2 ARG B   2      36.141  59.091   8.570  1.00 33.13 LIG 0.17  HD
ATOM     21 2HH2 ARG B   2      35.965  60.368   7.822  1.00 33.13 LIG 0.17  HD
ATOM     22 2HH1 ARG B   2      37.609  61.150   6.487  1.00 37.12 LIG 0.17  HD
ATOM     23 1HH1 ARG B   2      38.888  60.400   6.335  1.00 37.12 LIG 0.17  HD
ENDBRANCH 14 15
ENDBRANCH 13 14
ENDBRANCH 12 13
ENDBRANCH 11 12
BRANCH 11 24
ATOM     24  N   ARG B   2      39.748  54.780   5.116  1.00 22.27 LIG-0.35  N 
ATOM     25  C   ALA B   1      38.702  54.090   4.690  1.00 22.85 LIG 0.25  C 
ATOM     26 O    ALA B   1      37.895  53.572   5.470  1.00 22.62 LIG-0.27  OA
ATOM     27 H    ARG B   2      40.332  55.153   4.606  1.00 22.27 LIG 0.16  HD
BRANCH 25 28
ATOM     28  CA  ALA B   1      38.565  53.939   3.165  1.00 23.76 LIG 0.27  C 
ATOM     29  CB  ALA B   1      38.126  52.532   2.778  1.00 24.39 LIG 0.05  C 
BRANCH 28 30
ATOM     30  N   ALA B   1      39.789  54.293   2.458  1.00 25.03 LIG-0.07  N 
ATOM     31 H1   ALA B   1      39.615  54.384   1.589  1.00 25.03 LIG 0.28  HD
ATOM     32 H3   ALA B   1      40.396  53.652   2.573  1.00 25.03 LIG 0.28  HD
ATOM     33 H2   ALA B   1      40.106  55.061   2.778  1.00 25.03 LIG 0.28  HD
ENDBRANCH 28 30
ENDBRANCH 25 28
ENDBRANCH 11 24
ENDBRANCH 9 11
ENDBRANCH 6 7
BRANCH 6 34
ATOM     34  CB  THR B   3      41.612  51.331   8.484  1.00 21.53 LIG 0.15  C 
ATOM     35  CG2 THR B   3      42.357  50.083   8.757  1.00 22.92 LIG 0.04  C 
BRANCH 34 36
ATOM     36 OG1  THR B   3      42.492  52.440   8.602  1.00 22.47 LIG-0.39  OA
ATOM     37 HG1  THR B   3      42.816  52.460   9.377  1.00 22.47 LIG 0.21  HD
ENDBRANCH 34 36
ENDBRANCH 6 34
ENDBRANCH 4 6
ENDBRANCH 1 2
BRANCH 1 38
ATOM     38  CB  LYS B   4      38.524  47.603   8.482  1.00 32.55 LIG 0.04  C 
BRANCH 38 39
ATOM     39  CG  LYS B   4      39.804  47.174   7.823  1.00 30.49 LIG 0.00  C 
BRANCH 39 40
ATOM     40  CD  LYS B   4      40.955  47.221   8.828  1.00 34.18 LIG 0.03  C 
BRANCH 40 41
ATOM     41  CE  LYS B   4      40.476  47.730  10.177  1.00 33.34 LIG 0.23  C 
BRANCH 41 42
ATOM     42  NZ  LYS B   4      41.492  47.619  11.253  1.00 36.76 LIG-0.08  N 
ATOM     43 HZ1  LYS B   4      42.297  47.505  10.891  1.00 36.76 LIG 0.27  HD
ATOM     44 HZ2  LYS B   4      41.491  48.363  11.742  1.00 36.76 LIG 0.27  HD
ATOM     45 HZ3  LYS B   4      41.300  46.923  11.773  1.00 36.76 LIG 0.27  HD
ENDBRANCH 41 42
ENDBRANCH 40 41
ENDBRANCH 39 40
ENDBRANCH 38 39
ENDBRANCH 1 38
BRANCH 1 46
ATOM     46  C   LYS B   4      37.415  49.587   9.429  1.00 34.41 LIG 0.24  C 
ATOM     47  N   GLN B   5      37.956  50.577  10.127  1.00 39.81 LIG-0.35  N 
ATOM     48 H    GLN B   5      38.689  50.980   9.928  1.00 39.81 LIG 0.16  HD
ATOM     49 O    LYS B   4      36.293  49.105   9.683  1.00 33.27 LIG-0.27  OA
BRANCH 47 50
ATOM     50  CA  GLN B   5      37.285  51.051  11.337  1.00 46.50 LIG 0.18  C 
BRANCH 50 51
ATOM     51  C   GLN B   5      37.475  50.095  12.518  1.00 52.91 LIG 0.24  C 
ATOM     52  N   THR B   6      37.368  48.792  12.229  1.00 59.38 LIG-0.34  N 
ATOM     53 H    THR B   6      37.355  48.495  11.422  1.00 59.38 LIG 0.16  HD
ATOM     54 O    GLN B   5      37.644  50.529  13.647  1.00 55.19 LIG-0.27  OA
BRANCH 52 55
ATOM     55  CA  THR B   6      37.258  47.707  13.260  1.00 66.40 LIG 0.20  C 
BRANCH 55 56
ATOM     56  CB  THR B   6      38.653  47.240  13.802  1.00 64.05 LIG 0.15  C 
ATOM     57  CG2 THR B   6      38.495  46.491  15.121  1.00 70.60 LIG 0.04  C 
BRANCH 56 58
ATOM     58 OG1  THR B   6      39.331  46.394  12.857  1.00 62.34 LIG-0.39  OA
ATOM     59 HG1  THR B   6      40.052  46.121  13.192  1.00 62.34 LIG 0.21  HD
ENDBRANCH 56 58
ENDBRANCH 55 56
BRANCH 55 60
ATOM     60  C   THR B   6      36.440  48.139  14.512  1.00 68.19 LIG 0.24  C 
ATOM     61 O    THR B   6      36.944  48.893  15.374  1.00 63.20 LIG-0.27  OA
ATOM     62  N   ALA B   7      35.202  47.647  14.617  1.00 78.65 LIG-0.35  N 
ATOM     63 H    ALA B   7      34.806  47.219  13.985  1.00 78.65 LIG 0.16  HD
BRANCH 62 64
ATOM     64  CA  ALA B   7      34.398  47.793  15.834  1.00 81.14 LIG 0.16  C 
ATOM     65  CB  ALA B   7      33.204  48.717  15.583  1.00 91.84 LIG 0.04  C 
BRANCH 64 66
ATOM     66  C   ALA B   7      33.915  46.418  16.323  1.00 81.58 LIG 0.22  C 
ATOM     67 O    ALA B   7      34.426  45.374  15.906  1.00 77.41 LIG-0.29  OA
ENDBRANCH 64 66
ENDBRANCH 62 64
ENDBRANCH 55 60
ENDBRANCH 52 55
ENDBRANCH 50 51
BRANCH 50 68
ATOM     68  CB  GLN B   5      35.803  51.404  11.122  1.00 52.07 LIG 0.04  C 
BRANCH 68 69
ATOM     69  CG  GLN B   5      34.785  50.835  12.082  1.00 55.77 LIG 0.10  C 
BRANCH 69 70
ATOM     70  CD  GLN B   5      33.828  49.889  11.371  1.00 63.27 LIG 0.21  C 
ATOM     71  NE2 GLN B   5      33.093  49.114  12.146  1.00 63.75 LIG-0.37  N 
ATOM     72 21HE GLN B   5      33.166  49.169  13.001  1.00 63.75 LIG 0.16  HD
ATOM     73 22HE GLN B   5      32.542  48.556  11.796  1.00 63.75 LIG 0.16  HD
ATOM     74 OE1  GLN B   5      33.760  49.848  10.159  1.00 68.43 LIG-0.27  OA
ENDBRANCH 69 70
ENDBRANCH 68 69
ENDBRANCH 50 68
ENDBRANCH 47 50
ENDBRANCH 1 46
TORSDOF 30
ENDMDL
MODEL 5
USER: ADFR SOLUTION from run 133
USER: SCORE 22.884836 LL:  -4.083 LR: -21.055 RR:   0.000 FEB: -12.106
USER: RMSD 8.936941
USER: SEED 132
USER: STATUS searching
USER: GENES 32
USER: genes 0 Translation |==|  0.61526 0.26913 0.52955
USER: genes 1 Rotation |==|  0.87042 0.47718 0.48754 0.83483
USER: genes 2 Torsion [C]-CA--N-[C] |==|  0.70167
USER: genes 3 Torsion [N]-C--CA-[N] |==|  0.05810
USER: genes 4 Torsion [C]-CA--N-[C] |==|  0.19444
USER: genes 5 Torsion [N]-C--CA-[N] |==|  0.52874
USER: genes 6 Torsion [C]-CA--CB-[CG] |==|  0.74847
USER: genes 7 Torsion [CA]-CB--CG-[CD] |==|  0.58389
USER: genes 8 Torsion [CB]-CG--CD-[NE] |==|  0.14900
USER: genes 9 Torsion [CG]-CD--NE-[CZ] |==|  0.24208
USER: genes 10 Torsion [C]-CA--N-[C] |==|  0.52929
USER: genes 11 Torsion [N]-C--CA-[N] |==|  0.35372
USER: genes 12 Torsion [C]-CA--N-[H1] |==|  0.77450
USER: genes 13 Torsion [C]-CA--CB-[CG2] |==|  0.22813
USER: genes 14 Torsion [CA]-CB--OG1-[HG1] |==|  0.28924
USER: genes 15 Torsion [N]-CA--CB-[CG] |==|  0.94057
USER: genes 16 Torsion [CA]-CB--CG-[CD] |==|  0.74956
USER: genes 17 Torsion [CB]-CG--CD-[CE] |==|  0.18882
USER: genes 18 Torsion [CG]-CD--CE-[NZ] |==|  0.34590
USER: genes 19 Torsion [CD]-CE--NZ-[HZ1] |==|  0.13984
USER: genes 20 Torsion [N]-CA--C-[N] |==|  0.70256
USER: genes 21 Torsion [C]-N--CA-[CB] |==|  0.80319
USER: genes 22 Torsion [N]-CA--C-[N] |==|  0.46526
USER: genes 23 Torsion [C]-N--CA-[CB] |==|  0.53098
USER: genes 24 Torsion [N]-CA--CB-[CG2] |==|  0.53975
USER: genes 25 Torsion [CA]-CB--OG1-[HG1] |==|  0.28789
USER: genes 26 Torsion [N]-CA--C-[N] |==|  0.29108
USER: genes 27 Torsion [C]-N--CA-[CB] |==|  0.83085
USER: genes 28 Torsion [N]-CA--C-[O] |==|  0.98181
USER: genes 29 Torsion [N]-CA--CB-[CG] |==|  0.91923
USER: genes 30 Torsion [CA]-CB--CG-[CD] |==|  0.77605
USER: genes 31 Torsion [CB]-CG--CD-[NE2] |==|  0.75366
ROOT
ATOM      1  CA  LYS B   4      37.050  49.925  11.520  1.00 30.17 LIG 0.18  C 
ENDROOT
BRANCH 1 2
ATOM      2  N   LYS B   4      37.564  49.483  10.238  1.00 25.68 LIG-0.35  N 
ATOM      3 H    LYS B   4      37.208  49.881   9.564  1.00 25.68 LIG 0.16  HD
ATOM      4  C   THR B   3      38.507  48.542  10.125  1.00 23.58 LIG 0.24  C 
ATOM      5 O    THR B   3      39.038  47.983  11.092  1.00 24.56 LIG-0.27  OA
BRANCH 4 6
ATOM      6  CA  THR B   3      38.911  48.150   8.702  1.00 21.46 LIG 0.20  C 
BRANCH 6 7
ATOM      7  N   THR B   3      38.566  49.181   7.746  1.00 21.22 LIG-0.34  N 
ATOM      8 H    THR B   3      37.925  48.963   7.217  1.00 21.22 LIG 0.16  HD
ATOM      9  C   ARG B   2      39.181  50.339   7.696  1.00 21.22 LIG 0.24  C 
ATOM     10 O    ARG B   2      40.084  50.625   8.440  1.00 22.30 LIG-0.27  OA
BRANCH 9 11
ATOM     11  CA  ARG B   2      38.667  51.334   6.645  1.00 22.28 LIG 0.18  C 
BRANCH 11 12
ATOM     12  CB  ARG B   2      38.563  50.707   5.252  1.00 24.95 LIG 0.04  C 
BRANCH 12 13
ATOM     13  CG  ARG B   2      39.769  50.803   4.344  1.00 25.01 LIG 0.02  C 
BRANCH 13 14
ATOM     14  CD  ARG B   2      39.298  50.845   2.877  1.00 28.81 LIG 0.14  C 
BRANCH 14 15
ATOM     15  NE  ARG B   2      38.311  51.881   2.571  1.00 31.55 LIG-0.23  N 
ATOM     16 HE   ARG B   2      37.481  51.662   2.619  1.00 31.55 LIG 0.18  HD
ATOM     17  CZ  ARG B   2      38.594  53.144   2.222  1.00 33.58 LIG 0.67  C 
ATOM     18  NH2 ARG B   2      39.845  53.585   2.190  1.00 33.13 LIG-0.23  N 
ATOM     19  NH1 ARG B   2      37.619  53.981   1.928  1.00 37.12 LIG-0.23  N 
ATOM     20 1HH2 ARG B   2      40.493  53.058   2.395  1.00 33.13 LIG 0.17  HD
ATOM     21 2HH2 ARG B   2      40.009  54.399   1.963  1.00 33.13 LIG 0.17  HD
ATOM     22 2HH1 ARG B   2      37.801  54.791   1.704  1.00 37.12 LIG 0.17  HD
ATOM     23 1HH1 ARG B   2      36.801  53.717   1.961  1.00 37.12 LIG 0.17  HD
ENDBRANCH 14 15
ENDBRANCH 13 14
ENDBRANCH 12 13
ENDBRANCH 11 12
BRANCH 11 24
ATOM     24  N   ARG B   2      39.594  52.446   6.554  1.00 22.27 LIG-0.35  N 
ATOM     25  C   ALA B   1      39.261  53.529   5.870  1.00 22.85 LIG 0.25  C 
ATOM     26 O    ALA B   1      38.171  53.633   5.295  1.00 22.62 LIG-0.27  OA
ATOM     27 H    ARG B   2      40.341  52.335   6.967  1.00 22.27 LIG 0.16  HD
BRANCH 25 28
ATOM     28  CA  ALA B   1      40.320  54.642   5.804  1.00 23.76 LIG 0.27  C 
ATOM     29  CB  ALA B   1      39.923  55.846   6.648  1.00 24.39 LIG 0.05  C 
BRANCH 28 30
ATOM     30  N   ALA B   1      40.602  55.061   4.436  1.00 25.03 LIG-0.07  N 
ATOM     31 H1   ALA B   1      41.172  54.489   4.061  1.00 25.03 LIG 0.28  HD
ATOM     32 H3   ALA B   1      40.961  55.876   4.443  1.00 25.03 LIG 0.28  HD
ATOM     33 H2   ALA B   1      39.846  55.076   3.968  1.00 25.03 LIG 0.28  HD
ENDBRANCH 28 30
ENDBRANCH 25 28
ENDBRANCH 11 24
ENDBRANCH 9 11
ENDBRANCH 6 7
BRANCH 6 34
ATOM     34  CB  THR B   3      40.403  47.841   8.647  1.00 21.53 LIG 0.15  C 
ATOM     35  CG2 THR B   3      40.689  46.462   9.098  1.00 22.92 LIG 0.04  C 
BRANCH 34 36
ATOM     36 OG1  THR B   3      40.839  47.998   7.304  1.00 22.47 LIG-0.39  OA
ATOM     37 HG1  THR B   3      41.262  48.720   7.229  1.00 22.47 LIG 0.21  HD
ENDBRANCH 34 36
ENDBRANCH 6 34
ENDBRANCH 4 6
ENDBRANCH 1 2
BRANCH 1 38
ATOM     38  CB  LYS B   4      37.044  51.429  11.578  1.00 32.55 LIG 0.04  C 
BRANCH 38 39
ATOM     39  CG  LYS B   4      37.992  52.062  10.600  1.00 30.49 LIG 0.00  C 
BRANCH 39 40
ATOM     40  CD  LYS B   4      39.365  52.254  11.244  1.00 34.18 LIG 0.03  C 
BRANCH 40 41
ATOM     41  CE  LYS B   4      40.032  50.913  11.504  1.00 33.34 LIG 0.23  C 
BRANCH 41 42
ATOM     42  NZ  LYS B   4      41.377  50.786  10.888  1.00 36.76 LIG-0.08  N 
ATOM     43 HZ1  LYS B   4      41.871  51.494  11.104  1.00 36.76 LIG 0.27  HD
ATOM     44 HZ2  LYS B   4      41.773  50.047  11.187  1.00 36.76 LIG 0.27  HD
ATOM     45 HZ3  LYS B   4      41.296  50.741  10.003  1.00 36.76 LIG 0.27  HD
ENDBRANCH 41 42
ENDBRANCH 40 41
ENDBRANCH 39 40
ENDBRANCH 38 39
ENDBRANCH 1 38
BRANCH 1 46
ATOM     46  C   LYS B   4      35.657  49.399  11.715  1.00 34.41 LIG 0.24  C 
ATOM     47  N   GLN B   5      34.665  50.272  11.615  1.00 39.81 LIG-0.35  N 
ATOM     48 H    GLN B   5      34.751  51.096  11.385  1.00 39.81 LIG 0.16  HD
ATOM     49 O    LYS B   4      35.481  48.184  11.938  1.00 33.27 LIG-0.27  OA
BRANCH 47 50
ATOM     50  CA  GLN B   5      33.299  49.841  11.910  1.00 46.50 LIG 0.18  C 
BRANCH 50 51
ATOM     51  C   GLN B   5      33.165  49.265  13.322  1.00 52.91 LIG 0.24  C 
ATOM     52  N   THR B   6      31.910  49.092  13.759  1.00 59.38 LIG-0.34  N 
ATOM     53 H    THR B   6      31.227  49.143  13.239  1.00 59.38 LIG 0.16  HD
ATOM     54 O    GLN B   5      34.156  49.052  14.003  1.00 55.19 LIG-0.27  OA
BRANCH 52 55
ATOM     55  CA  THR B   6      31.548  48.793  15.184  1.00 66.40 LIG 0.20  C 
BRANCH 55 56
ATOM     56  CB  THR B   6      30.049  48.368  15.354  1.00 64.05 LIG 0.15  C 
ATOM     57  CG2 THR B   6      29.638  48.418  16.822  1.00 70.60 LIG 0.04  C 
BRANCH 56 58
ATOM     58 OG1  THR B   6      29.170  49.211  14.589  1.00 62.34 LIG-0.39  OA
ATOM     59 HG1  THR B   6      28.919  48.801  13.900  1.00 62.34 LIG 0.21  HD
ENDBRANCH 56 58
ENDBRANCH 55 56
BRANCH 55 60
ATOM     60  C   THR B   6      32.389  47.633  15.794  1.00 68.19 LIG 0.24  C 
ATOM     61 O    THR B   6      32.144  46.444  15.497  1.00 63.20 LIG-0.27  OA
ATOM     62  N   ALA B   7      33.352  47.980  16.654  1.00 78.65 LIG-0.35  N 
ATOM     63 H    ALA B   7      33.602  48.793  16.784  1.00 78.65 LIG 0.16  HD
BRANCH 62 64
ATOM     64  CA  ALA B   7      34.077  46.996  17.461  1.00 81.14 LIG 0.16  C 
ATOM     65  CB  ALA B   7      33.115  46.239  18.380  1.00 91.84 LIG 0.04  C 
BRANCH 64 66
ATOM     66  C   ALA B   7      34.832  46.011  16.553  1.00 81.58 LIG 0.22  C 
ATOM     67 O    ALA B   7      34.687  46.032  15.327  1.00 77.41 LIG-0.29  OA
ENDBRANCH 64 66
ENDBRANCH 62 64
ENDBRANCH 55 60
ENDBRANCH 52 55
ENDBRANCH 50 51
BRANCH 50 68
ATOM     68  CB  GLN B   5      32.708  48.895  10.850  1.00 52.07 LIG 0.04  C 
BRANCH 68 69
ATOM     69  CG  GLN B   5      33.192  49.025   9.426  1.00 55.77 LIG 0.10  C 
BRANCH 69 70
ATOM     70  CD  GLN B   5      32.492  50.171   8.710  1.00 63.27 LIG 0.21  C 
ATOM     71  NE2 GLN B   5      31.360  49.874   8.102  1.00 63.75 LIG-0.37  N 
ATOM     72 21HE GLN B   5      31.055  49.070   8.132  1.00 63.75 LIG 0.16  HD
ATOM     73 22HE GLN B   5      30.928  50.483   7.676  1.00 63.75 LIG 0.16  HD
ATOM     74 OE1  GLN B   5      32.963  51.292   8.695  1.00 68.43 LIG-0.27  OA
ENDBRANCH 69 70
ENDBRANCH 68 69
ENDBRANCH 50 68
ENDBRANCH 47 50
ENDBRANCH 1 46
TORSDOF 30
ENDMDL
MODEL 6
USER: ADFR SOLUTION from run 101
USER: SCORE 22.130632 LL:  -3.556 LR: -21.061 RR:   0.000 FEB: -12.112
USER: RMSD 6.411602
USER: SEED 100
USER: STATUS searching
USER: GENES 32
USER: genes 0 Translation |==|  0.75161 0.55382 0.43669
USER: genes 1 Rotation |==|  0.48695 0.40717 0.52717 0.99038
USER: genes 2 Torsion [C]-CA--N-[C] |==|  0.16159
USER: genes 3 Torsion [N]-C--CA-[N] |==|  0.37472
USER: genes 4 Torsion [C]-CA--N-[C] |==|  0.79641
USER: genes 5 Torsion [N]-C--CA-[N] |==|  0.12456
USER: genes 6 Torsion [C]-CA--CB-[CG] |==|  0.86970
USER: genes 7 Torsion [CA]-CB--CG-[CD] |==|  0.45838
USER: genes 8 Torsion [CB]-CG--CD-[NE] |==|  0.62120
USER: genes 9 Torsion [CG]-CD--NE-[CZ] |==|  0.54106
USER: genes 10 Torsion [C]-CA--N-[C] |==|  0.76941
USER: genes 11 Torsion [N]-C--CA-[N] |==|  0.82214
USER: genes 12 Torsion [C]-CA--N-[H1] |==|  0.14606
USER: genes 13 Torsion [C]-CA--CB-[CG2] |==|  0.86373
USER: genes 14 Torsion [CA]-CB--OG1-[HG1] |==|  0.22757
USER: genes 15 Torsion [N]-CA--CB-[CG] |==|  0.27059
USER: genes 16 Torsion [CA]-CB--CG-[CD] |==|  0.64838
USER: genes 17 Torsion [CB]-CG--CD-[CE] |==|  0.59609
USER: genes 18 Torsion [CG]-CD--CE-[NZ] |==|  0.33787
USER: genes 19 Torsion [CD]-CE--NZ-[HZ1] |==|  0.32038
USER: genes 20 Torsion [N]-CA--C-[N] |==|  0.49347
USER: genes 21 Torsion [C]-N--CA-[CB] |==|  0.17643
USER: genes 22 Torsion [N]-CA--C-[N] |==|  0.97380
USER: genes 23 Torsion [C]-N--CA-[CB] |==|  0.75764
USER: genes 24 Torsion [N]-CA--CB-[CG2] |==|  0.09075
USER: genes 25 Torsion [CA]-CB--OG1-[HG1] |==|  0.79664
USER: genes 26 Torsion [N]-CA--C-[N] |==|  0.23585
USER: genes 27 Torsion [C]-N--CA-[CB] |==|  0.25486
USER: genes 28 Torsion [N]-CA--C-[O] |==|  0.25642
USER: genes 29 Torsion [N]-CA--CB-[CG] |==|  0.28429
USER: genes 30 Torsion [CA]-CB--CG-[CD] |==|  0.46752
USER: genes 31 Torsion [CB]-CG--CD-[NE2] |==|  0.45205
ROOT
ATOM      1  CA  LYS B   4      40.220  56.330   9.292  1.00 30.17 LIG 0.18  C 
ENDROOT
BRANCH 1 2
ATOM      2  N   LYS B   4      40.637  55.167  10.051  1.00 25.68 LIG-0.35  N 
ATOM      3 H    LYS B   4      41.205  55.342  10.673  1.00 25.68 LIG 0.16  HD
ATOM      4  C   THR B   3      40.174  53.938   9.800  1.00 23.58 LIG 0.24  C 
ATOM      5 O    THR B   3      39.340  53.685   8.922  1.00 24.56 LIG-0.27  OA
BRANCH 4 6
ATOM      6  CA  THR B   3      40.746  52.806  10.656  1.00 21.46 LIG 0.20  C 
BRANCH 6 7
ATOM      7  N   THR B   3      39.706  51.917  11.130  1.00 21.22 LIG-0.34  N 
ATOM      8 H    THR B   3      39.694  51.154  10.734  1.00 21.22 LIG 0.16  HD
ATOM      9  C   ARG B   2      38.862  52.251  12.077  1.00 21.22 LIG 0.24  C 
ATOM     10 O    ARG B   2      38.888  53.327  12.618  1.00 22.30 LIG-0.27  OA
BRANCH 9 11
ATOM     11  CA  ARG B   2      37.844  51.176  12.487  1.00 22.28 LIG 0.18  C 
BRANCH 11 12
ATOM     12  CB  ARG B   2      37.179  51.488  13.831  1.00 24.95 LIG 0.04  C 
BRANCH 12 13
ATOM     13  CG  ARG B   2      38.071  51.907  14.979  1.00 25.01 LIG 0.02  C 
BRANCH 13 14
ATOM     14  CD  ARG B   2      37.206  52.526  16.094  1.00 28.81 LIG 0.14  C 
BRANCH 14 15
ATOM     15  NE  ARG B   2      37.745  53.748  16.692  1.00 31.55 LIG-0.23  N 
ATOM     16 HE   ARG B   2      38.381  54.146  16.271  1.00 31.55 LIG 0.18  HD
ATOM     17  CZ  ARG B   2      37.329  54.299  17.841  1.00 33.58 LIG 0.67  C 
ATOM     18  NH2 ARG B   2      36.308  53.789  18.519  1.00 33.13 LIG-0.23  N 
ATOM     19  NH1 ARG B   2      37.919  55.382  18.304  1.00 37.12 LIG-0.23  N 
ATOM     20 1HH2 ARG B   2      35.900  53.092  18.222  1.00 33.13 LIG 0.17  HD
ATOM     21 2HH2 ARG B   2      36.054  54.155  19.255  1.00 33.13 LIG 0.17  HD
ATOM     22 2HH1 ARG B   2      37.653  55.736  19.042  1.00 37.12 LIG 0.17  HD
ATOM     23 1HH1 ARG B   2      38.571  55.737  17.869  1.00 37.12 LIG 0.17  HD
ENDBRANCH 14 15
ENDBRANCH 13 14
ENDBRANCH 12 13
ENDBRANCH 11 12
BRANCH 11 24
ATOM     24  N   ARG B   2      38.529  49.905  12.625  1.00 22.27 LIG-0.35  N 
ATOM     25  C   ALA B   1      38.760  49.160  11.556  1.00 22.85 LIG 0.25  C 
ATOM     26 O    ALA B   1      38.408  49.510  10.423  1.00 22.62 LIG-0.27  OA
ATOM     27 H    ARG B   2      38.757  49.696  13.428  1.00 22.27 LIG 0.16  HD
BRANCH 25 28
ATOM     28  CA  ALA B   1      39.463  47.815  11.805  1.00 23.76 LIG 0.27  C 
ATOM     29  CB  ALA B   1      38.649  46.918  12.729  1.00 24.39 LIG 0.05  C 
BRANCH 28 30
ATOM     30  N   ALA B   1      40.813  47.981  12.331  1.00 25.03 LIG-0.07  N 
ATOM     31 H1   ALA B   1      40.790  48.510  13.047  1.00 25.03 LIG 0.28  HD
ATOM     32 H3   ALA B   1      41.332  48.347  11.708  1.00 25.03 LIG 0.28  HD
ATOM     33 H2   ALA B   1      41.141  47.186  12.561  1.00 25.03 LIG 0.28  HD
ENDBRANCH 28 30
ENDBRANCH 25 28
ENDBRANCH 11 24
ENDBRANCH 9 11
ENDBRANCH 6 7
BRANCH 6 34
ATOM     34  CB  THR B   3      41.798  52.033   9.868  1.00 21.53 LIG 0.15  C 
ATOM     35  CG2 THR B   3      41.304  51.660   8.526  1.00 22.92 LIG 0.04  C 
BRANCH 34 36
ATOM     36 OG1  THR B   3      42.947  52.857   9.736  1.00 22.47 LIG-0.39  OA
ATOM     37 HG1  THR B   3      43.409  52.809  10.436  1.00 22.47 LIG 0.21  HD
ENDBRANCH 34 36
ENDBRANCH 6 34
ENDBRANCH 4 6
ENDBRANCH 1 2
BRANCH 1 38
ATOM     38  CB  LYS B   4      40.633  56.175   7.852  1.00 32.55 LIG 0.04  C 
BRANCH 38 39
ATOM     39  CG  LYS B   4      39.529  55.663   6.971  1.00 30.49 LIG 0.00  C 
BRANCH 39 40
ATOM     40  CD  LYS B   4      39.998  54.430   6.199  1.00 34.18 LIG 0.03  C 
BRANCH 40 41
ATOM     41  CE  LYS B   4      39.375  54.390   4.814  1.00 33.34 LIG 0.23  C 
BRANCH 41 42
ATOM     42  NZ  LYS B   4      40.370  54.369   3.712  1.00 36.76 LIG-0.08  N 
ATOM     43 HZ1  LYS B   4      40.308  53.599   3.271  1.00 36.76 LIG 0.27  HD
ATOM     44 HZ2  LYS B   4      40.210  55.043   3.154  1.00 36.76 LIG 0.27  HD
ATOM     45 HZ3  LYS B   4      41.189  54.453   4.050  1.00 36.76 LIG 0.27  HD
ENDBRANCH 41 42
ENDBRANCH 40 41
ENDBRANCH 39 40
ENDBRANCH 38 39
ENDBRANCH 1 38
BRANCH 1 46
ATOM     46  C   LYS B   4      38.730  56.486   9.383  1.00 34.41 LIG 0.24  C 
ATOM     47  N   GLN B   5      38.197  57.538   8.777  1.00 39.81 LIG-0.35  N 
ATOM     48 H    GLN B   5      38.626  58.096   8.285  1.00 39.81 LIG 0.16  HD
ATOM     49 O    LYS B   4      38.056  55.633   9.994  1.00 33.27 LIG-0.27  OA
BRANCH 47 50
ATOM     50  CA  GLN B   5      36.767  57.805   8.932  1.00 46.50 LIG 0.18  C 
BRANCH 50 51
ATOM     51  C   GLN B   5      36.267  58.872   7.954  1.00 52.91 LIG 0.24  C 
ATOM     52  N   THR B   6      37.218  59.521   7.271  1.00 59.38 LIG-0.34  N 
ATOM     53 H    THR B   6      38.037  59.258   7.253  1.00 59.38 LIG 0.16  HD
ATOM     54 O    GLN B   5      35.076  59.135   7.878  1.00 55.19 LIG-0.27  OA
BRANCH 52 55
ATOM     55  CA  THR B   6      36.978  60.764   6.467  1.00 66.40 LIG 0.20  C 
BRANCH 55 56
ATOM     56  CB  THR B   6      36.529  60.461   4.996  1.00 64.05 LIG 0.15  C 
ATOM     57  CG2 THR B   6      35.701  59.181   4.939  1.00 70.60 LIG 0.04  C 
BRANCH 56 58
ATOM     58 OG1  THR B   6      35.762  61.544   4.444  1.00 62.34 LIG-0.39  OA
ATOM     59 HG1  THR B   6      34.997  61.553   4.792  1.00 62.34 LIG 0.21  HD
ENDBRANCH 56 58
ENDBRANCH 55 56
BRANCH 55 60
ATOM     60  C   THR B   6      35.867  61.673   7.070  1.00 68.19 LIG 0.24  C 
ATOM     61 O    THR B   6      34.691  61.604   6.652  1.00 63.20 LIG-0.27  OA
ATOM     62  N   ALA B   7      36.246  62.528   8.025  1.00 78.65 LIG-0.35  N 
ATOM     63 H    ALA B   7      37.022  62.511   8.397  1.00 78.65 LIG 0.16  HD
BRANCH 62 64
ATOM     64  CA  ALA B   7      35.364  63.583   8.532  1.00 81.14 LIG 0.16  C 
ATOM     65  CB  ALA B   7      34.573  63.087   9.745  1.00 91.84 LIG 0.04  C 
BRANCH 64 66
ATOM     66  C   ALA B   7      36.182  64.830   8.902  1.00 81.58 LIG 0.22  C 
ATOM     67 O    ALA B   7      36.366  65.740   8.088  1.00 77.41 LIG-0.29  OA
ENDBRANCH 64 66
ENDBRANCH 62 64
ENDBRANCH 55 60
ENDBRANCH 52 55
ENDBRANCH 50 51
BRANCH 50 68
ATOM     68  CB  GLN B   5      36.350  58.118  10.379  1.00 52.07 LIG 0.04  C 
BRANCH 68 69
ATOM     69  CG  GLN B   5      36.100  59.558  10.756  1.00 55.77 LIG 0.10  C 
BRANCH 69 70
ATOM     70  CD  GLN B   5      35.429  59.662  12.118  1.00 63.27 LIG 0.21  C 
ATOM     71  NE2 GLN B   5      35.480  60.843  12.704  1.00 63.75 LIG-0.37  N 
ATOM     72 21HE GLN B   5      35.870  61.501  12.311  1.00 63.75 LIG 0.16  HD
ATOM     73 22HE GLN B   5      35.124  60.954  13.479  1.00 63.75 LIG 0.16  HD
ATOM     74 OE1  GLN B   5      34.890  58.703  12.635  1.00 68.43 LIG-0.27  OA
ENDBRANCH 69 70
ENDBRANCH 68 69
ENDBRANCH 50 68
ENDBRANCH 47 50
ENDBRANCH 1 46
TORSDOF 30
ENDMDL
MODEL 7
USER: ADFR SOLUTION from run 22
USER: SCORE 22.787420 LL:  -3.407 LR: -20.985 RR:   0.000 FEB: -12.036
USER: RMSD 6.050121
USER: SEED 21
USER: STATUS no improvement in best in 3 clusters for 5 generations
USER: GENES 32
USER: genes 0 Translation |==|  0.68481 0.52425 0.44864
USER: genes 1 Rotation |==|  0.36292 0.34432 0.33370 0.92346
USER: genes 2 Torsion [C]-CA--N-[C] |==|  0.54851
USER: genes 3 Torsion [N]-C--CA-[N] |==|  0.37183
USER: genes 4 Torsion [C]-CA--N-[C] |==|  0.82268
USER: genes 5 Torsion [N]-C--CA-[N] |==|  0.73889
USER: genes 6 Torsion [C]-CA--CB-[CG] |==|  0.28423
USER: genes 7 Torsion [CA]-CB--CG-[CD] |==|  0.28937
USER: genes 8 Torsion [CB]-CG--CD-[NE] |==|  0.93181
USER: genes 9 Torsion [CG]-CD--NE-[CZ] |==|  0.33403
USER: genes 10 Torsion [C]-CA--N-[C] |==|  0.70293
USER: genes 11 Torsion [N]-C--CA-[N] |==|  0.12706
USER: genes 12 Torsion [C]-CA--N-[H1] |==|  0.82442
USER: genes 13 Torsion [C]-CA--CB-[CG2] |==|  0.34607
USER: genes 14 Torsion [CA]-CB--OG1-[HG1] |==|  0.51068
USER: genes 15 Torsion [N]-CA--CB-[CG] |==|  0.43360
USER: genes 16 Torsion [CA]-CB--CG-[CD] |==|  0.45001
USER: genes 17 Torsion [CB]-CG--CD-[CE] |==|  0.35919
USER: genes 18 Torsion [CG]-CD--CE-[NZ] |==|  0.35752
USER: genes 19 Torsion [CD]-CE--NZ-[HZ1] |==|  0.91332
USER: genes 20 Torsion [N]-CA--C-[N] |==|  0.41205
USER: genes 21 Torsion [C]-N--CA-[CB] |==|  0.81334
USER: genes 22 Torsion [N]-CA--C-[N] |==|  0.46250
USER: genes 23 Torsion [C]-N--CA-[CB] |==|  0.54815
USER: genes 24 Torsion [N]-CA--CB-[CG2] |==|  0.12052
USER: genes 25 Torsion [CA]-CB--OG1-[HG1] |==|  0.17604
USER: genes 26 Torsion [N]-CA--C-[N] |==|  0.33132
USER: genes 27 Torsion [C]-N--CA-[CB] |==|  0.45974
USER: genes 28 Torsion [N]-CA--C-[O] |==|  0.92388
USER: genes 29 Torsion [N]-CA--CB-[CG] |==|  0.39847
USER: genes 30 Torsion [CA]-CB--CG-[CD] |==|  0.26325
USER: genes 31 Torsion [CB]-CG--CD-[NE2] |==|  0.89779
ROOT
ATOM      1  CA  LYS B   4      38.667  55.665   9.578  1.00 30.17 LIG 0.18  C 
ENDROOT
BRANCH 1 2
ATOM      2  N   LYS B   4      37.879  55.021  10.611  1.00 25.68 LIG-0.35  N 
ATOM      3 H    LYS B   4      37.039  55.200  10.572  1.00 25.68 LIG 0.16  HD
ATOM      4  C   THR B   3      38.419  54.221  11.537  1.00 23.58 LIG 0.24  C 
ATOM      5 O    THR B   3      39.623  53.942  11.584  1.00 24.56 LIG-0.27  OA
BRANCH 4 6
ATOM      6  CA  THR B   3      37.464  53.655  12.590  1.00 21.46 LIG 0.20  C 
BRANCH 6 7
ATOM      7  N   THR B   3      37.672  52.236  12.792  1.00 21.22 LIG-0.34  N 
ATOM      8 H    THR B   3      37.942  52.034  13.583  1.00 21.22 LIG 0.16  HD
ATOM      9  C   ARG B   2      37.466  51.346  11.851  1.00 21.22 LIG 0.24  C 
ATOM     10 O    ARG B   2      37.095  51.646  10.746  1.00 22.30 LIG-0.27  OA
BRANCH 9 11
ATOM     11  CA  ARG B   2      37.700  49.879  12.244  1.00 22.28 LIG 0.18  C 
BRANCH 11 12
ATOM     12  CB  ARG B   2      37.536  49.647  13.749  1.00 24.95 LIG 0.04  C 
BRANCH 12 13
ATOM     13  CG  ARG B   2      36.249  49.013  14.228  1.00 25.01 LIG 0.02  C 
BRANCH 13 14
ATOM     14  CD  ARG B   2      36.513  47.539  14.591  1.00 28.81 LIG 0.14  C 
BRANCH 14 15
ATOM     15  NE  ARG B   2      37.658  46.929  13.915  1.00 31.55 LIG-0.23  N 
ATOM     16 HE   ARG B   2      37.642  46.903  13.055  1.00 31.55 LIG 0.18  HD
ATOM     17  CZ  ARG B   2      38.732  46.406  14.525  1.00 33.58 LIG 0.67  C 
ATOM     18  NH2 ARG B   2      38.870  46.464  15.843  1.00 33.13 LIG-0.23  N 
ATOM     19  NH1 ARG B   2      39.686  45.844  13.811  1.00 37.12 LIG-0.23  N 
ATOM     20 1HH2 ARG B   2      38.265  46.842  16.323  1.00 33.13 LIG 0.17  HD
ATOM     21 2HH2 ARG B   2      39.565  46.123  16.218  1.00 33.13 LIG 0.17  HD
ATOM     22 2HH1 ARG B   2      40.375  45.508  14.202  1.00 37.12 LIG 0.17  HD
ATOM     23 1HH1 ARG B   2      39.622  45.813  12.954  1.00 37.12 LIG 0.17  HD
ENDBRANCH 14 15
ENDBRANCH 13 14
ENDBRANCH 12 13
ENDBRANCH 11 12
BRANCH 11 24
ATOM     24  N   ARG B   2      39.056  49.506  11.890  1.00 22.27 LIG-0.35  N 
ATOM     25  C   ALA B   1      39.273  48.708  10.857  1.00 22.85 LIG 0.25  C 
ATOM     26 O    ALA B   1      38.350  48.259  10.169  1.00 22.62 LIG-0.27  OA
ATOM     27 H    ARG B   2      39.671  49.837  12.393  1.00 22.27 LIG 0.16  HD
BRANCH 25 28
ATOM     28  CA  ALA B   1      40.741  48.342  10.579  1.00 23.76 LIG 0.27  C 
ATOM     29  CB  ALA B   1      40.857  47.238   9.535  1.00 24.39 LIG 0.05  C 
BRANCH 28 30
ATOM     30  N   ALA B   1      41.460  47.963  11.790  1.00 25.03 LIG-0.07  N 
ATOM     31 H1   ALA B   1      41.491  48.656  12.347  1.00 25.03 LIG 0.28  HD
ATOM     32 H3   ALA B   1      42.288  47.714  11.578  1.00 25.03 LIG 0.28  HD
ATOM     33 H2   ALA B   1      41.040  47.285  12.184  1.00 25.03 LIG 0.28  HD
ENDBRANCH 28 30
ENDBRANCH 25 28
ENDBRANCH 11 24
ENDBRANCH 9 11
ENDBRANCH 6 7
BRANCH 6 34
ATOM     34  CB  THR B   3      37.620  54.415  13.902  1.00 21.53 LIG 0.15  C 
ATOM     35  CG2 THR B   3      36.329  54.968  14.365  1.00 22.92 LIG 0.04  C 
BRANCH 34 36
ATOM     36 OG1  THR B   3      38.124  53.515  14.878  1.00 22.47 LIG-0.39  OA
ATOM     37 HG1  THR B   3      38.168  53.902  15.622  1.00 22.47 LIG 0.21  HD
ENDBRANCH 34 36
ENDBRANCH 6 34
ENDBRANCH 4 6
ENDBRANCH 1 2
BRANCH 1 38
ATOM     38  CB  LYS B   4      39.025  54.665   8.511  1.00 32.55 LIG 0.04  C 
BRANCH 38 39
ATOM     39  CG  LYS B   4      39.318  55.299   7.181  1.00 30.49 LIG 0.00  C 
BRANCH 39 40
ATOM     40  CD  LYS B   4      40.087  54.324   6.290  1.00 34.18 LIG 0.03  C 
BRANCH 40 41
ATOM     41  CE  LYS B   4      39.431  54.206   4.924  1.00 33.34 LIG 0.23  C 
BRANCH 41 42
ATOM     42  NZ  LYS B   4      40.370  54.404   3.791  1.00 36.76 LIG-0.08  N 
ATOM     43 HZ1  LYS B   4      41.011  54.972   4.032  1.00 36.76 LIG 0.27  HD
ATOM     44 HZ2  LYS B   4      40.735  53.624   3.568  1.00 36.76 LIG 0.27  HD
ATOM     45 HZ3  LYS B   4      39.928  54.734   3.093  1.00 36.76 LIG 0.27  HD
ENDBRANCH 41 42
ENDBRANCH 40 41
ENDBRANCH 39 40
ENDBRANCH 38 39
ENDBRANCH 1 38
BRANCH 1 46
ATOM     46  C   LYS B   4      37.886  56.797   8.979  1.00 34.41 LIG 0.24  C 
ATOM     47  N   GLN B   5      38.578  57.842   8.544  1.00 39.81 LIG-0.35  N 
ATOM     48 H    GLN B   5      39.436  57.891   8.519  1.00 39.81 LIG 0.16  HD
ATOM     49 O    LYS B   4      36.644  56.715   8.892  1.00 33.27 LIG-0.27  OA
BRANCH 47 50
ATOM     50  CA  GLN B   5      37.863  59.022   8.058  1.00 46.50 LIG 0.18  C 
BRANCH 50 51
ATOM     51  C   GLN B   5      36.983  59.653   9.140  1.00 52.91 LIG 0.24  C 
ATOM     52  N   THR B   6      36.523  60.881   8.867  1.00 59.38 LIG-0.34  N 
ATOM     53 H    THR B   6      36.576  61.233   8.084  1.00 59.38 LIG 0.16  HD
ATOM     54 O    GLN B   5      36.788  59.075  10.199  1.00 55.19 LIG-0.27  OA
BRANCH 52 55
ATOM     55  CA  THR B   6      35.870  61.779   9.876  1.00 66.40 LIG 0.20  C 
BRANCH 55 56
ATOM     56  CB  THR B   6      35.056  62.945   9.216  1.00 64.05 LIG 0.15  C 
ATOM     57  CG2 THR B   6      34.239  62.431   8.036  1.00 70.60 LIG 0.04  C 
BRANCH 56 58
ATOM     58 OG1  THR B   6      34.174  63.575  10.162  1.00 62.34 LIG-0.39  OA
ATOM     59 HG1  THR B   6      34.627  63.932  10.773  1.00 62.34 LIG 0.21  HD
ENDBRANCH 56 58
ENDBRANCH 55 56
BRANCH 55 60
ATOM     60  C   THR B   6      34.864  61.029  10.798  1.00 68.19 LIG 0.24  C 
ATOM     61 O    THR B   6      33.855  60.469  10.317  1.00 63.20 LIG-0.27  OA
ATOM     62  N   ALA B   7      35.130  61.040  12.108  1.00 78.65 LIG-0.35  N 
ATOM     63 H    ALA B   7      35.871  61.324  12.440  1.00 78.65 LIG 0.16  HD
BRANCH 62 64
ATOM     64  CA  ALA B   7      34.171  60.562  13.108  1.00 81.14 LIG 0.16  C 
ATOM     65  CB  ALA B   7      34.861  60.357  14.460  1.00 91.84 LIG 0.04  C 
BRANCH 64 66
ATOM     66  C   ALA B   7      33.007  61.556  13.249  1.00 81.58 LIG 0.22  C 
ATOM     67 O    ALA B   7      33.157  62.757  13.004  1.00 77.41 LIG-0.29  OA
ENDBRANCH 64 66
ENDBRANCH 62 64
ENDBRANCH 55 60
ENDBRANCH 52 55
ENDBRANCH 50 51
BRANCH 50 68
ATOM     68  CB  GLN B   5      37.080  58.777   6.757  1.00 52.07 LIG 0.04  C 
BRANCH 68 69
ATOM     69  CG  GLN B   5      35.749  59.468   6.582  1.00 55.77 LIG 0.10  C 
BRANCH 69 70
ATOM     70  CD  GLN B   5      35.902  60.772   5.813  1.00 63.27 LIG 0.21  C 
ATOM     71  NE2 GLN B   5      36.995  61.469   6.061  1.00 63.75 LIG-0.37  N 
ATOM     72 21HE GLN B   5      37.574  61.174   6.624  1.00 63.75 LIG 0.16  HD
ATOM     73 22HE GLN B   5      37.128  62.217   5.660  1.00 63.75 LIG 0.16  HD
ATOM     74 OE1  GLN B   5      35.057  61.148   5.026  1.00 68.43 LIG-0.27  OA
ENDBRANCH 69 70
ENDBRANCH 68 69
ENDBRANCH 50 68
ENDBRANCH 47 50
ENDBRANCH 1 46
TORSDOF 30
ENDMDL
MODEL 8
USER: ADFR SOLUTION from run 13
USER: SCORE 23.503673 LL:  -4.547 LR: -20.919 RR:   0.000 FEB: -11.970
USER: RMSD 7.311665
USER: SEED 551614
USER: STATUS 1 or 2 clusters left
USER: GENES 32
USER: genes 0 Translation |==|  0.69271 0.26910 0.52229
USER: genes 1 Rotation |==|  0.34934 0.50714 0.38010 0.96138
USER: genes 2 Torsion [C]-CA--N-[C] |==|  0.16443
USER: genes 3 Torsion [N]-C--CA-[N] |==|  0.47345
USER: genes 4 Torsion [C]-CA--N-[C] |==|  0.70252
USER: genes 5 Torsion [N]-C--CA-[N] |==|  0.47667
USER: genes 6 Torsion [C]-CA--CB-[CG] |==|  0.03631
USER: genes 7 Torsion [CA]-CB--CG-[CD] |==|  0.60475
USER: genes 8 Torsion [CB]-CG--CD-[NE] |==|  0.67916
USER: genes 9 Torsion [CG]-CD--NE-[CZ] |==|  0.83373
USER: genes 10 Torsion [C]-CA--N-[C] |==|  0.67774
USER: genes 11 Torsion [N]-C--CA-[N] |==|  0.82964
USER: genes 12 Torsion [C]-CA--N-[H1] |==|  0.10429
USER: genes 13 Torsion [C]-CA--CB-[CG2] |==|  0.86619
USER: genes 14 Torsion [CA]-CB--OG1-[HG1] |==|  0.58044
USER: genes 15 Torsion [N]-CA--CB-[CG] |==|  0.84741
USER: genes 16 Torsion [CA]-CB--CG-[CD] |==|  0.73452
USER: genes 17 Torsion [CB]-CG--CD-[CE] |==|  0.37394
USER: genes 18 Torsion [CG]-CD--CE-[NZ] |==|  0.91190
USER: genes 19 Torsion [CD]-CE--NZ-[HZ1] |==|  0.82889
USER: genes 20 Torsion [N]-CA--C-[N] |==|  0.09143
USER: genes 21 Torsion [C]-N--CA-[CB] |==|  0.45821
USER: genes 22 Torsion [N]-CA--C-[N] |==|  0.27494
USER: genes 23 Torsion [C]-N--CA-[CB] |==|  0.81316
USER: genes 24 Torsion [N]-CA--CB-[CG2] |==|  0.55972
USER: genes 25 Torsion [CA]-CB--OG1-[HG1] |==|  0.19851
USER: genes 26 Torsion [N]-CA--C-[N] |==|  0.36528
USER: genes 27 Torsion [C]-N--CA-[CB] |==|  0.48985
USER: genes 28 Torsion [N]-CA--C-[O] |==|  0.26129
USER: genes 29 Torsion [N]-CA--CB-[CG] |==|  0.19729
USER: genes 30 Torsion [CA]-CB--CG-[CD] |==|  0.65322
USER: genes 31 Torsion [CB]-CG--CD-[NE2] |==|  0.54298
ROOT
ATOM      1  CA  LYS B   4      38.850  49.924  11.346  1.00 30.17 LIG 0.18  C 
ENDROOT
BRANCH 1 2
ATOM      2  N   LYS B   4      38.861  49.092  12.534  1.00 25.68 LIG-0.35  N 
ATOM      3 H    LYS B   4      39.636  49.014  12.898  1.00 25.68 LIG 0.16  HD
ATOM      4  C   THR B   3      37.759  48.505  13.013  1.00 23.58 LIG 0.24  C 
ATOM      5 O    THR B   3      36.638  48.633  12.506  1.00 24.56 LIG-0.27  OA
BRANCH 4 6
ATOM      6  CA  THR B   3      37.941  47.619  14.247  1.00 21.46 LIG 0.20  C 
BRANCH 6 7
ATOM      7  N   THR B   3      36.668  47.217  14.808  1.00 21.22 LIG-0.34  N 
ATOM      8 H    THR B   3      36.252  46.629  14.339  1.00 21.22 LIG 0.16  HD
ATOM      9  C   ARG B   2      36.199  47.710  15.930  1.00 21.22 LIG 0.24  C 
ATOM     10 O    ARG B   2      36.791  48.539  16.571  1.00 22.30 LIG-0.27  OA
BRANCH 9 11
ATOM     11  CA  ARG B   2      34.850  47.148  16.404  1.00 22.28 LIG 0.18  C 
BRANCH 11 12
ATOM     12  CB  ARG B   2      33.689  47.583  15.504  1.00 24.95 LIG 0.04  C 
BRANCH 12 13
ATOM     13  CG  ARG B   2      34.029  48.206  14.168  1.00 25.01 LIG 0.02  C 
BRANCH 13 14
ATOM     14  CD  ARG B   2      33.031  49.341  13.868  1.00 28.81 LIG 0.14  C 
BRANCH 14 15
ATOM     15  NE  ARG B   2      32.171  49.121  12.705  1.00 31.55 LIG-0.23  N 
ATOM     16 HE   ARG B   2      31.322  49.108  12.839  1.00 31.55 LIG 0.18  HD
ATOM     17  CZ  ARG B   2      32.598  48.937  11.448  1.00 33.58 LIG 0.67  C 
ATOM     18  NH2 ARG B   2      33.887  49.009  11.141  1.00 33.13 LIG-0.23  N 
ATOM     19  NH1 ARG B   2      31.729  48.706  10.484  1.00 37.12 LIG-0.23  N 
ATOM     20 1HH2 ARG B   2      34.466  49.176  11.754  1.00 33.13 LIG 0.17  HD
ATOM     21 2HH2 ARG B   2      34.143  48.888  10.329  1.00 33.13 LIG 0.17  HD
ATOM     22 2HH1 ARG B   2      32.002  48.587   9.677  1.00 37.12 LIG 0.17  HD
ATOM     23 1HH1 ARG B   2      30.888  48.673  10.662  1.00 37.12 LIG 0.17  HD
ENDBRANCH 14 15
ENDBRANCH 13 14
ENDBRANCH 12 13
ENDBRANCH 11 12
BRANCH 11 24
ATOM     24  N   ARG B   2      34.575  47.644  17.739  1.00 22.27 LIG-0.35  N 
ATOM     25  C   ALA B   1      34.497  46.798  18.754  1.00 22.85 LIG 0.25  C 
ATOM     26 O    ALA B   1      34.652  45.580  18.608  1.00 22.62 LIG-0.27  OA
ATOM     27 H    ARG B   2      34.472  48.496  17.800  1.00 22.27 LIG 0.16  HD
BRANCH 25 28
ATOM     28  CA  ALA B   1      34.171  47.413  20.126  1.00 23.76 LIG 0.27  C 
ATOM     29  CB  ALA B   1      32.794  48.067  20.134  1.00 24.39 LIG 0.05  C 
BRANCH 28 30
ATOM     30  N   ALA B   1      35.181  48.369  20.563  1.00 25.03 LIG-0.07  N 
ATOM     31 H1   ALA B   1      35.473  48.834  19.862  1.00 25.03 LIG 0.28  HD
ATOM     32 H3   ALA B   1      35.862  47.933  20.935  1.00 25.03 LIG 0.28  HD
ATOM     33 H2   ALA B   1      34.825  48.925  21.160  1.00 25.03 LIG 0.28  HD
ENDBRANCH 28 30
ENDBRANCH 25 28
ENDBRANCH 11 24
ENDBRANCH 9 11
ENDBRANCH 6 7
BRANCH 6 34
ATOM     34  CB  THR B   3      38.784  46.398  13.896  1.00 21.53 LIG 0.15  C 
ATOM     35  CG2 THR B   3      38.303  45.744  12.660  1.00 22.92 LIG 0.04  C 
BRANCH 34 36
ATOM     36 OG1  THR B   3      40.126  46.824  13.713  1.00 22.47 LIG-0.39  OA
ATOM     37 HG1  THR B   3      40.510  46.315  13.166  1.00 22.47 LIG 0.21  HD
ENDBRANCH 34 36
ENDBRANCH 6 34
ENDBRANCH 4 6
ENDBRANCH 1 2
BRANCH 1 38
ATOM     38  CB  LYS B   4      38.418  49.109  10.156  1.00 32.55 LIG 0.04  C 
BRANCH 38 39
ATOM     39  CG  LYS B   4      39.249  47.875   9.950  1.00 30.49 LIG 0.00  C 
BRANCH 39 40
ATOM     40  CD  LYS B   4      40.358  48.149   8.935  1.00 34.18 LIG 0.03  C 
BRANCH 40 41
ATOM     41  CE  LYS B   4      41.686  47.596   9.422  1.00 33.34 LIG 0.23  C 
BRANCH 41 42
ATOM     42  NZ  LYS B   4      41.837  47.619  10.899  1.00 36.76 LIG-0.08  N 
ATOM     43 HZ1  LYS B   4      41.799  48.459  11.189  1.00 36.76 LIG 0.27  HD
ATOM     44 HZ2  LYS B   4      41.181  47.148  11.272  1.00 36.76 LIG 0.27  HD
ATOM     45 HZ3  LYS B   4      42.621  47.262  11.124  1.00 36.76 LIG 0.27  HD
ENDBRANCH 41 42
ENDBRANCH 40 41
ENDBRANCH 39 40
ENDBRANCH 38 39
ENDBRANCH 1 38
BRANCH 1 46
ATOM     46  C   LYS B   4      37.913  51.078  11.545  1.00 34.41 LIG 0.24  C 
ATOM     47  N   GLN B   5      37.804  51.561  12.776  1.00 39.81 LIG-0.35  N 
ATOM     48 H    GLN B   5      38.274  51.308  13.450  1.00 39.81 LIG 0.16  HD
ATOM     49 O    LYS B   4      37.296  51.549  10.568  1.00 33.27 LIG-0.27  OA
BRANCH 47 50
ATOM     50  CA  GLN B   5      36.819  52.607  13.051  1.00 46.50 LIG 0.18  C 
BRANCH 50 51
ATOM     51  C   GLN B   5      37.162  53.924  12.351  1.00 52.91 LIG 0.24  C 
ATOM     52  N   THR B   6      36.507  54.159  11.207  1.00 59.38 LIG-0.34  N 
ATOM     53 H    THR B   6      35.828  53.693  10.957  1.00 59.38 LIG 0.16  HD
ATOM     54 O    GLN B   5      38.030  54.659  12.798  1.00 55.19 LIG-0.27  OA
BRANCH 52 55
ATOM     55  CA  THR B   6      36.869  55.243  10.235  1.00 66.40 LIG 0.20  C 
BRANCH 55 56
ATOM     56  CB  THR B   6      36.626  56.681  10.809  1.00 64.05 LIG 0.15  C 
ATOM     57  CG2 THR B   6      36.490  57.696   9.680  1.00 70.60 LIG 0.04  C 
BRANCH 56 58
ATOM     58 OG1  THR B   6      35.448  56.729  11.632  1.00 62.34 LIG-0.39  OA
ATOM     59 HG1  THR B   6      35.592  56.323  12.353  1.00 62.34 LIG 0.21  HD
ENDBRANCH 56 58
ENDBRANCH 55 56
BRANCH 55 60
ATOM     60  C   THR B   6      38.366  55.203   9.811  1.00 68.19 LIG 0.24  C 
ATOM     61 O    THR B   6      39.270  55.128  10.671  1.00 63.20 LIG-0.27  OA
ATOM     62  N   ALA B   7      38.619  55.276   8.501  1.00 78.65 LIG-0.35  N 
ATOM     63 H    ALA B   7      38.011  55.219   7.895  1.00 78.65 LIG 0.16  HD
BRANCH 62 64
ATOM     64  CA  ALA B   7      39.973  55.463   7.970  1.00 81.14 LIG 0.16  C 
ATOM     65  CB  ALA B   7      39.963  55.418   6.440  1.00 91.84 LIG 0.04  C 
BRANCH 64 66
ATOM     66  C   ALA B   7      40.559  56.797   8.461  1.00 81.58 LIG 0.22  C 
ATOM     67 O    ALA B   7      41.265  56.852   9.473  1.00 77.41 LIG-0.29  OA
ENDBRANCH 64 66
ENDBRANCH 62 64
ENDBRANCH 55 60
ENDBRANCH 52 55
ENDBRANCH 50 51
BRANCH 50 68
ATOM     68  CB  GLN B   5      36.541  52.813  14.550  1.00 52.07 LIG 0.04  C 
BRANCH 68 69
ATOM     69  CG  GLN B   5      37.617  53.450  15.396  1.00 55.77 LIG 0.10  C 
BRANCH 69 70
ATOM     70  CD  GLN B   5      37.976  52.569  16.584  1.00 63.27 LIG 0.21  C 
ATOM     71  NE2 GLN B   5      38.660  53.148  17.553  1.00 63.75 LIG-0.37  N 
ATOM     72 21HE GLN B   5      38.870  53.980  17.493  1.00 63.75 LIG 0.16  HD
ATOM     73 22HE GLN B   5      38.895  52.694  18.243  1.00 63.75 LIG 0.16  HD
ATOM     74 OE1  GLN B   5      37.657  51.398  16.625  1.00 68.43 LIG-0.27  OA
ENDBRANCH 69 70
ENDBRANCH 68 69
ENDBRANCH 50 68
ENDBRANCH 47 50
ENDBRANCH 1 46
TORSDOF 30
ENDMDL
MODEL 9
USER: ADFR SOLUTION from run 144
USER: SCORE 22.479992 LL:  -4.170 LR: -20.904 RR:   0.000 FEB: -11.955
USER: RMSD 8.876137
USER: SEED 143
USER: STATUS searching
USER: GENES 32
USER: genes 0 Translation |==|  0.59716 0.26061 0.63833
USER: genes 1 Rotation |==|  0.03382 0.64193 0.59433 0.56029
USER: genes 2 Torsion [C]-CA--N-[C] |==|  0.75488
USER: genes 3 Torsion [N]-C--CA-[N] |==|  0.47897
USER: genes 4 Torsion [C]-CA--N-[C] |==|  0.51667
USER: genes 5 Torsion [N]-C--CA-[N] |==|  0.36135
USER: genes 6 Torsion [C]-CA--CB-[CG] |==|  0.30321
USER: genes 7 Torsion [CA]-CB--CG-[CD] |==|  0.88619
USER: genes 8 Torsion [CB]-CG--CD-[NE] |==|  0.80221
USER: genes 9 Torsion [CG]-CD--NE-[CZ] |==|  0.61044
USER: genes 10 Torsion [C]-CA--N-[C] |==|  0.56486
USER: genes 11 Torsion [N]-C--CA-[N] |==|  0.42801
USER: genes 12 Torsion [C]-CA--N-[H1] |==|  0.60235
USER: genes 13 Torsion [C]-CA--CB-[CG2] |==|  0.84256
USER: genes 14 Torsion [CA]-CB--OG1-[HG1] |==|  0.64451
USER: genes 15 Torsion [N]-CA--CB-[CG] |==|  0.45762
USER: genes 16 Torsion [CA]-CB--CG-[CD] |==|  0.59878
USER: genes 17 Torsion [CB]-CG--CD-[CE] |==|  0.59800
USER: genes 18 Torsion [CG]-CD--CE-[NZ] |==|  0.48648
USER: genes 19 Torsion [CD]-CE--NZ-[HZ1] |==|  0.25557
USER: genes 20 Torsion [N]-CA--C-[N] |==|  0.33741
USER: genes 21 Torsion [C]-N--CA-[CB] |==|  0.41242
USER: genes 22 Torsion [N]-CA--C-[N] |==|  0.69409
USER: genes 23 Torsion [C]-N--CA-[CB] |==|  0.85295
USER: genes 24 Torsion [N]-CA--CB-[CG2] |==|  0.51575
USER: genes 25 Torsion [CA]-CB--OG1-[HG1] |==|  0.75330
USER: genes 26 Torsion [N]-CA--C-[N] |==|  0.35827
USER: genes 27 Torsion [C]-N--CA-[CB] |==|  0.84776
USER: genes 28 Torsion [N]-CA--C-[O] |==|  0.28731
USER: genes 29 Torsion [N]-CA--CB-[CG] |==|  0.03979
USER: genes 30 Torsion [CA]-CB--CG-[CD] |==|  0.67306
USER: genes 31 Torsion [CB]-CG--CD-[NE2] |==|  0.74357
ROOT
ATOM      1  CA  LYS B   4      36.629  49.733  14.131  1.00 30.17 LIG 0.18  C 
ENDROOT
BRANCH 1 2
ATOM      2  N   LYS B   4      37.603  50.662  13.592  1.00 25.68 LIG-0.35  N 
ATOM      3 H    LYS B   4      37.965  51.170  14.184  1.00 25.68 LIG 0.16  HD
ATOM      4  C   THR B   3      37.906  50.715  12.291  1.00 23.58 LIG 0.24  C 
ATOM      5 O    THR B   3      37.405  49.971  11.439  1.00 24.56 LIG-0.27  OA
BRANCH 4 6
ATOM      6  CA  THR B   3      38.918  51.782  11.870  1.00 21.46 LIG 0.20  C 
BRANCH 6 7
ATOM      7  N   THR B   3      39.302  51.636  10.481  1.00 21.22 LIG-0.34  N 
ATOM      8 H    THR B   3      38.858  51.032  10.060  1.00 21.22 LIG 0.16  HD
ATOM      9  C   ARG B   2      40.242  52.361   9.923  1.00 21.22 LIG 0.24  C 
ATOM     10 O    ARG B   2      40.860  53.198  10.529  1.00 22.30 LIG-0.27  OA
BRANCH 9 11
ATOM     11  CA  ARG B   2      40.499  52.104   8.430  1.00 22.28 LIG 0.18  C 
BRANCH 11 12
ATOM     12  CB  ARG B   2      41.856  51.439   8.180  1.00 24.95 LIG 0.04  C 
BRANCH 12 13
ATOM     13  CG  ARG B   2      41.861  49.993   7.736  1.00 25.01 LIG 0.02  C 
BRANCH 13 14
ATOM     14  CD  ARG B   2      40.795  49.215   8.531  1.00 28.81 LIG 0.14  C 
BRANCH 14 15
ATOM     15  NE  ARG B   2      41.114  48.990   9.942  1.00 31.55 LIG-0.23  N 
ATOM     16 HE   ARG B   2      41.489  49.636  10.369  1.00 31.55 LIG 0.18  HD
ATOM     17  CZ  ARG B   2      40.871  47.861  10.623  1.00 33.58 LIG 0.67  C 
ATOM     18  NH2 ARG B   2      40.235  46.841  10.059  1.00 33.13 LIG-0.23  N 
ATOM     19  NH1 ARG B   2      41.241  47.759  11.883  1.00 37.12 LIG-0.23  N 
ATOM     20 1HH2 ARG B   2      39.971  46.897   9.243  1.00 33.13 LIG 0.17  HD
ATOM     21 2HH2 ARG B   2      40.087  46.124  10.511  1.00 33.13 LIG 0.17  HD
ATOM     22 2HH1 ARG B   2      41.085  47.035  12.320  1.00 37.12 LIG 0.17  HD
ATOM     23 1HH1 ARG B   2      41.638  48.417  12.269  1.00 37.12 LIG 0.17  HD
ENDBRANCH 14 15
ENDBRANCH 13 14
ENDBRANCH 12 13
ENDBRANCH 11 12
BRANCH 11 24
ATOM     24  N   ARG B   2      40.500  53.373   7.726  1.00 22.27 LIG-0.35  N 
ATOM     25  C   ALA B   1      40.239  53.408   6.429  1.00 22.85 LIG 0.25  C 
ATOM     26 O    ALA B   1      39.991  52.385   5.781  1.00 22.62 LIG-0.27  OA
ATOM     27 H    ARG B   2      40.677  54.061   8.211  1.00 22.27 LIG 0.16  HD
BRANCH 25 28
ATOM     28  CA  ALA B   1      40.294  54.794   5.764  1.00 23.76 LIG 0.27  C 
ATOM     29  CB  ALA B   1      39.001  55.572   5.980  1.00 24.39 LIG 0.05  C 
BRANCH 28 30
ATOM     30  N   ALA B   1      40.598  54.716   4.340  1.00 25.03 LIG-0.07  N 
ATOM     31 H1   ALA B   1      41.119  55.400   4.110  1.00 25.03 LIG 0.28  HD
ATOM     32 H3   ALA B   1      39.841  54.749   3.872  1.00 25.03 LIG 0.28  HD
ATOM     33 H2   ALA B   1      41.019  53.952   4.167  1.00 25.03 LIG 0.28  HD
ENDBRANCH 28 30
ENDBRANCH 25 28
ENDBRANCH 11 24
ENDBRANCH 9 11
ENDBRANCH 6 7
BRANCH 6 34
ATOM     34  CB  THR B   3      38.352  53.174  12.128  1.00 21.53 LIG 0.15  C 
ATOM     35  CG2 THR B   3      37.062  53.372  11.431  1.00 22.92 LIG 0.04  C 
BRANCH 34 36
ATOM     36 OG1  THR B   3      38.159  53.321  13.527  1.00 22.47 LIG-0.39  OA
ATOM     37 HG1  THR B   3      37.373  53.576  13.677  1.00 22.47 LIG 0.21  HD
ENDBRANCH 34 36
ENDBRANCH 6 34
ENDBRANCH 4 6
ENDBRANCH 1 2
BRANCH 1 38
ATOM     38  CB  LYS B   4      36.985  49.386  15.552  1.00 32.55 LIG 0.04  C 
BRANCH 38 39
ATOM     39  CG  LYS B   4      35.859  48.732  16.301  1.00 30.49 LIG 0.00  C 
BRANCH 39 40
ATOM     40  CD  LYS B   4      35.870  49.176  17.764  1.00 34.18 LIG 0.03  C 
BRANCH 40 41
ATOM     41  CE  LYS B   4      35.436  48.042  18.677  1.00 33.34 LIG 0.23  C 
BRANCH 41 42
ATOM     42  NZ  LYS B   4      35.533  48.369  20.122  1.00 36.76 LIG-0.08  N 
ATOM     43 HZ1  LYS B   4      34.756  48.698  20.405  1.00 36.76 LIG 0.27  HD
ATOM     44 HZ2  LYS B   4      35.726  47.632  20.582  1.00 36.76 LIG 0.27  HD
ATOM     45 HZ3  LYS B   4      36.174  48.973  20.248  1.00 36.76 LIG 0.27  HD
ENDBRANCH 41 42
ENDBRANCH 40 41
ENDBRANCH 39 40
ENDBRANCH 38 39
ENDBRANCH 1 38
BRANCH 1 46
ATOM     46  C   LYS B   4      35.261  50.349  14.081  1.00 34.41 LIG 0.24  C 
ATOM     47  N   GLN B   5      34.333  49.700  13.392  1.00 39.81 LIG-0.35  N 
ATOM     48 H    GLN B   5      34.436  48.927  13.029  1.00 39.81 LIG 0.16  HD
ATOM     49 O    LYS B   4      35.041  51.415  14.691  1.00 33.27 LIG-0.27  OA
BRANCH 47 50
ATOM     50  CA  GLN B   5      33.017  50.311  13.211  1.00 46.50 LIG 0.18  C 
BRANCH 50 51
ATOM     51  C   GLN B   5      32.094  50.065  14.408  1.00 52.91 LIG 0.24  C 
ATOM     52  N   THR B   6      31.068  49.234  14.185  1.00 59.38 LIG-0.34  N 
ATOM     53 H    THR B   6      31.012  48.744  13.480  1.00 59.38 LIG 0.16  HD
ATOM     54 O    GLN B   5      32.271  50.657  15.461  1.00 55.19 LIG-0.27  OA
BRANCH 52 55
ATOM     55  CA  THR B   6      29.909  49.057  15.121  1.00 66.40 LIG 0.20  C 
BRANCH 55 56
ATOM     56  CB  THR B   6      30.355  48.724  16.587  1.00 64.05 LIG 0.15  C 
ATOM     57  CG2 THR B   6      29.144  48.417  17.461  1.00 70.60 LIG 0.04  C 
BRANCH 56 58
ATOM     58 OG1  THR B   6      31.259  47.606  16.623  1.00 62.34 LIG-0.39  OA
ATOM     59 HG1  THR B   6      30.820  46.893  16.688  1.00 62.34 LIG 0.21  HD
ENDBRANCH 56 58
ENDBRANCH 55 56
BRANCH 55 60
ATOM     60  C   THR B   6      29.015  50.327  15.228  1.00 68.19 LIG 0.24  C 
ATOM     61 O    THR B   6      29.519  51.441  15.487  1.00 63.20 LIG-0.27  OA
ATOM     62  N   ALA B   7      27.702  50.151  15.052  1.00 78.65 LIG-0.35  N 
ATOM     63 H    ALA B   7      27.354  49.418  14.768  1.00 78.65 LIG 0.16  HD
BRANCH 62 64
ATOM     64  CA  ALA B   7      26.723  51.206  15.331  1.00 81.14 LIG 0.16  C 
ATOM     65  CB  ALA B   7      26.877  51.720  16.765  1.00 91.84 LIG 0.04  C 
BRANCH 64 66
ATOM     66  C   ALA B   7      26.885  52.362  14.330  1.00 81.58 LIG 0.22  C 
ATOM     67 O    ALA B   7      26.099  52.510  13.389  1.00 77.41 LIG-0.29  OA
ENDBRANCH 64 66
ENDBRANCH 62 64
ENDBRANCH 55 60
ENDBRANCH 52 55
ENDBRANCH 50 51
BRANCH 50 68
ATOM     68  CB  GLN B   5      32.339  49.934  11.882  1.00 52.07 LIG 0.04  C 
BRANCH 68 69
ATOM     69  CG  GLN B   5      32.901  48.774  11.096  1.00 55.77 LIG 0.10  C 
BRANCH 69 70
ATOM     70  CD  GLN B   5      33.409  49.227   9.735  1.00 63.27 LIG 0.21  C 
ATOM     71  NE2 GLN B   5      32.548  49.154   8.738  1.00 63.75 LIG-0.37  N 
ATOM     72 21HE GLN B   5      31.748  48.870   8.881  1.00 63.75 LIG 0.16  HD
ATOM     73 22HE GLN B   5      32.785  49.390   7.946  1.00 63.75 LIG 0.16  HD
ATOM     74 OE1  GLN B   5      34.548  49.622   9.581  1.00 68.43 LIG-0.27  OA
ENDBRANCH 69 70
ENDBRANCH 68 69
ENDBRANCH 50 68
ENDBRANCH 47 50
ENDBRANCH 1 46
TORSDOF 30
ENDMDL
MODEL 10
USER: ADFR SOLUTION from run 111
USER: SCORE 24.295792 LL:  -4.869 LR: -20.896 RR:   0.000 FEB: -11.947
USER: RMSD 9.155702
USER: SEED 110
USER: STATUS 1 or 2 clusters left
USER: GENES 32
USER: genes 0 Translation |==|  0.58326 0.19883 0.61923
USER: genes 1 Rotation |==|  0.94822 0.32302 0.43164 0.61448
USER: genes 2 Torsion [C]-CA--N-[C] |==|  0.66113
USER: genes 3 Torsion [N]-C--CA-[N] |==|  0.97524
USER: genes 4 Torsion [C]-CA--N-[C] |==|  0.69654
USER: genes 5 Torsion [N]-C--CA-[N] |==|  0.06285
USER: genes 6 Torsion [C]-CA--CB-[CG] |==|  0.47570
USER: genes 7 Torsion [CA]-CB--CG-[CD] |==|  0.32088
USER: genes 8 Torsion [CB]-CG--CD-[NE] |==|  0.30156
USER: genes 9 Torsion [CG]-CD--NE-[CZ] |==|  0.62810
USER: genes 10 Torsion [C]-CA--N-[C] |==|  0.17518
USER: genes 11 Torsion [N]-C--CA-[N] |==|  0.21384
USER: genes 12 Torsion [C]-CA--N-[H1] |==|  0.50682
USER: genes 13 Torsion [C]-CA--CB-[CG2] |==|  0.38285
USER: genes 14 Torsion [CA]-CB--OG1-[HG1] |==|  0.46284
USER: genes 15 Torsion [N]-CA--CB-[CG] |==|  0.62647
USER: genes 16 Torsion [CA]-CB--CG-[CD] |==|  0.63999
USER: genes 17 Torsion [CB]-CG--CD-[CE] |==|  0.47655
USER: genes 18 Torsion [CG]-CD--CE-[NZ] |==|  0.39288
USER: genes 19 Torsion [CD]-CE--NZ-[HZ1] |==|  0.78462
USER: genes 20 Torsion [N]-CA--C-[N] |==|  0.78424
USER: genes 21 Torsion [C]-N--CA-[CB] |==|  0.77108
USER: genes 22 Torsion [N]-CA--C-[N] |==|  0.26130
USER: genes 23 Torsion [C]-N--CA-[CB] |==|  0.87930
USER: genes 24 Torsion [N]-CA--CB-[CG2] |==|  0.61107
USER: genes 25 Torsion [CA]-CB--OG1-[HG1] |==|  0.30916
USER: genes 26 Torsion [N]-CA--C-[N] |==|  0.37222
USER: genes 27 Torsion [C]-N--CA-[CB] |==|  0.36967
USER: genes 28 Torsion [N]-CA--C-[O] |==|  0.38754
USER: genes 29 Torsion [N]-CA--CB-[CG] |==|  0.06447
USER: genes 30 Torsion [CA]-CB--CG-[CD] |==|  0.32552
USER: genes 31 Torsion [CB]-CG--CD-[NE2] |==|  0.86674
ROOT
ATOM      1  CA  LYS B   4      36.306  48.343  13.673  1.00 30.17 LIG 0.18  C 
ENDROOT
BRANCH 1 2
ATOM      2  N   LYS B   4      37.184  48.619  12.552  1.00 25.68 LIG-0.35  N 
ATOM      3 H    LYS B   4      37.250  49.455  12.359  1.00 25.68 LIG 0.16  HD
ATOM      4  C   THR B   3      37.827  47.655  11.885  1.00 23.58 LIG 0.24  C 
ATOM      5 O    THR B   3      37.752  46.455  12.172  1.00 24.56 LIG-0.27  OA
BRANCH 4 6
ATOM      6  CA  THR B   3      38.679  48.102  10.695  1.00 21.46 LIG 0.20  C 
BRANCH 6 7
ATOM      7  N   THR B   3      38.465  49.499  10.380  1.00 21.22 LIG-0.34  N 
ATOM      8 H    THR B   3      38.792  50.040  10.963  1.00 21.22 LIG 0.16  HD
ATOM      9  C   ARG B   2      37.830  49.896   9.303  1.00 21.22 LIG 0.24  C 
ATOM     10 O    ARG B   2      37.372  49.125   8.500  1.00 22.30 LIG-0.27  OA
BRANCH 9 11
ATOM     11  CA  ARG B   2      37.724  51.416   9.101  1.00 22.28 LIG 0.18  C 
BRANCH 11 12
ATOM     12  CB  ARG B   2      37.879  51.819   7.632  1.00 24.95 LIG 0.04  C 
BRANCH 12 13
ATOM     13  CG  ARG B   2      37.595  53.259   7.262  1.00 25.01 LIG 0.02  C 
BRANCH 13 14
ATOM     14  CD  ARG B   2      38.893  53.918   6.756  1.00 28.81 LIG 0.14  C 
BRANCH 14 15
ATOM     15  NE  ARG B   2      38.932  54.191   5.319  1.00 31.55 LIG-0.23  N 
ATOM     16 HE   ARG B   2      38.237  54.557   4.968  1.00 31.55 LIG 0.18  HD
ATOM     17  CZ  ARG B   2      39.960  53.915   4.504  1.00 33.58 LIG 0.67  C 
ATOM     18  NH2 ARG B   2      41.095  53.412   4.974  1.00 33.13 LIG-0.23  N 
ATOM     19  NH1 ARG B   2      39.865  54.169   3.215  1.00 37.12 LIG-0.23  N 
ATOM     20 1HH2 ARG B   2      41.181  53.257   5.816  1.00 33.13 LIG 0.17  HD
ATOM     21 2HH2 ARG B   2      41.744  53.241   4.437  1.00 33.13 LIG 0.17  HD
ATOM     22 2HH1 ARG B   2      40.524  53.992   2.692  1.00 37.12 LIG 0.17  HD
ATOM     23 1HH1 ARG B   2      39.143  54.511   2.896  1.00 37.12 LIG 0.17  HD
ENDBRANCH 14 15
ENDBRANCH 13 14
ENDBRANCH 12 13
ENDBRANCH 11 12
BRANCH 11 24
ATOM     24  N   ARG B   2      38.785  52.067   9.846  1.00 22.27 LIG-0.35  N 
ATOM     25  C   ALA B   1      40.049  51.834   9.533  1.00 22.85 LIG 0.25  C 
ATOM     26 O    ALA B   1      40.369  51.070   8.615  1.00 22.62 LIG-0.27  OA
ATOM     27 H    ARG B   2      38.522  52.589  10.477  1.00 22.27 LIG 0.16  HD
BRANCH 25 28
ATOM     28  CA  ALA B   1      41.103  52.544  10.399  1.00 23.76 LIG 0.27  C 
ATOM     29  CB  ALA B   1      42.444  52.645   9.681  1.00 24.39 LIG 0.05  C 
BRANCH 28 30
ATOM     30  N   ALA B   1      41.280  51.906  11.698  1.00 25.03 LIG-0.07  N 
ATOM     31 H1   ALA B   1      41.870  52.368  12.178  1.00 25.03 LIG 0.28  HD
ATOM     32 H3   ALA B   1      41.576  51.074  11.583  1.00 25.03 LIG 0.28  HD
ATOM     33 H2   ALA B   1      40.500  51.886  12.127  1.00 25.03 LIG 0.28  HD
ENDBRANCH 28 30
ENDBRANCH 25 28
ENDBRANCH 11 24
ENDBRANCH 9 11
ENDBRANCH 6 7
BRANCH 6 34
ATOM     34  CB  THR B   3      40.153  47.832  10.975  1.00 21.53 LIG 0.15  C 
ATOM     35  CG2 THR B   3      40.838  47.279   9.787  1.00 22.92 LIG 0.04  C 
BRANCH 34 36
ATOM     36 OG1  THR B   3      40.765  49.059  11.344  1.00 22.47 LIG-0.39  OA
ATOM     37 HG1  THR B   3      41.522  48.907  11.676  1.00 22.47 LIG 0.21  HD
ENDBRANCH 34 36
ENDBRANCH 6 34
ENDBRANCH 4 6
ENDBRANCH 1 2
BRANCH 1 38
ATOM     38  CB  LYS B   4      36.856  48.979  14.922  1.00 32.55 LIG 0.04  C 
BRANCH 38 39
ATOM     39  CG  LYS B   4      36.830  48.064  16.113  1.00 30.49 LIG 0.00  C 
BRANCH 39 40
ATOM     40  CD  LYS B   4      36.180  48.767  17.304  1.00 34.18 LIG 0.03  C 
BRANCH 40 41
ATOM     41  CE  LYS B   4      35.957  47.794  18.450  1.00 33.34 LIG 0.23  C 
BRANCH 41 42
ATOM     42  NZ  LYS B   4      36.212  48.382  19.790  1.00 36.76 LIG-0.08  N 
ATOM     43 HZ1  LYS B   4      37.089  48.423  19.934  1.00 36.76 LIG 0.27  HD
ATOM     44 HZ2  LYS B   4      35.868  49.201  19.826  1.00 36.76 LIG 0.27  HD
ATOM     45 HZ3  LYS B   4      35.832  47.874  20.414  1.00 36.76 LIG 0.27  HD
ENDBRANCH 41 42
ENDBRANCH 40 41
ENDBRANCH 39 40
ENDBRANCH 38 39
ENDBRANCH 1 38
BRANCH 1 46
ATOM     46  C   LYS B   4      34.934  48.879  13.385  1.00 34.41 LIG 0.24  C 
ATOM     47  N   GLN B   5      34.757  50.186  13.524  1.00 39.81 LIG-0.35  N 
ATOM     48 H    GLN B   5      35.378  50.753  13.702  1.00 39.81 LIG 0.16  HD
ATOM     49 O    LYS B   4      34.032  48.102  13.014  1.00 33.27 LIG-0.27  OA
BRANCH 47 50
ATOM     50  CA  GLN B   5      33.415  50.747  13.372  1.00 46.50 LIG 0.18  C 
BRANCH 50 51
ATOM     51  C   GLN B   5      32.357  49.935  14.124  1.00 52.91 LIG 0.24  C 
ATOM     52  N   THR B   6      32.071  50.364  15.360  1.00 59.38 LIG-0.34  N 
ATOM     53 H    THR B   6      32.334  51.127  15.659  1.00 59.38 LIG 0.16  HD
ATOM     54 O    GLN B   5      31.876  48.929  13.627  1.00 55.19 LIG-0.27  OA
BRANCH 52 55
ATOM     55  CA  THR B   6      31.272  49.581  16.360  1.00 66.40 LIG 0.20  C 
BRANCH 55 56
ATOM     56  CB  THR B   6      30.005  48.905  15.731  1.00 64.05 LIG 0.15  C 
ATOM     57  CG2 THR B   6      28.817  49.000  16.681  1.00 70.60 LIG 0.04  C 
BRANCH 56 58
ATOM     58 OG1  THR B   6      29.654  49.507  14.473  1.00 62.34 LIG-0.39  OA
ATOM     59 HG1  THR B   6      29.796  48.961  13.851  1.00 62.34 LIG 0.21  HD
ENDBRANCH 56 58
ENDBRANCH 55 56
BRANCH 55 60
ATOM     60  C   THR B   6      32.085  48.428  17.018  1.00 68.19 LIG 0.24  C 
ATOM     61 O    THR B   6      32.771  47.652  16.318  1.00 63.20 LIG-0.27  OA
ATOM     62  N   ALA B   7      31.989  48.310  18.346  1.00 78.65 LIG-0.35  N 
ATOM     63 H    ALA B   7      31.612  48.898  18.849  1.00 78.65 LIG 0.16  HD
BRANCH 62 64
ATOM     64  CA  ALA B   7      32.522  47.155  19.073  1.00 81.14 LIG 0.16  C 
ATOM     65  CB  ALA B   7      33.324  47.611  20.295  1.00 91.84 LIG 0.04  C 
BRANCH 64 66
ATOM     66  C   ALA B   7      31.379  46.222  19.505  1.00 81.58 LIG 0.22  C 
ATOM     67 O    ALA B   7      31.495  44.994  19.436  1.00 77.41 LIG-0.29  OA
ENDBRANCH 64 66
ENDBRANCH 62 64
ENDBRANCH 55 60
ENDBRANCH 52 55
ENDBRANCH 50 51
BRANCH 50 68
ATOM     68  CB  GLN B   5      33.011  50.991  11.907  1.00 52.07 LIG 0.04  C 
BRANCH 68 69
ATOM     69  CG  GLN B   5      33.708  50.192  10.831  1.00 55.77 LIG 0.10  C 
BRANCH 69 70
ATOM     70  CD  GLN B   5      32.724  49.306  10.081  1.00 63.27 LIG 0.21  C 
ATOM     71  NE2 GLN B   5      31.904  48.588  10.824  1.00 63.75 LIG-0.37  N 
ATOM     72 21HE GLN B   5      31.940  48.644  11.682  1.00 63.75 LIG 0.16  HD
ATOM     73 22HE GLN B   5      31.334  48.064  10.451  1.00 63.75 LIG 0.16  HD
ATOM     74 OE1  GLN B   5      32.710  49.259   8.867  1.00 68.43 LIG-0.27  OA
ENDBRANCH 69 70
ENDBRANCH 68 69
ENDBRANCH 50 68
ENDBRANCH 47 50
ENDBRANCH 1 46
TORSDOF 30
ENDMDL
MODEL 11
USER: ADFR SOLUTION from run 12
USER: SCORE 23.192290 LL:  -3.839 LR: -20.848 RR:   0.000 FEB: -11.899
USER: RMSD 6.495498
USER: SEED 452790
USER: STATUS no improvement in best in 3 clusters for 5 generations
USER: GENES 32
USER: genes 0 Translation |==|  0.68160 0.49675 0.46624
USER: genes 1 Rotation |==|  0.39084 0.38267 0.30293 0.93068
USER: genes 2 Torsion [C]-CA--N-[C] |==|  0.58575
USER: genes 3 Torsion [N]-C--CA-[N] |==|  0.36815
USER: genes 4 Torsion [C]-CA--N-[C] |==|  0.58890
USER: genes 5 Torsion [N]-C--CA-[N] |==|  0.96011
USER: genes 6 Torsion [C]-CA--CB-[CG] |==|  0.00099
USER: genes 7 Torsion [CA]-CB--CG-[CD] |==|  0.32356
USER: genes 8 Torsion [CB]-CG--CD-[NE] |==|  0.38235
USER: genes 9 Torsion [CG]-CD--NE-[CZ] |==|  0.72556
USER: genes 10 Torsion [C]-CA--N-[C] |==|  0.72781
USER: genes 11 Torsion [N]-C--CA-[N] |==|  0.09031
USER: genes 12 Torsion [C]-CA--N-[H1] |==|  0.55619
USER: genes 13 Torsion [C]-CA--CB-[CG2] |==|  0.43201
USER: genes 14 Torsion [CA]-CB--OG1-[HG1] |==|  0.06111
USER: genes 15 Torsion [N]-CA--CB-[CG] |==|  0.56032
USER: genes 16 Torsion [CA]-CB--CG-[CD] |==|  0.64559
USER: genes 17 Torsion [CB]-CG--CD-[CE] |==|  0.63774
USER: genes 18 Torsion [CG]-CD--CE-[NZ] |==|  0.54372
USER: genes 19 Torsion [CD]-CE--NZ-[HZ1] |==|  0.53936
USER: genes 20 Torsion [N]-CA--C-[N] |==|  0.95216
USER: genes 21 Torsion [C]-N--CA-[CB] |==|  0.85236
USER: genes 22 Torsion [N]-CA--C-[N] |==|  0.87329
USER: genes 23 Torsion [C]-N--CA-[CB] |==|  0.77350
USER: genes 24 Torsion [N]-CA--CB-[CG2] |==|  0.77969
USER: genes 25 Torsion [CA]-CB--OG1-[HG1] |==|  0.67352
USER: genes 26 Torsion [N]-CA--C-[N] |==|  0.26486
USER: genes 27 Torsion [C]-N--CA-[CB] |==|  0.32143
USER: genes 28 Torsion [N]-CA--C-[O] |==|  0.69405
USER: genes 29 Torsion [N]-CA--CB-[CG] |==|  0.47843
USER: genes 30 Torsion [CA]-CB--CG-[CD] |==|  0.38263
USER: genes 31 Torsion [CB]-CG--CD-[NE2] |==|  0.93631
ROOT
ATOM      1  CA  LYS B   4      38.592  55.046  10.001  1.00 30.17 LIG 0.18  C 
ENDROOT
BRANCH 1 2
ATOM      2  N   LYS B   4      37.800  54.291  10.953  1.00 25.68 LIG-0.35  N 
ATOM      3 H    LYS B   4      36.953  54.425  10.886  1.00 25.68 LIG 0.16  HD
ATOM      4  C   THR B   3      38.347  53.464  11.850  1.00 23.58 LIG 0.24  C 
ATOM      5 O    THR B   3      39.562  53.251  11.936  1.00 24.56 LIG-0.27  OA
BRANCH 4 6
ATOM      6  CA  THR B   3      37.383  52.776  12.819  1.00 21.46 LIG 0.20  C 
BRANCH 6 7
ATOM      7  N   THR B   3      37.647  51.356  12.917  1.00 21.22 LIG-0.34  N 
ATOM      8 H    THR B   3      38.476  51.149  12.818  1.00 21.22 LIG 0.16  HD
ATOM      9  C   ARG B   2      36.704  50.471  13.137  1.00 21.22 LIG 0.24  C 
ATOM     10 O    ARG B   2      35.547  50.776  13.266  1.00 22.30 LIG-0.27  OA
BRANCH 9 11
ATOM     11  CA  ARG B   2      37.161  49.008  13.250  1.00 22.28 LIG 0.18  C 
BRANCH 11 12
ATOM     12  CB  ARG B   2      37.163  48.510  14.698  1.00 24.95 LIG 0.04  C 
BRANCH 12 13
ATOM     13  CG  ARG B   2      36.727  49.477  15.777  1.00 25.01 LIG 0.02  C 
BRANCH 13 14
ATOM     14  CD  ARG B   2      35.449  48.942  16.452  1.00 28.81 LIG 0.14  C 
BRANCH 14 15
ATOM     15  NE  ARG B   2      35.417  49.068  17.909  1.00 31.55 LIG-0.23  N 
ATOM     16 HE   ARG B   2      35.194  49.832  18.234  1.00 31.55 LIG 0.18  HD
ATOM     17  CZ  ARG B   2      35.707  48.090  18.780  1.00 33.58 LIG 0.67  C 
ATOM     18  NH2 ARG B   2      35.994  46.863  18.365  1.00 33.13 LIG-0.23  N 
ATOM     19  NH1 ARG B   2      35.684  48.333  20.075  1.00 37.12 LIG-0.23  N 
ATOM     20 1HH2 ARG B   2      35.996  46.682  17.524  1.00 33.13 LIG 0.17  HD
ATOM     21 2HH2 ARG B   2      36.177  46.247  18.938  1.00 33.13 LIG 0.17  HD
ATOM     22 2HH1 ARG B   2      35.870  47.706  20.633  1.00 37.12 LIG 0.17  HD
ATOM     23 1HH1 ARG B   2      35.482  49.119  20.362  1.00 37.12 LIG 0.17  HD
ENDBRANCH 14 15
ENDBRANCH 13 14
ENDBRANCH 12 13
ENDBRANCH 11 12
BRANCH 11 24
ATOM     24  N   ARG B   2      38.518  48.898  12.749  1.00 22.27 LIG-0.35  N 
ATOM     25  C   ALA B   1      38.733  48.485  11.511  1.00 22.85 LIG 0.25  C 
ATOM     26 O    ALA B   1      37.807  48.184  10.749  1.00 22.62 LIG-0.27  OA
ATOM     27 H    ARG B   2      39.134  49.115  13.309  1.00 22.27 LIG 0.16  HD
BRANCH 25 28
ATOM     28  CA  ALA B   1      40.205  48.369  11.080  1.00 23.76 LIG 0.27  C 
ATOM     29  CB  ALA B   1      40.376  47.393   9.922  1.00 24.39 LIG 0.05  C 
BRANCH 28 30
ATOM     30  N   ALA B   1      41.081  47.993  12.183  1.00 25.03 LIG-0.07  N 
ATOM     31 H1   ALA B   1      41.919  48.217  11.986  1.00 25.03 LIG 0.28  HD
ATOM     32 H3   ALA B   1      41.031  47.115  12.317  1.00 25.03 LIG 0.28  HD
ATOM     33 H2   ALA B   1      40.826  48.420  12.922  1.00 25.03 LIG 0.28  HD
ENDBRANCH 28 30
ENDBRANCH 25 28
ENDBRANCH 11 24
ENDBRANCH 9 11
ENDBRANCH 6 7
BRANCH 6 34
ATOM     34  CB  THR B   3      37.461  53.435  14.192  1.00 21.53 LIG 0.15  C 
ATOM     35  CG2 THR B   3      36.213  53.236  14.960  1.00 22.92 LIG 0.04  C 
BRANCH 34 36
ATOM     36 OG1  THR B   3      38.548  52.857  14.899  1.00 22.47 LIG-0.39  OA
ATOM     37 HG1  THR B   3      39.089  52.518  14.354  1.00 22.47 LIG 0.21  HD
ENDBRANCH 34 36
ENDBRANCH 6 34
ENDBRANCH 4 6
ENDBRANCH 1 2
BRANCH 1 38
ATOM     38  CB  LYS B   4      38.778  54.243   8.740  1.00 32.55 LIG 0.04  C 
BRANCH 38 39
ATOM     39  CG  LYS B   4      39.965  54.680   7.930  1.00 30.49 LIG 0.00  C 
BRANCH 39 40
ATOM     40  CD  LYS B   4      39.546  54.952   6.486  1.00 34.18 LIG 0.03  C 
BRANCH 40 41
ATOM     41  CE  LYS B   4      40.472  54.243   5.511  1.00 33.34 LIG 0.23  C 
BRANCH 41 42
ATOM     42  NZ  LYS B   4      40.368  54.743   4.117  1.00 36.76 LIG-0.08  N 
ATOM     43 HZ1  LYS B   4      40.766  54.170   3.565  1.00 36.76 LIG 0.27  HD
ATOM     44 HZ2  LYS B   4      39.510  54.823   3.893  1.00 36.76 LIG 0.27  HD
ATOM     45 HZ3  LYS B   4      40.764  55.538   4.056  1.00 36.76 LIG 0.27  HD
ENDBRANCH 41 42
ENDBRANCH 40 41
ENDBRANCH 39 40
ENDBRANCH 38 39
ENDBRANCH 1 38
BRANCH 1 46
ATOM     46  C   LYS B   4      37.905  56.342   9.686  1.00 34.41 LIG 0.24  C 
ATOM     47  N   GLN B   5      36.619  56.434   9.998  1.00 39.81 LIG-0.35  N 
ATOM     48 H    GLN B   5      36.169  55.836  10.423  1.00 39.81 LIG 0.16  HD
ATOM     49 O    LYS B   4      38.553  57.277   9.173  1.00 33.27 LIG-0.27  OA
BRANCH 47 50
ATOM     50  CA  GLN B   5      35.871  57.628   9.609  1.00 46.50 LIG 0.18  C 
BRANCH 50 51
ATOM     51  C   GLN B   5      35.548  57.649   8.112  1.00 52.91 LIG 0.24  C 
ATOM     52  N   THR B   6      36.562  57.329   7.298  1.00 59.38 LIG-0.34  N 
ATOM     53 H    THR B   6      37.295  56.982   7.585  1.00 59.38 LIG 0.16  HD
ATOM     54 O    GLN B   5      34.447  58.003   7.719  1.00 55.19 LIG-0.27  OA
BRANCH 52 55
ATOM     55  CA  THR B   6      36.546  57.535   5.812  1.00 66.40 LIG 0.20  C 
BRANCH 55 56
ATOM     56  CB  THR B   6      35.792  56.393   5.047  1.00 64.05 LIG 0.15  C 
ATOM     57  CG2 THR B   6      36.681  55.163   4.902  1.00 70.60 LIG 0.04  C 
BRANCH 56 58
ATOM     58 OG1  THR B   6      34.576  56.021   5.720  1.00 62.34 LIG-0.39  OA
ATOM     59 HG1  THR B   6      34.625  55.217   5.962  1.00 62.34 LIG 0.21  HD
ENDBRANCH 56 58
ENDBRANCH 55 56
BRANCH 55 60
ATOM     60  C   THR B   6      35.848  58.861   5.390  1.00 68.19 LIG 0.24  C 
ATOM     61 O    THR B   6      34.608  58.906   5.233  1.00 63.20 LIG-0.27  OA
ATOM     62  N   ALA B   7      36.641  59.918   5.188  1.00 78.65 LIG-0.35  N 
ATOM     63 H    ALA B   7      37.476  59.931   5.396  1.00 78.65 LIG 0.16  HD
BRANCH 62 64
ATOM     64  CA  ALA B   7      36.155  61.163   4.588  1.00 81.14 LIG 0.16  C 
ATOM     65  CB  ALA B   7      36.245  62.316   5.591  1.00 91.84 LIG 0.04  C 
BRANCH 64 66
ATOM     66  C   ALA B   7      36.960  61.495   3.321  1.00 81.58 LIG 0.22  C 
ATOM     67 O    ALA B   7      37.743  62.449   3.291  1.00 77.41 LIG-0.29  OA
ENDBRANCH 64 66
ENDBRANCH 62 64
ENDBRANCH 55 60
ENDBRANCH 52 55
ENDBRANCH 50 51
BRANCH 50 68
ATOM     68  CB  GLN B   5      36.524  58.943  10.069  1.00 52.07 LIG 0.04  C 
BRANCH 68 69
ATOM     69  CG  GLN B   5      35.940  60.244   9.574  1.00 55.77 LIG 0.10  C 
BRANCH 69 70
ATOM     70  CD  GLN B   5      35.869  61.276  10.690  1.00 63.27 LIG 0.21  C 
ATOM     71  NE2 GLN B   5      35.853  60.801  11.921  1.00 63.75 LIG-0.37  N 
ATOM     72 21HE GLN B   5      35.889  59.952  12.055  1.00 63.75 LIG 0.16  HD
ATOM     73 22HE GLN B   5      35.806  61.340  12.589  1.00 63.75 LIG 0.16  HD
ATOM     74 OE1  GLN B   5      35.821  62.466  10.453  1.00 68.43 LIG-0.27  OA
ENDBRANCH 69 70
ENDBRANCH 68 69
ENDBRANCH 50 68
ENDBRANCH 47 50
ENDBRANCH 1 46
TORSDOF 30
ENDMDL
MODEL 12
USER: ADFR SOLUTION from run 37
USER: SCORE 23.119141 LL:  -4.397 LR: -20.799 RR:   0.000 FEB: -11.850
USER: RMSD 9.536296
USER: SEED 36
USER: STATUS no improvement in best in 7 clusters for 5 generations
USER: GENES 32
USER: genes 0 Translation |==|  0.52665 0.21479 0.59607
USER: genes 1 Rotation |==|  0.85994 0.41153 0.16723 0.54336
USER: genes 2 Torsion [C]-CA--N-[C] |==|  0.72402
USER: genes 3 Torsion [N]-C--CA-[N] |==|  0.10244
USER: genes 4 Torsion [C]-CA--N-[C] |==|  0.14463
USER: genes 5 Torsion [N]-C--CA-[N] |==|  0.44118
USER: genes 6 Torsion [C]-CA--CB-[CG] |==|  0.59231
USER: genes 7 Torsion [CA]-CB--CG-[CD] |==|  0.33769
USER: genes 8 Torsion [CB]-CG--CD-[NE] |==|  0.29431
USER: genes 9 Torsion [CG]-CD--NE-[CZ] |==|  0.26216
USER: genes 10 Torsion [C]-CA--N-[C] |==|  0.75015
USER: genes 11 Torsion [N]-C--CA-[N] |==|  0.43319
USER: genes 12 Torsion [C]-CA--N-[H1] |==|  0.44570
USER: genes 13 Torsion [C]-CA--CB-[CG2] |==|  0.56550
USER: genes 14 Torsion [CA]-CB--OG1-[HG1] |==|  0.32546
USER: genes 15 Torsion [N]-CA--CB-[CG] |==|  0.81006
USER: genes 16 Torsion [CA]-CB--CG-[CD] |==|  0.71133
USER: genes 17 Torsion [CB]-CG--CD-[CE] |==|  0.83622
USER: genes 18 Torsion [CG]-CD--CE-[NZ] |==|  0.66254
USER: genes 19 Torsion [CD]-CE--NZ-[HZ1] |==|  0.18400
USER: genes 20 Torsion [N]-CA--C-[N] |==|  0.23254
USER: genes 21 Torsion [C]-N--CA-[CB] |==|  0.47054
USER: genes 22 Torsion [N]-CA--C-[N] |==|  0.85493
USER: genes 23 Torsion [C]-N--CA-[CB] |==|  0.85476
USER: genes 24 Torsion [N]-CA--CB-[CG2] |==|  0.88731
USER: genes 25 Torsion [CA]-CB--OG1-[HG1] |==|  0.68220
USER: genes 26 Torsion [N]-CA--C-[N] |==|  0.86192
USER: genes 27 Torsion [C]-N--CA-[CB] |==|  0.31279
USER: genes 28 Torsion [N]-CA--C-[O] |==|  0.17701
USER: genes 29 Torsion [N]-CA--CB-[CG] |==|  0.75096
USER: genes 30 Torsion [CA]-CB--CG-[CD] |==|  0.04745
USER: genes 31 Torsion [CB]-CG--CD-[NE2] |==|  0.18765
ROOT
ATOM      1  CA  LYS B   4      34.990  48.702  13.117  1.00 30.17 LIG 0.18  C 
ENDROOT
BRANCH 1 2
ATOM      2  N   LYS B   4      34.679  49.717  12.128  1.00 25.68 LIG-0.35  N 
ATOM      3 H    LYS B   4      35.126  50.445  12.224  1.00 25.68 LIG 0.16  HD
ATOM      4  C   THR B   3      33.778  49.527  11.159  1.00 23.58 LIG 0.24  C 
ATOM      5 O    THR B   3      33.149  48.474  11.004  1.00 24.56 LIG-0.27  OA
BRANCH 4 6
ATOM      6  CA  THR B   3      33.526  50.710  10.222  1.00 21.46 LIG 0.20  C 
BRANCH 6 7
ATOM      7  N   THR B   3      34.744  51.443   9.947  1.00 21.22 LIG-0.34  N 
ATOM      8 H    THR B   3      34.681  52.288  10.089  1.00 21.22 LIG 0.16  HD
ATOM      9  C   ARG B   2      35.841  50.863   9.521  1.00 21.22 LIG 0.24  C 
ATOM     10 O    ARG B   2      35.912  49.678   9.321  1.00 22.30 LIG-0.27  OA
BRANCH 9 11
ATOM     11  CA  ARG B   2      37.056  51.781   9.315  1.00 22.28 LIG 0.18  C 
BRANCH 11 12
ATOM     12  CB  ARG B   2      37.015  52.505   7.966  1.00 24.95 LIG 0.04  C 
BRANCH 12 13
ATOM     13  CG  ARG B   2      38.332  52.789   7.278  1.00 25.01 LIG 0.02  C 
BRANCH 13 14
ATOM     14  CD  ARG B   2      38.332  52.125   5.888  1.00 28.81 LIG 0.14  C 
BRANCH 14 15
ATOM     15  NE  ARG B   2      38.175  53.044   4.760  1.00 31.55 LIG-0.23  N 
ATOM     16 HE   ARG B   2      37.373  53.255   4.532  1.00 31.55 LIG 0.18  HD
ATOM     17  CZ  ARG B   2      39.178  53.584   4.053  1.00 33.58 LIG 0.67  C 
ATOM     18  NH2 ARG B   2      40.446  53.366   4.380  1.00 33.13 LIG-0.23  N 
ATOM     19  NH1 ARG B   2      38.913  54.369   3.028  1.00 37.12 LIG-0.23  N 
ATOM     20 1HH2 ARG B   2      40.637  52.871   5.057  1.00 33.13 LIG 0.17  HD
ATOM     21 2HH2 ARG B   2      41.077  53.721   3.915  1.00 33.13 LIG 0.17  HD
ATOM     22 2HH1 ARG B   2      39.557  54.716   2.574  1.00 37.12 LIG 0.17  HD
ATOM     23 1HH1 ARG B   2      38.097  54.535   2.813  1.00 37.12 LIG 0.17  HD
ENDBRANCH 14 15
ENDBRANCH 13 14
ENDBRANCH 12 13
ENDBRANCH 11 12
BRANCH 11 24
ATOM     24  N   ARG B   2      38.264  50.979   9.342  1.00 22.27 LIG-0.35  N 
ATOM     25  C   ALA B   1      38.890  50.767  10.488  1.00 22.85 LIG 0.25  C 
ATOM     26 O    ALA B   1      38.480  51.234  11.557  1.00 22.62 LIG-0.27  OA
ATOM     27 H    ARG B   2      38.518  50.673   8.579  1.00 22.27 LIG 0.16  HD
BRANCH 25 28
ATOM     28  CA  ALA B   1      40.179  49.931  10.413  1.00 23.76 LIG 0.27  C 
ATOM     29  CB  ALA B   1      39.878  48.440  10.327  1.00 24.39 LIG 0.05  C 
BRANCH 28 30
ATOM     30  N   ALA B   1      41.081  50.195  11.528  1.00 25.03 LIG-0.07  N 
ATOM     31 H1   ALA B   1      41.656  49.521  11.611  1.00 25.03 LIG 0.28  HD
ATOM     32 H3   ALA B   1      40.609  50.278  12.278  1.00 25.03 LIG 0.28  HD
ATOM     33 H2   ALA B   1      41.529  50.949  11.375  1.00 25.03 LIG 0.28  HD
ENDBRANCH 28 30
ENDBRANCH 25 28
ENDBRANCH 11 24
ENDBRANCH 9 11
ENDBRANCH 6 7
BRANCH 6 34
ATOM     34  CB  THR B   3      32.885  50.226   8.926  1.00 21.53 LIG 0.15  C 
ATOM     35  CG2 THR B   3      33.130  51.169   7.814  1.00 22.92 LIG 0.04  C 
BRANCH 34 36
ATOM     36 OG1  THR B   3      33.443  48.961   8.602  1.00 22.47 LIG-0.39  OA
ATOM     37 HG1  THR B   3      32.839  48.377   8.612  1.00 22.47 LIG 0.21  HD
ENDBRANCH 34 36
ENDBRANCH 6 34
ENDBRANCH 4 6
ENDBRANCH 1 2
BRANCH 1 38
ATOM     38  CB  LYS B   4      36.473  48.678  13.377  1.00 32.55 LIG 0.04  C 
BRANCH 38 39
ATOM     39  CG  LYS B   4      37.270  48.179  12.206  1.00 30.49 LIG 0.00  C 
BRANCH 39 40
ATOM     40  CD  LYS B   4      37.736  46.745  12.458  1.00 34.18 LIG 0.03  C 
BRANCH 40 41
ATOM     41  CE  LYS B   4      38.588  46.666  13.714  1.00 33.34 LIG 0.23  C 
BRANCH 41 42
ATOM     42  NZ  LYS B   4      39.953  46.134  13.477  1.00 36.76 LIG-0.08  N 
ATOM     43 HZ1  LYS B   4      40.412  46.706  12.973  1.00 36.76 LIG 0.27  HD
ATOM     44 HZ2  LYS B   4      40.370  46.027  14.256  1.00 36.76 LIG 0.27  HD
ATOM     45 HZ3  LYS B   4      39.899  45.349  13.061  1.00 36.76 LIG 0.27  HD
ENDBRANCH 41 42
ENDBRANCH 40 41
ENDBRANCH 39 40
ENDBRANCH 38 39
ENDBRANCH 1 38
BRANCH 1 46
ATOM     46  C   LYS B   4      34.250  48.993  14.390  1.00 34.41 LIG 0.24  C 
ATOM     47  N   GLN B   5      32.996  48.570  14.468  1.00 39.81 LIG-0.35  N 
ATOM     48 H    GLN B   5      32.598  48.089  13.878  1.00 39.81 LIG 0.16  HD
ATOM     49 O    LYS B   4      34.831  49.591  15.319  1.00 33.27 LIG-0.27  OA
BRANCH 47 50
ATOM     50  CA  GLN B   5      32.192  48.928  15.637  1.00 46.50 LIG 0.18  C 
BRANCH 50 51
ATOM     51  C   GLN B   5      32.767  48.355  16.935  1.00 52.91 LIG 0.24  C 
ATOM     52  N   THR B   6      33.016  47.039  16.925  1.00 59.38 LIG-0.34  N 
ATOM     53 H    THR B   6      33.011  46.571  16.203  1.00 59.38 LIG 0.16  HD
ATOM     54 O    GLN B   5      32.913  49.067  17.917  1.00 55.19 LIG-0.27  OA
BRANCH 52 55
ATOM     55  CA  THR B   6      33.330  46.233  18.151  1.00 66.40 LIG 0.20  C 
BRANCH 55 56
ATOM     56  CB  THR B   6      34.497  46.844  19.000  1.00 64.05 LIG 0.15  C 
ATOM     57  CG2 THR B   6      35.606  47.366  18.094  1.00 70.60 LIG 0.04  C 
BRANCH 56 58
ATOM     58 OG1  THR B   6      34.033  47.913  19.843  1.00 62.34 LIG-0.39  OA
ATOM     59 HG1  THR B   6      34.382  48.637  19.595  1.00 62.34 LIG 0.21  HD
ENDBRANCH 56 58
ENDBRANCH 55 56
BRANCH 55 60
ATOM     60  C   THR B   6      32.120  46.108  19.122  1.00 68.19 LIG 0.24  C 
ATOM     61 O    THR B   6      31.759  44.990  19.550  1.00 63.20 LIG-0.27  OA
ATOM     62  N   ALA B   7      31.492  47.242  19.445  1.00 78.65 LIG-0.35  N 
ATOM     63 H    ALA B   7      31.792  48.024  19.248  1.00 78.65 LIG 0.16  HD
BRANCH 62 64
ATOM     64  CA  ALA B   7      30.220  47.257  20.173  1.00 81.14 LIG 0.16  C 
ATOM     65  CB  ALA B   7      30.406  47.850  21.572  1.00 91.84 LIG 0.04  C 
BRANCH 64 66
ATOM     66  C   ALA B   7      29.166  48.058  19.390  1.00 81.58 LIG 0.22  C 
ATOM     67 O    ALA B   7      28.775  47.688  18.279  1.00 77.41 LIG-0.29  OA
ENDBRANCH 64 66
ENDBRANCH 62 64
ENDBRANCH 55 60
ENDBRANCH 52 55
ENDBRANCH 50 51
BRANCH 50 68
ATOM     68  CB  GLN B   5      30.697  48.597  15.481  1.00 52.07 LIG 0.04  C 
BRANCH 68 69
ATOM     69  CG  GLN B   5      29.790  49.646  14.885  1.00 55.77 LIG 0.10  C 
BRANCH 69 70
ATOM     70  CD  GLN B   5      30.591  50.715  14.155  1.00 63.27 LIG 0.21  C 
ATOM     71  NE2 GLN B   5      31.214  50.328  13.059  1.00 63.75 LIG-0.37  N 
ATOM     72 21HE GLN B   5      31.148  49.513  12.791  1.00 63.75 LIG 0.16  HD
ATOM     73 22HE GLN B   5      31.688  50.890  12.612  1.00 63.75 LIG 0.16  HD
ATOM     74 OE1  GLN B   5      30.656  51.855  14.571  1.00 68.43 LIG-0.27  OA
ENDBRANCH 69 70
ENDBRANCH 68 69
ENDBRANCH 50 68
ENDBRANCH 47 50
ENDBRANCH 1 46
TORSDOF 30
ENDMDL
MODEL 13
USER: ADFR SOLUTION from run 199
USER: SCORE 21.969089 LL:  -3.778 LR: -20.790 RR:   0.000 FEB: -11.841
USER: RMSD 8.553543
USER: SEED 198
USER: STATUS searching
USER: GENES 32
USER: genes 0 Translation |==|  0.58492 0.19941 0.62498
USER: genes 1 Rotation |==|  0.90210 0.24631 0.34688 0.52247
USER: genes 2 Torsion [C]-CA--N-[C] |==|  0.56852
USER: genes 3 Torsion [N]-C--CA-[N] |==|  0.96013
USER: genes 4 Torsion [C]-CA--N-[C] |==|  0.66254
USER: genes 5 Torsion [N]-C--CA-[N] |==|  0.09830
USER: genes 6 Torsion [C]-CA--CB-[CG] |==|  0.90081
USER: genes 7 Torsion [CA]-CB--CG-[CD] |==|  0.60032
USER: genes 8 Torsion [CB]-CG--CD-[NE] |==|  0.86653
USER: genes 9 Torsion [CG]-CD--NE-[CZ] |==|  0.50131
USER: genes 10 Torsion [C]-CA--N-[C] |==|  0.14444
USER: genes 11 Torsion [N]-C--CA-[N] |==|  0.24719
USER: genes 12 Torsion [C]-CA--N-[H1] |==|  0.83272
USER: genes 13 Torsion [C]-CA--CB-[CG2] |==|  0.39601
USER: genes 14 Torsion [CA]-CB--OG1-[HG1] |==|  0.52291
USER: genes 15 Torsion [N]-CA--CB-[CG] |==|  0.55479
USER: genes 16 Torsion [CA]-CB--CG-[CD] |==|  0.68012
USER: genes 17 Torsion [CB]-CG--CD-[CE] |==|  0.54827
USER: genes 18 Torsion [CG]-CD--CE-[NZ] |==|  0.50283
USER: genes 19 Torsion [CD]-CE--NZ-[HZ1] |==|  0.55597
USER: genes 20 Torsion [N]-CA--C-[N] |==|  0.32134
USER: genes 21 Torsion [C]-N--CA-[CB] |==|  0.27937
USER: genes 22 Torsion [N]-CA--C-[N] |==|  0.74189
USER: genes 23 Torsion [C]-N--CA-[CB] |==|  0.86588
USER: genes 24 Torsion [N]-CA--CB-[CG2] |==|  0.36812
USER: genes 25 Torsion [CA]-CB--OG1-[HG1] |==|  0.83530
USER: genes 26 Torsion [N]-CA--C-[N] |==|  0.37215
USER: genes 27 Torsion [C]-N--CA-[CB] |==|  0.49367
USER: genes 28 Torsion [N]-CA--C-[O] |==|  0.75414
USER: genes 29 Torsion [N]-CA--CB-[CG] |==|  0.96383
USER: genes 30 Torsion [CA]-CB--CG-[CD] |==|  0.35605
USER: genes 31 Torsion [CB]-CG--CD-[NE2] |==|  0.85016
ROOT
ATOM      1  CA  LYS B   4      36.344  48.356  13.810  1.00 30.17 LIG 0.18  C 
ENDROOT
BRANCH 1 2
ATOM      2  N   LYS B   4      37.207  48.637  12.679  1.00 25.68 LIG-0.35  N 
ATOM      3 H    LYS B   4      37.291  49.475  12.504  1.00 25.68 LIG 0.16  HD
ATOM      4  C   THR B   3      37.814  47.673  11.978  1.00 23.58 LIG 0.24  C 
ATOM      5 O    THR B   3      37.715  46.469  12.241  1.00 24.56 LIG-0.27  OA
BRANCH 4 6
ATOM      6  CA  THR B   3      38.654  48.127  10.783  1.00 21.46 LIG 0.20  C 
BRANCH 6 7
ATOM      7  N   THR B   3      38.374  49.501  10.424  1.00 21.22 LIG-0.34  N 
ATOM      8 H    THR B   3      38.515  50.062  11.060  1.00 21.22 LIG 0.16  HD
ATOM      9  C   ARG B   2      37.945  49.852   9.235  1.00 21.22 LIG 0.24  C 
ATOM     10 O    ARG B   2      37.745  49.054   8.357  1.00 22.30 LIG-0.27  OA
BRANCH 9 11
ATOM     11  CA  ARG B   2      37.733  51.357   9.009  1.00 22.28 LIG 0.18  C 
BRANCH 11 12
ATOM     12  CB  ARG B   2      37.852  51.746   7.532  1.00 24.95 LIG 0.04  C 
BRANCH 12 13
ATOM     13  CG  ARG B   2      38.870  51.009   6.690  1.00 25.01 LIG 0.02  C 
BRANCH 13 14
ATOM     14  CD  ARG B   2      39.491  51.987   5.674  1.00 28.81 LIG 0.14  C 
BRANCH 14 15
ATOM     15  NE  ARG B   2      38.531  52.805   4.932  1.00 31.55 LIG-0.23  N 
ATOM     16 HE   ARG B   2      37.697  52.695   5.112  1.00 31.55 LIG 0.18  HD
ATOM     17  CZ  ARG B   2      38.843  53.712   3.996  1.00 33.58 LIG 0.67  C 
ATOM     18  NH2 ARG B   2      40.107  53.994   3.706  1.00 33.13 LIG-0.23  N 
ATOM     19  NH1 ARG B   2      37.887  54.362   3.363  1.00 37.12 LIG-0.23  N 
ATOM     20 1HH2 ARG B   2      40.744  53.592   4.122  1.00 33.13 LIG 0.17  HD
ATOM     21 2HH2 ARG B   2      40.290  54.579   3.102  1.00 33.13 LIG 0.17  HD
ATOM     22 2HH1 ARG B   2      38.088  54.944   2.762  1.00 37.12 LIG 0.17  HD
ATOM     23 1HH1 ARG B   2      37.063  54.205   3.551  1.00 37.12 LIG 0.17  HD
ENDBRANCH 14 15
ENDBRANCH 13 14
ENDBRANCH 12 13
ENDBRANCH 11 12
BRANCH 11 24
ATOM     24  N   ARG B   2      38.750  52.092   9.737  1.00 22.27 LIG-0.35  N 
ATOM     25  C   ALA B   1      40.027  51.785   9.576  1.00 22.85 LIG 0.25  C 
ATOM     26 O    ALA B   1      40.395  50.881   8.817  1.00 22.62 LIG-0.27  OA
ATOM     27 H    ARG B   2      38.455  52.712  10.254  1.00 22.27 LIG 0.16  HD
BRANCH 25 28
ATOM     28  CA  ALA B   1      41.031  52.597  10.412  1.00 23.76 LIG 0.27  C 
ATOM     29  CB  ALA B   1      42.345  52.803   9.669  1.00 24.39 LIG 0.05  C 
BRANCH 28 30
ATOM     30  N   ALA B   1      41.283  51.997  11.717  1.00 25.03 LIG-0.07  N 
ATOM     31 H1   ALA B   1      40.522  51.951  12.175  1.00 25.03 LIG 0.28  HD
ATOM     32 H3   ALA B   1      41.870  52.495  12.164  1.00 25.03 LIG 0.28  HD
ATOM     33 H2   ALA B   1      41.613  51.177  11.608  1.00 25.03 LIG 0.28  HD
ENDBRANCH 28 30
ENDBRANCH 25 28
ENDBRANCH 11 24
ENDBRANCH 9 11
ENDBRANCH 6 7
BRANCH 6 34
ATOM     34  CB  THR B   3      40.137  47.940  11.082  1.00 21.53 LIG 0.15  C 
ATOM     35  CG2 THR B   3      40.881  47.494   9.885  1.00 22.92 LIG 0.04  C 
BRANCH 34 36
ATOM     36 OG1  THR B   3      40.660  49.183  11.526  1.00 22.47 LIG-0.39  OA
ATOM     37 HG1  THR B   3      41.496  49.131  11.588  1.00 22.47 LIG 0.21  HD
ENDBRANCH 34 36
ENDBRANCH 6 34
ENDBRANCH 4 6
ENDBRANCH 1 2
BRANCH 1 38
ATOM     38  CB  LYS B   4      37.174  48.175  15.054  1.00 32.55 LIG 0.04  C 
BRANCH 38 39
ATOM     39  CG  LYS B   4      36.452  47.435  16.144  1.00 30.49 LIG 0.00  C 
BRANCH 39 40
ATOM     40  CD  LYS B   4      36.239  48.351  17.350  1.00 34.18 LIG 0.03  C 
BRANCH 40 41
ATOM     41  CE  LYS B   4      35.911  47.540  18.593  1.00 33.34 LIG 0.23  C 
BRANCH 41 42
ATOM     42  NZ  LYS B   4      35.668  48.370  19.800  1.00 36.76 LIG-0.08  N 
ATOM     43 HZ1  LYS B   4      35.771  47.871  20.529  1.00 36.76 LIG 0.27  HD
ATOM     44 HZ2  LYS B   4      36.248  49.045  19.819  1.00 36.76 LIG 0.27  HD
ATOM     45 HZ3  LYS B   4      34.839  48.693  19.776  1.00 36.76 LIG 0.27  HD
ENDBRANCH 41 42
ENDBRANCH 40 41
ENDBRANCH 39 40
ENDBRANCH 38 39
ENDBRANCH 1 38
BRANCH 1 46
ATOM     46  C   LYS B   4      35.376  49.486  14.001  1.00 34.41 LIG 0.24  C 
ATOM     47  N   GLN B   5      34.090  49.212  13.830  1.00 39.81 LIG-0.35  N 
ATOM     48 H    GLN B   5      33.765  48.430  13.684  1.00 39.81 LIG 0.16  HD
ATOM     49 O    LYS B   4      35.798  50.614  14.326  1.00 33.27 LIG-0.27  OA
BRANCH 47 50
ATOM     50  CA  GLN B   5      33.112  50.299  13.887  1.00 46.50 LIG 0.18  C 
BRANCH 50 51
ATOM     51  C   GLN B   5      31.927  49.966  14.797  1.00 52.91 LIG 0.24  C 
ATOM     52  N   THR B   6      30.868  49.416  14.189  1.00 59.38 LIG-0.34  N 
ATOM     53 H    THR B   6      30.899  49.120  13.382  1.00 59.38 LIG 0.16  HD
ATOM     54 O    GLN B   5      31.953  50.257  15.983  1.00 55.19 LIG-0.27  OA
BRANCH 52 55
ATOM     55  CA  THR B   6      29.520  49.253  14.828  1.00 66.40 LIG 0.20  C 
BRANCH 55 56
ATOM     56  CB  THR B   6      29.599  48.622  16.261  1.00 64.05 LIG 0.15  C 
ATOM     57  CG2 THR B   6      28.748  49.416  17.246  1.00 70.60 LIG 0.04  C 
BRANCH 56 58
ATOM     58 OG1  THR B   6      29.164  47.251  16.259  1.00 62.34 LIG-0.39  OA
ATOM     59 HG1  THR B   6      28.370  47.209  15.985  1.00 62.34 LIG 0.21  HD
ENDBRANCH 56 58
ENDBRANCH 55 56
BRANCH 55 60
ATOM     60  C   THR B   6      28.762  50.602  15.000  1.00 68.19 LIG 0.24  C 
ATOM     61 O    THR B   6      29.341  51.602  15.477  1.00 63.20 LIG-0.27  OA
ATOM     62  N   ALA B   7      27.476  50.617  14.635  1.00 78.65 LIG-0.35  N 
ATOM     63 H    ALA B   7      27.097  49.974  14.207  1.00 78.65 LIG 0.16  HD
BRANCH 62 64
ATOM     64  CA  ALA B   7      26.587  51.743  14.934  1.00 81.14 LIG 0.16  C 
ATOM     65  CB  ALA B   7      25.195  51.500  14.345  1.00 91.84 LIG 0.04  C 
BRANCH 64 66
ATOM     66  C   ALA B   7      26.493  51.960  16.453  1.00 81.58 LIG 0.22  C 
ATOM     67 O    ALA B   7      25.649  51.368  17.133  1.00 77.41 LIG-0.29  OA
ENDBRANCH 64 66
ENDBRANCH 62 64
ENDBRANCH 55 60
ENDBRANCH 52 55
ENDBRANCH 50 51
BRANCH 50 68
ATOM     68  CB  GLN B   5      32.649  50.785  12.503  1.00 52.07 LIG 0.04  C 
BRANCH 68 69
ATOM     69  CG  GLN B   5      33.430  50.341  11.290  1.00 55.77 LIG 0.10  C 
BRANCH 69 70
ATOM     70  CD  GLN B   5      32.513  49.737  10.236  1.00 63.27 LIG 0.21  C 
ATOM     71  NE2 GLN B   5      31.731  48.754  10.640  1.00 63.75 LIG-0.37  N 
ATOM     72 21HE GLN B   5      31.754  48.495  11.460  1.00 63.75 LIG 0.16  HD
ATOM     73 22HE GLN B   5      31.199  48.372  10.083  1.00 63.75 LIG 0.16  HD
ATOM     74 OE1  GLN B   5      32.516  50.136   9.089  1.00 68.43 LIG-0.27  OA
ENDBRANCH 69 70
ENDBRANCH 68 69
ENDBRANCH 50 68
ENDBRANCH 47 50
ENDBRANCH 1 46
TORSDOF 30
ENDMDL
MODEL 14
USER: ADFR SOLUTION from run 14
USER: SCORE 23.923891 LL:  -4.318 LR: -20.772 RR:   0.000 FEB: -11.823
USER: RMSD 9.534442
USER: SEED 4606
USER: STATUS no improvement in best in 1 clusters for 5 generations
USER: GENES 32
USER: genes 0 Translation |==|  0.61845 0.21187 0.49340
USER: genes 1 Rotation |==|  0.91230 0.32425 0.28513 0.55433
USER: genes 2 Torsion [C]-CA--N-[C] |==|  0.55487
USER: genes 3 Torsion [N]-C--CA-[N] |==|  0.10000
USER: genes 4 Torsion [C]-CA--N-[C] |==|  0.17943
USER: genes 5 Torsion [N]-C--CA-[N] |==|  0.90994
USER: genes 6 Torsion [C]-CA--CB-[CG] |==|  0.39924
USER: genes 7 Torsion [CA]-CB--CG-[CD] |==|  0.12175
USER: genes 8 Torsion [CB]-CG--CD-[NE] |==|  0.20925
USER: genes 9 Torsion [CG]-CD--NE-[CZ] |==|  0.46154
USER: genes 10 Torsion [C]-CA--N-[C] |==|  0.76879
USER: genes 11 Torsion [N]-C--CA-[N] |==|  0.49361
USER: genes 12 Torsion [C]-CA--N-[H1] |==|  0.00607
USER: genes 13 Torsion [C]-CA--CB-[CG2] |==|  0.23550
USER: genes 14 Torsion [CA]-CB--OG1-[HG1] |==|  0.89342
USER: genes 15 Torsion [N]-CA--CB-[CG] |==|  0.65650
USER: genes 16 Torsion [CA]-CB--CG-[CD] |==|  0.74065
USER: genes 17 Torsion [CB]-CG--CD-[CE] |==|  0.62320
USER: genes 18 Torsion [CG]-CD--CE-[NZ] |==|  0.93676
USER: genes 19 Torsion [CD]-CE--NZ-[HZ1] |==|  0.88563
USER: genes 20 Torsion [N]-CA--C-[N] |==|  0.42304
USER: genes 21 Torsion [C]-N--CA-[CB] |==|  0.21824
USER: genes 22 Torsion [N]-CA--C-[N] |==|  0.01035
USER: genes 23 Torsion [C]-N--CA-[CB] |==|  0.54708
USER: genes 24 Torsion [N]-CA--CB-[CG2] |==|  0.20186
USER: genes 25 Torsion [CA]-CB--OG1-[HG1] |==|  0.62645
USER: genes 26 Torsion [N]-CA--C-[N] |==|  0.42431
USER: genes 27 Torsion [C]-N--CA-[CB] |==|  0.27014
USER: genes 28 Torsion [N]-CA--C-[O] |==|  0.93806
USER: genes 29 Torsion [N]-CA--CB-[CG] |==|  0.01435
USER: genes 30 Torsion [CA]-CB--CG-[CD] |==|  0.65279
USER: genes 31 Torsion [CB]-CG--CD-[NE2] |==|  0.69931
ROOT
ATOM      1  CA  LYS B   4      37.124  48.636  10.653  1.00 30.17 LIG 0.18  C 
ENDROOT
BRANCH 1 2
ATOM      2  N   LYS B   4      37.527  49.257   9.406  1.00 25.68 LIG-0.35  N 
ATOM      3 H    LYS B   4      37.265  50.072   9.321  1.00 25.68 LIG 0.16  HD
ATOM      4  C   THR B   3      38.242  48.613   8.477  1.00 23.58 LIG 0.24  C 
ATOM      5 O    THR B   3      38.640  47.449   8.604  1.00 24.56 LIG-0.27  OA
BRANCH 4 6
ATOM      6  CA  THR B   3      38.547  49.387   7.193  1.00 21.46 LIG 0.20  C 
BRANCH 6 7
ATOM      7  N   THR B   3      38.780  50.791   7.459  1.00 21.22 LIG-0.34  N 
ATOM      8 H    THR B   3      38.194  51.313   7.108  1.00 21.22 LIG 0.16  HD
ATOM      9  C   ARG B   2      39.794  51.221   8.172  1.00 21.22 LIG 0.24  C 
ATOM     10 O    ARG B   2      40.610  50.478   8.651  1.00 22.30 LIG-0.27  OA
BRANCH 9 11
ATOM     11  CA  ARG B   2      39.873  52.740   8.390  1.00 22.28 LIG 0.18  C 
BRANCH 11 12
ATOM     12  CB  ARG B   2      39.058  53.197   9.604  1.00 24.95 LIG 0.04  C 
BRANCH 12 13
ATOM     13  CG  ARG B   2      39.614  54.328  10.440  1.00 25.01 LIG 0.02  C 
BRANCH 13 14
ATOM     14  CD  ARG B   2      40.146  55.434   9.508  1.00 28.81 LIG 0.14  C 
BRANCH 14 15
ATOM     15  NE  ARG B   2      39.117  56.258   8.872  1.00 31.55 LIG-0.23  N 
ATOM     16 HE   ARG B   2      38.307  55.972   8.904  1.00 31.55 LIG 0.18  HD
ATOM     17  CZ  ARG B   2      39.334  57.423   8.244  1.00 33.58 LIG 0.67  C 
ATOM     18  NH2 ARG B   2      40.542  57.970   8.207  1.00 33.13 LIG-0.23  N 
ATOM     19  NH1 ARG B   2      38.332  58.059   7.671  1.00 37.12 LIG-0.23  N 
ATOM     20 1HH2 ARG B   2      41.205  57.577   8.591  1.00 33.13 LIG 0.17  HD
ATOM     21 2HH2 ARG B   2      40.664  58.718   7.800  1.00 33.13 LIG 0.17  HD
ATOM     22 2HH1 ARG B   2      38.471  58.806   7.268  1.00 37.12 LIG 0.17  HD
ATOM     23 1HH1 ARG B   2      37.539  57.727   7.701  1.00 37.12 LIG 0.17  HD
ENDBRANCH 14 15
ENDBRANCH 13 14
ENDBRANCH 12 13
ENDBRANCH 11 12
BRANCH 11 24
ATOM     24  N   ARG B   2      39.331  53.413   7.224  1.00 22.27 LIG-0.35  N 
ATOM     25  C   ALA B   1      40.095  53.614   6.163  1.00 22.85 LIG 0.25  C 
ATOM     26 O    ALA B   1      41.275  53.245   6.124  1.00 22.62 LIG-0.27  OA
ATOM     27 H    ARG B   2      38.508  53.655   7.291  1.00 22.27 LIG 0.16  HD
BRANCH 25 28
ATOM     28  CA  ALA B   1      39.443  54.363   4.989  1.00 23.76 LIG 0.27  C 
ATOM     29  CB  ALA B   1      38.197  53.643   4.486  1.00 24.39 LIG 0.05  C 
BRANCH 28 30
ATOM     30  N   ALA B   1      40.370  54.587   3.886  1.00 25.03 LIG-0.07  N 
ATOM     31 H1   ALA B   1      41.156  54.216   4.079  1.00 25.03 LIG 0.28  HD
ATOM     32 H3   ALA B   1      40.477  55.462   3.761  1.00 25.03 LIG 0.28  HD
ATOM     33 H2   ALA B   1      40.043  54.220   3.144  1.00 25.03 LIG 0.28  HD
ENDBRANCH 28 30
ENDBRANCH 25 28
ENDBRANCH 11 24
ENDBRANCH 9 11
ENDBRANCH 6 7
BRANCH 6 34
ATOM     34  CB  THR B   3      39.744  48.769   6.480  1.00 21.53 LIG 0.15  C 
ATOM     35  CG2 THR B   3      39.338  47.638   5.619  1.00 22.92 LIG 0.04  C 
BRANCH 34 36
ATOM     36 OG1  THR B   3      40.353  49.774   5.683  1.00 22.47 LIG-0.39  OA
ATOM     37 HG1  THR B   3      39.758  50.258   5.339  1.00 22.47 LIG 0.21  HD
ENDBRANCH 34 36
ENDBRANCH 6 34
ENDBRANCH 4 6
ENDBRANCH 1 2
BRANCH 1 38
ATOM     38  CB  LYS B   4      38.282  48.624  11.615  1.00 32.55 LIG 0.04  C 
BRANCH 38 39
ATOM     39  CG  LYS B   4      38.624  47.248  12.111  1.00 30.49 LIG 0.00  C 
BRANCH 39 40
ATOM     40  CD  LYS B   4      37.899  46.966  13.426  1.00 34.18 LIG 0.03  C 
BRANCH 40 41
ATOM     41  CE  LYS B   4      38.835  46.317  14.432  1.00 33.34 LIG 0.23  C 
BRANCH 41 42
ATOM     42  NZ  LYS B   4      39.995  45.630  13.811  1.00 36.76 LIG-0.08  N 
ATOM     43 HZ1  LYS B   4      39.727  45.191  13.085  1.00 36.76 LIG 0.27  HD
ATOM     44 HZ2  LYS B   4      40.610  46.232  13.583  1.00 36.76 LIG 0.27  HD
ATOM     45 HZ3  LYS B   4      40.346  45.055  14.392  1.00 36.76 LIG 0.27  HD
ENDBRANCH 41 42
ENDBRANCH 40 41
ENDBRANCH 39 40
ENDBRANCH 38 39
ENDBRANCH 1 38
BRANCH 1 46
ATOM     46  C   LYS B   4      35.972  49.394  11.246  1.00 34.41 LIG 0.24  C 
ATOM     47  N   GLN B   5      35.137  48.712  12.018  1.00 39.81 LIG-0.35  N 
ATOM     48 H    GLN B   5      35.240  47.892  12.256  1.00 39.81 LIG 0.16  HD
ATOM     49 O    LYS B   4      35.852  50.614  11.017  1.00 33.27 LIG-0.27  OA
BRANCH 47 50
ATOM     50  CA  GLN B   5      33.934  49.370  12.527  1.00 46.50 LIG 0.18  C 
BRANCH 50 51
ATOM     51  C   GLN B   5      33.447  48.753  13.841  1.00 52.91 LIG 0.24  C 
ATOM     52  N   THR B   6      34.223  47.786  14.347  1.00 59.38 LIG-0.34  N 
ATOM     53 H    THR B   6      35.016  47.626  14.054  1.00 59.38 LIG 0.16  HD
ATOM     54 O    GLN B   5      32.383  49.097  14.332  1.00 55.19 LIG-0.27  OA
BRANCH 52 55
ATOM     55  CA  THR B   6      33.812  46.876  15.467  1.00 66.40 LIG 0.20  C 
BRANCH 55 56
ATOM     56  CB  THR B   6      35.027  46.142  16.132  1.00 64.05 LIG 0.15  C 
ATOM     57  CG2 THR B   6      35.846  47.112  16.976  1.00 70.60 LIG 0.04  C 
BRANCH 56 58
ATOM     58 OG1  THR B   6      34.596  45.046  16.957  1.00 62.34 LIG-0.39  OA
ATOM     59 HG1  THR B   6      35.007  45.068  17.690  1.00 62.34 LIG 0.21  HD
ENDBRANCH 56 58
ENDBRANCH 55 56
BRANCH 55 60
ATOM     60  C   THR B   6      33.085  47.625  16.623  1.00 68.19 LIG 0.24  C 
ATOM     61 O    THR B   6      33.331  48.828  16.856  1.00 63.20 LIG-0.27  OA
ATOM     62  N   ALA B   7      32.219  46.910  17.348  1.00 78.65 LIG-0.35  N 
ATOM     63 H    ALA B   7      31.961  46.118  17.133  1.00 78.65 LIG 0.16  HD
BRANCH 62 64
ATOM     64  CA  ALA B   7      31.625  47.417  18.588  1.00 81.14 LIG 0.16  C 
ATOM     65  CB  ALA B   7      30.236  48.002  18.320  1.00 91.84 LIG 0.04  C 
BRANCH 64 66
ATOM     66  C   ALA B   7      31.538  46.295  19.635  1.00 81.58 LIG 0.22  C 
ATOM     67 O    ALA B   7      31.539  45.106  19.302  1.00 77.41 LIG-0.29  OA
ENDBRANCH 64 66
ENDBRANCH 62 64
ENDBRANCH 55 60
ENDBRANCH 52 55
ENDBRANCH 50 51
BRANCH 50 68
ATOM     68  CB  GLN B   5      32.801  49.472  11.491  1.00 52.07 LIG 0.04  C 
BRANCH 68 69
ATOM     69  CG  GLN B   5      32.994  48.802  10.152  1.00 55.77 LIG 0.10  C 
BRANCH 69 70
ATOM     70  CD  GLN B   5      32.800  49.789   9.010  1.00 63.27 LIG 0.21  C 
ATOM     71  NE2 GLN B   5      31.699  49.645   8.297  1.00 63.75 LIG-0.37  N 
ATOM     72 21HE GLN B   5      31.137  49.024   8.494  1.00 63.75 LIG 0.16  HD
ATOM     73 22HE GLN B   5      31.544  50.171   7.635  1.00 63.75 LIG 0.16  HD
ATOM     74 OE1  GLN B   5      33.622  50.650   8.769  1.00 68.43 LIG-0.27  OA
ENDBRANCH 69 70
ENDBRANCH 68 69
ENDBRANCH 50 68
ENDBRANCH 47 50
ENDBRANCH 1 46
TORSDOF 30
ENDMDL
MODEL 15
USER: ADFR SOLUTION from run 105
USER: SCORE 22.161687 LL:  -4.791 LR: -20.769 RR:   0.000 FEB: -11.820
USER: RMSD 8.567764
USER: SEED 104
USER: STATUS no improvement in best in 5 clusters for 5 generations
USER: GENES 32
USER: genes 0 Translation |==|  0.69582 0.31304 0.55510
USER: genes 1 Rotation |==|  0.26995 0.29775 0.26632 0.81869
USER: genes 2 Torsion [C]-CA--N-[C] |==|  0.81849
USER: genes 3 Torsion [N]-C--CA-[N] |==|  0.01828
USER: genes 4 Torsion [C]-CA--N-[C] |==|  0.68349
USER: genes 5 Torsion [N]-C--CA-[N] |==|  0.61705
USER: genes 6 Torsion [C]-CA--CB-[CG] |==|  0.30213
USER: genes 7 Torsion [CA]-CB--CG-[CD] |==|  0.73769
USER: genes 8 Torsion [CB]-CG--CD-[NE] |==|  0.40802
USER: genes 9 Torsion [CG]-CD--NE-[CZ] |==|  0.19158
USER: genes 10 Torsion [C]-CA--N-[C] |==|  0.15798
USER: genes 11 Torsion [N]-C--CA-[N] |==|  0.98996
USER: genes 12 Torsion [C]-CA--N-[H1] |==|  0.79659
USER: genes 13 Torsion [C]-CA--CB-[CG2] |==|  0.83682
USER: genes 14 Torsion [CA]-CB--OG1-[HG1] |==|  0.72862
USER: genes 15 Torsion [N]-CA--CB-[CG] |==|  0.57287
USER: genes 16 Torsion [CA]-CB--CG-[CD] |==|  0.55217
USER: genes 17 Torsion [CB]-CG--CD-[CE] |==|  0.44260
USER: genes 18 Torsion [CG]-CD--CE-[NZ] |==|  0.18018
USER: genes 19 Torsion [CD]-CE--NZ-[HZ1] |==|  0.94892
USER: genes 20 Torsion [N]-CA--C-[N] |==|  0.38725
USER: genes 21 Torsion [C]-N--CA-[CB] |==|  0.40135
USER: genes 22 Torsion [N]-CA--C-[N] |==|  0.04619
USER: genes 23 Torsion [C]-N--CA-[CB] |==|  0.21569
USER: genes 24 Torsion [N]-CA--CB-[CG2] |==|  0.74691
USER: genes 25 Torsion [CA]-CB--OG1-[HG1] |==|  0.37365
USER: genes 26 Torsion [N]-CA--C-[N] |==|  0.52681
USER: genes 27 Torsion [C]-N--CA-[CB] |==|  0.52277
USER: genes 28 Torsion [N]-CA--C-[O] |==|  0.25630
USER: genes 29 Torsion [N]-CA--CB-[CG] |==|  0.70036
USER: genes 30 Torsion [CA]-CB--CG-[CD] |==|  0.79473
USER: genes 31 Torsion [CB]-CG--CD-[NE2] |==|  0.70282
ROOT
ATOM      1  CA  LYS B   4      38.923  50.912  12.133  1.00 30.17 LIG 0.18  C 
ENDROOT
BRANCH 1 2
ATOM      2  N   LYS B   4      37.793  51.119  13.019  1.00 25.68 LIG-0.35  N 
ATOM      3 H    LYS B   4      37.255  50.450  13.060  1.00 25.68 LIG 0.16  HD
ATOM      4  C   THR B   3      37.614  52.253  13.706  1.00 23.58 LIG 0.24  C 
ATOM      5 O    THR B   3      38.397  53.209  13.667  1.00 24.56 LIG-0.27  OA
BRANCH 4 6
ATOM      6  CA  THR B   3      36.348  52.338  14.561  1.00 21.46 LIG 0.20  C 
BRANCH 6 7
ATOM      7  N   THR B   3      35.633  51.079  14.584  1.00 21.22 LIG-0.34  N 
ATOM      8 H    THR B   3      36.060  50.444  14.977  1.00 21.22 LIG 0.16  HD
ATOM      9  C   ARG B   2      34.444  50.927  14.051  1.00 21.22 LIG 0.24  C 
ATOM     10 O    ARG B   2      33.862  51.824  13.498  1.00 22.30 LIG-0.27  OA
BRANCH 9 11
ATOM     11  CA  ARG B   2      33.810  49.535  14.196  1.00 22.28 LIG 0.18  C 
BRANCH 11 12
ATOM     12  CB  ARG B   2      34.846  48.455  14.523  1.00 24.95 LIG 0.04  C 
BRANCH 12 13
ATOM     13  CG  ARG B   2      34.837  47.869  15.918  1.00 25.01 LIG 0.02  C 
BRANCH 13 14
ATOM     14  CD  ARG B   2      35.849  48.630  16.795  1.00 28.81 LIG 0.14  C 
BRANCH 14 15
ATOM     15  NE  ARG B   2      35.478  48.758  18.204  1.00 31.55 LIG-0.23  N 
ATOM     16 HE   ARG B   2      35.274  49.543  18.489  1.00 31.55 LIG 0.18  HD
ATOM     17  CZ  ARG B   2      35.430  47.751  19.089  1.00 33.58 LIG 0.67  C 
ATOM     18  NH2 ARG B   2      35.663  46.499  18.719  1.00 33.13 LIG-0.23  N 
ATOM     19  NH1 ARG B   2      35.120  47.994  20.347  1.00 37.12 LIG-0.23  N 
ATOM     20 1HH2 ARG B   2      35.849  46.320  17.898  1.00 33.13 LIG 0.17  HD
ATOM     21 2HH2 ARG B   2      35.628  45.865  19.299  1.00 33.13 LIG 0.17  HD
ATOM     22 2HH1 ARG B   2      35.089  47.348  20.914  1.00 37.12 LIG 0.17  HD
ATOM     23 1HH1 ARG B   2      34.948  48.798  20.600  1.00 37.12 LIG 0.17  HD
ENDBRANCH 14 15
ENDBRANCH 13 14
ENDBRANCH 12 13
ENDBRANCH 11 12
BRANCH 11 24
ATOM     24  N   ARG B   2      33.182  49.169  12.940  1.00 22.27 LIG-0.35  N 
ATOM     25  C   ALA B   1      33.897  49.145  11.827  1.00 22.85 LIG 0.25  C 
ATOM     26 O    ALA B   1      35.101  49.427  11.814  1.00 22.62 LIG-0.27  OA
ATOM     27 H    ARG B   2      32.344  48.981  12.991  1.00 22.27 LIG 0.16  HD
BRANCH 25 28
ATOM     28  CA  ALA B   1      33.138  48.777  10.541  1.00 23.76 LIG 0.27  C 
ATOM     29  CB  ALA B   1      33.218  49.891   9.504  1.00 24.39 LIG 0.05  C 
BRANCH 28 30
ATOM     30  N   ALA B   1      31.745  48.431  10.796  1.00 25.03 LIG-0.07  N 
ATOM     31 H1   ALA B   1      31.704  47.629  11.181  1.00 25.03 LIG 0.28  HD
ATOM     32 H3   ALA B   1      31.298  48.414  10.026  1.00 25.03 LIG 0.28  HD
ATOM     33 H2   ALA B   1      31.382  49.038  11.336  1.00 25.03 LIG 0.28  HD
ENDBRANCH 28 30
ENDBRANCH 25 28
ENDBRANCH 11 24
ENDBRANCH 9 11
ENDBRANCH 6 7
BRANCH 6 34
ATOM     34  CB  THR B   3      36.700  52.783  15.976  1.00 21.53 LIG 0.15  C 
ATOM     35  CG2 THR B   3      37.654  51.852  16.616  1.00 22.92 LIG 0.04  C 
BRANCH 34 36
ATOM     36 OG1  THR B   3      37.281  54.076  15.902  1.00 22.47 LIG-0.39  OA
ATOM     37 HG1  THR B   3      38.118  54.009  15.918  1.00 22.47 LIG 0.21  HD
ENDBRANCH 34 36
ENDBRANCH 6 34
ENDBRANCH 4 6
ENDBRANCH 1 2
BRANCH 1 38
ATOM     38  CB  LYS B   4      38.926  49.492  11.632  1.00 32.55 LIG 0.04  C 
BRANCH 38 39
ATOM     39  CG  LYS B   4      40.295  49.001  11.256  1.00 30.49 LIG 0.00  C 
BRANCH 39 40
ATOM     40  CD  LYS B   4      40.184  47.777  10.346  1.00 34.18 LIG 0.03  C 
BRANCH 40 41
ATOM     41  CE  LYS B   4      41.467  47.571   9.559  1.00 33.34 LIG 0.23  C 
BRANCH 41 42
ATOM     42  NZ  LYS B   4      42.642  47.244  10.406  1.00 36.76 LIG-0.08  N 
ATOM     43 HZ1  LYS B   4      42.475  47.477  11.248  1.00 36.76 LIG 0.27  HD
ATOM     44 HZ2  LYS B   4      42.802  46.370  10.367  1.00 36.76 LIG 0.27  HD
ATOM     45 HZ3  LYS B   4      43.354  47.689  10.111  1.00 36.76 LIG 0.27  HD
ENDBRANCH 41 42
ENDBRANCH 40 41
ENDBRANCH 39 40
ENDBRANCH 38 39
ENDBRANCH 1 38
BRANCH 1 46
ATOM     46  C   LYS B   4      38.839  51.864  10.976  1.00 34.41 LIG 0.24  C 
ATOM     47  N   GLN B   5      39.971  52.425  10.574  1.00 39.81 LIG-0.35  N 
ATOM     48 H    GLN B   5      40.753  52.237  10.880  1.00 39.81 LIG 0.16  HD
ATOM     49 O    LYS B   4      37.738  52.077  10.430  1.00 33.27 LIG-0.27  OA
BRANCH 47 50
ATOM     50  CA  GLN B   5      39.933  53.448   9.529  1.00 46.50 LIG 0.18  C 
BRANCH 50 51
ATOM     51  C   GLN B   5      40.002  52.844   8.124  1.00 52.91 LIG 0.24  C 
ATOM     52  N   THR B   6      39.737  51.534   8.044  1.00 59.38 LIG-0.34  N 
ATOM     53 H    THR B   6      39.396  51.089   8.697  1.00 59.38 LIG 0.16  HD
ATOM     54 O    GLN B   5      40.345  53.527   7.171  1.00 55.19 LIG-0.27  OA
BRANCH 52 55
ATOM     55  CA  THR B   6      39.998  50.694   6.829  1.00 66.40 LIG 0.20  C 
BRANCH 55 56
ATOM     56  CB  THR B   6      41.510  50.311   6.668  1.00 64.05 LIG 0.15  C 
ATOM     57  CG2 THR B   6      42.241  51.346   5.820  1.00 70.60 LIG 0.04  C 
BRANCH 56 58
ATOM     58 OG1  THR B   6      42.165  50.197   7.943  1.00 62.34 LIG-0.39  OA
ATOM     59 HG1  THR B   6      42.632  49.498   7.957  1.00 62.34 LIG 0.21  HD
ENDBRANCH 56 58
ENDBRANCH 55 56
BRANCH 55 60
ATOM     60  C   THR B   6      39.218  49.347   6.842  1.00 68.19 LIG 0.24  C 
ATOM     61 O    THR B   6      38.349  49.122   7.712  1.00 63.20 LIG-0.27  OA
ATOM     62  N   ALA B   7      39.545  48.457   5.900  1.00 78.65 LIG-0.35  N 
ATOM     63 H    ALA B   7      40.059  48.637   5.234  1.00 78.65 LIG 0.16  HD
BRANCH 62 64
ATOM     64  CA  ALA B   7      39.051  47.077   5.916  1.00 81.14 LIG 0.16  C 
ATOM     65  CB  ALA B   7      39.747  46.243   4.838  1.00 91.84 LIG 0.04  C 
BRANCH 64 66
ATOM     66  C   ALA B   7      39.272  46.448   7.302  1.00 81.58 LIG 0.22  C 
ATOM     67 O    ALA B   7      38.397  46.494   8.172  1.00 77.41 LIG-0.29  OA
ENDBRANCH 64 66
ENDBRANCH 62 64
ENDBRANCH 55 60
ENDBRANCH 52 55
ENDBRANCH 50 51
BRANCH 50 68
ATOM     68  CB  GLN B   5      40.973  54.565   9.722  1.00 52.07 LIG 0.04  C 
BRANCH 68 69
ATOM     69  CG  GLN B   5      40.487  55.929  10.150  1.00 55.77 LIG 0.10  C 
BRANCH 69 70
ATOM     70  CD  GLN B   5      39.795  56.652   9.003  1.00 63.27 LIG 0.21  C 
ATOM     71  NE2 GLN B   5      40.463  57.651   8.457  1.00 63.75 LIG-0.37  N 
ATOM     72 21HE GLN B   5      41.246  57.854   8.749  1.00 63.75 LIG 0.16  HD
ATOM     73 22HE GLN B   5      40.115  58.098   7.811  1.00 63.75 LIG 0.16  HD
ATOM     74 OE1  GLN B   5      38.687  56.327   8.625  1.00 68.43 LIG-0.27  OA
ENDBRANCH 69 70
ENDBRANCH 68 69
ENDBRANCH 50 68
ENDBRANCH 47 50
ENDBRANCH 1 46
TORSDOF 30
ENDMDL
MODEL 16
USER: ADFR SOLUTION from run 105
USER: SCORE 23.037206 LL:  -4.165 LR: -20.763 RR:   0.000 FEB: -11.814
USER: RMSD 7.569791
USER: SEED 104
USER: STATUS no improvement in best in 5 clusters for 5 generations
USER: GENES 32
USER: genes 0 Translation |==|  0.68717 0.32109 0.54195
USER: genes 1 Rotation |==|  0.27438 0.32050 0.25289 0.82529
USER: genes 2 Torsion [C]-CA--N-[C] |==|  0.81395
USER: genes 3 Torsion [N]-C--CA-[N] |==|  0.03971
USER: genes 4 Torsion [C]-CA--N-[C] |==|  0.69406
USER: genes 5 Torsion [N]-C--CA-[N] |==|  0.61360
USER: genes 6 Torsion [C]-CA--CB-[CG] |==|  0.30751
USER: genes 7 Torsion [CA]-CB--CG-[CD] |==|  0.73351
USER: genes 8 Torsion [CB]-CG--CD-[NE] |==|  0.41262
USER: genes 9 Torsion [CG]-CD--NE-[CZ] |==|  0.19402
USER: genes 10 Torsion [C]-CA--N-[C] |==|  0.15686
USER: genes 11 Torsion [N]-C--CA-[N] |==|  0.99063
USER: genes 12 Torsion [C]-CA--N-[H1] |==|  0.79594
USER: genes 13 Torsion [C]-CA--CB-[CG2] |==|  0.83789
USER: genes 14 Torsion [CA]-CB--OG1-[HG1] |==|  0.72852
USER: genes 15 Torsion [N]-CA--CB-[CG] |==|  0.60199
USER: genes 16 Torsion [CA]-CB--CG-[CD] |==|  0.53961
USER: genes 17 Torsion [CB]-CG--CD-[CE] |==|  0.45057
USER: genes 18 Torsion [CG]-CD--CE-[NZ] |==|  0.15192
USER: genes 19 Torsion [CD]-CE--NZ-[HZ1] |==|  0.93973
USER: genes 20 Torsion [N]-CA--C-[N] |==|  0.36745
USER: genes 21 Torsion [C]-N--CA-[CB] |==|  0.44462
USER: genes 22 Torsion [N]-CA--C-[N] |==|  0.47666
USER: genes 23 Torsion [C]-N--CA-[CB] |==|  0.83211
USER: genes 24 Torsion [N]-CA--CB-[CG2] |==|  0.54509
USER: genes 25 Torsion [CA]-CB--OG1-[HG1] |==|  0.60611
USER: genes 26 Torsion [N]-CA--C-[N] |==|  0.37078
USER: genes 27 Torsion [C]-N--CA-[CB] |==|  0.38242
USER: genes 28 Torsion [N]-CA--C-[O] |==|  0.45710
USER: genes 29 Torsion [N]-CA--CB-[CG] |==|  0.68426
USER: genes 30 Torsion [CA]-CB--CG-[CD] |==|  0.83277
USER: genes 31 Torsion [CB]-CG--CD-[NE2] |==|  0.73473
ROOT
ATOM      1  CA  LYS B   4      38.722  51.094  11.818  1.00 30.17 LIG 0.18  C 
ENDROOT
BRANCH 1 2
ATOM      2  N   LYS B   4      37.636  51.283  12.761  1.00 25.68 LIG-0.35  N 
ATOM      3 H    LYS B   4      37.050  50.654  12.748  1.00 25.68 LIG 0.16  HD
ATOM      4  C   THR B   3      37.562  52.344  13.572  1.00 23.58 LIG 0.24  C 
ATOM      5 O    THR B   3      38.414  53.239  13.609  1.00 24.56 LIG-0.27  OA
BRANCH 4 6
ATOM      6  CA  THR B   3      36.331  52.426  14.476  1.00 21.46 LIG 0.20  C 
BRANCH 6 7
ATOM      7  N   THR B   3      35.621  51.165  14.527  1.00 21.22 LIG-0.34  N 
ATOM      8 H    THR B   3      36.043  50.545  14.948  1.00 21.22 LIG 0.16  HD
ATOM      9  C   ARG B   2      34.442  50.989  13.978  1.00 21.22 LIG 0.24  C 
ATOM     10 O    ARG B   2      33.868  51.865  13.385  1.00 22.30 LIG-0.27  OA
BRANCH 9 11
ATOM     11  CA  ARG B   2      33.812  49.600  14.157  1.00 22.28 LIG 0.18  C 
BRANCH 11 12
ATOM     12  CB  ARG B   2      34.851  48.531  14.509  1.00 24.95 LIG 0.04  C 
BRANCH 12 13
ATOM     13  CG  ARG B   2      34.815  47.946  15.904  1.00 25.01 LIG 0.02  C 
BRANCH 13 14
ATOM     14  CD  ARG B   2      35.828  48.693  16.793  1.00 28.81 LIG 0.14  C 
BRANCH 14 15
ATOM     15  NE  ARG B   2      35.458  48.795  18.205  1.00 31.55 LIG-0.23  N 
ATOM     16 HE   ARG B   2      35.242  49.572  18.502  1.00 31.55 LIG 0.18  HD
ATOM     17  CZ  ARG B   2      35.430  47.775  19.075  1.00 33.58 LIG 0.67  C 
ATOM     18  NH2 ARG B   2      35.683  46.531  18.686  1.00 33.13 LIG-0.23  N 
ATOM     19  NH1 ARG B   2      35.120  47.994  20.337  1.00 37.12 LIG-0.23  N 
ATOM     20 1HH2 ARG B   2      35.870  46.368  17.863  1.00 33.13 LIG 0.17  HD
ATOM     21 2HH2 ARG B   2      35.660  45.889  19.258  1.00 33.13 LIG 0.17  HD
ATOM     22 2HH1 ARG B   2      35.102  47.340  20.895  1.00 37.12 LIG 0.17  HD
ATOM     23 1HH1 ARG B   2      34.936  48.791  20.603  1.00 37.12 LIG 0.17  HD
ENDBRANCH 14 15
ENDBRANCH 13 14
ENDBRANCH 12 13
ENDBRANCH 11 12
BRANCH 11 24
ATOM     24  N   ARG B   2      33.183  49.203  12.911  1.00 22.27 LIG-0.35  N 
ATOM     25  C   ALA B   1      33.896  49.161  11.797  1.00 22.85 LIG 0.25  C 
ATOM     26 O    ALA B   1      35.097  49.453  11.773  1.00 22.62 LIG-0.27  OA
ATOM     27 H    ARG B   2      32.347  49.008  12.968  1.00 22.27 LIG 0.16  HD
BRANCH 25 28
ATOM     28  CA  ALA B   1      33.136  48.760  10.521  1.00 23.76 LIG 0.27  C 
ATOM     29  CB  ALA B   1      33.209  49.849   9.458  1.00 24.39 LIG 0.05  C 
BRANCH 28 30
ATOM     30  N   ALA B   1      31.745  48.413  10.786  1.00 25.03 LIG-0.07  N 
ATOM     31 H1   ALA B   1      31.708  47.619  11.187  1.00 25.03 LIG 0.28  HD
ATOM     32 H3   ALA B   1      31.296  48.379  10.018  1.00 25.03 LIG 0.28  HD
ATOM     33 H2   ALA B   1      31.381  49.029  11.315  1.00 25.03 LIG 0.28  HD
ENDBRANCH 28 30
ENDBRANCH 25 28
ENDBRANCH 11 24
ENDBRANCH 9 11
ENDBRANCH 6 7
BRANCH 6 34
ATOM     34  CB  THR B   3      36.737  52.872  15.876  1.00 21.53 LIG 0.15  C 
ATOM     35  CG2 THR B   3      37.725  51.949  16.475  1.00 22.92 LIG 0.04  C 
BRANCH 34 36
ATOM     36 OG1  THR B   3      37.303  54.171  15.780  1.00 22.47 LIG-0.39  OA
ATOM     37 HG1  THR B   3      38.140  54.112  15.761  1.00 22.47 LIG 0.21  HD
ENDBRANCH 34 36
ENDBRANCH 6 34
ENDBRANCH 4 6
ENDBRANCH 1 2
BRANCH 1 38
ATOM     38  CB  LYS B   4      38.626  49.726  11.196  1.00 32.55 LIG 0.04  C 
BRANCH 38 39
ATOM     39  CG  LYS B   4      39.965  49.090  10.955  1.00 30.49 LIG 0.00  C 
BRANCH 39 40
ATOM     40  CD  LYS B   4      39.819  47.890  10.019  1.00 34.18 LIG 0.03  C 
BRANCH 40 41
ATOM     41  CE  LYS B   4      41.162  47.505   9.420  1.00 33.34 LIG 0.23  C 
BRANCH 41 42
ATOM     42  NZ  LYS B   4      42.217  47.251  10.433  1.00 36.76 LIG-0.08  N 
ATOM     43 HZ1  LYS B   4      42.001  47.657  11.195  1.00 36.76 LIG 0.27  HD
ATOM     44 HZ2  LYS B   4      42.290  46.376  10.573  1.00 36.76 LIG 0.27  HD
ATOM     45 HZ3  LYS B   4      42.995  47.569  10.138  1.00 36.76 LIG 0.27  HD
ENDBRANCH 41 42
ENDBRANCH 40 41
ENDBRANCH 39 40
ENDBRANCH 38 39
ENDBRANCH 1 38
BRANCH 1 46
ATOM     46  C   LYS B   4      38.655  52.148  10.751  1.00 34.41 LIG 0.24  C 
ATOM     47  N   GLN B   5      39.782  52.781  10.460  1.00 39.81 LIG-0.35  N 
ATOM     48 H    GLN B   5      40.556  52.591  10.785  1.00 39.81 LIG 0.16  HD
ATOM     49 O    LYS B   4      37.573  52.374  10.174  1.00 33.27 LIG-0.27  OA
BRANCH 47 50
ATOM     50  CA  GLN B   5      39.753  53.896   9.514  1.00 46.50 LIG 0.18  C 
BRANCH 50 51
ATOM     51  C   GLN B   5      39.525  53.430   8.074  1.00 52.91 LIG 0.24  C 
ATOM     52  N   THR B   6      39.312  54.402   7.178  1.00 59.38 LIG-0.34  N 
ATOM     53 H    THR B   6      39.450  55.233   7.354  1.00 59.38 LIG 0.16  HD
ATOM     54 O    GLN B   5      39.480  52.239   7.806  1.00 55.19 LIG-0.27  OA
BRANCH 52 55
ATOM     55  CA  THR B   6      38.814  54.168   5.782  1.00 66.40 LIG 0.20  C 
BRANCH 55 56
ATOM     56  CB  THR B   6      39.773  53.260   4.938  1.00 64.05 LIG 0.15  C 
ATOM     57  CG2 THR B   6      39.453  53.374   3.452  1.00 70.60 LIG 0.04  C 
BRANCH 56 58
ATOM     58 OG1  THR B   6      41.153  53.606   5.152  1.00 62.34 LIG-0.39  OA
ATOM     59 HG1  THR B   6      41.572  53.546   4.426  1.00 62.34 LIG 0.21  HD
ENDBRANCH 56 58
ENDBRANCH 55 56
BRANCH 55 60
ATOM     60  C   THR B   6      37.424  53.468   5.742  1.00 68.19 LIG 0.24  C 
ATOM     61 O    THR B   6      37.199  52.457   6.443  1.00 63.20 LIG-0.27  OA
ATOM     62  N   ALA B   7      36.514  53.991   4.914  1.00 78.65 LIG-0.35  N 
ATOM     63 H    ALA B   7      36.616  54.744   4.511  1.00 78.65 LIG 0.16  HD
BRANCH 62 64
ATOM     64  CA  ALA B   7      35.246  53.320   4.615  1.00 81.14 LIG 0.16  C 
ATOM     65  CB  ALA B   7      34.093  54.326   4.608  1.00 91.84 LIG 0.04  C 
BRANCH 64 66
ATOM     66  C   ALA B   7      35.331  52.597   3.261  1.00 81.58 LIG 0.22  C 
ATOM     67 O    ALA B   7      34.499  51.744   2.937  1.00 77.41 LIG-0.29  OA
ENDBRANCH 64 66
ENDBRANCH 62 64
ENDBRANCH 55 60
ENDBRANCH 52 55
ENDBRANCH 50 51
BRANCH 50 68
ATOM     68  CB  GLN B   5      40.970  54.831   9.624  1.00 52.07 LIG 0.04  C 
BRANCH 68 69
ATOM     69  CG  GLN B   5      40.745  56.246  10.100  1.00 55.77 LIG 0.10  C 
BRANCH 69 70
ATOM     70  CD  GLN B   5      39.799  56.995   9.172  1.00 63.27 LIG 0.21  C 
ATOM     71  NE2 GLN B   5      40.365  57.736   8.239  1.00 63.75 LIG-0.37  N 
ATOM     72 21HE GLN B   5      41.222  57.769   8.177  1.00 63.75 LIG 0.16  HD
ATOM     73 22HE GLN B   5      39.877  58.186   7.693  1.00 63.75 LIG 0.16  HD
ATOM     74 OE1  GLN B   5      38.593  56.917   9.298  1.00 68.43 LIG-0.27  OA
ENDBRANCH 69 70
ENDBRANCH 68 69
ENDBRANCH 50 68
ENDBRANCH 47 50
ENDBRANCH 1 46
TORSDOF 30
ENDMDL
MODEL 17
USER: ADFR SOLUTION from run 72
USER: SCORE 23.827324 LL:  -4.545 LR: -20.736 RR:   0.000 FEB: -11.787
USER: RMSD 9.565355
USER: SEED 71
USER: STATUS no improvement in best in 2 clusters for 5 generations
USER: GENES 32
USER: genes 0 Translation |==|  0.61666 0.22166 0.52087
USER: genes 1 Rotation |==|  0.14137 0.53555 0.84077 0.56322
USER: genes 2 Torsion [C]-CA--N-[C] |==|  0.59614
USER: genes 3 Torsion [N]-C--CA-[N] |==|  0.30004
USER: genes 4 Torsion [C]-CA--N-[C] |==|  0.74953
USER: genes 5 Torsion [N]-C--CA-[N] |==|  0.09748
USER: genes 6 Torsion [C]-CA--CB-[CG] |==|  0.65383
USER: genes 7 Torsion [CA]-CB--CG-[CD] |==|  0.25107
USER: genes 8 Torsion [CB]-CG--CD-[NE] |==|  0.57452
USER: genes 9 Torsion [CG]-CD--NE-[CZ] |==|  0.48091
USER: genes 10 Torsion [C]-CA--N-[C] |==|  0.67014
USER: genes 11 Torsion [N]-C--CA-[N] |==|  0.40792
USER: genes 12 Torsion [C]-CA--N-[H1] |==|  0.93837
USER: genes 13 Torsion [C]-CA--CB-[CG2] |==|  0.30443
USER: genes 14 Torsion [CA]-CB--OG1-[HG1] |==|  0.34872
USER: genes 15 Torsion [N]-CA--CB-[CG] |==|  0.66026
USER: genes 16 Torsion [CA]-CB--CG-[CD] |==|  0.26399
USER: genes 17 Torsion [CB]-CG--CD-[CE] |==|  0.29087
USER: genes 18 Torsion [CG]-CD--CE-[NZ] |==|  0.94512
USER: genes 19 Torsion [CD]-CE--NZ-[HZ1] |==|  0.46571
USER: genes 20 Torsion [N]-CA--C-[N] |==|  0.08503
USER: genes 21 Torsion [C]-N--CA-[CB] |==|  0.81257
USER: genes 22 Torsion [N]-CA--C-[N] |==|  0.43708
USER: genes 23 Torsion [C]-N--CA-[CB] |==|  0.88784
USER: genes 24 Torsion [N]-CA--CB-[CG2] |==|  0.39916
USER: genes 25 Torsion [CA]-CB--OG1-[HG1] |==|  0.92307
USER: genes 26 Torsion [N]-CA--C-[N] |==|  0.86442
USER: genes 27 Torsion [C]-N--CA-[CB] |==|  0.14373
USER: genes 28 Torsion [N]-CA--C-[O] |==|  0.92559
USER: genes 29 Torsion [N]-CA--CB-[CG] |==|  0.41491
USER: genes 30 Torsion [CA]-CB--CG-[CD] |==|  0.71461
USER: genes 31 Torsion [CB]-CG--CD-[NE2] |==|  0.33835
ROOT
ATOM      1  CA  LYS B   4      37.082  48.856  11.312  1.00 30.17 LIG 0.18  C 
ENDROOT
BRANCH 1 2
ATOM      2  N   LYS B   4      36.961  50.234  10.874  1.00 25.68 LIG-0.35  N 
ATOM      3 H    LYS B   4      36.921  50.802  11.519  1.00 25.68 LIG 0.16  HD
ATOM      4  C   THR B   3      36.915  50.579   9.583  1.00 23.58 LIG 0.24  C 
ATOM      5 O    THR B   3      36.994  49.767   8.653  1.00 24.56 LIG-0.27  OA
BRANCH 4 6
ATOM      6  CA  THR B   3      36.736  52.068   9.282  1.00 21.46 LIG 0.20  C 
BRANCH 6 7
ATOM      7  N   THR B   3      37.953  52.658   8.764  1.00 21.22 LIG-0.34  N 
ATOM      8 H    THR B   3      38.019  52.622   7.908  1.00 21.22 LIG 0.16  HD
ATOM      9  C   ARG B   2      38.866  53.196   9.536  1.00 21.22 LIG 0.24  C 
ATOM     10 O    ARG B   2      38.762  53.233  10.735  1.00 22.30 LIG-0.27  OA
BRANCH 9 11
ATOM     11  CA  ARG B   2      40.080  53.812   8.822  1.00 22.28 LIG 0.18  C 
BRANCH 11 12
ATOM     12  CB  ARG B   2      40.739  54.921   9.647  1.00 24.95 LIG 0.04  C 
BRANCH 12 13
ATOM     13  CG  ARG B   2      40.900  56.279   9.001  1.00 25.01 LIG 0.02  C 
BRANCH 13 14
ATOM     14  CD  ARG B   2      39.654  57.135   9.301  1.00 28.81 LIG 0.14  C 
BRANCH 14 15
ATOM     15  NE  ARG B   2      39.358  58.169   8.309  1.00 31.55 LIG-0.23  N 
ATOM     16 HE   ARG B   2      39.935  58.294   7.684  1.00 31.55 LIG 0.18  HD
ATOM     17  CZ  ARG B   2      38.260  58.939   8.294  1.00 33.58 LIG 0.67  C 
ATOM     18  NH2 ARG B   2      37.288  58.767   9.181  1.00 33.13 LIG-0.23  N 
ATOM     19  NH1 ARG B   2      38.120  59.869   7.372  1.00 37.12 LIG-0.23  N 
ATOM     20 1HH2 ARG B   2      37.354  58.153   9.780  1.00 33.13 LIG 0.17  HD
ATOM     21 2HH2 ARG B   2      36.590  59.270   9.157  1.00 33.13 LIG 0.17  HD
ATOM     22 2HH1 ARG B   2      37.416  60.363   7.363  1.00 37.12 LIG 0.17  HD
ATOM     23 1HH1 ARG B   2      38.733  59.982   6.778  1.00 37.12 LIG 0.17  HD
ENDBRANCH 14 15
ENDBRANCH 13 14
ENDBRANCH 12 13
ENDBRANCH 11 12
BRANCH 11 24
ATOM     24  N   ARG B   2      39.643  54.401   7.571  1.00 22.27 LIG-0.35  N 
ATOM     25  C   ALA B   1      40.129  53.951   6.425  1.00 22.85 LIG 0.25  C 
ATOM     26 O    ALA B   1      40.956  53.034   6.377  1.00 22.62 LIG-0.27  OA
ATOM     27 H    ARG B   2      39.068  55.036   7.646  1.00 22.27 LIG 0.16  HD
BRANCH 25 28
ATOM     28  CA  ALA B   1      39.631  54.659   5.153  1.00 23.76 LIG 0.27  C 
ATOM     29  CB  ALA B   1      38.362  54.012   4.611  1.00 24.39 LIG 0.05  C 
BRANCH 28 30
ATOM     30  N   ALA B   1      40.649  54.713   4.111  1.00 25.03 LIG-0.07  N 
ATOM     31 H1   ALA B   1      41.455  54.627   4.478  1.00 25.03 LIG 0.28  HD
ATOM     32 H3   ALA B   1      40.598  55.494   3.686  1.00 25.03 LIG 0.28  HD
ATOM     33 H2   ALA B   1      40.515  54.052   3.531  1.00 25.03 LIG 0.28  HD
ENDBRANCH 28 30
ENDBRANCH 25 28
ENDBRANCH 11 24
ENDBRANCH 9 11
ENDBRANCH 6 7
BRANCH 6 34
ATOM     34  CB  THR B   3      35.582  52.271   8.306  1.00 21.53 LIG 0.15  C 
ATOM     35  CG2 THR B   3      34.418  52.901   8.966  1.00 22.92 LIG 0.04  C 
BRANCH 34 36
ATOM     36 OG1  THR B   3      36.036  53.106   7.251  1.00 22.47 LIG-0.39  OA
ATOM     37 HG1  THR B   3      35.899  52.726   6.514  1.00 22.47 LIG 0.21  HD
ENDBRANCH 34 36
ENDBRANCH 6 34
ENDBRANCH 4 6
ENDBRANCH 1 2
BRANCH 1 38
ATOM     38  CB  LYS B   4      38.533  48.517  11.533  1.00 32.55 LIG 0.04  C 
BRANCH 38 39
ATOM     39  CG  LYS B   4      39.000  47.353  10.706  1.00 30.49 LIG 0.00  C 
BRANCH 39 40
ATOM     40  CD  LYS B   4      39.650  47.851   9.415  1.00 34.18 LIG 0.03  C 
BRANCH 40 41
ATOM     41  CE  LYS B   4      41.163  47.729   9.489  1.00 33.34 LIG 0.23  C 
BRANCH 41 42
ATOM     42  NZ  LYS B   4      41.686  47.619  10.874  1.00 36.76 LIG-0.08  N 
ATOM     43 HZ1  LYS B   4      42.541  47.373  10.849  1.00 36.76 LIG 0.27  HD
ATOM     44 HZ2  LYS B   4      41.616  48.407  11.281  1.00 36.76 LIG 0.27  HD
ATOM     45 HZ3  LYS B   4      41.215  47.011  11.322  1.00 36.76 LIG 0.27  HD
ENDBRANCH 41 42
ENDBRANCH 40 41
ENDBRANCH 39 40
ENDBRANCH 38 39
ENDBRANCH 1 38
BRANCH 1 46
ATOM     46  C   LYS B   4      36.310  48.660  12.583  1.00 34.41 LIG 0.24  C 
ATOM     47  N   GLN B   5      35.233  49.414  12.757  1.00 39.81 LIG-0.35  N 
ATOM     48 H    GLN B   5      34.909  49.956  12.173  1.00 39.81 LIG 0.16  HD
ATOM     49 O    LYS B   4      36.684  47.800  13.407  1.00 33.27 LIG-0.27  OA
BRANCH 47 50
ATOM     50  CA  GLN B   5      34.510  49.349  14.026  1.00 46.50 LIG 0.18  C 
BRANCH 50 51
ATOM     51  C   GLN B   5      35.385  49.757  15.214  1.00 52.91 LIG 0.24  C 
ATOM     52  N   THR B   6      34.724  50.178  16.301  1.00 59.38 LIG-0.34  N 
ATOM     53 H    THR B   6      33.875  50.079  16.395  1.00 59.38 LIG 0.16  HD
ATOM     54 O    GLN B   5      36.603  49.751  15.120  1.00 55.19 LIG-0.27  OA
BRANCH 52 55
ATOM     55  CA  THR B   6      35.372  50.863  17.468  1.00 66.40 LIG 0.20  C 
BRANCH 55 56
ATOM     56  CB  THR B   6      36.756  50.234  17.851  1.00 64.05 LIG 0.15  C 
ATOM     57  CG2 THR B   6      37.731  51.314  18.306  1.00 70.60 LIG 0.04  C 
BRANCH 56 58
ATOM     58 OG1  THR B   6      36.620  49.252  18.893  1.00 62.34 LIG-0.39  OA
ATOM     59 HG1  THR B   6      35.950  49.436  19.366  1.00 62.34 LIG 0.21  HD
ENDBRANCH 56 58
ENDBRANCH 55 56
BRANCH 55 60
ATOM     60  C   THR B   6      35.651  52.373  17.208  1.00 68.19 LIG 0.24  C 
ATOM     61 O    THR B   6      35.296  53.238  18.038  1.00 63.20 LIG-0.27  OA
ATOM     62  N   ALA B   7      36.259  52.680  16.059  1.00 78.65 LIG-0.35  N 
ATOM     63 H    ALA B   7      36.605  52.094  15.532  1.00 78.65 LIG 0.16  HD
BRANCH 62 64
ATOM     64  CA  ALA B   7      36.394  54.061  15.585  1.00 81.14 LIG 0.16  C 
ATOM     65  CB  ALA B   7      36.999  54.947  16.677  1.00 91.84 LIG 0.04  C 
BRANCH 64 66
ATOM     66  C   ALA B   7      37.264  54.108  14.318  1.00 81.58 LIG 0.22  C 
ATOM     67 O    ALA B   7      38.119  53.245  14.096  1.00 77.41 LIG-0.29  OA
ENDBRANCH 64 66
ENDBRANCH 62 64
ENDBRANCH 55 60
ENDBRANCH 52 55
ENDBRANCH 50 51
BRANCH 50 68
ATOM     68  CB  GLN B   5      33.811  48.000  14.270  1.00 52.07 LIG 0.04  C 
BRANCH 68 69
ATOM     69  CG  GLN B   5      33.654  47.522  15.693  1.00 55.77 LIG 0.10  C 
BRANCH 69 70
ATOM     70  CD  GLN B   5      34.673  46.443  16.027  1.00 63.27 LIG 0.21  C 
ATOM     71  NE2 GLN B   5      35.478  46.696  17.042  1.00 63.75 LIG-0.37  N 
ATOM     72 21HE GLN B   5      35.402  47.434  17.476  1.00 63.75 LIG 0.16  HD
ATOM     73 22HE GLN B   5      36.078  46.124  17.268  1.00 63.75 LIG 0.16  HD
ATOM     74 OE1  GLN B   5      34.743  45.414  15.384  1.00 68.43 LIG-0.27  OA
ENDBRANCH 69 70
ENDBRANCH 68 69
ENDBRANCH 50 68
ENDBRANCH 47 50
ENDBRANCH 1 46
TORSDOF 30
ENDMDL
MODEL 18
USER: ADFR SOLUTION from run 177
USER: SCORE 23.024847 LL:  -4.131 LR: -20.698 RR:   0.000 FEB: -11.749
USER: RMSD 9.062440
USER: SEED 176
USER: STATUS no improvement in best in 2 clusters for 5 generations
USER: GENES 32
USER: genes 0 Translation |==|  0.66461 0.23102 0.39400
USER: genes 1 Rotation |==|  0.16086 0.67652 0.70229 0.75080
USER: genes 2 Torsion [C]-CA--N-[C] |==|  0.69088
USER: genes 3 Torsion [N]-C--CA-[N] |==|  0.63265
USER: genes 4 Torsion [C]-CA--N-[C] |==|  0.17280
USER: genes 5 Torsion [N]-C--CA-[N] |==|  0.13593
USER: genes 6 Torsion [C]-CA--CB-[CG] |==|  0.16885
USER: genes 7 Torsion [CA]-CB--CG-[CD] |==|  0.41444
USER: genes 8 Torsion [CB]-CG--CD-[NE] |==|  0.87766
USER: genes 9 Torsion [CG]-CD--NE-[CZ] |==|  0.40595
USER: genes 10 Torsion [C]-CA--N-[C] |==|  0.14999
USER: genes 11 Torsion [N]-C--CA-[N] |==|  0.04818
USER: genes 12 Torsion [C]-CA--N-[H1] |==|  0.55589
USER: genes 13 Torsion [C]-CA--CB-[CG2] |==|  0.23305
USER: genes 14 Torsion [CA]-CB--OG1-[HG1] |==|  0.49797
USER: genes 15 Torsion [N]-CA--CB-[CG] |==|  0.88679
USER: genes 16 Torsion [CA]-CB--CG-[CD] |==|  0.28165
USER: genes 17 Torsion [CB]-CG--CD-[CE] |==|  0.00251
USER: genes 18 Torsion [CG]-CD--CE-[NZ] |==|  0.47517
USER: genes 19 Torsion [CD]-CE--NZ-[HZ1] |==|  0.05075
USER: genes 20 Torsion [N]-CA--C-[N] |==|  0.04918
USER: genes 21 Torsion [C]-N--CA-[CB] |==|  0.82940
USER: genes 22 Torsion [N]-CA--C-[N] |==|  0.38738
USER: genes 23 Torsion [C]-N--CA-[CB] |==|  0.50556
USER: genes 24 Torsion [N]-CA--CB-[CG2] |==|  0.53488
USER: genes 25 Torsion [CA]-CB--OG1-[HG1] |==|  0.57564
USER: genes 26 Torsion [N]-CA--C-[N] |==|  0.24134
USER: genes 27 Torsion [C]-N--CA-[CB] |==|  0.84051
USER: genes 28 Torsion [N]-CA--C-[O] |==|  0.41760
USER: genes 29 Torsion [N]-CA--CB-[CG] |==|  0.26532
USER: genes 30 Torsion [CA]-CB--CG-[CD] |==|  0.65454
USER: genes 31 Torsion [CB]-CG--CD-[NE2] |==|  0.45870
ROOT
ATOM      1  CA  LYS B   4      38.197  49.067   8.267  1.00 30.17 LIG 0.18  C 
ENDROOT
BRANCH 1 2
ATOM      2  N   LYS B   4      39.424  49.837   8.199  1.00 25.68 LIG-0.35  N 
ATOM      3 H    LYS B   4      39.899  49.802   8.915  1.00 25.68 LIG 0.16  HD
ATOM      4  C   THR B   3      39.777  50.537   7.114  1.00 23.58 LIG 0.24  C 
ATOM      5 O    THR B   3      39.108  50.573   6.074  1.00 24.56 LIG-0.27  OA
BRANCH 4 6
ATOM      6  CA  THR B   3      41.076  51.338   7.213  1.00 21.46 LIG 0.20  C 
BRANCH 6 7
ATOM      7  N   THR B   3      40.904  52.695   6.741  1.00 21.22 LIG-0.34  N 
ATOM      8 H    THR B   3      41.389  52.889   6.057  1.00 21.22 LIG 0.16  HD
ATOM      9  C   ARG B   2      40.083  53.547   7.307  1.00 21.22 LIG 0.24  C 
ATOM     10 O    ARG B   2      39.416  53.262   8.268  1.00 22.30 LIG-0.27  OA
BRANCH 9 11
ATOM     11  CA  ARG B   2      39.993  54.936   6.657  1.00 22.28 LIG 0.18  C 
BRANCH 11 12
ATOM     12  CB  ARG B   2      38.812  55.752   7.191  1.00 24.95 LIG 0.04  C 
BRANCH 12 13
ATOM     13  CG  ARG B   2      38.786  56.070   8.670  1.00 25.01 LIG 0.02  C 
BRANCH 13 14
ATOM     14  CD  ARG B   2      38.076  57.421   8.886  1.00 28.81 LIG 0.14  C 
BRANCH 14 15
ATOM     15  NE  ARG B   2      38.462  58.481   7.954  1.00 31.55 LIG-0.23  N 
ATOM     16 HE   ARG B   2      39.277  58.489   7.681  1.00 31.55 LIG 0.18  HD
ATOM     17  CZ  ARG B   2      37.649  59.442   7.492  1.00 33.58 LIG 0.67  C 
ATOM     18  NH2 ARG B   2      36.360  59.464   7.809  1.00 33.13 LIG-0.23  N 
ATOM     19  NH1 ARG B   2      38.120  60.372   6.686  1.00 37.12 LIG-0.23  N 
ATOM     20 1HH2 ARG B   2      36.032  58.855   8.320  1.00 33.13 LIG 0.17  HD
ATOM     21 2HH2 ARG B   2      35.853  60.088   7.504  1.00 33.13 LIG 0.17  HD
ATOM     22 2HH1 ARG B   2      37.598  60.988   6.389  1.00 37.12 LIG 0.17  HD
ATOM     23 1HH1 ARG B   2      38.949  60.362   6.456  1.00 37.12 LIG 0.17  HD
ENDBRANCH 14 15
ENDBRANCH 13 14
ENDBRANCH 12 13
ENDBRANCH 11 12
BRANCH 11 24
ATOM     24  N   ARG B   2      39.801  54.777   5.228  1.00 22.27 LIG-0.35  N 
ATOM     25  C   ALA B   1      38.806  54.033   4.774  1.00 22.85 LIG 0.25  C 
ATOM     26 O    ALA B   1      38.018  53.456   5.533  1.00 22.62 LIG-0.27  OA
ATOM     27 H    ARG B   2      40.370  55.193   4.734  1.00 22.27 LIG 0.16  HD
BRANCH 25 28
ATOM     28  CA  ALA B   1      38.702  53.897   3.246  1.00 23.76 LIG 0.27  C 
ATOM     29  CB  ALA B   1      38.289  52.489   2.833  1.00 24.39 LIG 0.05  C 
BRANCH 28 30
ATOM     30  N   ALA B   1      39.937  54.274   2.568  1.00 25.03 LIG-0.07  N 
ATOM     31 H1   ALA B   1      39.762  54.464   1.716  1.00 25.03 LIG 0.28  HD
ATOM     32 H3   ALA B   1      40.516  53.600   2.608  1.00 25.03 LIG 0.28  HD
ATOM     33 H2   ALA B   1      40.287  54.990   2.965  1.00 25.03 LIG 0.28  HD
ENDBRANCH 28 30
ENDBRANCH 25 28
ENDBRANCH 11 24
ENDBRANCH 9 11
ENDBRANCH 6 7
BRANCH 6 34
ATOM     34  CB  THR B   3      41.590  51.329   8.649  1.00 21.53 LIG 0.15  C 
ATOM     35  CG2 THR B   3      42.377  50.110   8.936  1.00 22.92 LIG 0.04  C 
BRANCH 34 36
ATOM     36 OG1  THR B   3      42.409  52.474   8.834  1.00 22.47 LIG-0.39  OA
ATOM     37 HG1  THR B   3      42.693  52.491   9.624  1.00 22.47 LIG 0.21  HD
ENDBRANCH 34 36
ENDBRANCH 6 34
ENDBRANCH 4 6
ENDBRANCH 1 2
BRANCH 1 38
ATOM     38  CB  LYS B   4      38.503  47.657   8.697  1.00 32.55 LIG 0.04  C 
BRANCH 38 39
ATOM     39  CG  LYS B   4      39.743  47.099   8.059  1.00 30.49 LIG 0.00  C 
BRANCH 39 40
ATOM     40  CD  LYS B   4      40.912  47.152   9.042  1.00 34.18 LIG 0.03  C 
BRANCH 40 41
ATOM     41  CE  LYS B   4      40.470  47.730  10.376  1.00 33.34 LIG 0.23  C 
BRANCH 41 42
ATOM     42  NZ  LYS B   4      41.496  47.619  11.444  1.00 36.76 LIG-0.08  N 
ATOM     43 HZ1  LYS B   4      42.293  47.474  11.076  1.00 36.76 LIG 0.27  HD
ATOM     44 HZ2  LYS B   4      41.520  48.375  11.914  1.00 36.76 LIG 0.27  HD
ATOM     45 HZ3  LYS B   4      41.291  46.942  11.984  1.00 36.76 LIG 0.27  HD
ENDBRANCH 41 42
ENDBRANCH 40 41
ENDBRANCH 39 40
ENDBRANCH 38 39
ENDBRANCH 1 38
BRANCH 1 46
ATOM     46  C   LYS B   4      37.252  49.707   9.242  1.00 34.41 LIG 0.24  C 
ATOM     47  N   GLN B   5      37.491  50.968   9.573  1.00 39.81 LIG-0.35  N 
ATOM     48 H    GLN B   5      38.102  51.464   9.225  1.00 39.81 LIG 0.16  HD
ATOM     49 O    LYS B   4      36.284  49.055   9.683  1.00 33.27 LIG-0.27  OA
BRANCH 47 50
ATOM     50  CA  GLN B   5      36.674  51.605  10.605  1.00 46.50 LIG 0.18  C 
BRANCH 50 51
ATOM     51  C   GLN B   5      36.897  50.984  11.987  1.00 52.91 LIG 0.24  C 
ATOM     52  N   THR B   6      36.949  51.849  13.008  1.00 59.38 LIG-0.34  N 
ATOM     53 H    THR B   6      36.715  52.674  12.929  1.00 59.38 LIG 0.16  HD
ATOM     54 O    GLN B   5      37.079  49.782  12.106  1.00 55.19 LIG-0.27  OA
BRANCH 52 55
ATOM     55  CA  THR B   6      37.412  51.495  14.390  1.00 66.40 LIG 0.20  C 
BRANCH 55 56
ATOM     56  CB  THR B   6      37.317  52.698  15.391  1.00 64.05 LIG 0.15  C 
ATOM     57  CG2 THR B   6      38.076  52.389  16.677  1.00 70.60 LIG 0.04  C 
BRANCH 56 58
ATOM     58 OG1  THR B   6      37.839  53.907  14.814  1.00 62.34 LIG-0.39  OA
ATOM     59 HG1  THR B   6      38.123  54.409  15.425  1.00 62.34 LIG 0.21  HD
ENDBRANCH 56 58
ENDBRANCH 55 56
BRANCH 55 60
ATOM     60  C   THR B   6      36.584  50.343  15.032  1.00 68.19 LIG 0.24  C 
ATOM     61 O    THR B   6      35.609  50.596  15.772  1.00 63.20 LIG-0.27  OA
ATOM     62  N   ALA B   7      36.986  49.096  14.766  1.00 78.65 LIG-0.35  N 
ATOM     63 H    ALA B   7      37.583  48.905  14.176  1.00 78.65 LIG 0.16  HD
BRANCH 62 64
ATOM     64  CA  ALA B   7      36.440  47.929  15.463  1.00 81.14 LIG 0.16  C 
ATOM     65  CB  ALA B   7      36.643  48.060  16.975  1.00 91.84 LIG 0.04  C 
BRANCH 64 66
ATOM     66  C   ALA B   7      34.947  47.763  15.138  1.00 81.58 LIG 0.22  C 
ATOM     67 O    ALA B   7      34.413  46.650  15.131  1.00 77.41 LIG-0.29  OA
ENDBRANCH 64 66
ENDBRANCH 62 64
ENDBRANCH 55 60
ENDBRANCH 52 55
ENDBRANCH 50 51
BRANCH 50 68
ATOM     68  CB  GLN B   5      35.179  51.681  10.249  1.00 52.07 LIG 0.04  C 
BRANCH 68 69
ATOM     69  CG  GLN B   5      34.264  50.597  10.766  1.00 55.77 LIG 0.10  C 
BRANCH 69 70
ATOM     70  CD  GLN B   5      33.507  49.928   9.628  1.00 63.27 LIG 0.21  C 
ATOM     71  NE2 GLN B   5      32.918  48.783   9.915  1.00 63.75 LIG-0.37  N 
ATOM     72 21HE GLN B   5      32.970  48.460  10.711  1.00 63.75 LIG 0.16  HD
ATOM     73 22HE GLN B   5      32.484  48.359   9.306  1.00 63.75 LIG 0.16  HD
ATOM     74 OE1  GLN B   5      33.462  50.422   8.519  1.00 68.43 LIG-0.27  OA
ENDBRANCH 69 70
ENDBRANCH 68 69
ENDBRANCH 50 68
ENDBRANCH 47 50
ENDBRANCH 1 46
TORSDOF 30
ENDMDL
MODEL 19
USER: ADFR SOLUTION from run 138
USER: SCORE 23.093614 LL:  -4.329 LR: -20.672 RR:   0.000 FEB: -11.723
USER: RMSD 6.826704
USER: SEED 137
USER: STATUS searching
USER: GENES 32
USER: genes 0 Translation |==|  0.73011 0.52981 0.44137
USER: genes 1 Rotation |==|  0.59378 0.38386 0.42266 0.97089
USER: genes 2 Torsion [C]-CA--N-[C] |==|  0.69686
USER: genes 3 Torsion [N]-C--CA-[N] |==|  0.21488
USER: genes 4 Torsion [C]-CA--N-[C] |==|  0.78132
USER: genes 5 Torsion [N]-C--CA-[N] |==|  0.11454
USER: genes 6 Torsion [C]-CA--CB-[CG] |==|  0.24721
USER: genes 7 Torsion [CA]-CB--CG-[CD] |==|  0.59554
USER: genes 8 Torsion [CB]-CG--CD-[NE] |==|  0.45533
USER: genes 9 Torsion [CG]-CD--NE-[CZ] |==|  0.51455
USER: genes 10 Torsion [C]-CA--N-[C] |==|  0.16229
USER: genes 11 Torsion [N]-C--CA-[N] |==|  0.21750
USER: genes 12 Torsion [C]-CA--N-[H1] |==|  0.68386
USER: genes 13 Torsion [C]-CA--CB-[CG2] |==|  0.19145
USER: genes 14 Torsion [CA]-CB--OG1-[HG1] |==|  0.48964
USER: genes 15 Torsion [N]-CA--CB-[CG] |==|  0.24529
USER: genes 16 Torsion [CA]-CB--CG-[CD] |==|  0.75527
USER: genes 17 Torsion [CB]-CG--CD-[CE] |==|  0.84183
USER: genes 18 Torsion [CG]-CD--CE-[NZ] |==|  0.77445
USER: genes 19 Torsion [CD]-CE--NZ-[HZ1] |==|  0.19075
USER: genes 20 Torsion [N]-CA--C-[N] |==|  0.01875
USER: genes 21 Torsion [C]-N--CA-[CB] |==|  0.46879
USER: genes 22 Torsion [N]-CA--C-[N] |==|  0.27988
USER: genes 23 Torsion [C]-N--CA-[CB] |==|  0.53415
USER: genes 24 Torsion [N]-CA--CB-[CG2] |==|  0.16485
USER: genes 25 Torsion [CA]-CB--OG1-[HG1] |==|  0.01806
USER: genes 26 Torsion [N]-CA--C-[N] |==|  0.44651
USER: genes 27 Torsion [C]-N--CA-[CB] |==|  0.32675
USER: genes 28 Torsion [N]-CA--C-[O] |==|  0.66410
USER: genes 29 Torsion [N]-CA--CB-[CG] |==|  0.95253
USER: genes 30 Torsion [CA]-CB--CG-[CD] |==|  0.85206
USER: genes 31 Torsion [CB]-CG--CD-[NE2] |==|  0.81103
ROOT
ATOM      1  CA  LYS B   4      39.720  55.790   9.404  1.00 30.17 LIG 0.18  C 
ENDROOT
BRANCH 1 2
ATOM      2  N   LYS B   4      39.652  54.344   9.497  1.00 25.68 LIG-0.35  N 
ATOM      3 H    LYS B   4      39.285  53.968   8.816  1.00 25.68 LIG 0.16  HD
ATOM      4  C   THR B   3      40.120  53.666  10.551  1.00 23.58 LIG 0.24  C 
ATOM      5 O    THR B   3      40.669  54.202  11.522  1.00 24.56 LIG-0.27  OA
BRANCH 4 6
ATOM      6  CA  THR B   3      39.932  52.148  10.523  1.00 21.46 LIG 0.20  C 
BRANCH 6 7
ATOM      7  N   THR B   3      40.892  51.507   9.651  1.00 21.22 LIG-0.34  N 
ATOM      8 H    THR B   3      41.552  51.144  10.067  1.00 21.22 LIG 0.16  HD
ATOM      9  C   ARG B   2      40.763  51.484   8.345  1.00 21.22 LIG 0.24  C 
ATOM     10 O    ARG B   2      39.837  52.003   7.777  1.00 22.30 LIG-0.27  OA
BRANCH 9 11
ATOM     11  CA  ARG B   2      41.853  50.728   7.570  1.00 22.28 LIG 0.18  C 
BRANCH 11 12
ATOM     12  CB  ARG B   2      41.397  50.335   6.161  1.00 24.95 LIG 0.04  C 
BRANCH 12 13
ATOM     13  CG  ARG B   2      41.633  51.324   5.042  1.00 25.01 LIG 0.02  C 
BRANCH 13 14
ATOM     14  CD  ARG B   2      40.475  51.232   4.030  1.00 28.81 LIG 0.14  C 
BRANCH 14 15
ATOM     15  NE  ARG B   2      40.368  52.360   3.103  1.00 31.55 LIG-0.23  N 
ATOM     16 HE   ARG B   2      40.987  52.956   3.135  1.00 31.55 LIG 0.18  HD
ATOM     17  CZ  ARG B   2      39.385  52.540   2.210  1.00 33.58 LIG 0.67  C 
ATOM     18  NH2 ARG B   2      38.428  51.635   2.048  1.00 33.13 LIG-0.23  N 
ATOM     19  NH1 ARG B   2      39.373  53.619   1.454  1.00 37.12 LIG-0.23  N 
ATOM     20 1HH2 ARG B   2      38.431  50.917   2.521  1.00 33.13 LIG 0.17  HD
ATOM     21 2HH2 ARG B   2      37.805  51.767   1.470  1.00 33.13 LIG 0.17  HD
ATOM     22 2HH1 ARG B   2      38.742  53.735   0.880  1.00 37.12 LIG 0.17  HD
ATOM     23 1HH1 ARG B   2      39.995  54.208   1.533  1.00 37.12 LIG 0.17  HD
ENDBRANCH 14 15
ENDBRANCH 13 14
ENDBRANCH 12 13
ENDBRANCH 11 12
BRANCH 11 24
ATOM     24  N   ARG B   2      42.176  49.505   8.280  1.00 22.27 LIG-0.35  N 
ATOM     25  C   ALA B   1      41.229  48.612   8.521  1.00 22.85 LIG 0.25  C 
ATOM     26 O    ALA B   1      40.059  48.781   8.158  1.00 22.62 LIG-0.27  OA
ATOM     27 H    ARG B   2      42.999  49.425   8.516  1.00 22.27 LIG 0.16  HD
BRANCH 25 28
ATOM     28  CA  ALA B   1      41.660  47.363   9.308  1.00 23.76 LIG 0.27  C 
ATOM     29  CB  ALA B   1      40.715  46.193   9.065  1.00 24.39 LIG 0.05  C 
BRANCH 28 30
ATOM     30  N   ALA B   1      41.781  47.619  10.738  1.00 25.03 LIG-0.07  N 
ATOM     31 H1   ALA B   1      42.634  47.542  10.982  1.00 25.03 LIG 0.28  HD
ATOM     32 H3   ALA B   1      41.289  47.030  11.188  1.00 25.03 LIG 0.28  HD
ATOM     33 H2   ALA B   1      41.495  48.442  10.917  1.00 25.03 LIG 0.28  HD
ENDBRANCH 28 30
ENDBRANCH 25 28
ENDBRANCH 11 24
ENDBRANCH 9 11
ENDBRANCH 6 7
BRANCH 6 34
ATOM     34  CB  THR B   3      40.026  51.583  11.936  1.00 21.53 LIG 0.15  C 
ATOM     35  CG2 THR B   3      38.869  51.992  12.762  1.00 22.92 LIG 0.04  C 
BRANCH 34 36
ATOM     36 OG1  THR B   3      40.062  50.166  11.844  1.00 22.47 LIG-0.39  OA
ATOM     37 HG1  THR B   3      40.166  49.838  12.610  1.00 22.47 LIG 0.21  HD
ENDBRANCH 34 36
ENDBRANCH 6 34
ENDBRANCH 4 6
ENDBRANCH 1 2
BRANCH 1 38
ATOM     38  CB  LYS B   4      40.311  56.189   8.078  1.00 32.55 LIG 0.04  C 
BRANCH 38 39
ATOM     39  CG  LYS B   4      39.283  56.330   6.991  1.00 30.49 LIG 0.00  C 
BRANCH 39 40
ATOM     40  CD  LYS B   4      39.058  54.986   6.300  1.00 34.18 LIG 0.03  C 
BRANCH 40 41
ATOM     41  CE  LYS B   4      40.362  54.439   5.743  1.00 33.34 LIG 0.23  C 
BRANCH 41 42
ATOM     42  NZ  LYS B   4      40.745  55.027   4.434  1.00 36.76 LIG-0.08  N 
ATOM     43 HZ1  LYS B   4      40.965  55.882   4.546  1.00 36.76 LIG 0.27  HD
ATOM     44 HZ2  LYS B   4      41.441  54.584   4.101  1.00 36.76 LIG 0.27  HD
ATOM     45 HZ3  LYS B   4      40.059  54.968   3.870  1.00 36.76 LIG 0.27  HD
ENDBRANCH 41 42
ENDBRANCH 40 41
ENDBRANCH 39 40
ENDBRANCH 38 39
ENDBRANCH 1 38
BRANCH 1 46
ATOM     46  C   LYS B   4      38.344  56.371   9.548  1.00 34.41 LIG 0.24  C 
ATOM     47  N   GLN B   5      37.366  55.533   9.864  1.00 39.81 LIG-0.35  N 
ATOM     48 H    GLN B   5      37.470  54.701  10.055  1.00 39.81 LIG 0.16  HD
ATOM     49 O    LYS B   4      38.171  57.597   9.391  1.00 33.27 LIG-0.27  OA
BRANCH 47 50
ATOM     50  CA  GLN B   5      35.988  56.022   9.903  1.00 46.50 LIG 0.18  C 
BRANCH 50 51
ATOM     51  C   GLN B   5      35.784  57.096  10.975  1.00 52.91 LIG 0.24  C 
ATOM     52  N   THR B   6      35.765  58.359  10.531  1.00 59.38 LIG-0.34  N 
ATOM     53 H    THR B   6      35.709  58.556   9.695  1.00 59.38 LIG 0.16  HD
ATOM     54 O    GLN B   5      35.713  56.790  12.155  1.00 55.19 LIG-0.27  OA
BRANCH 52 55
ATOM     55  CA  THR B   6      35.840  59.566  11.419  1.00 66.40 LIG 0.20  C 
BRANCH 55 56
ATOM     56  CB  THR B   6      35.492  60.897  10.668  1.00 64.05 LIG 0.15  C 
ATOM     57  CG2 THR B   6      34.083  60.837  10.089  1.00 70.60 LIG 0.04  C 
BRANCH 56 58
ATOM     58 OG1  THR B   6      35.597  62.037  11.538  1.00 62.34 LIG-0.39  OA
ATOM     59 HG1  THR B   6      35.914  61.797  12.278  1.00 62.34 LIG 0.21  HD
ENDBRANCH 56 58
ENDBRANCH 55 56
BRANCH 55 60
ATOM     60  C   THR B   6      34.860  59.493  12.627  1.00 68.19 LIG 0.24  C 
ATOM     61 O    THR B   6      33.871  58.728  12.600  1.00 63.20 LIG-0.27  OA
ATOM     62  N   ALA B   7      35.124  60.296  13.661  1.00 78.65 LIG-0.35  N 
ATOM     63 H    ALA B   7      35.855  60.744  13.741  1.00 78.65 LIG 0.16  HD
BRANCH 62 64
ATOM     64  CA  ALA B   7      34.182  60.490  14.767  1.00 81.14 LIG 0.16  C 
ATOM     65  CB  ALA B   7      34.792  60.006  16.085  1.00 91.84 LIG 0.04  C 
BRANCH 64 66
ATOM     66  C   ALA B   7      33.784  61.971  14.876  1.00 81.58 LIG 0.22  C 
ATOM     67 O    ALA B   7      33.991  62.615  15.909  1.00 77.41 LIG-0.29  OA
ENDBRANCH 64 66
ENDBRANCH 62 64
ENDBRANCH 55 60
ENDBRANCH 52 55
ENDBRANCH 50 51
BRANCH 50 68
ATOM     68  CB  GLN B   5      34.939  54.902  10.011  1.00 52.07 LIG 0.04  C 
BRANCH 68 69
ATOM     69  CG  GLN B   5      35.361  53.491   9.674  1.00 55.77 LIG 0.10  C 
BRANCH 69 70
ATOM     70  CD  GLN B   5      36.005  53.424   8.297  1.00 63.27 LIG 0.21  C 
ATOM     71  NE2 GLN B   5      35.207  53.648   7.270  1.00 63.75 LIG-0.37  N 
ATOM     72 21HE GLN B   5      34.376  53.828   7.402  1.00 63.75 LIG 0.16  HD
ATOM     73 22HE GLN B   5      35.518  53.615   6.469  1.00 63.75 LIG 0.16  HD
ATOM     74 OE1  GLN B   5      37.184  53.168   8.159  1.00 68.43 LIG-0.27  OA
ENDBRANCH 69 70
ENDBRANCH 68 69
ENDBRANCH 50 68
ENDBRANCH 47 50
ENDBRANCH 1 46
TORSDOF 30
ENDMDL
MODEL 20
USER: ADFR SOLUTION from run 181
USER: SCORE 24.241429 LL:  -4.746 LR: -20.647 RR:   0.000 FEB: -11.698
USER: RMSD 9.251577
USER: SEED 180
USER: STATUS searching
USER: GENES 32
USER: genes 0 Translation |==|  0.61617 0.28422 0.50801
USER: genes 1 Rotation |==|  0.39698 0.04469 0.47328 0.67709
USER: genes 2 Torsion [C]-CA--N-[C] |==|  0.61438
USER: genes 3 Torsion [N]-C--CA-[N] |==|  0.36924
USER: genes 4 Torsion [C]-CA--N-[C] |==|  0.86212
USER: genes 5 Torsion [N]-C--CA-[N] |==|  0.97664
USER: genes 6 Torsion [C]-CA--CB-[CG] |==|  0.25346
USER: genes 7 Torsion [CA]-CB--CG-[CD] |==|  0.25793
USER: genes 8 Torsion [CB]-CG--CD-[NE] |==|  0.61580
USER: genes 9 Torsion [CG]-CD--NE-[CZ] |==|  0.23385
USER: genes 10 Torsion [C]-CA--N-[C] |==|  0.64444
USER: genes 11 Torsion [N]-C--CA-[N] |==|  0.06875
USER: genes 12 Torsion [C]-CA--N-[H1] |==|  0.17542
USER: genes 13 Torsion [C]-CA--CB-[CG2] |==|  0.15310
USER: genes 14 Torsion [CA]-CB--OG1-[HG1] |==|  0.75922
USER: genes 15 Torsion [N]-CA--CB-[CG] |==|  0.13167
USER: genes 16 Torsion [CA]-CB--CG-[CD] |==|  0.66013
USER: genes 17 Torsion [CB]-CG--CD-[CE] |==|  0.54039
USER: genes 18 Torsion [CG]-CD--CE-[NZ] |==|  0.20858
USER: genes 19 Torsion [CD]-CE--NZ-[HZ1] |==|  0.88880
USER: genes 20 Torsion [N]-CA--C-[N] |==|  0.55920
USER: genes 21 Torsion [C]-N--CA-[CB] |==|  0.86028
USER: genes 22 Torsion [N]-CA--C-[N] |==|  0.34537
USER: genes 23 Torsion [C]-N--CA-[CB] |==|  0.82607
USER: genes 24 Torsion [N]-CA--CB-[CG2] |==|  0.88797
USER: genes 25 Torsion [CA]-CB--OG1-[HG1] |==|  0.86770
USER: genes 26 Torsion [N]-CA--C-[N] |==|  0.38088
USER: genes 27 Torsion [C]-N--CA-[CB] |==|  0.46538
USER: genes 28 Torsion [N]-CA--C-[O] |==|  0.37089
USER: genes 29 Torsion [N]-CA--CB-[CG] |==|  0.79193
USER: genes 30 Torsion [CA]-CB--CG-[CD] |==|  0.26253
USER: genes 31 Torsion [CB]-CG--CD-[NE2] |==|  0.65143
ROOT
ATOM      1  CA  LYS B   4      37.071  50.264  11.003  1.00 30.17 LIG 0.18  C 
ENDROOT
BRANCH 1 2
ATOM      2  N   LYS B   4      35.884  49.431  11.030  1.00 25.68 LIG-0.35  N 
ATOM      3 H    LYS B   4      35.968  48.691  10.601  1.00 25.68 LIG 0.16  HD
ATOM      4  C   THR B   3      34.765  49.791  11.668  1.00 23.58 LIG 0.24  C 
ATOM      5 O    THR B   3      34.647  50.844  12.305  1.00 24.56 LIG-0.27  OA
BRANCH 4 6
ATOM      6  CA  THR B   3      33.581  48.827  11.563  1.00 21.46 LIG 0.20  C 
BRANCH 6 7
ATOM      7  N   THR B   3      32.975  48.584  12.855  1.00 21.22 LIG-0.34  N 
ATOM      8 H    THR B   3      32.120  48.678  12.861  1.00 21.22 LIG 0.16  HD
ATOM      9  C   ARG B   2      33.671  48.252  13.917  1.00 21.22 LIG 0.24  C 
ATOM     10 O    ARG B   2      34.869  48.132  13.894  1.00 22.30 LIG-0.27  OA
BRANCH 9 11
ATOM     11  CA  ARG B   2      32.867  47.994  15.201  1.00 22.28 LIG 0.18  C 
BRANCH 11 12
ATOM     12  CB  ARG B   2      32.873  46.517  15.603  1.00 24.95 LIG 0.04  C 
BRANCH 12 13
ATOM     13  CG  ARG B   2      33.961  46.046  16.543  1.00 25.01 LIG 0.02  C 
BRANCH 13 14
ATOM     14  CD  ARG B   2      33.450  46.128  17.994  1.00 28.81 LIG 0.14  C 
BRANCH 14 15
ATOM     15  NE  ARG B   2      34.416  46.642  18.965  1.00 31.55 LIG-0.23  N 
ATOM     16 HE   ARG B   2      34.873  46.066  19.411  1.00 31.55 LIG 0.18  HD
ATOM     17  CZ  ARG B   2      34.649  47.938  19.217  1.00 33.58 LIG 0.67  C 
ATOM     18  NH2 ARG B   2      34.039  48.894  18.527  1.00 33.13 LIG-0.23  N 
ATOM     19  NH1 ARG B   2      35.517  48.283  20.147  1.00 37.12 LIG-0.23  N 
ATOM     20 1HH2 ARG B   2      33.483  48.687  17.905  1.00 33.13 LIG 0.17  HD
ATOM     21 2HH2 ARG B   2      34.201  49.721  18.702  1.00 33.13 LIG 0.17  HD
ATOM     22 2HH1 ARG B   2      35.667  49.115  20.309  1.00 37.12 LIG 0.17  HD
ATOM     23 1HH1 ARG B   2      35.935  47.676  20.592  1.00 37.12 LIG 0.17  HD
ENDBRANCH 14 15
ENDBRANCH 13 14
ENDBRANCH 12 13
ENDBRANCH 11 12
BRANCH 11 24
ATOM     24  N   ARG B   2      31.486  48.380  14.979  1.00 22.27 LIG-0.35  N 
ATOM     25  C   ALA B   1      30.887  49.202  15.824  1.00 22.85 LIG 0.25  C 
ATOM     26 O    ALA B   1      31.466  49.663  16.815  1.00 22.62 LIG-0.27  OA
ATOM     27 H    ARG B   2      31.118  48.038  14.280  1.00 22.27 LIG 0.16  HD
BRANCH 25 28
ATOM     28  CA  ALA B   1      29.414  49.528  15.524  1.00 23.76 LIG 0.27  C 
ATOM     29  CB  ALA B   1      28.626  49.792  16.802  1.00 24.39 LIG 0.05  C 
BRANCH 28 30
ATOM     30  N   ALA B   1      28.761  48.486  14.741  1.00 25.03 LIG-0.07  N 
ATOM     31 H1   ALA B   1      28.745  47.729  15.208  1.00 25.03 LIG 0.28  HD
ATOM     32 H3   ALA B   1      29.210  48.358  13.983  1.00 25.03 LIG 0.28  HD
ATOM     33 H2   ALA B   1      27.927  48.735  14.552  1.00 25.03 LIG 0.28  HD
ENDBRANCH 28 30
ENDBRANCH 25 28
ENDBRANCH 11 24
ENDBRANCH 9 11
ENDBRANCH 6 7
BRANCH 6 34
ATOM     34  CB  THR B   3      32.551  49.366  10.577  1.00 21.53 LIG 0.15  C 
ATOM     35  CG2 THR B   3      33.156  49.642   9.257  1.00 22.92 LIG 0.04  C 
BRANCH 34 36
ATOM     36 OG1  THR B   3      31.526  48.394  10.433  1.00 22.47 LIG-0.39  OA
ATOM     37 HG1  THR B   3      31.743  47.844   9.837  1.00 22.47 LIG 0.21  HD
ENDBRANCH 34 36
ENDBRANCH 6 34
ENDBRANCH 4 6
ENDBRANCH 1 2
BRANCH 1 38
ATOM     38  CB  LYS B   4      38.068  49.765  12.015  1.00 32.55 LIG 0.04  C 
BRANCH 38 39
ATOM     39  CG  LYS B   4      38.281  48.279  11.953  1.00 30.49 LIG 0.00  C 
BRANCH 39 40
ATOM     40  CD  LYS B   4      37.968  47.644  13.308  1.00 34.18 LIG 0.03  C 
BRANCH 40 41
ATOM     41  CE  LYS B   4      38.507  46.225  13.378  1.00 33.34 LIG 0.23  C 
BRANCH 41 42
ATOM     42  NZ  LYS B   4      39.979  46.154  13.556  1.00 36.76 LIG-0.08  N 
ATOM     43 HZ1  LYS B   4      40.369  46.779  13.058  1.00 36.76 LIG 0.27  HD
ATOM     44 HZ2  LYS B   4      40.182  46.289  14.412  1.00 36.76 LIG 0.27  HD
ATOM     45 HZ3  LYS B   4      40.270  45.351  13.306  1.00 36.76 LIG 0.27  HD
ENDBRANCH 41 42
ENDBRANCH 40 41
ENDBRANCH 39 40
ENDBRANCH 38 39
ENDBRANCH 1 38
BRANCH 1 46
ATOM     46  C   LYS B   4      37.677  50.238   9.630  1.00 34.41 LIG 0.24  C 
ATOM     47  N   GLN B   5      38.957  50.567   9.531  1.00 39.81 LIG-0.35  N 
ATOM     48 H    GLN B   5      39.479  50.730  10.194  1.00 39.81 LIG 0.16  HD
ATOM     49 O    LYS B   4      36.979  49.895   8.654  1.00 33.27 LIG-0.27  OA
BRANCH 47 50
ATOM     50  CA  GLN B   5      39.568  50.672   8.206  1.00 46.50 LIG 0.18  C 
BRANCH 50 51
ATOM     51  C   GLN B   5      39.199  51.979   7.499  1.00 52.91 LIG 0.24  C 
ATOM     52  N   THR B   6      40.232  52.731   7.097  1.00 59.38 LIG-0.34  N 
ATOM     53 H    THR B   6      41.042  52.439   7.086  1.00 59.38 LIG 0.16  HD
ATOM     54 O    GLN B   5      38.031  52.316   7.385  1.00 55.19 LIG-0.27  OA
BRANCH 52 55
ATOM     55  CA  THR B   6      40.109  54.150   6.626  1.00 66.40 LIG 0.20  C 
BRANCH 55 56
ATOM     56  CB  THR B   6      39.236  54.288   5.332  1.00 64.05 LIG 0.15  C 
ATOM     57  CG2 THR B   6      39.532  53.152   4.358  1.00 70.60 LIG 0.04  C 
BRANCH 56 58
ATOM     58 OG1  THR B   6      37.831  54.291   5.640  1.00 62.34 LIG-0.39  OA
ATOM     59 HG1  THR B   6      37.658  53.659   6.166  1.00 62.34 LIG 0.21  HD
ENDBRANCH 56 58
ENDBRANCH 55 56
BRANCH 55 60
ATOM     60  C   THR B   6      39.452  55.086   7.683  1.00 68.19 LIG 0.24  C 
ATOM     61 O    THR B   6      38.440  54.718   8.318  1.00 63.20 LIG-0.27  OA
ATOM     62  N   ALA B   7      40.011  56.288   7.847  1.00 78.65 LIG-0.35  N 
ATOM     63 H    ALA B   7      40.766  56.513   7.500  1.00 78.65 LIG 0.16  HD
BRANCH 62 64
ATOM     64  CA  ALA B   7      39.382  57.346   8.644  1.00 81.14 LIG 0.16  C 
ATOM     65  CB  ALA B   7      40.373  58.481   8.910  1.00 91.84 LIG 0.04  C 
BRANCH 64 66
ATOM     66  C   ALA B   7      38.134  57.884   7.926  1.00 81.58 LIG 0.22  C 
ATOM     67 O    ALA B   7      37.070  58.049   8.530  1.00 77.41 LIG-0.29  OA
ENDBRANCH 64 66
ENDBRANCH 62 64
ENDBRANCH 55 60
ENDBRANCH 52 55
ENDBRANCH 50 51
BRANCH 50 68
ATOM     68  CB  GLN B   5      39.314  49.448   7.310  1.00 52.07 LIG 0.04  C 
BRANCH 68 69
ATOM     69  CG  GLN B   5      40.081  48.179   7.597  1.00 55.77 LIG 0.10  C 
BRANCH 69 70
ATOM     70  CD  GLN B   5      39.280  47.242   8.489  1.00 63.27 LIG 0.21  C 
ATOM     71  NE2 GLN B   5      39.877  46.840   9.595  1.00 63.75 LIG-0.37  N 
ATOM     72 21HE GLN B   5      40.671  47.115   9.779  1.00 63.75 LIG 0.16  HD
ATOM     73 22HE GLN B   5      39.472  46.303  10.131  1.00 63.75 LIG 0.16  HD
ATOM     74 OE1  GLN B   5      38.160  46.881   8.187  1.00 68.43 LIG-0.27  OA
ENDBRANCH 69 70
ENDBRANCH 68 69
ENDBRANCH 50 68
ENDBRANCH 47 50
ENDBRANCH 1 46
TORSDOF 30
ENDMDL
MODEL 21
USER: ADFR SOLUTION from run 69
USER: SCORE 23.357436 LL:  -4.758 LR: -20.652 RR:   0.000 FEB: -11.703
USER: RMSD 8.582898
USER: SEED 68
USER: STATUS no improvement in best in 7 clusters for 5 generations
USER: GENES 32
USER: genes 0 Translation |==|  0.51637 0.30292 0.43869
USER: genes 1 Rotation |==|  0.41498 0.81492 0.13600 0.60535
USER: genes 2 Torsion [C]-CA--N-[C] |==|  0.59562
USER: genes 3 Torsion [N]-C--CA-[N] |==|  0.84998
USER: genes 4 Torsion [C]-CA--N-[C] |==|  0.20331
USER: genes 5 Torsion [N]-C--CA-[N] |==|  0.37544
USER: genes 6 Torsion [C]-CA--CB-[CG] |==|  0.04713
USER: genes 7 Torsion [CA]-CB--CG-[CD] |==|  0.60906
USER: genes 8 Torsion [CB]-CG--CD-[NE] |==|  0.60454
USER: genes 9 Torsion [CG]-CD--NE-[CZ] |==|  0.17335
USER: genes 10 Torsion [C]-CA--N-[C] |==|  0.64802
USER: genes 11 Torsion [N]-C--CA-[N] |==|  0.28489
USER: genes 12 Torsion [C]-CA--N-[H1] |==|  0.80563
USER: genes 13 Torsion [C]-CA--CB-[CG2] |==|  0.05130
USER: genes 14 Torsion [CA]-CB--OG1-[HG1] |==|  0.89213
USER: genes 15 Torsion [N]-CA--CB-[CG] |==|  0.73956
USER: genes 16 Torsion [CA]-CB--CG-[CD] |==|  0.84557
USER: genes 17 Torsion [CB]-CG--CD-[CE] |==|  0.40367
USER: genes 18 Torsion [CG]-CD--CE-[NZ] |==|  0.75743
USER: genes 19 Torsion [CD]-CE--NZ-[HZ1] |==|  0.17132
USER: genes 20 Torsion [N]-CA--C-[N] |==|  0.71270
USER: genes 21 Torsion [C]-N--CA-[CB] |==|  0.84896
USER: genes 22 Torsion [N]-CA--C-[N] |==|  0.37056
USER: genes 23 Torsion [C]-N--CA-[CB] |==|  0.72666
USER: genes 24 Torsion [N]-CA--CB-[CG2] |==|  0.07673
USER: genes 25 Torsion [CA]-CB--OG1-[HG1] |==|  0.25324
USER: genes 26 Torsion [N]-CA--C-[N] |==|  0.24746
USER: genes 27 Torsion [C]-N--CA-[CB] |==|  0.83263
USER: genes 28 Torsion [N]-CA--C-[O] |==|  0.48313
USER: genes 29 Torsion [N]-CA--CB-[CG] |==|  0.84188
USER: genes 30 Torsion [CA]-CB--CG-[CD] |==|  0.79011
USER: genes 31 Torsion [CB]-CG--CD-[NE2] |==|  0.78421
ROOT
ATOM      1  CA  LYS B   4      34.751  50.685   9.339  1.00 30.17 LIG 0.18  C 
ENDROOT
BRANCH 1 2
ATOM      2  N   LYS B   4      34.452  50.121  10.642  1.00 25.68 LIG-0.35  N 
ATOM      3 H    LYS B   4      35.002  50.359  11.259  1.00 25.68 LIG 0.16  HD
ATOM      4  C   THR B   3      33.413  49.307  10.854  1.00 23.58 LIG 0.24  C 
ATOM      5 O    THR B   3      32.606  48.980   9.975  1.00 24.56 LIG-0.27  OA
BRANCH 4 6
ATOM      6  CA  THR B   3      33.258  48.755  12.273  1.00 21.46 LIG 0.20  C 
BRANCH 6 7
ATOM      7  N   THR B   3      34.468  48.101  12.726  1.00 21.22 LIG-0.34  N 
ATOM      8 H    THR B   3      34.411  47.244  12.753  1.00 21.22 LIG 0.16  HD
ATOM      9  C   ARG B   2      35.549  48.763  13.065  1.00 21.22 LIG 0.24  C 
ATOM     10 O    ARG B   2      35.611  49.965  13.029  1.00 22.30 LIG-0.27  OA
BRANCH 9 11
ATOM     11  CA  ARG B   2      36.758  47.914  13.488  1.00 22.28 LIG 0.18  C 
BRANCH 11 12
ATOM     12  CB  ARG B   2      36.994  47.953  15.001  1.00 24.95 LIG 0.04  C 
BRANCH 12 13
ATOM     13  CG  ARG B   2      35.862  48.438  15.879  1.00 25.01 LIG 0.02  C 
BRANCH 13 14
ATOM     14  CD  ARG B   2      36.437  49.305  17.015  1.00 28.81 LIG 0.14  C 
BRANCH 14 15
ATOM     15  NE  ARG B   2      35.778  49.147  18.312  1.00 31.55 LIG-0.23  N 
ATOM     16 HE   ARG B   2      35.388  49.838  18.644  1.00 31.55 LIG 0.18  HD
ATOM     17  CZ  ARG B   2      35.731  48.013  19.026  1.00 33.58 LIG 0.67  C 
ATOM     18  NH2 ARG B   2      36.247  46.883  18.557  1.00 33.13 LIG-0.23  N 
ATOM     19  NH1 ARG B   2      35.141  48.000  20.204  1.00 37.12 LIG-0.23  N 
ATOM     20 1HH2 ARG B   2      36.620  46.869  17.783  1.00 33.13 LIG 0.17  HD
ATOM     21 2HH2 ARG B   2      36.208  46.165  19.029  1.00 33.13 LIG 0.17  HD
ATOM     22 2HH1 ARG B   2      35.111  47.273  20.663  1.00 37.12 LIG 0.17  HD
ATOM     23 1HH1 ARG B   2      34.786  48.719  20.515  1.00 37.12 LIG 0.17  HD
ENDBRANCH 14 15
ENDBRANCH 13 14
ENDBRANCH 12 13
ENDBRANCH 11 12
BRANCH 11 24
ATOM     24  N   ARG B   2      37.950  48.437  12.848  1.00 22.27 LIG-0.35  N 
ATOM     25  C   ALA B   1      38.728  47.631  12.143  1.00 22.85 LIG 0.25  C 
ATOM     26 O    ALA B   1      38.476  46.429  12.006  1.00 22.62 LIG-0.27  OA
ATOM     27 H    ARG B   2      38.091  49.277  12.967  1.00 22.27 LIG 0.16  HD
BRANCH 25 28
ATOM     28  CA  ALA B   1      39.986  48.269  11.529  1.00 23.76 LIG 0.27  C 
ATOM     29  CB  ALA B   1      40.156  47.877  10.066  1.00 24.39 LIG 0.05  C 
BRANCH 28 30
ATOM     30  N   ALA B   1      41.196  47.949  12.276  1.00 25.03 LIG-0.07  N 
ATOM     31 H1   ALA B   1      41.180  48.369  13.061  1.00 25.03 LIG 0.28  HD
ATOM     32 H3   ALA B   1      41.909  48.211  11.813  1.00 25.03 LIG 0.28  HD
ATOM     33 H2   ALA B   1      41.237  47.070  12.411  1.00 25.03 LIG 0.28  HD
ENDBRANCH 28 30
ENDBRANCH 25 28
ENDBRANCH 11 24
ENDBRANCH 9 11
ENDBRANCH 6 7
BRANCH 6 34
ATOM     34  CB  THR B   3      32.859  49.873  13.230  1.00 21.53 LIG 0.15  C 
ATOM     35  CG2 THR B   3      32.312  51.039  12.504  1.00 22.92 LIG 0.04  C 
BRANCH 34 36
ATOM     36 OG1  THR B   3      31.874  49.365  14.118  1.00 22.47 LIG-0.39  OA
ATOM     37 HG1  THR B   3      31.352  48.858  13.698  1.00 22.47 LIG 0.21  HD
ENDBRANCH 34 36
ENDBRANCH 6 34
ENDBRANCH 4 6
ENDBRANCH 1 2
BRANCH 1 38
ATOM     38  CB  LYS B   4      34.108  52.041   9.210  1.00 32.55 LIG 0.04  C 
BRANCH 38 39
ATOM     39  CG  LYS B   4      32.754  51.994   8.561  1.00 30.49 LIG 0.00  C 
BRANCH 39 40
ATOM     40  CD  LYS B   4      32.846  51.310   7.197  1.00 34.18 LIG 0.03  C 
BRANCH 40 41
ATOM     41  CE  LYS B   4      31.589  50.506   6.909  1.00 33.34 LIG 0.23  C 
BRANCH 41 42
ATOM     42  NZ  LYS B   4      31.633  49.119   7.436  1.00 36.76 LIG-0.08  N 
ATOM     43 HZ1  LYS B   4      31.712  49.140   8.322  1.00 36.76 LIG 0.27  HD
ATOM     44 HZ2  LYS B   4      30.883  48.693   7.216  1.00 36.76 LIG 0.27  HD
ATOM     45 HZ3  LYS B   4      32.330  48.690   7.086  1.00 36.76 LIG 0.27  HD
ENDBRANCH 41 42
ENDBRANCH 40 41
ENDBRANCH 39 40
ENDBRANCH 38 39
ENDBRANCH 1 38
BRANCH 1 46
ATOM     46  C   LYS B   4      36.237  50.803   9.168  1.00 34.41 LIG 0.24  C 
ATOM     47  N   GLN B   5      36.764  52.013   9.299  1.00 39.81 LIG-0.35  N 
ATOM     48 H    GLN B   5      36.332  52.717   9.537  1.00 39.81 LIG 0.16  HD
ATOM     49 O    LYS B   4      36.915  49.782   8.935  1.00 33.27 LIG-0.27  OA
BRANCH 47 50
ATOM     50  CA  GLN B   5      38.188  52.207   9.027  1.00 46.50 LIG 0.18  C 
BRANCH 50 51
ATOM     51  C   GLN B   5      38.505  52.161   7.530  1.00 52.91 LIG 0.24  C 
ATOM     52  N   THR B   6      39.299  53.140   7.077  1.00 59.38 LIG-0.34  N 
ATOM     53 H    THR B   6      39.734  53.665   7.603  1.00 59.38 LIG 0.16  HD
ATOM     54 O    GLN B   5      37.995  51.314   6.813  1.00 55.19 LIG-0.27  OA
BRANCH 52 55
ATOM     55  CA  THR B   6      39.523  53.439   5.624  1.00 66.40 LIG 0.20  C 
BRANCH 55 56
ATOM     56  CB  THR B   6      40.851  52.813   5.072  1.00 64.05 LIG 0.15  C 
ATOM     57  CG2 THR B   6      41.224  51.562   5.860  1.00 70.60 LIG 0.04  C 
BRANCH 56 58
ATOM     58 OG1  THR B   6      40.737  52.477   3.679  1.00 62.34 LIG-0.39  OA
ATOM     59 HG1  THR B   6      40.989  53.129   3.212  1.00 62.34 LIG 0.21  HD
ENDBRANCH 56 58
ENDBRANCH 55 56
BRANCH 55 60
ATOM     60  C   THR B   6      38.386  52.895   4.710  1.00 68.19 LIG 0.24  C 
ATOM     61 O    THR B   6      38.470  51.758   4.197  1.00 63.20 LIG-0.27  OA
ATOM     62  N   ALA B   7      37.350  53.711   4.494  1.00 78.65 LIG-0.35  N 
ATOM     63 H    ALA B   7      37.227  54.447   4.923  1.00 78.65 LIG 0.16  HD
BRANCH 62 64
ATOM     64  CA  ALA B   7      36.317  53.423   3.495  1.00 81.14 LIG 0.16  C 
ATOM     65  CB  ALA B   7      36.932  53.325   2.097  1.00 91.84 LIG 0.04  C 
BRANCH 64 66
ATOM     66  C   ALA B   7      35.583  52.119   3.847  1.00 81.58 LIG 0.22  C 
ATOM     67 O    ALA B   7      34.600  51.743   3.202  1.00 77.41 LIG-0.29  OA
ENDBRANCH 64 66
ENDBRANCH 62 64
ENDBRANCH 55 60
ENDBRANCH 52 55
ENDBRANCH 50 51
BRANCH 50 68
ATOM     68  CB  GLN B   5      39.103  51.268   9.832  1.00 52.07 LIG 0.04  C 
BRANCH 68 69
ATOM     69  CG  GLN B   5      38.999  51.286  11.339  1.00 55.77 LIG 0.10  C 
BRANCH 69 70
ATOM     70  CD  GLN B   5      39.669  52.522  11.921  1.00 63.27 LIG 0.21  C 
ATOM     71  NE2 GLN B   5      40.987  52.494  11.987  1.00 63.75 LIG-0.37  N 
ATOM     72 21HE GLN B   5      41.417  51.806  11.702  1.00 63.75 LIG 0.16  HD
ATOM     73 22HE GLN B   5      41.415  53.163  12.315  1.00 63.75 LIG 0.16  HD
ATOM     74 OE1  GLN B   5      39.020  53.472  12.311  1.00 68.43 LIG-0.27  OA
ENDBRANCH 69 70
ENDBRANCH 68 69
ENDBRANCH 50 68
ENDBRANCH 47 50
ENDBRANCH 1 46
TORSDOF 30
ENDMDL
MODEL 22
USER: ADFR SOLUTION from run 153
USER: SCORE 22.745749 LL:  -4.086 LR: -20.638 RR:   0.000 FEB: -11.689
USER: RMSD 7.081810
USER: SEED 152
USER: STATUS no improvement in best in 9 clusters for 5 generations
USER: GENES 32
USER: genes 0 Translation |==|  0.70834 0.52613 0.44375
USER: genes 1 Rotation |==|  0.81257 0.13673 0.36503 0.54605
USER: genes 2 Torsion [C]-CA--N-[C] |==|  0.62223
USER: genes 3 Torsion [N]-C--CA-[N] |==|  0.41402
USER: genes 4 Torsion [C]-CA--N-[C] |==|  0.78519
USER: genes 5 Torsion [N]-C--CA-[N] |==|  0.70615
USER: genes 6 Torsion [C]-CA--CB-[CG] |==|  0.15936
USER: genes 7 Torsion [CA]-CB--CG-[CD] |==|  0.61361
USER: genes 8 Torsion [CB]-CG--CD-[NE] |==|  0.35290
USER: genes 9 Torsion [CG]-CD--NE-[CZ] |==|  0.53795
USER: genes 10 Torsion [C]-CA--N-[C] |==|  0.68049
USER: genes 11 Torsion [N]-C--CA-[N] |==|  0.55732
USER: genes 12 Torsion [C]-CA--N-[H1] |==|  0.09714
USER: genes 13 Torsion [C]-CA--CB-[CG2] |==|  0.03350
USER: genes 14 Torsion [CA]-CB--OG1-[HG1] |==|  0.49947
USER: genes 15 Torsion [N]-CA--CB-[CG] |==|  0.89030
USER: genes 16 Torsion [CA]-CB--CG-[CD] |==|  0.76595
USER: genes 17 Torsion [CB]-CG--CD-[CE] |==|  0.43003
USER: genes 18 Torsion [CG]-CD--CE-[NZ] |==|  0.19883
USER: genes 19 Torsion [CD]-CE--NZ-[HZ1] |==|  0.42470
USER: genes 20 Torsion [N]-CA--C-[N] |==|  0.35676
USER: genes 21 Torsion [C]-N--CA-[CB] |==|  0.21844
USER: genes 22 Torsion [N]-CA--C-[N] |==|  0.36026
USER: genes 23 Torsion [C]-N--CA-[CB] |==|  0.82590
USER: genes 24 Torsion [N]-CA--CB-[CG2] |==|  0.59199
USER: genes 25 Torsion [CA]-CB--OG1-[HG1] |==|  0.64795
USER: genes 26 Torsion [N]-CA--C-[N] |==|  0.38197
USER: genes 27 Torsion [C]-N--CA-[CB] |==|  0.34365
USER: genes 28 Torsion [N]-CA--C-[O] |==|  0.90007
USER: genes 29 Torsion [N]-CA--CB-[CG] |==|  0.56592
USER: genes 30 Torsion [CA]-CB--CG-[CD] |==|  0.77804
USER: genes 31 Torsion [CB]-CG--CD-[NE2] |==|  0.35218
ROOT
ATOM      1  CA  LYS B   4      39.214  55.707   9.461  1.00 30.17 LIG 0.18  C 
ENDROOT
BRANCH 1 2
ATOM      2  N   LYS B   4      39.937  55.256   8.287  1.00 25.68 LIG-0.35  N 
ATOM      3 H    LYS B   4      40.571  55.784   8.045  1.00 25.68 LIG 0.16  HD
ATOM      4  C   THR B   3      39.637  54.121   7.647  1.00 23.58 LIG 0.24  C 
ATOM      5 O    THR B   3      38.740  53.348   8.006  1.00 24.56 LIG-0.27  OA
BRANCH 4 6
ATOM      6  CA  THR B   3      40.459  53.806   6.396  1.00 21.46 LIG 0.20  C 
BRANCH 6 7
ATOM      7  N   THR B   3      40.609  52.379   6.201  1.00 21.22 LIG-0.34  N 
ATOM      8 H    THR B   3      40.096  52.056   5.592  1.00 21.22 LIG 0.16  HD
ATOM      9  C   ARG B   2      41.453  51.652   6.893  1.00 21.22 LIG 0.24  C 
ATOM     10 O    ARG B   2      42.161  52.118   7.748  1.00 22.30 LIG-0.27  OA
BRANCH 9 11
ATOM     11  CA  ARG B   2      41.514  50.159   6.534  1.00 22.28 LIG 0.18  C 
BRANCH 11 12
ATOM     12  CB  ARG B   2      40.806  49.850   5.212  1.00 24.95 LIG 0.04  C 
BRANCH 12 13
ATOM     13  CG  ARG B   2      41.277  50.579   3.973  1.00 25.01 LIG 0.02  C 
BRANCH 13 14
ATOM     14  CD  ARG B   2      40.054  50.991   3.130  1.00 28.81 LIG 0.14  C 
BRANCH 14 15
ATOM     15  NE  ARG B   2      39.996  52.408   2.772  1.00 31.55 LIG-0.23  N 
ATOM     16 HE   ARG B   2      40.709  52.875   2.888  1.00 31.55 LIG 0.18  HD
ATOM     17  CZ  ARG B   2      38.921  53.041   2.279  1.00 33.58 LIG 0.67  C 
ATOM     18  NH2 ARG B   2      37.801  52.384   2.006  1.00 33.13 LIG-0.23  N 
ATOM     19  NH1 ARG B   2      38.974  54.334   2.032  1.00 37.12 LIG-0.23  N 
ATOM     20 1HH2 ARG B   2      37.755  51.536   2.145  1.00 33.13 LIG 0.17  HD
ATOM     21 2HH2 ARG B   2      37.121  52.806   1.690  1.00 33.13 LIG 0.17  HD
ATOM     22 2HH1 ARG B   2      38.285  54.740   1.715  1.00 37.12 LIG 0.17  HD
ATOM     23 1HH1 ARG B   2      39.698  54.773   2.186  1.00 37.12 LIG 0.17  HD
ENDBRANCH 14 15
ENDBRANCH 13 14
ENDBRANCH 12 13
ENDBRANCH 11 12
BRANCH 11 24
ATOM     24  N   ARG B   2      40.848  49.396   7.573  1.00 22.27 LIG-0.35  N 
ATOM     25  C   ALA B   1      41.542  48.552   8.319  1.00 22.85 LIG 0.25  C 
ATOM     26 O    ALA B   1      42.757  48.383   8.163  1.00 22.62 LIG-0.27  OA
ATOM     27 H    ARG B   2      40.004  49.541   7.650  1.00 22.27 LIG 0.16  HD
BRANCH 25 28
ATOM     28  CA  ALA B   1      40.745  47.764   9.373  1.00 23.76 LIG 0.27  C 
ATOM     29  CB  ALA B   1      39.617  48.601   9.964  1.00 24.39 LIG 0.05  C 
BRANCH 28 30
ATOM     30  N   ALA B   1      41.593  47.244  10.439  1.00 25.03 LIG-0.07  N 
ATOM     31 H1   ALA B   1      42.249  47.822  10.605  1.00 25.03 LIG 0.28  HD
ATOM     32 H3   ALA B   1      41.940  46.464  10.188  1.00 25.03 LIG 0.28  HD
ATOM     33 H2   ALA B   1      41.106  47.128  11.175  1.00 25.03 LIG 0.28  HD
ENDBRANCH 28 30
ENDBRANCH 25 28
ENDBRANCH 11 24
ENDBRANCH 9 11
ENDBRANCH 6 7
BRANCH 6 34
ATOM     34  CB  THR B   3      39.821  54.453   5.172  1.00 21.53 LIG 0.15  C 
ATOM     35  CG2 THR B   3      38.774  55.424   5.556  1.00 22.92 LIG 0.04  C 
BRANCH 34 36
ATOM     36 OG1  THR B   3      40.839  55.121   4.443  1.00 22.47 LIG-0.39  OA
ATOM     37 HG1  THR B   3      40.506  55.482   3.762  1.00 22.47 LIG 0.21  HD
ENDBRANCH 34 36
ENDBRANCH 6 34
ENDBRANCH 4 6
ENDBRANCH 1 2
BRANCH 1 38
ATOM     38  CB  LYS B   4      40.028  55.435  10.698  1.00 32.55 LIG 0.04  C 
BRANCH 38 39
ATOM     39  CG  LYS B   4      40.746  54.117  10.656  1.00 30.49 LIG 0.00  C 
BRANCH 39 40
ATOM     40  CD  LYS B   4      39.815  52.994  11.115  1.00 34.18 LIG 0.03  C 
BRANCH 40 41
ATOM     41  CE  LYS B   4      40.244  51.661  10.527  1.00 33.34 LIG 0.23  C 
BRANCH 41 42
ATOM     42  NZ  LYS B   4      41.495  51.122  11.119  1.00 36.76 LIG-0.08  N 
ATOM     43 HZ1  LYS B   4      41.495  50.235  11.057  1.00 36.76 LIG 0.27  HD
ATOM     44 HZ2  LYS B   4      42.197  51.449  10.681  1.00 36.76 LIG 0.27  HD
ATOM     45 HZ3  LYS B   4      41.545  51.360  11.976  1.00 36.76 LIG 0.27  HD
ENDBRANCH 41 42
ENDBRANCH 40 41
ENDBRANCH 39 40
ENDBRANCH 38 39
ENDBRANCH 1 38
BRANCH 1 46
ATOM     46  C   LYS B   4      38.929  57.176   9.347  1.00 34.41 LIG 0.24  C 
ATOM     47  N   GLN B   5      37.674  57.562   9.530  1.00 39.81 LIG-0.35  N 
ATOM     48 H    GLN B   5      37.029  57.049   9.772  1.00 39.81 LIG 0.16  HD
ATOM     49 O    LYS B   4      39.862  57.969   9.109  1.00 33.27 LIG-0.27  OA
BRANCH 47 50
ATOM     50  CA  GLN B   5      37.318  58.965   9.315  1.00 46.50 LIG 0.18  C 
BRANCH 50 51
ATOM     51  C   GLN B   5      36.104  59.388  10.146  1.00 52.91 LIG 0.24  C 
ATOM     52  N   THR B   6      36.256  60.510  10.862  1.00 59.38 LIG-0.34  N 
ATOM     53 H    THR B   6      36.919  61.046  10.748  1.00 59.38 LIG 0.16  HD
ATOM     54 O    GLN B   5      35.102  58.690  10.183  1.00 55.19 LIG-0.27  OA
BRANCH 52 55
ATOM     55  CA  THR B   6      35.307  60.961  11.932  1.00 66.40 LIG 0.20  C 
BRANCH 55 56
ATOM     56  CB  THR B   6      33.868  61.259  11.384  1.00 64.05 LIG 0.15  C 
ATOM     57  CG2 THR B   6      33.219  62.396  12.165  1.00 70.60 LIG 0.04  C 
BRANCH 56 58
ATOM     58 OG1  THR B   6      33.895  61.600   9.988  1.00 62.34 LIG-0.39  OA
ATOM     59 HG1  THR B   6      33.498  62.332   9.870  1.00 62.34 LIG 0.21  HD
ENDBRANCH 56 58
ENDBRANCH 55 56
BRANCH 55 60
ATOM     60  C   THR B   6      35.120  59.907  13.063  1.00 68.19 LIG 0.24  C 
ATOM     61 O    THR B   6      34.974  58.696  12.787  1.00 63.20 LIG-0.27  OA
ATOM     62  N   ALA B   7      35.102  60.370  14.316  1.00 78.65 LIG-0.35  N 
ATOM     63 H    ALA B   7      35.308  61.178  14.527  1.00 78.65 LIG 0.16  HD
BRANCH 62 64
ATOM     64  CA  ALA B   7      34.726  59.533  15.459  1.00 81.14 LIG 0.16  C 
ATOM     65  CB  ALA B   7      35.844  59.515  16.504  1.00 91.84 LIG 0.04  C 
BRANCH 64 66
ATOM     66  C   ALA B   7      33.418  60.042  16.085  1.00 81.58 LIG 0.22  C 
ATOM     67 O    ALA B   7      33.162  61.248  16.143  1.00 77.41 LIG-0.29  OA
ENDBRANCH 64 66
ENDBRANCH 62 64
ENDBRANCH 55 60
ENDBRANCH 52 55
ENDBRANCH 50 51
BRANCH 50 68
ATOM     68  CB  GLN B   5      37.153  59.339   7.832  1.00 52.07 LIG 0.04  C 
BRANCH 68 69
ATOM     69  CG  GLN B   5      37.329  60.786   7.436  1.00 55.77 LIG 0.10  C 
BRANCH 69 70
ATOM     70  CD  GLN B   5      36.075  61.594   7.736  1.00 63.27 LIG 0.21  C 
ATOM     71  NE2 GLN B   5      36.244  62.683   8.462  1.00 63.75 LIG-0.37  N 
ATOM     72 21HE GLN B   5      37.031  62.902   8.730  1.00 63.75 LIG 0.16  HD
ATOM     73 22HE GLN B   5      35.568  63.172   8.668  1.00 63.75 LIG 0.16  HD
ATOM     74 OE1  GLN B   5      34.983  61.244   7.335  1.00 68.43 LIG-0.27  OA
ENDBRANCH 69 70
ENDBRANCH 68 69
ENDBRANCH 50 68
ENDBRANCH 47 50
ENDBRANCH 1 46
TORSDOF 30
ENDMDL
MODEL 23
USER: ADFR SOLUTION from run 59
USER: SCORE 23.197172 LL:  -4.674 LR: -20.611 RR:   0.000 FEB: -11.662
USER: RMSD 8.992972
USER: SEED 58
USER: STATUS 1 or 2 clusters left
USER: GENES 32
USER: genes 0 Translation |==|  0.62066 0.22708 0.52171
USER: genes 1 Rotation |==|  0.06267 0.65665 0.66782 0.57774
USER: genes 2 Torsion [C]-CA--N-[C] |==|  0.73934
USER: genes 3 Torsion [N]-C--CA-[N] |==|  0.61285
USER: genes 4 Torsion [C]-CA--N-[C] |==|  0.14177
USER: genes 5 Torsion [N]-C--CA-[N] |==|  0.42996
USER: genes 6 Torsion [C]-CA--CB-[CG] |==|  0.04038
USER: genes 7 Torsion [CA]-CB--CG-[CD] |==|  0.30195
USER: genes 8 Torsion [CB]-CG--CD-[NE] |==|  0.99988
USER: genes 9 Torsion [CG]-CD--NE-[CZ] |==|  0.64452
USER: genes 10 Torsion [C]-CA--N-[C] |==|  0.62960
USER: genes 11 Torsion [N]-C--CA-[N] |==|  0.63657
USER: genes 12 Torsion [C]-CA--N-[H1] |==|  0.72862
USER: genes 13 Torsion [C]-CA--CB-[CG2] |==|  0.49172
USER: genes 14 Torsion [CA]-CB--OG1-[HG1] |==|  0.27115
USER: genes 15 Torsion [N]-CA--CB-[CG] |==|  0.80899
USER: genes 16 Torsion [CA]-CB--CG-[CD] |==|  0.98600
USER: genes 17 Torsion [CB]-CG--CD-[CE] |==|  0.34893
USER: genes 18 Torsion [CG]-CD--CE-[NZ] |==|  0.06570
USER: genes 19 Torsion [CD]-CE--NZ-[HZ1] |==|  0.38953
USER: genes 20 Torsion [N]-CA--C-[N] |==|  0.47257
USER: genes 21 Torsion [C]-N--CA-[CB] |==|  0.25556
USER: genes 22 Torsion [N]-CA--C-[N] |==|  0.00993
USER: genes 23 Torsion [C]-N--CA-[CB] |==|  0.53084
USER: genes 24 Torsion [N]-CA--CB-[CG2] |==|  0.53313
USER: genes 25 Torsion [CA]-CB--OG1-[HG1] |==|  0.02578
USER: genes 26 Torsion [N]-CA--C-[N] |==|  0.37787
USER: genes 27 Torsion [C]-N--CA-[CB] |==|  0.39770
USER: genes 28 Torsion [N]-CA--C-[O] |==|  0.85816
USER: genes 29 Torsion [N]-CA--CB-[CG] |==|  0.01652
USER: genes 30 Torsion [CA]-CB--CG-[CD] |==|  0.67715
USER: genes 31 Torsion [CB]-CG--CD-[NE2] |==|  0.64038
ROOT
ATOM      1  CA  LYS B   4      37.175  48.978  11.332  1.00 30.17 LIG 0.18  C 
ENDROOT
BRANCH 1 2
ATOM      2  N   LYS B   4      38.041  49.938  10.674  1.00 25.68 LIG-0.35  N 
ATOM      3 H    LYS B   4      38.540  50.385  11.214  1.00 25.68 LIG 0.16  HD
ATOM      4  C   THR B   3      38.054  50.106   9.347  1.00 23.58 LIG 0.24  C 
ATOM      5 O    THR B   3      37.354  49.451   8.566  1.00 24.56 LIG-0.27  OA
BRANCH 4 6
ATOM      6  CA  THR B   3      38.987  51.192   8.808  1.00 21.46 LIG 0.20  C 
BRANCH 6 7
ATOM      7  N   THR B   3      38.368  51.942   7.735  1.00 21.22 LIG-0.34  N 
ATOM      8 H    THR B   3      38.854  52.002   7.028  1.00 21.22 LIG 0.16  HD
ATOM      9  C   ARG B   2      37.176  52.479   7.838  1.00 21.22 LIG 0.24  C 
ATOM     10 O    ARG B   2      36.511  52.393   8.838  1.00 22.30 LIG-0.27  OA
BRANCH 9 11
ATOM     11  CA  ARG B   2      36.652  53.211   6.592  1.00 22.28 LIG 0.18  C 
BRANCH 11 12
ATOM     12  CB  ARG B   2      37.114  54.670   6.538  1.00 24.95 LIG 0.04  C 
BRANCH 12 13
ATOM     13  CG  ARG B   2      38.239  55.088   7.459  1.00 25.01 LIG 0.02  C 
BRANCH 13 14
ATOM     14  CD  ARG B   2      39.512  55.335   6.626  1.00 28.81 LIG 0.14  C 
BRANCH 14 15
ATOM     15  NE  ARG B   2      39.363  55.120   5.186  1.00 31.55 LIG-0.23  N 
ATOM     16 HE   ARG B   2      38.714  55.523   4.791  1.00 31.55 LIG 0.18  HD
ATOM     17  CZ  ARG B   2      40.156  54.345   4.431  1.00 33.58 LIG 0.67  C 
ATOM     18  NH2 ARG B   2      41.220  53.742   4.945  1.00 33.13 LIG-0.23  N 
ATOM     19  NH1 ARG B   2      39.899  54.194   3.147  1.00 37.12 LIG-0.23  N 
ATOM     20 1HH2 ARG B   2      41.412  53.843   5.777  1.00 33.13 LIG 0.17  HD
ATOM     21 2HH2 ARG B   2      41.717  53.248   4.446  1.00 33.13 LIG 0.17  HD
ATOM     22 2HH1 ARG B   2      40.407  53.697   2.662  1.00 37.12 LIG 0.17  HD
ATOM     23 1HH1 ARG B   2      39.224  54.593   2.793  1.00 37.12 LIG 0.17  HD
ENDBRANCH 14 15
ENDBRANCH 13 14
ENDBRANCH 12 13
ENDBRANCH 11 12
BRANCH 11 24
ATOM     24  N   ARG B   2      35.202  53.214   6.622  1.00 22.27 LIG-0.35  N 
ATOM     25  C   ALA B   1      34.519  52.890   5.536  1.00 22.85 LIG 0.25  C 
ATOM     26 O    ALA B   1      35.077  52.580   4.477  1.00 22.62 LIG-0.27  OA
ATOM     27 H    ARG B   2      34.851  53.436   7.376  1.00 22.27 LIG 0.16  HD
BRANCH 25 28
ATOM     28  CA  ALA B   1      32.987  52.954   5.654  1.00 23.76 LIG 0.27  C 
ATOM     29  CB  ALA B   1      32.545  53.234   7.086  1.00 24.39 LIG 0.05  C 
BRANCH 28 30
ATOM     30  N   ALA B   1      32.339  51.745   5.159  1.00 25.03 LIG-0.07  N 
ATOM     31 H1   ALA B   1      32.062  51.877   4.324  1.00 25.03 LIG 0.28  HD
ATOM     32 H3   ALA B   1      31.641  51.548   5.676  1.00 25.03 LIG 0.28  HD
ATOM     33 H2   ALA B   1      32.919  51.070   5.175  1.00 25.03 LIG 0.28  HD
ENDBRANCH 28 30
ENDBRANCH 25 28
ENDBRANCH 11 24
ENDBRANCH 9 11
ENDBRANCH 6 7
BRANCH 6 34
ATOM     34  CB  THR B   3      39.417  52.122   9.936  1.00 21.53 LIG 0.15  C 
ATOM     35  CG2 THR B   3      40.377  53.143   9.462  1.00 22.92 LIG 0.04  C 
BRANCH 34 36
ATOM     36 OG1  THR B   3      38.258  52.765  10.447  1.00 22.47 LIG-0.39  OA
ATOM     37 HG1  THR B   3      37.993  52.361  11.133  1.00 22.47 LIG 0.21  HD
ENDBRANCH 34 36
ENDBRANCH 6 34
ENDBRANCH 4 6
ENDBRANCH 1 2
BRANCH 1 38
ATOM     38  CB  LYS B   4      37.877  48.395  12.530  1.00 32.55 LIG 0.04  C 
BRANCH 38 39
ATOM     39  CG  LYS B   4      39.034  47.509  12.165  1.00 30.49 LIG 0.00  C 
BRANCH 39 40
ATOM     40  CD  LYS B   4      39.110  47.340  10.648  1.00 34.18 LIG 0.03  C 
BRANCH 40 41
ATOM     41  CE  LYS B   4      40.487  47.720  10.130  1.00 33.34 LIG 0.23  C 
BRANCH 41 42
ATOM     42  NZ  LYS B   4      41.558  47.620  11.153  1.00 36.76 LIG-0.08  N 
ATOM     43 HZ1  LYS B   4      42.294  47.285  10.781  1.00 36.76 LIG 0.27  HD
ATOM     44 HZ2  LYS B   4      41.734  48.429  11.480  1.00 36.76 LIG 0.27  HD
ATOM     45 HZ3  LYS B   4      41.290  47.087  11.813  1.00 36.76 LIG 0.27  HD
ENDBRANCH 41 42
ENDBRANCH 40 41
ENDBRANCH 39 40
ENDBRANCH 38 39
ENDBRANCH 1 38
BRANCH 1 46
ATOM     46  C   LYS B   4      35.905  49.653  11.760  1.00 34.41 LIG 0.24  C 
ATOM     47  N   GLN B   5      34.925  48.872  12.195  1.00 39.81 LIG-0.35  N 
ATOM     48 H    GLN B   5      34.985  48.022  12.312  1.00 39.81 LIG 0.16  HD
ATOM     49 O    LYS B   4      35.819  50.897  11.713  1.00 33.27 LIG-0.27  OA
BRANCH 47 50
ATOM     50  CA  GLN B   5      33.626  49.463  12.514  1.00 46.50 LIG 0.18  C 
BRANCH 50 51
ATOM     51  C   GLN B   5      33.006  48.856  13.775  1.00 52.91 LIG 0.24  C 
ATOM     52  N   THR B   6      33.763  47.956  14.415  1.00 59.38 LIG-0.34  N 
ATOM     53 H    THR B   6      34.597  47.840  14.236  1.00 59.38 LIG 0.16  HD
ATOM     54 O    GLN B   5      31.867  49.144  14.108  1.00 55.19 LIG-0.27  OA
BRANCH 52 55
ATOM     55  CA  THR B   6      33.262  47.056  15.506  1.00 66.40 LIG 0.20  C 
BRANCH 55 56
ATOM     56  CB  THR B   6      34.417  46.309  16.258  1.00 64.05 LIG 0.15  C 
ATOM     57  CG2 THR B   6      33.856  45.201  17.142  1.00 70.60 LIG 0.04  C 
BRANCH 56 58
ATOM     58 OG1  THR B   6      35.368  45.744  15.339  1.00 62.34 LIG-0.39  OA
ATOM     59 HG1  THR B   6      35.205  46.021  14.562  1.00 62.34 LIG 0.21  HD
ENDBRANCH 56 58
ENDBRANCH 55 56
BRANCH 55 60
ATOM     60  C   THR B   6      32.464  47.817  16.604  1.00 68.19 LIG 0.24  C 
ATOM     61 O    THR B   6      32.892  48.896  17.071  1.00 63.20 LIG-0.27  OA
ATOM     62  N   ALA B   7      31.330  47.248  17.023  1.00 78.65 LIG-0.35  N 
ATOM     63 H    ALA B   7      30.969  46.568  16.638  1.00 78.65 LIG 0.16  HD
BRANCH 62 64
ATOM     64  CA  ALA B   7      30.589  47.736  18.190  1.00 81.14 LIG 0.16  C 
ATOM     65  CB  ALA B   7      29.081  47.620  17.958  1.00 91.84 LIG 0.04  C 
BRANCH 64 66
ATOM     66  C   ALA B   7      30.997  46.951  19.447  1.00 81.58 LIG 0.22  C 
ATOM     67 O    ALA B   7      30.995  45.717  19.460  1.00 77.41 LIG-0.29  OA
ENDBRANCH 64 66
ENDBRANCH 62 64
ENDBRANCH 55 60
ENDBRANCH 52 55
ENDBRANCH 50 51
BRANCH 50 68
ATOM     68  CB  GLN B   5      32.639  49.457  11.334  1.00 52.07 LIG 0.04  C 
BRANCH 68 69
ATOM     69  CG  GLN B   5      33.045  48.745  10.065  1.00 55.77 LIG 0.10  C 
BRANCH 69 70
ATOM     70  CD  GLN B   5      33.164  49.718   8.902  1.00 63.27 LIG 0.21  C 
ATOM     71  NE2 GLN B   5      32.523  49.386   7.797  1.00 63.75 LIG-0.37  N 
ATOM     72 21HE GLN B   5      32.066  48.658   7.768  1.00 63.75 LIG 0.16  HD
ATOM     73 22HE GLN B   5      32.563  49.897   7.107  1.00 63.75 LIG 0.16  HD
ATOM     74 OE1  GLN B   5      33.822  50.736   8.990  1.00 68.43 LIG-0.27  OA
ENDBRANCH 69 70
ENDBRANCH 68 69
ENDBRANCH 50 68
ENDBRANCH 47 50
ENDBRANCH 1 46
TORSDOF 30
ENDMDL
MODEL 24
USER: ADFR SOLUTION from run 16
USER: SCORE 22.771103 LL:  -4.095 LR: -20.593 RR:   0.000 FEB: -11.644
USER: RMSD 10.120529
USER: SEED 442149
USER: STATUS 1 or 2 clusters left
USER: GENES 32
USER: genes 0 Translation |==|  0.45939 0.24172 0.50430
USER: genes 1 Rotation |==|  0.40880 0.78800 0.12932 0.64607
USER: genes 2 Torsion [C]-CA--N-[C] |==|  0.17538
USER: genes 3 Torsion [N]-C--CA-[N] |==|  0.34859
USER: genes 4 Torsion [C]-CA--N-[C] |==|  0.79256
USER: genes 5 Torsion [N]-C--CA-[N] |==|  0.93571
USER: genes 6 Torsion [C]-CA--CB-[CG] |==|  0.01416
USER: genes 7 Torsion [CA]-CB--CG-[CD] |==|  0.62834
USER: genes 8 Torsion [CB]-CG--CD-[NE] |==|  0.96270
USER: genes 9 Torsion [CG]-CD--NE-[CZ] |==|  0.22244
USER: genes 10 Torsion [C]-CA--N-[C] |==|  0.81042
USER: genes 11 Torsion [N]-C--CA-[N] |==|  0.89844
USER: genes 12 Torsion [C]-CA--N-[H1] |==|  0.39511
USER: genes 13 Torsion [C]-CA--CB-[CG2] |==|  0.75414
USER: genes 14 Torsion [CA]-CB--OG1-[HG1] |==|  0.15661
USER: genes 15 Torsion [N]-CA--CB-[CG] |==|  0.55474
USER: genes 16 Torsion [CA]-CB--CG-[CD] |==|  0.07390
USER: genes 17 Torsion [CB]-CG--CD-[CE] |==|  0.41260
USER: genes 18 Torsion [CG]-CD--CE-[NZ] |==|  0.74218
USER: genes 19 Torsion [CD]-CE--NZ-[HZ1] |==|  0.04209
USER: genes 20 Torsion [N]-CA--C-[N] |==|  0.07819
USER: genes 21 Torsion [C]-N--CA-[CB] |==|  0.42074
USER: genes 22 Torsion [N]-CA--C-[N] |==|  0.57753
USER: genes 23 Torsion [C]-N--CA-[CB] |==|  0.84946
USER: genes 24 Torsion [N]-CA--CB-[CG2] |==|  0.38538
USER: genes 25 Torsion [CA]-CB--OG1-[HG1] |==|  0.05490
USER: genes 26 Torsion [N]-CA--C-[N] |==|  0.36450
USER: genes 27 Torsion [C]-N--CA-[CB] |==|  0.86430
USER: genes 28 Torsion [N]-CA--C-[O] |==|  0.08260
USER: genes 29 Torsion [N]-CA--CB-[CG] |==|  0.13840
USER: genes 30 Torsion [CA]-CB--CG-[CD] |==|  0.21949
USER: genes 31 Torsion [CB]-CG--CD-[NE2] |==|  0.28097
ROOT
ATOM      1  CA  LYS B   4      33.426  49.308  10.914  1.00 30.17 LIG 0.18  C 
ENDROOT
BRANCH 1 2
ATOM      2  N   LYS B   4      33.061  48.790  12.219  1.00 25.68 LIG-0.35  N 
ATOM      3 H    LYS B   4      32.780  47.978  12.206  1.00 25.68 LIG 0.16  HD
ATOM      4  C   THR B   3      33.156  49.520  13.336  1.00 23.58 LIG 0.24  C 
ATOM      5 O    THR B   3      33.580  50.681  13.363  1.00 24.56 LIG-0.27  OA
BRANCH 4 6
ATOM      6  CA  THR B   3      32.686  48.850  14.629  1.00 21.46 LIG 0.20  C 
BRANCH 6 7
ATOM      7  N   THR B   3      33.715  48.875  15.647  1.00 21.22 LIG-0.34  N 
ATOM      8 H    THR B   3      33.572  49.448  16.272  1.00 21.22 LIG 0.16  HD
ATOM      9  C   ARG B   2      34.767  48.092  15.614  1.00 21.22 LIG 0.24  C 
ATOM     10 O    ARG B   2      34.958  47.300  14.728  1.00 22.30 LIG-0.27  OA
BRANCH 9 11
ATOM     11  CA  ARG B   2      35.744  48.221  16.793  1.00 22.28 LIG 0.18  C 
BRANCH 11 12
ATOM     12  CB  ARG B   2      35.482  47.176  17.882  1.00 24.95 LIG 0.04  C 
BRANCH 12 13
ATOM     13  CG  ARG B   2      34.427  46.126  17.612  1.00 25.01 LIG 0.02  C 
BRANCH 13 14
ATOM     14  CD  ARG B   2      33.518  45.991  18.849  1.00 28.81 LIG 0.14  C 
BRANCH 14 15
ATOM     15  NE  ARG B   2      34.026  46.626  20.065  1.00 31.55 LIG-0.23  N 
ATOM     16 HE   ARG B   2      34.406  46.119  20.646  1.00 31.55 LIG 0.18  HD
ATOM     17  CZ  ARG B   2      33.947  47.934  20.349  1.00 33.58 LIG 0.67  C 
ATOM     18  NH2 ARG B   2      33.437  48.797  19.479  1.00 33.13 LIG-0.23  N 
ATOM     19  NH1 ARG B   2      34.404  48.388  21.498  1.00 37.12 LIG-0.23  N 
ATOM     20 1HH2 ARG B   2      33.150  48.521  18.716  1.00 33.13 LIG 0.17  HD
ATOM     21 2HH2 ARG B   2      33.394  49.633  19.677  1.00 33.13 LIG 0.17  HD
ATOM     22 2HH1 ARG B   2      34.353  49.227  21.680  1.00 37.12 LIG 0.17  HD
ATOM     23 1HH1 ARG B   2      34.754  47.845  22.067  1.00 37.12 LIG 0.17  HD
ENDBRANCH 14 15
ENDBRANCH 13 14
ENDBRANCH 12 13
ENDBRANCH 11 12
BRANCH 11 24
ATOM     24  N   ARG B   2      35.585  49.529  17.398  1.00 22.27 LIG-0.35  N 
ATOM     25  C   ALA B   1      35.951  50.613  16.733  1.00 22.85 LIG 0.25  C 
ATOM     26 O    ALA B   1      36.433  50.554  15.596  1.00 22.62 LIG-0.27  OA
ATOM     27 H    ARG B   2      35.247  49.529  18.190  1.00 22.27 LIG 0.16  HD
BRANCH 25 28
ATOM     28  CA  ALA B   1      35.773  51.952  17.468  1.00 23.76 LIG 0.27  C 
ATOM     29  CB  ALA B   1      36.995  52.297  18.311  1.00 24.39 LIG 0.05  C 
BRANCH 28 30
ATOM     30  N   ALA B   1      34.572  51.980  18.295  1.00 25.03 LIG-0.07  N 
ATOM     31 H1   ALA B   1      34.741  52.423  19.048  1.00 25.03 LIG 0.28  HD
ATOM     32 H3   ALA B   1      34.326  51.147  18.489  1.00 25.03 LIG 0.28  HD
ATOM     33 H2   ALA B   1      33.916  52.387  17.852  1.00 25.03 LIG 0.28  HD
ENDBRANCH 28 30
ENDBRANCH 25 28
ENDBRANCH 11 24
ENDBRANCH 9 11
ENDBRANCH 6 7
BRANCH 6 34
ATOM     34  CB  THR B   3      31.413  49.519  15.134  1.00 21.53 LIG 0.15  C 
ATOM     35  CG2 THR B   3      31.716  50.665  16.018  1.00 22.92 LIG 0.04  C 
BRANCH 34 36
ATOM     36 OG1  THR B   3      30.675  49.974  14.008  1.00 22.47 LIG-0.39  OA
ATOM     37 HG1  THR B   3      30.526  49.329  13.492  1.00 22.47 LIG 0.21  HD
ENDBRANCH 34 36
ENDBRANCH 6 34
ENDBRANCH 4 6
ENDBRANCH 1 2
BRANCH 1 38
ATOM     38  CB  LYS B   4      32.617  50.541  10.608  1.00 32.55 LIG 0.04  C 
BRANCH 38 39
ATOM     39  CG  LYS B   4      32.571  50.869   9.143  1.00 30.49 LIG 0.00  C 
BRANCH 39 40
ATOM     40  CD  LYS B   4      32.760  49.600   8.312  1.00 34.18 LIG 0.03  C 
BRANCH 40 41
ATOM     41  CE  LYS B   4      31.999  49.694   7.000  1.00 33.34 LIG 0.23  C 
BRANCH 41 42
ATOM     42  NZ  LYS B   4      30.631  49.119   7.061  1.00 36.76 LIG-0.08  N 
ATOM     43 HZ1  LYS B   4      30.393  49.007   7.911  1.00 36.76 LIG 0.27  HD
ATOM     44 HZ2  LYS B   4      30.058  49.672   6.664  1.00 36.76 LIG 0.27  HD
ATOM     45 HZ3  LYS B   4      30.620  48.333   6.644  1.00 36.76 LIG 0.27  HD
ENDBRANCH 41 42
ENDBRANCH 40 41
ENDBRANCH 39 40
ENDBRANCH 38 39
ENDBRANCH 1 38
BRANCH 1 46
ATOM     46  C   LYS B   4      34.890  49.637  10.892  1.00 34.41 LIG 0.24  C 
ATOM     47  N   GLN B   5      35.676  48.938  11.700  1.00 39.81 LIG-0.35  N 
ATOM     48 H    GLN B   5      35.424  48.273  12.183  1.00 39.81 LIG 0.16  HD
ATOM     49 O    LYS B   4      35.314  50.520  10.120  1.00 33.27 LIG-0.27  OA
BRANCH 47 50
ATOM     50  CA  GLN B   5      37.091  49.294  11.807  1.00 46.50 LIG 0.18  C 
BRANCH 50 51
ATOM     51  C   GLN B   5      37.919  48.734  10.648  1.00 52.91 LIG 0.24  C 
ATOM     52  N   THR B   6      39.207  48.491  10.923  1.00 59.38 LIG-0.34  N 
ATOM     53 H    THR B   6      39.519  48.493  11.725  1.00 59.38 LIG 0.16  HD
ATOM     54 O    GLN B   5      37.423  48.593   9.541  1.00 55.19 LIG-0.27  OA
BRANCH 52 55
ATOM     55  CA  THR B   6      40.248  48.193   9.884  1.00 66.40 LIG 0.20  C 
BRANCH 55 56
ATOM     56  CB  THR B   6      39.851  46.999   8.949  1.00 64.05 LIG 0.15  C 
ATOM     57  CG2 THR B   6      40.219  47.303   7.501  1.00 70.60 LIG 0.04  C 
BRANCH 56 58
ATOM     58 OG1  THR B   6      40.492  45.777   9.352  1.00 62.34 LIG-0.39  OA
ATOM     59 HG1  THR B   6      40.744  45.842  10.151  1.00 62.34 LIG 0.21  HD
ENDBRANCH 56 58
ENDBRANCH 55 56
BRANCH 55 60
ATOM     60  C   THR B   6      40.526  49.398   8.938  1.00 68.19 LIG 0.24  C 
ATOM     61 O    THR B   6      39.582  50.002   8.382  1.00 63.20 LIG-0.27  OA
ATOM     62  N   ALA B   7      41.807  49.724   8.744  1.00 78.65 LIG-0.35  N 
ATOM     63 H    ALA B   7      42.456  49.392   9.200  1.00 78.65 LIG 0.16  HD
BRANCH 62 64
ATOM     64  CA  ALA B   7      42.227  50.690   7.725  1.00 81.14 LIG 0.16  C 
ATOM     65  CB  ALA B   7      41.577  50.368   6.377  1.00 91.84 LIG 0.04  C 
BRANCH 64 66
ATOM     66  C   ALA B   7      41.866  52.119   8.163  1.00 81.58 LIG 0.22  C 
ATOM     67 O    ALA B   7      41.822  52.431   9.357  1.00 77.41 LIG-0.29  OA
ENDBRANCH 64 66
ENDBRANCH 62 64
ENDBRANCH 55 60
ENDBRANCH 52 55
ENDBRANCH 50 51
BRANCH 50 68
ATOM     68  CB  GLN B   5      37.713  48.949  13.171  1.00 52.07 LIG 0.04  C 
BRANCH 68 69
ATOM     69  CG  GLN B   5      37.505  47.558  13.721  1.00 55.77 LIG 0.10  C 
BRANCH 69 70
ATOM     70  CD  GLN B   5      38.449  46.561  13.064  1.00 63.27 LIG 0.21  C 
ATOM     71  NE2 GLN B   5      39.513  46.219  13.764  1.00 63.75 LIG-0.37  N 
ATOM     72 21HE GLN B   5      39.637  46.550  14.548  1.00 63.75 LIG 0.16  HD
ATOM     73 22HE GLN B   5      40.083  45.665  13.436  1.00 63.75 LIG 0.16  HD
ATOM     74 OE1  GLN B   5      38.232  46.119  11.953  1.00 68.43 LIG-0.27  OA
ENDBRANCH 69 70
ENDBRANCH 68 69
ENDBRANCH 50 68
ENDBRANCH 47 50
ENDBRANCH 1 46
TORSDOF 30
ENDMDL
MODEL 25
USER: ADFR SOLUTION from run 153
USER: SCORE 22.316059 LL:  -4.090 LR: -20.581 RR:   0.000 FEB: -11.632
USER: RMSD 7.773379
USER: SEED 152
USER: STATUS no improvement in best in 9 clusters for 5 generations
USER: GENES 32
USER: genes 0 Translation |==|  0.68866 0.50611 0.44979
USER: genes 1 Rotation |==|  0.85576 0.17640 0.38413 0.57273
USER: genes 2 Torsion [C]-CA--N-[C] |==|  0.66016
USER: genes 3 Torsion [N]-C--CA-[N] |==|  0.41367
USER: genes 4 Torsion [C]-CA--N-[C] |==|  0.78475
USER: genes 5 Torsion [N]-C--CA-[N] |==|  0.70159
USER: genes 6 Torsion [C]-CA--CB-[CG] |==|  0.15779
USER: genes 7 Torsion [CA]-CB--CG-[CD] |==|  0.61175
USER: genes 8 Torsion [CB]-CG--CD-[NE] |==|  0.35673
USER: genes 9 Torsion [CG]-CD--NE-[CZ] |==|  0.54414
USER: genes 10 Torsion [C]-CA--N-[C] |==|  0.69220
USER: genes 11 Torsion [N]-C--CA-[N] |==|  0.58103
USER: genes 12 Torsion [C]-CA--N-[H1] |==|  0.08141
USER: genes 13 Torsion [C]-CA--CB-[CG2] |==|  0.05015
USER: genes 14 Torsion [CA]-CB--OG1-[HG1] |==|  0.23163
USER: genes 15 Torsion [N]-CA--CB-[CG] |==|  0.88685
USER: genes 16 Torsion [CA]-CB--CG-[CD] |==|  0.75951
USER: genes 17 Torsion [CB]-CG--CD-[CE] |==|  0.36410
USER: genes 18 Torsion [CG]-CD--CE-[NZ] |==|  0.25960
USER: genes 19 Torsion [CD]-CE--NZ-[HZ1] |==|  0.20113
USER: genes 20 Torsion [N]-CA--C-[N] |==|  0.39136
USER: genes 21 Torsion [C]-N--CA-[CB] |==|  0.84444
USER: genes 22 Torsion [N]-CA--C-[N] |==|  0.77324
USER: genes 23 Torsion [C]-N--CA-[CB] |==|  0.88026
USER: genes 24 Torsion [N]-CA--CB-[CG2] |==|  0.45595
USER: genes 25 Torsion [CA]-CB--OG1-[HG1] |==|  0.71684
USER: genes 26 Torsion [N]-CA--C-[N] |==|  0.32603
USER: genes 27 Torsion [C]-N--CA-[CB] |==|  0.24912
USER: genes 28 Torsion [N]-CA--C-[O] |==|  0.99263
USER: genes 29 Torsion [N]-CA--CB-[CG] |==|  0.52439
USER: genes 30 Torsion [CA]-CB--CG-[CD] |==|  0.29705
USER: genes 31 Torsion [CB]-CG--CD-[NE2] |==|  0.43825
ROOT
ATOM      1  CA  LYS B   4      38.756  55.257   9.606  1.00 30.17 LIG 0.18  C 
ENDROOT
BRANCH 1 2
ATOM      2  N   LYS B   4      39.584  54.936   8.459  1.00 25.68 LIG-0.35  N 
ATOM      3 H    LYS B   4      40.192  55.520   8.293  1.00 25.68 LIG 0.16  HD
ATOM      4  C   THR B   3      39.408  53.827   7.731  1.00 23.58 LIG 0.24  C 
ATOM      5 O    THR B   3      38.549  52.973   7.979  1.00 24.56 LIG-0.27  OA
BRANCH 4 6
ATOM      6  CA  THR B   3      40.329  53.653   6.522  1.00 21.46 LIG 0.20  C 
BRANCH 6 7
ATOM      7  N   THR B   3      40.597  52.256   6.251  1.00 21.22 LIG-0.34  N 
ATOM      8 H    THR B   3      40.146  51.938   5.591  1.00 21.22 LIG 0.16  HD
ATOM      9  C   ARG B   2      41.449  51.547   6.952  1.00 21.22 LIG 0.24  C 
ATOM     10 O    ARG B   2      42.067  52.006   7.878  1.00 22.30 LIG-0.27  OA
BRANCH 9 11
ATOM     11  CA  ARG B   2      41.642  50.089   6.508  1.00 22.28 LIG 0.18  C 
BRANCH 11 12
ATOM     12  CB  ARG B   2      41.006  49.807   5.144  1.00 24.95 LIG 0.04  C 
BRANCH 12 13
ATOM     13  CG  ARG B   2      41.448  50.655   3.971  1.00 25.01 LIG 0.02  C 
BRANCH 13 14
ATOM     14  CD  ARG B   2      40.222  50.998   3.103  1.00 28.81 LIG 0.14  C 
BRANCH 14 15
ATOM     15  NE  ARG B   2      40.054  52.420   2.801  1.00 31.55 LIG-0.23  N 
ATOM     16 HE   ARG B   2      40.730  52.935   2.933  1.00 31.55 LIG 0.18  HD
ATOM     17  CZ  ARG B   2      38.932  52.988   2.336  1.00 33.58 LIG 0.67  C 
ATOM     18  NH2 ARG B   2      37.863  52.258   2.040  1.00 33.13 LIG-0.23  N 
ATOM     19  NH1 ARG B   2      38.885  54.290   2.139  1.00 37.12 LIG-0.23  N 
ATOM     20 1HH2 ARG B   2      37.882  51.405   2.146  1.00 33.13 LIG 0.17  HD
ATOM     21 2HH2 ARG B   2      37.152  52.639   1.742  1.00 33.13 LIG 0.17  HD
ATOM     22 2HH1 ARG B   2      38.165  54.654   1.840  1.00 37.12 LIG 0.17  HD
ATOM     23 1HH1 ARG B   2      39.575  54.776   2.308  1.00 37.12 LIG 0.17  HD
ENDBRANCH 14 15
ENDBRANCH 13 14
ENDBRANCH 12 13
ENDBRANCH 11 12
BRANCH 11 24
ATOM     24  N   ARG B   2      41.007  49.213   7.474  1.00 22.27 LIG-0.35  N 
ATOM     25  C   ALA B   1      41.748  48.442   8.253  1.00 22.85 LIG 0.25  C 
ATOM     26 O    ALA B   1      42.983  48.437   8.190  1.00 22.62 LIG-0.27  OA
ATOM     27 H    ARG B   2      40.147  49.244   7.487  1.00 22.27 LIG 0.16  HD
BRANCH 25 28
ATOM     28  CA  ALA B   1      40.985  47.525   9.224  1.00 23.76 LIG 0.27  C 
ATOM     29  CB  ALA B   1      39.618  48.097   9.579  1.00 24.39 LIG 0.05  C 
BRANCH 28 30
ATOM     30  N   ALA B   1      41.741  47.245  10.438  1.00 25.03 LIG-0.07  N 
ATOM     31 H1   ALA B   1      42.278  47.932  10.618  1.00 25.03 LIG 0.28  HD
ATOM     32 H3   ALA B   1      42.228  46.510  10.323  1.00 25.03 LIG 0.28  HD
ATOM     33 H2   ALA B   1      41.178  47.124  11.117  1.00 25.03 LIG 0.28  HD
ENDBRANCH 28 30
ENDBRANCH 25 28
ENDBRANCH 11 24
ENDBRANCH 9 11
ENDBRANCH 6 7
BRANCH 6 34
ATOM     34  CB  THR B   3      39.723  54.333   5.299  1.00 21.53 LIG 0.15  C 
ATOM     35  CG2 THR B   3      38.680  55.308   5.681  1.00 22.92 LIG 0.04  C 
BRANCH 34 36
ATOM     36 OG1  THR B   3      40.764  55.004   4.604  1.00 22.47 LIG-0.39  OA
ATOM     37 HG1  THR B   3      41.163  54.460   4.103  1.00 22.47 LIG 0.21  HD
ENDBRANCH 34 36
ENDBRANCH 6 34
ENDBRANCH 4 6
ENDBRANCH 1 2
BRANCH 1 38
ATOM     38  CB  LYS B   4      39.600  55.283  10.853  1.00 32.55 LIG 0.04  C 
BRANCH 38 39
ATOM     39  CG  LYS B   4      40.615  54.176  10.904  1.00 30.49 LIG 0.00  C 
BRANCH 39 40
ATOM     40  CD  LYS B   4      39.992  52.917  11.507  1.00 34.18 LIG 0.03  C 
BRANCH 40 41
ATOM     41  CE  LYS B   4      40.283  51.702  10.642  1.00 33.34 LIG 0.23  C 
BRANCH 41 42
ATOM     42  NZ  LYS B   4      41.495  50.950  11.056  1.00 36.76 LIG-0.08  N 
ATOM     43 HZ1  LYS B   4      41.329  50.513  11.813  1.00 36.76 LIG 0.27  HD
ATOM     44 HZ2  LYS B   4      41.716  50.369  10.421  1.00 36.76 LIG 0.27  HD
ATOM     45 HZ3  LYS B   4      42.168  51.519  11.184  1.00 36.76 LIG 0.27  HD
ENDBRANCH 41 42
ENDBRANCH 40 41
ENDBRANCH 39 40
ENDBRANCH 38 39
ENDBRANCH 1 38
BRANCH 1 46
ATOM     46  C   LYS B   4      38.104  56.592   9.401  1.00 34.41 LIG 0.24  C 
ATOM     47  N   GLN B   5      36.848  56.718   9.808  1.00 39.81 LIG-0.35  N 
ATOM     48 H    GLN B   5      36.404  56.118  10.236  1.00 39.81 LIG 0.16  HD
ATOM     49 O    LYS B   4      38.753  57.525   8.885  1.00 33.27 LIG-0.27  OA
BRANCH 47 50
ATOM     50  CA  GLN B   5      36.125  57.958   9.528  1.00 46.50 LIG 0.18  C 
BRANCH 50 51
ATOM     51  C   GLN B   5      35.761  58.095   8.047  1.00 52.91 LIG 0.24  C 
ATOM     52  N   THR B   6      36.737  58.552   7.252  1.00 59.38 LIG-0.34  N 
ATOM     53 H    THR B   6      37.555  58.613   7.510  1.00 59.38 LIG 0.16  HD
ATOM     54 O    GLN B   5      34.625  57.860   7.662  1.00 55.19 LIG-0.27  OA
BRANCH 52 55
ATOM     55  CA  THR B   6      36.528  59.006   5.838  1.00 66.40 LIG 0.20  C 
BRANCH 55 56
ATOM     56  CB  THR B   6      35.583  58.054   5.026  1.00 64.05 LIG 0.15  C 
ATOM     57  CG2 THR B   6      35.091  58.739   3.755  1.00 70.60 LIG 0.04  C 
BRANCH 56 58
ATOM     58 OG1  THR B   6      36.245  56.827   4.674  1.00 62.34 LIG-0.39  OA
ATOM     59 HG1  THR B   6      36.483  56.857   3.869  1.00 62.34 LIG 0.21  HD
ENDBRANCH 56 58
ENDBRANCH 55 56
BRANCH 55 60
ATOM     60  C   THR B   6      35.887  60.421   5.742  1.00 68.19 LIG 0.24  C 
ATOM     61 O    THR B   6      34.735  60.630   6.181  1.00 63.20 LIG-0.27  OA
ATOM     62  N   ALA B   7      36.620  61.372   5.155  1.00 78.65 LIG-0.35  N 
ATOM     63 H    ALA B   7      37.449  61.273   4.948  1.00 78.65 LIG 0.16  HD
BRANCH 62 64
ATOM     64  CA  ALA B   7      36.071  62.686   4.807  1.00 81.14 LIG 0.16  C 
ATOM     65  CB  ALA B   7      36.243  63.667   5.969  1.00 91.84 LIG 0.04  C 
BRANCH 64 66
ATOM     66  C   ALA B   7      36.754  63.232   3.542  1.00 81.58 LIG 0.22  C 
ATOM     67 O    ALA B   7      37.667  62.611   2.990  1.00 77.41 LIG-0.29  OA
ENDBRANCH 64 66
ENDBRANCH 62 64
ENDBRANCH 55 60
ENDBRANCH 52 55
ENDBRANCH 50 51
BRANCH 50 68
ATOM     68  CB  GLN B   5      36.830  59.217  10.061  1.00 52.07 LIG 0.04  C 
BRANCH 68 69
ATOM     69  CG  GLN B   5      36.085  60.530  10.011  1.00 55.77 LIG 0.10  C 
BRANCH 69 70
ATOM     70  CD  GLN B   5      35.633  60.958  11.399  1.00 63.27 LIG 0.21  C 
ATOM     71  NE2 GLN B   5      35.392  62.245  11.561  1.00 63.75 LIG-0.37  N 
ATOM     72 21HE GLN B   5      35.485  62.787  10.899  1.00 63.75 LIG 0.16  HD
ATOM     73 22HE GLN B   5      35.141  62.542  12.328  1.00 63.75 LIG 0.16  HD
ATOM     74 OE1  GLN B   5      35.514  60.156  12.304  1.00 68.43 LIG-0.27  OA
ENDBRANCH 69 70
ENDBRANCH 68 69
ENDBRANCH 50 68
ENDBRANCH 47 50
ENDBRANCH 1 46
TORSDOF 30
ENDMDL
MODEL 26
USER: ADFR SOLUTION from run 181
USER: SCORE 24.021577 LL:  -5.054 LR: -20.575 RR:   0.000 FEB: -11.626
USER: RMSD 9.698324
USER: SEED 180
USER: STATUS searching
USER: GENES 32
USER: genes 0 Translation |==|  0.61435 0.28742 0.50113
USER: genes 1 Rotation |==|  0.40909 0.05951 0.44957 0.71251
USER: genes 2 Torsion [C]-CA--N-[C] |==|  0.63668
USER: genes 3 Torsion [N]-C--CA-[N] |==|  0.37975
USER: genes 4 Torsion [C]-CA--N-[C] |==|  0.85361
USER: genes 5 Torsion [N]-C--CA-[N] |==|  0.98490
USER: genes 6 Torsion [C]-CA--CB-[CG] |==|  0.25317
USER: genes 7 Torsion [CA]-CB--CG-[CD] |==|  0.28161
USER: genes 8 Torsion [CB]-CG--CD-[NE] |==|  0.61626
USER: genes 9 Torsion [CG]-CD--NE-[CZ] |==|  0.21782
USER: genes 10 Torsion [C]-CA--N-[C] |==|  0.59949
USER: genes 11 Torsion [N]-C--CA-[N] |==|  0.08740
USER: genes 12 Torsion [C]-CA--N-[H1] |==|  0.16434
USER: genes 13 Torsion [C]-CA--CB-[CG2] |==|  0.15529
USER: genes 14 Torsion [CA]-CB--OG1-[HG1] |==|  0.58554
USER: genes 15 Torsion [N]-CA--CB-[CG] |==|  0.33173
USER: genes 16 Torsion [CA]-CB--CG-[CD] |==|  0.73094
USER: genes 17 Torsion [CB]-CG--CD-[CE] |==|  0.51933
USER: genes 18 Torsion [CG]-CD--CE-[NZ] |==|  0.18176
USER: genes 19 Torsion [CD]-CE--NZ-[HZ1] |==|  0.94152
USER: genes 20 Torsion [N]-CA--C-[N] |==|  0.41829
USER: genes 21 Torsion [C]-N--CA-[CB] |==|  0.46824
USER: genes 22 Torsion [N]-CA--C-[N] |==|  0.45625
USER: genes 23 Torsion [C]-N--CA-[CB] |==|  0.82746
USER: genes 24 Torsion [N]-CA--CB-[CG2] |==|  0.88000
USER: genes 25 Torsion [CA]-CB--OG1-[HG1] |==|  0.86508
USER: genes 26 Torsion [N]-CA--C-[N] |==|  0.37303
USER: genes 27 Torsion [C]-N--CA-[CB] |==|  0.43232
USER: genes 28 Torsion [N]-CA--C-[O] |==|  0.40668
USER: genes 29 Torsion [N]-CA--CB-[CG] |==|  0.33824
USER: genes 30 Torsion [CA]-CB--CG-[CD] |==|  0.33626
USER: genes 31 Torsion [CB]-CG--CD-[NE2] |==|  0.64480
ROOT
ATOM      1  CA  LYS B   4      37.029  50.336  10.838  1.00 30.17 LIG 0.18  C 
ENDROOT
BRANCH 1 2
ATOM      2  N   LYS B   4      35.853  49.490  10.902  1.00 25.68 LIG-0.35  N 
ATOM      3 H    LYS B   4      35.923  48.760  10.453  1.00 25.68 LIG 0.16  HD
ATOM      4  C   THR B   3      34.761  49.824  11.599  1.00 23.58 LIG 0.24  C 
ATOM      5 O    THR B   3      34.663  50.862  12.264  1.00 24.56 LIG-0.27  OA
BRANCH 4 6
ATOM      6  CA  THR B   3      33.583  48.849  11.529  1.00 21.46 LIG 0.20  C 
BRANCH 6 7
ATOM      7  N   THR B   3      32.985  48.641  12.831  1.00 21.22 LIG-0.34  N 
ATOM      8 H    THR B   3      32.135  48.770  12.847  1.00 21.22 LIG 0.16  HD
ATOM      9  C   ARG B   2      33.681  48.287  13.885  1.00 21.22 LIG 0.24  C 
ATOM     10 O    ARG B   2      34.872  48.117  13.847  1.00 22.30 LIG-0.27  OA
BRANCH 9 11
ATOM     11  CA  ARG B   2      32.885  48.071  15.181  1.00 22.28 LIG 0.18  C 
BRANCH 11 12
ATOM     12  CB  ARG B   2      32.896  46.608  15.634  1.00 24.95 LIG 0.04  C 
BRANCH 12 13
ATOM     13  CG  ARG B   2      33.992  46.172  16.581  1.00 25.01 LIG 0.02  C 
BRANCH 13 14
ATOM     14  CD  ARG B   2      33.427  46.097  18.012  1.00 28.81 LIG 0.14  C 
BRANCH 14 15
ATOM     15  NE  ARG B   2      34.305  46.627  19.056  1.00 31.55 LIG-0.23  N 
ATOM     16 HE   ARG B   2      34.743  46.059  19.529  1.00 31.55 LIG 0.18  HD
ATOM     17  CZ  ARG B   2      34.482  47.926  19.335  1.00 33.58 LIG 0.67  C 
ATOM     18  NH2 ARG B   2      33.898  48.872  18.609  1.00 33.13 LIG-0.23  N 
ATOM     19  NH1 ARG B   2      35.270  48.285  20.328  1.00 37.12 LIG-0.23  N 
ATOM     20 1HH2 ARG B   2      33.394  48.656  17.946  1.00 33.13 LIG 0.17  HD
ATOM     21 2HH2 ARG B   2      34.023  49.701  18.802  1.00 33.13 LIG 0.17  HD
ATOM     22 2HH1 ARG B   2      35.383  49.119  20.508  1.00 37.12 LIG 0.17  HD
ATOM     23 1HH1 ARG B   2      35.671  47.686  20.798  1.00 37.12 LIG 0.17  HD
ENDBRANCH 14 15
ENDBRANCH 13 14
ENDBRANCH 12 13
ENDBRANCH 11 12
BRANCH 11 24
ATOM     24  N   ARG B   2      31.502  48.446  14.954  1.00 22.27 LIG-0.35  N 
ATOM     25  C   ALA B   1      30.808  49.024  15.921  1.00 22.85 LIG 0.25  C 
ATOM     26 O    ALA B   1      31.299  49.262  17.031  1.00 22.62 LIG-0.27  OA
ATOM     27 H    ARG B   2      31.197  48.264  14.171  1.00 22.27 LIG 0.16  HD
BRANCH 25 28
ATOM     28  CA  ALA B   1      29.341  49.356  15.597  1.00 23.76 LIG 0.27  C 
ATOM     29  CB  ALA B   1      28.494  49.445  16.861  1.00 24.39 LIG 0.05  C 
BRANCH 28 30
ATOM     30  N   ALA B   1      28.748  48.406  14.664  1.00 25.03 LIG-0.07  N 
ATOM     31 H1   ALA B   1      28.784  47.587  15.010  1.00 25.03 LIG 0.28  HD
ATOM     32 H3   ALA B   1      29.197  48.424  13.896  1.00 25.03 LIG 0.28  HD
ATOM     33 H2   ALA B   1      27.899  48.628  14.515  1.00 25.03 LIG 0.28  HD
ENDBRANCH 28 30
ENDBRANCH 25 28
ENDBRANCH 11 24
ENDBRANCH 9 11
ENDBRANCH 6 7
BRANCH 6 34
ATOM     34  CB  THR B   3      32.545  49.353  10.533  1.00 21.53 LIG 0.15  C 
ATOM     35  CG2 THR B   3      33.137  49.577   9.197  1.00 22.92 LIG 0.04  C 
BRANCH 34 36
ATOM     36 OG1  THR B   3      31.516  48.379  10.436  1.00 22.47 LIG-0.39  OA
ATOM     37 HG1  THR B   3      31.187  48.395   9.663  1.00 22.47 LIG 0.21  HD
ENDBRANCH 34 36
ENDBRANCH 6 34
ENDBRANCH 4 6
ENDBRANCH 1 2
BRANCH 1 38
ATOM     38  CB  LYS B   4      38.146  49.720  11.638  1.00 32.55 LIG 0.04  C 
BRANCH 38 39
ATOM     39  CG  LYS B   4      39.361  49.406  10.812  1.00 30.49 LIG 0.00  C 
BRANCH 39 40
ATOM     40  CD  LYS B   4      39.346  47.937  10.389  1.00 34.18 LIG 0.03  C 
BRANCH 40 41
ATOM     41  CE  LYS B   4      40.647  47.559   9.700  1.00 33.34 LIG 0.23  C 
BRANCH 41 42
ATOM     42  NZ  LYS B   4      41.833  47.619  10.591  1.00 36.76 LIG-0.08  N 
ATOM     43 HZ1  LYS B   4      41.657  48.145  11.286  1.00 36.76 LIG 0.27  HD
ATOM     44 HZ2  LYS B   4      42.028  46.801  10.881  1.00 36.76 LIG 0.27  HD
ATOM     45 HZ3  LYS B   4      42.527  47.946  10.139  1.00 36.76 LIG 0.27  HD
ENDBRANCH 41 42
ENDBRANCH 40 41
ENDBRANCH 39 40
ENDBRANCH 38 39
ENDBRANCH 1 38
BRANCH 1 46
ATOM     46  C   LYS B   4      37.454  50.504   9.409  1.00 34.41 LIG 0.24  C 
ATOM     47  N   GLN B   5      38.067  51.636   9.092  1.00 39.81 LIG-0.35  N 
ATOM     48 H    GLN B   5      38.296  52.248   9.651  1.00 39.81 LIG 0.16  HD
ATOM     49 O    LYS B   4      37.241  49.588   8.589  1.00 33.27 LIG-0.27  OA
BRANCH 47 50
ATOM     50  CA  GLN B   5      38.398  51.904   7.692  1.00 46.50 LIG 0.18  C 
BRANCH 50 51
ATOM     51  C   GLN B   5      39.397  50.890   7.128  1.00 52.91 LIG 0.24  C 
ATOM     52  N   THR B   6      39.500  50.861   5.794  1.00 59.38 LIG-0.34  N 
ATOM     53 H    THR B   6      39.158  51.468   5.289  1.00 59.38 LIG 0.16  HD
ATOM     54 O    GLN B   5      39.994  50.126   7.872  1.00 55.19 LIG-0.27  OA
BRANCH 52 55
ATOM     55  CA  THR B   6      40.209  49.785   5.026  1.00 66.40 LIG 0.20  C 
BRANCH 55 56
ATOM     56  CB  THR B   6      41.738  49.704   5.364  1.00 64.05 LIG 0.15  C 
ATOM     57  CG2 THR B   6      42.349  51.099   5.435  1.00 70.60 LIG 0.04  C 
BRANCH 56 58
ATOM     58 OG1  THR B   6      41.969  49.023   6.609  1.00 62.34 LIG-0.39  OA
ATOM     59 HG1  THR B   6      41.461  49.338   7.199  1.00 62.34 LIG 0.21  HD
ENDBRANCH 56 58
ENDBRANCH 55 56
BRANCH 55 60
ATOM     60  C   THR B   6      39.638  48.363   5.304  1.00 68.19 LIG 0.24  C 
ATOM     61 O    THR B   6      39.418  47.982   6.474  1.00 63.20 LIG-0.27  OA
ATOM     62  N   ALA B   7      39.425  47.585   4.238  1.00 78.65 LIG-0.35  N 
ATOM     63 H    ALA B   7      39.467  47.869   3.427  1.00 78.65 LIG 0.16  HD
BRANCH 62 64
ATOM     64  CA  ALA B   7      39.094  46.163   4.357  1.00 81.14 LIG 0.16  C 
ATOM     65  CB  ALA B   7      38.337  45.680   3.117  1.00 91.84 LIG 0.04  C 
BRANCH 64 66
ATOM     66  C   ALA B   7      40.372  45.332   4.558  1.00 81.58 LIG 0.22  C 
ATOM     67 O    ALA B   7      40.370  44.312   5.254  1.00 77.41 LIG-0.29  OA
ENDBRANCH 64 66
ENDBRANCH 62 64
ENDBRANCH 55 60
ENDBRANCH 52 55
ENDBRANCH 50 51
BRANCH 50 68
ATOM     68  CB  GLN B   5      38.847  53.352   7.431  1.00 52.07 LIG 0.04  C 
BRANCH 68 69
ATOM     69  CG  GLN B   5      40.213  53.580   6.828  1.00 55.77 LIG 0.10  C 
BRANCH 69 70
ATOM     70  CD  GLN B   5      40.113  54.335   5.511  1.00 63.27 LIG 0.21  C 
ATOM     71  NE2 GLN B   5      40.730  53.791   4.480  1.00 63.75 LIG-0.37  N 
ATOM     72 21HE GLN B   5      41.151  53.047   4.574  1.00 63.75 LIG 0.16  HD
ATOM     73 22HE GLN B   5      40.712  54.181   3.714  1.00 63.75 LIG 0.16  HD
ATOM     74 OE1  GLN B   5      39.506  55.384   5.425  1.00 68.43 LIG-0.27  OA
ENDBRANCH 69 70
ENDBRANCH 68 69
ENDBRANCH 50 68
ENDBRANCH 47 50
ENDBRANCH 1 46
TORSDOF 30
ENDMDL
MODEL 27
USER: ADFR SOLUTION from run 144
USER: SCORE 23.288479 LL:  -4.582 LR: -20.568 RR:   0.000 FEB: -11.619
USER: RMSD 9.881683
USER: SEED 143
USER: STATUS searching
USER: GENES 32
USER: genes 0 Translation |==|  0.60524 0.29938 0.65672
USER: genes 1 Rotation |==|  0.02072 0.61912 0.57773 0.50768
USER: genes 2 Torsion [C]-CA--N-[C] |==|  0.75326
USER: genes 3 Torsion [N]-C--CA-[N] |==|  0.49796
USER: genes 4 Torsion [C]-CA--N-[C] |==|  0.52886
USER: genes 5 Torsion [N]-C--CA-[N] |==|  0.37110
USER: genes 6 Torsion [C]-CA--CB-[CG] |==|  0.30058
USER: genes 7 Torsion [CA]-CB--CG-[CD] |==|  0.88340
USER: genes 8 Torsion [CB]-CG--CD-[NE] |==|  0.76854
USER: genes 9 Torsion [CG]-CD--NE-[CZ] |==|  0.62802
USER: genes 10 Torsion [C]-CA--N-[C] |==|  0.55169
USER: genes 11 Torsion [N]-C--CA-[N] |==|  0.45478
USER: genes 12 Torsion [C]-CA--N-[H1] |==|  0.28193
USER: genes 13 Torsion [C]-CA--CB-[CG2] |==|  0.84154
USER: genes 14 Torsion [CA]-CB--OG1-[HG1] |==|  0.62744
USER: genes 15 Torsion [N]-CA--CB-[CG] |==|  0.58404
USER: genes 16 Torsion [CA]-CB--CG-[CD] |==|  0.58978
USER: genes 17 Torsion [CB]-CG--CD-[CE] |==|  0.46716
USER: genes 18 Torsion [CG]-CD--CE-[NZ] |==|  0.50666
USER: genes 19 Torsion [CD]-CE--NZ-[HZ1] |==|  0.23085
USER: genes 20 Torsion [N]-CA--C-[N] |==|  0.57055
USER: genes 21 Torsion [C]-N--CA-[CB] |==|  0.21396
USER: genes 22 Torsion [N]-CA--C-[N] |==|  0.00942
USER: genes 23 Torsion [C]-N--CA-[CB] |==|  0.83570
USER: genes 24 Torsion [N]-CA--CB-[CG2] |==|  0.48902
USER: genes 25 Torsion [CA]-CB--OG1-[HG1] |==|  0.90048
USER: genes 26 Torsion [N]-CA--C-[N] |==|  0.37144
USER: genes 27 Torsion [C]-N--CA-[CB] |==|  0.80762
USER: genes 28 Torsion [N]-CA--C-[O] |==|  0.32520
USER: genes 29 Torsion [N]-CA--CB-[CG] |==|  0.28825
USER: genes 30 Torsion [CA]-CB--CG-[CD] |==|  0.78681
USER: genes 31 Torsion [CB]-CG--CD-[NE2] |==|  0.46495
ROOT
ATOM      1  CA  LYS B   4      36.817  50.605  14.572  1.00 30.17 LIG 0.18  C 
ENDROOT
BRANCH 1 2
ATOM      2  N   LYS B   4      37.683  51.528  13.864  1.00 25.68 LIG-0.35  N 
ATOM      3 H    LYS B   4      37.948  52.193  14.341  1.00 25.68 LIG 0.16  HD
ATOM      4  C   THR B   3      38.032  51.352  12.585  1.00 23.58 LIG 0.24  C 
ATOM      5 O    THR B   3      37.672  50.386  11.903  1.00 24.56 LIG-0.27  OA
BRANCH 4 6
ATOM      6  CA  THR B   3      38.913  52.438  11.964  1.00 21.46 LIG 0.20  C 
BRANCH 6 7
ATOM      7  N   THR B   3      39.242  52.136  10.587  1.00 21.22 LIG-0.34  N 
ATOM      8 H    THR B   3      38.796  51.478  10.260  1.00 21.22 LIG 0.16  HD
ATOM      9  C   ARG B   2      40.139  52.808   9.906  1.00 21.22 LIG 0.24  C 
ATOM     10 O    ARG B   2      40.761  53.723  10.382  1.00 22.30 LIG-0.27  OA
BRANCH 9 11
ATOM     11  CA  ARG B   2      40.340  52.382   8.444  1.00 22.28 LIG 0.18  C 
BRANCH 11 12
ATOM     12  CB  ARG B   2      41.665  51.642   8.231  1.00 24.95 LIG 0.04  C 
BRANCH 12 13
ATOM     13  CG  ARG B   2      41.606  50.153   7.970  1.00 25.01 LIG 0.02  C 
BRANCH 13 14
ATOM     14  CD  ARG B   2      40.566  49.513   8.910  1.00 28.81 LIG 0.14  C 
BRANCH 14 15
ATOM     15  NE  ARG B   2      41.054  49.198  10.253  1.00 31.55 LIG-0.23  N 
ATOM     16 HE   ARG B   2      41.512  49.803  10.659  1.00 31.55 LIG 0.18  HD
ATOM     17  CZ  ARG B   2      40.847  48.045  10.904  1.00 33.58 LIG 0.67  C 
ATOM     18  NH2 ARG B   2      40.094  47.085  10.380  1.00 33.13 LIG-0.23  N 
ATOM     19  NH1 ARG B   2      41.372  47.858  12.098  1.00 37.12 LIG-0.23  N 
ATOM     20 1HH2 ARG B   2      39.729  47.197   9.609  1.00 33.13 LIG 0.17  HD
ATOM     21 2HH2 ARG B   2      39.972  46.351  10.811  1.00 33.13 LIG 0.17  HD
ATOM     22 2HH1 ARG B   2      41.239  47.118  12.516  1.00 37.12 LIG 0.17  HD
ATOM     23 1HH1 ARG B   2      41.847  48.477  12.460  1.00 37.12 LIG 0.17  HD
ENDBRANCH 14 15
ENDBRANCH 13 14
ENDBRANCH 12 13
ENDBRANCH 11 12
BRANCH 11 24
ATOM     24  N   ARG B   2      40.363  53.565   7.606  1.00 22.27 LIG-0.35  N 
ATOM     25  C   ALA B   1      40.155  53.455   6.303  1.00 22.85 LIG 0.25  C 
ATOM     26 O    ALA B   1      39.939  52.365   5.762  1.00 22.62 LIG-0.27  OA
ATOM     27 H    ARG B   2      40.517  54.304   8.019  1.00 22.27 LIG 0.16  HD
BRANCH 25 28
ATOM     28  CA  ALA B   1      40.230  54.760   5.492  1.00 23.76 LIG 0.27  C 
ATOM     29  CB  ALA B   1      39.026  55.655   5.756  1.00 24.39 LIG 0.05  C 
BRANCH 28 30
ATOM     30  N   ALA B   1      40.370  54.520   4.061  1.00 25.03 LIG-0.07  N 
ATOM     31 H1   ALA B   1      39.582  54.633   3.663  1.00 25.03 LIG 0.28  HD
ATOM     32 H3   ALA B   1      40.654  53.687   3.926  1.00 25.03 LIG 0.28  HD
ATOM     33 H2   ALA B   1      40.960  55.092   3.720  1.00 25.03 LIG 0.28  HD
ENDBRANCH 28 30
ENDBRANCH 25 28
ENDBRANCH 11 24
ENDBRANCH 9 11
ENDBRANCH 6 7
BRANCH 6 34
ATOM     34  CB  THR B   3      38.224  53.794  12.068  1.00 21.53 LIG 0.15  C 
ATOM     35  CG2 THR B   3      36.893  53.778  11.424  1.00 22.92 LIG 0.04  C 
BRANCH 34 36
ATOM     36 OG1  THR B   3      38.078  54.113  13.445  1.00 22.47 LIG-0.39  OA
ATOM     37 HG1  THR B   3      37.300  54.393  13.587  1.00 22.47 LIG 0.21  HD
ENDBRANCH 34 36
ENDBRANCH 6 34
ENDBRANCH 4 6
ENDBRANCH 1 2
BRANCH 1 38
ATOM     38  CB  LYS B   4      37.163  50.601  16.038  1.00 32.55 LIG 0.04  C 
BRANCH 38 39
ATOM     39  CG  LYS B   4      36.899  49.281  16.704  1.00 30.49 LIG 0.00  C 
BRANCH 39 40
ATOM     40  CD  LYS B   4      36.488  49.498  18.161  1.00 34.18 LIG 0.03  C 
BRANCH 40 41
ATOM     41  CE  LYS B   4      35.942  48.216  18.765  1.00 33.34 LIG 0.23  C 
BRANCH 41 42
ATOM     42  NZ  LYS B   4      35.469  48.369  20.164  1.00 36.76 LIG-0.08  N 
ATOM     43 HZ1  LYS B   4      34.640  48.690  20.164  1.00 36.76 LIG 0.27  HD
ATOM     44 HZ2  LYS B   4      35.480  47.577  20.570  1.00 36.76 LIG 0.27  HD
ATOM     45 HZ3  LYS B   4      36.005  48.931  20.599  1.00 36.76 LIG 0.27  HD
ENDBRANCH 41 42
ENDBRANCH 40 41
ENDBRANCH 39 40
ENDBRANCH 38 39
ENDBRANCH 1 38
BRANCH 1 46
ATOM     46  C   LYS B   4      35.384  51.011  14.385  1.00 34.41 LIG 0.24  C 
ATOM     47  N   GLN B   5      34.525  50.640  15.324  1.00 39.81 LIG-0.35  N 
ATOM     48 H    GLN B   5      34.735  50.245  16.059  1.00 39.81 LIG 0.16  HD
ATOM     49 O    LYS B   4      35.059  51.685  13.387  1.00 33.27 LIG-0.27  OA
BRANCH 47 50
ATOM     50  CA  GLN B   5      33.099  50.906  15.136  1.00 46.50 LIG 0.18  C 
BRANCH 50 51
ATOM     51  C   GLN B   5      32.347  51.002  16.466  1.00 52.91 LIG 0.24  C 
ATOM     52  N   THR B   6      33.103  50.902  17.567  1.00 59.38 LIG-0.34  N 
ATOM     53 H    THR B   6      33.963  50.943  17.544  1.00 59.38 LIG 0.16  HD
ATOM     54 O    GLN B   5      31.129  51.095  16.486  1.00 55.19 LIG-0.27  OA
BRANCH 52 55
ATOM     55  CA  THR B   6      32.557  50.708  18.950  1.00 66.40 LIG 0.20  C 
BRANCH 55 56
ATOM     56  CB  THR B   6      31.590  51.862  19.390  1.00 64.05 LIG 0.15  C 
ATOM     57  CG2 THR B   6      30.988  51.567  20.759  1.00 70.60 LIG 0.04  C 
BRANCH 56 58
ATOM     58 OG1  THR B   6      32.265  53.130  19.433  1.00 62.34 LIG-0.39  OA
ATOM     59 HG1  THR B   6      33.055  53.018  19.699  1.00 62.34 LIG 0.21  HD
ENDBRANCH 56 58
ENDBRANCH 55 56
BRANCH 55 60
ATOM     60  C   THR B   6      31.742  49.391  19.103  1.00 68.19 LIG 0.24  C 
ATOM     61 O    THR B   6      30.875  49.076  18.258  1.00 63.20 LIG-0.27  OA
ATOM     62  N   ALA B   7      32.005  48.645  20.180  1.00 78.65 LIG-0.35  N 
ATOM     63 H    ALA B   7      32.669  48.791  20.708  1.00 78.65 LIG 0.16  HD
BRANCH 62 64
ATOM     64  CA  ALA B   7      31.178  47.498  20.564  1.00 81.14 LIG 0.16  C 
ATOM     65  CB  ALA B   7      29.803  47.964  21.050  1.00 91.84 LIG 0.04  C 
BRANCH 64 66
ATOM     66  C   ALA B   7      31.025  46.530  19.380  1.00 81.58 LIG 0.22  C 
ATOM     67 O    ALA B   7      31.459  45.376  19.436  1.00 77.41 LIG-0.29  OA
ENDBRANCH 64 66
ENDBRANCH 62 64
ENDBRANCH 55 60
ENDBRANCH 52 55
ENDBRANCH 50 51
BRANCH 50 68
ATOM     68  CB  GLN B   5      32.413  49.933  14.162  1.00 52.07 LIG 0.04  C 
BRANCH 68 69
ATOM     69  CG  GLN B   5      31.543  48.841  14.736  1.00 55.77 LIG 0.10  C 
BRANCH 69 70
ATOM     70  CD  GLN B   5      32.385  47.712  15.312  1.00 63.27 LIG 0.21  C 
ATOM     71  NE2 GLN B   5      31.747  46.835  16.064  1.00 63.75 LIG-0.37  N 
ATOM     72 21HE GLN B   5      30.901  46.917  16.197  1.00 63.75 LIG 0.16  HD
ATOM     73 22HE GLN B   5      32.177  46.182  16.421  1.00 63.75 LIG 0.16  HD
ATOM     74 OE1  GLN B   5      33.578  47.636  15.096  1.00 68.43 LIG-0.27  OA
ENDBRANCH 69 70
ENDBRANCH 68 69
ENDBRANCH 50 68
ENDBRANCH 47 50
ENDBRANCH 1 46
TORSDOF 30
ENDMDL
MODEL 28
USER: ADFR SOLUTION from run 50
USER: SCORE 23.849864 LL:  -4.638 LR: -20.544 RR:   0.000 FEB: -11.595
USER: RMSD 9.702204
USER: SEED 49
USER: STATUS 1 or 2 clusters left
USER: GENES 32
USER: genes 0 Translation |==|  0.72505 0.30296 0.43074
USER: genes 1 Rotation |==|  0.21369 0.44768 0.88386 0.63394
USER: genes 2 Torsion [C]-CA--N-[C] |==|  0.78375
USER: genes 3 Torsion [N]-C--CA-[N] |==|  0.27925
USER: genes 4 Torsion [C]-CA--N-[C] |==|  0.60343
USER: genes 5 Torsion [N]-C--CA-[N] |==|  0.90628
USER: genes 6 Torsion [C]-CA--CB-[CG] |==|  0.11989
USER: genes 7 Torsion [CA]-CB--CG-[CD] |==|  0.35364
USER: genes 8 Torsion [CB]-CG--CD-[NE] |==|  0.45227
USER: genes 9 Torsion [CG]-CD--NE-[CZ] |==|  0.43980
USER: genes 10 Torsion [C]-CA--N-[C] |==|  0.82791
USER: genes 11 Torsion [N]-C--CA-[N] |==|  0.38237
USER: genes 12 Torsion [C]-CA--N-[H1] |==|  0.14264
USER: genes 13 Torsion [C]-CA--CB-[CG2] |==|  0.31666
USER: genes 14 Torsion [CA]-CB--OG1-[HG1] |==|  0.12346
USER: genes 15 Torsion [N]-CA--CB-[CG] |==|  0.56962
USER: genes 16 Torsion [CA]-CB--CG-[CD] |==|  0.65627
USER: genes 17 Torsion [CB]-CG--CD-[CE] |==|  0.23585
USER: genes 18 Torsion [CG]-CD--CE-[NZ] |==|  0.69518
USER: genes 19 Torsion [CD]-CE--NZ-[HZ1] |==|  0.84363
USER: genes 20 Torsion [N]-CA--C-[N] |==|  0.33211
USER: genes 21 Torsion [C]-N--CA-[CB] |==|  0.83514
USER: genes 22 Torsion [N]-CA--C-[N] |==|  0.43100
USER: genes 23 Torsion [C]-N--CA-[CB] |==|  0.24915
USER: genes 24 Torsion [N]-CA--CB-[CG2] |==|  0.00554
USER: genes 25 Torsion [CA]-CB--OG1-[HG1] |==|  0.63232
USER: genes 26 Torsion [N]-CA--C-[N] |==|  0.98656
USER: genes 27 Torsion [C]-N--CA-[CB] |==|  0.84949
USER: genes 28 Torsion [N]-CA--C-[O] |==|  0.57979
USER: genes 29 Torsion [N]-CA--CB-[CG] |==|  0.32365
USER: genes 30 Torsion [CA]-CB--CG-[CD] |==|  0.33699
USER: genes 31 Torsion [CB]-CG--CD-[NE2] |==|  0.66444
ROOT
ATOM      1  CA  LYS B   4      39.603  50.686   9.149  1.00 30.17 LIG 0.18  C 
ENDROOT
BRANCH 1 2
ATOM      2  N   LYS B   4      39.378  52.082   9.467  1.00 25.68 LIG-0.35  N 
ATOM      3 H    LYS B   4      40.092  52.510   9.684  1.00 25.68 LIG 0.16  HD
ATOM      4  C   THR B   3      38.165  52.646   9.424  1.00 23.58 LIG 0.24  C 
ATOM      5 O    THR B   3      37.139  52.041   9.091  1.00 24.56 LIG-0.27  OA
BRANCH 4 6
ATOM      6  CA  THR B   3      38.083  54.117   9.834  1.00 21.46 LIG 0.20  C 
BRANCH 6 7
ATOM      7  N   THR B   3      38.025  54.991   8.681  1.00 21.22 LIG-0.34  N 
ATOM      8 H    THR B   3      37.562  54.675   8.029  1.00 21.22 LIG 0.16  HD
ATOM      9  C   ARG B   2      38.625  56.157   8.641  1.00 21.22 LIG 0.24  C 
ATOM     10 O    ARG B   2      39.276  56.582   9.561  1.00 22.30 LIG-0.27  OA
BRANCH 9 11
ATOM     11  CA  ARG B   2      38.431  56.975   7.355  1.00 22.28 LIG 0.18  C 
BRANCH 11 12
ATOM     12  CB  ARG B   2      37.146  57.807   7.384  1.00 24.95 LIG 0.04  C 
BRANCH 12 13
ATOM     13  CG  ARG B   2      36.812  58.544   8.663  1.00 25.01 LIG 0.02  C 
BRANCH 13 14
ATOM     14  CD  ARG B   2      36.555  60.028   8.341  1.00 28.81 LIG 0.14  C 
BRANCH 14 15
ATOM     15  NE  ARG B   2      35.849  60.776   9.382  1.00 31.55 LIG-0.23  N 
ATOM     16 HE   ARG B   2      35.381  60.324   9.945  1.00 31.55 LIG 0.18  HD
ATOM     17  CZ  ARG B   2      35.870  62.109   9.530  1.00 33.58 LIG 0.67  C 
ATOM     18  NH2 ARG B   2      36.619  62.876   8.748  1.00 33.13 LIG-0.23  N 
ATOM     19  NH1 ARG B   2      35.159  62.677  10.484  1.00 37.12 LIG-0.23  N 
ATOM     20 1HH2 ARG B   2      37.103  62.521   8.132  1.00 33.13 LIG 0.17  HD
ATOM     21 2HH2 ARG B   2      36.621  63.730   8.858  1.00 33.13 LIG 0.17  HD
ATOM     22 2HH1 ARG B   2      35.173  63.532  10.579  1.00 37.12 LIG 0.17  HD
ATOM     23 1HH1 ARG B   2      34.682  62.193  11.011  1.00 37.12 LIG 0.17  HD
ENDBRANCH 14 15
ENDBRANCH 13 14
ENDBRANCH 12 13
ENDBRANCH 11 12
BRANCH 11 24
ATOM     24  N   ARG B   2      38.337  56.067   6.228  1.00 22.27 LIG-0.35  N 
ATOM     25  C   ALA B   1      39.358  55.281   5.927  1.00 22.85 LIG 0.25  C 
ATOM     26 O    ALA B   1      40.408  55.289   6.579  1.00 22.62 LIG-0.27  OA
ATOM     27 H    ARG B   2      37.592  56.091   5.799  1.00 22.27 LIG 0.16  HD
BRANCH 25 28
ATOM     28  CA  ALA B   1      39.177  54.376   4.696  1.00 23.76 LIG 0.27  C 
ATOM     29  CB  ALA B   1      38.761  52.965   5.093  1.00 24.39 LIG 0.05  C 
BRANCH 28 30
ATOM     30  N   ALA B   1      40.370  54.328   3.859  1.00 25.03 LIG-0.07  N 
ATOM     31 H1   ALA B   1      41.078  54.132   4.362  1.00 25.03 LIG 0.28  HD
ATOM     32 H3   ALA B   1      40.492  55.119   3.470  1.00 25.03 LIG 0.28  HD
ATOM     33 H2   ALA B   1      40.269  53.703   3.234  1.00 25.03 LIG 0.28  HD
ENDBRANCH 28 30
ENDBRANCH 25 28
ENDBRANCH 11 24
ENDBRANCH 9 11
ENDBRANCH 6 7
BRANCH 6 34
ATOM     34  CB  THR B   3      36.878  54.342  10.741  1.00 21.53 LIG 0.15  C 
ATOM     35  CG2 THR B   3      37.292  54.724  12.109  1.00 22.92 LIG 0.04  C 
BRANCH 34 36
ATOM     36 OG1  THR B   3      36.089  55.380  10.180  1.00 22.47 LIG-0.39  OA
ATOM     37 HG1  THR B   3      36.012  55.258   9.352  1.00 22.47 LIG 0.21  HD
ENDBRANCH 34 36
ENDBRANCH 6 34
ENDBRANCH 4 6
ENDBRANCH 1 2
BRANCH 1 38
ATOM     38  CB  LYS B   4      41.059  50.460   8.838  1.00 32.55 LIG 0.04  C 
BRANCH 38 39
ATOM     39  CG  LYS B   4      41.297  49.270   7.952  1.00 30.49 LIG 0.00  C 
BRANCH 39 40
ATOM     40  CD  LYS B   4      42.263  48.296   8.627  1.00 34.18 LIG 0.03  C 
BRANCH 40 41
ATOM     41  CE  LYS B   4      41.519  47.361   9.567  1.00 33.34 LIG 0.23  C 
BRANCH 41 42
ATOM     42  NZ  LYS B   4      41.791  47.619  11.003  1.00 36.76 LIG-0.08  N 
ATOM     43 HZ1  LYS B   4      42.667  47.572  11.153  1.00 36.76 LIG 0.27  HD
ATOM     44 HZ2  LYS B   4      41.497  48.430  11.221  1.00 36.76 LIG 0.27  HD
ATOM     45 HZ3  LYS B   4      41.372  47.010  11.499  1.00 36.76 LIG 0.27  HD
ENDBRANCH 41 42
ENDBRANCH 40 41
ENDBRANCH 39 40
ENDBRANCH 38 39
ENDBRANCH 1 38
BRANCH 1 46
ATOM     46  C   LYS B   4      39.188  49.829  10.309  1.00 34.41 LIG 0.24  C 
ATOM     47  N   GLN B   5      38.225  48.944  10.091  1.00 39.81 LIG-0.35  N 
ATOM     48 H    GLN B   5      37.869  48.779   9.326  1.00 39.81 LIG 0.16  HD
ATOM     49 O    LYS B   4      39.761  49.960  11.410  1.00 33.27 LIG-0.27  OA
BRANCH 47 50
ATOM     50  CA  GLN B   5      37.700  48.165  11.212  1.00 46.50 LIG 0.18  C 
BRANCH 50 51
ATOM     51  C   GLN B   5      36.909  49.029  12.198  1.00 52.91 LIG 0.24  C 
ATOM     52  N   THR B   6      35.992  48.380  12.927  1.00 59.38 LIG-0.34  N 
ATOM     53 H    THR B   6      35.952  47.521  12.966  1.00 59.38 LIG 0.16  HD
ATOM     54 O    GLN B   5      37.081  50.237  12.243  1.00 55.19 LIG-0.27  OA
BRANCH 52 55
ATOM     55  CA  THR B   6      34.938  49.058  13.753  1.00 66.40 LIG 0.20  C 
BRANCH 55 56
ATOM     56  CB  THR B   6      33.619  49.330  12.951  1.00 64.05 LIG 0.15  C 
ATOM     57  CG2 THR B   6      33.729  48.785  11.532  1.00 70.60 LIG 0.04  C 
BRANCH 56 58
ATOM     58 OG1  THR B   6      32.477  48.740  13.597  1.00 62.34 LIG-0.39  OA
ATOM     59 HG1  THR B   6      32.022  48.318  13.031  1.00 62.34 LIG 0.21  HD
ENDBRANCH 56 58
ENDBRANCH 55 56
BRANCH 55 60
ATOM     60  C   THR B   6      34.513  48.226  14.999  1.00 68.19 LIG 0.24  C 
ATOM     61 O    THR B   6      33.726  48.703  15.844  1.00 63.20 LIG-0.27  OA
ATOM     62  N   ALA B   7      35.049  47.007  15.115  1.00 78.65 LIG-0.35  N 
ATOM     63 H    ALA B   7      35.502  46.626  14.492  1.00 78.65 LIG 0.16  HD
BRANCH 62 64
ATOM     64  CA  ALA B   7      34.909  46.201  16.331  1.00 81.14 LIG 0.16  C 
ATOM     65  CB  ALA B   7      35.384  46.986  17.556  1.00 91.84 LIG 0.04  C 
BRANCH 64 66
ATOM     66  C   ALA B   7      33.447  45.760  16.514  1.00 81.58 LIG 0.22  C 
ATOM     67 O    ALA B   7      32.977  45.552  17.636  1.00 77.41 LIG-0.29  OA
ENDBRANCH 64 66
ENDBRANCH 62 64
ENDBRANCH 55 60
ENDBRANCH 52 55
ENDBRANCH 50 51
BRANCH 50 68
ATOM     68  CB  GLN B   5      38.766  47.316  11.926  1.00 52.07 LIG 0.04  C 
BRANCH 68 69
ATOM     69  CG  GLN B   5      39.078  47.625  13.371  1.00 55.77 LIG 0.10  C 
BRANCH 69 70
ATOM     70  CD  GLN B   5      38.832  46.414  14.258  1.00 63.27 LIG 0.21  C 
ATOM     71  NE2 GLN B   5      37.949  46.571  15.226  1.00 63.75 LIG-0.37  N 
ATOM     72 21HE GLN B   5      37.545  47.324  15.321  1.00 63.75 LIG 0.16  HD
ATOM     73 22HE GLN B   5      37.778  45.920  15.761  1.00 63.75 LIG 0.16  HD
ATOM     74 OE1  GLN B   5      39.427  45.369  14.085  1.00 68.43 LIG-0.27  OA
ENDBRANCH 69 70
ENDBRANCH 68 69
ENDBRANCH 50 68
ENDBRANCH 47 50
ENDBRANCH 1 46
TORSDOF 30
ENDMDL
MODEL 29
USER: ADFR SOLUTION from run 64
USER: SCORE 23.408097 LL:  -5.111 LR: -20.495 RR:   0.000 FEB: -11.546
USER: RMSD 8.744479
USER: SEED 63
USER: STATUS searching
USER: GENES 32
USER: genes 0 Translation |==|  0.65743 0.17335 0.48642
USER: genes 1 Rotation |==|  0.14076 0.70779 0.77882 0.50552
USER: genes 2 Torsion [C]-CA--N-[C] |==|  0.58074
USER: genes 3 Torsion [N]-C--CA-[N] |==|  0.05489
USER: genes 4 Torsion [C]-CA--N-[C] |==|  0.68405
USER: genes 5 Torsion [N]-C--CA-[N] |==|  0.87658
USER: genes 6 Torsion [C]-CA--CB-[CG] |==|  0.08361
USER: genes 7 Torsion [CA]-CB--CG-[CD] |==|  0.18222
USER: genes 8 Torsion [CB]-CG--CD-[NE] |==|  0.40180
USER: genes 9 Torsion [CG]-CD--NE-[CZ] |==|  0.30972
USER: genes 10 Torsion [C]-CA--N-[C] |==|  0.82267
USER: genes 11 Torsion [N]-C--CA-[N] |==|  0.05134
USER: genes 12 Torsion [C]-CA--N-[H1] |==|  0.84285
USER: genes 13 Torsion [C]-CA--CB-[CG2] |==|  0.41646
USER: genes 14 Torsion [CA]-CB--OG1-[HG1] |==|  0.67139
USER: genes 15 Torsion [N]-CA--CB-[CG] |==|  0.13983
USER: genes 16 Torsion [CA]-CB--CG-[CD] |==|  0.77715
USER: genes 17 Torsion [CB]-CG--CD-[CE] |==|  0.81586
USER: genes 18 Torsion [CG]-CD--CE-[NZ] |==|  0.78452
USER: genes 19 Torsion [CD]-CE--NZ-[HZ1] |==|  0.77636
USER: genes 20 Torsion [N]-CA--C-[N] |==|  0.16761
USER: genes 21 Torsion [C]-N--CA-[CB] |==|  0.46908
USER: genes 22 Torsion [N]-CA--C-[N] |==|  0.29111
USER: genes 23 Torsion [C]-N--CA-[CB] |==|  0.18333
USER: genes 24 Torsion [N]-CA--CB-[CG2] |==|  0.67833
USER: genes 25 Torsion [CA]-CB--OG1-[HG1] |==|  0.76935
USER: genes 26 Torsion [N]-CA--C-[N] |==|  0.05598
USER: genes 27 Torsion [C]-N--CA-[CB] |==|  0.40032
USER: genes 28 Torsion [N]-CA--C-[O] |==|  0.60221
USER: genes 29 Torsion [N]-CA--CB-[CG] |==|  0.23407
USER: genes 30 Torsion [CA]-CB--CG-[CD] |==|  0.80175
USER: genes 31 Torsion [CB]-CG--CD-[NE2] |==|  0.37449
ROOT
ATOM      1  CA  LYS B   4      38.030  47.769  10.485  1.00 30.17 LIG 0.18  C 
ENDROOT
BRANCH 1 2
ATOM      2  N   LYS B   4      38.399  48.528   9.305  1.00 25.68 LIG-0.35  N 
ATOM      3 H    LYS B   4      38.529  49.364   9.455  1.00 25.68 LIG 0.16  HD
ATOM      4  C   THR B   3      38.523  47.967   8.097  1.00 23.58 LIG 0.24  C 
ATOM      5 O    THR B   3      38.359  46.760   7.881  1.00 24.56 LIG-0.27  OA
BRANCH 4 6
ATOM      6  CA  THR B   3      38.871  48.907   6.942  1.00 21.46 LIG 0.20  C 
BRANCH 6 7
ATOM      7  N   THR B   3      39.447  50.147   7.418  1.00 21.22 LIG-0.34  N 
ATOM      8 H    THR B   3      40.215  50.052   7.792  1.00 21.22 LIG 0.16  HD
ATOM      9  C   ARG B   2      38.847  51.306   7.287  1.00 21.22 LIG 0.24  C 
ATOM     10 O    ARG B   2      37.767  51.422   6.767  1.00 22.30 LIG-0.27  OA
BRANCH 9 11
ATOM     11  CA  ARG B   2      39.613  52.529   7.814  1.00 22.28 LIG 0.18  C 
BRANCH 11 12
ATOM     12  CB  ARG B   2      40.770  52.931   6.893  1.00 24.95 LIG 0.04  C 
BRANCH 12 13
ATOM     13  CG  ARG B   2      40.624  52.650   5.414  1.00 25.01 LIG 0.02  C 
BRANCH 13 14
ATOM     14  CD  ARG B   2      39.480  53.510   4.844  1.00 28.81 LIG 0.14  C 
BRANCH 14 15
ATOM     15  NE  ARG B   2      39.688  53.994   3.479  1.00 31.55 LIG-0.23  N 
ATOM     16 HE   ARG B   2      40.305  54.580   3.357  1.00 31.55 LIG 0.18  HD
ATOM     17  CZ  ARG B   2      38.995  53.599   2.401  1.00 33.58 LIG 0.67  C 
ATOM     18  NH2 ARG B   2      38.072  52.649   2.487  1.00 33.13 LIG-0.23  N 
ATOM     19  NH1 ARG B   2      39.244  54.137   1.224  1.00 37.12 LIG-0.23  N 
ATOM     20 1HH2 ARG B   2      37.909  52.275   3.244  1.00 33.13 LIG 0.17  HD
ATOM     21 2HH2 ARG B   2      37.637  52.408   1.785  1.00 33.13 LIG 0.17  HD
ATOM     22 2HH1 ARG B   2      38.799  53.883   0.533  1.00 37.12 LIG 0.17  HD
ATOM     23 1HH1 ARG B   2      39.852  54.741   1.147  1.00 37.12 LIG 0.17  HD
ENDBRANCH 14 15
ENDBRANCH 13 14
ENDBRANCH 12 13
ENDBRANCH 11 12
BRANCH 11 24
ATOM     24  N   ARG B   2      40.180  52.209   9.110  1.00 22.27 LIG-0.35  N 
ATOM     25  C   ALA B   1      39.381  51.940  10.130  1.00 22.85 LIG 0.25  C 
ATOM     26 O    ALA B   1      38.150  51.950  10.022  1.00 22.62 LIG-0.27  OA
ATOM     27 H    ARG B   2      41.039  52.213   9.146  1.00 22.27 LIG 0.16  HD
BRANCH 25 28
ATOM     28  CA  ALA B   1      40.072  51.643  11.472  1.00 23.76 LIG 0.27  C 
ATOM     29  CB  ALA B   1      39.290  52.220  12.646  1.00 24.39 LIG 0.05  C 
BRANCH 28 30
ATOM     30  N   ALA B   1      41.450  52.120  11.507  1.00 25.03 LIG-0.07  N 
ATOM     31 H1   ALA B   1      41.906  51.760  10.833  1.00 25.03 LIG 0.28  HD
ATOM     32 H3   ALA B   1      41.826  51.886  12.280  1.00 25.03 LIG 0.28  HD
ATOM     33 H2   ALA B   1      41.459  53.007  11.431  1.00 25.03 LIG 0.28  HD
ENDBRANCH 28 30
ENDBRANCH 25 28
ENDBRANCH 11 24
ENDBRANCH 9 11
ENDBRANCH 6 7
BRANCH 6 34
ATOM     34  CB  THR B   3      39.816  48.213   5.967  1.00 21.53 LIG 0.15  C 
ATOM     35  CG2 THR B   3      39.629  48.707   4.586  1.00 22.92 LIG 0.04  C 
BRANCH 34 36
ATOM     36 OG1  THR B   3      41.149  48.470   6.384  1.00 22.47 LIG-0.39  OA
ATOM     37 HG1  THR B   3      41.555  48.893   5.782  1.00 22.47 LIG 0.21  HD
ENDBRANCH 34 36
ENDBRANCH 6 34
ENDBRANCH 4 6
ENDBRANCH 1 2
BRANCH 1 38
ATOM     38  CB  LYS B   4      39.265  47.204  11.136  1.00 32.55 LIG 0.04  C 
BRANCH 38 39
ATOM     39  CG  LYS B   4      40.339  48.230  11.359  1.00 30.49 LIG 0.00  C 
BRANCH 39 40
ATOM     40  CD  LYS B   4      41.113  48.473  10.063  1.00 34.18 LIG 0.03  C 
BRANCH 40 41
ATOM     41  CE  LYS B   4      41.893  47.233   9.658  1.00 33.34 LIG 0.23  C 
BRANCH 41 42
ATOM     42  NZ  LYS B   4      43.141  47.032  10.438  1.00 36.76 LIG-0.08  N 
ATOM     43 HZ1  LYS B   4      43.783  47.552  10.109  1.00 36.76 LIG 0.27  HD
ATOM     44 HZ2  LYS B   4      42.996  47.242  11.290  1.00 36.76 LIG 0.27  HD
ATOM     45 HZ3  LYS B   4      43.391  46.179  10.382  1.00 36.76 LIG 0.27  HD
ENDBRANCH 41 42
ENDBRANCH 40 41
ENDBRANCH 39 40
ENDBRANCH 38 39
ENDBRANCH 1 38
BRANCH 1 46
ATOM     46  C   LYS B   4      37.304  48.659  11.451  1.00 34.41 LIG 0.24  C 
ATOM     47  N   GLN B   5      36.176  49.214  11.028  1.00 39.81 LIG-0.35  N 
ATOM     48 H    GLN B   5      35.798  49.053  10.272  1.00 39.81 LIG 0.16  HD
ATOM     49 O    LYS B   4      37.761  48.828  12.599  1.00 33.27 LIG-0.27  OA
BRANCH 47 50
ATOM     50  CA  GLN B   5      35.488  50.181  11.883  1.00 46.50 LIG 0.18  C 
BRANCH 50 51
ATOM     51  C   GLN B   5      35.011  49.557  13.197  1.00 52.91 LIG 0.24  C 
ATOM     52  N   THR B   6      35.731  49.872  14.282  1.00 59.38 LIG-0.34  N 
ATOM     53 H    THR B   6      36.318  50.502  14.282  1.00 59.38 LIG 0.16  HD
ATOM     54 O    GLN B   5      34.074  48.773  13.209  1.00 55.19 LIG-0.27  OA
BRANCH 52 55
ATOM     55  CA  THR B   6      35.606  49.180  15.607  1.00 66.40 LIG 0.20  C 
BRANCH 55 56
ATOM     56  CB  THR B   6      36.070  47.683  15.557  1.00 64.05 LIG 0.15  C 
ATOM     57  CG2 THR B   6      34.900  46.747  15.842  1.00 70.60 LIG 0.04  C 
BRANCH 56 58
ATOM     58 OG1  THR B   6      36.641  47.349  14.280  1.00 62.34 LIG-0.39  OA
ATOM     59 HG1  THR B   6      36.026  47.162  13.738  1.00 62.34 LIG 0.21  HD
ENDBRANCH 56 58
ENDBRANCH 55 56
BRANCH 55 60
ATOM     60  C   THR B   6      36.457  49.850  16.725  1.00 68.19 LIG 0.24  C 
ATOM     61 O    THR B   6      36.750  49.221  17.765  1.00 63.20 LIG-0.27  OA
ATOM     62  N   ALA B   7      36.827  51.117  16.518  1.00 78.65 LIG-0.35  N 
ATOM     63 H    ALA B   7      36.728  51.524  15.767  1.00 78.65 LIG 0.16  HD
BRANCH 62 64
ATOM     64  CA  ALA B   7      37.444  51.937  17.564  1.00 81.14 LIG 0.16  C 
ATOM     65  CB  ALA B   7      38.501  52.868  16.966  1.00 91.84 LIG 0.04  C 
BRANCH 64 66
ATOM     66  C   ALA B   7      36.371  52.754  18.303  1.00 81.58 LIG 0.22  C 
ATOM     67 O    ALA B   7      36.596  53.904  18.691  1.00 77.41 LIG-0.29  OA
ENDBRANCH 64 66
ENDBRANCH 62 64
ENDBRANCH 55 60
ENDBRANCH 52 55
ENDBRANCH 50 51
BRANCH 50 68
ATOM     68  CB  GLN B   5      34.357  50.940  11.169  1.00 52.07 LIG 0.04  C 
BRANCH 68 69
ATOM     69  CG  GLN B   5      32.996  50.290  11.092  1.00 55.77 LIG 0.10  C 
BRANCH 69 70
ATOM     70  CD  GLN B   5      33.003  49.113  10.127  1.00 63.27 LIG 0.21  C 
ATOM     71  NE2 GLN B   5      32.408  48.013  10.547  1.00 63.75 LIG-0.37  N 
ATOM     72 21HE GLN B   5      32.038  47.994  11.323  1.00 63.75 LIG 0.16  HD
ATOM     73 22HE GLN B   5      32.390  47.316  10.045  1.00 63.75 LIG 0.16  HD
ATOM     74 OE1  GLN B   5      33.538  49.188   9.039  1.00 68.43 LIG-0.27  OA
ENDBRANCH 69 70
ENDBRANCH 68 69
ENDBRANCH 50 68
ENDBRANCH 47 50
ENDBRANCH 1 46
TORSDOF 30
ENDMDL
MODEL 30
USER: ADFR SOLUTION from run 156
USER: SCORE 22.755969 LL:  -4.654 LR: -20.348 RR:   0.000 FEB: -11.399
USER: RMSD 8.723753
USER: SEED 155
USER: STATUS no improvement in best in 5 clusters for 5 generations
USER: GENES 32
USER: genes 0 Translation |==|  0.54867 0.18215 0.68541
USER: genes 1 Rotation |==|  0.01501 0.61268 0.51174 0.54414
USER: genes 2 Torsion [C]-CA--N-[C] |==|  0.19447
USER: genes 3 Torsion [N]-C--CA-[N] |==|  0.12458
USER: genes 4 Torsion [C]-CA--N-[C] |==|  0.15556
USER: genes 5 Torsion [N]-C--CA-[N] |==|  0.90691
USER: genes 6 Torsion [C]-CA--CB-[CG] |==|  0.69217
USER: genes 7 Torsion [CA]-CB--CG-[CD] |==|  0.40382
USER: genes 8 Torsion [CB]-CG--CD-[NE] |==|  0.67174
USER: genes 9 Torsion [CG]-CD--NE-[CZ] |==|  0.32364
USER: genes 10 Torsion [C]-CA--N-[C] |==|  0.83731
USER: genes 11 Torsion [N]-C--CA-[N] |==|  0.93604
USER: genes 12 Torsion [C]-CA--N-[H1] |==|  0.76606
USER: genes 13 Torsion [C]-CA--CB-[CG2] |==|  0.23036
USER: genes 14 Torsion [CA]-CB--OG1-[HG1] |==|  0.58188
USER: genes 15 Torsion [N]-CA--CB-[CG] |==|  0.56371
USER: genes 16 Torsion [CA]-CB--CG-[CD] |==|  0.51007
USER: genes 17 Torsion [CB]-CG--CD-[CE] |==|  0.09912
USER: genes 18 Torsion [CG]-CD--CE-[NZ] |==|  0.63559
USER: genes 19 Torsion [CD]-CE--NZ-[HZ1] |==|  0.58939
USER: genes 20 Torsion [N]-CA--C-[N] |==|  0.98674
USER: genes 21 Torsion [C]-N--CA-[CB] |==|  0.78075
USER: genes 22 Torsion [N]-CA--C-[N] |==|  0.72707
USER: genes 23 Torsion [C]-N--CA-[CB] |==|  0.79746
USER: genes 24 Torsion [N]-CA--CB-[CG2] |==|  0.55235
USER: genes 25 Torsion [CA]-CB--OG1-[HG1] |==|  0.81162
USER: genes 26 Torsion [N]-CA--C-[N] |==|  0.14021
USER: genes 27 Torsion [C]-N--CA-[CB] |==|  0.85404
USER: genes 28 Torsion [N]-CA--C-[O] |==|  0.14687
USER: genes 29 Torsion [N]-CA--CB-[CG] |==|  0.96609
USER: genes 30 Torsion [CA]-CB--CG-[CD] |==|  0.66854
USER: genes 31 Torsion [CB]-CG--CD-[NE2] |==|  0.73016
ROOT
ATOM      1  CA  LYS B   4      35.502  47.967  15.261  1.00 30.17 LIG 0.18  C 
ENDROOT
BRANCH 1 2
ATOM      2  N   LYS B   4      36.521  48.937  14.908  1.00 25.68 LIG-0.35  N 
ATOM      3 H    LYS B   4      37.091  48.649  14.332  1.00 25.68 LIG 0.16  HD
ATOM      4  C   THR B   3      36.562  50.164  15.437  1.00 23.58 LIG 0.24  C 
ATOM      5 O    THR B   3      35.732  50.590  16.249  1.00 24.56 LIG-0.27  OA
BRANCH 4 6
ATOM      6  CA  THR B   3      37.727  51.055  15.002  1.00 21.46 LIG 0.20  C 
BRANCH 6 7
ATOM      7  N   THR B   3      37.942  50.992  13.571  1.00 21.22 LIG-0.34  N 
ATOM      8 H    THR B   3      38.740  50.762  13.349  1.00 21.22 LIG 0.16  HD
ATOM      9  C   ARG B   2      37.000  51.263  12.699  1.00 21.22 LIG 0.24  C 
ATOM     10 O    ARG B   2      35.889  51.592  13.026  1.00 22.30 LIG-0.27  OA
BRANCH 9 11
ATOM     11  CA  ARG B   2      37.384  51.112  11.218  1.00 22.28 LIG 0.18  C 
BRANCH 11 12
ATOM     12  CB  ARG B   2      37.217  49.674  10.718  1.00 24.95 LIG 0.04  C 
BRANCH 12 13
ATOM     13  CG  ARG B   2      38.470  48.893  10.388  1.00 25.01 LIG 0.02  C 
BRANCH 13 14
ATOM     14  CD  ARG B   2      38.254  47.411  10.752  1.00 28.81 LIG 0.14  C 
BRANCH 14 15
ATOM     15  NE  ARG B   2      39.156  46.886  11.777  1.00 31.55 LIG-0.23  N 
ATOM     16 HE   ARG B   2      39.996  46.864  11.591  1.00 31.55 LIG 0.18  HD
ATOM     17  CZ  ARG B   2      38.782  46.434  12.983  1.00 33.58 LIG 0.67  C 
ATOM     18  NH2 ARG B   2      37.517  46.494  13.378  1.00 33.13 LIG-0.23  N 
ATOM     19  NH1 ARG B   2      39.683  45.944  13.811  1.00 37.12 LIG-0.23  N 
ATOM     20 1HH2 ARG B   2      36.919  46.827  12.857  1.00 33.13 LIG 0.17  HD
ATOM     21 2HH2 ARG B   2      37.295  46.199  14.155  1.00 33.13 LIG 0.17  HD
ATOM     22 2HH1 ARG B   2      39.443  45.654  14.585  1.00 37.12 LIG 0.17  HD
ATOM     23 1HH1 ARG B   2      40.511  45.914  13.578  1.00 37.12 LIG 0.17  HD
ENDBRANCH 14 15
ENDBRANCH 13 14
ENDBRANCH 12 13
ENDBRANCH 11 12
BRANCH 11 24
ATOM     24  N   ARG B   2      38.780  51.471  11.054  1.00 22.27 LIG-0.35  N 
ATOM     25  C   ALA B   1      39.197  52.677  11.403  1.00 22.85 LIG 0.25  C 
ATOM     26 O    ALA B   1      38.431  53.527  11.872  1.00 22.62 LIG-0.27  OA
ATOM     27 H    ARG B   2      39.281  50.854  10.724  1.00 22.27 LIG 0.16  HD
BRANCH 25 28
ATOM     28  CA  ALA B   1      40.687  52.976  11.163  1.00 23.76 LIG 0.27  C 
ATOM     29  CB  ALA B   1      40.895  53.811   9.905  1.00 24.39 LIG 0.05  C 
BRANCH 28 30
ATOM     30  N   ALA B   1      41.495  51.765  11.098  1.00 25.03 LIG-0.07  N 
ATOM     31 H1   ALA B   1      41.716  51.511  11.922  1.00 25.03 LIG 0.28  HD
ATOM     32 H3   ALA B   1      42.234  51.925  10.628  1.00 25.03 LIG 0.28  HD
ATOM     33 H2   ALA B   1      41.029  51.118  10.703  1.00 25.03 LIG 0.28  HD
ENDBRANCH 28 30
ENDBRANCH 25 28
ENDBRANCH 11 24
ENDBRANCH 9 11
ENDBRANCH 6 7
BRANCH 6 34
ATOM     34  CB  THR B   3      37.483  52.493  15.447  1.00 21.53 LIG 0.15  C 
ATOM     35  CG2 THR B   3      37.887  52.701  16.854  1.00 22.92 LIG 0.04  C 
BRANCH 34 36
ATOM     36 OG1  THR B   3      38.241  53.351  14.607  1.00 22.47 LIG-0.39  OA
ATOM     37 HG1  THR B   3      38.455  54.043  15.033  1.00 22.47 LIG 0.21  HD
ENDBRANCH 34 36
ENDBRANCH 6 34
ENDBRANCH 4 6
ENDBRANCH 1 2
BRANCH 1 38
ATOM     38  CB  LYS B   4      35.410  47.843  16.759  1.00 32.55 LIG 0.04  C 
BRANCH 38 39
ATOM     39  CG  LYS B   4      34.821  46.537  17.209  1.00 30.49 LIG 0.00  C 
BRANCH 39 40
ATOM     40  CD  LYS B   4      34.677  46.520  18.731  1.00 34.18 LIG 0.03  C 
BRANCH 40 41
ATOM     41  CE  LYS B   4      34.308  47.898  19.255  1.00 33.34 LIG 0.23  C 
BRANCH 41 42
ATOM     42  NZ  LYS B   4      35.148  48.350  20.393  1.00 36.76 LIG-0.08  N 
ATOM     43 HZ1  LYS B   4      34.663  48.862  20.935  1.00 36.76 LIG 0.27  HD
ATOM     44 HZ2  LYS B   4      35.445  47.641  20.842  1.00 36.76 LIG 0.27  HD
ATOM     45 HZ3  LYS B   4      35.840  48.816  20.084  1.00 36.76 LIG 0.27  HD
ENDBRANCH 41 42
ENDBRANCH 40 41
ENDBRANCH 39 40
ENDBRANCH 38 39
ENDBRANCH 1 38
BRANCH 1 46
ATOM     46  C   LYS B   4      34.178  48.399  14.701  1.00 34.41 LIG 0.24  C 
ATOM     47  N   GLN B   5      34.135  49.579  14.097  1.00 39.81 LIG-0.35  N 
ATOM     48 H    GLN B   5      34.816  50.082  13.946  1.00 39.81 LIG 0.16  HD
ATOM     49 O    LYS B   4      33.189  47.645  14.800  1.00 33.27 LIG-0.27  OA
BRANCH 47 50
ATOM     50  CA  GLN B   5      32.849  50.102  13.637  1.00 46.50 LIG 0.18  C 
BRANCH 50 51
ATOM     51  C   GLN B   5      31.771  50.028  14.721  1.00 52.91 LIG 0.24  C 
ATOM     52  N   THR B   6      30.942  48.980  14.641  1.00 59.38 LIG-0.34  N 
ATOM     53 H    THR B   6      31.091  48.309  14.124  1.00 59.38 LIG 0.16  HD
ATOM     54 O    GLN B   5      31.660  50.919  15.549  1.00 55.19 LIG-0.27  OA
BRANCH 52 55
ATOM     55  CA  THR B   6      29.671  48.849  15.427  1.00 66.40 LIG 0.20  C 
BRANCH 55 56
ATOM     56  CB  THR B   6      29.923  48.545  16.945  1.00 64.05 LIG 0.15  C 
ATOM     57  CG2 THR B   6      28.669  47.971  17.595  1.00 70.60 LIG 0.04  C 
BRANCH 56 58
ATOM     58 OG1  THR B   6      31.012  47.624  17.125  1.00 62.34 LIG-0.39  OA
ATOM     59 HG1  THR B   6      30.793  46.869  16.830  1.00 62.34 LIG 0.21  HD
ENDBRANCH 56 58
ENDBRANCH 55 56
BRANCH 55 60
ATOM     60  C   THR B   6      28.799  50.138  15.393  1.00 68.19 LIG 0.24  C 
ATOM     61 O    THR B   6      28.348  50.631  16.450  1.00 63.20 LIG-0.27  OA
ATOM     62  N   ALA B   7      28.549  50.660  14.188  1.00 78.65 LIG-0.35  N 
ATOM     63 H    ALA B   7      28.939  50.398  13.467  1.00 78.65 LIG 0.16  HD
BRANCH 62 64
ATOM     64  CA  ALA B   7      27.578  51.738  13.984  1.00 81.14 LIG 0.16  C 
ATOM     65  CB  ALA B   7      26.226  51.369  14.598  1.00 91.84 LIG 0.04  C 
BRANCH 64 66
ATOM     66  C   ALA B   7      28.101  53.049  14.593  1.00 81.58 LIG 0.22  C 
ATOM     67 O    ALA B   7      29.218  53.490  14.303  1.00 77.41 LIG-0.29  OA
ENDBRANCH 64 66
ENDBRANCH 62 64
ENDBRANCH 55 60
ENDBRANCH 52 55
ENDBRANCH 50 51
BRANCH 50 68
ATOM     68  CB  GLN B   5      32.370  49.482  12.313  1.00 52.07 LIG 0.04  C 
BRANCH 68 69
ATOM     69  CG  GLN B   5      33.350  48.660  11.512  1.00 55.77 LIG 0.10  C 
BRANCH 69 70
ATOM     70  CD  GLN B   5      33.577  49.263  10.133  1.00 63.27 LIG 0.21  C 
ATOM     71  NE2 GLN B   5      32.870  48.744   9.147  1.00 63.75 LIG-0.37  N 
ATOM     72 21HE GLN B   5      32.315  48.107   9.306  1.00 63.75 LIG 0.16  HD
ATOM     73 22HE GLN B   5      32.966  49.043   8.347  1.00 63.75 LIG 0.16  HD
ATOM     74 OE1  GLN B   5      34.373  50.164   9.958  1.00 68.43 LIG-0.27  OA
ENDBRANCH 69 70
ENDBRANCH 68 69
ENDBRANCH 50 68
ENDBRANCH 47 50
ENDBRANCH 1 46
TORSDOF 30
ENDMDL
MODEL 31
USER: ADFR SOLUTION from run 189
USER: SCORE 23.759621 LL:  -4.379 LR: -20.338 RR:   0.000 FEB: -11.389
USER: RMSD 9.706017
USER: SEED 188
USER: STATUS no improvement in best in 4 clusters for 5 generations
USER: GENES 32
USER: genes 0 Translation |==|  0.64187 0.20465 0.46509
USER: genes 1 Rotation |==|  0.88540 0.26769 0.28319 0.52220
USER: genes 2 Torsion [C]-CA--N-[C] |==|  0.57828
USER: genes 3 Torsion [N]-C--CA-[N] |==|  0.06681
USER: genes 4 Torsion [C]-CA--N-[C] |==|  0.17081
USER: genes 5 Torsion [N]-C--CA-[N] |==|  0.99521
USER: genes 6 Torsion [C]-CA--CB-[CG] |==|  0.49220
USER: genes 7 Torsion [CA]-CB--CG-[CD] |==|  0.25303
USER: genes 8 Torsion [CB]-CG--CD-[NE] |==|  0.54532
USER: genes 9 Torsion [CG]-CD--NE-[CZ] |==|  0.34603
USER: genes 10 Torsion [C]-CA--N-[C] |==|  0.72787
USER: genes 11 Torsion [N]-C--CA-[N] |==|  0.50441
USER: genes 12 Torsion [C]-CA--N-[H1] |==|  0.79666
USER: genes 13 Torsion [C]-CA--CB-[CG2] |==|  0.22111
USER: genes 14 Torsion [CA]-CB--OG1-[HG1] |==|  0.20668
USER: genes 15 Torsion [N]-CA--CB-[CG] |==|  0.65127
USER: genes 16 Torsion [CA]-CB--CG-[CD] |==|  0.75350
USER: genes 17 Torsion [CB]-CG--CD-[CE] |==|  0.72063
USER: genes 18 Torsion [CG]-CD--CE-[NZ] |==|  0.92352
USER: genes 19 Torsion [CD]-CE--NZ-[HZ1] |==|  0.61039
USER: genes 20 Torsion [N]-CA--C-[N] |==|  0.54444
USER: genes 21 Torsion [C]-N--CA-[CB] |==|  0.19416
USER: genes 22 Torsion [N]-CA--C-[N] |==|  0.03717
USER: genes 23 Torsion [C]-N--CA-[CB] |==|  0.83800
USER: genes 24 Torsion [N]-CA--CB-[CG2] |==|  0.56847
USER: genes 25 Torsion [CA]-CB--OG1-[HG1] |==|  0.58102
USER: genes 26 Torsion [N]-CA--C-[N] |==|  0.35880
USER: genes 27 Torsion [C]-N--CA-[CB] |==|  0.85932
USER: genes 28 Torsion [N]-CA--C-[O] |==|  0.98670
USER: genes 29 Torsion [N]-CA--CB-[CG] |==|  0.10179
USER: genes 30 Torsion [CA]-CB--CG-[CD] |==|  0.59128
USER: genes 31 Torsion [CB]-CG--CD-[NE2] |==|  0.22193
ROOT
ATOM      1  CA  LYS B   4      37.668  48.474   9.973  1.00 30.17 LIG 0.18  C 
ENDROOT
BRANCH 1 2
ATOM      2  N   LYS B   4      38.249  48.955   8.735  1.00 25.68 LIG-0.35  N 
ATOM      3 H    LYS B   4      38.329  49.811   8.696  1.00 25.68 LIG 0.16  HD
ATOM      4  C   THR B   3      38.622  48.135   7.746  1.00 23.58 LIG 0.24  C 
ATOM      5 O    THR B   3      38.529  46.903   7.806  1.00 24.56 LIG-0.27  OA
BRANCH 4 6
ATOM      6  CA  THR B   3      39.173  48.798   6.482  1.00 21.46 LIG 0.20  C 
BRANCH 6 7
ATOM      7  N   THR B   3      39.709  50.114   6.760  1.00 21.22 LIG-0.34  N 
ATOM      8 H    THR B   3      39.308  50.748   6.339  1.00 21.22 LIG 0.16  HD
ATOM      9  C   ARG B   2      40.715  50.314   7.578  1.00 21.22 LIG 0.24  C 
ATOM     10 O    ARG B   2      41.271  49.415   8.153  1.00 22.30 LIG-0.27  OA
BRANCH 9 11
ATOM     11  CA  ARG B   2      41.135  51.777   7.789  1.00 22.28 LIG 0.18  C 
BRANCH 11 12
ATOM     12  CB  ARG B   2      40.957  52.229   9.241  1.00 24.95 LIG 0.04  C 
BRANCH 12 13
ATOM     13  CG  ARG B   2      41.396  53.632   9.601  1.00 25.01 LIG 0.02  C 
BRANCH 13 14
ATOM     14  CD  ARG B   2      40.205  54.595   9.430  1.00 28.81 LIG 0.14  C 
BRANCH 14 15
ATOM     15  NE  ARG B   2      40.558  56.014   9.377  1.00 31.55 LIG-0.23  N 
ATOM     16 HE   ARG B   2      41.012  56.333  10.034  1.00 31.55 LIG 0.18  HD
ATOM     17  CZ  ARG B   2      40.230  56.860   8.390  1.00 33.58 LIG 0.67  C 
ATOM     18  NH2 ARG B   2      39.588  56.437   7.307  1.00 33.13 LIG-0.23  N 
ATOM     19  NH1 ARG B   2      40.568  58.131   8.471  1.00 37.12 LIG-0.23  N 
ATOM     20 1HH2 ARG B   2      39.375  55.607   7.230  1.00 33.13 LIG 0.17  HD
ATOM     21 2HH2 ARG B   2      39.386  56.993   6.683  1.00 33.13 LIG 0.17  HD
ATOM     22 2HH1 ARG B   2      40.357  58.673   7.837  1.00 37.12 LIG 0.17  HD
ATOM     23 1HH1 ARG B   2      40.999  58.418   9.157  1.00 37.12 LIG 0.17  HD
ENDBRANCH 14 15
ENDBRANCH 13 14
ENDBRANCH 12 13
ENDBRANCH 11 12
BRANCH 11 24
ATOM     24  N   ARG B   2      40.304  52.631   6.962  1.00 22.27 LIG-0.35  N 
ATOM     25  C   ALA B   1      40.752  53.055   5.791  1.00 22.85 LIG 0.25  C 
ATOM     26 O    ALA B   1      41.872  52.747   5.366  1.00 22.62 LIG-0.27  OA
ATOM     27 H    ARG B   2      39.533  52.824   7.292  1.00 22.27 LIG 0.16  HD
BRANCH 25 28
ATOM     28  CA  ALA B   1      39.813  53.981   5.000  1.00 23.76 LIG 0.27  C 
ATOM     29  CB  ALA B   1      38.437  53.355   4.808  1.00 24.39 LIG 0.05  C 
BRANCH 28 30
ATOM     30  N   ALA B   1      40.370  54.369   3.709  1.00 25.03 LIG-0.07  N 
ATOM     31 H1   ALA B   1      41.027  54.957   3.834  1.00 25.03 LIG 0.28  HD
ATOM     32 H3   ALA B   1      39.732  54.737   3.209  1.00 25.03 LIG 0.28  HD
ATOM     33 H2   ALA B   1      40.691  53.649   3.296  1.00 25.03 LIG 0.28  HD
ENDBRANCH 28 30
ENDBRANCH 25 28
ENDBRANCH 11 24
ENDBRANCH 9 11
ENDBRANCH 6 7
BRANCH 6 34
ATOM     34  CB  THR B   3      40.234  47.908   5.844  1.00 21.53 LIG 0.15  C 
ATOM     35  CG2 THR B   3      39.624  46.813   5.060  1.00 22.92 LIG 0.04  C 
BRANCH 34 36
ATOM     36 OG1  THR B   3      41.031  48.714   4.988  1.00 22.47 LIG-0.39  OA
ATOM     37 HG1  THR B   3      41.545  49.191   5.450  1.00 22.47 LIG 0.21  HD
ENDBRANCH 34 36
ENDBRANCH 6 34
ENDBRANCH 4 6
ENDBRANCH 1 2
BRANCH 1 38
ATOM     38  CB  LYS B   4      38.761  48.143  10.955  1.00 32.55 LIG 0.04  C 
BRANCH 38 39
ATOM     39  CG  LYS B   4      38.673  46.741  11.488  1.00 30.49 LIG 0.00  C 
BRANCH 39 40
ATOM     40  CD  LYS B   4      37.788  46.705  12.734  1.00 34.18 LIG 0.03  C 
BRANCH 40 41
ATOM     41  CE  LYS B   4      38.634  46.670  13.996  1.00 33.34 LIG 0.23  C 
BRANCH 41 42
ATOM     42  NZ  LYS B   4      39.968  46.047  13.804  1.00 36.76 LIG-0.08  N 
ATOM     43 HZ1  LYS B   4      40.166  45.545  14.512  1.00 36.76 LIG 0.27  HD
ATOM     44 HZ2  LYS B   4      39.956  45.538  13.075  1.00 36.76 LIG 0.27  HD
ATOM     45 HZ3  LYS B   4      40.582  46.684  13.710  1.00 36.76 LIG 0.27  HD
ENDBRANCH 41 42
ENDBRANCH 40 41
ENDBRANCH 39 40
ENDBRANCH 38 39
ENDBRANCH 1 38
BRANCH 1 46
ATOM     46  C   LYS B   4      36.763  49.523  10.549  1.00 34.41 LIG 0.24  C 
ATOM     47  N   GLN B   5      36.412  49.385  11.820  1.00 39.81 LIG-0.35  N 
ATOM     48 H    GLN B   5      36.714  48.782  12.354  1.00 39.81 LIG 0.16  HD
ATOM     49 O    LYS B   4      36.394  50.479   9.837  1.00 33.27 LIG-0.27  OA
BRANCH 47 50
ATOM     50  CA  GLN B   5      35.440  50.311  12.400  1.00 46.50 LIG 0.18  C 
BRANCH 50 51
ATOM     51  C   GLN B   5      35.473  50.304  13.930  1.00 52.91 LIG 0.24  C 
ATOM     52  N   THR B   6      36.533  49.699  14.482  1.00 59.38 LIG-0.34  N 
ATOM     53 H    THR B   6      37.226  49.471  14.027  1.00 59.38 LIG 0.16  HD
ATOM     54 O    GLN B   5      34.546  50.769  14.575  1.00 55.19 LIG-0.27  OA
BRANCH 52 55
ATOM     55  CA  THR B   6      36.640  49.348  15.937  1.00 66.40 LIG 0.20  C 
BRANCH 55 56
ATOM     56  CB  THR B   6      36.503  50.597  16.875  1.00 64.05 LIG 0.15  C 
ATOM     57  CG2 THR B   6      37.192  50.345  18.212  1.00 70.60 LIG 0.04  C 
BRANCH 56 58
ATOM     58 OG1  THR B   6      37.061  51.776  16.271  1.00 62.34 LIG-0.39  OA
ATOM     59 HG1  THR B   6      37.342  52.293  16.871  1.00 62.34 LIG 0.21  HD
ENDBRANCH 56 58
ENDBRANCH 55 56
BRANCH 55 60
ATOM     60  C   THR B   6      35.544  48.346  16.403  1.00 68.19 LIG 0.24  C 
ATOM     61 O    THR B   6      34.335  48.570  16.172  1.00 63.20 LIG-0.27  OA
ATOM     62  N   ALA B   7      35.964  47.267  17.070  1.00 78.65 LIG-0.35  N 
ATOM     63 H    ALA B   7      36.792  47.045  17.141  1.00 78.65 LIG 0.16  HD
BRANCH 62 64
ATOM     64  CA  ALA B   7      35.041  46.353  17.749  1.00 81.14 LIG 0.16  C 
ATOM     65  CB  ALA B   7      34.081  47.130  18.654  1.00 91.84 LIG 0.04  C 
BRANCH 64 66
ATOM     66  C   ALA B   7      34.252  45.529  16.718  1.00 81.58 LIG 0.22  C 
ATOM     67 O    ALA B   7      34.368  45.738  15.507  1.00 77.41 LIG-0.29  OA
ENDBRANCH 64 66
ENDBRANCH 62 64
ENDBRANCH 55 60
ENDBRANCH 52 55
ENDBRANCH 50 51
BRANCH 50 68
ATOM     68  CB  GLN B   5      34.011  50.123  11.860  1.00 52.07 LIG 0.04  C 
BRANCH 68 69
ATOM     69  CG  GLN B   5      33.537  48.720  11.563  1.00 55.77 LIG 0.10  C 
BRANCH 69 70
ATOM     70  CD  GLN B   5      32.573  48.703  10.386  1.00 63.27 LIG 0.21  C 
ATOM     71  NE2 GLN B   5      33.119  48.755   9.186  1.00 63.75 LIG-0.37  N 
ATOM     72 21HE GLN B   5      33.974  48.787   9.104  1.00 63.75 LIG 0.16  HD
ATOM     73 22HE GLN B   5      32.619  48.756   8.486  1.00 63.75 LIG 0.16  HD
ATOM     74 OE1  GLN B   5      31.371  48.656  10.551  1.00 68.43 LIG-0.27  OA
ENDBRANCH 69 70
ENDBRANCH 68 69
ENDBRANCH 50 68
ENDBRANCH 47 50
ENDBRANCH 1 46
TORSDOF 30
ENDMDL
MODEL 32
USER: ADFR SOLUTION from run 27
USER: SCORE 22.703076 LL:  -4.981 LR: -20.316 RR:   0.000 FEB: -11.367
USER: RMSD 5.422803
USER: SEED 26
USER: STATUS no improvement in best in 2 clusters for 5 generations
USER: GENES 32
USER: genes 0 Translation |==|  0.69463 0.50022 0.42836
USER: genes 1 Rotation |==|  0.37838 0.38865 0.26921 0.91176
USER: genes 2 Torsion [C]-CA--N-[C] |==|  0.63446
USER: genes 3 Torsion [N]-C--CA-[N] |==|  0.36153
USER: genes 4 Torsion [C]-CA--N-[C] |==|  0.66275
USER: genes 5 Torsion [N]-C--CA-[N] |==|  0.87732
USER: genes 6 Torsion [C]-CA--CB-[CG] |==|  0.46194
USER: genes 7 Torsion [CA]-CB--CG-[CD] |==|  0.64259
USER: genes 8 Torsion [CB]-CG--CD-[NE] |==|  0.68039
USER: genes 9 Torsion [CG]-CD--NE-[CZ] |==|  0.31237
USER: genes 10 Torsion [C]-CA--N-[C] |==|  0.79481
USER: genes 11 Torsion [N]-C--CA-[N] |==|  0.09496
USER: genes 12 Torsion [C]-CA--N-[H1] |==|  0.87347
USER: genes 13 Torsion [C]-CA--CB-[CG2] |==|  0.41785
USER: genes 14 Torsion [CA]-CB--OG1-[HG1] |==|  0.39068
USER: genes 15 Torsion [N]-CA--CB-[CG] |==|  0.46439
USER: genes 16 Torsion [CA]-CB--CG-[CD] |==|  0.64832
USER: genes 17 Torsion [CB]-CG--CD-[CE] |==|  0.71878
USER: genes 18 Torsion [CG]-CD--CE-[NZ] |==|  0.72793
USER: genes 19 Torsion [CD]-CE--NZ-[HZ1] |==|  0.11237
USER: genes 20 Torsion [N]-CA--C-[N] |==|  0.94177
USER: genes 21 Torsion [C]-N--CA-[CB] |==|  0.26805
USER: genes 22 Torsion [N]-CA--C-[N] |==|  0.15099
USER: genes 23 Torsion [C]-N--CA-[CB] |==|  0.85475
USER: genes 24 Torsion [N]-CA--CB-[CG2] |==|  0.47691
USER: genes 25 Torsion [CA]-CB--OG1-[HG1] |==|  0.95353
USER: genes 26 Torsion [N]-CA--C-[N] |==|  0.94685
USER: genes 27 Torsion [C]-N--CA-[CB] |==|  0.26538
USER: genes 28 Torsion [N]-CA--C-[O] |==|  0.89512
USER: genes 29 Torsion [N]-CA--CB-[CG] |==|  0.69935
USER: genes 30 Torsion [CA]-CB--CG-[CD] |==|  0.85313
USER: genes 31 Torsion [CB]-CG--CD-[NE2] |==|  0.24419
ROOT
ATOM      1  CA  LYS B   4      38.895  55.124   9.092  1.00 30.17 LIG 0.18  C 
ENDROOT
BRANCH 1 2
ATOM      2  N   LYS B   4      37.986  54.526  10.050  1.00 25.68 LIG-0.35  N 
ATOM      3 H    LYS B   4      37.156  54.599   9.836  1.00 25.68 LIG 0.16  HD
ATOM      4  C   THR B   3      38.410  53.919  11.164  1.00 23.58 LIG 0.24  C 
ATOM      5 O    THR B   3      39.603  53.792  11.465  1.00 24.56 LIG-0.27  OA
BRANCH 4 6
ATOM      6  CA  THR B   3      37.326  53.380  12.100  1.00 21.46 LIG 0.20  C 
BRANCH 6 7
ATOM      7  N   THR B   3      37.578  52.004  12.472  1.00 21.22 LIG-0.34  N 
ATOM      8 H    THR B   3      38.334  51.882  12.863  1.00 21.22 LIG 0.16  HD
ATOM      9  C   ARG B   2      36.726  51.035  12.231  1.00 21.22 LIG 0.24  C 
ATOM     10 O    ARG B   2      35.675  51.221  11.676  1.00 22.30 LIG-0.27  OA
BRANCH 9 11
ATOM     11  CA  ARG B   2      37.132  49.638  12.725  1.00 22.28 LIG 0.18  C 
BRANCH 11 12
ATOM     12  CB  ARG B   2      36.987  49.492  14.243  1.00 24.95 LIG 0.04  C 
BRANCH 12 13
ATOM     13  CG  ARG B   2      37.044  48.098  14.826  1.00 25.01 LIG 0.02  C 
BRANCH 13 14
ATOM     14  CD  ARG B   2      35.821  47.879  15.738  1.00 28.81 LIG 0.14  C 
BRANCH 14 15
ATOM     15  NE  ARG B   2      36.130  47.687  17.155  1.00 31.55 LIG-0.23  N 
ATOM     16 HE   ARG B   2      36.545  46.967  17.375  1.00 31.55 LIG 0.18  HD
ATOM     17  CZ  ARG B   2      35.820  48.543  18.140  1.00 33.58 LIG 0.67  C 
ATOM     18  NH2 ARG B   2      35.241  49.709  17.881  1.00 33.13 LIG-0.23  N 
ATOM     19  NH1 ARG B   2      36.113  48.244  19.389  1.00 37.12 LIG-0.23  N 
ATOM     20 1HH2 ARG B   2      35.058  49.928  17.070  1.00 33.13 LIG 0.17  HD
ATOM     21 2HH2 ARG B   2      35.049  50.246  18.526  1.00 33.13 LIG 0.17  HD
ATOM     22 2HH1 ARG B   2      35.914  48.793  20.021  1.00 37.12 LIG 0.17  HD
ATOM     23 1HH1 ARG B   2      36.504  47.500  19.573  1.00 37.12 LIG 0.17  HD
ENDBRANCH 14 15
ENDBRANCH 13 14
ENDBRANCH 12 13
ENDBRANCH 11 12
BRANCH 11 24
ATOM     24  N   ARG B   2      38.527  49.408  12.398  1.00 22.27 LIG-0.35  N 
ATOM     25  C   ALA B   1      38.879  49.163  11.146  1.00 22.85 LIG 0.25  C 
ATOM     26 O    ALA B   1      38.052  49.121  10.227  1.00 22.62 LIG-0.27  OA
ATOM     27 H    ARG B   2      39.071  49.445  13.063  1.00 22.27 LIG 0.16  HD
BRANCH 25 28
ATOM     28  CA  ALA B   1      40.374  48.901  10.901  1.00 23.76 LIG 0.27  C 
ATOM     29  CB  ALA B   1      40.605  48.134   9.604  1.00 24.39 LIG 0.05  C 
BRANCH 28 30
ATOM     30  N   ALA B   1      41.007  48.202  12.013  1.00 25.03 LIG-0.07  N 
ATOM     31 H1   ALA B   1      40.757  48.577  12.780  1.00 25.03 LIG 0.28  HD
ATOM     32 H3   ALA B   1      41.892  48.253  11.931  1.00 25.03 LIG 0.28  HD
ATOM     33 H2   ALA B   1      40.759  47.347  12.006  1.00 25.03 LIG 0.28  HD
ENDBRANCH 28 30
ENDBRANCH 25 28
ENDBRANCH 11 24
ENDBRANCH 9 11
ENDBRANCH 6 7
BRANCH 6 34
ATOM     34  CB  THR B   3      37.219  54.262  13.340  1.00 21.53 LIG 0.15  C 
ATOM     35  CG2 THR B   3      35.847  54.259  13.890  1.00 22.92 LIG 0.04  C 
BRANCH 34 36
ATOM     36 OG1  THR B   3      38.121  53.763  14.317  1.00 22.47 LIG-0.39  OA
ATOM     37 HG1  THR B   3      38.487  54.406  14.714  1.00 22.47 LIG 0.21  HD
ENDBRANCH 34 36
ENDBRANCH 6 34
ENDBRANCH 4 6
ENDBRANCH 1 2
BRANCH 1 38
ATOM     38  CB  LYS B   4      38.955  54.278   7.847  1.00 32.55 LIG 0.04  C 
BRANCH 38 39
ATOM     39  CG  LYS B   4      39.624  54.969   6.694  1.00 30.49 LIG 0.00  C 
BRANCH 39 40
ATOM     40  CD  LYS B   4      38.716  54.944   5.464  1.00 34.18 LIG 0.03  C 
BRANCH 40 41
ATOM     41  CE  LYS B   4      39.154  53.863   4.490  1.00 33.34 LIG 0.23  C 
BRANCH 41 42
ATOM     42  NZ  LYS B   4      39.995  54.369   3.376  1.00 36.76 LIG-0.08  N 
ATOM     43 HZ1  LYS B   4      40.568  54.974   3.687  1.00 36.76 LIG 0.27  HD
ATOM     44 HZ2  LYS B   4      40.447  53.693   3.013  1.00 36.76 LIG 0.27  HD
ATOM     45 HZ3  LYS B   4      39.475  54.743   2.758  1.00 36.76 LIG 0.27  HD
ENDBRANCH 41 42
ENDBRANCH 40 41
ENDBRANCH 39 40
ENDBRANCH 38 39
ENDBRANCH 1 38
BRANCH 1 46
ATOM     46  C   LYS B   4      38.429  56.509   8.748  1.00 34.41 LIG 0.24  C 
ATOM     47  N   GLN B   5      37.154  56.789   8.977  1.00 39.81 LIG-0.35  N 
ATOM     48 H    GLN B   5      36.593  56.264   9.365  1.00 39.81 LIG 0.16  HD
ATOM     49 O    LYS B   4      39.241  57.338   8.289  1.00 33.27 LIG-0.27  OA
BRANCH 47 50
ATOM     50  CA  GLN B   5      36.617  58.082   8.554  1.00 46.50 LIG 0.18  C 
BRANCH 50 51
ATOM     51  C   GLN B   5      35.742  58.728   9.632  1.00 52.91 LIG 0.24  C 
ATOM     52  N   THR B   6      36.316  58.870  10.833  1.00 59.38 LIG-0.34  N 
ATOM     53 H    THR B   6      37.160  58.760  10.960  1.00 59.38 LIG 0.16  HD
ATOM     54 O    GLN B   5      34.580  59.020   9.396  1.00 55.19 LIG-0.27  OA
BRANCH 52 55
ATOM     55  CA  THR B   6      35.571  59.230  12.085  1.00 66.40 LIG 0.20  C 
BRANCH 55 56
ATOM     56  CB  THR B   6      34.689  60.516  11.920  1.00 64.05 LIG 0.15  C 
ATOM     57  CG2 THR B   6      33.802  60.721  13.143  1.00 70.60 LIG 0.04  C 
BRANCH 56 58
ATOM     58 OG1  THR B   6      35.497  61.689  11.721  1.00 62.34 LIG-0.39  OA
ATOM     59 HG1  THR B   6      36.289  61.526  11.952  1.00 62.34 LIG 0.21  HD
ENDBRANCH 56 58
ENDBRANCH 55 56
BRANCH 55 60
ATOM     60  C   THR B   6      34.601  58.109  12.559  1.00 68.19 LIG 0.24  C 
ATOM     61 O    THR B   6      34.198  58.073  13.742  1.00 63.20 LIG-0.27  OA
ATOM     62  N   ALA B   7      34.251  57.195  11.648  1.00 78.65 LIG-0.35  N 
ATOM     63 H    ALA B   7      34.431  57.267  10.810  1.00 78.65 LIG 0.16  HD
BRANCH 62 64
ATOM     64  CA  ALA B   7      33.521  55.974  12.000  1.00 81.14 LIG 0.16  C 
ATOM     65  CB  ALA B   7      32.017  56.166  11.789  1.00 91.84 LIG 0.04  C 
BRANCH 64 66
ATOM     66  C   ALA B   7      34.029  54.789  11.162  1.00 81.58 LIG 0.22  C 
ATOM     67 O    ALA B   7      34.346  54.931   9.978  1.00 77.41 LIG-0.29  OA
ENDBRANCH 64 66
ENDBRANCH 62 64
ENDBRANCH 55 60
ENDBRANCH 52 55
ENDBRANCH 50 51
BRANCH 50 68
ATOM     68  CB  GLN B   5      35.904  58.038   7.192  1.00 52.07 LIG 0.04  C 
BRANCH 68 69
ATOM     69  CG  GLN B   5      36.581  58.687   6.008  1.00 55.77 LIG 0.10  C 
BRANCH 69 70
ATOM     70  CD  GLN B   5      36.967  60.127   6.317  1.00 63.27 LIG 0.21  C 
ATOM     71  NE2 GLN B   5      38.149  60.306   6.874  1.00 63.75 LIG-0.37  N 
ATOM     72 21HE GLN B   5      38.655  59.629   7.035  1.00 63.75 LIG 0.16  HD
ATOM     73 22HE GLN B   5      38.413  61.098   7.077  1.00 63.75 LIG 0.16  HD
ATOM     74 OE1  GLN B   5      36.218  61.051   6.071  1.00 68.43 LIG-0.27  OA
ENDBRANCH 69 70
ENDBRANCH 68 69
ENDBRANCH 50 68
ENDBRANCH 47 50
ENDBRANCH 1 46
TORSDOF 30
ENDMDL
MODEL 33
USER: ADFR SOLUTION from run 146
USER: SCORE 22.892329 LL:  -4.210 LR: -20.316 RR:   0.000 FEB: -11.367
USER: RMSD 7.076842
USER: SEED 145
USER: STATUS searching
USER: GENES 32
USER: genes 0 Translation |==|  0.71226 0.44554 0.48258
USER: genes 1 Rotation |==|  0.33390 0.26832 0.29990 0.85875
USER: genes 2 Torsion [C]-CA--N-[C] |==|  0.53725
USER: genes 3 Torsion [N]-C--CA-[N] |==|  0.35711
USER: genes 4 Torsion [C]-CA--N-[C] |==|  0.79176
USER: genes 5 Torsion [N]-C--CA-[N] |==|  0.66764
USER: genes 6 Torsion [C]-CA--CB-[CG] |==|  0.54024
USER: genes 7 Torsion [CA]-CB--CG-[CD] |==|  0.42261
USER: genes 8 Torsion [CB]-CG--CD-[NE] |==|  0.30790
USER: genes 9 Torsion [CG]-CD--NE-[CZ] |==|  0.73269
USER: genes 10 Torsion [C]-CA--N-[C] |==|  0.12403
USER: genes 11 Torsion [N]-C--CA-[N] |==|  0.80897
USER: genes 12 Torsion [C]-CA--N-[H1] |==|  0.10777
USER: genes 13 Torsion [C]-CA--CB-[CG2] |==|  0.54404
USER: genes 14 Torsion [CA]-CB--OG1-[HG1] |==|  0.38030
USER: genes 15 Torsion [N]-CA--CB-[CG] |==|  0.60486
USER: genes 16 Torsion [CA]-CB--CG-[CD] |==|  0.44429
USER: genes 17 Torsion [CB]-CG--CD-[CE] |==|  0.88522
USER: genes 18 Torsion [CG]-CD--CE-[NZ] |==|  0.80530
USER: genes 19 Torsion [CD]-CE--NZ-[HZ1] |==|  0.38974
USER: genes 20 Torsion [N]-CA--C-[N] |==|  0.44914
USER: genes 21 Torsion [C]-N--CA-[CB] |==|  0.78191
USER: genes 22 Torsion [N]-CA--C-[N] |==|  0.53889
USER: genes 23 Torsion [C]-N--CA-[CB] |==|  0.53917
USER: genes 24 Torsion [N]-CA--CB-[CG2] |==|  0.55280
USER: genes 25 Torsion [CA]-CB--OG1-[HG1] |==|  0.06653
USER: genes 26 Torsion [N]-CA--C-[N] |==|  0.43819
USER: genes 27 Torsion [C]-N--CA-[CB] |==|  0.18648
USER: genes 28 Torsion [N]-CA--C-[O] |==|  0.78936
USER: genes 29 Torsion [N]-CA--CB-[CG] |==|  0.02788
USER: genes 30 Torsion [CA]-CB--CG-[CD] |==|  0.72434
USER: genes 31 Torsion [CB]-CG--CD-[NE2] |==|  0.82745
ROOT
ATOM      1  CA  LYS B   4      39.305  53.894  10.393  1.00 30.17 LIG 0.18  C 
ENDROOT
BRANCH 1 2
ATOM      2  N   LYS B   4      38.128  53.619  11.195  1.00 25.68 LIG-0.35  N 
ATOM      3 H    LYS B   4      37.398  53.924  10.859  1.00 25.68 LIG 0.16  HD
ATOM      4  C   THR B   3      38.184  52.949  12.351  1.00 23.58 LIG 0.24  C 
ATOM      5 O    THR B   3      39.229  52.489  12.827  1.00 24.56 LIG-0.27  OA
BRANCH 4 6
ATOM      6  CA  THR B   3      36.864  52.781  13.106  1.00 21.46 LIG 0.20  C 
BRANCH 6 7
ATOM      7  N   THR B   3      36.624  51.398  13.460  1.00 21.22 LIG-0.34  N 
ATOM      8 H    THR B   3      36.753  51.225  14.293  1.00 21.22 LIG 0.16  HD
ATOM      9  C   ARG B   2      36.244  50.496  12.587  1.00 21.22 LIG 0.24  C 
ATOM     10 O    ARG B   2      36.074  50.753  11.423  1.00 22.30 LIG-0.27  OA
BRANCH 9 11
ATOM     11  CA  ARG B   2      35.997  49.083  13.137  1.00 22.28 LIG 0.18  C 
BRANCH 11 12
ATOM     12  CB  ARG B   2      36.265  48.990  14.642  1.00 24.95 LIG 0.04  C 
BRANCH 12 13
ATOM     13  CG  ARG B   2      36.389  47.611  15.252  1.00 25.01 LIG 0.02  C 
BRANCH 13 14
ATOM     14  CD  ARG B   2      37.299  47.685  16.493  1.00 28.81 LIG 0.14  C 
BRANCH 14 15
ATOM     15  NE  ARG B   2      36.621  47.477  17.773  1.00 31.55 LIG-0.23  N 
ATOM     16 HE   ARG B   2      36.497  46.664  18.027  1.00 31.55 LIG 0.18  HD
ATOM     17  CZ  ARG B   2      36.176  48.448  18.583  1.00 33.58 LIG 0.67  C 
ATOM     18  NH2 ARG B   2      36.386  49.728  18.302  1.00 33.13 LIG-0.23  N 
ATOM     19  NH1 ARG B   2      35.542  48.139  19.696  1.00 37.12 LIG-0.23  N 
ATOM     20 1HH2 ARG B   2      36.814  49.948  17.589  1.00 33.13 LIG 0.17  HD
ATOM     21 2HH2 ARG B   2      36.094  50.339  18.833  1.00 33.13 LIG 0.17  HD
ATOM     22 2HH1 ARG B   2      35.256  48.763  20.216  1.00 37.12 LIG 0.17  HD
ATOM     23 1HH1 ARG B   2      35.413  47.314  19.903  1.00 37.12 LIG 0.17  HD
ENDBRANCH 14 15
ENDBRANCH 13 14
ENDBRANCH 12 13
ENDBRANCH 11 12
BRANCH 11 24
ATOM     24  N   ARG B   2      36.896  48.155  12.476  1.00 22.27 LIG-0.35  N 
ATOM     25  C   ALA B   1      38.169  48.474  12.313  1.00 22.85 LIG 0.25  C 
ATOM     26 O    ALA B   1      38.633  49.551  12.707  1.00 22.62 LIG-0.27  OA
ATOM     27 H    ARG B   2      36.536  47.418  12.217  1.00 22.27 LIG 0.16  HD
BRANCH 25 28
ATOM     28  CA  ALA B   1      39.038  47.442  11.574  1.00 23.76 LIG 0.27  C 
ATOM     29  CB  ALA B   1      38.457  47.096  10.208  1.00 24.39 LIG 0.05  C 
BRANCH 28 30
ATOM     30  N   ALA B   1      39.243  46.226  12.352  1.00 25.03 LIG-0.07  N 
ATOM     31 H1   ALA B   1      38.491  46.018  12.781  1.00 25.03 LIG 0.28  HD
ATOM     32 H3   ALA B   1      39.895  46.359  12.943  1.00 25.03 LIG 0.28  HD
ATOM     33 H2   ALA B   1      39.467  45.559  11.807  1.00 25.03 LIG 0.28  HD
ENDBRANCH 28 30
ENDBRANCH 25 28
ENDBRANCH 11 24
ENDBRANCH 9 11
ENDBRANCH 6 7
BRANCH 6 34
ATOM     34  CB  THR B   3      36.853  53.665  14.348  1.00 21.53 LIG 0.15  C 
ATOM     35  CG2 THR B   3      35.787  53.264  15.290  1.00 22.92 LIG 0.04  C 
BRANCH 34 36
ATOM     36 OG1  THR B   3      38.117  53.547  14.986  1.00 22.47 LIG-0.39  OA
ATOM     37 HG1  THR B   3      38.380  54.306  15.229  1.00 22.47 LIG 0.21  HD
ENDBRANCH 34 36
ENDBRANCH 6 34
ENDBRANCH 4 6
ENDBRANCH 1 2
BRANCH 1 38
ATOM     38  CB  LYS B   4      39.782  52.626   9.734  1.00 32.55 LIG 0.04  C 
BRANCH 38 39
ATOM     39  CG  LYS B   4      41.280  52.519   9.674  1.00 30.49 LIG 0.00  C 
BRANCH 39 40
ATOM     40  CD  LYS B   4      41.696  51.062   9.471  1.00 34.18 LIG 0.03  C 
BRANCH 40 41
ATOM     41  CE  LYS B   4      40.846  50.133  10.323  1.00 33.34 LIG 0.23  C 
BRANCH 41 42
ATOM     42  NZ  LYS B   4      41.120  50.240  11.778  1.00 36.76 LIG-0.08  N 
ATOM     43 HZ1  LYS B   4      40.354  50.191  12.229  1.00 36.76 LIG 0.27  HD
ATOM     44 HZ2  LYS B   4      41.654  49.574  12.030  1.00 36.76 LIG 0.27  HD
ATOM     45 HZ3  LYS B   4      41.516  51.018  11.950  1.00 36.76 LIG 0.27  HD
ENDBRANCH 41 42
ENDBRANCH 40 41
ENDBRANCH 39 40
ENDBRANCH 38 39
ENDBRANCH 1 38
BRANCH 1 46
ATOM     46  C   LYS B   4      38.977  54.922   9.350  1.00 34.41 LIG 0.24  C 
ATOM     47  N   GLN B   5      39.997  55.555   8.787  1.00 39.81 LIG-0.35  N 
ATOM     48 H    GLN B   5      40.827  55.377   8.925  1.00 39.81 LIG 0.16  HD
ATOM     49 O    LYS B   4      37.787  55.128   9.038  1.00 33.27 LIG-0.27  OA
BRANCH 47 50
ATOM     50  CA  GLN B   5      39.733  56.647   7.850  1.00 46.50 LIG 0.18  C 
BRANCH 50 51
ATOM     51  C   GLN B   5      38.738  57.666   8.413  1.00 52.91 LIG 0.24  C 
ATOM     52  N   THR B   6      38.225  58.524   7.522  1.00 59.38 LIG-0.34  N 
ATOM     53 H    THR B   6      38.315  58.420   6.673  1.00 59.38 LIG 0.16  HD
ATOM     54 O    GLN B   5      38.502  57.708   9.610  1.00 55.19 LIG-0.27  OA
BRANCH 52 55
ATOM     55  CA  THR B   6      37.446  59.753   7.889  1.00 66.40 LIG 0.20  C 
BRANCH 55 56
ATOM     56  CB  THR B   6      36.677  60.372   6.671  1.00 64.05 LIG 0.15  C 
ATOM     57  CG2 THR B   6      36.300  61.822   6.952  1.00 70.60 LIG 0.04  C 
BRANCH 56 58
ATOM     58 OG1  THR B   6      37.460  60.312   5.466  1.00 62.34 LIG-0.39  OA
ATOM     59 HG1  THR B   6      38.024  59.693   5.529  1.00 62.34 LIG 0.21  HD
ENDBRANCH 56 58
ENDBRANCH 55 56
BRANCH 55 60
ATOM     60  C   THR B   6      36.367  59.486   8.979  1.00 68.19 LIG 0.24  C 
ATOM     61 O    THR B   6      35.909  58.336   9.153  1.00 63.20 LIG-0.27  OA
ATOM     62  N   ALA B   7      35.956  60.543   9.686  1.00 78.65 LIG-0.35  N 
ATOM     63 H    ALA B   7      36.337  61.313   9.654  1.00 78.65 LIG 0.16  HD
BRANCH 62 64
ATOM     64  CA  ALA B   7      34.805  60.484  10.592  1.00 81.14 LIG 0.16  C 
ATOM     65  CB  ALA B   7      35.105  59.573  11.785  1.00 91.84 LIG 0.04  C 
BRANCH 64 66
ATOM     66  C   ALA B   7      34.435  61.894  11.077  1.00 81.58 LIG 0.22  C 
ATOM     67 O    ALA B   7      35.107  62.473  11.936  1.00 77.41 LIG-0.29  OA
ENDBRANCH 64 66
ENDBRANCH 62 64
ENDBRANCH 55 60
ENDBRANCH 52 55
ENDBRANCH 50 51
BRANCH 50 68
ATOM     68  CB  GLN B   5      39.329  56.170   6.445  1.00 52.07 LIG 0.04  C 
BRANCH 68 69
ATOM     69  CG  GLN B   5      39.024  54.705   6.247  1.00 55.77 LIG 0.10  C 
BRANCH 69 70
ATOM     70  CD  GLN B   5      40.216  53.972   5.647  1.00 63.27 LIG 0.21  C 
ATOM     71  NE2 GLN B   5      40.601  54.369   4.449  1.00 63.75 LIG-0.37  N 
ATOM     72 21HE GLN B   5      40.188  55.014   4.057  1.00 63.75 LIG 0.16  HD
ATOM     73 22HE GLN B   5      41.264  53.984   4.062  1.00 63.75 LIG 0.16  HD
ATOM     74 OE1  GLN B   5      40.768  53.067   6.240  1.00 68.43 LIG-0.27  OA
ENDBRANCH 69 70
ENDBRANCH 68 69
ENDBRANCH 50 68
ENDBRANCH 47 50
ENDBRANCH 1 46
TORSDOF 30
ENDMDL
MODEL 34
USER: ADFR SOLUTION from run 115
USER: SCORE 22.710835 LL:  -4.223 LR: -20.316 RR:   0.000 FEB: -11.367
USER: RMSD 9.495190
USER: SEED 114
USER: STATUS 1 or 2 clusters left
USER: GENES 32
USER: genes 0 Translation |==|  0.64532 0.17022 0.50076
USER: genes 1 Rotation |==|  0.17668 0.75615 0.76169 0.60662
USER: genes 2 Torsion [C]-CA--N-[C] |==|  0.80116
USER: genes 3 Torsion [N]-C--CA-[N] |==|  0.55222
USER: genes 4 Torsion [C]-CA--N-[C] |==|  0.63672
USER: genes 5 Torsion [N]-C--CA-[N] |==|  0.50797
USER: genes 6 Torsion [C]-CA--CB-[CG] |==|  0.54759
USER: genes 7 Torsion [CA]-CB--CG-[CD] |==|  0.24665
USER: genes 8 Torsion [CB]-CG--CD-[NE] |==|  0.46032
USER: genes 9 Torsion [CG]-CD--NE-[CZ] |==|  0.22683
USER: genes 10 Torsion [C]-CA--N-[C] |==|  0.75111
USER: genes 11 Torsion [N]-C--CA-[N] |==|  0.32573
USER: genes 12 Torsion [C]-CA--N-[H1] |==|  0.76204
USER: genes 13 Torsion [C]-CA--CB-[CG2] |==|  0.31844
USER: genes 14 Torsion [CA]-CB--OG1-[HG1] |==|  0.79048
USER: genes 15 Torsion [N]-CA--CB-[CG] |==|  0.33649
USER: genes 16 Torsion [CA]-CB--CG-[CD] |==|  0.71155
USER: genes 17 Torsion [CB]-CG--CD-[CE] |==|  0.09935
USER: genes 18 Torsion [CG]-CD--CE-[NZ] |==|  0.70611
USER: genes 19 Torsion [CD]-CE--NZ-[HZ1] |==|  0.15287
USER: genes 20 Torsion [N]-CA--C-[N] |==|  0.43967
USER: genes 21 Torsion [C]-N--CA-[CB] |==|  0.23958
USER: genes 22 Torsion [N]-CA--C-[N] |==|  0.87658
USER: genes 23 Torsion [C]-N--CA-[CB] |==|  0.85852
USER: genes 24 Torsion [N]-CA--CB-[CG2] |==|  0.56867
USER: genes 25 Torsion [CA]-CB--OG1-[HG1] |==|  0.50501
USER: genes 26 Torsion [N]-CA--C-[N] |==|  0.36156
USER: genes 27 Torsion [C]-N--CA-[CB] |==|  0.86644
USER: genes 28 Torsion [N]-CA--C-[O] |==|  0.93605
USER: genes 29 Torsion [N]-CA--CB-[CG] |==|  0.04281
USER: genes 30 Torsion [CA]-CB--CG-[CD] |==|  0.23365
USER: genes 31 Torsion [CB]-CG--CD-[NE2] |==|  0.09928
ROOT
ATOM      1  CA  LYS B   4      37.749  47.699  10.829  1.00 30.17 LIG 0.18  C 
ENDROOT
BRANCH 1 2
ATOM      2  N   LYS B   4      38.580  48.368   9.847  1.00 25.68 LIG-0.35  N 
ATOM      3 H    LYS B   4      39.414  48.164   9.899  1.00 25.68 LIG 0.16  HD
ATOM      4  C   THR B   3      38.085  49.223   8.946  1.00 23.58 LIG 0.24  C 
ATOM      5 O    THR B   3      36.883  49.503   8.854  1.00 24.56 LIG-0.27  OA
BRANCH 4 6
ATOM      6  CA  THR B   3      39.096  49.886   8.008  1.00 21.46 LIG 0.20  C 
BRANCH 6 7
ATOM      7  N   THR B   3      38.552  51.079   7.393  1.00 21.22 LIG-0.34  N 
ATOM      8 H    THR B   3      38.185  51.621   7.951  1.00 21.22 LIG 0.16  HD
ATOM      9  C   ARG B   2      38.615  51.305   6.102  1.00 21.22 LIG 0.24  C 
ATOM     10 O    ARG B   2      39.126  50.532   5.334  1.00 22.30 LIG-0.27  OA
BRANCH 9 11
ATOM     11  CA  ARG B   2      38.022  52.637   5.618  1.00 22.28 LIG 0.18  C 
BRANCH 11 12
ATOM     12  CB  ARG B   2      36.544  52.786   5.993  1.00 24.95 LIG 0.04  C 
BRANCH 12 13
ATOM     13  CG  ARG B   2      35.733  53.832   5.261  1.00 25.01 LIG 0.02  C 
BRANCH 13 14
ATOM     14  CD  ARG B   2      35.131  53.208   3.987  1.00 28.81 LIG 0.14  C 
BRANCH 14 15
ATOM     15  NE  ARG B   2      34.069  53.990   3.355  1.00 31.55 LIG-0.23  N 
ATOM     16 HE   ARG B   2      33.257  53.764   3.525  1.00 31.55 LIG 0.18  HD
ATOM     17  CZ  ARG B   2      34.257  55.031   2.531  1.00 33.58 LIG 0.67  C 
ATOM     18  NH2 ARG B   2      35.474  55.490   2.268  1.00 33.13 LIG-0.23  N 
ATOM     19  NH1 ARG B   2      33.220  55.636   1.986  1.00 37.12 LIG-0.23  N 
ATOM     20 1HH2 ARG B   2      36.161  55.119   2.628  1.00 33.13 LIG 0.17  HD
ATOM     21 2HH2 ARG B   2      35.576  56.159   1.737  1.00 33.13 LIG 0.17  HD
ATOM     22 2HH1 ARG B   2      33.341  56.304   1.457  1.00 37.12 LIG 0.17  HD
ATOM     23 1HH1 ARG B   2      32.423  55.363   2.159  1.00 37.12 LIG 0.17  HD
ENDBRANCH 14 15
ENDBRANCH 13 14
ENDBRANCH 12 13
ENDBRANCH 11 12
BRANCH 11 24
ATOM     24  N   ARG B   2      38.113  52.697   4.172  1.00 22.27 LIG-0.35  N 
ATOM     25  C   ALA B   1      39.191  53.208   3.599  1.00 22.85 LIG 0.25  C 
ATOM     26 O    ALA B   1      40.141  53.645   4.258  1.00 22.62 LIG-0.27  OA
ATOM     27 H    ARG B   2      37.432  52.384   3.749  1.00 22.27 LIG 0.16  HD
BRANCH 25 28
ATOM     28  CA  ALA B   1      39.182  53.258   2.062  1.00 23.76 LIG 0.27  C 
ATOM     29  CB  ALA B   1      40.310  52.423   1.467  1.00 24.39 LIG 0.05  C 
BRANCH 28 30
ATOM     30  N   ALA B   1      39.245  54.621   1.548  1.00 25.03 LIG-0.07  N 
ATOM     31 H1   ALA B   1      38.423  54.961   1.508  1.00 25.03 LIG 0.28  HD
ATOM     32 H3   ALA B   1      39.604  54.615   0.733  1.00 25.03 LIG 0.28  HD
ATOM     33 H2   ALA B   1      39.746  55.119   2.088  1.00 25.03 LIG 0.28  HD
ENDBRANCH 28 30
ENDBRANCH 25 28
ENDBRANCH 11 24
ENDBRANCH 9 11
ENDBRANCH 6 7
BRANCH 6 34
ATOM     34  CB  THR B   3      40.380  50.208   8.764  1.00 21.53 LIG 0.15  C 
ATOM     35  CG2 THR B   3      41.522  49.419   8.255  1.00 22.92 LIG 0.04  C 
BRANCH 34 36
ATOM     36 OG1  THR B   3      40.653  51.592   8.603  1.00 22.47 LIG-0.39  OA
ATOM     37 HG1  THR B   3      40.953  51.731   7.831  1.00 22.47 LIG 0.21  HD
ENDBRANCH 34 36
ENDBRANCH 6 34
ENDBRANCH 4 6
ENDBRANCH 1 2
BRANCH 1 38
ATOM     38  CB  LYS B   4      38.526  46.589  11.485  1.00 32.55 LIG 0.04  C 
BRANCH 38 39
ATOM     39  CG  LYS B   4      38.638  46.745  12.975  1.00 30.49 LIG 0.00  C 
BRANCH 39 40
ATOM     40  CD  LYS B   4      40.037  47.236  13.350  1.00 34.18 LIG 0.03  C 
BRANCH 40 41
ATOM     41  CE  LYS B   4      40.568  48.204  12.305  1.00 33.34 LIG 0.23  C 
BRANCH 41 42
ATOM     42  NZ  LYS B   4      41.617  47.621  11.431  1.00 36.76 LIG-0.08  N 
ATOM     43 HZ1  LYS B   4      41.309  46.878  11.052  1.00 36.76 LIG 0.27  HD
ATOM     44 HZ2  LYS B   4      41.836  48.207  10.798  1.00 36.76 LIG 0.27  HD
ATOM     45 HZ3  LYS B   4      42.337  47.429  11.918  1.00 36.76 LIG 0.27  HD
ENDBRANCH 41 42
ENDBRANCH 40 41
ENDBRANCH 39 40
ENDBRANCH 38 39
ENDBRANCH 1 38
BRANCH 1 46
ATOM     46  C   LYS B   4      37.294  48.687  11.864  1.00 34.41 LIG 0.24  C 
ATOM     47  N   GLN B   5      36.208  48.375  12.557  1.00 39.81 LIG-0.35  N 
ATOM     48 H    GLN B   5      35.785  47.628  12.507  1.00 39.81 LIG 0.16  HD
ATOM     49 O    LYS B   4      37.947  49.734  12.048  1.00 33.27 LIG-0.27  OA
BRANCH 47 50
ATOM     50  CA  GLN B   5      35.652  49.350  13.495  1.00 46.50 LIG 0.18  C 
BRANCH 50 51
ATOM     51  C   GLN B   5      35.039  48.684  14.730  1.00 52.91 LIG 0.24  C 
ATOM     52  N   THR B   6      34.274  47.612  14.488  1.00 59.38 LIG-0.34  N 
ATOM     53 H    THR B   6      34.252  47.222  13.722  1.00 59.38 LIG 0.16  HD
ATOM     54 O    GLN B   5      35.202  49.165  15.841  1.00 55.19 LIG-0.27  OA
BRANCH 52 55
ATOM     55  CA  THR B   6      33.377  46.971  15.505  1.00 66.40 LIG 0.20  C 
BRANCH 55 56
ATOM     56  CB  THR B   6      34.112  46.657  16.854  1.00 64.05 LIG 0.15  C 
ATOM     57  CG2 THR B   6      33.418  45.518  17.593  1.00 70.60 LIG 0.04  C 
BRANCH 56 58
ATOM     58 OG1  THR B   6      35.490  46.307  16.635  1.00 62.34 LIG-0.39  OA
ATOM     59 HG1  THR B   6      35.852  46.120  17.370  1.00 62.34 LIG 0.21  HD
ENDBRANCH 56 58
ENDBRANCH 55 56
BRANCH 55 60
ATOM     60  C   THR B   6      32.156  47.860  15.885  1.00 68.19 LIG 0.24  C 
ATOM     61 O    THR B   6      32.318  49.052  16.225  1.00 63.20 LIG-0.27  OA
ATOM     62  N   ALA B   7      30.955  47.274  15.848  1.00 78.65 LIG-0.35  N 
ATOM     63 H    ALA B   7      30.817  46.494  15.514  1.00 78.65 LIG 0.16  HD
BRANCH 62 64
ATOM     64  CA  ALA B   7      29.750  47.918  16.379  1.00 81.14 LIG 0.16  C 
ATOM     65  CB  ALA B   7      30.011  48.479  17.779  1.00 91.84 LIG 0.04  C 
BRANCH 64 66
ATOM     66  C   ALA B   7      29.284  49.038  15.435  1.00 81.58 LIG 0.22  C 
ATOM     67 O    ALA B   7      30.067  49.582  14.650  1.00 77.41 LIG-0.29  OA
ENDBRANCH 64 66
ENDBRANCH 62 64
ENDBRANCH 55 60
ENDBRANCH 52 55
ENDBRANCH 50 51
BRANCH 50 68
ATOM     68  CB  GLN B   5      34.678  50.347  12.843  1.00 52.07 LIG 0.04  C 
BRANCH 68 69
ATOM     69  CG  GLN B   5      34.133  50.023  11.472  1.00 55.77 LIG 0.10  C 
BRANCH 69 70
ATOM     70  CD  GLN B   5      32.922  49.106  11.565  1.00 63.27 LIG 0.21  C 
ATOM     71  NE2 GLN B   5      32.120  49.304  12.594  1.00 63.75 LIG-0.37  N 
ATOM     72 21HE GLN B   5      32.292  49.929  13.159  1.00 63.75 LIG 0.16  HD
ATOM     73 22HE GLN B   5      31.425  48.808  12.698  1.00 63.75 LIG 0.16  HD
ATOM     74 OE1  GLN B   5      32.720  48.236  10.741  1.00 68.43 LIG-0.27  OA
ENDBRANCH 69 70
ENDBRANCH 68 69
ENDBRANCH 50 68
ENDBRANCH 47 50
ENDBRANCH 1 46
TORSDOF 30
ENDMDL
MODEL 35
USER: ADFR SOLUTION from run 61
USER: SCORE 22.956730 LL:  -4.773 LR: -20.311 RR:   0.000 FEB: -11.362
USER: RMSD 6.661362
USER: SEED 60
USER: STATUS no improvement in best in 18 clusters for 5 generations
USER: GENES 32
USER: genes 0 Translation |==|  0.72026 0.55229 0.41060
USER: genes 1 Rotation |==|  0.53155 0.32159 0.42045 0.95918
USER: genes 2 Torsion [C]-CA--N-[C] |==|  0.54305
USER: genes 3 Torsion [N]-C--CA-[N] |==|  0.29602
USER: genes 4 Torsion [C]-CA--N-[C] |==|  0.78453
USER: genes 5 Torsion [N]-C--CA-[N] |==|  0.14657
USER: genes 6 Torsion [C]-CA--CB-[CG] |==|  0.42817
USER: genes 7 Torsion [CA]-CB--CG-[CD] |==|  0.94978
USER: genes 8 Torsion [CB]-CG--CD-[NE] |==|  0.64058
USER: genes 9 Torsion [CG]-CD--NE-[CZ] |==|  0.26018
USER: genes 10 Torsion [C]-CA--N-[C] |==|  0.68247
USER: genes 11 Torsion [N]-C--CA-[N] |==|  0.69090
USER: genes 12 Torsion [C]-CA--N-[H1] |==|  0.40740
USER: genes 13 Torsion [C]-CA--CB-[CG2] |==|  0.34770
USER: genes 14 Torsion [CA]-CB--OG1-[HG1] |==|  0.39554
USER: genes 15 Torsion [N]-CA--CB-[CG] |==|  0.20240
USER: genes 16 Torsion [CA]-CB--CG-[CD] |==|  0.69143
USER: genes 17 Torsion [CB]-CG--CD-[CE] |==|  0.49283
USER: genes 18 Torsion [CG]-CD--CE-[NZ] |==|  0.25307
USER: genes 19 Torsion [CD]-CE--NZ-[HZ1] |==|  0.28808
USER: genes 20 Torsion [N]-CA--C-[N] |==|  0.51598
USER: genes 21 Torsion [C]-N--CA-[CB] |==|  0.78016
USER: genes 22 Torsion [N]-CA--C-[N] |==|  0.12377
USER: genes 23 Torsion [C]-N--CA-[CB] |==|  0.78843
USER: genes 24 Torsion [N]-CA--CB-[CG2] |==|  0.52610
USER: genes 25 Torsion [CA]-CB--OG1-[HG1] |==|  0.66097
USER: genes 26 Torsion [N]-CA--C-[N] |==|  0.18890
USER: genes 27 Torsion [C]-N--CA-[CB] |==|  0.34589
USER: genes 28 Torsion [N]-CA--C-[O] |==|  0.04398
USER: genes 29 Torsion [N]-CA--CB-[CG] |==|  0.58490
USER: genes 30 Torsion [CA]-CB--CG-[CD] |==|  0.16214
USER: genes 31 Torsion [CB]-CG--CD-[NE2] |==|  0.80075
ROOT
ATOM      1  CA  LYS B   4      39.491  56.296   8.665  1.00 30.17 LIG 0.18  C 
ENDROOT
BRANCH 1 2
ATOM      2  N   LYS B   4      39.198  54.942   9.094  1.00 25.68 LIG-0.35  N 
ATOM      3 H    LYS B   4      38.397  54.684   8.913  1.00 25.68 LIG 0.16  HD
ATOM      4  C   THR B   3      40.098  54.170   9.713  1.00 23.58 LIG 0.24  C 
ATOM      5 O    THR B   3      41.257  54.528   9.954  1.00 24.56 LIG-0.27  OA
BRANCH 4 6
ATOM      6  CA  THR B   3      39.623  52.782  10.146  1.00 21.46 LIG 0.20  C 
BRANCH 6 7
ATOM      7  N   THR B   3      40.174  51.741   9.304  1.00 21.22 LIG-0.34  N 
ATOM      8 H    THR B   3      40.829  51.315   9.662  1.00 21.22 LIG 0.16  HD
ATOM      9  C   ARG B   2      39.713  51.479   8.104  1.00 21.22 LIG 0.24  C 
ATOM     10 O    ARG B   2      38.799  52.091   7.613  1.00 22.30 LIG-0.27  OA
BRANCH 9 11
ATOM     11  CA  ARG B   2      40.388  50.318   7.358  1.00 22.28 LIG 0.18  C 
BRANCH 11 12
ATOM     12  CB  ARG B   2      39.656  49.956   6.062  1.00 24.95 LIG 0.04  C 
BRANCH 12 13
ATOM     13  CG  ARG B   2      40.459  49.303   4.958  1.00 25.01 LIG 0.02  C 
BRANCH 13 14
ATOM     14  CD  ARG B   2      41.959  49.546   5.210  1.00 28.81 LIG 0.14  C 
BRANCH 14 15
ATOM     15  NE  ARG B   2      42.703  50.078   4.068  1.00 31.55 LIG-0.23  N 
ATOM     16 HE   ARG B   2      43.017  49.511   3.502  1.00 31.55 LIG 0.18  HD
ATOM     17  CZ  ARG B   2      42.937  51.377   3.830  1.00 33.58 LIG 0.67  C 
ATOM     18  NH2 ARG B   2      42.432  52.321   4.614  1.00 33.13 LIG-0.23  N 
ATOM     19  NH1 ARG B   2      43.657  51.736   2.787  1.00 37.12 LIG-0.23  N 
ATOM     20 1HH2 ARG B   2      41.945  52.105   5.289  1.00 33.13 LIG 0.17  HD
ATOM     21 2HH2 ARG B   2      42.592  53.150   4.447  1.00 33.13 LIG 0.17  HD
ATOM     22 2HH1 ARG B   2      43.807  52.570   2.635  1.00 37.12 LIG 0.17  HD
ATOM     23 1HH1 ARG B   2      43.977  51.138   2.258  1.00 37.12 LIG 0.17  HD
ENDBRANCH 14 15
ENDBRANCH 13 14
ENDBRANCH 12 13
ENDBRANCH 11 12
BRANCH 11 24
ATOM     24  N   ARG B   2      40.376  49.141   8.207  1.00 22.27 LIG-0.35  N 
ATOM     25  C   ALA B   1      41.516  48.640   8.655  1.00 22.85 LIG 0.25  C 
ATOM     26 O    ALA B   1      42.610  49.143   8.374  1.00 22.62 LIG-0.27  OA
ATOM     27 H    ARG B   2      39.597  48.821   8.378  1.00 22.27 LIG 0.16  HD
BRANCH 25 28
ATOM     28  CA  ALA B   1      41.406  47.374   9.521  1.00 23.76 LIG 0.27  C 
ATOM     29  CB  ALA B   1      40.016  46.755   9.437  1.00 24.39 LIG 0.05  C 
BRANCH 28 30
ATOM     30  N   ALA B   1      41.761  47.619  10.914  1.00 25.03 LIG-0.07  N 
ATOM     31 H1   ALA B   1      41.268  47.098  11.442  1.00 25.03 LIG 0.28  HD
ATOM     32 H3   ALA B   1      41.608  48.473  11.114  1.00 25.03 LIG 0.28  HD
ATOM     33 H2   ALA B   1      42.623  47.436  11.038  1.00 25.03 LIG 0.28  HD
ENDBRANCH 28 30
ENDBRANCH 25 28
ENDBRANCH 11 24
ENDBRANCH 9 11
ENDBRANCH 6 7
BRANCH 6 34
ATOM     34  CB  THR B   3      39.982  52.538  11.608  1.00 21.53 LIG 0.15  C 
ATOM     35  CG2 THR B   3      38.792  52.168  12.404  1.00 22.92 LIG 0.04  C 
BRANCH 34 36
ATOM     36 OG1  THR B   3      40.931  51.483  11.660  1.00 22.47 LIG-0.39  OA
ATOM     37 HG1  THR B   3      41.495  51.643  12.262  1.00 22.47 LIG 0.21  HD
ENDBRANCH 34 36
ENDBRANCH 6 34
ENDBRANCH 4 6
ENDBRANCH 1 2
BRANCH 1 38
ATOM     38  CB  LYS B   4      40.370  56.266   7.443  1.00 32.55 LIG 0.04  C 
BRANCH 38 39
ATOM     39  CG  LYS B   4      39.642  55.836   6.201  1.00 30.49 LIG 0.00  C 
BRANCH 39 40
ATOM     40  CD  LYS B   4      40.136  54.462   5.750  1.00 34.18 LIG 0.03  C 
BRANCH 40 41
ATOM     41  CE  LYS B   4      39.365  53.984   4.530  1.00 33.34 LIG 0.23  C 
BRANCH 41 42
ATOM     42  NZ  LYS B   4      39.990  54.369   3.240  1.00 36.76 LIG-0.08  N 
ATOM     43 HZ1  LYS B   4      40.396  53.662   2.884  1.00 36.76 LIG 0.27  HD
ATOM     44 HZ2  LYS B   4      39.362  54.661   2.681  1.00 36.76 LIG 0.27  HD
ATOM     45 HZ3  LYS B   4      40.586  55.015   3.379  1.00 36.76 LIG 0.27  HD
ENDBRANCH 41 42
ENDBRANCH 40 41
ENDBRANCH 39 40
ENDBRANCH 38 39
ENDBRANCH 1 38
BRANCH 1 46
ATOM     46  C   LYS B   4      38.211  57.017   8.359  1.00 34.41 LIG 0.24  C 
ATOM     47  N   GLN B   5      38.315  58.234   7.841  1.00 39.81 LIG-0.35  N 
ATOM     48 H    GLN B   5      39.051  58.611   7.608  1.00 39.81 LIG 0.16  HD
ATOM     49 O    LYS B   4      37.118  56.457   8.577  1.00 33.27 LIG-0.27  OA
BRANCH 47 50
ATOM     50  CA  GLN B   5      37.105  59.029   7.632  1.00 46.50 LIG 0.18  C 
BRANCH 50 51
ATOM     51  C   GLN B   5      36.209  59.058   8.873  1.00 52.91 LIG 0.24  C 
ATOM     52  N   THR B   6      36.839  59.261  10.037  1.00 59.38 LIG-0.34  N 
ATOM     53 H    THR B   6      37.660  59.517  10.082  1.00 59.38 LIG 0.16  HD
ATOM     54 O    GLN B   5      35.010  58.840   8.779  1.00 55.19 LIG-0.27  OA
BRANCH 52 55
ATOM     55  CA  THR B   6      36.205  59.069  11.383  1.00 66.40 LIG 0.20  C 
BRANCH 55 56
ATOM     56  CB  THR B   6      35.234  60.237  11.770  1.00 64.05 LIG 0.15  C 
ATOM     57  CG2 THR B   6      34.799  60.116  13.227  1.00 70.60 LIG 0.04  C 
BRANCH 56 58
ATOM     58 OG1  THR B   6      35.845  61.523  11.566  1.00 62.34 LIG-0.39  OA
ATOM     59 HG1  THR B   6      35.850  61.949  12.289  1.00 62.34 LIG 0.21  HD
ENDBRANCH 56 58
ENDBRANCH 55 56
BRANCH 55 60
ATOM     60  C   THR B   6      35.359  57.766  11.476  1.00 68.19 LIG 0.24  C 
ATOM     61 O    THR B   6      34.117  57.821  11.609  1.00 63.20 LIG-0.27  OA
ATOM     62  N   ALA B   7      36.031  56.611  11.430  1.00 78.65 LIG-0.35  N 
ATOM     63 H    ALA B   7      36.866  56.555  11.231  1.00 78.65 LIG 0.16  HD
BRANCH 62 64
ATOM     64  CA  ALA B   7      35.397  55.321  11.716  1.00 81.14 LIG 0.16  C 
ATOM     65  CB  ALA B   7      35.592  54.354  10.545  1.00 91.84 LIG 0.04  C 
BRANCH 64 66
ATOM     66  C   ALA B   7      35.974  54.718  13.007  1.00 81.58 LIG 0.22  C 
ATOM     67 O    ALA B   7      36.620  55.407  13.803  1.00 77.41 LIG-0.29  OA
ENDBRANCH 64 66
ENDBRANCH 62 64
ENDBRANCH 55 60
ENDBRANCH 52 55
ENDBRANCH 50 51
BRANCH 50 68
ATOM     68  CB  GLN B   5      36.319  58.635   6.370  1.00 52.07 LIG 0.04  C 
BRANCH 68 69
ATOM     69  CG  GLN B   5      35.532  59.707   5.654  1.00 55.77 LIG 0.10  C 
BRANCH 69 70
ATOM     70  CD  GLN B   5      36.433  60.851   5.216  1.00 63.27 LIG 0.21  C 
ATOM     71  NE2 GLN B   5      36.887  61.635   6.176  1.00 63.75 LIG-0.37  N 
ATOM     72 21HE GLN B   5      36.675  61.478   6.995  1.00 63.75 LIG 0.16  HD
ATOM     73 22HE GLN B   5      37.394  62.301   5.983  1.00 63.75 LIG 0.16  HD
ATOM     74 OE1  GLN B   5      36.706  61.033   4.046  1.00 68.43 LIG-0.27  OA
ENDBRANCH 69 70
ENDBRANCH 68 69
ENDBRANCH 50 68
ENDBRANCH 47 50
ENDBRANCH 1 46
TORSDOF 30
ENDMDL
MODEL 36
USER: ADFR SOLUTION from run 199
USER: SCORE 23.855147 LL:  -4.841 LR: -20.310 RR:   0.000 FEB: -11.361
USER: RMSD 8.723237
USER: SEED 198
USER: STATUS searching
USER: GENES 32
USER: genes 0 Translation |==|  0.58498 0.19121 0.62320
USER: genes 1 Rotation |==|  0.94183 0.31085 0.39705 0.59169
USER: genes 2 Torsion [C]-CA--N-[C] |==|  0.61434
USER: genes 3 Torsion [N]-C--CA-[N] |==|  0.99294
USER: genes 4 Torsion [C]-CA--N-[C] |==|  0.65197
USER: genes 5 Torsion [N]-C--CA-[N] |==|  0.10651
USER: genes 6 Torsion [C]-CA--CB-[CG] |==|  0.90457
USER: genes 7 Torsion [CA]-CB--CG-[CD] |==|  0.60951
USER: genes 8 Torsion [CB]-CG--CD-[NE] |==|  0.84070
USER: genes 9 Torsion [CG]-CD--NE-[CZ] |==|  0.52185
USER: genes 10 Torsion [C]-CA--N-[C] |==|  0.13837
USER: genes 11 Torsion [N]-C--CA-[N] |==|  0.23580
USER: genes 12 Torsion [C]-CA--N-[H1] |==|  0.84197
USER: genes 13 Torsion [C]-CA--CB-[CG2] |==|  0.39486
USER: genes 14 Torsion [CA]-CB--OG1-[HG1] |==|  0.51817
USER: genes 15 Torsion [N]-CA--CB-[CG] |==|  0.59065
USER: genes 16 Torsion [CA]-CB--CG-[CD] |==|  0.64138
USER: genes 17 Torsion [CB]-CG--CD-[CE] |==|  0.49484
USER: genes 18 Torsion [CG]-CD--CE-[NZ] |==|  0.48673
USER: genes 19 Torsion [CD]-CE--NZ-[HZ1] |==|  0.55002
USER: genes 20 Torsion [N]-CA--C-[N] |==|  0.35391
USER: genes 21 Torsion [C]-N--CA-[CB] |==|  0.79403
USER: genes 22 Torsion [N]-CA--C-[N] |==|  0.12232
USER: genes 23 Torsion [C]-N--CA-[CB] |==|  0.84758
USER: genes 24 Torsion [N]-CA--CB-[CG2] |==|  0.31313
USER: genes 25 Torsion [CA]-CB--OG1-[HG1] |==|  0.11091
USER: genes 26 Torsion [N]-CA--C-[N] |==|  0.89693
USER: genes 27 Torsion [C]-N--CA-[CB] |==|  0.19864
USER: genes 28 Torsion [N]-CA--C-[O] |==|  0.79670
USER: genes 29 Torsion [N]-CA--CB-[CG] |==|  0.74309
USER: genes 30 Torsion [CA]-CB--CG-[CD] |==|  0.79973
USER: genes 31 Torsion [CB]-CG--CD-[NE2] |==|  0.36304
ROOT
ATOM      1  CA  LYS B   4      36.346  48.171  13.768  1.00 30.17 LIG 0.18  C 
ENDROOT
BRANCH 1 2
ATOM      2  N   LYS B   4      37.157  48.501  12.612  1.00 25.68 LIG-0.35  N 
ATOM      3 H    LYS B   4      37.107  49.326  12.375  1.00 25.68 LIG 0.16  HD
ATOM      4  C   THR B   3      37.911  47.596  11.978  1.00 23.58 LIG 0.24  C 
ATOM      5 O    THR B   3      38.003  46.414  12.329  1.00 24.56 LIG-0.27  OA
BRANCH 4 6
ATOM      6  CA  THR B   3      38.672  48.087  10.745  1.00 21.46 LIG 0.20  C 
BRANCH 6 7
ATOM      7  N   THR B   3      38.377  49.474  10.453  1.00 21.22 LIG-0.34  N 
ATOM      8 H    THR B   3      38.515  50.006  11.114  1.00 21.22 LIG 0.16  HD
ATOM      9  C   ARG B   2      37.940  49.877   9.283  1.00 21.22 LIG 0.24  C 
ATOM     10 O    ARG B   2      37.746  49.119   8.368  1.00 22.30 LIG-0.27  OA
BRANCH 9 11
ATOM     11  CA  ARG B   2      37.713  51.389   9.129  1.00 22.28 LIG 0.18  C 
BRANCH 11 12
ATOM     12  CB  ARG B   2      37.752  51.836   7.665  1.00 24.95 LIG 0.04  C 
BRANCH 12 13
ATOM     13  CG  ARG B   2      38.702  51.117   6.733  1.00 25.01 LIG 0.02  C 
BRANCH 13 14
ATOM     14  CD  ARG B   2      39.344  52.139   5.775  1.00 28.81 LIG 0.14  C 
BRANCH 14 15
ATOM     15  NE  ARG B   2      38.399  52.918   4.974  1.00 31.55 LIG-0.23  N 
ATOM     16 HE   ARG B   2      37.563  52.835   5.158  1.00 31.55 LIG 0.18  HD
ATOM     17  CZ  ARG B   2      38.728  53.750   3.976  1.00 33.58 LIG 0.67  C 
ATOM     18  NH2 ARG B   2      39.998  53.989   3.670  1.00 33.13 LIG-0.23  N 
ATOM     19  NH1 ARG B   2      37.785  54.369   3.295  1.00 37.12 LIG-0.23  N 
ATOM     20 1HH2 ARG B   2      40.627  53.608   4.116  1.00 33.13 LIG 0.17  HD
ATOM     21 2HH2 ARG B   2      40.191  54.526   3.027  1.00 33.13 LIG 0.17  HD
ATOM     22 2HH1 ARG B   2      37.997  54.903   2.655  1.00 37.12 LIG 0.17  HD
ATOM     23 1HH1 ARG B   2      36.957  54.240   3.492  1.00 37.12 LIG 0.17  HD
ENDBRANCH 14 15
ENDBRANCH 13 14
ENDBRANCH 12 13
ENDBRANCH 11 12
BRANCH 11 24
ATOM     24  N   ARG B   2      38.766  52.099   9.830  1.00 22.27 LIG-0.35  N 
ATOM     25  C   ALA B   1      40.032  51.775   9.620  1.00 22.85 LIG 0.25  C 
ATOM     26 O    ALA B   1      40.359  50.875   8.838  1.00 22.62 LIG-0.27  OA
ATOM     27 H    ARG B   2      38.498  52.716  10.365  1.00 22.27 LIG 0.16  HD
BRANCH 25 28
ATOM     28  CA  ALA B   1      41.076  52.561  10.432  1.00 23.76 LIG 0.27  C 
ATOM     29  CB  ALA B   1      42.400  52.670   9.686  1.00 24.39 LIG 0.05  C 
BRANCH 28 30
ATOM     30  N   ALA B   1      41.294  51.994  11.757  1.00 25.03 LIG-0.07  N 
ATOM     31 H1   ALA B   1      40.521  51.960  12.197  1.00 25.03 LIG 0.28  HD
ATOM     32 H3   ALA B   1      41.870  52.503  12.207  1.00 25.03 LIG 0.28  HD
ATOM     33 H2   ALA B   1      41.625  51.172  11.677  1.00 25.03 LIG 0.28  HD
ENDBRANCH 28 30
ENDBRANCH 25 28
ENDBRANCH 11 24
ENDBRANCH 9 11
ENDBRANCH 6 7
BRANCH 6 34
ATOM     34  CB  THR B   3      40.171  47.884  10.939  1.00 21.53 LIG 0.15  C 
ATOM     35  CG2 THR B   3      40.829  47.467   9.682  1.00 22.92 LIG 0.04  C 
BRANCH 34 36
ATOM     36 OG1  THR B   3      40.731  49.113  11.379  1.00 22.47 LIG-0.39  OA
ATOM     37 HG1  THR B   3      41.567  49.046  11.406  1.00 22.47 LIG 0.21  HD
ENDBRANCH 34 36
ENDBRANCH 6 34
ENDBRANCH 4 6
ENDBRANCH 1 2
BRANCH 1 38
ATOM     38  CB  LYS B   4      37.053  48.598  15.027  1.00 32.55 LIG 0.04  C 
BRANCH 38 39
ATOM     39  CG  LYS B   4      36.772  47.698  16.197  1.00 30.49 LIG 0.00  C 
BRANCH 39 40
ATOM     40  CD  LYS B   4      36.335  48.527  17.405  1.00 34.18 LIG 0.03  C 
BRANCH 40 41
ATOM     41  CE  LYS B   4      36.002  47.628  18.585  1.00 33.34 LIG 0.23  C 
BRANCH 41 42
ATOM     42  NZ  LYS B   4      35.677  48.371  19.828  1.00 36.76 LIG-0.08  N 
ATOM     43 HZ1  LYS B   4      35.748  47.826  20.528  1.00 36.76 LIG 0.27  HD
ATOM     44 HZ2  LYS B   4      36.243  49.051  19.925  1.00 36.76 LIG 0.27  HD
ATOM     45 HZ3  LYS B   4      34.845  48.684  19.779  1.00 36.76 LIG 0.27  HD
ENDBRANCH 41 42
ENDBRANCH 40 41
ENDBRANCH 39 40
ENDBRANCH 38 39
ENDBRANCH 1 38
BRANCH 1 46
ATOM     46  C   LYS B   4      35.017  48.862  13.667  1.00 34.41 LIG 0.24  C 
ATOM     47  N   GLN B   5      33.935  48.107  13.794  1.00 39.81 LIG-0.35  N 
ATOM     48 H    GLN B   5      33.935  47.270  13.994  1.00 39.81 LIG 0.16  HD
ATOM     49 O    LYS B   4      34.974  50.096  13.492  1.00 33.27 LIG-0.27  OA
BRANCH 47 50
ATOM     50  CA  GLN B   5      32.616  48.705  13.589  1.00 46.50 LIG 0.18  C 
BRANCH 50 51
ATOM     51  C   GLN B   5      32.505  49.415  12.237  1.00 52.91 LIG 0.24  C 
ATOM     52  N   THR B   6      33.016  48.751  11.192  1.00 59.38 LIG-0.34  N 
ATOM     53 H    THR B   6      33.244  47.923  11.235  1.00 59.38 LIG 0.16  HD
ATOM     54 O    GLN B   5      32.038  50.541  12.163  1.00 55.19 LIG-0.27  OA
BRANCH 52 55
ATOM     55  CA  THR B   6      33.249  49.359   9.840  1.00 66.40 LIG 0.20  C 
BRANCH 55 56
ATOM     56  CB  THR B   6      31.960  50.015   9.237  1.00 64.05 LIG 0.15  C 
ATOM     57  CG2 THR B   6      32.117  51.529   9.149  1.00 70.60 LIG 0.04  C 
BRANCH 56 58
ATOM     58 OG1  THR B   6      31.664  49.494   7.929  1.00 62.34 LIG-0.39  OA
ATOM     59 HG1  THR B   6      31.810  48.667   7.918  1.00 62.34 LIG 0.21  HD
ENDBRANCH 56 58
ENDBRANCH 55 56
BRANCH 55 60
ATOM     60  C   THR B   6      34.328  50.481   9.856  1.00 68.19 LIG 0.24  C 
ATOM     61 O    THR B   6      35.136  50.602   8.910  1.00 63.20 LIG-0.27  OA
ATOM     62  N   ALA B   7      34.349  51.275  10.931  1.00 78.65 LIG-0.35  N 
ATOM     63 H    ALA B   7      33.736  51.274  11.535  1.00 78.65 LIG 0.16  HD
BRANCH 62 64
ATOM     64  CA  ALA B   7      35.432  52.231  11.182  1.00 81.14 LIG 0.16  C 
ATOM     65  CB  ALA B   7      35.354  53.403  10.200  1.00 91.84 LIG 0.04  C 
BRANCH 64 66
ATOM     66  C   ALA B   7      35.368  52.743  12.630  1.00 81.58 LIG 0.22  C 
ATOM     67 O    ALA B   7      34.495  53.539  12.989  1.00 77.41 LIG-0.29  OA
ENDBRANCH 64 66
ENDBRANCH 62 64
ENDBRANCH 55 60
ENDBRANCH 52 55
ENDBRANCH 50 51
BRANCH 50 68
ATOM     68  CB  GLN B   5      32.162  49.610  14.747  1.00 52.07 LIG 0.04  C 
BRANCH 68 69
ATOM     69  CG  GLN B   5      31.335  48.997  15.852  1.00 55.77 LIG 0.10  C 
BRANCH 69 70
ATOM     70  CD  GLN B   5      29.923  48.688  15.375  1.00 63.27 LIG 0.21  C 
ATOM     71  NE2 GLN B   5      29.472  47.476  15.637  1.00 63.75 LIG-0.37  N 
ATOM     72 21HE GLN B   5      29.968  46.916  16.062  1.00 63.75 LIG 0.16  HD
ATOM     73 22HE GLN B   5      28.684  47.247  15.383  1.00 63.75 LIG 0.16  HD
ATOM     74 OE1  GLN B   5      29.260  49.513  14.779  1.00 68.43 LIG-0.27  OA
ENDBRANCH 69 70
ENDBRANCH 68 69
ENDBRANCH 50 68
ENDBRANCH 47 50
ENDBRANCH 1 46
TORSDOF 30
ENDMDL
MODEL 37
USER: ADFR SOLUTION from run 167
USER: SCORE 23.229751 LL:  -5.001 LR: -20.296 RR:   0.000 FEB: -11.347
USER: RMSD 8.138808
USER: SEED 166
USER: STATUS searching
USER: GENES 32
USER: genes 0 Translation |==|  0.68904 0.22097 0.43831
USER: genes 1 Rotation |==|  0.31923 0.45662 0.31164 0.92422
USER: genes 2 Torsion [C]-CA--N-[C] |==|  0.75636
USER: genes 3 Torsion [N]-C--CA-[N] |==|  0.86480
USER: genes 4 Torsion [C]-CA--N-[C] |==|  0.72390
USER: genes 5 Torsion [N]-C--CA-[N] |==|  0.92892
USER: genes 6 Torsion [C]-CA--CB-[CG] |==|  0.88883
USER: genes 7 Torsion [CA]-CB--CG-[CD] |==|  0.22839
USER: genes 8 Torsion [CB]-CG--CD-[NE] |==|  0.18559
USER: genes 9 Torsion [CG]-CD--NE-[CZ] |==|  0.25786
USER: genes 10 Torsion [C]-CA--N-[C] |==|  0.67397
USER: genes 11 Torsion [N]-C--CA-[N] |==|  0.27874
USER: genes 12 Torsion [C]-CA--N-[H1] |==|  0.99879
USER: genes 13 Torsion [C]-CA--CB-[CG2] |==|  0.39822
USER: genes 14 Torsion [CA]-CB--OG1-[HG1] |==|  0.85104
USER: genes 15 Torsion [N]-CA--CB-[CG] |==|  0.71433
USER: genes 16 Torsion [CA]-CB--CG-[CD] |==|  0.12871
USER: genes 17 Torsion [CB]-CG--CD-[CE] |==|  0.72932
USER: genes 18 Torsion [CG]-CD--CE-[NZ] |==|  0.38388
USER: genes 19 Torsion [CD]-CE--NZ-[HZ1] |==|  0.36188
USER: genes 20 Torsion [N]-CA--C-[N] |==|  0.16946
USER: genes 21 Torsion [C]-N--CA-[CB] |==|  0.44444
USER: genes 22 Torsion [N]-CA--C-[N] |==|  0.41660
USER: genes 23 Torsion [C]-N--CA-[CB] |==|  0.81637
USER: genes 24 Torsion [N]-CA--CB-[CG2] |==|  0.29107
USER: genes 25 Torsion [CA]-CB--OG1-[HG1] |==|  0.42325
USER: genes 26 Torsion [N]-CA--C-[N] |==|  0.44082
USER: genes 27 Torsion [C]-N--CA-[CB] |==|  0.83153
USER: genes 28 Torsion [N]-CA--C-[O] |==|  0.08380
USER: genes 29 Torsion [N]-CA--CB-[CG] |==|  0.17273
USER: genes 30 Torsion [CA]-CB--CG-[CD] |==|  0.79504
USER: genes 31 Torsion [CB]-CG--CD-[NE2] |==|  0.37111
ROOT
ATOM      1  CA  LYS B   4      38.765  48.841   9.330  1.00 30.17 LIG 0.18  C 
ENDROOT
BRANCH 1 2
ATOM      2  N   LYS B   4      38.321  48.321  10.609  1.00 25.68 LIG-0.35  N 
ATOM      3 H    LYS B   4      37.631  47.811  10.558  1.00 25.68 LIG 0.16  HD
ATOM      4  C   THR B   3      38.937  48.615  11.760  1.00 23.58 LIG 0.24  C 
ATOM      5 O    THR B   3      39.943  49.331  11.836  1.00 24.56 LIG-0.27  OA
BRANCH 4 6
ATOM      6  CA  THR B   3      38.320  48.029  13.032  1.00 21.46 LIG 0.20  C 
BRANCH 6 7
ATOM      7  N   THR B   3      36.892  48.260  13.088  1.00 21.22 LIG-0.34  N 
ATOM      8 H    THR B   3      36.431  47.706  12.619  1.00 21.22 LIG 0.16  HD
ATOM      9  C   ARG B   2      36.355  49.229  13.791  1.00 21.22 LIG 0.24  C 
ATOM     10 O    ARG B   2      37.015  50.002  14.437  1.00 22.30 LIG-0.27  OA
BRANCH 9 11
ATOM     11  CA  ARG B   2      34.821  49.312  13.771  1.00 22.28 LIG 0.18  C 
BRANCH 11 12
ATOM     12  CB  ARG B   2      34.183  48.557  14.942  1.00 24.95 LIG 0.04  C 
BRANCH 12 13
ATOM     13  CG  ARG B   2      34.788  47.229  15.338  1.00 25.01 LIG 0.02  C 
BRANCH 13 14
ATOM     14  CD  ARG B   2      36.009  47.478  16.245  1.00 28.81 LIG 0.14  C 
BRANCH 14 15
ATOM     15  NE  ARG B   2      35.703  48.056  17.553  1.00 31.55 LIG-0.23  N 
ATOM     16 HE   ARG B   2      35.658  48.914  17.605  1.00 31.55 LIG 0.18  HD
ATOM     17  CZ  ARG B   2      35.486  47.360  18.679  1.00 33.58 LIG 0.67  C 
ATOM     18  NH2 ARG B   2      35.469  46.033  18.674  1.00 33.13 LIG-0.23  N 
ATOM     19  NH1 ARG B   2      35.259  47.994  19.812  1.00 37.12 LIG-0.23  N 
ATOM     20 1HH2 ARG B   2      35.598  45.604  17.941  1.00 33.13 LIG 0.17  HD
ATOM     21 2HH2 ARG B   2      35.328  45.603  19.406  1.00 33.13 LIG 0.17  HD
ATOM     22 2HH1 ARG B   2      35.120  47.547  20.534  1.00 37.12 LIG 0.17  HD
ATOM     23 1HH1 ARG B   2      35.249  48.854  19.829  1.00 37.12 LIG 0.17  HD
ENDBRANCH 14 15
ENDBRANCH 13 14
ENDBRANCH 12 13
ENDBRANCH 11 12
BRANCH 11 24
ATOM     24  N   ARG B   2      34.332  48.708  12.546  1.00 22.27 LIG-0.35  N 
ATOM     25  C   ALA B   1      33.668  49.443  11.668  1.00 22.85 LIG 0.25  C 
ATOM     26 O    ALA B   1      33.444  50.645  11.853  1.00 22.62 LIG-0.27  OA
ATOM     27 H    ARG B   2      34.507  47.871  12.454  1.00 22.27 LIG 0.16  HD
BRANCH 25 28
ATOM     28  CA  ALA B   1      33.161  48.709  10.415  1.00 23.76 LIG 0.27  C 
ATOM     29  CB  ALA B   1      33.428  49.512   9.148  1.00 24.39 LIG 0.05  C 
BRANCH 28 30
ATOM     30  N   ALA B   1      31.746  48.369  10.502  1.00 25.03 LIG-0.07  N 
ATOM     31 H1   ALA B   1      31.422  48.646  11.283  1.00 25.03 LIG 0.28  HD
ATOM     32 H3   ALA B   1      31.648  47.487  10.436  1.00 25.03 LIG 0.28  HD
ATOM     33 H2   ALA B   1      31.304  48.766   9.840  1.00 25.03 LIG 0.28  HD
ENDBRANCH 28 30
ENDBRANCH 25 28
ENDBRANCH 11 24
ENDBRANCH 9 11
ENDBRANCH 6 7
BRANCH 6 34
ATOM     34  CB  THR B   3      38.628  46.539  13.125  1.00 21.53 LIG 0.15  C 
ATOM     35  CG2 THR B   3      38.872  46.122  14.523  1.00 22.92 LIG 0.04  C 
BRANCH 34 36
ATOM     36 OG1  THR B   3      37.517  45.823  12.606  1.00 22.47 LIG-0.39  OA
ATOM     37 HG1  THR B   3      36.816  46.070  12.999  1.00 22.47 LIG 0.21  HD
ENDBRANCH 34 36
ENDBRANCH 6 34
ENDBRANCH 4 6
ENDBRANCH 1 2
BRANCH 1 38
ATOM     38  CB  LYS B   4      38.405  47.875   8.233  1.00 32.55 LIG 0.04  C 
BRANCH 38 39
ATOM     39  CG  LYS B   4      39.574  47.062   7.754  1.00 30.49 LIG 0.00  C 
BRANCH 39 40
ATOM     40  CD  LYS B   4      40.358  46.512   8.945  1.00 34.18 LIG 0.03  C 
BRANCH 40 41
ATOM     41  CE  LYS B   4      41.558  47.391   9.255  1.00 33.34 LIG 0.23  C 
BRANCH 41 42
ATOM     42  NZ  LYS B   4      41.773  47.619  10.706  1.00 36.76 LIG-0.08  N 
ATOM     43 HZ1  LYS B   4      42.623  47.452  10.910  1.00 36.76 LIG 0.27  HD
ATOM     44 HZ2  LYS B   4      41.582  48.465  10.906  1.00 36.76 LIG 0.27  HD
ATOM     45 HZ3  LYS B   4      41.243  47.078  11.173  1.00 36.76 LIG 0.27  HD
ENDBRANCH 41 42
ENDBRANCH 40 41
ENDBRANCH 39 40
ENDBRANCH 38 39
ENDBRANCH 1 38
BRANCH 1 46
ATOM     46  C   LYS B   4      38.120  50.172   9.074  1.00 34.41 LIG 0.24  C 
ATOM     47  N   GLN B   5      38.378  51.143   9.939  1.00 39.81 LIG-0.35  N 
ATOM     48 H    GLN B   5      38.933  51.088  10.593  1.00 39.81 LIG 0.16  HD
ATOM     49 O    LYS B   4      37.397  50.324   8.069  1.00 33.27 LIG-0.27  OA
BRANCH 47 50
ATOM     50  CA  GLN B   5      37.686  52.424   9.805  1.00 46.50 LIG 0.18  C 
BRANCH 50 51
ATOM     51  C   GLN B   5      38.184  53.229   8.602  1.00 52.91 LIG 0.24  C 
ATOM     52  N   THR B   6      37.279  54.036   8.032  1.00 59.38 LIG-0.34  N 
ATOM     53 H    THR B   6      36.523  54.219   8.401  1.00 59.38 LIG 0.16  HD
ATOM     54 O    GLN B   5      39.317  53.072   8.175  1.00 55.19 LIG-0.27  OA
BRANCH 52 55
ATOM     55  CA  THR B   6      37.468  54.708   6.705  1.00 66.40 LIG 0.20  C 
BRANCH 55 56
ATOM     56  CB  THR B   6      38.619  55.773   6.720  1.00 64.05 LIG 0.15  C 
ATOM     57  CG2 THR B   6      39.857  55.238   6.009  1.00 70.60 LIG 0.04  C 
BRANCH 56 58
ATOM     58 OG1  THR B   6      38.210  57.002   6.094  1.00 62.34 LIG-0.39  OA
ATOM     59 HG1  THR B   6      38.643  57.642   6.424  1.00 62.34 LIG 0.21  HD
ENDBRANCH 56 58
ENDBRANCH 55 56
BRANCH 55 60
ATOM     60  C   THR B   6      37.828  53.712   5.564  1.00 68.19 LIG 0.24  C 
ATOM     61 O    THR B   6      38.335  52.599   5.827  1.00 63.20 LIG-0.27  OA
ATOM     62  N   ALA B   7      37.587  54.120   4.314  1.00 78.65 LIG-0.35  N 
ATOM     63 H    ALA B   7      37.142  54.831   4.124  1.00 78.65 LIG 0.16  HD
BRANCH 62 64
ATOM     64  CA  ALA B   7      38.065  53.383   3.141  1.00 81.14 LIG 0.16  C 
ATOM     65  CB  ALA B   7      39.594  53.299   3.144  1.00 91.84 LIG 0.04  C 
BRANCH 64 66
ATOM     66  C   ALA B   7      37.454  51.973   3.110  1.00 81.58 LIG 0.22  C 
ATOM     67 O    ALA B   7      36.337  51.749   3.588  1.00 77.41 LIG-0.29  OA
ENDBRANCH 64 66
ENDBRANCH 62 64
ENDBRANCH 55 60
ENDBRANCH 52 55
ENDBRANCH 50 51
BRANCH 50 68
ATOM     68  CB  GLN B   5      37.688  53.264  11.094  1.00 52.07 LIG 0.04  C 
BRANCH 68 69
ATOM     69  CG  GLN B   5      39.017  53.719  11.649  1.00 55.77 LIG 0.10  C 
BRANCH 69 70
ATOM     70  CD  GLN B   5      39.767  52.563  12.296  1.00 63.27 LIG 0.21  C 
ATOM     71  NE2 GLN B   5      41.043  52.448  11.980  1.00 63.75 LIG-0.37  N 
ATOM     72 21HE GLN B   5      41.405  53.013  11.443  1.00 63.75 LIG 0.16  HD
ATOM     73 22HE GLN B   5      41.511  51.807  12.311  1.00 63.75 LIG 0.16  HD
ATOM     74 OE1  GLN B   5      39.212  51.789  13.050  1.00 68.43 LIG-0.27  OA
ENDBRANCH 69 70
ENDBRANCH 68 69
ENDBRANCH 50 68
ENDBRANCH 47 50
ENDBRANCH 1 46
TORSDOF 30
ENDMDL
MODEL 38
USER: ADFR SOLUTION from run 147
USER: SCORE 22.667669 LL:  -4.387 LR: -20.298 RR:   0.000 FEB: -11.349
USER: RMSD 9.271082
USER: SEED 146
USER: STATUS no improvement in best in 5 clusters for 5 generations
USER: GENES 32
USER: genes 0 Translation |==|  0.60606 0.21692 0.55018
USER: genes 1 Rotation |==|  0.83873 0.36026 0.16026 0.51749
USER: genes 2 Torsion [C]-CA--N-[C] |==|  0.13605
USER: genes 3 Torsion [N]-C--CA-[N] |==|  0.78910
USER: genes 4 Torsion [C]-CA--N-[C] |==|  0.17896
USER: genes 5 Torsion [N]-C--CA-[N] |==|  0.35740
USER: genes 6 Torsion [C]-CA--CB-[CG] |==|  0.17815
USER: genes 7 Torsion [CA]-CB--CG-[CD] |==|  0.49459
USER: genes 8 Torsion [CB]-CG--CD-[NE] |==|  0.59113
USER: genes 9 Torsion [CG]-CD--NE-[CZ] |==|  0.16772
USER: genes 10 Torsion [C]-CA--N-[C] |==|  0.83397
USER: genes 11 Torsion [N]-C--CA-[N] |==|  0.51642
USER: genes 12 Torsion [C]-CA--N-[H1] |==|  0.31037
USER: genes 13 Torsion [C]-CA--CB-[CG2] |==|  0.18674
USER: genes 14 Torsion [CA]-CB--OG1-[HG1] |==|  0.31972
USER: genes 15 Torsion [N]-CA--CB-[CG] |==|  0.67251
USER: genes 16 Torsion [CA]-CB--CG-[CD] |==|  0.77781
USER: genes 17 Torsion [CB]-CG--CD-[CE] |==|  0.92102
USER: genes 18 Torsion [CG]-CD--CE-[NZ] |==|  0.62035
USER: genes 19 Torsion [CD]-CE--NZ-[HZ1] |==|  0.08934
USER: genes 20 Torsion [N]-CA--C-[N] |==|  0.67219
USER: genes 21 Torsion [C]-N--CA-[CB] |==|  0.85243
USER: genes 22 Torsion [N]-CA--C-[N] |==|  0.84135
USER: genes 23 Torsion [C]-N--CA-[CB] |==|  0.82879
USER: genes 24 Torsion [N]-CA--CB-[CG2] |==|  0.45870
USER: genes 25 Torsion [CA]-CB--OG1-[HG1] |==|  0.07034
USER: genes 26 Torsion [N]-CA--C-[N] |==|  0.42296
USER: genes 27 Torsion [C]-N--CA-[CB] |==|  0.39124
USER: genes 28 Torsion [N]-CA--C-[O] |==|  0.88510
USER: genes 29 Torsion [N]-CA--CB-[CG] |==|  0.61911
USER: genes 30 Torsion [CA]-CB--CG-[CD] |==|  0.03888
USER: genes 31 Torsion [CB]-CG--CD-[NE2] |==|  0.75392
ROOT
ATOM      1  CA  LYS B   4      36.836  48.750  12.015  1.00 30.17 LIG 0.18  C 
ENDROOT
BRANCH 1 2
ATOM      2  N   LYS B   4      36.722  49.749  10.970  1.00 25.68 LIG-0.35  N 
ATOM      3 H    LYS B   4      36.395  49.447  10.234  1.00 25.68 LIG 0.16  HD
ATOM      4  C   THR B   3      37.093  51.022  11.146  1.00 23.58 LIG 0.24  C 
ATOM      5 O    THR B   3      37.542  51.464  12.210  1.00 24.56 LIG-0.27  OA
BRANCH 4 6
ATOM      6  CA  THR B   3      36.956  51.944   9.933  1.00 21.46 LIG 0.20  C 
BRANCH 6 7
ATOM      7  N   THR B   3      38.008  51.713   8.965  1.00 21.22 LIG-0.34  N 
ATOM      8 H    THR B   3      38.534  52.385   8.857  1.00 21.22 LIG 0.16  HD
ATOM      9  C   ARG B   2      38.140  50.581   8.316  1.00 21.22 LIG 0.24  C 
ATOM     10 O    ARG B   2      37.390  49.653   8.474  1.00 22.30 LIG-0.27  OA
BRANCH 9 11
ATOM     11  CA  ARG B   2      39.332  50.489   7.351  1.00 22.28 LIG 0.18  C 
BRANCH 11 12
ATOM     12  CB  ARG B   2      38.891  50.419   5.886  1.00 24.95 LIG 0.04  C 
BRANCH 12 13
ATOM     13  CG  ARG B   2      38.167  51.617   5.311  1.00 25.01 LIG 0.02  C 
BRANCH 13 14
ATOM     14  CD  ARG B   2      37.860  51.358   3.823  1.00 28.81 LIG 0.14  C 
BRANCH 14 15
ATOM     15  NE  ARG B   2      37.879  52.546   2.969  1.00 31.55 LIG-0.23  N 
ATOM     16 HE   ARG B   2      37.151  52.747   2.556  1.00 31.55 LIG 0.18  HD
ATOM     17  CZ  ARG B   2      38.936  53.347   2.777  1.00 33.58 LIG 0.67  C 
ATOM     18  NH2 ARG B   2      40.076  53.150   3.427  1.00 33.13 LIG-0.23  N 
ATOM     19  NH1 ARG B   2      38.847  54.369   1.950  1.00 37.12 LIG-0.23  N 
ATOM     20 1HH2 ARG B   2      40.147  52.498   3.984  1.00 33.13 LIG 0.17  HD
ATOM     21 2HH2 ARG B   2      40.745  53.674   3.292  1.00 33.13 LIG 0.17  HD
ATOM     22 2HH1 ARG B   2      39.525  54.883   1.826  1.00 37.12 LIG 0.17  HD
ATOM     23 1HH1 ARG B   2      38.110  54.522   1.533  1.00 37.12 LIG 0.17  HD
ENDBRANCH 14 15
ENDBRANCH 13 14
ENDBRANCH 12 13
ENDBRANCH 11 12
BRANCH 11 24
ATOM     24  N   ARG B   2      40.079  49.279   7.638  1.00 22.27 LIG-0.35  N 
ATOM     25  C   ALA B   1      40.609  49.099   8.838  1.00 22.85 LIG 0.25  C 
ATOM     26 O    ALA B   1      40.491  49.936   9.740  1.00 22.62 LIG-0.27  OA
ATOM     27 H    ARG B   2      40.139  48.721   6.985  1.00 22.27 LIG 0.16  HD
BRANCH 25 28
ATOM     28  CA  ALA B   1      41.409  47.801   9.038  1.00 23.76 LIG 0.27  C 
ATOM     29  CB  ALA B   1      40.627  46.581   8.569  1.00 24.39 LIG 0.05  C 
BRANCH 28 30
ATOM     30  N   ALA B   1      41.839  47.619  10.419  1.00 25.03 LIG-0.07  N 
ATOM     31 H1   ALA B   1      41.403  46.931  10.778  1.00 25.03 LIG 0.28  HD
ATOM     32 H3   ALA B   1      41.663  48.357  10.885  1.00 25.03 LIG 0.28  HD
ATOM     33 H2   ALA B   1      42.714  47.458  10.439  1.00 25.03 LIG 0.28  HD
ENDBRANCH 28 30
ENDBRANCH 25 28
ENDBRANCH 11 24
ENDBRANCH 9 11
ENDBRANCH 6 7
BRANCH 6 34
ATOM     34  CB  THR B   3      35.585  51.767   9.291  1.00 21.53 LIG 0.15  C 
ATOM     35  CG2 THR B   3      34.504  52.252  10.177  1.00 22.92 LIG 0.04  C 
BRANCH 34 36
ATOM     36 OG1  THR B   3      35.565  52.504   8.077  1.00 22.47 LIG-0.39  OA
ATOM     37 HG1  THR B   3      35.485  51.975   7.430  1.00 22.47 LIG 0.21  HD
ENDBRANCH 34 36
ENDBRANCH 6 34
ENDBRANCH 4 6
ENDBRANCH 1 2
BRANCH 1 38
ATOM     38  CB  LYS B   4      38.284  48.396  12.228  1.00 32.55 LIG 0.04  C 
BRANCH 38 39
ATOM     39  CG  LYS B   4      38.589  46.954  11.938  1.00 30.49 LIG 0.00  C 
BRANCH 39 40
ATOM     40  CD  LYS B   4      38.179  46.079  13.123  1.00 34.18 LIG 0.03  C 
BRANCH 40 41
ATOM     41  CE  LYS B   4      38.256  46.861  14.424  1.00 33.34 LIG 0.23  C 
BRANCH 41 42
ATOM     42  NZ  LYS B   4      38.870  46.100  15.542  1.00 36.76 LIG-0.08  N 
ATOM     43 HZ1  LYS B   4      39.485  45.544  15.220  1.00 36.76 LIG 0.27  HD
ATOM     44 HZ2  LYS B   4      39.253  46.667  16.112  1.00 36.76 LIG 0.27  HD
ATOM     45 HZ3  LYS B   4      38.241  45.635  15.965  1.00 36.76 LIG 0.27  HD
ENDBRANCH 41 42
ENDBRANCH 40 41
ENDBRANCH 39 40
ENDBRANCH 38 39
ENDBRANCH 1 38
BRANCH 1 46
ATOM     46  C   LYS B   4      36.246  49.281  13.289  1.00 34.41 LIG 0.24  C 
ATOM     47  N   GLN B   5      37.063  49.405  14.325  1.00 39.81 LIG-0.35  N 
ATOM     48 H    GLN B   5      37.912  49.269  14.306  1.00 39.81 LIG 0.16  HD
ATOM     49 O    LYS B   4      35.040  49.599  13.326  1.00 33.27 LIG-0.27  OA
BRANCH 47 50
ATOM     50  CA  GLN B   5      36.519  49.806  15.623  1.00 46.50 LIG 0.18  C 
BRANCH 50 51
ATOM     51  C   GLN B   5      35.761  48.668  16.310  1.00 52.91 LIG 0.24  C 
ATOM     52  N   THR B   6      34.747  48.143  15.610  1.00 59.38 LIG-0.34  N 
ATOM     53 H    THR B   6      34.624  48.311  14.775  1.00 59.38 LIG 0.16  HD
ATOM     54 O    GLN B   5      36.044  48.331  17.450  1.00 55.19 LIG-0.27  OA
BRANCH 52 55
ATOM     55  CA  THR B   6      33.720  47.212  16.184  1.00 66.40 LIG 0.20  C 
BRANCH 55 56
ATOM     56  CB  THR B   6      34.340  45.876  16.720  1.00 64.05 LIG 0.15  C 
ATOM     57  CG2 THR B   6      33.344  45.137  17.607  1.00 70.60 LIG 0.04  C 
BRANCH 56 58
ATOM     58 OG1  THR B   6      34.745  45.012  15.644  1.00 62.34 LIG-0.39  OA
ATOM     59 HG1  THR B   6      34.906  45.473  14.960  1.00 62.34 LIG 0.21  HD
ENDBRANCH 56 58
ENDBRANCH 55 56
BRANCH 55 60
ATOM     60  C   THR B   6      32.943  47.830  17.383  1.00 68.19 LIG 0.24  C 
ATOM     61 O    THR B   6      33.481  48.686  18.118  1.00 63.20 LIG-0.27  OA
ATOM     62  N   ALA B   7      31.701  47.380  17.587  1.00 78.65 LIG-0.35  N 
ATOM     63 H    ALA B   7      31.281  46.876  17.030  1.00 78.65 LIG 0.16  HD
BRANCH 62 64
ATOM     64  CA  ALA B   7      30.933  47.710  18.791  1.00 81.14 LIG 0.16  C 
ATOM     65  CB  ALA B   7      29.464  47.963  18.440  1.00 91.84 LIG 0.04  C 
BRANCH 64 66
ATOM     66  C   ALA B   7      31.047  46.578  19.824  1.00 81.58 LIG 0.22  C 
ATOM     67 O    ALA B   7      30.997  45.392  19.482  1.00 77.41 LIG-0.29  OA
ENDBRANCH 64 66
ENDBRANCH 62 64
ENDBRANCH 55 60
ENDBRANCH 52 55
ENDBRANCH 50 51
BRANCH 50 68
ATOM     68  CB  GLN B   5      35.684  51.097  15.569  1.00 52.07 LIG 0.04  C 
BRANCH 68 69
ATOM     69  CG  GLN B   5      35.876  52.119  16.664  1.00 55.77 LIG 0.10  C 
BRANCH 69 70
ATOM     70  CD  GLN B   5      37.135  51.833  17.469  1.00 63.27 LIG 0.21  C 
ATOM     71  NE2 GLN B   5      36.994  51.024  18.502  1.00 63.75 LIG-0.37  N 
ATOM     72 21HE GLN B   5      36.224  50.686  18.681  1.00 63.75 LIG 0.16  HD
ATOM     73 22HE GLN B   5      37.672  50.835  18.996  1.00 63.75 LIG 0.16  HD
ATOM     74 OE1  GLN B   5      38.202  52.334  17.177  1.00 68.43 LIG-0.27  OA
ENDBRANCH 69 70
ENDBRANCH 68 69
ENDBRANCH 50 68
ENDBRANCH 47 50
ENDBRANCH 1 46
TORSDOF 30
ENDMDL
MODEL 39
USER: ADFR SOLUTION from run 16
USER: SCORE 23.044767 LL:  -4.361 LR: -20.282 RR:   0.000 FEB: -11.333
USER: RMSD 9.927575
USER: SEED 442149
USER: STATUS 1 or 2 clusters left
USER: GENES 32
USER: genes 0 Translation |==|  0.46272 0.24120 0.52176
USER: genes 1 Rotation |==|  0.46114 0.77108 0.12187 0.67896
USER: genes 2 Torsion [C]-CA--N-[C] |==|  0.15499
USER: genes 3 Torsion [N]-C--CA-[N] |==|  0.37484
USER: genes 4 Torsion [C]-CA--N-[C] |==|  0.77863
USER: genes 5 Torsion [N]-C--CA-[N] |==|  0.86721
USER: genes 6 Torsion [C]-CA--CB-[CG] |==|  0.03297
USER: genes 7 Torsion [CA]-CB--CG-[CD] |==|  0.57935
USER: genes 8 Torsion [CB]-CG--CD-[NE] |==|  0.24734
USER: genes 9 Torsion [CG]-CD--NE-[CZ] |==|  0.21330
USER: genes 10 Torsion [C]-CA--N-[C] |==|  0.83887
USER: genes 11 Torsion [N]-C--CA-[N] |==|  0.93394
USER: genes 12 Torsion [C]-CA--N-[H1] |==|  0.38183
USER: genes 13 Torsion [C]-CA--CB-[CG2] |==|  0.75418
USER: genes 14 Torsion [CA]-CB--OG1-[HG1] |==|  0.16217
USER: genes 15 Torsion [N]-CA--CB-[CG] |==|  0.59202
USER: genes 16 Torsion [CA]-CB--CG-[CD] |==|  0.09013
USER: genes 17 Torsion [CB]-CG--CD-[CE] |==|  0.42923
USER: genes 18 Torsion [CG]-CD--CE-[NZ] |==|  0.72919
USER: genes 19 Torsion [CD]-CE--NZ-[HZ1] |==|  0.03061
USER: genes 20 Torsion [N]-CA--C-[N] |==|  0.10744
USER: genes 21 Torsion [C]-N--CA-[CB] |==|  0.45100
USER: genes 22 Torsion [N]-CA--C-[N] |==|  0.51111
USER: genes 23 Torsion [C]-N--CA-[CB] |==|  0.86002
USER: genes 24 Torsion [N]-CA--CB-[CG2] |==|  0.30661
USER: genes 25 Torsion [CA]-CB--OG1-[HG1] |==|  0.98960
USER: genes 26 Torsion [N]-CA--C-[N] |==|  0.38327
USER: genes 27 Torsion [C]-N--CA-[CB] |==|  0.84376
USER: genes 28 Torsion [N]-CA--C-[O] |==|  0.08261
USER: genes 29 Torsion [N]-CA--CB-[CG] |==|  0.16639
USER: genes 30 Torsion [CA]-CB--CG-[CD] |==|  0.19748
USER: genes 31 Torsion [CB]-CG--CD-[NE2] |==|  0.24968
ROOT
ATOM      1  CA  LYS B   4      33.503  49.296  11.333  1.00 30.17 LIG 0.18  C 
ENDROOT
BRANCH 1 2
ATOM      2  N   LYS B   4      32.810  48.767  12.492  1.00 25.68 LIG-0.35  N 
ATOM      3 H    LYS B   4      32.442  48.001  12.358  1.00 25.68 LIG 0.16  HD
ATOM      4  C   THR B   3      32.753  49.419  13.658  1.00 23.58 LIG 0.24  C 
ATOM      5 O    THR B   3      33.300  50.510  13.861  1.00 24.56 LIG-0.27  OA
BRANCH 4 6
ATOM      6  CA  THR B   3      31.942  48.754  14.772  1.00 21.46 LIG 0.20  C 
BRANCH 6 7
ATOM      7  N   THR B   3      32.646  48.786  16.037  1.00 21.22 LIG-0.34  N 
ATOM      8 H    THR B   3      32.378  49.406  16.568  1.00 21.22 LIG 0.16  HD
ATOM      9  C   ARG B   2      33.604  47.942  16.339  1.00 21.22 LIG 0.24  C 
ATOM     10 O    ARG B   2      33.973  47.083  15.581  1.00 22.30 LIG-0.27  OA
BRANCH 9 11
ATOM     11  CA  ARG B   2      34.222  48.091  17.738  1.00 22.28 LIG 0.18  C 
BRANCH 11 12
ATOM     12  CB  ARG B   2      33.265  47.641  18.846  1.00 24.95 LIG 0.04  C 
BRANCH 12 13
ATOM     13  CG  ARG B   2      32.021  46.883  18.439  1.00 25.01 LIG 0.02  C 
BRANCH 13 14
ATOM     14  CD  ARG B   2      30.908  47.141  19.472  1.00 28.81 LIG 0.14  C 
BRANCH 14 15
ATOM     15  NE  ARG B   2      30.065  48.306  19.199  1.00 31.55 LIG-0.23  N 
ATOM     16 HE   ARG B   2      30.210  49.016  19.663  1.00 31.55 LIG 0.18  HD
ATOM     17  CZ  ARG B   2      29.085  48.358  18.285  1.00 33.58 LIG 0.67  C 
ATOM     18  NH2 ARG B   2      28.840  47.332  17.480  1.00 33.13 LIG-0.23  N 
ATOM     19  NH1 ARG B   2      28.363  49.452  18.156  1.00 37.12 LIG-0.23  N 
ATOM     20 1HH2 ARG B   2      29.314  46.616  17.538  1.00 33.13 LIG 0.17  HD
ATOM     21 2HH2 ARG B   2      28.208  47.382  16.899  1.00 33.13 LIG 0.17  HD
ATOM     22 2HH1 ARG B   2      27.734  49.486  17.569  1.00 37.12 LIG 0.17  HD
ATOM     23 1HH1 ARG B   2      28.519  50.133  18.657  1.00 37.12 LIG 0.17  HD
ENDBRANCH 14 15
ENDBRANCH 13 14
ENDBRANCH 12 13
ENDBRANCH 11 12
BRANCH 11 24
ATOM     24  N   ARG B   2      34.532  49.489  17.971  1.00 22.27 LIG-0.35  N 
ATOM     25  C   ALA B   1      35.346  50.130  17.149  1.00 22.85 LIG 0.25  C 
ATOM     26 O    ALA B   1      35.863  49.576  16.172  1.00 22.62 LIG-0.27  OA
ATOM     27 H    ARG B   2      34.153  49.838  18.661  1.00 22.27 LIG 0.16  HD
BRANCH 25 28
ATOM     28  CA  ALA B   1      35.640  51.600  17.495  1.00 23.76 LIG 0.27  C 
ATOM     29  CB  ALA B   1      36.991  51.755  18.183  1.00 24.39 LIG 0.05  C 
BRANCH 28 30
ATOM     30  N   ALA B   1      34.592  52.201  18.311  1.00 25.03 LIG-0.07  N 
ATOM     31 H1   ALA B   1      34.961  52.692  18.955  1.00 25.03 LIG 0.28  HD
ATOM     32 H3   ALA B   1      34.094  51.559  18.676  1.00 25.03 LIG 0.28  HD
ATOM     33 H2   ALA B   1      34.079  52.719  17.801  1.00 25.03 LIG 0.28  HD
ENDBRANCH 28 30
ENDBRANCH 25 28
ENDBRANCH 11 24
ENDBRANCH 9 11
ENDBRANCH 6 7
BRANCH 6 34
ATOM     34  CB  THR B   3      30.578  49.422  14.898  1.00 21.53 LIG 0.15  C 
ATOM     35  CG2 THR B   3      30.621  50.572  15.826  1.00 22.92 LIG 0.04  C 
BRANCH 34 36
ATOM     36 OG1  THR B   3      30.183  49.870  13.609  1.00 22.47 LIG-0.39  OA
ATOM     37 HG1  THR B   3      30.158  49.217  13.081  1.00 22.47 LIG 0.21  HD
ENDBRANCH 34 36
ENDBRANCH 6 34
ENDBRANCH 4 6
ENDBRANCH 1 2
BRANCH 1 38
ATOM     38  CB  LYS B   4      32.820  50.550  10.857  1.00 32.55 LIG 0.04  C 
BRANCH 38 39
ATOM     39  CG  LYS B   4      32.888  50.732   9.367  1.00 30.49 LIG 0.00  C 
BRANCH 39 40
ATOM     40  CD  LYS B   4      32.873  49.372   8.669  1.00 34.18 LIG 0.03  C 
BRANCH 40 41
ATOM     41  CE  LYS B   4      32.323  49.494   7.258  1.00 33.34 LIG 0.23  C 
BRANCH 41 42
ATOM     42  NZ  LYS B   4      30.885  49.143   7.144  1.00 36.76 LIG-0.08  N 
ATOM     43 HZ1  LYS B   4      30.533  49.068   7.958  1.00 36.76 LIG 0.27  HD
ATOM     44 HZ2  LYS B   4      30.458  49.781   6.695  1.00 36.76 LIG 0.27  HD
ATOM     45 HZ3  LYS B   4      30.801  48.370   6.712  1.00 36.76 LIG 0.27  HD
ENDBRANCH 41 42
ENDBRANCH 40 41
ENDBRANCH 39 40
ENDBRANCH 38 39
ENDBRANCH 1 38
BRANCH 1 46
ATOM     46  C   LYS B   4      34.930  49.594  11.691  1.00 34.41 LIG 0.24  C 
ATOM     47  N   GLN B   5      35.540  48.736  12.497  1.00 39.81 LIG-0.35  N 
ATOM     48 H    GLN B   5      35.206  47.995  12.777  1.00 39.81 LIG 0.16  HD
ATOM     49 O    LYS B   4      35.490  50.601  11.213  1.00 33.27 LIG-0.27  OA
BRANCH 47 50
ATOM     50  CA  GLN B   5      36.891  49.036  12.972  1.00 46.50 LIG 0.18  C 
BRANCH 50 51
ATOM     51  C   GLN B   5      37.932  48.950  11.853  1.00 52.91 LIG 0.24  C 
ATOM     52  N   THR B   6      39.204  49.131  12.232  1.00 59.38 LIG-0.34  N 
ATOM     53 H    THR B   6      39.446  49.135  13.057  1.00 59.38 LIG 0.16  HD
ATOM     54 O    GLN B   5      37.585  48.794  10.692  1.00 55.19 LIG-0.27  OA
BRANCH 52 55
ATOM     55  CA  THR B   6      40.343  49.347  11.280  1.00 66.40 LIG 0.20  C 
BRANCH 55 56
ATOM     56  CB  THR B   6      40.393  48.275  10.137  1.00 64.05 LIG 0.15  C 
ATOM     57  CG2 THR B   6      40.032  48.901   8.795  1.00 70.60 LIG 0.04  C 
BRANCH 56 58
ATOM     58 OG1  THR B   6      41.693  47.666  10.040  1.00 62.34 LIG-0.39  OA
ATOM     59 HG1  THR B   6      42.216  48.034  10.586  1.00 62.34 LIG 0.21  HD
ENDBRANCH 56 58
ENDBRANCH 55 56
BRANCH 55 60
ATOM     60  C   THR B   6      40.284  50.728  10.563  1.00 68.19 LIG 0.24  C 
ATOM     61 O    THR B   6      39.202  51.167  10.116  1.00 63.20 LIG-0.27  OA
ATOM     62  N   ALA B   7      41.439  51.388  10.440  1.00 78.65 LIG-0.35  N 
ATOM     63 H    ALA B   7      42.166  51.152  10.835  1.00 78.65 LIG 0.16  HD
BRANCH 62 64
ATOM     64  CA  ALA B   7      41.574  52.589   9.610  1.00 81.14 LIG 0.16  C 
ATOM     65  CB  ALA B   7      41.142  52.299   8.170  1.00 91.84 LIG 0.04  C 
BRANCH 64 66
ATOM     66  C   ALA B   7      40.738  53.739  10.196  1.00 81.58 LIG 0.22  C 
ATOM     67 O    ALA B   7      40.527  53.823  11.409  1.00 77.41 LIG-0.29  OA
ENDBRANCH 64 66
ENDBRANCH 62 64
ENDBRANCH 55 60
ENDBRANCH 52 55
ENDBRANCH 50 51
BRANCH 50 68
ATOM     68  CB  GLN B   5      37.309  48.214  14.204  1.00 52.07 LIG 0.04  C 
BRANCH 68 69
ATOM     69  CG  GLN B   5      37.334  46.709  14.084  1.00 55.77 LIG 0.10  C 
BRANCH 69 70
ATOM     70  CD  GLN B   5      38.487  46.247  13.204  1.00 63.27 LIG 0.21  C 
ATOM     71  NE2 GLN B   5      39.629  46.009  13.819  1.00 63.75 LIG-0.37  N 
ATOM     72 21HE GLN B   5      39.688  46.110  14.671  1.00 63.75 LIG 0.16  HD
ATOM     73 22HE GLN B   5      40.315  45.753  13.368  1.00 63.75 LIG 0.16  HD
ATOM     74 OE1  GLN B   5      38.356  46.118  12.003  1.00 68.43 LIG-0.27  OA
ENDBRANCH 69 70
ENDBRANCH 68 69
ENDBRANCH 50 68
ENDBRANCH 47 50
ENDBRANCH 1 46
TORSDOF 30
ENDMDL
