MODEL 1
USER: ADFR SOLUTION from run 100
USER: SCORE 22.538172 LL:  -6.927 LR: -16.620 RR:   0.000 FEB:  -7.671
USER: RMSD 6.536824
USER: SEED 99
USER: STATUS no improvement in best in 21 clusters for 5 generations
USER: GENES 32
USER: genes 0 Translation |==|  0.52805 0.67335 0.32510
USER: genes 1 Rotation |==|  0.03813 0.65357 0.59739 0.56006
USER: genes 2 Torsion [N]-CA--C-[N] |==|  0.95483
USER: genes 3 Torsion [C]-N--CA-[C] |==|  0.62660
USER: genes 4 Torsion [N]-CA--C-[N] |==|  0.11765
USER: genes 5 Torsion [C]-N--CA-[C] |==|  0.78318
USER: genes 6 Torsion [N]-CA--C-[N] |==|  0.27222
USER: genes 7 Torsion [C]-N--CA-[CB] |==|  0.45237
USER: genes 8 Torsion [N]-CA--CB-[CG] |==|  0.57175
USER: genes 9 Torsion [CA]-CB--CG-[CD] |==|  0.17873
USER: genes 10 Torsion [CB]-CG--CD-[NE2] |==|  0.48824
USER: genes 11 Torsion [N]-CA--C-[O] |==|  0.22217
USER: genes 12 Torsion [N]-CA--CB-[CG] |==|  0.07935
USER: genes 13 Torsion [CA]-CB--CG-[CD2] |==|  0.61043
USER: genes 14 Torsion [N]-CA--CB-[CG] |==|  0.73756
USER: genes 15 Torsion [CA]-CB--CG-[CD1] |==|  0.86663
USER: genes 16 Torsion [C]-CA--CB-[CG] |==|  0.39084
USER: genes 17 Torsion [CA]-CB--CG-[CD] |==|  0.10720
USER: genes 18 Torsion [CB]-CG--CD-[NE] |==|  0.33278
USER: genes 19 Torsion [CG]-CD--NE-[CZ] |==|  0.52514
USER: genes 20 Torsion [C]-CA--N-[C] |==|  0.82217
USER: genes 21 Torsion [N]-C--CA-[N] |==|  0.37160
USER: genes 22 Torsion [C]-CA--CB-[CG] |==|  0.17164
USER: genes 23 Torsion [CA]-CB--CG-[ND1] |==|  0.06219
USER: genes 24 Torsion [C]-CA--N-[C] |==|  0.73739
USER: genes 25 Torsion [N]-C--CA-[N] |==|  0.39555
USER: genes 26 Torsion [C]-CA--CB-[CG] |==|  0.36457
USER: genes 27 Torsion [CA]-CB--CG-[CD2] |==|  0.21417
USER: genes 28 Torsion [C]-CA--N-[C] |==|  0.60926
USER: genes 29 Torsion [N]-C--CA-[N] |==|  0.92812
USER: genes 30 Torsion [C]-CA--CB-[CG1] |==|  0.25479
USER: genes 31 Torsion [CA]-CB--CG1-[CD1] |==|  0.62916
ROOT
ATOM      1  CA  ARG D 692      10.234 -11.752  35.508  1.00 48.73 LIG 0.18  C 
ENDROOT
BRANCH 1 2
ATOM      2  C   ARG D 692       8.724 -11.756  35.678  1.00 46.10 LIG 0.24  C 
ATOM      3  N   LEU D 693       8.172 -12.794  36.303  1.00 50.64 LIG-0.35  N 
ATOM      4 H    LEU D 693       8.604 -13.457  36.637  1.00 50.64 LIG 0.16  HD
ATOM      5 O    ARG D 692       8.040 -10.870  35.168  1.00 52.04 LIG-0.27  OA
BRANCH 3 6
ATOM      6  CA  LEU D 693       6.715 -12.845  36.453  1.00 43.34 LIG 0.18  C 
BRANCH 6 7
ATOM      7  C   LEU D 693       6.298 -13.238  37.864  1.00 37.95 LIG 0.24  C 
ATOM      8  N   LEU D 694       6.972 -12.681  38.849  1.00 39.22 LIG-0.35  N 
ATOM      9 H    LEU D 694       7.645 -12.160  38.729  1.00 39.22 LIG 0.16  HD
ATOM     10 O    LEU D 693       5.392 -14.061  38.042  1.00 43.86 LIG-0.27  OA
BRANCH 8 11
ATOM     11  CA  LEU D 694       6.637 -12.897  40.232  1.00 38.59 LIG 0.18  C 
BRANCH 11 12
ATOM     12  C   LEU D 694       5.454 -12.053  40.578  1.00 46.22 LIG 0.24  C 
ATOM     13  N   GLN D 695       4.293 -12.683  40.550  1.00 66.87 LIG-0.35  N 
ATOM     14 H    GLN D 695       4.234 -13.492  40.265  1.00 66.87 LIG 0.16  HD
ATOM     15 O    LEU D 694       5.600 -10.879  40.798  1.00 54.70 LIG-0.27  OA
BRANCH 13 16
ATOM     16  CA  GLN D 695       2.988 -12.154  40.968  1.00 62.86 LIG 0.16  C 
BRANCH 16 17
ATOM     17  CB  GLN D 695       1.869 -12.990  40.410  1.00 63.26 LIG 0.04  C 
BRANCH 17 18
ATOM     18  CG  GLN D 695       0.601 -12.190  40.271  1.00 77.24 LIG 0.10  C 
BRANCH 18 19
ATOM     19  CD  GLN D 695       0.726 -11.093  39.294  1.00 84.08 LIG 0.21  C 
ATOM     20 OE1  GLN D 695       1.789 -10.877  38.746  1.00 83.40 LIG-0.27  OA
ATOM     21  NE2 GLN D 695      -0.365 -10.393  39.045  1.00 79.17 LIG-0.37  N 
ATOM     22 22HE GLN D 695      -0.342  -9.752  38.472  1.00 79.17 LIG 0.16  HD
ATOM     23 21HE GLN D 695      -1.097 -10.578  39.455  1.00 79.17 LIG 0.16  HD
ENDBRANCH 18 19
ENDBRANCH 17 18
ENDBRANCH 16 17
BRANCH 16 24
ATOM     24  C   GLN D 695       2.799 -11.898  42.462  1.00 61.14 LIG 0.22  C 
ATOM     25 O    GLN D 695       3.248 -10.877  42.991  1.00 66.66 LIG-0.29  OA
ENDBRANCH 16 24
ENDBRANCH 13 16
ENDBRANCH 11 12
BRANCH 11 26
ATOM     26  CB  LEU D 694       7.773 -12.491  41.146  1.00 34.51 LIG 0.04  C 
BRANCH 26 27
ATOM     27  CG  LEU D 694       8.733 -11.404  40.728  1.00 27.71 LIG-0.02  C 
ATOM     28  CD2 LEU D 694      10.156 -11.698  41.099  1.00 26.48 LIG 0.01  C 
ATOM     29  CD1 LEU D 694       8.310 -10.034  41.171  1.00 27.00 LIG 0.01  C 
ENDBRANCH 26 27
ENDBRANCH 11 26
ENDBRANCH 8 11
ENDBRANCH 6 7
BRANCH 6 30
ATOM     30  CB  LEU D 693       6.055 -13.767  35.413  1.00 45.67 LIG 0.04  C 
BRANCH 30 31
ATOM     31  CG  LEU D 693       5.543 -13.081  34.136  1.00 55.29 LIG-0.02  C 
ATOM     32  CD1 LEU D 693       4.722 -11.845  34.476  1.00 47.80 LIG 0.01  C 
ATOM     33  CD2 LEU D 693       6.679 -12.752  33.157  1.00 51.02 LIG 0.01  C 
ENDBRANCH 30 31
ENDBRANCH 6 30
ENDBRANCH 3 6
ENDBRANCH 1 2
BRANCH 1 34
ATOM     34  CB  ARG D 692      10.560 -11.932  34.011  1.00 49.09 LIG 0.04  C 
BRANCH 34 35
ATOM     35  CG  ARG D 692      11.749 -11.048  33.585  1.00 50.62 LIG 0.02  C 
BRANCH 35 36
ATOM     36  CD  ARG D 692      12.865 -10.946  34.615  1.00 57.04 LIG 0.14  C 
BRANCH 36 37
ATOM     37  NE  ARG D 692      14.099 -11.452  34.044  1.00 60.90 LIG-0.23  N 
ATOM     38 HE   ARG D 692      14.105 -11.628  33.203  1.00 60.90 LIG 0.18  HD
ATOM     39  CZ  ARG D 692      15.215 -11.664  34.724  1.00 61.50 LIG 0.67  C 
ATOM     40  NH1 ARG D 692      15.242 -11.498  36.046  1.00 46.48 LIG-0.23  N 
ATOM     41  NH2 ARG D 692      16.295 -12.088  34.081  1.00 64.68 LIG-0.23  N 
ATOM     42 1HH1 ARG D 692      14.530 -11.252  36.462  1.00 46.48 LIG 0.17  HD
ATOM     43 2HH1 ARG D 692      15.970 -11.637  36.482  1.00 46.48 LIG 0.17  HD
ATOM     44 1HH2 ARG D 692      16.265 -12.223  33.232  1.00 64.68 LIG 0.17  HD
ATOM     45 2HH2 ARG D 692      17.026 -12.228  34.513  1.00 64.68 LIG 0.17  HD
ENDBRANCH 36 37
ENDBRANCH 35 36
ENDBRANCH 34 35
ENDBRANCH 1 34
BRANCH 1 46
ATOM     46  N   ARG D 692      10.980 -12.700  36.369  1.00 43.06 LIG-0.35  N 
ATOM     47  C   HIS D 691      10.986 -12.591  37.687  1.00 44.11 LIG 0.24  C 
ATOM     48 O    HIS D 691      10.417 -11.692  38.289  1.00 43.39 LIG-0.27  OA
ATOM     49 H    ARG D 692      11.399 -13.315  35.938  1.00 43.06 LIG 0.16  HD
BRANCH 47 50
ATOM     50  CA  HIS D 691      11.734 -13.646  38.407  1.00 41.80 LIG 0.18  C 
BRANCH 50 51
ATOM     51  CB  HIS D 691      10.703 -14.507  39.054  1.00 51.00 LIG 0.10  C 
BRANCH 51 52
ATOM     52  CG  HIS D 691       9.791 -15.174  38.110  1.00 57.86 LIG 0.06  A 
ATOM     53 ND1  HIS D 691      10.109 -15.385  36.845  1.00 60.60 LIG-0.24  NA
ATOM     54  CE1 HIS D 691       9.099 -15.998  36.235  1.00 72.50 LIG 0.23  A 
ATOM     55 NE2  HIS D 691       8.117 -16.160  37.116  1.00 67.35 LIG-0.25  NA
ATOM     56  CD2 HIS D 691       8.508 -15.659  38.280  1.00 66.29 LIG 0.14  A 
ENDBRANCH 51 52
ENDBRANCH 50 51
BRANCH 50 57
ATOM     57  N   HIS D 691      12.588 -13.077  39.426  1.00 39.94 LIG-0.35  N 
ATOM     58 H    HIS D 691      12.190 -12.941  40.176  1.00 39.94 LIG 0.16  HD
ATOM     59  C   LEU D 690      13.863 -12.793  39.217  1.00 35.88 LIG 0.24  C 
ATOM     60 O    LEU D 690      14.444 -13.013  38.133  1.00 34.66 LIG-0.27  OA
BRANCH 59 61
ATOM     61  CA  LEU D 690      14.599 -12.120  40.352  1.00 33.43 LIG 0.18  C 
BRANCH 61 62
ATOM     62  CB  LEU D 690      14.600 -10.605  40.141  1.00 31.34 LIG 0.04  C 
BRANCH 62 63
ATOM     63  CG  LEU D 690      14.187  -9.752  41.336  1.00 30.93 LIG-0.02  C 
ATOM     64  CD1 LEU D 690      12.969 -10.361  42.012  1.00 30.90 LIG 0.01  C 
ATOM     65  CD2 LEU D 690      15.333  -9.672  42.326  1.00 28.62 LIG 0.01  C 
ENDBRANCH 62 63
ENDBRANCH 61 62
BRANCH 61 66
ATOM     66  N   LEU D 690      15.975 -12.609  40.459  1.00 35.22 LIG-0.35  N 
ATOM     67 H    LEU D 690      16.365 -12.739  39.703  1.00 35.22 LIG 0.16  HD
ATOM     68  C   ILE D 689      16.551 -12.826  41.635  1.00 41.04 LIG 0.26  C 
ATOM     69 O    ILE D 689      15.988 -12.579  42.711  1.00 39.56 LIG-0.27  OA
BRANCH 68 70
ATOM     70  CA  ILE D 689      17.998 -13.360  41.585  1.00 40.35 LIG 0.40  C 
ATOM     71  N   ILE D 689      18.295 -14.116  40.306  1.00 40.45 LIG 0.61  N 
BRANCH 70 72
ATOM     72  CB  ILE D 689      18.947 -12.154  41.787  1.00 42.26 LIG 0.03  C 
ATOM     73  CG2 ILE D 689      18.348 -10.877  41.169  1.00 38.55 LIG 0.01  C 
BRANCH 72 74
ATOM     74  CG1 ILE D 689      19.296 -11.954  43.265  1.00 45.91 LIG 0.00  C 
ATOM     75  CD1 ILE D 689      19.188 -10.508  43.750  1.00 45.96 LIG 0.01  C 
ENDBRANCH 72 74
ENDBRANCH 70 72
ENDBRANCH 68 70
ENDBRANCH 61 66
ENDBRANCH 59 61
ENDBRANCH 50 57
ENDBRANCH 47 50
ENDBRANCH 1 46
TORSDOF 30
ENDMDL
MODEL 2
USER: ADFR SOLUTION from run 131
USER: SCORE 21.236134 LL:  -6.080 LR: -15.950 RR:   0.000 FEB:  -7.001
USER: RMSD 5.869426
USER: SEED 130
USER: STATUS no improvement in best in 41 clusters for 5 generations
USER: GENES 32
USER: genes 0 Translation |==|  0.53088 0.65217 0.32334
USER: genes 1 Rotation |==|  0.03160 0.61442 0.60557 0.57974
USER: genes 2 Torsion [N]-CA--C-[N] |==|  0.91503
USER: genes 3 Torsion [C]-N--CA-[C] |==|  0.60950
USER: genes 4 Torsion [N]-CA--C-[N] |==|  0.45619
USER: genes 5 Torsion [C]-N--CA-[C] |==|  0.69243
USER: genes 6 Torsion [N]-CA--C-[N] |==|  0.18163
USER: genes 7 Torsion [C]-N--CA-[CB] |==|  0.26668
USER: genes 8 Torsion [N]-CA--CB-[CG] |==|  0.55791
USER: genes 9 Torsion [CA]-CB--CG-[CD] |==|  0.35675
USER: genes 10 Torsion [CB]-CG--CD-[NE2] |==|  0.44236
USER: genes 11 Torsion [N]-CA--C-[O] |==|  0.26128
USER: genes 12 Torsion [N]-CA--CB-[CG] |==|  0.00118
USER: genes 13 Torsion [CA]-CB--CG-[CD2] |==|  0.81000
USER: genes 14 Torsion [N]-CA--CB-[CG] |==|  0.74194
USER: genes 15 Torsion [CA]-CB--CG-[CD1] |==|  0.87668
USER: genes 16 Torsion [C]-CA--CB-[CG] |==|  0.39354
USER: genes 17 Torsion [CA]-CB--CG-[CD] |==|  0.11384
USER: genes 18 Torsion [CB]-CG--CD-[NE] |==|  0.31014
USER: genes 19 Torsion [CG]-CD--NE-[CZ] |==|  0.52584
USER: genes 20 Torsion [C]-CA--N-[C] |==|  0.84635
USER: genes 21 Torsion [N]-C--CA-[N] |==|  0.41940
USER: genes 22 Torsion [C]-CA--CB-[CG] |==|  0.21021
USER: genes 23 Torsion [CA]-CB--CG-[ND1] |==|  0.60300
USER: genes 24 Torsion [C]-CA--N-[C] |==|  0.81998
USER: genes 25 Torsion [N]-C--CA-[N] |==|  0.38741
USER: genes 26 Torsion [C]-CA--CB-[CG] |==|  0.83756
USER: genes 27 Torsion [CA]-CB--CG-[CD2] |==|  0.71307
USER: genes 28 Torsion [C]-CA--N-[C] |==|  0.84851
USER: genes 29 Torsion [N]-C--CA-[N] |==|  0.52843
USER: genes 30 Torsion [C]-CA--CB-[CG1] |==|  0.23679
USER: genes 31 Torsion [CA]-CB--CG1-[CD1] |==|  0.17904
ROOT
ATOM      1  CA  ARG D 692      10.298 -12.149  35.474  1.00 48.73 LIG 0.18  C 
ENDROOT
BRANCH 1 2
ATOM      2  C   ARG D 692       8.802 -12.383  35.603  1.00 46.10 LIG 0.24  C 
ATOM      3  N   LEU D 693       8.385 -13.629  35.815  1.00 50.64 LIG-0.35  N 
ATOM      4 H    LEU D 693       8.896 -14.314  35.904  1.00 50.64 LIG 0.16  HD
ATOM      5 O    ARG D 692       8.011 -11.458  35.424  1.00 52.04 LIG-0.27  OA
BRANCH 3 6
ATOM      6  CA  LEU D 693       6.946 -13.895  35.911  1.00 43.34 LIG 0.18  C 
BRANCH 6 7
ATOM      7  C   LEU D 693       6.622 -14.918  36.992  1.00 37.95 LIG 0.24  C 
ATOM      8  N   LEU D 694       5.363 -14.985  37.374  1.00 39.22 LIG-0.35  N 
ATOM      9 H    LEU D 694       4.749 -14.460  37.081  1.00 39.22 LIG 0.16  HD
ATOM     10 O    LEU D 693       7.519 -15.612  37.485  1.00 43.86 LIG-0.27  OA
BRANCH 8 11
ATOM     11  CA  LEU D 694       4.898 -15.957  38.328  1.00 38.59 LIG 0.18  C 
BRANCH 11 12
ATOM     12  C   LEU D 694       4.024 -16.943  37.622  1.00 46.22 LIG 0.24  C 
ATOM     13  N   GLN D 695       4.640 -17.688  36.722  1.00 66.87 LIG-0.35  N 
ATOM     14 H    GLN D 695       5.460 -17.541  36.509  1.00 66.87 LIG 0.16  HD
ATOM     15 O    LEU D 694       2.844 -16.970  37.854  1.00 54.70 LIG-0.27  OA
BRANCH 13 16
ATOM     16  CA  GLN D 695       4.077 -18.820  35.974  1.00 62.86 LIG 0.16  C 
BRANCH 16 17
ATOM     17  CB  GLN D 695       3.583 -18.377  34.624  1.00 63.26 LIG 0.04  C 
BRANCH 17 18
ATOM     18  CG  GLN D 695       2.580 -19.348  34.060  1.00 77.24 LIG 0.10  C 
BRANCH 18 19
ATOM     19  CD  GLN D 695       1.335 -18.689  33.623  1.00 84.08 LIG 0.21  C 
ATOM     20 OE1  GLN D 695       1.043 -17.587  34.044  1.00 83.40 LIG-0.27  OA
ATOM     21  NE2 GLN D 695       0.589 -19.346  32.755  1.00 79.17 LIG-0.37  N 
ATOM     22 22HE GLN D 695      -0.139 -18.995  32.463  1.00 79.17 LIG 0.16  HD
ATOM     23 21HE GLN D 695       0.831 -20.124  32.482  1.00 79.17 LIG 0.16  HD
ENDBRANCH 18 19
ENDBRANCH 17 18
ENDBRANCH 16 17
BRANCH 16 24
ATOM     24  C   GLN D 695       4.949 -20.070  35.864  1.00 61.14 LIG 0.22  C 
ATOM     25 O    GLN D 695       4.830 -20.998  36.669  1.00 66.66 LIG-0.29  OA
ENDBRANCH 16 24
ENDBRANCH 13 16
ENDBRANCH 11 12
BRANCH 11 26
ATOM     26  CB  LEU D 694       4.071 -15.310  39.418  1.00 34.51 LIG 0.04  C 
BRANCH 26 27
ATOM     27  CG  LEU D 694       3.821 -13.822  39.401  1.00 27.71 LIG-0.02  C 
ATOM     28  CD2 LEU D 694       5.056 -13.013  39.661  1.00 26.48 LIG 0.01  C 
ATOM     29  CD1 LEU D 694       2.678 -13.400  40.278  1.00 27.00 LIG 0.01  C 
ENDBRANCH 26 27
ENDBRANCH 11 26
ENDBRANCH 8 11
ENDBRANCH 6 7
BRANCH 6 30
ATOM     30  CB  LEU D 693       6.342 -14.318  34.561  1.00 45.67 LIG 0.04  C 
BRANCH 30 31
ATOM     31  CG  LEU D 693       5.751 -13.186  33.706  1.00 55.29 LIG-0.02  C 
ATOM     32  CD1 LEU D 693       4.911 -12.243  34.557  1.00 47.80 LIG 0.01  C 
ATOM     33  CD2 LEU D 693       6.829 -12.427  32.919  1.00 51.02 LIG 0.01  C 
ENDBRANCH 30 31
ENDBRANCH 6 30
ENDBRANCH 3 6
ENDBRANCH 1 2
BRANCH 1 34
ATOM     34  CB  ARG D 692      10.661 -12.115  33.975  1.00 49.09 LIG 0.04  C 
BRANCH 34 35
ATOM     35  CG  ARG D 692      11.735 -11.048  33.681  1.00 50.62 LIG 0.02  C 
BRANCH 35 36
ATOM     36  CD  ARG D 692      12.848 -10.967  34.716  1.00 57.04 LIG 0.14  C 
BRANCH 36 37
ATOM     37  NE  ARG D 692      14.091 -11.427  34.127  1.00 60.90 LIG-0.23  N 
ATOM     38 HE   ARG D 692      14.102 -11.565  33.278  1.00 60.90 LIG 0.18  HD
ATOM     39  CZ  ARG D 692      15.210 -11.649  34.800  1.00 61.50 LIG 0.67  C 
ATOM     40  NH1 ARG D 692      15.231 -11.542  36.127  1.00 46.48 LIG-0.23  N 
ATOM     41  NH2 ARG D 692      16.298 -12.026  34.141  1.00 64.68 LIG-0.23  N 
ATOM     42 1HH1 ARG D 692      14.515 -11.327  36.552  1.00 46.48 LIG 0.17  HD
ATOM     43 2HH1 ARG D 692      15.961 -11.688  36.558  1.00 46.48 LIG 0.17  HD
ATOM     44 1HH2 ARG D 692      16.272 -12.124  33.287  1.00 64.68 LIG 0.17  HD
ATOM     45 2HH2 ARG D 692      17.030 -12.174  34.568  1.00 64.68 LIG 0.17  HD
ENDBRANCH 36 37
ENDBRANCH 35 36
ENDBRANCH 34 35
ENDBRANCH 1 34
BRANCH 1 46
ATOM     46  N   ARG D 692      11.162 -13.073  36.246  1.00 43.06 LIG-0.35  N 
ATOM     47  C   HIS D 691      11.023 -13.234  37.551  1.00 44.11 LIG 0.24  C 
ATOM     48 O    HIS D 691      10.208 -12.617  38.221  1.00 43.39 LIG-0.27  OA
ATOM     49 H    ARG D 692      11.750 -13.486  35.772  1.00 43.06 LIG 0.16  HD
BRANCH 47 50
ATOM     50  CA  HIS D 691      11.926 -14.232  38.166  1.00 41.80 LIG 0.18  C 
BRANCH 50 51
ATOM     51  CB  HIS D 691      11.195 -15.530  38.117  1.00 51.00 LIG 0.10  C 
BRANCH 51 52
ATOM     52  CG  HIS D 691      11.159 -16.156  36.785  1.00 57.86 LIG 0.06  A 
ATOM     53 ND1  HIS D 691      10.101 -16.809  36.337  1.00 60.60 LIG-0.24  NA
ATOM     54  CE1 HIS D 691      10.354 -17.269  35.115  1.00 72.50 LIG 0.23  A 
ATOM     55 NE2  HIS D 691      11.596 -16.922  34.789  1.00 67.35 LIG-0.25  NA
ATOM     56  CD2 HIS D 691      12.122 -16.240  35.797  1.00 66.29 LIG 0.14  A 
ENDBRANCH 51 52
ENDBRANCH 50 51
BRANCH 50 57
ATOM     57  N   HIS D 691      12.211 -13.898  39.544  1.00 39.94 LIG-0.35  N 
ATOM     58 H    HIS D 691      11.909 -14.471  40.110  1.00 39.94 LIG 0.16  HD
ATOM     59  C   LEU D 690      12.874 -12.809  39.896  1.00 35.88 LIG 0.24  C 
ATOM     60 O    LEU D 690      13.331 -11.989  39.070  1.00 34.66 LIG-0.27  OA
BRANCH 59 61
ATOM     61  CA  LEU D 690      13.014 -12.552  41.379  1.00 33.43 LIG 0.18  C 
BRANCH 61 62
ATOM     62  CB  LEU D 690      11.959 -11.540  41.830  1.00 31.34 LIG 0.04  C 
BRANCH 62 63
ATOM     63  CG  LEU D 690      11.984 -10.180  41.142  1.00 30.93 LIG-0.02  C 
ATOM     64  CD1 LEU D 690      10.568  -9.753  40.785  1.00 30.90 LIG 0.01  C 
ATOM     65  CD2 LEU D 690      12.609  -9.152  42.065  1.00 28.62 LIG 0.01  C 
ENDBRANCH 62 63
ENDBRANCH 61 62
BRANCH 61 66
ATOM     66  N   LEU D 690      14.352 -12.059  41.710  1.00 35.22 LIG-0.35  N 
ATOM     67 H    LEU D 690      14.359 -11.317  42.144  1.00 35.22 LIG 0.16  HD
ATOM     68  C   ILE D 689      15.448 -12.721  41.359  1.00 41.04 LIG 0.26  C 
ATOM     69 O    ILE D 689      15.411 -13.818  40.782  1.00 39.56 LIG-0.27  OA
BRANCH 68 70
ATOM     70  CA  ILE D 689      16.786 -12.065  41.762  1.00 40.35 LIG 0.40  C 
ATOM     71  N   ILE D 689      17.981 -12.740  41.119  1.00 40.45 LIG 0.61  N 
BRANCH 70 72
ATOM     72  CB  ILE D 689      16.696 -10.562  41.399  1.00 42.26 LIG 0.03  C 
ATOM     73  CG2 ILE D 689      15.978 -10.367  40.051  1.00 38.55 LIG 0.01  C 
BRANCH 72 74
ATOM     74  CG1 ILE D 689      16.029  -9.753  42.515  1.00 45.91 LIG 0.00  C 
ATOM     75  CD1 ILE D 689      16.809  -9.726  43.829  1.00 45.96 LIG 0.01  C 
ENDBRANCH 72 74
ENDBRANCH 70 72
ENDBRANCH 68 70
ENDBRANCH 61 66
ENDBRANCH 59 61
ENDBRANCH 50 57
ENDBRANCH 47 50
ENDBRANCH 1 46
TORSDOF 30
ENDMDL
MODEL 3
USER: ADFR SOLUTION from run 85
USER: SCORE 21.423118 LL:  -6.865 LR: -15.924 RR:   0.000 FEB:  -6.975
USER: RMSD 7.800470
USER: SEED 84
USER: STATUS no improvement in best in 15 clusters for 5 generations
USER: GENES 32
USER: genes 0 Translation |==|  0.64062 0.68767 0.50060
USER: genes 1 Rotation |==|  0.97307 0.50128 0.64943 0.56223
USER: genes 2 Torsion [N]-CA--C-[N] |==|  0.12011
USER: genes 3 Torsion [C]-N--CA-[C] |==|  0.79526
USER: genes 4 Torsion [N]-CA--C-[N] |==|  0.90797
USER: genes 5 Torsion [C]-N--CA-[C] |==|  0.15659
USER: genes 6 Torsion [N]-CA--C-[N] |==|  0.13332
USER: genes 7 Torsion [C]-N--CA-[CB] |==|  0.32734
USER: genes 8 Torsion [N]-CA--CB-[CG] |==|  0.84163
USER: genes 9 Torsion [CA]-CB--CG-[CD] |==|  0.49261
USER: genes 10 Torsion [CB]-CG--CD-[NE2] |==|  0.73057
USER: genes 11 Torsion [N]-CA--C-[O] |==|  0.02882
USER: genes 12 Torsion [N]-CA--CB-[CG] |==|  0.76792
USER: genes 13 Torsion [CA]-CB--CG-[CD2] |==|  0.09185
USER: genes 14 Torsion [N]-CA--CB-[CG] |==|  0.16849
USER: genes 15 Torsion [CA]-CB--CG-[CD1] |==|  0.41545
USER: genes 16 Torsion [C]-CA--CB-[CG] |==|  0.35995
USER: genes 17 Torsion [CA]-CB--CG-[CD] |==|  0.75286
USER: genes 18 Torsion [CB]-CG--CD-[NE] |==|  0.82376
USER: genes 19 Torsion [CG]-CD--NE-[CZ] |==|  0.47745
USER: genes 20 Torsion [C]-CA--N-[C] |==|  0.79879
USER: genes 21 Torsion [N]-C--CA-[N] |==|  0.11558
USER: genes 22 Torsion [C]-CA--CB-[CG] |==|  0.52775
USER: genes 23 Torsion [CA]-CB--CG-[ND1] |==|  0.87937
USER: genes 24 Torsion [C]-CA--N-[C] |==|  0.16875
USER: genes 25 Torsion [N]-C--CA-[N] |==|  0.22165
USER: genes 26 Torsion [C]-CA--CB-[CG] |==|  0.21860
USER: genes 27 Torsion [CA]-CB--CG-[CD2] |==|  0.05053
USER: genes 28 Torsion [C]-CA--N-[C] |==|  0.79522
USER: genes 29 Torsion [N]-C--CA-[N] |==|  0.78134
USER: genes 30 Torsion [C]-CA--CB-[CG1] |==|  0.55130
USER: genes 31 Torsion [CA]-CB--CG1-[CD1] |==|  0.46271
ROOT
ATOM      1  CA  ARG D 692      12.767 -11.483  38.931  1.00 48.73 LIG 0.18  C 
ENDROOT
BRANCH 1 2
ATOM      2  C   ARG D 692      11.890 -12.528  38.259  1.00 46.10 LIG 0.24  C 
ATOM      3  N   LEU D 693      10.603 -12.567  38.595  1.00 50.64 LIG-0.35  N 
ATOM      4 H    LEU D 693      10.220 -12.035  39.151  1.00 50.64 LIG 0.16  HD
ATOM      5 O    ARG D 692      12.387 -13.361  37.503  1.00 52.04 LIG-0.27  OA
BRANCH 3 6
ATOM      6  CA  LEU D 693       9.737 -13.584  37.991  1.00 43.34 LIG 0.18  C 
BRANCH 6 7
ATOM      7  C   LEU D 693       9.416 -13.272  36.535  1.00 37.95 LIG 0.24  C 
ATOM      8  N   LEU D 694       9.318 -11.997  36.219  1.00 39.22 LIG-0.35  N 
ATOM      9 H    LEU D 694       9.378 -11.359  36.792  1.00 39.22 LIG 0.16  HD
ATOM     10 O    LEU D 693       9.234 -14.188  35.725  1.00 43.86 LIG-0.27  OA
BRANCH 8 11
ATOM     11  CA  LEU D 694       9.097 -11.552  34.868  1.00 38.59 LIG 0.18  C 
BRANCH 11 12
ATOM     12  C   LEU D 694       7.851 -12.194  34.348  1.00 46.22 LIG 0.24  C 
ATOM     13  N   GLN D 695       6.811 -12.128  35.158  1.00 66.87 LIG-0.35  N 
ATOM     14 H    GLN D 695       6.887 -11.814  35.955  1.00 66.87 LIG 0.16  HD
ATOM     15 O    LEU D 694       7.871 -12.768  33.291  1.00 54.70 LIG-0.27  OA
BRANCH 13 16
ATOM     16  CA  GLN D 695       5.433 -12.547  34.867  1.00 62.86 LIG 0.16  C 
BRANCH 16 17
ATOM     17  CB  GLN D 695       5.005 -13.656  35.788  1.00 63.26 LIG 0.04  C 
BRANCH 17 18
ATOM     18  CG  GLN D 695       5.935 -14.836  35.698  1.00 77.24 LIG 0.10  C 
BRANCH 18 19
ATOM     19  CD  GLN D 695       5.576 -15.916  36.636  1.00 84.08 LIG 0.21  C 
ATOM     20 OE1  GLN D 695       4.728 -16.733  36.337  1.00 83.40 LIG-0.27  OA
ATOM     21  NE2 GLN D 695       6.231 -15.949  37.781  1.00 79.17 LIG-0.37  N 
ATOM     22 22HE GLN D 695       6.064 -16.568  38.354  1.00 79.17 LIG 0.16  HD
ATOM     23 21HE GLN D 695       6.824 -15.351  37.955  1.00 79.17 LIG 0.16  HD
ENDBRANCH 18 19
ENDBRANCH 17 18
ENDBRANCH 16 17
BRANCH 16 24
ATOM     24  C   GLN D 695       4.380 -11.442  34.800  1.00 61.14 LIG 0.22  C 
ATOM     25 O    GLN D 695       4.710 -10.253  34.794  1.00 66.66 LIG-0.29  OA
ENDBRANCH 16 24
ENDBRANCH 13 16
ENDBRANCH 11 12
BRANCH 11 26
ATOM     26  CB  LEU D 694      10.236 -11.958  33.959  1.00 34.51 LIG 0.04  C 
BRANCH 26 27
ATOM     27  CG  LEU D 694      11.484 -11.114  33.882  1.00 27.71 LIG-0.02  C 
ATOM     28  CD2 LEU D 694      11.828 -10.447  35.180  1.00 26.48 LIG 0.01  C 
ATOM     29  CD1 LEU D 694      11.476 -10.142  32.737  1.00 27.00 LIG 0.01  C 
ENDBRANCH 26 27
ENDBRANCH 11 26
ENDBRANCH 8 11
ENDBRANCH 6 7
BRANCH 6 30
ATOM     30  CB  LEU D 693       8.447 -13.803  38.799  1.00 45.67 LIG 0.04  C 
BRANCH 30 31
ATOM     31  CG  LEU D 693       7.533 -12.577  38.952  1.00 55.29 LIG-0.02  C 
ATOM     32  CD1 LEU D 693       6.073 -12.998  39.059  1.00 47.80 LIG 0.01  C 
ATOM     33  CD2 LEU D 693       7.950 -11.683  40.129  1.00 51.02 LIG 0.01  C 
ENDBRANCH 30 31
ENDBRANCH 6 30
ENDBRANCH 3 6
ENDBRANCH 1 2
BRANCH 1 34
ATOM     34  CB  ARG D 692      14.239 -11.774  38.571  1.00 49.09 LIG 0.04  C 
BRANCH 34 35
ATOM     35  CG  ARG D 692      14.949 -10.510  38.046  1.00 50.62 LIG 0.02  C 
BRANCH 35 36
ATOM     36  CD  ARG D 692      14.841 -10.300  36.543  1.00 57.04 LIG 0.14  C 
BRANCH 36 37
ATOM     37  NE  ARG D 692      15.503 -11.390  35.852  1.00 60.90 LIG-0.23  N 
ATOM     38 HE   ARG D 692      15.957 -11.945  36.327  1.00 60.90 LIG 0.18  HD
ATOM     39  CZ  ARG D 692      15.462 -11.593  34.544  1.00 61.50 LIG 0.67  C 
ATOM     40  NH1 ARG D 692      14.853 -10.719  33.745  1.00 46.48 LIG-0.23  N 
ATOM     41  NH2 ARG D 692      16.073 -12.654  34.033  1.00 64.68 LIG-0.23  N 
ATOM     42 1HH1 ARG D 692      14.484 -10.017  34.078  1.00 46.48 LIG 0.17  HD
ATOM     43 2HH1 ARG D 692      14.830 -10.856  32.896  1.00 46.48 LIG 0.17  HD
ATOM     44 1HH2 ARG D 692      16.491 -13.200  34.550  1.00 64.68 LIG 0.17  HD
ATOM     45 2HH2 ARG D 692      16.053 -12.795  33.185  1.00 64.68 LIG 0.17  HD
ENDBRANCH 36 37
ENDBRANCH 35 36
ENDBRANCH 34 35
ENDBRANCH 1 34
BRANCH 1 46
ATOM     46  N   ARG D 692      12.562 -11.314  40.389  1.00 43.06 LIG-0.35  N 
ATOM     47  C   HIS D 691      11.483 -10.728  40.880  1.00 44.11 LIG 0.24  C 
ATOM     48 O    HIS D 691      10.600 -10.253  40.181  1.00 43.39 LIG-0.27  OA
ATOM     49 H    ARG D 692      13.200 -11.628  40.874  1.00 43.06 LIG 0.16  HD
BRANCH 47 50
ATOM     50  CA  HIS D 691      11.403 -10.684  42.357  1.00 41.80 LIG 0.18  C 
BRANCH 50 51
ATOM     51  CB  HIS D 691      10.431  -9.600  42.679  1.00 51.00 LIG 0.10  C 
BRANCH 51 52
ATOM     52  CG  HIS D 691      10.379  -9.236  44.105  1.00 57.86 LIG 0.06  A 
ATOM     53 ND1  HIS D 691      10.373 -10.142  45.068  1.00 60.60 LIG-0.24  NA
ATOM     54  CE1 HIS D 691      10.317  -9.528  46.246  1.00 72.50 LIG 0.23  A 
ATOM     55 NE2  HIS D 691      10.266  -8.217  46.031  1.00 67.35 LIG-0.25  NA
ATOM     56  CD2 HIS D 691      10.297  -8.003  44.723  1.00 66.29 LIG 0.14  A 
ENDBRANCH 51 52
ENDBRANCH 50 51
BRANCH 50 57
ATOM     57  N   HIS D 691      12.686 -10.361  42.940  1.00 39.94 LIG-0.35  N 
ATOM     58 H    HIS D 691      12.995 -10.973  43.460  1.00 39.94 LIG 0.16  HD
ATOM     59  C   LEU D 690      13.323  -9.228  42.692  1.00 35.88 LIG 0.24  C 
ATOM     60 O    LEU D 690      12.882  -8.351  41.918  1.00 34.66 LIG-0.27  OA
BRANCH 59 61
ATOM     61  CA  LEU D 690      14.612  -8.999  43.446  1.00 33.43 LIG 0.18  C 
BRANCH 61 62
ATOM     62  CB  LEU D 690      14.931  -7.504  43.482  1.00 31.34 LIG 0.04  C 
BRANCH 62 63
ATOM     63  CG  LEU D 690      14.162  -6.669  44.499  1.00 30.93 LIG-0.02  C 
ATOM     64  CD1 LEU D 690      13.051  -5.897  43.804  1.00 30.90 LIG 0.01  C 
ATOM     65  CD2 LEU D 690      13.566  -7.576  45.559  1.00 28.62 LIG 0.01  C 
ENDBRANCH 62 63
ENDBRANCH 61 62
BRANCH 61 66
ATOM     66  N   LEU D 690      15.723  -9.731  42.835  1.00 35.22 LIG-0.35  N 
ATOM     67 H    LEU D 690      16.279  -9.237  42.403  1.00 35.22 LIG 0.16  HD
ATOM     68  C   ILE D 689      15.842 -11.048  42.952  1.00 41.04 LIG 0.26  C 
ATOM     69 O    ILE D 689      15.058 -11.733  43.627  1.00 39.56 LIG-0.27  OA
BRANCH 68 70
ATOM     70  CA  ILE D 689      17.054 -11.680  42.236  1.00 40.35 LIG 0.40  C 
ATOM     71  N   ILE D 689      16.832 -11.839  40.746  1.00 40.45 LIG 0.61  N 
BRANCH 70 72
ATOM     72  CB  ILE D 689      18.291 -10.804  42.555  1.00 42.26 LIG 0.03  C 
ATOM     73  CG2 ILE D 689      18.752 -11.016  44.009  1.00 38.55 LIG 0.01  C 
BRANCH 72 74
ATOM     74  CG1 ILE D 689      19.429 -11.055  41.561  1.00 45.91 LIG 0.00  C 
ATOM     75  CD1 ILE D 689      20.548 -10.014  41.605  1.00 45.96 LIG 0.01  C 
ENDBRANCH 72 74
ENDBRANCH 70 72
ENDBRANCH 68 70
ENDBRANCH 61 66
ENDBRANCH 59 61
ENDBRANCH 50 57
ENDBRANCH 47 50
ENDBRANCH 1 46
TORSDOF 30
ENDMDL
MODEL 4
USER: ADFR SOLUTION from run 136
USER: SCORE 20.871268 LL:  -5.973 LR: -15.836 RR:   0.000 FEB:  -6.887
USER: RMSD 6.585450
USER: SEED 135
USER: STATUS no improvement in best in 49 clusters for 5 generations
USER: GENES 32
USER: genes 0 Translation |==|  0.52373 0.68708 0.33017
USER: genes 1 Rotation |==|  0.02731 0.55580 0.63366 0.57474
USER: genes 2 Torsion [N]-CA--C-[N] |==|  0.89003
USER: genes 3 Torsion [C]-N--CA-[C] |==|  0.56111
USER: genes 4 Torsion [N]-CA--C-[N] |==|  0.45156
USER: genes 5 Torsion [C]-N--CA-[C] |==|  0.61342
USER: genes 6 Torsion [N]-CA--C-[N] |==|  0.36894
USER: genes 7 Torsion [C]-N--CA-[CB] |==|  0.10906
USER: genes 8 Torsion [N]-CA--CB-[CG] |==|  0.38783
USER: genes 9 Torsion [CA]-CB--CG-[CD] |==|  0.57879
USER: genes 10 Torsion [CB]-CG--CD-[NE2] |==|  0.42031
USER: genes 11 Torsion [N]-CA--C-[O] |==|  0.98874
USER: genes 12 Torsion [N]-CA--CB-[CG] |==|  0.02002
USER: genes 13 Torsion [CA]-CB--CG-[CD2] |==|  0.54691
USER: genes 14 Torsion [N]-CA--CB-[CG] |==|  0.65401
USER: genes 15 Torsion [CA]-CB--CG-[CD1] |==|  0.96444
USER: genes 16 Torsion [C]-CA--CB-[CG] |==|  0.61653
USER: genes 17 Torsion [CA]-CB--CG-[CD] |==|  0.82525
USER: genes 18 Torsion [CB]-CG--CD-[NE] |==|  0.50659
USER: genes 19 Torsion [CG]-CD--NE-[CZ] |==|  0.62425
USER: genes 20 Torsion [C]-CA--N-[C] |==|  0.74488
USER: genes 21 Torsion [N]-C--CA-[N] |==|  0.51370
USER: genes 22 Torsion [C]-CA--CB-[CG] |==|  0.82446
USER: genes 23 Torsion [CA]-CB--CG-[ND1] |==|  0.75468
USER: genes 24 Torsion [C]-CA--N-[C] |==|  0.75060
USER: genes 25 Torsion [N]-C--CA-[N] |==|  0.35899
USER: genes 26 Torsion [C]-CA--CB-[CG] |==|  0.56138
USER: genes 27 Torsion [CA]-CB--CG-[CD2] |==|  0.85880
USER: genes 28 Torsion [C]-CA--N-[C] |==|  0.82631
USER: genes 29 Torsion [N]-C--CA-[N] |==|  0.60773
USER: genes 30 Torsion [C]-CA--CB-[CG1] |==|  0.63580
USER: genes 31 Torsion [CA]-CB--CG1-[CD1] |==|  0.77986
ROOT
ATOM      1  CA  ARG D 692      10.137 -11.494  35.607  1.00 48.73 LIG 0.18  C 
ENDROOT
BRANCH 1 2
ATOM      2  C   ARG D 692       8.756 -12.094  35.814  1.00 46.10 LIG 0.24  C 
ATOM      3  N   LEU D 693       8.645 -13.420  35.790  1.00 50.64 LIG-0.35  N 
ATOM      4 H    LEU D 693       9.298 -13.970  35.686  1.00 50.64 LIG 0.16  HD
ATOM      5 O    ARG D 692       7.770 -11.365  35.906  1.00 52.04 LIG-0.27  OA
BRANCH 3 6
ATOM      6  CA  LEU D 693       7.322 -14.030  35.953  1.00 43.34 LIG 0.18  C 
BRANCH 6 7
ATOM      7  C   LEU D 693       7.411 -15.473  36.433  1.00 37.95 LIG 0.24  C 
ATOM      8  N   LEU D 694       6.310 -15.987  36.943  1.00 39.22 LIG-0.35  N 
ATOM      9 H    LEU D 694       5.584 -15.540  37.056  1.00 39.22 LIG 0.16  HD
ATOM     10 O    LEU D 693       8.478 -16.091  36.361  1.00 43.86 LIG-0.27  OA
BRANCH 8 11
ATOM     11  CA  LEU D 694       6.223 -17.361  37.364  1.00 38.59 LIG 0.18  C 
BRANCH 11 12
ATOM     12  C   LEU D 694       4.896 -17.907  36.949  1.00 46.22 LIG 0.24  C 
ATOM     13  N   GLN D 695       4.940 -19.087  36.357  1.00 66.87 LIG-0.35  N 
ATOM     14 H    GLN D 695       5.690 -19.454  36.155  1.00 66.87 LIG 0.16  HD
ATOM     15 O    LEU D 694       3.901 -17.251  37.113  1.00 54.70 LIG-0.27  OA
BRANCH 13 16
ATOM     16  CA  GLN D 695       3.799 -19.924  35.964  1.00 62.86 LIG 0.16  C 
BRANCH 16 17
ATOM     17  CB  GLN D 695       2.679 -19.081  35.418  1.00 63.26 LIG 0.04  C 
BRANCH 17 18
ATOM     18  CG  GLN D 695       2.031 -19.732  34.226  1.00 77.24 LIG 0.10  C 
BRANCH 18 19
ATOM     19  CD  GLN D 695       1.449 -18.753  33.290  1.00 84.08 LIG 0.21  C 
ATOM     20 OE1  GLN D 695       1.063 -17.673  33.693  1.00 83.40 LIG-0.27  OA
ATOM     21  NE2 GLN D 695       1.393 -19.105  32.020  1.00 79.17 LIG-0.37  N 
ATOM     22 22HE GLN D 695       1.074 -18.561  31.436  1.00 79.17 LIG 0.16  HD
ATOM     23 21HE GLN D 695       1.677 -19.879  31.776  1.00 79.17 LIG 0.16  HD
ENDBRANCH 18 19
ENDBRANCH 17 18
ENDBRANCH 16 17
BRANCH 16 24
ATOM     24  C   GLN D 695       4.101 -21.108  35.048  1.00 61.14 LIG 0.22  C 
ATOM     25 O    GLN D 695       5.238 -21.292  34.606  1.00 66.66 LIG-0.29  OA
ENDBRANCH 16 24
ENDBRANCH 13 16
ENDBRANCH 11 12
BRANCH 11 26
ATOM     26  CB  LEU D 694       6.321 -17.485  38.870  1.00 34.51 LIG 0.04  C 
BRANCH 26 27
ATOM     27  CG  LEU D 694       6.324 -16.249  39.735  1.00 27.71 LIG-0.02  C 
ATOM     28  CD2 LEU D 694       6.821 -16.504  41.127  1.00 26.48 LIG 0.01  C 
ATOM     29  CD1 LEU D 694       5.012 -15.518  39.733  1.00 27.00 LIG 0.01  C 
ENDBRANCH 26 27
ENDBRANCH 11 26
ENDBRANCH 8 11
ENDBRANCH 6 7
BRANCH 6 30
ATOM     30  CB  LEU D 693       6.476 -13.933  34.672  1.00 45.67 LIG 0.04  C 
BRANCH 30 31
ATOM     31  CG  LEU D 693       5.100 -13.264  34.825  1.00 55.29 LIG-0.02  C 
ATOM     32  CD1 LEU D 693       4.730 -13.112  36.294  1.00 47.80 LIG 0.01  C 
ATOM     33  CD2 LEU D 693       5.020 -11.922  34.081  1.00 51.02 LIG 0.01  C 
ENDBRANCH 30 31
ENDBRANCH 6 30
ENDBRANCH 3 6
ENDBRANCH 1 2
BRANCH 1 34
ATOM     34  CB  ARG D 692      10.368 -11.305  34.093  1.00 49.09 LIG 0.04  C 
BRANCH 34 35
ATOM     35  CG  ARG D 692      11.796 -11.717  33.687  1.00 50.62 LIG 0.02  C 
BRANCH 35 36
ATOM     36  CD  ARG D 692      12.901 -10.885  34.322  1.00 57.04 LIG 0.14  C 
BRANCH 36 37
ATOM     37  NE  ARG D 692      14.189 -11.329  33.823  1.00 60.90 LIG-0.23  N 
ATOM     38 HE   ARG D 692      14.261 -11.471  32.978  1.00 60.90 LIG 0.18  HD
ATOM     39  CZ  ARG D 692      15.262 -11.532  34.574  1.00 61.50 LIG 0.67  C 
ATOM     40  NH1 ARG D 692      15.189 -11.419  35.899  1.00 46.48 LIG-0.23  N 
ATOM     41  NH2 ARG D 692      16.398 -11.896  33.994  1.00 64.68 LIG-0.23  N 
ATOM     42 1HH1 ARG D 692      14.442 -11.212  36.272  1.00 46.48 LIG 0.17  HD
ATOM     43 2HH1 ARG D 692      15.888 -11.552  36.380  1.00 46.48 LIG 0.17  HD
ATOM     44 1HH2 ARG D 692      16.433 -11.998  33.141  1.00 64.68 LIG 0.17  HD
ATOM     45 2HH2 ARG D 692      17.101 -12.031  34.472  1.00 64.68 LIG 0.17  HD
ENDBRANCH 36 37
ENDBRANCH 35 36
ENDBRANCH 34 35
ENDBRANCH 1 34
BRANCH 1 46
ATOM     46  N   ARG D 692      11.254 -12.212  36.266  1.00 43.06 LIG-0.35  N 
ATOM     47  C   HIS D 691      11.668 -11.896  37.481  1.00 44.11 LIG 0.24  C 
ATOM     48 O    HIS D 691      11.194 -10.978  38.135  1.00 43.39 LIG-0.27  OA
ATOM     49 H    ARG D 692      11.600 -12.841  35.791  1.00 43.06 LIG 0.16  HD
BRANCH 47 50
ATOM     50  CA  HIS D 691      12.758 -12.741  38.019  1.00 41.80 LIG 0.18  C 
BRANCH 50 51
ATOM     51  CB  HIS D 691      12.250 -14.142  37.969  1.00 51.00 LIG 0.10  C 
BRANCH 51 52
ATOM     52  CG  HIS D 691      11.072 -14.391  38.818  1.00 57.86 LIG 0.06  A 
ATOM     53 ND1  HIS D 691      11.176 -14.753  40.085  1.00 60.60 LIG-0.24  NA
ATOM     54  CE1 HIS D 691       9.958 -14.911  40.596  1.00 72.50 LIG 0.23  A 
ATOM     55 NE2  HIS D 691       9.069 -14.667  39.638  1.00 67.35 LIG-0.25  NA
ATOM     56  CD2 HIS D 691       9.722 -14.349  38.528  1.00 66.29 LIG 0.14  A 
ENDBRANCH 51 52
ENDBRANCH 50 51
BRANCH 50 57
ATOM     57  N   HIS D 691      13.059 -12.392  39.390  1.00 39.94 LIG-0.35  N 
ATOM     58 H    HIS D 691      12.603 -12.835  39.970  1.00 39.94 LIG 0.16  HD
ATOM     59  C   LEU D 690      13.955 -11.475  39.717  1.00 35.88 LIG 0.24  C 
ATOM     60 O    LEU D 690      14.632 -10.849  38.873  1.00 34.66 LIG-0.27  OA
BRANCH 59 61
ATOM     61  CA  LEU D 690      14.092 -11.159  41.188  1.00 33.43 LIG 0.18  C 
BRANCH 61 62
ATOM     62  CB  LEU D 690      13.521  -9.770  41.474  1.00 31.34 LIG 0.04  C 
BRANCH 62 63
ATOM     63  CG  LEU D 690      14.020  -9.076  42.736  1.00 30.93 LIG-0.02  C 
ATOM     64  CD1 LEU D 690      13.210  -7.813  42.989  1.00 30.90 LIG 0.01  C 
ATOM     65  CD2 LEU D 690      13.885 -10.012  43.922  1.00 28.62 LIG 0.01  C 
ENDBRANCH 62 63
ENDBRANCH 61 62
BRANCH 61 66
ATOM     66  N   LEU D 690      15.491 -11.221  41.617  1.00 35.22 LIG-0.35  N 
ATOM     67 H    LEU D 690      15.807 -10.475  41.906  1.00 35.22 LIG 0.16  HD
ATOM     68  C   ILE D 689      16.192 -12.347  41.556  1.00 41.04 LIG 0.26  C 
ATOM     69 O    ILE D 689      15.698 -13.423  41.188  1.00 39.56 LIG-0.27  OA
BRANCH 68 70
ATOM     70  CA  ILE D 689      17.659 -12.250  42.025  1.00 40.35 LIG 0.40  C 
ATOM     71  N   ILE D 689      18.599 -13.075  41.169  1.00 40.45 LIG 0.61  N 
BRANCH 70 72
ATOM     72  CB  ILE D 689      18.045 -10.750  42.042  1.00 42.26 LIG 0.03  C 
ATOM     73  CG2 ILE D 689      18.069 -10.208  43.483  1.00 38.55 LIG 0.01  C 
BRANCH 72 74
ATOM     74  CG1 ILE D 689      19.375 -10.504  41.325  1.00 45.91 LIG 0.00  C 
ATOM     75  CD1 ILE D 689      20.613 -10.841  42.156  1.00 45.96 LIG 0.01  C 
ENDBRANCH 72 74
ENDBRANCH 70 72
ENDBRANCH 68 70
ENDBRANCH 61 66
ENDBRANCH 59 61
ENDBRANCH 50 57
ENDBRANCH 47 50
ENDBRANCH 1 46
TORSDOF 30
ENDMDL
MODEL 5
USER: ADFR SOLUTION from run 65
USER: SCORE 22.017114 LL:  -6.753 LR: -15.810 RR:   0.000 FEB:  -6.861
USER: RMSD 7.446746
USER: SEED 64
USER: STATUS searching
USER: GENES 32
USER: genes 0 Translation |==|  0.55775 0.67740 0.46614
USER: genes 1 Rotation |==|  0.91702 0.33079 0.68223 0.61940
USER: genes 2 Torsion [N]-CA--C-[N] |==|  0.46389
USER: genes 3 Torsion [C]-N--CA-[C] |==|  0.77632
USER: genes 4 Torsion [N]-CA--C-[N] |==|  0.01314
USER: genes 5 Torsion [C]-N--CA-[C] |==|  0.77802
USER: genes 6 Torsion [N]-CA--C-[N] |==|  0.99692
USER: genes 7 Torsion [C]-N--CA-[CB] |==|  0.62052
USER: genes 8 Torsion [N]-CA--CB-[CG] |==|  0.00130
USER: genes 9 Torsion [CA]-CB--CG-[CD] |==|  0.38557
USER: genes 10 Torsion [CB]-CG--CD-[NE2] |==|  0.75637
USER: genes 11 Torsion [N]-CA--C-[O] |==|  0.82005
USER: genes 12 Torsion [N]-CA--CB-[CG] |==|  0.81783
USER: genes 13 Torsion [CA]-CB--CG-[CD2] |==|  0.18750
USER: genes 14 Torsion [N]-CA--CB-[CG] |==|  0.88703
USER: genes 15 Torsion [CA]-CB--CG-[CD1] |==|  0.92302
USER: genes 16 Torsion [C]-CA--CB-[CG] |==|  0.29120
USER: genes 17 Torsion [CA]-CB--CG-[CD] |==|  0.01693
USER: genes 18 Torsion [CB]-CG--CD-[NE] |==|  0.63434
USER: genes 19 Torsion [CG]-CD--NE-[CZ] |==|  0.79038
USER: genes 20 Torsion [C]-CA--N-[C] |==|  0.56271
USER: genes 21 Torsion [N]-C--CA-[N] |==|  0.46395
USER: genes 22 Torsion [C]-CA--CB-[CG] |==|  0.31880
USER: genes 23 Torsion [CA]-CB--CG-[ND1] |==|  0.64614
USER: genes 24 Torsion [C]-CA--N-[C] |==|  0.53889
USER: genes 25 Torsion [N]-C--CA-[N] |==|  0.90512
USER: genes 26 Torsion [C]-CA--CB-[CG] |==|  0.76636
USER: genes 27 Torsion [CA]-CB--CG-[CD2] |==|  0.70050
USER: genes 28 Torsion [C]-CA--N-[C] |==|  0.85443
USER: genes 29 Torsion [N]-C--CA-[N] |==|  0.56462
USER: genes 30 Torsion [C]-CA--CB-[CG1] |==|  0.83123
USER: genes 31 Torsion [CA]-CB--CG1-[CD1] |==|  0.71202
ROOT
ATOM      1  CA  ARG D 692      10.902 -11.676  38.259  1.00 48.73 LIG 0.18  C 
ENDROOT
BRANCH 1 2
ATOM      2  C   ARG D 692       9.755 -11.995  37.315  1.00 46.10 LIG 0.24  C 
ATOM      3  N   LEU D 693      10.038 -12.148  36.024  1.00 50.64 LIG-0.35  N 
ATOM      4 H    LEU D 693      10.824 -12.099  35.679  1.00 50.64 LIG 0.16  HD
ATOM      5 O    ARG D 692       8.597 -12.016  37.730  1.00 52.04 LIG-0.27  OA
BRANCH 3 6
ATOM      6  CA  LEU D 693       8.949 -12.423  35.081  1.00 43.34 LIG 0.18  C 
BRANCH 6 7
ATOM      7  C   LEU D 693       8.543 -13.891  35.086  1.00 37.95 LIG 0.24  C 
ATOM      8  N   LEU D 694       9.137 -14.658  35.977  1.00 39.22 LIG-0.35  N 
ATOM      9 H    LEU D 694       9.758 -14.381  36.504  1.00 39.22 LIG 0.16  HD
ATOM     10 O    LEU D 693       7.719 -14.314  34.268  1.00 43.86 LIG-0.27  OA
BRANCH 8 11
ATOM     11  CA  LEU D 694       8.797 -16.045  36.150  1.00 38.59 LIG 0.18  C 
BRANCH 11 12
ATOM     12  C   LEU D 694       7.553 -16.136  36.974  1.00 46.22 LIG 0.24  C 
ATOM     13  N   GLN D 695       7.064 -14.976  37.373  1.00 66.87 LIG-0.35  N 
ATOM     14 H    GLN D 695       7.490 -14.243  37.234  1.00 66.87 LIG 0.16  HD
ATOM     15 O    LEU D 694       7.111 -17.214  37.272  1.00 54.70 LIG-0.27  OA
BRANCH 13 16
ATOM     16  CA  GLN D 695       5.794 -14.745  38.074  1.00 62.86 LIG 0.16  C 
BRANCH 16 17
ATOM     17  CB  GLN D 695       5.074 -13.556  37.499  1.00 63.26 LIG 0.04  C 
BRANCH 17 18
ATOM     18  CG  GLN D 695       5.846 -12.942  36.361  1.00 77.24 LIG 0.10  C 
BRANCH 18 19
ATOM     19  CD  GLN D 695       4.980 -12.542  35.237  1.00 84.08 LIG 0.21  C 
ATOM     20 OE1  GLN D 695       4.547 -11.408  35.169  1.00 83.40 LIG-0.27  OA
ATOM     21  NE2 GLN D 695       4.728 -13.461  34.325  1.00 79.17 LIG-0.37  N 
ATOM     22 22HE GLN D 695       4.239 -13.269  33.645  1.00 79.17 LIG 0.16  HD
ATOM     23 21HE GLN D 695       5.054 -14.252  34.411  1.00 79.17 LIG 0.16  HD
ENDBRANCH 18 19
ENDBRANCH 17 18
ENDBRANCH 16 17
BRANCH 16 24
ATOM     24  C   GLN D 695       4.860 -15.945  38.214  1.00 61.14 LIG 0.22  C 
ATOM     25 O    GLN D 695       4.353 -16.473  37.221  1.00 66.66 LIG-0.29  OA
ENDBRANCH 16 24
ENDBRANCH 13 16
ENDBRANCH 11 12
BRANCH 11 26
ATOM     26  CB  LEU D 694       9.888 -16.796  36.883  1.00 34.51 LIG 0.04  C 
BRANCH 26 27
ATOM     27  CG  LEU D 694      11.245 -16.976  36.247  1.00 27.71 LIG-0.02  C 
ATOM     28  CD2 LEU D 694      12.005 -15.692  36.103  1.00 26.48 LIG 0.01  C 
ATOM     29  CD1 LEU D 694      11.201 -17.749  34.961  1.00 27.00 LIG 0.01  C 
ENDBRANCH 26 27
ENDBRANCH 11 26
ENDBRANCH 8 11
ENDBRANCH 6 7
BRANCH 6 30
ATOM     30  CB  LEU D 693       9.283 -11.955  33.654  1.00 45.67 LIG 0.04  C 
BRANCH 30 31
ATOM     31  CG  LEU D 693      10.004 -10.602  33.542  1.00 55.29 LIG-0.02  C 
ATOM     32  CD1 LEU D 693       9.656  -9.702  34.720  1.00 47.80 LIG 0.01  C 
ATOM     33  CD2 LEU D 693      11.523 -10.763  33.383  1.00 51.02 LIG 0.01  C 
ENDBRANCH 30 31
ENDBRANCH 6 30
ENDBRANCH 3 6
ENDBRANCH 1 2
BRANCH 1 34
ATOM     34  CB  ARG D 692      11.859 -12.886  38.294  1.00 49.09 LIG 0.04  C 
BRANCH 34 35
ATOM     35  CG  ARG D 692      13.143 -12.610  37.487  1.00 50.62 LIG 0.02  C 
BRANCH 35 36
ATOM     36  CD  ARG D 692      13.269 -11.188  36.961  1.00 57.04 LIG 0.14  C 
BRANCH 36 37
ATOM     37  NE  ARG D 692      13.627 -11.221  35.556  1.00 60.90 LIG-0.23  N 
ATOM     38 HE   ARG D 692      13.010 -11.044  34.984  1.00 60.90 LIG 0.18  HD
ATOM     39  CZ  ARG D 692      14.834 -11.505  35.089  1.00 61.50 LIG 0.67  C 
ATOM     40  NH1 ARG D 692      15.807 -11.877  35.919  1.00 46.48 LIG-0.23  N 
ATOM     41  NH2 ARG D 692      15.050 -11.460  33.781  1.00 64.68 LIG-0.23  N 
ATOM     42 1HH1 ARG D 692      15.653 -11.934  36.764  1.00 46.48 LIG 0.17  HD
ATOM     43 2HH1 ARG D 692      16.588 -12.061  35.610  1.00 46.48 LIG 0.17  HD
ATOM     44 1HH2 ARG D 692      14.410 -11.248  33.247  1.00 64.68 LIG 0.17  HD
ATOM     45 2HH2 ARG D 692      15.829 -11.642  33.468  1.00 64.68 LIG 0.17  HD
ENDBRANCH 36 37
ENDBRANCH 35 36
ENDBRANCH 34 35
ENDBRANCH 1 34
BRANCH 1 46
ATOM     46  N   ARG D 692      10.512 -11.222  39.615  1.00 43.06 LIG-0.35  N 
ATOM     47  C   HIS D 691      11.327 -10.511  40.375  1.00 44.11 LIG 0.24  C 
ATOM     48 O    HIS D 691      12.463 -10.207  40.042  1.00 43.39 LIG-0.27  OA
ATOM     49 H    ARG D 692       9.720 -11.461  39.854  1.00 43.06 LIG 0.16  HD
BRANCH 47 50
ATOM     50  CA  HIS D 691      10.770 -10.090  41.681  1.00 41.80 LIG 0.18  C 
BRANCH 50 51
ATOM     51  CB  HIS D 691       9.811  -8.989  41.379  1.00 51.00 LIG 0.10  C 
BRANCH 51 52
ATOM     52  CG  HIS D 691       8.406  -9.308  41.683  1.00 57.86 LIG 0.06  A 
ATOM     53 ND1  HIS D 691       7.439  -9.162  40.795  1.00 60.60 LIG-0.24  NA
ATOM     54  CE1 HIS D 691       6.282  -9.519  41.345  1.00 72.50 LIG 0.23  A 
ATOM     55 NE2  HIS D 691       6.512  -9.875  42.605  1.00 67.35 LIG-0.25  NA
ATOM     56  CD2 HIS D 691       7.810  -9.752  42.847  1.00 66.29 LIG 0.14  A 
ENDBRANCH 51 52
ENDBRANCH 50 51
BRANCH 50 57
ATOM     57  N   HIS D 691      11.809  -9.592  42.554  1.00 39.94 LIG-0.35  N 
ATOM     58 H    HIS D 691      12.551  -9.427  42.152  1.00 39.94 LIG 0.16  HD
ATOM     59  C   LEU D 690      11.629  -9.407  43.852  1.00 35.88 LIG 0.24  C 
ATOM     60 O    LEU D 690      10.542  -9.626  44.429  1.00 34.66 LIG-0.27  OA
BRANCH 59 61
ATOM     61  CA  LEU D 690      12.836  -8.966  44.645  1.00 33.43 LIG 0.18  C 
BRANCH 61 62
ATOM     62  CB  LEU D 690      12.937  -7.440  44.627  1.00 31.34 LIG 0.04  C 
BRANCH 62 63
ATOM     63  CG  LEU D 690      13.627  -6.818  43.417  1.00 30.93 LIG-0.02  C 
ATOM     64  CD1 LEU D 690      12.777  -5.686  42.860  1.00 30.90 LIG 0.01  C 
ATOM     65  CD2 LEU D 690      14.986  -6.282  43.824  1.00 28.62 LIG 0.01  C 
ENDBRANCH 62 63
ENDBRANCH 61 62
BRANCH 61 66
ATOM     66  N   LEU D 690      14.067  -9.553  44.113  1.00 35.22 LIG-0.35  N 
ATOM     67 H    LEU D 690      14.688  -8.983  43.944  1.00 35.22 LIG 0.16  HD
ATOM     68  C   ILE D 689      14.190 -10.860  43.917  1.00 41.04 LIG 0.26  C 
ATOM     69 O    ILE D 689      13.300 -11.669  44.220  1.00 39.56 LIG-0.27  OA
BRANCH 68 70
ATOM     70  CA  ILE D 689      15.540 -11.327  43.331  1.00 40.35 LIG 0.40  C 
ATOM     71  N   ILE D 689      15.436 -12.663  42.624  1.00 40.45 LIG 0.61  N 
BRANCH 70 72
ATOM     72  CB  ILE D 689      16.054 -10.206  42.395  1.00 42.26 LIG 0.03  C 
ATOM     73  CG2 ILE D 689      17.468 -10.531  41.879  1.00 38.55 LIG 0.01  C 
BRANCH 72 74
ATOM     74  CG1 ILE D 689      15.080  -9.944  41.243  1.00 45.91 LIG 0.00  C 
ATOM     75  CD1 ILE D 689      15.520 -10.524  39.899  1.00 45.96 LIG 0.01  C 
ENDBRANCH 72 74
ENDBRANCH 70 72
ENDBRANCH 68 70
ENDBRANCH 61 66
ENDBRANCH 59 61
ENDBRANCH 50 57
ENDBRANCH 47 50
ENDBRANCH 1 46
TORSDOF 30
ENDMDL
MODEL 6
USER: ADFR SOLUTION from run 191
USER: SCORE 21.434992 LL:  -6.770 LR: -15.656 RR:   0.000 FEB:  -6.707
USER: RMSD 6.816037
USER: SEED 190
USER: STATUS searching
USER: GENES 32
USER: genes 0 Translation |==|  0.51410 0.64061 0.37094
USER: genes 1 Rotation |==|  0.02422 0.63171 0.54521 0.56513
USER: genes 2 Torsion [N]-CA--C-[N] |==|  0.89058
USER: genes 3 Torsion [C]-N--CA-[C] |==|  0.62459
USER: genes 4 Torsion [N]-CA--C-[N] |==|  0.06852
USER: genes 5 Torsion [C]-N--CA-[C] |==|  0.79496
USER: genes 6 Torsion [N]-CA--C-[N] |==|  0.96613
USER: genes 7 Torsion [C]-N--CA-[CB] |==|  0.23407
USER: genes 8 Torsion [N]-CA--CB-[CG] |==|  0.15495
USER: genes 9 Torsion [CA]-CB--CG-[CD] |==|  0.34531
USER: genes 10 Torsion [CB]-CG--CD-[NE2] |==|  0.64320
USER: genes 11 Torsion [N]-CA--C-[O] |==|  0.43902
USER: genes 12 Torsion [N]-CA--CB-[CG] |==|  0.79333
USER: genes 13 Torsion [CA]-CB--CG-[CD2] |==|  0.15309
USER: genes 14 Torsion [N]-CA--CB-[CG] |==|  0.74829
USER: genes 15 Torsion [CA]-CB--CG-[CD1] |==|  0.89327
USER: genes 16 Torsion [C]-CA--CB-[CG] |==|  0.51767
USER: genes 17 Torsion [CA]-CB--CG-[CD] |==|  0.71892
USER: genes 18 Torsion [CB]-CG--CD-[NE] |==|  0.59786
USER: genes 19 Torsion [CG]-CD--NE-[CZ] |==|  0.74789
USER: genes 20 Torsion [C]-CA--N-[C] |==|  0.66804
USER: genes 21 Torsion [N]-C--CA-[N] |==|  0.43201
USER: genes 22 Torsion [C]-CA--CB-[CG] |==|  0.92660
USER: genes 23 Torsion [CA]-CB--CG-[ND1] |==|  0.75032
USER: genes 24 Torsion [C]-CA--N-[C] |==|  0.82238
USER: genes 25 Torsion [N]-C--CA-[N] |==|  0.35633
USER: genes 26 Torsion [C]-CA--CB-[CG] |==|  0.29158
USER: genes 27 Torsion [CA]-CB--CG-[CD2] |==|  0.20285
USER: genes 28 Torsion [C]-CA--N-[C] |==|  0.66659
USER: genes 29 Torsion [N]-C--CA-[N] |==|  0.95637
USER: genes 30 Torsion [C]-CA--CB-[CG1] |==|  0.88440
USER: genes 31 Torsion [CA]-CB--CG1-[CD1] |==|  0.31305
ROOT
ATOM      1  CA  ARG D 692       9.920 -12.366  36.402  1.00 48.73 LIG 0.18  C 
ENDROOT
BRANCH 1 2
ATOM      2  C   ARG D 692       8.413 -12.475  36.239  1.00 46.10 LIG 0.24  C 
ATOM      3  N   LEU D 693       7.865 -13.684  36.329  1.00 50.64 LIG-0.35  N 
ATOM      4 H    LEU D 693       8.293 -14.411  36.491  1.00 50.64 LIG 0.16  HD
ATOM      5 O    ARG D 692       7.748 -11.483  35.942  1.00 52.04 LIG-0.27  OA
BRANCH 3 6
ATOM      6  CA  LEU D 693       6.418 -13.828  36.143  1.00 43.34 LIG 0.18  C 
BRANCH 6 7
ATOM      7  C   LEU D 693       5.792 -14.735  37.195  1.00 37.95 LIG 0.24  C 
ATOM      8  N   LEU D 694       6.440 -14.838  38.337  1.00 39.22 LIG-0.35  N 
ATOM      9 H    LEU D 694       7.199 -14.464  38.488  1.00 39.22 LIG 0.16  HD
ATOM     10 O    LEU D 693       4.748 -15.350  36.949  1.00 43.86 LIG-0.27  OA
BRANCH 8 11
ATOM     11  CA  LEU D 694       5.927 -15.595  39.449  1.00 38.59 LIG 0.18  C 
BRANCH 11 12
ATOM     12  C   LEU D 694       4.800 -14.835  40.069  1.00 46.22 LIG 0.24  C 
ATOM     13  N   GLN D 695       4.684 -13.583  39.666  1.00 66.87 LIG-0.35  N 
ATOM     14 H    GLN D 695       5.273 -13.225  39.153  1.00 66.87 LIG 0.16  HD
ATOM     15 O    LEU D 694       4.121 -15.357  40.914  1.00 54.70 LIG-0.27  OA
BRANCH 13 16
ATOM     16  CA  GLN D 695       3.604 -12.643  39.995  1.00 62.86 LIG 0.16  C 
BRANCH 16 17
ATOM     17  CB  GLN D 695       3.864 -11.971  41.315  1.00 63.26 LIG 0.04  C 
BRANCH 17 18
ATOM     18  CG  GLN D 695       5.203 -11.282  41.328  1.00 77.24 LIG 0.10  C 
BRANCH 18 19
ATOM     19  CD  GLN D 695       5.103  -9.852  41.668  1.00 84.08 LIG 0.21  C 
ATOM     20 OE1  GLN D 695       4.516  -9.499  42.673  1.00 83.40 LIG-0.27  OA
ATOM     21  NE2 GLN D 695       5.692  -9.003  40.847  1.00 79.17 LIG-0.37  N 
ATOM     22 22HE GLN D 695       5.671  -8.160  41.013  1.00 79.17 LIG 0.16  HD
ATOM     23 21HE GLN D 695       6.097  -9.294  40.147  1.00 79.17 LIG 0.16  HD
ENDBRANCH 18 19
ENDBRANCH 17 18
ENDBRANCH 16 17
BRANCH 16 24
ATOM     24  C   GLN D 695       3.228 -11.627  38.918  1.00 61.14 LIG 0.22  C 
ATOM     25 O    GLN D 695       2.119 -11.085  38.919  1.00 66.66 LIG-0.29  OA
ENDBRANCH 16 24
ENDBRANCH 13 16
ENDBRANCH 11 12
BRANCH 11 26
ATOM     26  CB  LEU D 694       6.984 -15.799  40.513  1.00 34.51 LIG 0.04  C 
BRANCH 26 27
ATOM     27  CG  LEU D 694       8.103 -16.787  40.293  1.00 27.71 LIG-0.02  C 
ATOM     28  CD2 LEU D 694       8.873 -16.536  39.031  1.00 26.48 LIG 0.01  C 
ATOM     29  CD1 LEU D 694       7.664 -18.218  40.407  1.00 27.00 LIG 0.01  C 
ENDBRANCH 26 27
ENDBRANCH 11 26
ENDBRANCH 8 11
ENDBRANCH 6 7
BRANCH 6 30
ATOM     30  CB  LEU D 693       6.059 -14.308  34.726  1.00 45.67 LIG 0.04  C 
BRANCH 30 31
ATOM     31  CG  LEU D 693       5.811 -13.205  33.686  1.00 55.29 LIG-0.02  C 
ATOM     32  CD1 LEU D 693       5.068 -12.030  34.306  1.00 47.80 LIG 0.01  C 
ATOM     33  CD2 LEU D 693       7.107 -12.752  32.998  1.00 51.02 LIG 0.01  C 
ENDBRANCH 30 31
ENDBRANCH 6 30
ENDBRANCH 3 6
ENDBRANCH 1 2
BRANCH 1 34
ATOM     34  CB  ARG D 692      10.579 -12.563  35.020  1.00 49.09 LIG 0.04  C 
BRANCH 34 35
ATOM     35  CG  ARG D 692      12.115 -12.622  35.134  1.00 50.62 LIG 0.02  C 
BRANCH 35 36
ATOM     36  CD  ARG D 692      12.829 -11.333  34.754  1.00 57.04 LIG 0.14  C 
BRANCH 36 37
ATOM     37  NE  ARG D 692      14.086 -11.650  34.103  1.00 60.90 LIG-0.23  N 
ATOM     38 HE   ARG D 692      14.078 -11.752  33.249  1.00 60.90 LIG 0.18  HD
ATOM     39  CZ  ARG D 692      15.246 -11.794  34.727  1.00 61.50 LIG 0.67  C 
ATOM     40  NH1 ARG D 692      15.307 -11.740  36.056  1.00 46.48 LIG-0.23  N 
ATOM     41  NH2 ARG D 692      16.338 -12.041  34.016  1.00 64.68 LIG-0.23  N 
ATOM     42 1HH1 ARG D 692      14.591 -11.609  36.515  1.00 46.48 LIG 0.17  HD
ATOM     43 2HH1 ARG D 692      16.063 -11.834  36.456  1.00 46.48 LIG 0.17  HD
ATOM     44 1HH2 ARG D 692      16.289 -12.106  33.160  1.00 64.68 LIG 0.17  HD
ATOM     45 2HH2 ARG D 692      17.096 -12.137  34.411  1.00 64.68 LIG 0.17  HD
ENDBRANCH 36 37
ENDBRANCH 35 36
ENDBRANCH 34 35
ENDBRANCH 1 34
BRANCH 1 46
ATOM     46  N   ARG D 692      10.518 -13.234  37.444  1.00 43.06 LIG-0.35  N 
ATOM     47  C   HIS D 691      11.178 -12.735  38.475  1.00 44.11 LIG 0.24  C 
ATOM     48 O    HIS D 691      11.377 -11.539  38.631  1.00 43.39 LIG-0.27  OA
ATOM     49 H    ARG D 692      10.396 -14.076  37.316  1.00 43.06 LIG 0.16  HD
BRANCH 47 50
ATOM     50  CA  HIS D 691      11.668 -13.730  39.456  1.00 41.80 LIG 0.18  C 
BRANCH 50 51
ATOM     51  CB  HIS D 691      10.538 -13.963  40.399  1.00 51.00 LIG 0.10  C 
BRANCH 51 52
ATOM     52  CG  HIS D 691       9.605 -12.830  40.520  1.00 57.86 LIG 0.06  A 
ATOM     53 ND1  HIS D 691       9.769 -11.870  41.413  1.00 60.60 LIG-0.24  NA
ATOM     54  CE1 HIS D 691       8.779 -10.989  41.296  1.00 72.50 LIG 0.23  A 
ATOM     55 NE2  HIS D 691       7.964 -11.405  40.332  1.00 67.35 LIG-0.25  NA
ATOM     56  CD2 HIS D 691       8.440 -12.539  39.837  1.00 66.29 LIG 0.14  A 
ENDBRANCH 51 52
ENDBRANCH 50 51
BRANCH 50 57
ATOM     57  N   HIS D 691      12.805 -13.221  40.191  1.00 39.94 LIG-0.35  N 
ATOM     58 H    HIS D 691      12.660 -13.127  41.033  1.00 39.94 LIG 0.16  HD
ATOM     59  C   LEU D 690      13.959 -12.927  39.614  1.00 35.88 LIG 0.24  C 
ATOM     60 O    LEU D 690      14.173 -13.085  38.393  1.00 34.66 LIG-0.27  OA
BRANCH 59 61
ATOM     61  CA  LEU D 690      15.022 -12.321  40.501  1.00 33.43 LIG 0.18  C 
BRANCH 61 62
ATOM     62  CB  LEU D 690      15.227 -10.851  40.130  1.00 31.34 LIG 0.04  C 
BRANCH 62 63
ATOM     63  CG  LEU D 690      14.639  -9.820  41.086  1.00 30.93 LIG-0.02  C 
ATOM     64  CD1 LEU D 690      13.205 -10.189  41.429  1.00 30.90 LIG 0.01  C 
ATOM     65  CD2 LEU D 690      15.469  -9.766  42.354  1.00 28.62 LIG 0.01  C 
ENDBRANCH 62 63
ENDBRANCH 61 62
BRANCH 61 66
ATOM     66  N   LEU D 690      16.288 -13.046  40.386  1.00 35.22 LIG-0.35  N 
ATOM     67 H    LEU D 690      16.620 -13.057  39.593  1.00 35.22 LIG 0.16  HD
ATOM     68  C   ILE D 689      16.857 -13.630  41.434  1.00 41.04 LIG 0.26  C 
ATOM     69 O    ILE D 689      16.387 -13.554  42.579  1.00 39.56 LIG-0.27  OA
BRANCH 68 70
ATOM     70  CA  ILE D 689      18.180 -14.374  41.152  1.00 40.35 LIG 0.40  C 
ATOM     71  N   ILE D 689      18.401 -14.627  39.674  1.00 40.45 LIG 0.61  N 
BRANCH 70 72
ATOM     72  CB  ILE D 689      19.324 -13.544  41.783  1.00 42.26 LIG 0.03  C 
ATOM     73  CG2 ILE D 689      20.695 -14.025  41.271  1.00 38.55 LIG 0.01  C 
BRANCH 72 74
ATOM     74  CG1 ILE D 689      19.129 -12.044  41.544  1.00 45.91 LIG 0.00  C 
ATOM     75  CD1 ILE D 689      18.836 -11.235  42.807  1.00 45.96 LIG 0.01  C 
ENDBRANCH 72 74
ENDBRANCH 70 72
ENDBRANCH 68 70
ENDBRANCH 61 66
ENDBRANCH 59 61
ENDBRANCH 50 57
ENDBRANCH 47 50
ENDBRANCH 1 46
TORSDOF 30
ENDMDL
MODEL 7
USER: ADFR SOLUTION from run 142
USER: SCORE 21.753878 LL:  -7.604 LR: -15.572 RR:   0.000 FEB:  -6.623
USER: RMSD 5.896447
USER: SEED 141
USER: STATUS searching
USER: GENES 32
USER: genes 0 Translation |==|  0.56391 0.53341 0.32584
USER: genes 1 Rotation |==|  0.88537 0.50458 0.60605 0.80037
USER: genes 2 Torsion [N]-CA--C-[N] |==|  0.88966
USER: genes 3 Torsion [C]-N--CA-[C] |==|  0.75858
USER: genes 4 Torsion [N]-CA--C-[N] |==|  0.92619
USER: genes 5 Torsion [C]-N--CA-[C] |==|  0.17210
USER: genes 6 Torsion [N]-CA--C-[N] |==|  0.22139
USER: genes 7 Torsion [C]-N--CA-[CB] |==|  0.49278
USER: genes 8 Torsion [N]-CA--CB-[CG] |==|  0.22635
USER: genes 9 Torsion [CA]-CB--CG-[CD] |==|  0.73693
USER: genes 10 Torsion [CB]-CG--CD-[NE2] |==|  0.48932
USER: genes 11 Torsion [N]-CA--C-[O] |==|  0.93471
USER: genes 12 Torsion [N]-CA--CB-[CG] |==|  0.72768
USER: genes 13 Torsion [CA]-CB--CG-[CD2] |==|  0.69374
USER: genes 14 Torsion [N]-CA--CB-[CG] |==|  0.76303
USER: genes 15 Torsion [CA]-CB--CG-[CD1] |==|  0.97292
USER: genes 16 Torsion [C]-CA--CB-[CG] |==|  0.39260
USER: genes 17 Torsion [CA]-CB--CG-[CD] |==|  0.31439
USER: genes 18 Torsion [CB]-CG--CD-[NE] |==|  0.65017
USER: genes 19 Torsion [CG]-CD--NE-[CZ] |==|  0.41131
USER: genes 20 Torsion [C]-CA--N-[C] |==|  0.86282
USER: genes 21 Torsion [N]-C--CA-[N] |==|  0.84798
USER: genes 22 Torsion [C]-CA--CB-[CG] |==|  0.07817
USER: genes 23 Torsion [CA]-CB--CG-[ND1] |==|  0.73155
USER: genes 24 Torsion [C]-CA--N-[C] |==|  0.84812
USER: genes 25 Torsion [N]-C--CA-[N] |==|  0.91697
USER: genes 26 Torsion [C]-CA--CB-[CG] |==|  0.82719
USER: genes 27 Torsion [CA]-CB--CG-[CD2] |==|  0.72925
USER: genes 28 Torsion [C]-CA--N-[C] |==|  0.81808
USER: genes 29 Torsion [N]-C--CA-[N] |==|  0.48853
USER: genes 30 Torsion [C]-CA--CB-[CG1] |==|  0.23799
USER: genes 31 Torsion [CA]-CB--CG1-[CD1] |==|  0.14172
ROOT
ATOM      1  CA  ARG D 692      11.041 -14.376  35.523  1.00 48.73 LIG 0.18  C 
ENDROOT
BRANCH 1 2
ATOM      2  C   ARG D 692       9.840 -15.205  35.947  1.00 46.10 LIG 0.24  C 
ATOM      3  N   LEU D 693       9.492 -15.182  37.231  1.00 50.64 LIG-0.35  N 
ATOM      4 H    LEU D 693       9.882 -14.720  37.842  1.00 50.64 LIG 0.16  HD
ATOM      5 O    ARG D 692       9.276 -15.939  35.137  1.00 52.04 LIG-0.27  OA
BRANCH 3 6
ATOM      6  CA  LEU D 693       8.359 -15.997  37.680  1.00 43.34 LIG 0.18  C 
BRANCH 6 7
ATOM      7  C   LEU D 693       7.031 -15.266  37.528  1.00 37.95 LIG 0.24  C 
ATOM      8  N   LEU D 694       7.082 -13.949  37.567  1.00 39.22 LIG-0.35  N 
ATOM      9 H    LEU D 694       7.802 -13.506  37.716  1.00 39.22 LIG 0.16  HD
ATOM     10 O    LEU D 693       5.978 -15.901  37.407  1.00 43.86 LIG-0.27  OA
BRANCH 8 11
ATOM     11  CA  LEU D 694       5.919 -13.127  37.359  1.00 38.59 LIG 0.18  C 
BRANCH 11 12
ATOM     12  C   LEU D 694       4.922 -13.424  38.431  1.00 46.22 LIG 0.24  C 
ATOM     13  N   GLN D 695       5.159 -12.838  39.590  1.00 66.87 LIG-0.35  N 
ATOM     14 H    GLN D 695       5.883 -12.395  39.724  1.00 66.87 LIG 0.16  HD
ATOM     15 O    LEU D 694       4.024 -14.196  38.215  1.00 54.70 LIG-0.27  OA
BRANCH 13 16
ATOM     16  CA  GLN D 695       4.291 -12.836  40.775  1.00 62.86 LIG 0.16  C 
BRANCH 16 17
ATOM     17  CB  GLN D 695       4.946 -12.108  41.917  1.00 63.26 LIG 0.04  C 
BRANCH 17 18
ATOM     18  CG  GLN D 695       4.774 -10.618  41.791  1.00 77.24 LIG 0.10  C 
BRANCH 18 19
ATOM     19  CD  GLN D 695       5.920  -9.967  41.129  1.00 84.08 LIG 0.21  C 
ATOM     20 OE1  GLN D 695       6.890 -10.620  40.799  1.00 83.40 LIG-0.27  OA
ATOM     21  NE2 GLN D 695       5.818  -8.671  40.907  1.00 79.17 LIG-0.37  N 
ATOM     22 22HE GLN D 695       6.457  -8.252  40.511  1.00 79.17 LIG 0.16  HD
ATOM     23 21HE GLN D 695       5.114  -8.245  41.156  1.00 79.17 LIG 0.16  HD
ENDBRANCH 18 19
ENDBRANCH 17 18
ENDBRANCH 16 17
BRANCH 16 24
ATOM     24  C   GLN D 695       2.852 -12.367  40.570  1.00 61.14 LIG 0.22  C 
ATOM     25 O    GLN D 695       2.555 -11.628  39.628  1.00 66.66 LIG-0.29  OA
ENDBRANCH 16 24
ENDBRANCH 13 16
ENDBRANCH 11 12
BRANCH 11 26
ATOM     26  CB  LEU D 694       5.263 -13.422  36.027  1.00 34.51 LIG 0.04  C 
BRANCH 26 27
ATOM     27  CG  LEU D 694       5.544 -12.546  34.831  1.00 27.71 LIG-0.02  C 
ATOM     28  CD2 LEU D 694       4.366 -11.714  34.420  1.00 26.48 LIG 0.01  C 
ATOM     29  CD1 LEU D 694       6.135 -13.294  33.671  1.00 27.00 LIG 0.01  C 
ENDBRANCH 26 27
ENDBRANCH 11 26
ENDBRANCH 8 11
ENDBRANCH 6 7
BRANCH 6 30
ATOM     30  CB  LEU D 693       8.541 -16.503  39.121  1.00 45.67 LIG 0.04  C 
BRANCH 30 31
ATOM     31  CG  LEU D 693       9.345 -17.803  39.280  1.00 55.29 LIG-0.02  C 
ATOM     32  CD1 LEU D 693       9.598 -18.454  37.927  1.00 47.80 LIG 0.01  C 
ATOM     33  CD2 LEU D 693      10.653 -17.587  40.055  1.00 51.02 LIG 0.01  C 
ENDBRANCH 30 31
ENDBRANCH 6 30
ENDBRANCH 3 6
ENDBRANCH 1 2
BRANCH 1 34
ATOM     34  CB  ARG D 692      12.314 -15.231  35.698  1.00 49.09 LIG 0.04  C 
BRANCH 34 35
ATOM     35  CG  ARG D 692      13.313 -14.991  34.549  1.00 50.62 LIG 0.02  C 
BRANCH 35 36
ATOM     36  CD  ARG D 692      14.608 -14.311  34.967  1.00 57.04 LIG 0.14  C 
BRANCH 36 37
ATOM     37  NE  ARG D 692      14.822 -13.132  34.150  1.00 60.90 LIG-0.23  N 
ATOM     38 HE   ARG D 692      14.534 -13.152  33.340  1.00 60.90 LIG 0.18  HD
ATOM     39  CZ  ARG D 692      15.429 -12.028  34.558  1.00 61.50 LIG 0.67  C 
ATOM     40  NH1 ARG D 692      15.977 -11.969  35.771  1.00 46.48 LIG-0.23  N 
ATOM     41  NH2 ARG D 692      15.526 -10.997  33.729  1.00 64.68 LIG-0.23  N 
ATOM     42 1HH1 ARG D 692      15.938 -12.651  36.293  1.00 46.48 LIG 0.17  HD
ATOM     43 2HH1 ARG D 692      16.370 -11.250  36.030  1.00 46.48 LIG 0.17  HD
ATOM     44 1HH2 ARG D 692      15.197 -11.049  32.937  1.00 64.68 LIG 0.17  HD
ATOM     45 2HH2 ARG D 692      15.918 -10.275  33.984  1.00 64.68 LIG 0.17  HD
ENDBRANCH 36 37
ENDBRANCH 35 36
ENDBRANCH 34 35
ENDBRANCH 1 34
BRANCH 1 46
ATOM     46  N   ARG D 692      11.160 -13.044  36.163  1.00 43.06 LIG-0.35  N 
ATOM     47  C   HIS D 691      10.145 -12.199  36.213  1.00 44.11 LIG 0.24  C 
ATOM     48 O    HIS D 691       9.054 -12.429  35.711  1.00 43.39 LIG-0.27  OA
ATOM     49 H    ARG D 692      11.938 -12.878  36.492  1.00 43.06 LIG 0.16  HD
BRANCH 47 50
ATOM     50  CA  HIS D 691      10.409 -10.932  36.932  1.00 41.80 LIG 0.18  C 
BRANCH 50 51
ATOM     51  CB  HIS D 691      11.469 -10.234  36.151  1.00 51.00 LIG 0.10  C 
BRANCH 51 52
ATOM     52  CG  HIS D 691      11.477 -10.557  34.714  1.00 57.86 LIG 0.06  A 
ATOM     53 ND1  HIS D 691      12.276 -11.474  34.198  1.00 60.60 LIG-0.24  NA
ATOM     54  CE1 HIS D 691      12.070 -11.547  32.887  1.00 72.50 LIG 0.23  A 
ATOM     55 NE2  HIS D 691      11.144 -10.650  32.560  1.00 67.35 LIG-0.25  NA
ATOM     56  CD2 HIS D 691      10.761 -10.020  33.662  1.00 66.29 LIG 0.14  A 
ENDBRANCH 51 52
ENDBRANCH 50 51
BRANCH 50 57
ATOM     57  N   HIS D 691      10.890 -11.184  38.271  1.00 39.94 LIG-0.35  N 
ATOM     58 H    HIS D 691      11.639 -10.799  38.450  1.00 39.94 LIG 0.16  HD
ATOM     59  C   LEU D 690      10.236 -11.939  39.139  1.00 35.88 LIG 0.24  C 
ATOM     60 O    LEU D 690       9.138 -12.479  38.885  1.00 34.66 LIG-0.27  OA
BRANCH 59 61
ATOM     61  CA  LEU D 690      10.913 -12.180  40.469  1.00 33.43 LIG 0.18  C 
BRANCH 61 62
ATOM     62  CB  LEU D 690      10.466 -11.119  41.476  1.00 31.34 LIG 0.04  C 
BRANCH 62 63
ATOM     63  CG  LEU D 690      10.815  -9.673  41.141  1.00 30.93 LIG-0.02  C 
ATOM     64  CD1 LEU D 690       9.672  -8.756  41.548  1.00 30.90 LIG 0.01  C 
ATOM     65  CD2 LEU D 690      12.079  -9.270  41.876  1.00 28.62 LIG 0.01  C 
ENDBRANCH 62 63
ENDBRANCH 61 62
BRANCH 61 66
ATOM     66  N   LEU D 690      12.371 -12.159  40.336  1.00 35.22 LIG-0.35  N 
ATOM     67 H    LEU D 690      12.755 -11.510  40.750  1.00 35.22 LIG 0.16  HD
ATOM     68  C   ILE D 689      13.022 -13.076  39.632  1.00 41.04 LIG 0.26  C 
ATOM     69 O    ILE D 689      12.451 -14.035  39.091  1.00 39.56 LIG-0.27  OA
BRANCH 68 70
ATOM     70  CA  ILE D 689      14.555 -12.910  39.568  1.00 40.35 LIG 0.40  C 
ATOM     71  N   ILE D 689      15.234 -14.048  38.832  1.00 40.45 LIG 0.61  N 
BRANCH 70 72
ATOM     72  CB  ILE D 689      14.848 -11.534  38.919  1.00 42.26 LIG 0.03  C 
ATOM     73  CG2 ILE D 689      13.865 -11.253  37.768  1.00 38.55 LIG 0.01  C 
BRANCH 72 74
ATOM     74  CG1 ILE D 689      14.836 -10.409  39.957  1.00 45.91 LIG 0.00  C 
ATOM     75  CD1 ILE D 689      15.709 -10.671  41.184  1.00 45.96 LIG 0.01  C 
ENDBRANCH 72 74
ENDBRANCH 70 72
ENDBRANCH 68 70
ENDBRANCH 61 66
ENDBRANCH 59 61
ENDBRANCH 50 57
ENDBRANCH 47 50
ENDBRANCH 1 46
TORSDOF 30
ENDMDL
MODEL 8
USER: ADFR SOLUTION from run 64
USER: SCORE 21.038437 LL:  -6.275 LR: -15.559 RR:   0.000 FEB:  -6.610
USER: RMSD 6.129889
USER: SEED 63
USER: STATUS no improvement in best in 8 clusters for 5 generations
USER: GENES 32
USER: genes 0 Translation |==|  0.51768 0.66711 0.38085
USER: genes 1 Rotation |==|  0.04205 0.50638 0.68339 0.58127
USER: genes 2 Torsion [N]-CA--C-[N] |==|  0.52220
USER: genes 3 Torsion [C]-N--CA-[C] |==|  0.86015
USER: genes 4 Torsion [N]-CA--C-[N] |==|  0.36635
USER: genes 5 Torsion [C]-N--CA-[C] |==|  0.73530
USER: genes 6 Torsion [N]-CA--C-[N] |==|  0.43543
USER: genes 7 Torsion [C]-N--CA-[CB] |==|  0.19002
USER: genes 8 Torsion [N]-CA--CB-[CG] |==|  0.53556
USER: genes 9 Torsion [CA]-CB--CG-[CD] |==|  0.45759
USER: genes 10 Torsion [CB]-CG--CD-[NE2] |==|  0.39998
USER: genes 11 Torsion [N]-CA--C-[O] |==|  0.74725
USER: genes 12 Torsion [N]-CA--CB-[CG] |==|  0.84083
USER: genes 13 Torsion [CA]-CB--CG-[CD2] |==|  0.25642
USER: genes 14 Torsion [N]-CA--CB-[CG] |==|  0.06497
USER: genes 15 Torsion [CA]-CB--CG-[CD1] |==|  0.19559
USER: genes 16 Torsion [C]-CA--CB-[CG] |==|  0.47479
USER: genes 17 Torsion [CA]-CB--CG-[CD] |==|  0.25552
USER: genes 18 Torsion [CB]-CG--CD-[NE] |==|  0.73211
USER: genes 19 Torsion [CG]-CD--NE-[CZ] |==|  0.50430
USER: genes 20 Torsion [C]-CA--N-[C] |==|  0.76313
USER: genes 21 Torsion [N]-C--CA-[N] |==|  0.48246
USER: genes 22 Torsion [C]-CA--CB-[CG] |==|  0.21693
USER: genes 23 Torsion [CA]-CB--CG-[ND1] |==|  0.17752
USER: genes 24 Torsion [C]-CA--N-[C] |==|  0.73954
USER: genes 25 Torsion [N]-C--CA-[N] |==|  0.36688
USER: genes 26 Torsion [C]-CA--CB-[CG] |==|  0.14265
USER: genes 27 Torsion [CA]-CB--CG-[CD2] |==|  0.48459
USER: genes 28 Torsion [C]-CA--N-[C] |==|  0.75774
USER: genes 29 Torsion [N]-C--CA-[N] |==|  0.90250
USER: genes 30 Torsion [C]-CA--CB-[CG1] |==|  0.96008
USER: genes 31 Torsion [CA]-CB--CG1-[CD1] |==|  0.70561
ROOT
ATOM      1  CA  ARG D 692      10.001 -11.869  36.596  1.00 48.73 LIG 0.18  C 
ENDROOT
BRANCH 1 2
ATOM      2  C   ARG D 692       8.821 -12.762  36.942  1.00 46.10 LIG 0.24  C 
ATOM      3  N   LEU D 693       7.622 -12.413  36.480  1.00 50.64 LIG-0.35  N 
ATOM      4 H    LEU D 693       7.462 -11.731  35.983  1.00 50.64 LIG 0.16  HD
ATOM      5 O    ARG D 692       8.968 -13.718  37.701  1.00 52.04 LIG-0.27  OA
BRANCH 3 6
ATOM      6  CA  LEU D 693       6.457 -13.235  36.823  1.00 43.34 LIG 0.18  C 
BRANCH 6 7
ATOM      7  C   LEU D 693       6.696 -14.713  36.547  1.00 37.95 LIG 0.24  C 
ATOM      8  N   LEU D 694       6.373 -15.547  37.514  1.00 39.22 LIG-0.35  N 
ATOM      9 H    LEU D 694       6.088 -15.294  38.285  1.00 39.22 LIG 0.16  HD
ATOM     10 O    LEU D 693       7.194 -15.077  35.476  1.00 43.86 LIG-0.27  OA
BRANCH 8 11
ATOM     11  CA  LEU D 694       6.470 -16.976  37.366  1.00 38.59 LIG 0.18  C 
BRANCH 11 12
ATOM     12  C   LEU D 694       5.134 -17.508  36.961  1.00 46.22 LIG 0.24  C 
ATOM     13  N   GLN D 695       5.164 -18.671  36.337  1.00 66.87 LIG-0.35  N 
ATOM     14 H    GLN D 695       5.909 -19.035  36.111  1.00 66.87 LIG 0.16  HD
ATOM     15 O    LEU D 694       4.144 -16.854  37.161  1.00 54.70 LIG-0.27  OA
BRANCH 13 16
ATOM     16  CA  GLN D 695       4.014 -19.496  35.943  1.00 62.86 LIG 0.16  C 
BRANCH 16 17
ATOM     17  CB  GLN D 695       3.225 -18.827  34.850  1.00 63.26 LIG 0.04  C 
BRANCH 17 18
ATOM     18  CG  GLN D 695       1.890 -19.491  34.649  1.00 77.24 LIG 0.10  C 
BRANCH 18 19
ATOM     19  CD  GLN D 695       0.958 -18.667  33.859  1.00 84.08 LIG 0.21  C 
ATOM     20 OE1  GLN D 695       0.965 -17.456  33.967  1.00 83.40 LIG-0.27  OA
ATOM     21  NE2 GLN D 695       0.151 -19.308  33.034  1.00 79.17 LIG-0.37  N 
ATOM     22 22HE GLN D 695      -0.400 -18.867  32.543  1.00 79.17 LIG 0.16  HD
ATOM     23 21HE GLN D 695       0.177 -20.166  32.988  1.00 79.17 LIG 0.16  HD
ENDBRANCH 18 19
ENDBRANCH 17 18
ENDBRANCH 16 17
BRANCH 16 24
ATOM     24  C   GLN D 695       4.301 -20.958  35.607  1.00 61.14 LIG 0.22  C 
ATOM     25 O    GLN D 695       4.560 -21.302  34.450  1.00 66.66 LIG-0.29  OA
ENDBRANCH 16 24
ENDBRANCH 13 16
ENDBRANCH 11 12
BRANCH 11 26
ATOM     26  CB  LEU D 694       6.855 -17.643  38.669  1.00 34.51 LIG 0.04  C 
BRANCH 26 27
ATOM     27  CG  LEU D 694       8.127 -17.249  39.377  1.00 27.71 LIG-0.02  C 
ATOM     28  CD2 LEU D 694       7.927 -16.164  40.393  1.00 26.48 LIG 0.01  C 
ATOM     29  CD1 LEU D 694       9.258 -16.938  38.439  1.00 27.00 LIG 0.01  C 
ENDBRANCH 26 27
ENDBRANCH 11 26
ENDBRANCH 8 11
ENDBRANCH 6 7
BRANCH 6 30
ATOM     30  CB  LEU D 693       5.177 -12.749  36.122  1.00 45.67 LIG 0.04  C 
BRANCH 30 31
ATOM     31  CG  LEU D 693       5.383 -11.936  34.834  1.00 55.29 LIG-0.02  C 
ATOM     32  CD1 LEU D 693       5.893 -12.824  33.707  1.00 47.80 LIG 0.01  C 
ATOM     33  CD2 LEU D 693       4.117 -11.171  34.420  1.00 51.02 LIG 0.01  C 
ENDBRANCH 30 31
ENDBRANCH 6 30
ENDBRANCH 3 6
ENDBRANCH 1 2
BRANCH 1 34
ATOM     34  CB  ARG D 692       9.914 -11.499  35.100  1.00 49.09 LIG 0.04  C 
BRANCH 34 35
ATOM     35  CG  ARG D 692      10.947 -10.417  34.728  1.00 50.62 LIG 0.02  C 
BRANCH 35 36
ATOM     36  CD  ARG D 692      12.280 -10.957  34.232  1.00 57.04 LIG 0.14  C 
BRANCH 36 37
ATOM     37  NE  ARG D 692      13.226 -10.996  35.331  1.00 60.90 LIG-0.23  N 
ATOM     38 HE   ARG D 692      12.947 -10.746  36.105  1.00 60.90 LIG 0.18  HD
ATOM     39  CZ  ARG D 692      14.487 -11.388  35.230  1.00 61.50 LIG 0.67  C 
ATOM     40  NH1 ARG D 692      15.003 -11.699  34.043  1.00 46.48 LIG-0.23  N 
ATOM     41  NH2 ARG D 692      15.244 -11.421  36.319  1.00 64.68 LIG-0.23  N 
ATOM     42 1HH1 ARG D 692      14.516 -11.647  33.335  1.00 46.48 LIG 0.17  HD
ATOM     43 2HH1 ARG D 692      15.823 -11.953  33.984  1.00 46.48 LIG 0.17  HD
ATOM     44 1HH2 ARG D 692      14.915 -11.190  37.079  1.00 64.68 LIG 0.17  HD
ATOM     45 2HH2 ARG D 692      16.065 -11.674  36.265  1.00 64.68 LIG 0.17  HD
ENDBRANCH 36 37
ENDBRANCH 35 36
ENDBRANCH 34 35
ENDBRANCH 1 34
BRANCH 1 46
ATOM     46  N   ARG D 692      11.335 -12.392  36.974  1.00 43.06 LIG-0.35  N 
ATOM     47  C   HIS D 691      11.838 -12.214  38.183  1.00 44.11 LIG 0.24  C 
ATOM     48 O    HIS D 691      11.269 -11.582  39.062  1.00 43.39 LIG-0.27  OA
ATOM     49 H    ARG D 692      11.741 -12.814  36.343  1.00 43.06 LIG 0.16  HD
BRANCH 47 50
ATOM     50  CA  HIS D 691      13.157 -12.842  38.420  1.00 41.80 LIG 0.18  C 
BRANCH 50 51
ATOM     51  CB  HIS D 691      12.919 -14.313  38.392  1.00 51.00 LIG 0.10  C 
BRANCH 51 52
ATOM     52  CG  HIS D 691      12.779 -14.879  37.040  1.00 57.86 LIG 0.06  A 
ATOM     53 ND1  HIS D 691      13.765 -14.865  36.160  1.00 60.60 LIG-0.24  NA
ATOM     54  CE1 HIS D 691      13.355 -15.437  35.032  1.00 72.50 LIG 0.23  A 
ATOM     55 NE2  HIS D 691      12.085 -15.801  35.187  1.00 67.35 LIG-0.25  NA
ATOM     56  CD2 HIS D 691      11.698 -15.467  36.411  1.00 66.29 LIG 0.14  A 
ENDBRANCH 51 52
ENDBRANCH 50 51
BRANCH 50 57
ATOM     57  N   HIS D 691      13.687 -12.470  39.713  1.00 39.94 LIG-0.35  N 
ATOM     58 H    HIS D 691      13.418 -12.973  40.357  1.00 39.94 LIG 0.16  HD
ATOM     59  C   LEU D 690      14.510 -11.448  39.885  1.00 35.88 LIG 0.24  C 
ATOM     60 O    LEU D 690      14.916 -10.732  38.944  1.00 34.66 LIG-0.27  OA
BRANCH 59 61
ATOM     61  CA  LEU D 690      14.906 -11.131  41.308  1.00 33.43 LIG 0.18  C 
BRANCH 61 62
ATOM     62  CB  LEU D 690      14.181  -9.868  41.777  1.00 31.34 LIG 0.04  C 
BRANCH 62 63
ATOM     63  CG  LEU D 690      12.669  -9.840  41.583  1.00 30.93 LIG-0.02  C 
ATOM     64  CD1 LEU D 690      12.042 -11.070  42.220  1.00 30.90 LIG 0.01  C 
ATOM     65  CD2 LEU D 690      12.096  -8.588  42.220  1.00 28.62 LIG 0.01  C 
ENDBRANCH 62 63
ENDBRANCH 61 62
BRANCH 61 66
ATOM     66  N   LEU D 690      16.353 -10.950  41.430  1.00 35.22 LIG-0.35  N 
ATOM     67 H    LEU D 690      16.617 -10.136  41.351  1.00 35.22 LIG 0.16  HD
ATOM     68  C   ILE D 689      17.170 -11.974  41.647  1.00 41.04 LIG 0.26  C 
ATOM     69 O    ILE D 689      16.761 -13.133  41.814  1.00 39.56 LIG-0.27  OA
BRANCH 68 70
ATOM     70  CA  ILE D 689      18.672 -11.628  41.732  1.00 40.35 LIG 0.40  C 
ATOM     71  N   ILE D 689      19.064 -10.504  40.794  1.00 40.45 LIG 0.61  N 
BRANCH 70 72
ATOM     72  CB  ILE D 689      18.990 -11.296  43.211  1.00 42.26 LIG 0.03  C 
ATOM     73  CG2 ILE D 689      19.947 -10.093  43.307  1.00 38.55 LIG 0.01  C 
BRANCH 72 74
ATOM     74  CG1 ILE D 689      17.712 -11.066  44.023  1.00 45.91 LIG 0.00  C 
ATOM     75  CD1 ILE D 689      17.438  -9.602  44.369  1.00 45.96 LIG 0.01  C 
ENDBRANCH 72 74
ENDBRANCH 70 72
ENDBRANCH 68 70
ENDBRANCH 61 66
ENDBRANCH 59 61
ENDBRANCH 50 57
ENDBRANCH 47 50
ENDBRANCH 1 46
TORSDOF 30
ENDMDL
MODEL 9
USER: ADFR SOLUTION from run 34
USER: SCORE 21.622350 LL:  -7.637 LR: -15.555 RR:   0.000 FEB:  -6.606
USER: RMSD 7.640025
USER: SEED 33
USER: STATUS searching
USER: GENES 32
USER: genes 0 Translation |==|  0.69967 0.73972 0.38321
USER: genes 1 Rotation |==|  0.01915 0.60975 0.51743 0.58024
USER: genes 2 Torsion [N]-CA--C-[N] |==|  0.86143
USER: genes 3 Torsion [C]-N--CA-[C] |==|  0.62561
USER: genes 4 Torsion [N]-CA--C-[N] |==|  0.20937
USER: genes 5 Torsion [C]-N--CA-[C] |==|  0.76758
USER: genes 6 Torsion [N]-CA--C-[N] |==|  0.24501
USER: genes 7 Torsion [C]-N--CA-[CB] |==|  0.34655
USER: genes 8 Torsion [N]-CA--CB-[CG] |==|  0.91747
USER: genes 9 Torsion [CA]-CB--CG-[CD] |==|  0.37095
USER: genes 10 Torsion [CB]-CG--CD-[NE2] |==|  0.94305
USER: genes 11 Torsion [N]-CA--C-[O] |==|  0.63718
USER: genes 12 Torsion [N]-CA--CB-[CG] |==|  0.05704
USER: genes 13 Torsion [CA]-CB--CG-[CD2] |==|  0.59770
USER: genes 14 Torsion [N]-CA--CB-[CG] |==|  0.73263
USER: genes 15 Torsion [CA]-CB--CG-[CD1] |==|  0.93801
USER: genes 16 Torsion [C]-CA--CB-[CG] |==|  0.76040
USER: genes 17 Torsion [CA]-CB--CG-[CD] |==|  0.63152
USER: genes 18 Torsion [CB]-CG--CD-[NE] |==|  0.70349
USER: genes 19 Torsion [CG]-CD--NE-[CZ] |==|  0.37950
USER: genes 20 Torsion [C]-CA--N-[C] |==|  0.85925
USER: genes 21 Torsion [N]-C--CA-[N] |==|  0.33889
USER: genes 22 Torsion [C]-CA--CB-[CG] |==|  0.18768
USER: genes 23 Torsion [CA]-CB--CG-[ND1] |==|  0.02012
USER: genes 24 Torsion [C]-CA--N-[C] |==|  0.84391
USER: genes 25 Torsion [N]-C--CA-[N] |==|  0.82242
USER: genes 26 Torsion [C]-CA--CB-[CG] |==|  0.28544
USER: genes 27 Torsion [CA]-CB--CG-[CD2] |==|  0.18724
USER: genes 28 Torsion [C]-CA--N-[C] |==|  0.67524
USER: genes 29 Torsion [N]-C--CA-[N] |==|  0.60045
USER: genes 30 Torsion [C]-CA--CB-[CG1] |==|  0.80623
USER: genes 31 Torsion [CA]-CB--CG1-[CD1] |==|  0.64897
ROOT
ATOM      1  CA  ARG D 692      14.096 -10.507  36.642  1.00 48.73 LIG 0.18  C 
ENDROOT
BRANCH 1 2
ATOM      2  C   ARG D 692      12.635 -10.710  36.272  1.00 46.10 LIG 0.24  C 
ATOM      3  N   LEU D 693      12.220 -11.953  36.044  1.00 50.64 LIG-0.35  N 
ATOM      4 H    LEU D 693      12.708 -12.658  36.106  1.00 50.64 LIG 0.16  HD
ATOM      5 O    ARG D 692      11.898  -9.740  36.104  1.00 52.04 LIG-0.27  OA
BRANCH 3 6
ATOM      6  CA  LEU D 693      10.825 -12.180  35.652  1.00 43.34 LIG 0.18  C 
BRANCH 6 7
ATOM      7  C   LEU D 693      10.197 -13.339  36.416  1.00 37.95 LIG 0.24  C 
ATOM      8  N   LEU D 694       9.866 -13.101  37.669  1.00 39.22 LIG-0.35  N 
ATOM      9 H    LEU D 694      10.029 -12.359  38.071  1.00 39.22 LIG 0.16  HD
ATOM     10 O    LEU D 693      10.045 -14.438  35.871  1.00 43.86 LIG-0.27  OA
BRANCH 8 11
ATOM     11  CA  LEU D 694       9.192 -14.075  38.487  1.00 38.59 LIG 0.18  C 
BRANCH 11 12
ATOM     12  C   LEU D 694       7.725 -13.997  38.217  1.00 46.22 LIG 0.24  C 
ATOM     13  N   GLN D 695       7.301 -14.753  37.220  1.00 66.87 LIG-0.35  N 
ATOM     14 H    GLN D 695       7.854 -15.181  36.721  1.00 66.87 LIG 0.16  HD
ATOM     15 O    LEU D 694       7.039 -13.239  38.852  1.00 54.70 LIG-0.27  OA
BRANCH 13 16
ATOM     16  CA  GLN D 695       5.908 -14.984  36.814  1.00 62.86 LIG 0.16  C 
BRANCH 16 17
ATOM     17  CB  GLN D 695       5.711 -14.641  35.362  1.00 63.26 LIG 0.04  C 
BRANCH 17 18
ATOM     18  CG  GLN D 695       6.653 -13.553  34.921  1.00 77.24 LIG 0.10  C 
BRANCH 18 19
ATOM     19  CD  GLN D 695       7.314 -13.858  33.639  1.00 84.08 LIG 0.21  C 
ATOM     20 OE1  GLN D 695       7.812 -12.969  32.978  1.00 83.40 LIG-0.27  OA
ATOM     21  NE2 GLN D 695       7.347 -15.126  33.276  1.00 79.17 LIG-0.37  N 
ATOM     22 22HE GLN D 695       7.734 -15.353  32.542  1.00 79.17 LIG 0.16  HD
ATOM     23 21HE GLN D 695       6.982 -15.725  33.773  1.00 79.17 LIG 0.16  HD
ENDBRANCH 18 19
ENDBRANCH 17 18
ENDBRANCH 16 17
BRANCH 16 24
ATOM     24  C   GLN D 695       5.315 -16.351  37.147  1.00 61.14 LIG 0.22  C 
ATOM     25 O    GLN D 695       4.725 -17.012  36.288  1.00 66.66 LIG-0.29  OA
ENDBRANCH 16 24
ENDBRANCH 13 16
ENDBRANCH 11 12
BRANCH 11 26
ATOM     26  CB  LEU D 694       9.403 -13.801  39.960  1.00 34.51 LIG 0.04  C 
BRANCH 26 27
ATOM     27  CG  LEU D 694       9.815 -12.426  40.426  1.00 27.71 LIG-0.02  C 
ATOM     28  CD2 LEU D 694      10.742 -12.454  41.603  1.00 26.48 LIG 0.01  C 
ATOM     29  CD1 LEU D 694       8.653 -11.500  40.648  1.00 27.00 LIG 0.01  C 
ENDBRANCH 26 27
ENDBRANCH 11 26
ENDBRANCH 8 11
ENDBRANCH 6 7
BRANCH 6 30
ATOM     30  CB  LEU D 693      10.672 -12.381  34.135  1.00 45.67 LIG 0.04  C 
BRANCH 30 31
ATOM     31  CG  LEU D 693      10.282 -11.132  33.328  1.00 55.29 LIG-0.02  C 
ATOM     32  CD1 LEU D 693       9.604 -10.100  34.219  1.00 47.80 LIG 0.01  C 
ATOM     33  CD2 LEU D 693      11.476 -10.530  32.574  1.00 51.02 LIG 0.01  C 
ENDBRANCH 30 31
ENDBRANCH 6 30
ENDBRANCH 3 6
ENDBRANCH 1 2
BRANCH 1 34
ATOM     34  CB  ARG D 692      14.945 -10.607  35.357  1.00 49.09 LIG 0.04  C 
BRANCH 34 35
ATOM     35  CG  ARG D 692      15.320 -12.069  35.044  1.00 50.62 LIG 0.02  C 
BRANCH 35 36
ATOM     36  CD  ARG D 692      16.787 -12.289  34.705  1.00 57.04 LIG 0.14  C 
BRANCH 36 37
ATOM     37  NE  ARG D 692      16.923 -12.540  33.283  1.00 60.90 LIG-0.23  N 
ATOM     38 HE   ARG D 692      16.355 -13.072  32.916  1.00 60.90 LIG 0.18  HD
ATOM     39  CZ  ARG D 692      17.858 -12.012  32.507  1.00 61.50 LIG 0.67  C 
ATOM     40  NH1 ARG D 692      18.820 -11.254  33.032  1.00 46.48 LIG-0.23  N 
ATOM     41  NH2 ARG D 692      17.853 -12.283  31.209  1.00 64.68 LIG-0.23  N 
ATOM     42 1HH1 ARG D 692      18.836 -11.106  33.879  1.00 46.48 LIG 0.17  HD
ATOM     43 2HH1 ARG D 692      19.424 -10.914  32.523  1.00 46.48 LIG 0.17  HD
ATOM     44 1HH2 ARG D 692      17.247 -12.797  30.879  1.00 64.68 LIG 0.17  HD
ATOM     45 2HH2 ARG D 692      18.455 -11.946  30.696  1.00 64.68 LIG 0.17  HD
ENDBRANCH 36 37
ENDBRANCH 35 36
ENDBRANCH 34 35
ENDBRANCH 1 34
BRANCH 1 46
ATOM     46  N   ARG D 692      14.609 -11.373  37.730  1.00 43.06 LIG-0.35  N 
ATOM     47  C   HIS D 691      13.980 -11.488  38.887  1.00 44.11 LIG 0.24  C 
ATOM     48 O    HIS D 691      12.961 -10.871  39.162  1.00 43.39 LIG-0.27  OA
ATOM     49 H    ARG D 692      15.340 -11.785  37.539  1.00 43.06 LIG 0.16  HD
BRANCH 47 50
ATOM     50  CA  HIS D 691      14.592 -12.431  39.850  1.00 41.80 LIG 0.18  C 
BRANCH 50 51
ATOM     51  CB  HIS D 691      13.557 -13.472  40.112  1.00 51.00 LIG 0.10  C 
BRANCH 51 52
ATOM     52  CG  HIS D 691      13.256 -14.334  38.957  1.00 57.86 LIG 0.06  A 
ATOM     53 ND1  HIS D 691      13.952 -14.283  37.835  1.00 60.60 LIG-0.24  NA
ATOM     54  CE1 HIS D 691      13.455 -15.164  36.971  1.00 72.50 LIG 0.23  A 
ATOM     55 NE2  HIS D 691      12.418 -15.768  37.542  1.00 67.35 LIG-0.25  NA
ATOM     56  CD2 HIS D 691      12.264 -15.276  38.764  1.00 66.29 LIG 0.14  A 
ENDBRANCH 51 52
ENDBRANCH 50 51
BRANCH 50 57
ATOM     57  N   HIS D 691      14.925 -11.767  41.090  1.00 39.94 LIG-0.35  N 
ATOM     58 H    HIS D 691      14.567 -12.127  41.784  1.00 39.94 LIG 0.16  HD
ATOM     59  C   LEU D 690      15.709 -10.703  41.146  1.00 35.88 LIG 0.24  C 
ATOM     60 O    LEU D 690      16.246 -10.195  40.137  1.00 34.66 LIG-0.27  OA
BRANCH 59 61
ATOM     61  CA  LEU D 690      15.892 -10.069  42.505  1.00 33.43 LIG 0.18  C 
BRANCH 61 62
ATOM     62  CB  LEU D 690      16.458 -11.099  43.484  1.00 31.34 LIG 0.04  C 
BRANCH 62 63
ATOM     63  CG  LEU D 690      17.944 -10.988  43.803  1.00 30.93 LIG-0.02  C 
ATOM     64  CD1 LEU D 690      18.752 -10.974  42.515  1.00 30.90 LIG 0.01  C 
ATOM     65  CD2 LEU D 690      18.206  -9.714  44.583  1.00 28.62 LIG 0.01  C 
ENDBRANCH 62 63
ENDBRANCH 61 62
BRANCH 61 66
ATOM     66  N   LEU D 690      14.628  -9.536  43.018  1.00 35.22 LIG-0.35  N 
ATOM     67 H    LEU D 690      14.021 -10.130  43.153  1.00 35.22 LIG 0.16  HD
ATOM     68  C   ILE D 689      14.458  -8.239  43.247  1.00 41.04 LIG 0.26  C 
ATOM     69 O    ILE D 689      15.367  -7.409  43.098  1.00 39.56 LIG-0.27  OA
BRANCH 68 70
ATOM     70  CA  ILE D 689      13.065  -7.827  43.768  1.00 40.35 LIG 0.40  C 
ATOM     71  N   ILE D 689      12.612  -6.488  43.220  1.00 40.45 LIG 0.61  N 
BRANCH 70 72
ATOM     72  CB  ILE D 689      12.079  -8.968  43.416  1.00 42.26 LIG 0.03  C 
ATOM     73  CG2 ILE D 689      10.765  -8.819  44.204  1.00 38.55 LIG 0.01  C 
BRANCH 72 74
ATOM     74  CG1 ILE D 689      11.826  -9.047  41.908  1.00 45.91 LIG 0.00  C 
ATOM     75  CD1 ILE D 689      10.350  -9.007  41.512  1.00 45.96 LIG 0.01  C 
ENDBRANCH 72 74
ENDBRANCH 70 72
ENDBRANCH 68 70
ENDBRANCH 61 66
ENDBRANCH 59 61
ENDBRANCH 50 57
ENDBRANCH 47 50
ENDBRANCH 1 46
TORSDOF 30
ENDMDL
MODEL 10
USER: ADFR SOLUTION from run 144
USER: SCORE 20.738826 LL:  -6.610 LR: -15.531 RR:   0.000 FEB:  -6.582
USER: RMSD 7.244867
USER: SEED 143
USER: STATUS searching
USER: GENES 32
USER: genes 0 Translation |==|  0.60893 0.69159 0.43143
USER: genes 1 Rotation |==|  0.99262 0.48847 0.54189 0.57376
USER: genes 2 Torsion [N]-CA--C-[N] |==|  0.96519
USER: genes 3 Torsion [C]-N--CA-[C] |==|  0.82789
USER: genes 4 Torsion [N]-CA--C-[N] |==|  0.38288
USER: genes 5 Torsion [C]-N--CA-[C] |==|  0.78427
USER: genes 6 Torsion [N]-CA--C-[N] |==|  0.25057
USER: genes 7 Torsion [C]-N--CA-[CB] |==|  0.39918
USER: genes 8 Torsion [N]-CA--CB-[CG] |==|  0.09287
USER: genes 9 Torsion [CA]-CB--CG-[CD] |==|  0.32389
USER: genes 10 Torsion [CB]-CG--CD-[NE2] |==|  0.57487
USER: genes 11 Torsion [N]-CA--C-[O] |==|  0.87747
USER: genes 12 Torsion [N]-CA--CB-[CG] |==|  0.68164
USER: genes 13 Torsion [CA]-CB--CG-[CD2] |==|  0.23532
USER: genes 14 Torsion [N]-CA--CB-[CG] |==|  0.17981
USER: genes 15 Torsion [CA]-CB--CG-[CD1] |==|  0.30555
USER: genes 16 Torsion [C]-CA--CB-[CG] |==|  0.29776
USER: genes 17 Torsion [CA]-CB--CG-[CD] |==|  0.39729
USER: genes 18 Torsion [CB]-CG--CD-[NE] |==|  0.24529
USER: genes 19 Torsion [CG]-CD--NE-[CZ] |==|  0.69624
USER: genes 20 Torsion [C]-CA--N-[C] |==|  0.83889
USER: genes 21 Torsion [N]-C--CA-[N] |==|  0.02339
USER: genes 22 Torsion [C]-CA--CB-[CG] |==|  0.54856
USER: genes 23 Torsion [CA]-CB--CG-[ND1] |==|  0.37151
USER: genes 24 Torsion [C]-CA--N-[C] |==|  0.76760
USER: genes 25 Torsion [N]-C--CA-[N] |==|  0.65973
USER: genes 26 Torsion [C]-CA--CB-[CG] |==|  0.34986
USER: genes 27 Torsion [CA]-CB--CG-[CD2] |==|  0.11019
USER: genes 28 Torsion [C]-CA--N-[C] |==|  0.67405
USER: genes 29 Torsion [N]-C--CA-[N] |==|  0.43830
USER: genes 30 Torsion [C]-CA--CB-[CG1] |==|  0.21208
USER: genes 31 Torsion [CA]-CB--CG1-[CD1] |==|  0.59399
ROOT
ATOM      1  CA  ARG D 692      12.054 -11.410  37.582  1.00 48.73 LIG 0.18  C 
ENDROOT
BRANCH 1 2
ATOM      2  C   ARG D 692      10.870 -12.341  37.378  1.00 46.10 LIG 0.24  C 
ATOM      3  N   LEU D 693      10.493 -13.099  38.405  1.00 50.64 LIG-0.35  N 
ATOM      4 H    LEU D 693      10.854 -13.092  39.184  1.00 50.64 LIG 0.16  HD
ATOM      5 O    ARG D 692      10.347 -12.446  36.270  1.00 52.04 LIG-0.27  OA
BRANCH 3 6
ATOM      6  CA  LEU D 693       9.375 -14.032  38.231  1.00 43.34 LIG 0.18  C 
BRANCH 6 7
ATOM      7  C   LEU D 693       8.075 -13.314  37.896  1.00 37.95 LIG 0.24  C 
ATOM      8  N   LEU D 694       7.327 -13.865  36.961  1.00 39.22 LIG-0.35  N 
ATOM      9 H    LEU D 694       7.561 -14.563  36.516  1.00 39.22 LIG 0.16  HD
ATOM     10 O    LEU D 693       7.779 -12.258  38.466  1.00 43.86 LIG-0.27  OA
BRANCH 8 11
ATOM     11  CA  LEU D 694       6.037 -13.342  36.596  1.00 38.59 LIG 0.18  C 
BRANCH 11 12
ATOM     12  C   LEU D 694       5.042 -13.753  37.632  1.00 46.22 LIG 0.24  C 
ATOM     13  N   GLN D 695       4.898 -12.906  38.634  1.00 66.87 LIG-0.35  N 
ATOM     14 H    GLN D 695       5.410 -12.220  38.712  1.00 66.87 LIG 0.16  HD
ATOM     15 O    LEU D 694       4.487 -14.817  37.538  1.00 54.70 LIG-0.27  OA
BRANCH 13 16
ATOM     16  CA  GLN D 695       3.909 -12.975  39.717  1.00 62.86 LIG 0.16  C 
BRANCH 16 17
ATOM     17  CB  GLN D 695       4.502 -12.497  41.015  1.00 63.26 LIG 0.04  C 
BRANCH 17 18
ATOM     18  CG  GLN D 695       5.510 -11.402  40.789  1.00 77.24 LIG 0.10  C 
BRANCH 18 19
ATOM     19  CD  GLN D 695       5.106 -10.123  41.400  1.00 84.08 LIG 0.21  C 
ATOM     20 OE1  GLN D 695       4.389 -10.110  42.382  1.00 83.40 LIG-0.27  OA
ATOM     21  NE2 GLN D 695       5.576  -9.023  40.842  1.00 79.17 LIG-0.37  N 
ATOM     22 22HE GLN D 695       5.377  -8.255  41.173  1.00 79.17 LIG 0.16  HD
ATOM     23 21HE GLN D 695       6.080  -9.075  40.148  1.00 79.17 LIG 0.16  HD
ENDBRANCH 18 19
ENDBRANCH 17 18
ENDBRANCH 16 17
BRANCH 16 24
ATOM     24  C   GLN D 695       2.554 -12.321  39.451  1.00 61.14 LIG 0.22  C 
ATOM     25 O    GLN D 695       2.481 -11.210  38.919  1.00 66.66 LIG-0.29  OA
ENDBRANCH 16 24
ENDBRANCH 13 16
ENDBRANCH 11 12
BRANCH 11 26
ATOM     26  CB  LEU D 694       5.572 -13.896  35.266  1.00 34.51 LIG 0.04  C 
BRANCH 26 27
ATOM     27  CG  LEU D 694       5.406 -12.980  34.079  1.00 27.71 LIG-0.02  C 
ATOM     28  CD2 LEU D 694       6.681 -12.754  33.324  1.00 26.48 LIG 0.01  C 
ATOM     29  CD1 LEU D 694       4.716 -11.689  34.415  1.00 27.00 LIG 0.01  C 
ENDBRANCH 26 27
ENDBRANCH 11 26
ENDBRANCH 8 11
ENDBRANCH 6 7
BRANCH 6 30
ATOM     30  CB  LEU D 693       9.191 -14.951  39.451  1.00 45.67 LIG 0.04  C 
BRANCH 30 31
ATOM     31  CG  LEU D 693       8.791 -14.256  40.762  1.00 55.29 LIG-0.02  C 
ATOM     32  CD1 LEU D 693       7.356 -14.596  41.141  1.00 47.80 LIG 0.01  C 
ATOM     33  CD2 LEU D 693       9.766 -14.568  41.907  1.00 51.02 LIG 0.01  C 
ENDBRANCH 30 31
ENDBRANCH 6 30
ENDBRANCH 3 6
ENDBRANCH 1 2
BRANCH 1 34
ATOM     34  CB  ARG D 692      13.203 -11.869  36.660  1.00 49.09 LIG 0.04  C 
BRANCH 34 35
ATOM     35  CG  ARG D 692      13.393 -10.903  35.475  1.00 50.62 LIG 0.02  C 
BRANCH 35 36
ATOM     36  CD  ARG D 692      14.840 -10.683  35.060  1.00 57.04 LIG 0.14  C 
BRANCH 36 37
ATOM     37  NE  ARG D 692      15.224 -11.688  34.087  1.00 60.90 LIG-0.23  N 
ATOM     38 HE   ARG D 692      14.880 -11.632  33.301  1.00 60.90 LIG 0.18  HD
ATOM     39  CZ  ARG D 692      16.064 -12.685  34.320  1.00 61.50 LIG 0.67  C 
ATOM     40  NH1 ARG D 692      16.559 -12.878  35.542  1.00 46.48 LIG-0.23  N 
ATOM     41  NH2 ARG D 692      16.372 -13.517  33.334  1.00 64.68 LIG-0.23  N 
ATOM     42 1HH1 ARG D 692      16.333 -12.353  36.185  1.00 46.48 LIG 0.17  HD
ATOM     43 2HH1 ARG D 692      17.104 -13.527  35.687  1.00 46.48 LIG 0.17  HD
ATOM     44 1HH2 ARG D 692      16.027 -13.407  32.554  1.00 64.68 LIG 0.17  HD
ATOM     45 2HH2 ARG D 692      16.916 -14.168  33.474  1.00 64.68 LIG 0.17  HD
ENDBRANCH 36 37
ENDBRANCH 35 36
ENDBRANCH 34 35
ENDBRANCH 1 34
BRANCH 1 46
ATOM     46  N   ARG D 692      12.492 -11.226  38.986  1.00 43.06 LIG-0.35  N 
ATOM     47  C   HIS D 691      11.674 -10.770  39.919  1.00 44.11 LIG 0.24  C 
ATOM     48 O    HIS D 691      10.520 -10.434  39.695  1.00 43.39 LIG-0.27  OA
ATOM     49 H    ARG D 692      13.313 -11.440  39.131  1.00 43.06 LIG 0.16  HD
BRANCH 47 50
ATOM     50  CA  HIS D 691      12.247 -10.693  41.282  1.00 41.80 LIG 0.18  C 
BRANCH 50 51
ATOM     51  CB  HIS D 691      12.012  -9.295  41.743  1.00 51.00 LIG 0.10  C 
BRANCH 51 52
ATOM     52  CG  HIS D 691      12.844  -8.886  42.888  1.00 57.86 LIG 0.06  A 
ATOM     53 ND1  HIS D 691      13.482  -7.730  42.923  1.00 60.60 LIG-0.24  NA
ATOM     54  CE1 HIS D 691      14.152  -7.633  44.067  1.00 72.50 LIG 0.23  A 
ATOM     55 NE2  HIS D 691      13.955  -8.750  44.761  1.00 67.35 LIG-0.25  NA
ATOM     56  CD2 HIS D 691      13.158  -9.546  44.061  1.00 66.29 LIG 0.14  A 
ENDBRANCH 51 52
ENDBRANCH 50 51
BRANCH 50 57
ATOM     57  N   HIS D 691      13.668 -10.957  41.265  1.00 39.94 LIG-0.35  N 
ATOM     58 H    HIS D 691      14.154 -10.248  41.245  1.00 39.94 LIG 0.16  HD
ATOM     59  C   LEU D 690      14.171 -12.181  41.280  1.00 35.88 LIG 0.24  C 
ATOM     60 O    LEU D 690      13.464 -13.211  41.332  1.00 34.66 LIG-0.27  OA
BRANCH 59 61
ATOM     61  CA  LEU D 690      15.673 -12.296  41.169  1.00 33.43 LIG 0.18  C 
BRANCH 61 62
ATOM     62  CB  LEU D 690      16.290 -10.901  41.046  1.00 31.34 LIG 0.04  C 
BRANCH 62 63
ATOM     63  CG  LEU D 690      17.380 -10.548  42.051  1.00 30.93 LIG-0.02  C 
ATOM     64  CD1 LEU D 690      16.752 -10.121  43.369  1.00 30.90 LIG 0.01  C 
ATOM     65  CD2 LEU D 690      18.274 -11.752  42.280  1.00 28.62 LIG 0.01  C 
ENDBRANCH 62 63
ENDBRANCH 61 62
BRANCH 61 66
ATOM     66  N   LEU D 690      16.061 -13.116  40.020  1.00 35.22 LIG-0.35  N 
ATOM     67 H    LEU D 690      15.823 -12.795  39.258  1.00 35.22 LIG 0.16  HD
ATOM     68  C   ILE D 689      16.727 -14.255  40.167  1.00 41.04 LIG 0.26  C 
ATOM     69 O    ILE D 689      17.109 -14.669  41.272  1.00 39.56 LIG-0.27  OA
BRANCH 68 70
ATOM     70  CA  ILE D 689      17.047 -15.018  38.864  1.00 40.35 LIG 0.40  C 
ATOM     71  N   ILE D 689      18.217 -15.969  39.020  1.00 40.45 LIG 0.61  N 
BRANCH 70 72
ATOM     72  CB  ILE D 689      15.754 -15.746  38.420  1.00 42.26 LIG 0.03  C 
ATOM     73  CG2 ILE D 689      15.129 -16.516  39.598  1.00 38.55 LIG 0.01  C 
BRANCH 72 74
ATOM     74  CG1 ILE D 689      14.753 -14.777  37.786  1.00 45.91 LIG 0.00  C 
ATOM     75  CD1 ILE D 689      13.287 -15.118  38.053  1.00 45.96 LIG 0.01  C 
ENDBRANCH 72 74
ENDBRANCH 70 72
ENDBRANCH 68 70
ENDBRANCH 61 66
ENDBRANCH 59 61
ENDBRANCH 50 57
ENDBRANCH 47 50
ENDBRANCH 1 46
TORSDOF 30
ENDMDL
MODEL 11
USER: ADFR SOLUTION from run 100
USER: SCORE 21.342512 LL:  -6.480 LR: -15.523 RR:   0.000 FEB:  -6.574
USER: RMSD 6.886464
USER: SEED 99
USER: STATUS no improvement in best in 21 clusters for 5 generations
USER: GENES 32
USER: genes 0 Translation |==|  0.53436 0.68494 0.31092
USER: genes 1 Rotation |==|  0.04024 0.63257 0.63509 0.55290
USER: genes 2 Torsion [N]-CA--C-[N] |==|  0.94712
USER: genes 3 Torsion [C]-N--CA-[C] |==|  0.63569
USER: genes 4 Torsion [N]-CA--C-[N] |==|  0.23368
USER: genes 5 Torsion [C]-N--CA-[C] |==|  0.77767
USER: genes 6 Torsion [N]-CA--C-[N] |==|  0.00774
USER: genes 7 Torsion [C]-N--CA-[CB] |==|  0.88129
USER: genes 8 Torsion [N]-CA--CB-[CG] |==|  0.74607
USER: genes 9 Torsion [CA]-CB--CG-[CD] |==|  0.17218
USER: genes 10 Torsion [CB]-CG--CD-[NE2] |==|  0.14875
USER: genes 11 Torsion [N]-CA--C-[O] |==|  0.17123
USER: genes 12 Torsion [N]-CA--CB-[CG] |==|  0.11904
USER: genes 13 Torsion [CA]-CB--CG-[CD2] |==|  0.59052
USER: genes 14 Torsion [N]-CA--CB-[CG] |==|  0.74960
USER: genes 15 Torsion [CA]-CB--CG-[CD1] |==|  0.85991
USER: genes 16 Torsion [C]-CA--CB-[CG] |==|  0.45605
USER: genes 17 Torsion [CA]-CB--CG-[CD] |==|  0.03501
USER: genes 18 Torsion [CB]-CG--CD-[NE] |==|  0.42084
USER: genes 19 Torsion [CG]-CD--NE-[CZ] |==|  0.53380
USER: genes 20 Torsion [C]-CA--N-[C] |==|  0.82029
USER: genes 21 Torsion [N]-C--CA-[N] |==|  0.94924
USER: genes 22 Torsion [C]-CA--CB-[CG] |==|  0.21675
USER: genes 23 Torsion [CA]-CB--CG-[ND1] |==|  0.00530
USER: genes 24 Torsion [C]-CA--N-[C] |==|  0.83328
USER: genes 25 Torsion [N]-C--CA-[N] |==|  0.98262
USER: genes 26 Torsion [C]-CA--CB-[CG] |==|  0.38243
USER: genes 27 Torsion [CA]-CB--CG-[CD2] |==|  0.37938
USER: genes 28 Torsion [C]-CA--N-[C] |==|  0.81102
USER: genes 29 Torsion [N]-C--CA-[N] |==|  0.39236
USER: genes 30 Torsion [C]-CA--CB-[CG1] |==|  0.52458
USER: genes 31 Torsion [CA]-CB--CG1-[CD1] |==|  0.60824
ROOT
ATOM      1  CA  ARG D 692      10.376 -11.534  35.232  1.00 48.73 LIG 0.18  C 
ENDROOT
BRANCH 1 2
ATOM      2  C   ARG D 692       8.912 -11.696  35.607  1.00 46.10 LIG 0.24  C 
ATOM      3  N   LEU D 693       8.546 -12.827  36.205  1.00 50.64 LIG-0.35  N 
ATOM      4 H    LEU D 693       9.076 -13.471  36.415  1.00 50.64 LIG 0.16  HD
ATOM      5 O    ARG D 692       8.090 -10.842  35.279  1.00 52.04 LIG-0.27  OA
BRANCH 3 6
ATOM      6  CA  LEU D 693       7.135 -13.030  36.549  1.00 43.34 LIG 0.18  C 
BRANCH 6 7
ATOM      7  C   LEU D 693       6.957 -13.494  37.989  1.00 37.95 LIG 0.24  C 
ATOM      8  N   LEU D 694       6.934 -12.550  38.908  1.00 39.22 LIG-0.35  N 
ATOM      9 H    LEU D 694       7.060 -11.717  38.737  1.00 39.22 LIG 0.16  HD
ATOM     10 O    LEU D 693       6.871 -14.698  38.251  1.00 43.86 LIG-0.27  OA
BRANCH 8 11
ATOM     11  CA  LEU D 694       6.695 -12.833  40.299  1.00 38.59 LIG 0.18  C 
BRANCH 11 12
ATOM     12  C   LEU D 694       5.225 -13.002  40.508  1.00 46.22 LIG 0.24  C 
ATOM     13  N   GLN D 695       4.493 -12.919  39.413  1.00 66.87 LIG-0.35  N 
ATOM     14 H    GLN D 695       4.843 -12.696  38.660  1.00 66.87 LIG 0.16  HD
ATOM     15 O    LEU D 694       4.792 -13.139  41.623  1.00 54.70 LIG-0.27  OA
BRANCH 13 16
ATOM     16  CA  GLN D 695       3.052 -13.174  39.289  1.00 62.86 LIG 0.16  C 
BRANCH 16 17
ATOM     17  CB  GLN D 695       2.656 -14.402  40.064  1.00 63.26 LIG 0.04  C 
BRANCH 17 18
ATOM     18  CG  GLN D 695       2.716 -15.637  39.205  1.00 77.24 LIG 0.10  C 
BRANCH 18 19
ATOM     19  CD  GLN D 695       4.074 -15.916  38.705  1.00 84.08 LIG 0.21  C 
ATOM     20 OE1  GLN D 695       4.273 -16.052  37.513  1.00 83.40 LIG-0.27  OA
ATOM     21  NE2 GLN D 695       5.036 -15.987  39.605  1.00 79.17 LIG-0.37  N 
ATOM     22 22HE GLN D 695       5.846 -16.135  39.357  1.00 79.17 LIG 0.16  HD
ATOM     23 21HE GLN D 695       4.853 -15.885  40.438  1.00 79.17 LIG 0.16  HD
ENDBRANCH 18 19
ENDBRANCH 17 18
ENDBRANCH 16 17
BRANCH 16 24
ATOM     24  C   GLN D 695       2.120 -12.002  39.592  1.00 61.14 LIG 0.22  C 
ATOM     25 O    GLN D 695       2.164 -10.968  38.919  1.00 66.66 LIG-0.29  OA
ENDBRANCH 16 24
ENDBRANCH 13 16
ENDBRANCH 11 12
BRANCH 11 26
ATOM     26  CB  LEU D 694       7.157 -11.695  41.183  1.00 34.51 LIG 0.04  C 
BRANCH 26 27
ATOM     27  CG  LEU D 694       6.872 -10.266  40.792  1.00 27.71 LIG-0.02  C 
ATOM     28  CD2 LEU D 694       7.941  -9.309  41.228  1.00 26.48 LIG 0.01  C 
ATOM     29  CD1 LEU D 694       5.503  -9.799  41.195  1.00 27.00 LIG 0.01  C 
ENDBRANCH 26 27
ENDBRANCH 11 26
ENDBRANCH 8 11
ENDBRANCH 6 7
BRANCH 6 30
ATOM     30  CB  LEU D 693       6.431 -13.990  35.576  1.00 45.67 LIG 0.04  C 
BRANCH 30 31
ATOM     31  CG  LEU D 693       5.771 -13.340  34.350  1.00 55.29 LIG-0.02  C 
ATOM     32  CD1 LEU D 693       4.876 -12.181  34.766  1.00 47.80 LIG 0.01  C 
ATOM     33  CD2 LEU D 693       6.800 -12.908  33.296  1.00 51.02 LIG 0.01  C 
ENDBRANCH 30 31
ENDBRANCH 6 30
ENDBRANCH 3 6
ENDBRANCH 1 2
BRANCH 1 34
ATOM     34  CB  ARG D 692      10.503 -11.635  33.697  1.00 49.09 LIG 0.04  C 
BRANCH 34 35
ATOM     35  CG  ARG D 692      11.864 -11.100  33.210  1.00 50.62 LIG 0.02  C 
BRANCH 35 36
ATOM     36  CD  ARG D 692      12.889 -10.877  34.313  1.00 57.04 LIG 0.14  C 
BRANCH 36 37
ATOM     37  NE  ARG D 692      14.225 -11.039  33.772  1.00 60.90 LIG-0.23  N 
ATOM     38 HE   ARG D 692      14.307 -11.072  32.916  1.00 60.90 LIG 0.18  HD
ATOM     39  CZ  ARG D 692      15.328 -11.139  34.498  1.00 61.50 LIG 0.67  C 
ATOM     40  NH1 ARG D 692      15.258 -11.186  35.827  1.00 46.48 LIG-0.23  N 
ATOM     41  NH2 ARG D 692      16.501 -11.240  33.885  1.00 64.68 LIG-0.23  N 
ATOM     42 1HH1 ARG D 692      14.493 -11.151  36.219  1.00 46.48 LIG 0.17  HD
ATOM     43 2HH1 ARG D 692      15.978 -11.252  36.293  1.00 46.48 LIG 0.17  HD
ATOM     44 1HH2 ARG D 692      16.539 -11.239  33.026  1.00 64.68 LIG 0.17  HD
ATOM     45 2HH2 ARG D 692      17.223 -11.306  34.347  1.00 64.68 LIG 0.17  HD
ENDBRANCH 36 37
ENDBRANCH 35 36
ENDBRANCH 34 35
ENDBRANCH 1 34
BRANCH 1 46
ATOM     46  N   ARG D 692      11.323 -12.428  35.940  1.00 43.06 LIG-0.35  N 
ATOM     47  C   HIS D 691      11.514 -12.350  37.246  1.00 44.11 LIG 0.24  C 
ATOM     48 O    HIS D 691      10.962 -11.524  37.957  1.00 43.39 LIG-0.27  OA
ATOM     49 H    ARG D 692      11.727 -12.991  35.429  1.00 43.06 LIG 0.16  HD
BRANCH 47 50
ATOM     50  CA  HIS D 691      12.452 -13.347  37.810  1.00 41.80 LIG 0.18  C 
BRANCH 50 51
ATOM     51  CB  HIS D 691      13.748 -12.632  37.987  1.00 51.00 LIG 0.10  C 
BRANCH 51 52
ATOM     52  CG  HIS D 691      13.803 -11.759  39.171  1.00 57.86 LIG 0.06  A 
ATOM     53 ND1  HIS D 691      12.797 -11.655  40.022  1.00 60.60 LIG-0.24  NA
ATOM     54  CE1 HIS D 691      13.123 -10.798  40.984  1.00 72.50 LIG 0.23  A 
ATOM     55 NE2  HIS D 691      14.344 -10.334  40.732  1.00 67.35 LIG-0.25  NA
ATOM     56  CD2 HIS D 691      14.789 -10.902  39.620  1.00 66.29 LIG 0.14  A 
ENDBRANCH 51 52
ENDBRANCH 50 51
BRANCH 50 57
ATOM     57  N   HIS D 691      12.640 -14.457  36.903  1.00 39.94 LIG-0.35  N 
ATOM     58 H    HIS D 691      13.455 -14.565  36.649  1.00 39.94 LIG 0.16  HD
ATOM     59  C   LEU D 690      11.646 -15.234  36.503  1.00 35.88 LIG 0.24  C 
ATOM     60 O    LEU D 690      10.467 -15.089  36.890  1.00 34.66 LIG-0.27  OA
BRANCH 59 61
ATOM     61  CA  LEU D 690      11.987 -16.297  35.484  1.00 33.43 LIG 0.18  C 
BRANCH 61 62
ATOM     62  CB  LEU D 690      11.775 -17.683  36.094  1.00 31.34 LIG 0.04  C 
BRANCH 62 63
ATOM     63  CG  LEU D 690      11.103 -18.722  35.204  1.00 30.93 LIG-0.02  C 
ATOM     64  CD1 LEU D 690      11.137 -18.263  33.754  1.00 30.90 LIG 0.01  C 
ATOM     65  CD2 LEU D 690      11.824 -20.051  35.334  1.00 28.62 LIG 0.01  C 
ENDBRANCH 62 63
ENDBRANCH 61 62
BRANCH 61 66
ATOM     66  N   LEU D 690      13.368 -16.163  35.017  1.00 35.22 LIG-0.35  N 
ATOM     67 H    LEU D 690      13.889 -16.802  35.262  1.00 35.22 LIG 0.16  HD
ATOM     68  C   ILE D 689      13.760 -15.132  34.279  1.00 41.04 LIG 0.26  C 
ATOM     69 O    ILE D 689      12.978 -14.251  33.891  1.00 39.56 LIG-0.27  OA
BRANCH 68 70
ATOM     70  CA  ILE D 689      15.251 -15.120  33.880  1.00 40.35 LIG 0.40  C 
ATOM     71  N   ILE D 689      15.470 -14.627  32.463  1.00 40.45 LIG 0.61  N 
BRANCH 70 72
ATOM     72  CB  ILE D 689      16.006 -14.260  34.923  1.00 42.26 LIG 0.03  C 
ATOM     73  CG2 ILE D 689      15.929 -14.904  36.320  1.00 38.55 LIG 0.01  C 
BRANCH 72 74
ATOM     74  CG1 ILE D 689      17.455 -14.005  34.500  1.00 45.91 LIG 0.00  C 
ATOM     75  CD1 ILE D 689      18.466 -14.051  35.645  1.00 45.96 LIG 0.01  C 
ENDBRANCH 72 74
ENDBRANCH 70 72
ENDBRANCH 68 70
ENDBRANCH 61 66
ENDBRANCH 59 61
ENDBRANCH 50 57
ENDBRANCH 47 50
ENDBRANCH 1 46
TORSDOF 30
ENDMDL
MODEL 12
USER: ADFR SOLUTION from run 131
USER: SCORE 21.325051 LL:  -6.932 LR: -15.487 RR:   0.000 FEB:  -6.538
USER: RMSD 6.929455
USER: SEED 130
USER: STATUS no improvement in best in 41 clusters for 5 generations
USER: GENES 32
USER: genes 0 Translation |==|  0.53380 0.67756 0.32463
USER: genes 1 Rotation |==|  0.01667 0.58774 0.58541 0.53743
USER: genes 2 Torsion [N]-CA--C-[N] |==|  0.91381
USER: genes 3 Torsion [C]-N--CA-[C] |==|  0.57241
USER: genes 4 Torsion [N]-CA--C-[N] |==|  0.46829
USER: genes 5 Torsion [C]-N--CA-[C] |==|  0.63191
USER: genes 6 Torsion [N]-CA--C-[N] |==|  0.23989
USER: genes 7 Torsion [C]-N--CA-[CB] |==|  0.25940
USER: genes 8 Torsion [N]-CA--CB-[CG] |==|  0.53939
USER: genes 9 Torsion [CA]-CB--CG-[CD] |==|  0.36286
USER: genes 10 Torsion [CB]-CG--CD-[NE2] |==|  0.41809
USER: genes 11 Torsion [N]-CA--C-[O] |==|  0.01293
USER: genes 12 Torsion [N]-CA--CB-[CG] |==|  0.96699
USER: genes 13 Torsion [CA]-CB--CG-[CD2] |==|  0.61799
USER: genes 14 Torsion [N]-CA--CB-[CG] |==|  0.68911
USER: genes 15 Torsion [CA]-CB--CG-[CD1] |==|  0.94393
USER: genes 16 Torsion [C]-CA--CB-[CG] |==|  0.42464
USER: genes 17 Torsion [CA]-CB--CG-[CD] |==|  0.14275
USER: genes 18 Torsion [CB]-CG--CD-[NE] |==|  0.31015
USER: genes 19 Torsion [CG]-CD--NE-[CZ] |==|  0.51819
USER: genes 20 Torsion [C]-CA--N-[C] |==|  0.74337
USER: genes 21 Torsion [N]-C--CA-[N] |==|  0.46727
USER: genes 22 Torsion [C]-CA--CB-[CG] |==|  0.84344
USER: genes 23 Torsion [CA]-CB--CG-[ND1] |==|  0.21571
USER: genes 24 Torsion [C]-CA--N-[C] |==|  0.76671
USER: genes 25 Torsion [N]-C--CA-[N] |==|  0.01262
USER: genes 26 Torsion [C]-CA--CB-[CG] |==|  0.59021
USER: genes 27 Torsion [CA]-CB--CG-[CD2] |==|  0.81855
USER: genes 28 Torsion [C]-CA--N-[C] |==|  0.66757
USER: genes 29 Torsion [N]-C--CA-[N] |==|  0.34807
USER: genes 30 Torsion [C]-CA--CB-[CG1] |==|  0.03610
USER: genes 31 Torsion [CA]-CB--CG1-[CD1] |==|  0.70258
ROOT
ATOM      1  CA  ARG D 692      10.363 -11.673  35.499  1.00 48.73 LIG 0.18  C 
ENDROOT
BRANCH 1 2
ATOM      2  C   ARG D 692       8.905 -12.092  35.584  1.00 46.10 LIG 0.24  C 
ATOM      3  N   LEU D 693       8.639 -13.338  35.969  1.00 50.64 LIG-0.35  N 
ATOM      4 H    LEU D 693       9.227 -13.923  36.194  1.00 50.64 LIG 0.16  HD
ATOM      5 O    ARG D 692       8.017 -11.325  35.216  1.00 52.04 LIG-0.27  OA
BRANCH 3 6
ATOM      6  CA  LEU D 693       7.244 -13.785  36.029  1.00 43.34 LIG 0.18  C 
BRANCH 6 7
ATOM      7  C   LEU D 693       7.046 -14.913  37.033  1.00 37.95 LIG 0.24  C 
ATOM      8  N   LEU D 694       5.799 -15.221  37.327  1.00 39.22 LIG-0.35  N 
ATOM      9 H    LEU D 694       5.119 -14.793  37.021  1.00 39.22 LIG 0.16  HD
ATOM     10 O    LEU D 693       8.021 -15.469  37.549  1.00 43.86 LIG-0.27  OA
BRANCH 8 11
ATOM     11  CA  LEU D 694       5.459 -16.315  38.198  1.00 38.59 LIG 0.18  C 
BRANCH 11 12
ATOM     12  C   LEU D 694       4.382 -17.126  37.553  1.00 46.22 LIG 0.24  C 
ATOM     13  N   GLN D 695       4.810 -18.060  36.723  1.00 66.87 LIG-0.35  N 
ATOM     14 H    GLN D 695       5.642 -18.122  36.515  1.00 66.87 LIG 0.16  HD
ATOM     15 O    LEU D 694       3.228 -16.863  37.764  1.00 54.70 LIG-0.27  OA
BRANCH 13 16
ATOM     16  CA  GLN D 695       4.002 -19.088  36.053  1.00 62.86 LIG 0.16  C 
BRANCH 16 17
ATOM     17  CB  GLN D 695       3.570 -18.624  34.689  1.00 63.26 LIG 0.04  C 
BRANCH 17 18
ATOM     18  CG  GLN D 695       2.476 -19.495  34.132  1.00 77.24 LIG 0.10  C 
BRANCH 18 19
ATOM     19  CD  GLN D 695       1.334 -18.716  33.620  1.00 84.08 LIG 0.21  C 
ATOM     20 OE1  GLN D 695       1.070 -17.629  34.095  1.00 83.40 LIG-0.27  OA
ATOM     21  NE2 GLN D 695       0.648 -19.251  32.628  1.00 79.17 LIG-0.37  N 
ATOM     22 22HE GLN D 695      -0.019 -18.827  32.289  1.00 79.17 LIG 0.16  HD
ATOM     23 21HE GLN D 695       0.867 -20.024  32.321  1.00 79.17 LIG 0.16  HD
ENDBRANCH 18 19
ENDBRANCH 17 18
ENDBRANCH 16 17
BRANCH 16 24
ATOM     24  C   GLN D 695       4.591 -20.496  36.001  1.00 61.14 LIG 0.22  C 
ATOM     25 O    GLN D 695       5.651 -20.761  36.575  1.00 66.66 LIG-0.29  OA
ENDBRANCH 16 24
ENDBRANCH 13 16
ENDBRANCH 11 12
BRANCH 11 26
ATOM     26  CB  LEU D 694       4.927 -15.820  39.526  1.00 34.51 LIG 0.04  C 
BRANCH 26 27
ATOM     27  CG  LEU D 694       5.058 -14.365  39.902  1.00 27.71 LIG-0.02  C 
ATOM     28  CD2 LEU D 694       5.468 -14.158  41.329  1.00 26.48 LIG 0.01  C 
ATOM     29  CD1 LEU D 694       3.851 -13.547  39.540  1.00 27.00 LIG 0.01  C 
ENDBRANCH 26 27
ENDBRANCH 11 26
ENDBRANCH 8 11
ENDBRANCH 6 7
BRANCH 6 30
ATOM     30  CB  LEU D 693       6.702 -14.185  34.646  1.00 45.67 LIG 0.04  C 
BRANCH 30 31
ATOM     31  CG  LEU D 693       5.615 -13.270  34.060  1.00 55.29 LIG-0.02  C 
ATOM     32  CD1 LEU D 693       4.948 -12.449  35.155  1.00 47.80 LIG 0.01  C 
ATOM     33  CD2 LEU D 693       6.151 -12.377  32.933  1.00 51.02 LIG 0.01  C 
ENDBRANCH 30 31
ENDBRANCH 6 30
ENDBRANCH 3 6
ENDBRANCH 1 2
BRANCH 1 34
ATOM     34  CB  ARG D 692      10.834 -11.825  34.037  1.00 49.09 LIG 0.04  C 
BRANCH 34 35
ATOM     35  CG  ARG D 692      11.983 -10.851  33.713  1.00 50.62 LIG 0.02  C 
BRANCH 35 36
ATOM     36  CD  ARG D 692      13.144 -10.890  34.695  1.00 57.04 LIG 0.14  C 
BRANCH 36 37
ATOM     37  NE  ARG D 692      14.315 -11.443  34.040  1.00 60.90 LIG-0.23  N 
ATOM     38 HE   ARG D 692      14.262 -11.597  33.196  1.00 60.90 LIG 0.18  HD
ATOM     39  CZ  ARG D 692      15.457 -11.729  34.648  1.00 61.50 LIG 0.67  C 
ATOM     40  NH1 ARG D 692      15.569 -11.598  35.968  1.00 46.48 LIG-0.23  N 
ATOM     41  NH2 ARG D 692      16.473 -12.191  33.931  1.00 64.68 LIG-0.23  N 
ATOM     42 1HH1 ARG D 692      14.897 -11.327  36.432  1.00 46.48 LIG 0.17  HD
ATOM     43 2HH1 ARG D 692      16.313 -11.786  36.356  1.00 46.48 LIG 0.17  HD
ATOM     44 1HH2 ARG D 692      16.387 -12.302  33.083  1.00 64.68 LIG 0.17  HD
ATOM     45 2HH2 ARG D 692      17.219 -12.379  34.315  1.00 64.68 LIG 0.17  HD
ENDBRANCH 36 37
ENDBRANCH 35 36
ENDBRANCH 34 35
ENDBRANCH 1 34
BRANCH 1 46
ATOM     46  N   ARG D 692      11.278 -12.332  36.461  1.00 43.06 LIG-0.35  N 
ATOM     47  C   HIS D 691      11.553 -11.801  37.640  1.00 44.11 LIG 0.24  C 
ATOM     48 O    HIS D 691      11.111 -10.723  38.011  1.00 43.39 LIG-0.27  OA
ATOM     49 H    ARG D 692      11.606 -13.078  36.184  1.00 43.06 LIG 0.16  HD
BRANCH 47 50
ATOM     50  CA  HIS D 691      12.442 -12.607  38.507  1.00 41.80 LIG 0.18  C 
BRANCH 50 51
ATOM     51  CB  HIS D 691      11.614 -13.747  38.992  1.00 51.00 LIG 0.10  C 
BRANCH 51 52
ATOM     52  CG  HIS D 691      10.381 -13.348  39.690  1.00 57.86 LIG 0.06  A 
ATOM     53 ND1  HIS D 691       9.303 -12.937  39.045  1.00 60.60 LIG-0.24  NA
ATOM     54  CE1 HIS D 691       8.352 -12.641  39.926  1.00 72.50 LIG 0.23  A 
ATOM     55 NE2  HIS D 691       8.836 -12.846  41.148  1.00 67.35 LIG-0.25  NA
ATOM     56  CD2 HIS D 691      10.085 -13.277  41.038  1.00 66.29 LIG 0.14  A 
ENDBRANCH 51 52
ENDBRANCH 50 51
BRANCH 50 57
ATOM     57  N   HIS D 691      12.903 -11.837  39.641  1.00 39.94 LIG-0.35  N 
ATOM     58 H    HIS D 691      12.437 -11.955  40.354  1.00 39.94 LIG 0.16  HD
ATOM     59  C   LEU D 690      13.946 -11.026  39.581  1.00 35.88 LIG 0.24  C 
ATOM     60 O    LEU D 690      14.635 -10.872  38.550  1.00 34.66 LIG-0.27  OA
BRANCH 59 61
ATOM     61  CA  LEU D 690      14.249 -10.222  40.825  1.00 33.43 LIG 0.18  C 
BRANCH 61 62
ATOM     62  CB  LEU D 690      15.705 -10.440  41.239  1.00 31.34 LIG 0.04  C 
BRANCH 62 63
ATOM     63  CG  LEU D 690      16.001 -10.396  42.734  1.00 30.93 LIG-0.02  C 
ATOM     64  CD1 LEU D 690      17.453 -10.773  42.987  1.00 30.90 LIG 0.01  C 
ATOM     65  CD2 LEU D 690      15.738  -9.000  43.266  1.00 28.62 LIG 0.01  C 
ENDBRANCH 62 63
ENDBRANCH 61 62
BRANCH 61 66
ATOM     66  N   LEU D 690      13.357 -10.590  41.926  1.00 35.22 LIG-0.35  N 
ATOM     67 H    LEU D 690      13.409 -11.414  42.165  1.00 35.22 LIG 0.16  HD
ATOM     68  C   ILE D 689      12.546  -9.705  42.494  1.00 41.04 LIG 0.26  C 
ATOM     69 O    ILE D 689      12.530  -8.508  42.170  1.00 39.56 LIG-0.27  OA
BRANCH 68 70
ATOM     70  CA  ILE D 689      11.651 -10.247  43.629  1.00 40.35 LIG 0.40  C 
ATOM     71  N   ILE D 689      11.804  -9.459  44.915  1.00 40.45 LIG 0.61  N 
BRANCH 70 72
ATOM     72  CB  ILE D 689      10.192 -10.249  43.112  1.00 42.26 LIG 0.03  C 
ATOM     73  CG2 ILE D 689       9.344  -9.205  43.863  1.00 38.55 LIG 0.01  C 
BRANCH 72 74
ATOM     74  CG1 ILE D 689      10.132 -10.037  41.596  1.00 45.91 LIG 0.00  C 
ATOM     75  CD1 ILE D 689       9.632  -8.657  41.170  1.00 45.96 LIG 0.01  C 
ENDBRANCH 72 74
ENDBRANCH 70 72
ENDBRANCH 68 70
ENDBRANCH 61 66
ENDBRANCH 59 61
ENDBRANCH 50 57
ENDBRANCH 47 50
ENDBRANCH 1 46
TORSDOF 30
ENDMDL
MODEL 13
USER: ADFR SOLUTION from run 100
USER: SCORE 22.152453 LL:  -7.456 LR: -15.459 RR:   0.000 FEB:  -6.510
USER: RMSD 6.418288
USER: SEED 99
USER: STATUS no improvement in best in 21 clusters for 5 generations
USER: GENES 32
USER: genes 0 Translation |==|  0.54213 0.68381 0.31513
USER: genes 1 Rotation |==|  0.03958 0.63458 0.63089 0.55259
USER: genes 2 Torsion [N]-CA--C-[N] |==|  0.94871
USER: genes 3 Torsion [C]-N--CA-[C] |==|  0.63461
USER: genes 4 Torsion [N]-CA--C-[N] |==|  0.24182
USER: genes 5 Torsion [C]-N--CA-[C] |==|  0.77198
USER: genes 6 Torsion [N]-CA--C-[N] |==|  0.00548
USER: genes 7 Torsion [C]-N--CA-[CB] |==|  0.87877
USER: genes 8 Torsion [N]-CA--CB-[CG] |==|  0.74465
USER: genes 9 Torsion [CA]-CB--CG-[CD] |==|  0.17156
USER: genes 10 Torsion [CB]-CG--CD-[NE2] |==|  0.15788
USER: genes 11 Torsion [N]-CA--C-[O] |==|  0.16674
USER: genes 12 Torsion [N]-CA--CB-[CG] |==|  0.11742
USER: genes 13 Torsion [CA]-CB--CG-[CD2] |==|  0.58973
USER: genes 14 Torsion [N]-CA--CB-[CG] |==|  0.72863
USER: genes 15 Torsion [CA]-CB--CG-[CD1] |==|  0.86404
USER: genes 16 Torsion [C]-CA--CB-[CG] |==|  0.43799
USER: genes 17 Torsion [CA]-CB--CG-[CD] |==|  0.06238
USER: genes 18 Torsion [CB]-CG--CD-[NE] |==|  0.35994
USER: genes 19 Torsion [CG]-CD--NE-[CZ] |==|  0.54592
USER: genes 20 Torsion [C]-CA--N-[C] |==|  0.80609
USER: genes 21 Torsion [N]-C--CA-[N] |==|  0.46537
USER: genes 22 Torsion [C]-CA--CB-[CG] |==|  0.77966
USER: genes 23 Torsion [CA]-CB--CG-[ND1] |==|  0.62302
USER: genes 24 Torsion [C]-CA--N-[C] |==|  0.79863
USER: genes 25 Torsion [N]-C--CA-[N] |==|  0.35000
USER: genes 26 Torsion [C]-CA--CB-[CG] |==|  0.25121
USER: genes 27 Torsion [CA]-CB--CG-[CD2] |==|  0.06069
USER: genes 28 Torsion [C]-CA--N-[C] |==|  0.66703
USER: genes 29 Torsion [N]-C--CA-[N] |==|  0.78370
USER: genes 30 Torsion [C]-CA--CB-[CG1] |==|  0.50334
USER: genes 31 Torsion [CA]-CB--CG1-[CD1] |==|  0.28519
ROOT
ATOM      1  CA  ARG D 692      10.551 -11.556  35.314  1.00 48.73 LIG 0.18  C 
ENDROOT
BRANCH 1 2
ATOM      2  C   ARG D 692       9.080 -11.703  35.668  1.00 46.10 LIG 0.24  C 
ATOM      3  N   LEU D 693       8.698 -12.821  36.280  1.00 50.64 LIG-0.35  N 
ATOM      4 H    LEU D 693       9.221 -13.464  36.510  1.00 50.64 LIG 0.16  HD
ATOM      5 O    ARG D 692       8.268 -10.850  35.312  1.00 52.04 LIG-0.27  OA
BRANCH 3 6
ATOM      6  CA  LEU D 693       7.281 -13.009  36.606  1.00 43.34 LIG 0.18  C 
BRANCH 6 7
ATOM      7  C   LEU D 693       7.078 -13.456  38.047  1.00 37.95 LIG 0.24  C 
ATOM      8  N   LEU D 694       6.988 -12.498  38.948  1.00 39.22 LIG-0.35  N 
ATOM      9 H    LEU D 694       7.085 -11.664  38.766  1.00 39.22 LIG 0.16  HD
ATOM     10 O    LEU D 693       7.033 -14.658  38.329  1.00 43.86 LIG-0.27  OA
BRANCH 8 11
ATOM     11  CA  LEU D 694       6.718 -12.768  40.336  1.00 38.59 LIG 0.18  C 
BRANCH 11 12
ATOM     12  C   LEU D 694       5.244 -12.944  40.513  1.00 46.22 LIG 0.24  C 
ATOM     13  N   GLN D 695       4.536 -12.862  39.402  1.00 66.87 LIG-0.35  N 
ATOM     14 H    GLN D 695       4.902 -12.635  38.657  1.00 66.87 LIG 0.16  HD
ATOM     15 O    LEU D 694       4.788 -13.087  41.617  1.00 54.70 LIG-0.27  OA
BRANCH 13 16
ATOM     16  CA  GLN D 695       3.099 -13.123  39.245  1.00 62.86 LIG 0.16  C 
BRANCH 16 17
ATOM     17  CB  GLN D 695       2.697 -14.367  39.990  1.00 63.26 LIG 0.04  C 
BRANCH 17 18
ATOM     18  CG  GLN D 695       2.769 -15.584  39.107  1.00 77.24 LIG 0.10  C 
BRANCH 18 19
ATOM     19  CD  GLN D 695       4.133 -15.848  38.613  1.00 84.08 LIG 0.21  C 
ATOM     20 OE1  GLN D 695       4.354 -15.899  37.419  1.00 83.40 LIG-0.27  OA
ATOM     21  NE2 GLN D 695       5.075 -16.000  39.523  1.00 79.17 LIG-0.37  N 
ATOM     22 22HE GLN D 695       5.888 -16.142  39.280  1.00 79.17 LIG 0.16  HD
ATOM     23 21HE GLN D 695       4.878 -15.956  40.358  1.00 79.17 LIG 0.16  HD
ENDBRANCH 18 19
ENDBRANCH 17 18
ENDBRANCH 16 17
BRANCH 16 24
ATOM     24  C   GLN D 695       2.155 -11.962  39.552  1.00 61.14 LIG 0.22  C 
ATOM     25 O    GLN D 695       2.224 -10.905  38.919  1.00 66.66 LIG-0.29  OA
ENDBRANCH 16 24
ENDBRANCH 13 16
ENDBRANCH 11 12
BRANCH 11 26
ATOM     26  CB  LEU D 694       7.151 -11.616  41.218  1.00 34.51 LIG 0.04  C 
BRANCH 26 27
ATOM     27  CG  LEU D 694       6.879 -10.193  40.797  1.00 27.71 LIG-0.02  C 
ATOM     28  CD2 LEU D 694       7.929  -9.229  41.259  1.00 26.48 LIG 0.01  C 
ATOM     29  CD1 LEU D 694       5.495  -9.725  41.145  1.00 27.00 LIG 0.01  C 
ENDBRANCH 26 27
ENDBRANCH 11 26
ENDBRANCH 8 11
ENDBRANCH 6 7
BRANCH 6 30
ATOM     30  CB  LEU D 693       6.584 -13.976  35.632  1.00 45.67 LIG 0.04  C 
BRANCH 30 31
ATOM     31  CG  LEU D 693       5.794 -13.323  34.487  1.00 55.29 LIG-0.02  C 
ATOM     32  CD1 LEU D 693       4.873 -12.232  35.015  1.00 47.80 LIG 0.01  C 
ATOM     33  CD2 LEU D 693       6.712 -12.796  33.374  1.00 51.02 LIG 0.01  C 
ENDBRANCH 30 31
ENDBRANCH 6 30
ENDBRANCH 3 6
ENDBRANCH 1 2
BRANCH 1 34
ATOM     34  CB  ARG D 692      10.700 -11.670  33.782  1.00 49.09 LIG 0.04  C 
BRANCH 34 35
ATOM     35  CG  ARG D 692      12.002 -11.004  33.294  1.00 50.62 LIG 0.02  C 
BRANCH 35 36
ATOM     36  CD  ARG D 692      13.083 -10.870  34.356  1.00 57.04 LIG 0.14  C 
BRANCH 36 37
ATOM     37  NE  ARG D 692      14.335 -11.392  33.842  1.00 60.90 LIG-0.23  N 
ATOM     38 HE   ARG D 692      14.401 -11.501  32.992  1.00 60.90 LIG 0.18  HD
ATOM     39  CZ  ARG D 692      15.382 -11.714  34.586  1.00 61.50 LIG 0.67  C 
ATOM     40  NH1 ARG D 692      15.309 -11.655  35.914  1.00 46.48 LIG-0.23  N 
ATOM     41  NH2 ARG D 692      16.490 -12.142  33.994  1.00 64.68 LIG-0.23  N 
ATOM     42 1HH1 ARG D 692      14.579 -11.406  36.294  1.00 46.48 LIG 0.17  HD
ATOM     43 2HH1 ARG D 692      15.993 -11.866  36.392  1.00 46.48 LIG 0.17  HD
ATOM     44 1HH2 ARG D 692      16.523 -12.207  33.138  1.00 64.68 LIG 0.17  HD
ATOM     45 2HH2 ARG D 692      17.176 -12.354  34.468  1.00 64.68 LIG 0.17  HD
ENDBRANCH 36 37
ENDBRANCH 35 36
ENDBRANCH 34 35
ENDBRANCH 1 34
BRANCH 1 46
ATOM     46  N   ARG D 692      11.480 -12.451  36.043  1.00 43.06 LIG-0.35  N 
ATOM     47  C   HIS D 691      11.727 -12.301  37.333  1.00 44.11 LIG 0.24  C 
ATOM     48 O    HIS D 691      11.247 -11.403  38.009  1.00 43.39 LIG-0.27  OA
ATOM     49 H    ARG D 692      11.834 -13.066  35.556  1.00 43.06 LIG 0.16  HD
BRANCH 47 50
ATOM     50  CA  HIS D 691      12.636 -13.308  37.926  1.00 41.80 LIG 0.18  C 
BRANCH 50 51
ATOM     51  CB  HIS D 691      11.838 -14.561  38.038  1.00 51.00 LIG 0.10  C 
BRANCH 51 52
ATOM     52  CG  HIS D 691      10.924 -14.598  39.192  1.00 57.86 LIG 0.06  A 
ATOM     53 ND1  HIS D 691      10.802 -15.664  39.964  1.00 60.60 LIG-0.24  NA
ATOM     54  CE1 HIS D 691       9.909 -15.414  40.917  1.00 72.50 LIG 0.23  A 
ATOM     55 NE2  HIS D 691       9.442 -14.182  40.738  1.00 67.35 LIG-0.25  NA
ATOM     56  CD2 HIS D 691      10.043 -13.653  39.680  1.00 66.29 LIG 0.14  A 
ENDBRANCH 51 52
ENDBRANCH 50 51
BRANCH 50 57
ATOM     57  N   HIS D 691      13.074 -12.903  39.243  1.00 39.94 LIG-0.35  N 
ATOM     58 H    HIS D 691      12.719 -13.356  39.882  1.00 39.94 LIG 0.16  HD
ATOM     59  C   LEU D 690      13.942 -11.924  39.441  1.00 35.88 LIG 0.24  C 
ATOM     60 O    LEU D 690      14.474 -11.282  38.510  1.00 34.66 LIG-0.27  OA
BRANCH 59 61
ATOM     61  CA  LEU D 690      14.232 -11.560  40.879  1.00 33.43 LIG 0.18  C 
BRANCH 61 62
ATOM     62  CB  LEU D 690      13.681 -10.165  41.180  1.00 31.34 LIG 0.04  C 
BRANCH 62 63
ATOM     63  CG  LEU D 690      12.251 -10.097  41.703  1.00 30.93 LIG-0.02  C 
ATOM     64  CD1 LEU D 690      11.298  -9.761  40.566  1.00 30.90 LIG 0.01  C 
ATOM     65  CD2 LEU D 690      11.866 -11.431  42.312  1.00 28.62 LIG 0.01  C 
ENDBRANCH 62 63
ENDBRANCH 61 62
BRANCH 61 66
ATOM     66  N   LEU D 690      15.669 -11.599  41.159  1.00 35.22 LIG-0.35  N 
ATOM     67 H    LEU D 690      16.138 -11.060  40.681  1.00 35.22 LIG 0.16  HD
ATOM     68  C   ILE D 689      16.180 -12.409  42.078  1.00 41.04 LIG 0.26  C 
ATOM     69 O    ILE D 689      15.477 -13.137  42.794  1.00 39.56 LIG-0.27  OA
BRANCH 68 70
ATOM     70  CA  ILE D 689      17.714 -12.351  42.245  1.00 40.35 LIG 0.40  C 
ATOM     71  N   ILE D 689      18.446 -13.108  41.155  1.00 40.45 LIG 0.61  N 
BRANCH 70 72
ATOM     72  CB  ILE D 689      18.121 -10.858  42.298  1.00 42.26 LIG 0.03  C 
ATOM     73  CG2 ILE D 689      17.369 -10.126  43.425  1.00 38.55 LIG 0.01  C 
BRANCH 72 74
ATOM     74  CG1 ILE D 689      19.637 -10.694  42.434  1.00 45.91 LIG 0.00  C 
ATOM     75  CD1 ILE D 689      20.350 -10.307  41.138  1.00 45.96 LIG 0.01  C 
ENDBRANCH 72 74
ENDBRANCH 70 72
ENDBRANCH 68 70
ENDBRANCH 61 66
ENDBRANCH 59 61
ENDBRANCH 50 57
ENDBRANCH 47 50
ENDBRANCH 1 46
TORSDOF 30
ENDMDL
MODEL 14
USER: ADFR SOLUTION from run 100
USER: SCORE 21.797349 LL:  -7.168 LR: -15.438 RR:   0.000 FEB:  -6.489
USER: RMSD 6.867132
USER: SEED 99
USER: STATUS no improvement in best in 21 clusters for 5 generations
USER: GENES 32
USER: genes 0 Translation |==|  0.53582 0.68503 0.33123
USER: genes 1 Rotation |==|  0.03107 0.64229 0.59155 0.53844
USER: genes 2 Torsion [N]-CA--C-[N] |==|  0.94716
USER: genes 3 Torsion [C]-N--CA-[C] |==|  0.63064
USER: genes 4 Torsion [N]-CA--C-[N] |==|  0.12028
USER: genes 5 Torsion [C]-N--CA-[C] |==|  0.78332
USER: genes 6 Torsion [N]-CA--C-[N] |==|  0.26551
USER: genes 7 Torsion [C]-N--CA-[CB] |==|  0.44344
USER: genes 8 Torsion [N]-CA--CB-[CG] |==|  0.56725
USER: genes 9 Torsion [CA]-CB--CG-[CD] |==|  0.17754
USER: genes 10 Torsion [CB]-CG--CD-[NE2] |==|  0.50189
USER: genes 11 Torsion [N]-CA--C-[O] |==|  0.22128
USER: genes 12 Torsion [N]-CA--CB-[CG] |==|  0.08832
USER: genes 13 Torsion [CA]-CB--CG-[CD2] |==|  0.63216
USER: genes 14 Torsion [N]-CA--CB-[CG] |==|  0.74044
USER: genes 15 Torsion [CA]-CB--CG-[CD1] |==|  0.86884
USER: genes 16 Torsion [C]-CA--CB-[CG] |==|  0.40630
USER: genes 17 Torsion [CA]-CB--CG-[CD] |==|  0.12660
USER: genes 18 Torsion [CB]-CG--CD-[NE] |==|  0.34880
USER: genes 19 Torsion [CG]-CD--NE-[CZ] |==|  0.52462
USER: genes 20 Torsion [C]-CA--N-[C] |==|  0.78033
USER: genes 21 Torsion [N]-C--CA-[N] |==|  0.41338
USER: genes 22 Torsion [C]-CA--CB-[CG] |==|  0.18273
USER: genes 23 Torsion [CA]-CB--CG-[ND1] |==|  0.59587
USER: genes 24 Torsion [C]-CA--N-[C] |==|  0.81621
USER: genes 25 Torsion [N]-C--CA-[N] |==|  0.98186
USER: genes 26 Torsion [C]-CA--CB-[CG] |==|  0.48106
USER: genes 27 Torsion [CA]-CB--CG-[CD2] |==|  0.53094
USER: genes 28 Torsion [C]-CA--N-[C] |==|  0.73397
USER: genes 29 Torsion [N]-C--CA-[N] |==|  0.01715
USER: genes 30 Torsion [C]-CA--CB-[CG1] |==|  0.24173
USER: genes 31 Torsion [CA]-CB--CG1-[CD1] |==|  0.12943
ROOT
ATOM      1  CA  ARG D 692      10.409 -11.533  35.628  1.00 48.73 LIG 0.18  C 
ENDROOT
BRANCH 1 2
ATOM      2  C   ARG D 692       8.900 -11.621  35.792  1.00 46.10 LIG 0.24  C 
ATOM      3  N   LEU D 693       8.408 -12.668  36.450  1.00 50.64 LIG-0.35  N 
ATOM      4 H    LEU D 693       8.876 -13.293  36.808  1.00 50.64 LIG 0.16  HD
ATOM      5 O    ARG D 692       8.168 -10.794  35.251  1.00 52.04 LIG-0.27  OA
BRANCH 3 6
ATOM      6  CA  LEU D 693       6.955 -12.801  36.597  1.00 43.34 LIG 0.18  C 
BRANCH 6 7
ATOM      7  C   LEU D 693       6.552 -13.135  38.027  1.00 37.95 LIG 0.24  C 
ATOM      8  N   LEU D 694       7.169 -12.466  38.980  1.00 39.22 LIG-0.35  N 
ATOM      9 H    LEU D 694       7.801 -11.903  38.832  1.00 39.22 LIG 0.16  HD
ATOM     10 O    LEU D 693       5.710 -14.012  38.250  1.00 43.86 LIG-0.27  OA
BRANCH 8 11
ATOM     11  CA  LEU D 694       6.835 -12.620  40.371  1.00 38.59 LIG 0.18  C 
BRANCH 11 12
ATOM     12  C   LEU D 694       5.585 -11.851  40.653  1.00 46.22 LIG 0.24  C 
ATOM     13  N   GLN D 695       4.472 -12.561  40.607  1.00 66.87 LIG-0.35  N 
ATOM     14 H    GLN D 695       4.478 -13.380  40.346  1.00 66.87 LIG 0.16  HD
ATOM     15 O    LEU D 694       5.643 -10.664  40.842  1.00 54.70 LIG-0.27  OA
BRANCH 13 16
ATOM     16  CA  GLN D 695       3.120 -12.113  40.967  1.00 62.86 LIG 0.16  C 
BRANCH 16 17
ATOM     17  CB  GLN D 695       2.078 -12.994  40.335  1.00 63.26 LIG 0.04  C 
BRANCH 17 18
ATOM     18  CG  GLN D 695       0.766 -12.273  40.182  1.00 77.24 LIG 0.10  C 
BRANCH 18 19
ATOM     19  CD  GLN D 695       0.854 -11.123  39.264  1.00 84.08 LIG 0.21  C 
ATOM     20 OE1  GLN D 695       1.899 -10.865  38.700  1.00 83.40 LIG-0.27  OA
ATOM     21  NE2 GLN D 695      -0.250 -10.423  39.081  1.00 79.17 LIG-0.37  N 
ATOM     22 22HE GLN D 695      -0.249  -9.752  38.544  1.00 79.17 LIG 0.16  HD
ATOM     23 21HE GLN D 695      -0.970 -10.639  39.499  1.00 79.17 LIG 0.16  HD
ENDBRANCH 18 19
ENDBRANCH 17 18
ENDBRANCH 16 17
BRANCH 16 24
ATOM     24  C   GLN D 695       2.842 -11.901  42.454  1.00 61.14 LIG 0.22  C 
ATOM     25 O    GLN D 695       3.212 -10.872  43.027  1.00 66.66 LIG-0.29  OA
ENDBRANCH 16 24
ENDBRANCH 13 16
ENDBRANCH 11 12
BRANCH 11 26
ATOM     26  CB  LEU D 694       7.924 -12.069  41.266  1.00 34.51 LIG 0.04  C 
BRANCH 26 27
ATOM     27  CG  LEU D 694       8.754 -10.893  40.816  1.00 27.71 LIG-0.02  C 
ATOM     28  CD2 LEU D 694      10.226 -11.098  41.012  1.00 26.48 LIG 0.01  C 
ATOM     29  CD1 LEU D 694       8.290  -9.584  41.387  1.00 27.00 LIG 0.01  C 
ENDBRANCH 26 27
ENDBRANCH 11 26
ENDBRANCH 8 11
ENDBRANCH 6 7
BRANCH 6 30
ATOM     30  CB  LEU D 693       6.362 -13.821  35.610  1.00 45.67 LIG 0.04  C 
BRANCH 30 31
ATOM     31  CG  LEU D 693       5.841 -13.247  34.283  1.00 55.29 LIG-0.02  C 
ATOM     32  CD1 LEU D 693       4.969 -12.022  34.525  1.00 47.80 LIG 0.01  C 
ATOM     33  CD2 LEU D 693       6.977 -12.945  33.294  1.00 51.02 LIG 0.01  C 
ENDBRANCH 30 31
ENDBRANCH 6 30
ENDBRANCH 3 6
ENDBRANCH 1 2
BRANCH 1 34
ATOM     34  CB  ARG D 692      10.759 -11.813  34.151  1.00 49.09 LIG 0.04  C 
BRANCH 34 35
ATOM     35  CG  ARG D 692      11.981 -10.991  33.698  1.00 50.62 LIG 0.02  C 
BRANCH 35 36
ATOM     36  CD  ARG D 692      13.147 -10.997  34.676  1.00 57.04 LIG 0.14  C 
BRANCH 36 37
ATOM     37  NE  ARG D 692      14.351 -11.431  33.993  1.00 60.90 LIG-0.23  N 
ATOM     38 HE   ARG D 692      14.315 -11.515  33.138  1.00 60.90 LIG 0.18  HD
ATOM     39  CZ  ARG D 692      15.501 -11.707  34.588  1.00 61.50 LIG 0.67  C 
ATOM     40  NH1 ARG D 692      15.595 -11.683  35.917  1.00 46.48 LIG-0.23  N 
ATOM     41  NH2 ARG D 692      16.547 -12.052  33.849  1.00 64.68 LIG-0.23  N 
ATOM     42 1HH1 ARG D 692      14.906 -11.488  36.393  1.00 46.48 LIG 0.17  HD
ATOM     43 2HH1 ARG D 692      16.345 -11.864  36.297  1.00 46.48 LIG 0.17  HD
ATOM     44 1HH2 ARG D 692      16.474 -12.095  32.993  1.00 64.68 LIG 0.17  HD
ATOM     45 2HH2 ARG D 692      17.299 -12.233  34.225  1.00 64.68 LIG 0.17  HD
ENDBRANCH 36 37
ENDBRANCH 35 36
ENDBRANCH 34 35
ENDBRANCH 1 34
BRANCH 1 46
ATOM     46  N   ARG D 692      11.207 -12.358  36.566  1.00 43.06 LIG-0.35  N 
ATOM     47  C   HIS D 691      11.432 -11.978  37.812  1.00 44.11 LIG 0.24  C 
ATOM     48 O    HIS D 691      11.039 -10.916  38.273  1.00 43.39 LIG-0.27  OA
ATOM     49 H    ARG D 692      11.502 -13.092  36.228  1.00 43.06 LIG 0.16  HD
BRANCH 47 50
ATOM     50  CA  HIS D 691      12.201 -12.937  38.638  1.00 41.80 LIG 0.18  C 
BRANCH 50 51
ATOM     51  CB  HIS D 691      11.187 -13.784  39.328  1.00 51.00 LIG 0.10  C 
BRANCH 51 52
ATOM     52  CG  HIS D 691      10.392 -14.635  38.428  1.00 57.86 LIG 0.06  A 
ATOM     53 ND1  HIS D 691       9.121 -14.916  38.657  1.00 60.60 LIG-0.24  NA
ATOM     54  CE1 HIS D 691       8.665 -15.704  37.688  1.00 72.50 LIG 0.23  A 
ATOM     55 NE2  HIS D 691       9.663 -15.945  36.842  1.00 67.35 LIG-0.25  NA
ATOM     56  CD2 HIS D 691      10.743 -15.306  37.272  1.00 66.29 LIG 0.14  A 
ENDBRANCH 51 52
ENDBRANCH 50 51
BRANCH 50 57
ATOM     57  N   HIS D 691      13.001 -12.249  39.626  1.00 39.94 LIG-0.35  N 
ATOM     58 H    HIS D 691      12.756 -12.398  40.437  1.00 39.94 LIG 0.16  HD
ATOM     59  C   LEU D 690      14.015 -11.462  39.307  1.00 35.88 LIG 0.24  C 
ATOM     60 O    LEU D 690      14.383 -11.263  38.129  1.00 34.66 LIG-0.27  OA
BRANCH 59 61
ATOM     61  CA  LEU D 690      14.697 -10.743  40.448  1.00 33.43 LIG 0.18  C 
BRANCH 61 62
ATOM     62  CB  LEU D 690      16.140 -11.234  40.580  1.00 31.34 LIG 0.04  C 
BRANCH 62 63
ATOM     63  CG  LEU D 690      17.021 -10.496  41.581  1.00 30.93 LIG-0.02  C 
ATOM     64  CD1 LEU D 690      16.576 -10.817  43.000  1.00 30.90 LIG 0.01  C 
ATOM     65  CD2 LEU D 690      18.467 -10.913  41.394  1.00 28.62 LIG 0.01  C 
ENDBRANCH 62 63
ENDBRANCH 61 62
BRANCH 61 66
ATOM     66  N   LEU D 690      13.984 -10.949  41.710  1.00 35.22 LIG-0.35  N 
ATOM     67 H    LEU D 690      14.190 -11.677  42.119  1.00 35.22 LIG 0.16  HD
ATOM     68  C   ILE D 689      13.097 -10.072  42.164  1.00 41.04 LIG 0.26  C 
ATOM     69 O    ILE D 689      12.858  -9.002  41.583  1.00 39.56 LIG-0.27  OA
BRANCH 68 70
ATOM     70  CA  ILE D 689      12.412 -10.437  43.497  1.00 40.35 LIG 0.40  C 
ATOM     71  N   ILE D 689      12.997 -11.685  44.128  1.00 40.45 LIG 0.61  N 
BRANCH 70 72
ATOM     72  CB  ILE D 689      12.518  -9.205  44.429  1.00 42.26 LIG 0.03  C 
ATOM     73  CG2 ILE D 689      13.878  -8.504  44.257  1.00 38.55 LIG 0.01  C 
BRANCH 72 74
ATOM     74  CG1 ILE D 689      11.353  -8.234  44.211  1.00 45.91 LIG 0.00  C 
ATOM     75  CD1 ILE D 689       9.978  -8.899  44.154  1.00 45.96 LIG 0.01  C 
ENDBRANCH 72 74
ENDBRANCH 70 72
ENDBRANCH 68 70
ENDBRANCH 61 66
ENDBRANCH 59 61
ENDBRANCH 50 57
ENDBRANCH 47 50
ENDBRANCH 1 46
TORSDOF 30
ENDMDL
MODEL 15
USER: ADFR SOLUTION from run 164
USER: SCORE 21.124418 LL:  -6.772 LR: -15.445 RR:   0.000 FEB:  -6.496
USER: RMSD 6.775550
USER: SEED 163
USER: STATUS no improvement in best in 40 clusters for 5 generations
USER: GENES 32
USER: genes 0 Translation |==|  0.52873 0.67862 0.33234
USER: genes 1 Rotation |==|  0.03089 0.64785 0.58724 0.52153
USER: genes 2 Torsion [N]-CA--C-[N] |==|  0.94711
USER: genes 3 Torsion [C]-N--CA-[C] |==|  0.62646
USER: genes 4 Torsion [N]-CA--C-[N] |==|  0.11544
USER: genes 5 Torsion [C]-N--CA-[C] |==|  0.79867
USER: genes 6 Torsion [N]-CA--C-[N] |==|  0.32414
USER: genes 7 Torsion [C]-N--CA-[CB] |==|  0.40125
USER: genes 8 Torsion [N]-CA--CB-[CG] |==|  0.79044
USER: genes 9 Torsion [CA]-CB--CG-[CD] |==|  0.86961
USER: genes 10 Torsion [CB]-CG--CD-[NE2] |==|  0.74657
USER: genes 11 Torsion [N]-CA--C-[O] |==|  0.28234
USER: genes 12 Torsion [N]-CA--CB-[CG] |==|  0.12076
USER: genes 13 Torsion [CA]-CB--CG-[CD2] |==|  0.61384
USER: genes 14 Torsion [N]-CA--CB-[CG] |==|  0.73650
USER: genes 15 Torsion [CA]-CB--CG-[CD1] |==|  0.87246
USER: genes 16 Torsion [C]-CA--CB-[CG] |==|  0.39253
USER: genes 17 Torsion [CA]-CB--CG-[CD] |==|  0.11120
USER: genes 18 Torsion [CB]-CG--CD-[NE] |==|  0.34543
USER: genes 19 Torsion [CG]-CD--NE-[CZ] |==|  0.54133
USER: genes 20 Torsion [C]-CA--N-[C] |==|  0.80271
USER: genes 21 Torsion [N]-C--CA-[N] |==|  0.13944
USER: genes 22 Torsion [C]-CA--CB-[CG] |==|  0.70803
USER: genes 23 Torsion [CA]-CB--CG-[ND1] |==|  0.15137
USER: genes 24 Torsion [C]-CA--N-[C] |==|  0.77620
USER: genes 25 Torsion [N]-C--CA-[N] |==|  0.11830
USER: genes 26 Torsion [C]-CA--CB-[CG] |==|  0.27918
USER: genes 27 Torsion [CA]-CB--CG-[CD2] |==|  0.19369
USER: genes 28 Torsion [C]-CA--N-[C] |==|  0.16637
USER: genes 29 Torsion [N]-C--CA-[N] |==|  0.11312
USER: genes 30 Torsion [C]-CA--CB-[CG1] |==|  0.77201
USER: genes 31 Torsion [CA]-CB--CG1-[CD1] |==|  0.27467
ROOT
ATOM      1  CA  ARG D 692      10.249 -11.653  35.650  1.00 48.73 LIG 0.18  C 
ENDROOT
BRANCH 1 2
ATOM      2  C   ARG D 692       8.741 -11.714  35.826  1.00 46.10 LIG 0.24  C 
ATOM      3  N   LEU D 693       8.242 -12.706  36.560  1.00 50.64 LIG-0.35  N 
ATOM      4 H    LEU D 693       8.706 -13.308  36.960  1.00 50.64 LIG 0.16  HD
ATOM      5 O    ARG D 692       8.014 -10.922  35.230  1.00 52.04 LIG-0.27  OA
BRANCH 3 6
ATOM      6  CA  LEU D 693       6.789 -12.814  36.723  1.00 43.34 LIG 0.18  C 
BRANCH 6 7
ATOM      7  C   LEU D 693       6.392 -13.077  38.169  1.00 37.95 LIG 0.24  C 
ATOM      8  N   LEU D 694       7.048 -12.398  39.088  1.00 39.22 LIG-0.35  N 
ATOM      9 H    LEU D 694       7.701 -11.868  38.911  1.00 39.22 LIG 0.16  HD
ATOM     10 O    LEU D 693       5.517 -13.909  38.436  1.00 43.86 LIG-0.27  OA
BRANCH 8 11
ATOM     11  CA  LEU D 694       6.727 -12.486  40.488  1.00 38.59 LIG 0.18  C 
BRANCH 11 12
ATOM     12  C   LEU D 694       5.440 -11.768  40.732  1.00 46.22 LIG 0.24  C 
ATOM     13  N   GLN D 695       4.451 -12.528  41.165  1.00 66.87 LIG-0.35  N 
ATOM     14 H    GLN D 695       4.535 -13.382  41.212  1.00 66.87 LIG 0.16  HD
ATOM     15 O    LEU D 694       5.352 -10.595  40.476  1.00 54.70 LIG-0.27  OA
BRANCH 13 16
ATOM     16  CA  GLN D 695       3.124 -12.086  41.613  1.00 62.86 LIG 0.16  C 
BRANCH 16 17
ATOM     17  CB  GLN D 695       2.067 -13.081  41.218  1.00 63.26 LIG 0.04  C 
BRANCH 17 18
ATOM     18  CG  GLN D 695       1.748 -12.992  39.750  1.00 77.24 LIG 0.10  C 
BRANCH 18 19
ATOM     19  CD  GLN D 695       1.546 -11.605  39.294  1.00 84.08 LIG 0.21  C 
ATOM     20 OE1  GLN D 695       2.486 -10.948  38.892  1.00 83.40 LIG-0.27  OA
ATOM     21  NE2 GLN D 695       0.312 -11.141  39.331  1.00 79.17 LIG-0.37  N 
ATOM     22 22HE GLN D 695       0.144 -10.342  39.063  1.00 79.17 LIG 0.16  HD
ATOM     23 21HE GLN D 695      -0.326 -11.639  39.623  1.00 79.17 LIG 0.16  HD
ENDBRANCH 18 19
ENDBRANCH 17 18
ENDBRANCH 16 17
BRANCH 16 24
ATOM     24  C   GLN D 695       2.993 -11.689  43.082  1.00 61.14 LIG 0.22  C 
ATOM     25 O    GLN D 695       2.977 -10.502  43.419  1.00 66.66 LIG-0.29  OA
ENDBRANCH 16 24
ENDBRANCH 13 16
ENDBRANCH 11 12
BRANCH 11 26
ATOM     26  CB  LEU D 694       7.789 -11.826  41.342  1.00 34.51 LIG 0.04  C 
BRANCH 26 27
ATOM     27  CG  LEU D 694       8.368 -10.492  40.938  1.00 27.71 LIG-0.02  C 
ATOM     28  CD2 LEU D 694       9.850 -10.404  41.147  1.00 26.48 LIG 0.01  C 
ATOM     29  CD1 LEU D 694       7.645  -9.323  41.542  1.00 27.00 LIG 0.01  C 
ENDBRANCH 26 27
ENDBRANCH 11 26
ENDBRANCH 8 11
ENDBRANCH 6 7
BRANCH 6 30
ATOM     30  CB  LEU D 693       6.176 -13.871  35.788  1.00 45.67 LIG 0.04  C 
BRANCH 30 31
ATOM     31  CG  LEU D 693       5.622 -13.347  34.453  1.00 55.29 LIG-0.02  C 
ATOM     32  CD1 LEU D 693       4.778 -12.098  34.668  1.00 47.80 LIG 0.01  C 
ATOM     33  CD2 LEU D 693       6.730 -13.108  33.417  1.00 51.02 LIG 0.01  C 
ENDBRANCH 30 31
ENDBRANCH 6 30
ENDBRANCH 3 6
ENDBRANCH 1 2
BRANCH 1 34
ATOM     34  CB  ARG D 692      10.589 -12.043  34.195  1.00 49.09 LIG 0.04  C 
BRANCH 34 35
ATOM     35  CG  ARG D 692      11.739 -11.181  33.637  1.00 50.62 LIG 0.02  C 
BRANCH 35 36
ATOM     36  CD  ARG D 692      12.861 -10.903  34.627  1.00 57.04 LIG 0.14  C 
BRANCH 36 37
ATOM     37  NE  ARG D 692      14.124 -11.339  34.062  1.00 60.90 LIG-0.23  N 
ATOM     38 HE   ARG D 692      14.147 -11.503  33.218  1.00 60.90 LIG 0.18  HD
ATOM     39  CZ  ARG D 692      15.244 -11.504  34.750  1.00 61.50 LIG 0.67  C 
ATOM     40  NH1 ARG D 692      15.250 -11.355  36.073  1.00 46.48 LIG-0.23  N 
ATOM     41  NH2 ARG D 692      16.350 -11.865  34.111  1.00 64.68 LIG-0.23  N 
ATOM     42 1HH1 ARG D 692      14.523 -11.150  36.486  1.00 46.48 LIG 0.17  HD
ATOM     43 2HH1 ARG D 692      15.980 -11.464  36.514  1.00 46.48 LIG 0.17  HD
ATOM     44 1HH2 ARG D 692      16.334 -11.989  33.261  1.00 64.68 LIG 0.17  HD
ATOM     45 2HH2 ARG D 692      17.082 -11.974  34.548  1.00 64.68 LIG 0.17  HD
ENDBRANCH 36 37
ENDBRANCH 35 36
ENDBRANCH 34 35
ENDBRANCH 1 34
BRANCH 1 46
ATOM     46  N   ARG D 692      11.044 -12.416  36.641  1.00 43.06 LIG-0.35  N 
ATOM     47  C   HIS D 691      11.149 -12.026  37.901  1.00 44.11 LIG 0.24  C 
ATOM     48 O    HIS D 691      10.639 -11.003  38.332  1.00 43.39 LIG-0.27  OA
ATOM     49 H    ARG D 692      11.422 -13.121  36.325  1.00 43.06 LIG 0.16  HD
BRANCH 47 50
ATOM     50  CA  HIS D 691      11.934 -12.924  38.778  1.00 41.80 LIG 0.18  C 
BRANCH 50 51
ATOM     51  CB  HIS D 691      12.154 -12.166  40.043  1.00 51.00 LIG 0.10  C 
BRANCH 51 52
ATOM     52  CG  HIS D 691      13.520 -11.641  40.205  1.00 57.86 LIG 0.06  A 
ATOM     53 ND1  HIS D 691      14.099 -10.877  39.295  1.00 60.60 LIG-0.24  NA
ATOM     54  CE1 HIS D 691      15.323 -10.558  39.704  1.00 72.50 LIG 0.23  A 
ATOM     55 NE2  HIS D 691      15.535 -11.143  40.880  1.00 67.35 LIG-0.25  NA
ATOM     56  CD2 HIS D 691      14.446 -11.822  41.215  1.00 66.29 LIG 0.14  A 
ENDBRANCH 51 52
ENDBRANCH 50 51
BRANCH 50 57
ATOM     57  N   HIS D 691      13.213 -13.244  38.185  1.00 39.94 LIG-0.35  N 
ATOM     58 H    HIS D 691      13.866 -12.777  38.493  1.00 39.94 LIG 0.16  HD
ATOM     59  C   LEU D 690      13.361 -14.173  37.254  1.00 35.88 LIG 0.24  C 
ATOM     60 O    LEU D 690      12.414 -14.866  36.824  1.00 34.66 LIG-0.27  OA
BRANCH 59 61
ATOM     61  CA  LEU D 690      14.745 -14.329  36.669  1.00 33.43 LIG 0.18  C 
BRANCH 61 62
ATOM     62  CB  LEU D 690      14.841 -15.657  35.918  1.00 31.34 LIG 0.04  C 
BRANCH 62 63
ATOM     63  CG  LEU D 690      14.714 -15.591  34.400  1.00 30.93 LIG-0.02  C 
ATOM     64  CD1 LEU D 690      13.471 -14.802  34.017  1.00 30.90 LIG 0.01  C 
ATOM     65  CD2 LEU D 690      15.942 -14.923  33.812  1.00 28.62 LIG 0.01  C 
ENDBRANCH 62 63
ENDBRANCH 61 62
BRANCH 61 66
ATOM     66  N   LEU D 690      15.773 -14.269  37.710  1.00 35.22 LIG-0.35  N 
ATOM     67 H    LEU D 690      16.342 -13.633  37.611  1.00 35.22 LIG 0.16  HD
ATOM     68  C   ILE D 689      15.801 -15.137  38.715  1.00 41.04 LIG 0.26  C 
ATOM     69 O    ILE D 689      14.936 -16.011  38.868  1.00 39.56 LIG-0.27  OA
BRANCH 68 70
ATOM     70  CA  ILE D 689      16.956 -14.958  39.723  1.00 40.35 LIG 0.40  C 
ATOM     71  N   ILE D 689      17.229 -13.502  40.044  1.00 40.45 LIG 0.61  N 
BRANCH 70 72
ATOM     72  CB  ILE D 689      16.604 -15.781  40.986  1.00 42.26 LIG 0.03  C 
ATOM     73  CG2 ILE D 689      17.881 -16.222  41.725  1.00 38.55 LIG 0.01  C 
BRANCH 72 74
ATOM     74  CG1 ILE D 689      15.655 -15.014  41.911  1.00 45.91 LIG 0.00  C 
ATOM     75  CD1 ILE D 689      14.184 -15.406  41.774  1.00 45.96 LIG 0.01  C 
ENDBRANCH 72 74
ENDBRANCH 70 72
ENDBRANCH 68 70
ENDBRANCH 61 66
ENDBRANCH 59 61
ENDBRANCH 50 57
ENDBRANCH 47 50
ENDBRANCH 1 46
TORSDOF 30
ENDMDL
MODEL 16
USER: ADFR SOLUTION from run 177
USER: SCORE 20.699332 LL:  -6.681 LR: -15.398 RR:   0.000 FEB:  -6.449
USER: RMSD 6.362505
USER: SEED 176
USER: STATUS no improvement in best in 47 clusters for 5 generations
USER: GENES 32
USER: genes 0 Translation |==|  0.51907 0.64293 0.35333
USER: genes 1 Rotation |==|  0.04083 0.67785 0.56255 0.56018
USER: genes 2 Torsion [N]-CA--C-[N] |==|  0.93337
USER: genes 3 Torsion [C]-N--CA-[C] |==|  0.62761
USER: genes 4 Torsion [N]-CA--C-[N] |==|  0.16910
USER: genes 5 Torsion [C]-N--CA-[C] |==|  0.83241
USER: genes 6 Torsion [N]-CA--C-[N] |==|  0.39598
USER: genes 7 Torsion [C]-N--CA-[CB] |==|  0.90524
USER: genes 8 Torsion [N]-CA--CB-[CG] |==|  0.36834
USER: genes 9 Torsion [CA]-CB--CG-[CD] |==|  0.64540
USER: genes 10 Torsion [CB]-CG--CD-[NE2] |==|  0.59415
USER: genes 11 Torsion [N]-CA--C-[O] |==|  0.04857
USER: genes 12 Torsion [N]-CA--CB-[CG] |==|  0.08623
USER: genes 13 Torsion [CA]-CB--CG-[CD2] |==|  0.64780
USER: genes 14 Torsion [N]-CA--CB-[CG] |==|  0.73378
USER: genes 15 Torsion [CA]-CB--CG-[CD1] |==|  0.87250
USER: genes 16 Torsion [C]-CA--CB-[CG] |==|  0.37698
USER: genes 17 Torsion [CA]-CB--CG-[CD] |==|  0.19709
USER: genes 18 Torsion [CB]-CG--CD-[NE] |==|  0.42503
USER: genes 19 Torsion [CG]-CD--NE-[CZ] |==|  0.42037
USER: genes 20 Torsion [C]-CA--N-[C] |==|  0.19679
USER: genes 21 Torsion [N]-C--CA-[N] |==|  0.94136
USER: genes 22 Torsion [C]-CA--CB-[CG] |==|  0.18108
USER: genes 23 Torsion [CA]-CB--CG-[ND1] |==|  0.21672
USER: genes 24 Torsion [C]-CA--N-[C] |==|  0.80603
USER: genes 25 Torsion [N]-C--CA-[N] |==|  0.41606
USER: genes 26 Torsion [C]-CA--CB-[CG] |==|  0.33061
USER: genes 27 Torsion [CA]-CB--CG-[CD2] |==|  0.23397
USER: genes 28 Torsion [C]-CA--N-[C] |==|  0.75000
USER: genes 29 Torsion [N]-C--CA-[N] |==|  0.41190
USER: genes 30 Torsion [C]-CA--CB-[CG1] |==|  0.28451
USER: genes 31 Torsion [CA]-CB--CG1-[CD1] |==|  0.76312
ROOT
ATOM      1  CA  ARG D 692      10.032 -12.322  36.059  1.00 48.73 LIG 0.18  C 
ENDROOT
BRANCH 1 2
ATOM      2  C   ARG D 692       8.521 -12.155  36.049  1.00 46.10 LIG 0.24  C 
ATOM      3  N   LEU D 693       7.783 -13.158  36.518  1.00 50.64 LIG-0.35  N 
ATOM      4 H    LEU D 693       8.092 -13.890  36.846  1.00 50.64 LIG 0.16  HD
ATOM      5 O    ARG D 692       8.010 -11.161  35.537  1.00 52.04 LIG-0.27  OA
BRANCH 3 6
ATOM      6  CA  LEU D 693       6.322 -13.043  36.492  1.00 43.34 LIG 0.18  C 
BRANCH 6 7
ATOM      7  C   LEU D 693       5.689 -13.468  37.811  1.00 37.95 LIG 0.24  C 
ATOM      8  N   LEU D 694       6.038 -12.775  38.876  1.00 39.22 LIG-0.35  N 
ATOM      9 H    LEU D 694       6.624 -12.147  38.863  1.00 39.22 LIG 0.16  HD
ATOM     10 O    LEU D 693       4.917 -14.432  37.851  1.00 43.86 LIG-0.27  OA
BRANCH 8 11
ATOM     11  CA  LEU D 694       5.462 -13.013  40.173  1.00 38.59 LIG 0.18  C 
BRANCH 11 12
ATOM     12  C   LEU D 694       3.987 -12.782  40.093  1.00 46.22 LIG 0.24  C 
ATOM     13  N   GLN D 695       3.254 -13.612  40.813  1.00 66.87 LIG-0.35  N 
ATOM     14 H    GLN D 695       3.610 -14.281  41.218  1.00 66.87 LIG 0.16  HD
ATOM     15 O    LEU D 694       3.555 -11.929  39.364  1.00 54.70 LIG-0.27  OA
BRANCH 13 16
ATOM     16  CA  GLN D 695       1.804 -13.546  41.036  1.00 62.86 LIG 0.16  C 
BRANCH 16 17
ATOM     17  CB  GLN D 695       1.334 -12.118  41.092  1.00 63.26 LIG 0.04  C 
BRANCH 17 18
ATOM     18  CG  GLN D 695       0.116 -11.905  40.234  1.00 77.24 LIG 0.10  C 
BRANCH 18 19
ATOM     19  CD  GLN D 695       0.274 -10.782  39.292  1.00 84.08 LIG 0.21  C 
ATOM     20 OE1  GLN D 695       1.357 -10.548  38.791  1.00 83.40 LIG-0.27  OA
ATOM     21  NE2 GLN D 695      -0.808 -10.079  39.019  1.00 79.17 LIG-0.37  N 
ATOM     22 22HE GLN D 695      -0.766  -9.423  38.465  1.00 79.17 LIG 0.16  HD
ATOM     23 21HE GLN D 695      -1.556 -10.277  39.395  1.00 79.17 LIG 0.16  HD
ENDBRANCH 18 19
ENDBRANCH 17 18
ENDBRANCH 16 17
BRANCH 16 24
ATOM     24  C   GLN D 695       0.929 -14.382  40.103  1.00 61.14 LIG 0.22  C 
ATOM     25 O    GLN D 695       1.413 -15.302  39.437  1.00 66.66 LIG-0.29  OA
ENDBRANCH 16 24
ENDBRANCH 13 16
ENDBRANCH 11 12
BRANCH 11 26
ATOM     26  CB  LEU D 694       6.020 -12.060  41.209  1.00 34.51 LIG 0.04  C 
BRANCH 26 27
ATOM     27  CG  LEU D 694       6.451 -10.671  40.809  1.00 27.71 LIG-0.02  C 
ATOM     28  CD2 LEU D 694       7.852 -10.344  41.230  1.00 26.48 LIG 0.01  C 
ATOM     29  CD1 LEU D 694       5.478  -9.604  41.221  1.00 27.00 LIG 0.01  C 
ENDBRANCH 26 27
ENDBRANCH 11 26
ENDBRANCH 8 11
ENDBRANCH 6 7
BRANCH 6 30
ATOM     30  CB  LEU D 693       5.699 -13.814  35.315  1.00 45.67 LIG 0.04  C 
BRANCH 30 31
ATOM     31  CG  LEU D 693       5.401 -12.988  34.054  1.00 55.29 LIG-0.02  C 
ATOM     32  CD1 LEU D 693       4.714 -11.677  34.412  1.00 47.80 LIG 0.01  C 
ATOM     33  CD2 LEU D 693       6.658 -12.752  33.203  1.00 51.02 LIG 0.01  C 
ENDBRANCH 30 31
ENDBRANCH 6 30
ENDBRANCH 3 6
ENDBRANCH 1 2
BRANCH 1 34
ATOM     34  CB  ARG D 692      10.500 -12.634  34.622  1.00 49.09 LIG 0.04  C 
BRANCH 34 35
ATOM     35  CG  ARG D 692      11.753 -11.817  34.250  1.00 50.62 LIG 0.02  C 
BRANCH 35 36
ATOM     36  CD  ARG D 692      13.027 -12.248  34.962  1.00 57.04 LIG 0.14  C 
BRANCH 36 37
ATOM     37  NE  ARG D 692      14.176 -11.914  34.143  1.00 60.90 LIG-0.23  N 
ATOM     38 HE   ARG D 692      14.066 -11.894  33.290  1.00 60.90 LIG 0.18  HD
ATOM     39  CZ  ARG D 692      15.384 -11.638  34.612  1.00 61.50 LIG 0.67  C 
ATOM     40  NH1 ARG D 692      15.641 -11.741  35.914  1.00 46.48 LIG-0.23  N 
ATOM     41  NH2 ARG D 692      16.347 -11.302  33.763  1.00 64.68 LIG-0.23  N 
ATOM     42 1HH1 ARG D 692      15.021 -11.988  36.457  1.00 46.48 LIG 0.17  HD
ATOM     43 2HH1 ARG D 692      16.428 -11.561  36.212  1.00 46.48 LIG 0.17  HD
ATOM     44 1HH2 ARG D 692      16.184 -11.266  32.920  1.00 64.68 LIG 0.17  HD
ATOM     45 2HH2 ARG D 692      17.135 -11.121  34.057  1.00 64.68 LIG 0.17  HD
ENDBRANCH 36 37
ENDBRANCH 35 36
ENDBRANCH 34 35
ENDBRANCH 1 34
BRANCH 1 46
ATOM     46  N   ARG D 692      10.565 -13.285  37.051  1.00 43.06 LIG-0.35  N 
ATOM     47  C   HIS D 691      10.393 -14.590  36.921  1.00 44.11 LIG 0.24  C 
ATOM     48 O    HIS D 691       9.758 -15.096  36.007  1.00 43.39 LIG-0.27  OA
ATOM     49 H    ARG D 692      10.989 -12.921  37.706  1.00 43.06 LIG 0.16  HD
BRANCH 47 50
ATOM     50  CA  HIS D 691      11.031 -15.421  37.967  1.00 41.80 LIG 0.18  C 
BRANCH 50 51
ATOM     51  CB  HIS D 691       9.959 -15.723  38.957  1.00 51.00 LIG 0.10  C 
BRANCH 51 52
ATOM     52  CG  HIS D 691       8.864 -16.556  38.432  1.00 57.86 LIG 0.06  A 
ATOM     53 ND1  HIS D 691       8.979 -17.863  38.279  1.00 60.60 LIG-0.24  NA
ATOM     54  CE1 HIS D 691       7.844 -18.349  37.785  1.00 72.50 LIG 0.23  A 
ATOM     55 NE2  HIS D 691       7.003 -17.335  37.601  1.00 67.35 LIG-0.25  NA
ATOM     56  CD2 HIS D 691       7.602 -16.216  37.985  1.00 66.29 LIG 0.14  A 
ENDBRANCH 51 52
ENDBRANCH 50 51
BRANCH 50 57
ATOM     57  N   HIS D 691      12.099 -14.701  38.625  1.00 39.94 LIG-0.35  N 
ATOM     58 H    HIS D 691      11.923 -14.485  39.439  1.00 39.94 LIG 0.16  HD
ATOM     59  C   LEU D 690      13.240 -14.403  38.025  1.00 35.88 LIG 0.24  C 
ATOM     60 O    LEU D 690      13.502 -14.737  36.850  1.00 34.66 LIG-0.27  OA
BRANCH 59 61
ATOM     61  CA  LEU D 690      14.221 -13.570  38.816  1.00 33.43 LIG 0.18  C 
BRANCH 61 62
ATOM     62  CB  LEU D 690      13.938 -12.084  38.589  1.00 31.34 LIG 0.04  C 
BRANCH 62 63
ATOM     63  CG  LEU D 690      13.564 -11.267  39.821  1.00 30.93 LIG-0.02  C 
ATOM     64  CD1 LEU D 690      12.716 -12.107  40.763  1.00 30.90 LIG 0.01  C 
ATOM     65  CD2 LEU D 690      14.824 -10.815  40.536  1.00 28.62 LIG 0.01  C 
ENDBRANCH 62 63
ENDBRANCH 61 62
BRANCH 61 66
ATOM     66  N   LEU D 690      15.603 -13.877  38.442  1.00 35.22 LIG-0.35  N 
ATOM     67 H    LEU D 690      15.912 -13.396  37.800  1.00 35.22 LIG 0.16  HD
ATOM     68  C   ILE D 689      16.301 -14.823  39.059  1.00 41.04 LIG 0.26  C 
ATOM     69 O    ILE D 689      15.853 -15.465  40.021  1.00 39.56 LIG-0.27  OA
BRANCH 68 70
ATOM     70  CA  ILE D 689      17.737 -15.044  38.540  1.00 40.35 LIG 0.40  C 
ATOM     71  N   ILE D 689      18.689 -15.489  39.633  1.00 40.45 LIG 0.61  N 
BRANCH 70 72
ATOM     72  CB  ILE D 689      17.661 -16.064  37.378  1.00 42.26 LIG 0.03  C 
ATOM     73  CG2 ILE D 689      16.381 -16.915  37.480  1.00 38.55 LIG 0.01  C 
BRANCH 72 74
ATOM     74  CG1 ILE D 689      17.770 -15.374  36.015  1.00 45.91 LIG 0.00  C 
ATOM     75  CD1 ILE D 689      16.446 -14.841  35.468  1.00 45.96 LIG 0.01  C 
ENDBRANCH 72 74
ENDBRANCH 70 72
ENDBRANCH 68 70
ENDBRANCH 61 66
ENDBRANCH 59 61
ENDBRANCH 50 57
ENDBRANCH 47 50
ENDBRANCH 1 46
TORSDOF 30
ENDMDL
MODEL 17
USER: ADFR SOLUTION from run 138
USER: SCORE 20.644589 LL:  -6.733 LR: -15.386 RR:   0.000 FEB:  -6.437
USER: RMSD 6.627780
USER: SEED 137
USER: STATUS no improvement in best in 29 clusters for 5 generations
USER: GENES 32
USER: genes 0 Translation |==|  0.52554 0.67572 0.32553
USER: genes 1 Rotation |==|  0.04571 0.64074 0.62845 0.58555
USER: genes 2 Torsion [N]-CA--C-[N] |==|  0.96698
USER: genes 3 Torsion [C]-N--CA-[C] |==|  0.61847
USER: genes 4 Torsion [N]-CA--C-[N] |==|  0.22944
USER: genes 5 Torsion [C]-N--CA-[C] |==|  0.82222
USER: genes 6 Torsion [N]-CA--C-[N] |==|  0.80823
USER: genes 7 Torsion [C]-N--CA-[CB] |==|  0.22276
USER: genes 8 Torsion [N]-CA--CB-[CG] |==|  0.02891
USER: genes 9 Torsion [CA]-CB--CG-[CD] |==|  0.26786
USER: genes 10 Torsion [CB]-CG--CD-[NE2] |==|  0.16660
USER: genes 11 Torsion [N]-CA--C-[O] |==|  0.02068
USER: genes 12 Torsion [N]-CA--CB-[CG] |==|  0.00458
USER: genes 13 Torsion [CA]-CB--CG-[CD2] |==|  0.68864
USER: genes 14 Torsion [N]-CA--CB-[CG] |==|  0.75189
USER: genes 15 Torsion [CA]-CB--CG-[CD1] |==|  0.88300
USER: genes 16 Torsion [C]-CA--CB-[CG] |==|  0.41434
USER: genes 17 Torsion [CA]-CB--CG-[CD] |==|  0.08334
USER: genes 18 Torsion [CB]-CG--CD-[NE] |==|  0.32840
USER: genes 19 Torsion [CG]-CD--NE-[CZ] |==|  0.53143
USER: genes 20 Torsion [C]-CA--N-[C] |==|  0.77291
USER: genes 21 Torsion [N]-C--CA-[N] |==|  0.44372
USER: genes 22 Torsion [C]-CA--CB-[CG] |==|  0.78770
USER: genes 23 Torsion [CA]-CB--CG-[ND1] |==|  0.64865
USER: genes 24 Torsion [C]-CA--N-[C] |==|  0.68896
USER: genes 25 Torsion [N]-C--CA-[N] |==|  0.44369
USER: genes 26 Torsion [C]-CA--CB-[CG] |==|  0.31226
USER: genes 27 Torsion [CA]-CB--CG-[CD2] |==|  0.73761
USER: genes 28 Torsion [C]-CA--N-[C] |==|  0.61932
USER: genes 29 Torsion [N]-C--CA-[N] |==|  0.92678
USER: genes 30 Torsion [C]-CA--CB-[CG1] |==|  0.90055
USER: genes 31 Torsion [CA]-CB--CG1-[CD1] |==|  0.32162
ROOT
ATOM      1  CA  ARG D 692      10.178 -11.707  35.517  1.00 48.73 LIG 0.18  C 
ENDROOT
BRANCH 1 2
ATOM      2  C   ARG D 692       8.688 -11.795  35.805  1.00 46.10 LIG 0.24  C 
ATOM      3  N   LEU D 693       8.234 -12.898  36.395  1.00 50.64 LIG-0.35  N 
ATOM      4 H    LEU D 693       8.719 -13.562  36.645  1.00 50.64 LIG 0.16  HD
ATOM      5 O    ARG D 692       7.928 -10.909  35.417  1.00 52.04 LIG-0.27  OA
BRANCH 3 6
ATOM      6  CA  LEU D 693       6.797 -13.029  36.656  1.00 43.34 LIG 0.18  C 
BRANCH 6 7
ATOM      7  C   LEU D 693       6.516 -13.605  38.038  1.00 37.95 LIG 0.24  C 
ATOM      8  N   LEU D 694       6.540 -12.752  39.042  1.00 39.22 LIG-0.35  N 
ATOM      9 H    LEU D 694       6.749 -11.923  38.956  1.00 39.22 LIG 0.16  HD
ATOM     10 O    LEU D 693       6.308 -14.815  38.180  1.00 43.86 LIG-0.27  OA
BRANCH 8 11
ATOM     11  CA  LEU D 694       6.216 -13.139  40.390  1.00 38.59 LIG 0.18  C 
BRANCH 11 12
ATOM     12  C   LEU D 694       4.784 -13.564  40.437  1.00 46.22 LIG 0.24  C 
ATOM     13  N   GLN D 695       3.908 -12.592  40.263  1.00 66.87 LIG-0.35  N 
ATOM     14 H    GLN D 695       4.159 -11.771  40.217  1.00 66.87 LIG 0.16  HD
ATOM     15 O    LEU D 694       4.509 -14.710  40.679  1.00 54.70 LIG-0.27  OA
BRANCH 13 16
ATOM     16  CA  GLN D 695       2.452 -12.726  40.127  1.00 62.86 LIG 0.16  C 
BRANCH 16 17
ATOM     17  CB  GLN D 695       1.801 -12.892  41.473  1.00 63.26 LIG 0.04  C 
BRANCH 17 18
ATOM     18  CG  GLN D 695       2.774 -12.626  42.591  1.00 77.24 LIG 0.10  C 
BRANCH 18 19
ATOM     19  CD  GLN D 695       2.682 -11.248  43.108  1.00 84.08 LIG 0.21  C 
ATOM     20 OE1  GLN D 695       3.642 -10.505  43.048  1.00 83.40 LIG-0.27  OA
ATOM     21  NE2 GLN D 695       1.518 -10.878  43.607  1.00 79.17 LIG-0.37  N 
ATOM     22 22HE GLN D 695       1.415 -10.079  43.909  1.00 79.17 LIG 0.16  HD
ATOM     23 21HE GLN D 695       0.864 -11.435  43.632  1.00 79.17 LIG 0.16  HD
ENDBRANCH 18 19
ENDBRANCH 17 18
ENDBRANCH 16 17
BRANCH 16 24
ATOM     24  C   GLN D 695       1.741 -11.661  39.294  1.00 61.14 LIG 0.22  C 
ATOM     25 O    GLN D 695       2.384 -10.821  38.658  1.00 66.66 LIG-0.29  OA
ENDBRANCH 16 24
ENDBRANCH 13 16
ENDBRANCH 11 12
BRANCH 11 26
ATOM     26  CB  LEU D 694       6.383 -11.982  41.352  1.00 34.51 LIG 0.04  C 
BRANCH 26 27
ATOM     27  CG  LEU D 694       6.802 -10.625  40.843  1.00 27.71 LIG-0.02  C 
ATOM     28  CD2 LEU D 694       8.174 -10.223  41.294  1.00 26.48 LIG 0.01  C 
ATOM     29  CD1 LEU D 694       5.787  -9.551  41.108  1.00 27.00 LIG 0.01  C 
ENDBRANCH 26 27
ENDBRANCH 11 26
ENDBRANCH 8 11
ENDBRANCH 6 7
BRANCH 6 30
ATOM     30  CB  LEU D 693       6.081 -13.848  35.568  1.00 45.67 LIG 0.04  C 
BRANCH 30 31
ATOM     31  CG  LEU D 693       5.546 -13.049  34.369  1.00 55.29 LIG-0.02  C 
ATOM     32  CD1 LEU D 693       4.894 -11.751  34.828  1.00 47.80 LIG 0.01  C 
ATOM     33  CD2 LEU D 693       6.629 -12.792  33.311  1.00 51.02 LIG 0.01  C 
ENDBRANCH 30 31
ENDBRANCH 6 30
ENDBRANCH 3 6
ENDBRANCH 1 2
BRANCH 1 34
ATOM     34  CB  ARG D 692      10.379 -11.657  33.988  1.00 49.09 LIG 0.04  C 
BRANCH 34 35
ATOM     35  CG  ARG D 692      11.633 -10.842  33.613  1.00 50.62 LIG 0.02  C 
BRANCH 35 36
ATOM     36  CD  ARG D 692      12.745 -10.877  34.652  1.00 57.04 LIG 0.14  C 
BRANCH 36 37
ATOM     37  NE  ARG D 692      13.932 -11.476  34.071  1.00 60.90 LIG-0.23  N 
ATOM     38 HE   ARG D 692      13.941 -11.597  33.220  1.00 60.90 LIG 0.18  HD
ATOM     39  CZ  ARG D 692      15.002 -11.850  34.756  1.00 61.50 LIG 0.67  C 
ATOM     40  NH1 ARG D 692      15.013 -11.773  36.085  1.00 46.48 LIG-0.23  N 
ATOM     41  NH2 ARG D 692      16.046 -12.347  34.105  1.00 64.68 LIG-0.23  N 
ATOM     42 1HH1 ARG D 692      14.322 -11.478  36.504  1.00 46.48 LIG 0.17  HD
ATOM     43 2HH1 ARG D 692      15.711 -12.018  36.524  1.00 46.48 LIG 0.17  HD
ATOM     44 1HH2 ARG D 692      16.024 -12.423  33.249  1.00 64.68 LIG 0.17  HD
ATOM     45 2HH2 ARG D 692      16.747 -12.593  34.540  1.00 64.68 LIG 0.17  HD
ENDBRANCH 36 37
ENDBRANCH 35 36
ENDBRANCH 34 35
ENDBRANCH 1 34
BRANCH 1 46
ATOM     46  N   ARG D 692      11.019 -12.740  36.166  1.00 43.06 LIG-0.35  N 
ATOM     47  C   HIS D 691      11.416 -12.629  37.422  1.00 44.11 LIG 0.24  C 
ATOM     48 O    HIS D 691      11.156 -11.664  38.127  1.00 43.39 LIG-0.27  OA
ATOM     49 H    ARG D 692      11.220 -13.404  35.658  1.00 43.06 LIG 0.16  HD
BRANCH 47 50
ATOM     50  CA  HIS D 691      12.207 -13.768  37.940  1.00 41.80 LIG 0.18  C 
BRANCH 50 51
ATOM     51  CB  HIS D 691      11.214 -14.807  38.334  1.00 51.00 LIG 0.10  C 
BRANCH 51 52
ATOM     52  CG  HIS D 691      10.520 -14.534  39.604  1.00 57.86 LIG 0.06  A 
ATOM     53 ND1  HIS D 691      10.483 -15.408  40.594  1.00 60.60 LIG-0.24  NA
ATOM     54  CE1 HIS D 691       9.788 -14.896  41.606  1.00 72.50 LIG 0.23  A 
ATOM     55 NE2  HIS D 691       9.360 -13.689  41.248  1.00 67.35 LIG-0.25  NA
ATOM     56  CD2 HIS D 691       9.789 -13.437  40.019  1.00 66.29 LIG 0.14  A 
ENDBRANCH 51 52
ENDBRANCH 50 51
BRANCH 50 57
ATOM     57  N   HIS D 691      12.979 -13.382  39.101  1.00 39.94 LIG-0.35  N 
ATOM     58 H    HIS D 691      12.500 -13.205  39.793  1.00 39.94 LIG 0.16  HD
ATOM     59  C   LEU D 690      14.300 -13.310  39.092  1.00 35.88 LIG 0.24  C 
ATOM     60 O    LEU D 690      14.994 -13.589  38.091  1.00 34.66 LIG-0.27  OA
BRANCH 59 61
ATOM     61  CA  LEU D 690      14.956 -12.805  40.356  1.00 33.43 LIG 0.18  C 
BRANCH 61 62
ATOM     62  CB  LEU D 690      14.844 -11.281  40.424  1.00 31.34 LIG 0.04  C 
BRANCH 62 63
ATOM     63  CG  LEU D 690      13.951 -10.713  41.521  1.00 30.93 LIG-0.02  C 
ATOM     64  CD1 LEU D 690      14.535  -9.410  42.044  1.00 30.90 LIG 0.01  C 
ATOM     65  CD2 LEU D 690      12.560 -10.463  40.970  1.00 28.62 LIG 0.01  C 
ENDBRANCH 62 63
ENDBRANCH 61 62
BRANCH 61 66
ATOM     66  N   LEU D 690      16.363 -13.205  40.421  1.00 35.22 LIG-0.35  N 
ATOM     67 H    LEU D 690      16.791 -13.118  39.681  1.00 35.22 LIG 0.16  HD
ATOM     68  C   ILE D 689      16.910 -13.659  41.542  1.00 41.04 LIG 0.26  C 
ATOM     69 O    ILE D 689      16.287 -13.722  42.613  1.00 39.56 LIG-0.27  OA
BRANCH 68 70
ATOM     70  CA  ILE D 689      18.398 -14.059  41.449  1.00 40.35 LIG 0.40  C 
ATOM     71  N   ILE D 689      18.803 -14.469  40.048  1.00 40.45 LIG 0.61  N 
BRANCH 70 72
ATOM     72  CB  ILE D 689      19.235 -12.868  41.977  1.00 42.26 LIG 0.03  C 
ATOM     73  CG2 ILE D 689      20.693 -12.967  41.493  1.00 38.55 LIG 0.01  C 
BRANCH 72 74
ATOM     74  CG1 ILE D 689      18.605 -11.525  41.596  1.00 45.91 LIG 0.00  C 
ATOM     75  CD1 ILE D 689      18.134 -10.688  42.785  1.00 45.96 LIG 0.01  C 
ENDBRANCH 72 74
ENDBRANCH 70 72
ENDBRANCH 68 70
ENDBRANCH 61 66
ENDBRANCH 59 61
ENDBRANCH 50 57
ENDBRANCH 47 50
ENDBRANCH 1 46
TORSDOF 30
ENDMDL
MODEL 18
USER: ADFR SOLUTION from run 190
USER: SCORE 21.307549 LL:  -6.973 LR: -15.376 RR:   0.000 FEB:  -6.427
USER: RMSD 6.544213
USER: SEED 189
USER: STATUS no improvement in best in 21 clusters for 5 generations
USER: GENES 32
USER: genes 0 Translation |==|  0.58002 0.74065 0.34772
USER: genes 1 Rotation |==|  0.01072 0.57557 0.53796 0.55876
USER: genes 2 Torsion [N]-CA--C-[N] |==|  0.92600
USER: genes 3 Torsion [C]-N--CA-[C] |==|  0.68370
USER: genes 4 Torsion [N]-CA--C-[N] |==|  0.94137
USER: genes 5 Torsion [C]-N--CA-[C] |==|  0.17106
USER: genes 6 Torsion [N]-CA--C-[N] |==|  0.66902
USER: genes 7 Torsion [C]-N--CA-[CB] |==|  0.55027
USER: genes 8 Torsion [N]-CA--CB-[CG] |==|  0.95793
USER: genes 9 Torsion [CA]-CB--CG-[CD] |==|  0.27986
USER: genes 10 Torsion [CB]-CG--CD-[NE2] |==|  0.88393
USER: genes 11 Torsion [N]-CA--C-[O] |==|  0.79157
USER: genes 12 Torsion [N]-CA--CB-[CG] |==|  0.68718
USER: genes 13 Torsion [CA]-CB--CG-[CD2] |==|  0.51424
USER: genes 14 Torsion [N]-CA--CB-[CG] |==|  0.57415
USER: genes 15 Torsion [CA]-CB--CG-[CD1] |==|  0.74567
USER: genes 16 Torsion [C]-CA--CB-[CG] |==|  0.65154
USER: genes 17 Torsion [CA]-CB--CG-[CD] |==|  0.77572
USER: genes 18 Torsion [CB]-CG--CD-[NE] |==|  0.45242
USER: genes 19 Torsion [CG]-CD--NE-[CZ] |==|  0.16327
USER: genes 20 Torsion [C]-CA--N-[C] |==|  0.82951
USER: genes 21 Torsion [N]-C--CA-[N] |==|  0.98878
USER: genes 22 Torsion [C]-CA--CB-[CG] |==|  0.23699
USER: genes 23 Torsion [CA]-CB--CG-[ND1] |==|  0.71470
USER: genes 24 Torsion [C]-CA--N-[C] |==|  0.80149
USER: genes 25 Torsion [N]-C--CA-[N] |==|  0.10695
USER: genes 26 Torsion [C]-CA--CB-[CG] |==|  0.27782
USER: genes 27 Torsion [CA]-CB--CG-[CD2] |==|  0.92859
USER: genes 28 Torsion [C]-CA--N-[C] |==|  0.16879
USER: genes 29 Torsion [N]-C--CA-[N] |==|  0.93841
USER: genes 30 Torsion [C]-CA--CB-[CG1] |==|  0.90696
USER: genes 31 Torsion [CA]-CB--CG1-[CD1] |==|  0.62977
ROOT
ATOM      1  CA  ARG D 692      11.403 -10.490  35.950  1.00 48.73 LIG 0.18  C 
ENDROOT
BRANCH 1 2
ATOM      2  C   ARG D 692       9.971 -10.938  35.710  1.00 46.10 LIG 0.24  C 
ATOM      3  N   LEU D 693       9.645 -12.182  36.050  1.00 50.64 LIG-0.35  N 
ATOM      4 H    LEU D 693      10.176 -12.752  36.413  1.00 50.64 LIG 0.16  HD
ATOM      5 O    ARG D 692       9.176 -10.195  35.136  1.00 52.04 LIG-0.27  OA
BRANCH 3 6
ATOM      6  CA  LEU D 693       8.280 -12.657  35.801  1.00 43.34 LIG 0.18  C 
BRANCH 6 7
ATOM      7  C   LEU D 693       7.526 -12.938  37.094  1.00 37.95 LIG 0.24  C 
ATOM      8  N   LEU D 694       8.263 -13.146  38.167  1.00 39.22 LIG-0.35  N 
ATOM      9 H    LEU D 694       9.122 -13.174  38.155  1.00 39.22 LIG 0.16  HD
ATOM     10 O    LEU D 693       6.291 -12.992  37.098  1.00 43.86 LIG-0.27  OA
BRANCH 8 11
ATOM     11  CA  LEU D 694       7.688 -13.345  39.471  1.00 38.59 LIG 0.18  C 
BRANCH 11 12
ATOM     12  C   LEU D 694       6.835 -14.572  39.437  1.00 46.22 LIG 0.24  C 
ATOM     13  N   GLN D 695       5.560 -14.371  39.713  1.00 66.87 LIG-0.35  N 
ATOM     14 H    GLN D 695       5.277 -13.603  39.975  1.00 66.87 LIG 0.16  HD
ATOM     15 O    LEU D 694       7.339 -15.644  39.230  1.00 54.70 LIG-0.27  OA
BRANCH 13 16
ATOM     16  CA  GLN D 695       4.470 -15.353  39.627  1.00 62.86 LIG 0.16  C 
BRANCH 16 17
ATOM     17  CB  GLN D 695       3.132 -14.665  39.589  1.00 63.26 LIG 0.04  C 
BRANCH 17 18
ATOM     18  CG  GLN D 695       3.242 -13.225  40.012  1.00 77.24 LIG 0.10  C 
BRANCH 18 19
ATOM     19  CD  GLN D 695       3.253 -12.295  38.868  1.00 84.08 LIG 0.21  C 
ATOM     20 OE1  GLN D 695       2.633 -11.250  38.919  1.00 83.40 LIG-0.27  OA
ATOM     21  NE2 GLN D 695       3.973 -12.650  37.821  1.00 79.17 LIG-0.37  N 
ATOM     22 22HE GLN D 695       4.020 -12.133  37.136  1.00 79.17 LIG 0.16  HD
ATOM     23 21HE GLN D 695       4.397 -13.398  37.825  1.00 79.17 LIG 0.16  HD
ENDBRANCH 18 19
ENDBRANCH 17 18
ENDBRANCH 16 17
BRANCH 16 24
ATOM     24  C   GLN D 695       4.584 -16.408  38.528  1.00 61.14 LIG 0.22  C 
ATOM     25 O    GLN D 695       4.365 -16.121  37.348  1.00 66.66 LIG-0.29  OA
ENDBRANCH 16 24
ENDBRANCH 13 16
ENDBRANCH 11 12
BRANCH 11 26
ATOM     26  CB  LEU D 694       6.804 -12.183  39.869  1.00 34.51 LIG 0.04  C 
BRANCH 26 27
ATOM     27  CG  LEU D 694       7.207 -11.277  41.007  1.00 27.71 LIG-0.02  C 
ATOM     28  CD2 LEU D 694       6.164 -10.255  41.347  1.00 26.48 LIG 0.01  C 
ATOM     29  CD1 LEU D 694       8.561 -10.656  40.821  1.00 27.00 LIG 0.01  C 
ENDBRANCH 26 27
ENDBRANCH 11 26
ENDBRANCH 8 11
ENDBRANCH 6 7
BRANCH 6 30
ATOM     30  CB  LEU D 693       8.251 -13.885  34.875  1.00 45.67 LIG 0.04  C 
BRANCH 30 31
ATOM     31  CG  LEU D 693       6.967 -14.077  34.053  1.00 55.29 LIG-0.02  C 
ATOM     32  CD1 LEU D 693       5.972 -14.957  34.798  1.00 47.80 LIG 0.01  C 
ATOM     33  CD2 LEU D 693       6.336 -12.740  33.638  1.00 51.02 LIG 0.01  C 
ENDBRANCH 30 31
ENDBRANCH 6 30
ENDBRANCH 3 6
ENDBRANCH 1 2
BRANCH 1 34
ATOM     34  CB  ARG D 692      12.167 -10.550  34.610  1.00 49.09 LIG 0.04  C 
BRANCH 34 35
ATOM     35  CG  ARG D 692      13.442 -11.408  34.728  1.00 50.62 LIG 0.02  C 
BRANCH 35 36
ATOM     36  CD  ARG D 692      14.633 -10.692  35.347  1.00 57.04 LIG 0.14  C 
BRANCH 36 37
ATOM     37  NE  ARG D 692      15.616 -11.668  35.776  1.00 60.90 LIG-0.23  N 
ATOM     38 HE   ARG D 692      15.834 -11.674  36.608  1.00 60.90 LIG 0.18  HD
ATOM     39  CZ  ARG D 692      16.204 -12.550  34.981  1.00 61.50 LIG 0.67  C 
ATOM     40  NH1 ARG D 692      15.978 -12.530  33.669  1.00 46.48 LIG-0.23  N 
ATOM     41  NH2 ARG D 692      17.056 -13.423  35.501  1.00 64.68 LIG-0.23  N 
ATOM     42 1HH1 ARG D 692      15.447 -11.942  33.333  1.00 46.48 LIG 0.17  HD
ATOM     43 2HH1 ARG D 692      16.362 -13.105  33.158  1.00 46.48 LIG 0.17  HD
ATOM     44 1HH2 ARG D 692      17.222 -13.413  36.345  1.00 64.68 LIG 0.17  HD
ATOM     45 2HH2 ARG D 692      17.443 -14.000  34.994  1.00 64.68 LIG 0.17  HD
ENDBRANCH 36 37
ENDBRANCH 35 36
ENDBRANCH 34 35
ENDBRANCH 1 34
BRANCH 1 46
ATOM     46  N   ARG D 692      12.121 -11.188  37.043  1.00 43.06 LIG-0.35  N 
ATOM     47  C   HIS D 691      11.703 -11.139  38.296  1.00 44.11 LIG 0.24  C 
ATOM     48 O    HIS D 691      10.728 -10.493  38.654  1.00 43.39 LIG-0.27  OA
ATOM     49 H    ARG D 692      12.820 -11.620  36.788  1.00 43.06 LIG 0.16  HD
BRANCH 47 50
ATOM     50  CA  HIS D 691      12.497 -11.932  39.261  1.00 41.80 LIG 0.18  C 
BRANCH 50 51
ATOM     51  CB  HIS D 691      13.126 -10.942  40.181  1.00 51.00 LIG 0.10  C 
BRANCH 51 52
ATOM     52  CG  HIS D 691      12.272 -10.536  41.310  1.00 57.86 LIG 0.06  A 
ATOM     53 ND1  HIS D 691      11.635  -9.378  41.336  1.00 60.60 LIG-0.24  NA
ATOM     54  CE1 HIS D 691      10.950  -9.280  42.471  1.00 72.50 LIG 0.23  A 
ATOM     55 NE2  HIS D 691      11.170 -10.379  43.187  1.00 67.35 LIG-0.25  NA
ATOM     56  CD2 HIS D 691      11.984 -11.171  42.503  1.00 66.29 LIG 0.14  A 
ENDBRANCH 51 52
ENDBRANCH 50 51
BRANCH 50 57
ATOM     57  N   HIS D 691      13.534 -12.684  38.589  1.00 39.94 LIG-0.35  N 
ATOM     58 H    HIS D 691      14.327 -12.384  38.731  1.00 39.94 LIG 0.16  HD
ATOM     59  C   LEU D 690      13.279 -13.734  37.827  1.00 35.88 LIG 0.24  C 
ATOM     60 O    LEU D 690      12.126 -14.180  37.640  1.00 34.66 LIG-0.27  OA
BRANCH 59 61
ATOM     61  CA  LEU D 690      14.460 -14.359  37.121  1.00 33.43 LIG 0.18  C 
BRANCH 61 62
ATOM     62  CB  LEU D 690      14.113 -15.788  36.701  1.00 31.34 LIG 0.04  C 
BRANCH 62 63
ATOM     63  CG  LEU D 690      13.715 -15.991  35.243  1.00 30.93 LIG-0.02  C 
ATOM     64  CD1 LEU D 690      12.674 -17.095  35.138  1.00 30.90 LIG 0.01  C 
ATOM     65  CD2 LEU D 690      13.147 -14.700  34.684  1.00 28.62 LIG 0.01  C 
ENDBRANCH 62 63
ENDBRANCH 61 62
BRANCH 61 66
ATOM     66  N   LEU D 690      15.648 -14.366  37.977  1.00 35.22 LIG-0.35  N 
ATOM     67 H    LEU D 690      16.315 -13.923  37.661  1.00 35.22 LIG 0.16  HD
ATOM     68  C   ILE D 689      15.671 -15.008  39.138  1.00 41.04 LIG 0.26  C 
ATOM     69 O    ILE D 689      14.679 -15.592  39.598  1.00 39.56 LIG-0.27  OA
BRANCH 68 70
ATOM     70  CA  ILE D 689      17.001 -14.939  39.918  1.00 40.35 LIG 0.40  C 
ATOM     71  N   ILE D 689      18.184 -14.627  39.023  1.00 40.45 LIG 0.61  N 
BRANCH 70 72
ATOM     72  CB  ILE D 689      16.827 -13.893  41.046  1.00 42.26 LIG 0.03  C 
ATOM     73  CG2 ILE D 689      18.195 -13.367  41.519  1.00 38.55 LIG 0.01  C 
BRANCH 72 74
ATOM     74  CG1 ILE D 689      15.903 -12.750  40.616  1.00 45.91 LIG 0.00  C 
ATOM     75  CD1 ILE D 689      16.432 -11.353  40.938  1.00 45.96 LIG 0.01  C 
ENDBRANCH 72 74
ENDBRANCH 70 72
ENDBRANCH 68 70
ENDBRANCH 61 66
ENDBRANCH 59 61
ENDBRANCH 50 57
ENDBRANCH 47 50
ENDBRANCH 1 46
TORSDOF 30
ENDMDL
MODEL 19
USER: ADFR SOLUTION from run 144
USER: SCORE 21.075448 LL:  -6.220 LR: -15.378 RR:   0.000 FEB:  -6.429
USER: RMSD 6.908261
USER: SEED 143
USER: STATUS searching
USER: GENES 32
USER: genes 0 Translation |==|  0.60459 0.70903 0.40481
USER: genes 1 Rotation |==|  0.00055 0.49683 0.52320 0.50086
USER: genes 2 Torsion [N]-CA--C-[N] |==|  0.00486
USER: genes 3 Torsion [C]-N--CA-[C] |==|  0.83333
USER: genes 4 Torsion [N]-CA--C-[N] |==|  0.40855
USER: genes 5 Torsion [C]-N--CA-[C] |==|  0.77219
USER: genes 6 Torsion [N]-CA--C-[N] |==|  0.24395
USER: genes 7 Torsion [C]-N--CA-[CB] |==|  0.41114
USER: genes 8 Torsion [N]-CA--CB-[CG] |==|  0.12332
USER: genes 9 Torsion [CA]-CB--CG-[CD] |==|  0.30572
USER: genes 10 Torsion [CB]-CG--CD-[NE2] |==|  0.55828
USER: genes 11 Torsion [N]-CA--C-[O] |==|  0.90923
USER: genes 12 Torsion [N]-CA--CB-[CG] |==|  0.70394
USER: genes 13 Torsion [CA]-CB--CG-[CD2] |==|  0.23288
USER: genes 14 Torsion [N]-CA--CB-[CG] |==|  0.05523
USER: genes 15 Torsion [CA]-CB--CG-[CD1] |==|  0.17362
USER: genes 16 Torsion [C]-CA--CB-[CG] |==|  0.60147
USER: genes 17 Torsion [CA]-CB--CG-[CD] |==|  0.57405
USER: genes 18 Torsion [CB]-CG--CD-[NE] |==|  0.77528
USER: genes 19 Torsion [CG]-CD--NE-[CZ] |==|  0.81845
USER: genes 20 Torsion [C]-CA--N-[C] |==|  0.79387
USER: genes 21 Torsion [N]-C--CA-[N] |==|  0.98387
USER: genes 22 Torsion [C]-CA--CB-[CG] |==|  0.32588
USER: genes 23 Torsion [CA]-CB--CG-[ND1] |==|  0.15201
USER: genes 24 Torsion [C]-CA--N-[C] |==|  0.75689
USER: genes 25 Torsion [N]-C--CA-[N] |==|  0.13422
USER: genes 26 Torsion [C]-CA--CB-[CG] |==|  0.21607
USER: genes 27 Torsion [CA]-CB--CG-[CD2] |==|  0.36809
USER: genes 28 Torsion [C]-CA--N-[C] |==|  0.13688
USER: genes 29 Torsion [N]-C--CA-[N] |==|  0.91949
USER: genes 30 Torsion [C]-CA--CB-[CG1] |==|  0.25479
USER: genes 31 Torsion [CA]-CB--CG1-[CD1] |==|  0.58610
ROOT
ATOM      1  CA  ARG D 692      11.956 -11.083  37.063  1.00 48.73 LIG 0.18  C 
ENDROOT
BRANCH 1 2
ATOM      2  C   ARG D 692      10.765 -12.011  36.891  1.00 46.10 LIG 0.24  C 
ATOM      3  N   LEU D 693      10.510 -12.880  37.866  1.00 50.64 LIG-0.35  N 
ATOM      4 H    LEU D 693      10.955 -12.948  38.598  1.00 50.64 LIG 0.16  HD
ATOM      5 O    ARG D 692      10.124 -12.010  35.841  1.00 52.04 LIG-0.27  OA
BRANCH 3 6
ATOM      6  CA  LEU D 693       9.388 -13.813  37.717  1.00 43.34 LIG 0.18  C 
BRANCH 6 7
ATOM      7  C   LEU D 693       8.058 -13.089  37.555  1.00 37.95 LIG 0.24  C 
ATOM      8  N   LEU D 694       7.162 -13.678  36.790  1.00 39.22 LIG-0.35  N 
ATOM      9 H    LEU D 694       7.311 -14.405  36.357  1.00 39.22 LIG 0.16  HD
ATOM     10 O    LEU D 693       7.871 -11.996  38.101  1.00 43.86 LIG-0.27  OA
BRANCH 8 11
ATOM     11  CA  LEU D 694       5.835 -13.151  36.610  1.00 38.59 LIG 0.18  C 
BRANCH 11 12
ATOM     12  C   LEU D 694       4.989 -13.572  37.768  1.00 46.22 LIG 0.24  C 
ATOM     13  N   GLN D 695       5.024 -12.758  38.808  1.00 66.87 LIG-0.35  N 
ATOM     14 H    GLN D 695       5.565 -12.091  38.832  1.00 66.87 LIG 0.16  HD
ATOM     15 O    LEU D 694       4.391 -14.615  37.723  1.00 54.70 LIG-0.27  OA
BRANCH 13 16
ATOM     16  CA  GLN D 695       4.203 -12.840  40.023  1.00 62.86 LIG 0.16  C 
BRANCH 16 17
ATOM     17  CB  GLN D 695       4.964 -12.329  41.217  1.00 63.26 LIG 0.04  C 
BRANCH 17 18
ATOM     18  CG  GLN D 695       5.692 -11.051  40.900  1.00 77.24 LIG 0.10  C 
BRANCH 18 19
ATOM     19  CD  GLN D 695       5.109  -9.880  41.581  1.00 84.08 LIG 0.21  C 
ATOM     20 OE1  GLN D 695       4.432 -10.025  42.580  1.00 83.40 LIG-0.27  OA
ATOM     21  NE2 GLN D 695       5.377  -8.697  41.062  1.00 79.17 LIG-0.37  N 
ATOM     22 22HE GLN D 695       5.069  -7.985  41.433  1.00 79.17 LIG 0.16  HD
ATOM     23 21HE GLN D 695       5.860  -8.638  40.354  1.00 79.17 LIG 0.16  HD
ENDBRANCH 18 19
ENDBRANCH 17 18
ENDBRANCH 16 17
BRANCH 16 24
ATOM     24  C   GLN D 695       2.807 -12.225  39.950  1.00 61.14 LIG 0.22  C 
ATOM     25 O    GLN D 695       2.587 -11.234  39.248  1.00 66.66 LIG-0.29  OA
ENDBRANCH 16 24
ENDBRANCH 13 16
ENDBRANCH 11 12
BRANCH 11 26
ATOM     26  CB  LEU D 694       5.191 -13.691  35.351  1.00 34.51 LIG 0.04  C 
BRANCH 26 27
ATOM     27  CG  LEU D 694       5.031 -12.806  34.140  1.00 27.71 LIG-0.02  C 
ATOM     28  CD2 LEU D 694       6.260 -12.749  33.283  1.00 26.48 LIG 0.01  C 
ATOM     29  CD1 LEU D 694       4.512 -11.436  34.469  1.00 27.00 LIG 0.01  C 
ENDBRANCH 26 27
ENDBRANCH 11 26
ENDBRANCH 8 11
ENDBRANCH 6 7
BRANCH 6 30
ATOM     30  CB  LEU D 693       9.320 -14.828  38.870  1.00 45.67 LIG 0.04  C 
BRANCH 30 31
ATOM     31  CG  LEU D 693      10.064 -14.436  40.156  1.00 55.29 LIG-0.02  C 
ATOM     32  CD1 LEU D 693       9.471 -13.172  40.763  1.00 47.80 LIG 0.01  C 
ATOM     33  CD2 LEU D 693      10.109 -15.584  41.176  1.00 51.02 LIG 0.01  C 
ENDBRANCH 30 31
ENDBRANCH 6 30
ENDBRANCH 3 6
ENDBRANCH 1 2
BRANCH 1 34
ATOM     34  CB  ARG D 692      12.826 -11.161  35.790  1.00 49.09 LIG 0.04  C 
BRANCH 34 35
ATOM     35  CG  ARG D 692      14.327 -11.066  36.130  1.00 50.62 LIG 0.02  C 
BRANCH 35 36
ATOM     36  CD  ARG D 692      15.196 -10.507  35.013  1.00 57.04 LIG 0.14  C 
BRANCH 36 37
ATOM     37  NE  ARG D 692      15.484 -11.554  34.052  1.00 60.90 LIG-0.23  N 
ATOM     38 HE   ARG D 692      15.165 -11.466  33.259  1.00 60.90 LIG 0.18  HD
ATOM     39  CZ  ARG D 692      16.204 -12.637  34.307  1.00 61.50 LIG 0.67  C 
ATOM     40  NH1 ARG D 692      16.648 -12.876  35.539  1.00 46.48 LIG-0.23  N 
ATOM     41  NH2 ARG D 692      16.436 -13.505  33.331  1.00 64.68 LIG-0.23  N 
ATOM     42 1HH1 ARG D 692      16.469 -12.325  36.175  1.00 46.48 LIG 0.17  HD
ATOM     43 2HH1 ARG D 692      17.114 -13.581  35.698  1.00 46.48 LIG 0.17  HD
ATOM     44 1HH2 ARG D 692      16.121 -13.362  32.543  1.00 64.68 LIG 0.17  HD
ATOM     45 2HH2 ARG D 692      16.902 -14.211  33.485  1.00 64.68 LIG 0.17  HD
ENDBRANCH 36 37
ENDBRANCH 35 36
ENDBRANCH 34 35
ENDBRANCH 1 34
BRANCH 1 46
ATOM     46  N   ARG D 692      12.746 -11.274  38.302  1.00 43.06 LIG-0.35  N 
ATOM     47  C   HIS D 691      12.301 -10.877  39.482  1.00 44.11 LIG 0.24  C 
ATOM     48 O    HIS D 691      11.237 -10.296  39.639  1.00 43.39 LIG-0.27  OA
ATOM     49 H    ARG D 692      13.505 -11.660  38.182  1.00 43.06 LIG 0.16  HD
BRANCH 47 50
ATOM     50  CA  HIS D 691      13.184 -11.187  40.630  1.00 41.80 LIG 0.18  C 
BRANCH 50 51
ATOM     51  CB  HIS D 691      13.679  -9.873  41.129  1.00 51.00 LIG 0.10  C 
BRANCH 51 52
ATOM     52  CG  HIS D 691      13.271  -9.555  42.508  1.00 57.86 LIG 0.06  A 
ATOM     53 ND1  HIS D 691      13.511 -10.366  43.523  1.00 60.60 LIG-0.24  NA
ATOM     54  CE1 HIS D 691      13.029  -9.826  44.639  1.00 72.50 LIG 0.23  A 
ATOM     55 NE2  HIS D 691      12.456  -8.667  44.327  1.00 67.35 LIG-0.25  NA
ATOM     56  CD2 HIS D 691      12.583  -8.472  43.022  1.00 66.29 LIG 0.14  A 
ENDBRANCH 51 52
ENDBRANCH 50 51
BRANCH 50 57
ATOM     57  N   HIS D 691      14.310 -11.995  40.217  1.00 39.94 LIG-0.35  N 
ATOM     58 H    HIS D 691      15.007 -11.538  40.007  1.00 39.94 LIG 0.16  HD
ATOM     59  C   LEU D 690      14.265 -13.317  40.170  1.00 35.88 LIG 0.24  C 
ATOM     60 O    LEU D 690      13.257 -13.980  40.498  1.00 34.66 LIG-0.27  OA
BRANCH 59 61
ATOM     61  CA  LEU D 690      15.493 -14.015  39.633  1.00 33.43 LIG 0.18  C 
BRANCH 61 62
ATOM     62  CB  LEU D 690      15.376 -15.521  39.871  1.00 31.34 LIG 0.04  C 
BRANCH 62 63
ATOM     63  CG  LEU D 690      14.470 -16.292  38.917  1.00 30.93 LIG-0.02  C 
ATOM     64  CD1 LEU D 690      14.095 -15.413  37.733  1.00 30.90 LIG 0.01  C 
ATOM     65  CD2 LEU D 690      15.186 -17.534  38.422  1.00 28.62 LIG 0.01  C 
ENDBRANCH 62 63
ENDBRANCH 61 62
BRANCH 61 66
ATOM     66  N   LEU D 690      16.713 -13.505  40.262  1.00 35.22 LIG-0.35  N 
ATOM     67 H    LEU D 690      17.336 -13.293  39.708  1.00 35.22 LIG 0.16  HD
ATOM     68  C   ILE D 689      16.825 -13.387  41.579  1.00 41.04 LIG 0.26  C 
ATOM     69 O    ILE D 689      15.893 -13.646  42.355  1.00 39.56 LIG-0.27  OA
BRANCH 68 70
ATOM     70  CA  ILE D 689      18.178 -12.853  42.094  1.00 40.35 LIG 0.40  C 
ATOM     71  N   ILE D 689      19.329 -13.201  41.171  1.00 40.45 LIG 0.61  N 
BRANCH 70 72
ATOM     72  CB  ILE D 689      18.030 -11.325  42.294  1.00 42.26 LIG 0.03  C 
ATOM     73  CG2 ILE D 689      17.068 -10.727  41.251  1.00 38.55 LIG 0.01  C 
BRANCH 72 74
ATOM     74  CG1 ILE D 689      17.593 -10.985  43.722  1.00 45.91 LIG 0.00  C 
ATOM     75  CD1 ILE D 689      16.737  -9.724  43.838  1.00 45.96 LIG 0.01  C 
ENDBRANCH 72 74
ENDBRANCH 70 72
ENDBRANCH 68 70
ENDBRANCH 61 66
ENDBRANCH 59 61
ENDBRANCH 50 57
ENDBRANCH 47 50
ENDBRANCH 1 46
TORSDOF 30
ENDMDL
MODEL 20
USER: ADFR SOLUTION from run 193
USER: SCORE 21.075909 LL:  -6.956 LR: -15.381 RR:   0.000 FEB:  -6.432
USER: RMSD 7.356434
USER: SEED 192
USER: STATUS searching
USER: GENES 32
USER: genes 0 Translation |==|  0.60163 0.72927 0.34653
USER: genes 1 Rotation |==|  0.01133 0.55722 0.58384 0.53004
USER: genes 2 Torsion [N]-CA--C-[N] |==|  0.91475
USER: genes 3 Torsion [C]-N--CA-[C] |==|  0.63522
USER: genes 4 Torsion [N]-CA--C-[N] |==|  0.17709
USER: genes 5 Torsion [C]-N--CA-[C] |==|  0.82592
USER: genes 6 Torsion [N]-CA--C-[N] |==|  0.93830
USER: genes 7 Torsion [C]-N--CA-[CB] |==|  0.49424
USER: genes 8 Torsion [N]-CA--CB-[CG] |==|  0.12986
USER: genes 9 Torsion [CA]-CB--CG-[CD] |==|  0.46118
USER: genes 10 Torsion [CB]-CG--CD-[NE2] |==|  0.70880
USER: genes 11 Torsion [N]-CA--C-[O] |==|  0.72598
USER: genes 12 Torsion [N]-CA--CB-[CG] |==|  0.10759
USER: genes 13 Torsion [CA]-CB--CG-[CD2] |==|  0.62616
USER: genes 14 Torsion [N]-CA--CB-[CG] |==|  0.68571
USER: genes 15 Torsion [CA]-CB--CG-[CD1] |==|  0.19055
USER: genes 16 Torsion [C]-CA--CB-[CG] |==|  0.84330
USER: genes 17 Torsion [CA]-CB--CG-[CD] |==|  0.77593
USER: genes 18 Torsion [CB]-CG--CD-[NE] |==|  0.81353
USER: genes 19 Torsion [CG]-CD--NE-[CZ] |==|  0.30417
USER: genes 20 Torsion [C]-CA--N-[C] |==|  0.85556
USER: genes 21 Torsion [N]-C--CA-[N] |==|  0.91435
USER: genes 22 Torsion [C]-CA--CB-[CG] |==|  0.31202
USER: genes 23 Torsion [CA]-CB--CG-[ND1] |==|  0.35281
USER: genes 24 Torsion [C]-CA--N-[C] |==|  0.83314
USER: genes 25 Torsion [N]-C--CA-[N] |==|  0.01549
USER: genes 26 Torsion [C]-CA--CB-[CG] |==|  0.89330
USER: genes 27 Torsion [CA]-CB--CG-[CD2] |==|  0.73410
USER: genes 28 Torsion [C]-CA--N-[C] |==|  0.56761
USER: genes 29 Torsion [N]-C--CA-[N] |==|  0.29497
USER: genes 30 Torsion [C]-CA--CB-[CG1] |==|  0.79209
USER: genes 31 Torsion [CA]-CB--CG1-[CD1] |==|  0.32290
ROOT
ATOM      1  CA  ARG D 692      11.890 -10.703  35.926  1.00 48.73 LIG 0.18  C 
ENDROOT
BRANCH 1 2
ATOM      2  C   ARG D 692      10.495 -11.303  35.997  1.00 46.10 LIG 0.24  C 
ATOM      3  N   LEU D 693      10.382 -12.566  36.399  1.00 50.64 LIG-0.35  N 
ATOM      4 H    LEU D 693      11.035 -13.069  36.642  1.00 50.64 LIG 0.16  HD
ATOM      5 O    ARG D 692       9.523 -10.660  35.603  1.00 52.04 LIG-0.27  OA
BRANCH 3 6
ATOM      6  CA  LEU D 693       9.054 -13.185  36.446  1.00 43.34 LIG 0.18  C 
BRANCH 6 7
ATOM      7  C   LEU D 693       8.796 -13.891  37.771  1.00 37.95 LIG 0.24  C 
ATOM      8  N   LEU D 694       8.770 -13.127  38.844  1.00 39.22 LIG-0.35  N 
ATOM      9 H    LEU D 694       8.934 -12.284  38.831  1.00 39.22 LIG 0.16  HD
ATOM     10 O    LEU D 693       8.653 -15.118  37.808  1.00 43.86 LIG-0.27  OA
BRANCH 8 11
ATOM     11  CA  LEU D 694       8.460 -13.644  40.151  1.00 38.59 LIG 0.18  C 
BRANCH 11 12
ATOM     12  C   LEU D 694       7.064 -14.177  40.139  1.00 46.22 LIG 0.24  C 
ATOM     13  N   GLN D 695       6.288 -13.683  39.192  1.00 66.87 LIG-0.35  N 
ATOM     14 H    GLN D 695       6.556 -13.041  38.687  1.00 66.87 LIG 0.16  HD
ATOM     15 O    LEU D 694       6.712 -14.951  40.990  1.00 54.70 LIG-0.27  OA
BRANCH 13 16
ATOM     16  CA  GLN D 695       4.924 -14.110  38.852  1.00 62.86 LIG 0.16  C 
BRANCH 16 17
ATOM     17  CB  GLN D 695       4.359 -13.265  37.743  1.00 63.26 LIG 0.04  C 
BRANCH 17 18
ATOM     18  CG  GLN D 695       5.344 -13.104  36.617  1.00 77.24 LIG 0.10  C 
BRANCH 18 19
ATOM     19  CD  GLN D 695       4.724 -12.571  35.390  1.00 84.08 LIG 0.21  C 
ATOM     20 OE1  GLN D 695       4.443 -11.391  35.307  1.00 83.40 LIG-0.27  OA
ATOM     21  NE2 GLN D 695       4.517 -13.428  34.409  1.00 79.17 LIG-0.37  N 
ATOM     22 22HE GLN D 695       4.170 -13.159  33.670  1.00 79.17 LIG 0.16  HD
ATOM     23 21HE GLN D 695       4.730 -14.255  34.508  1.00 79.17 LIG 0.16  HD
ENDBRANCH 18 19
ENDBRANCH 17 18
ENDBRANCH 16 17
BRANCH 16 24
ATOM     24  C   GLN D 695       4.721 -15.599  38.574  1.00 61.14 LIG 0.22  C 
ATOM     25 O    GLN D 695       4.684 -16.028  37.418  1.00 66.66 LIG-0.29  OA
ENDBRANCH 16 24
ENDBRANCH 13 16
ENDBRANCH 11 12
BRANCH 11 26
ATOM     26  CB  LEU D 694       8.528 -12.560  41.205  1.00 34.51 LIG 0.04  C 
BRANCH 26 27
ATOM     27  CG  LEU D 694       8.026 -11.170  40.899  1.00 27.71 LIG-0.02  C 
ATOM     28  CD2 LEU D 694       8.960 -10.091  41.355  1.00 26.48 LIG 0.01  C 
ATOM     29  CD1 LEU D 694       6.619 -10.930  41.366  1.00 27.00 LIG 0.01  C 
ENDBRANCH 26 27
ENDBRANCH 11 26
ENDBRANCH 8 11
ENDBRANCH 6 7
BRANCH 6 30
ATOM     30  CB  LEU D 693       8.815 -14.140  35.264  1.00 45.67 LIG 0.04  C 
BRANCH 30 31
ATOM     31  CG  LEU D 693       7.741 -13.705  34.255  1.00 55.29 LIG-0.02  C 
ATOM     32  CD1 LEU D 693       8.195 -12.481  33.472  1.00 47.80 LIG 0.01  C 
ATOM     33  CD2 LEU D 693       7.324 -14.850  33.319  1.00 51.02 LIG 0.01  C 
ENDBRANCH 30 31
ENDBRANCH 6 30
ENDBRANCH 3 6
ENDBRANCH 1 2
BRANCH 1 34
ATOM     34  CB  ARG D 692      12.396 -10.809  34.473  1.00 49.09 LIG 0.04  C 
BRANCH 34 35
ATOM     35  CG  ARG D 692      12.372 -12.268  33.975  1.00 50.62 LIG 0.02  C 
BRANCH 35 36
ATOM     36  CD  ARG D 692      13.555 -13.112  34.425  1.00 57.04 LIG 0.14  C 
BRANCH 36 37
ATOM     37  NE  ARG D 692      14.767 -12.621  33.798  1.00 60.90 LIG-0.23  N 
ATOM     38 HE   ARG D 692      14.859 -12.752  32.953  1.00 60.90 LIG 0.18  HD
ATOM     39  CZ  ARG D 692      15.743 -11.988  34.431  1.00 61.50 LIG 0.67  C 
ATOM     40  NH1 ARG D 692      15.703 -11.836  35.753  1.00 46.48 LIG-0.23  N 
ATOM     41  NH2 ARG D 692      16.785 -11.547  33.738  1.00 64.68 LIG-0.23  N 
ATOM     42 1HH1 ARG D 692      15.039 -12.151  36.201  1.00 46.48 LIG 0.17  HD
ATOM     43 2HH1 ARG D 692      16.340 -11.425  36.158  1.00 46.48 LIG 0.17  HD
ATOM     44 1HH2 ARG D 692      16.822 -11.673  32.888  1.00 64.68 LIG 0.17  HD
ATOM     45 2HH2 ARG D 692      17.425 -11.134  34.139  1.00 64.68 LIG 0.17  HD
ENDBRANCH 36 37
ENDBRANCH 35 36
ENDBRANCH 34 35
ENDBRANCH 1 34
BRANCH 1 46
ATOM     46  N   ARG D 692      12.866 -11.233  36.907  1.00 43.06 LIG-0.35  N 
ATOM     47  C   HIS D 691      12.602 -11.277  38.202  1.00 44.11 LIG 0.24  C 
ATOM     48 O    HIS D 691      11.563 -10.858  38.691  1.00 43.39 LIG-0.27  OA
ATOM     49 H    ARG D 692      13.606 -11.503  36.560  1.00 43.06 LIG 0.16  HD
BRANCH 47 50
ATOM     50  CA  HIS D 691      13.659 -11.882  39.044  1.00 41.80 LIG 0.18  C 
BRANCH 50 51
ATOM     51  CB  HIS D 691      14.586 -10.769  39.396  1.00 51.00 LIG 0.10  C 
BRANCH 51 52
ATOM     52  CG  HIS D 691      14.579 -10.401  40.822  1.00 57.86 LIG 0.06  A 
ATOM     53 ND1  HIS D 691      15.685 -10.340  41.543  1.00 60.60 LIG-0.24  NA
ATOM     54  CE1 HIS D 691      15.378  -9.989  42.788  1.00 72.50 LIG 0.23  A 
ATOM     55 NE2  HIS D 691      14.058  -9.846  42.867  1.00 67.35 LIG-0.25  NA
ATOM     56  CD2 HIS D 691      13.535 -10.098  41.674  1.00 66.29 LIG 0.14  A 
ENDBRANCH 51 52
ENDBRANCH 50 51
BRANCH 50 57
ATOM     57  N   HIS D 691      14.387 -12.898  38.317  1.00 39.94 LIG-0.35  N 
ATOM     58 H    HIS D 691      15.228 -12.735  38.242  1.00 39.94 LIG 0.16  HD
ATOM     59  C   LEU D 690      13.808 -13.976  37.815  1.00 35.88 LIG 0.24  C 
ATOM     60 O    LEU D 690      12.589 -14.221  37.945  1.00 34.66 LIG-0.27  OA
BRANCH 59 61
ATOM     61  CA  LEU D 690      14.687 -14.900  37.005  1.00 33.43 LIG 0.18  C 
BRANCH 61 62
ATOM     62  CB  LEU D 690      14.565 -16.328  37.538  1.00 31.34 LIG 0.04  C 
BRANCH 62 63
ATOM     63  CG  LEU D 690      14.464 -16.482  39.052  1.00 30.93 LIG-0.02  C 
ATOM     64  CD1 LEU D 690      13.522 -17.626  39.394  1.00 30.90 LIG 0.01  C 
ATOM     65  CD2 LEU D 690      15.837 -16.763  39.630  1.00 28.62 LIG 0.01  C 
ENDBRANCH 62 63
ENDBRANCH 61 62
BRANCH 61 66
ATOM     66  N   LEU D 690      16.086 -14.471  37.041  1.00 35.22 LIG-0.35  N 
ATOM     67 H    LEU D 690      16.295 -14.000  37.729  1.00 35.22 LIG 0.16  HD
ATOM     68  C   ILE D 689      16.942 -14.795  36.079  1.00 41.04 LIG 0.26  C 
ATOM     69 O    ILE D 689      16.631 -15.523  35.124  1.00 39.56 LIG-0.27  OA
BRANCH 68 70
ATOM     70  CA  ILE D 689      18.377 -14.253  36.247  1.00 40.35 LIG 0.40  C 
ATOM     71  N   ILE D 689      19.362 -15.331  36.654  1.00 40.45 LIG 0.61  N 
BRANCH 70 72
ATOM     72  CB  ILE D 689      18.774 -13.566  34.917  1.00 42.26 LIG 0.03  C 
ATOM     73  CG2 ILE D 689      19.946 -12.592  35.134  1.00 38.55 LIG 0.01  C 
BRANCH 72 74
ATOM     74  CG1 ILE D 689      19.090 -14.593  33.827  1.00 45.91 LIG 0.00  C 
ATOM     75  CD1 ILE D 689      18.143 -14.554  32.627  1.00 45.96 LIG 0.01  C 
ENDBRANCH 72 74
ENDBRANCH 70 72
ENDBRANCH 68 70
ENDBRANCH 61 66
ENDBRANCH 59 61
ENDBRANCH 50 57
ENDBRANCH 47 50
ENDBRANCH 1 46
TORSDOF 30
ENDMDL
MODEL 21
USER: ADFR SOLUTION from run 15
USER: SCORE 21.673541 LL:  -6.887 LR: -15.384 RR:   0.000 FEB:  -6.435
USER: RMSD 6.502666
USER: SEED 51661
USER: STATUS searching
USER: GENES 32
USER: genes 0 Translation |==|  0.52916 0.67476 0.31532
USER: genes 1 Rotation |==|  0.03700 0.62905 0.62747 0.55220
USER: genes 2 Torsion [N]-CA--C-[N] |==|  0.93756
USER: genes 3 Torsion [C]-N--CA-[C] |==|  0.67343
USER: genes 4 Torsion [N]-CA--C-[N] |==|  0.37535
USER: genes 5 Torsion [C]-N--CA-[C] |==|  0.17008
USER: genes 6 Torsion [N]-CA--C-[N] |==|  0.07240
USER: genes 7 Torsion [C]-N--CA-[CB] |==|  0.75441
USER: genes 8 Torsion [N]-CA--CB-[CG] |==|  0.15440
USER: genes 9 Torsion [CA]-CB--CG-[CD] |==|  0.71094
USER: genes 10 Torsion [CB]-CG--CD-[NE2] |==|  0.92401
USER: genes 11 Torsion [N]-CA--C-[O] |==|  0.18680
USER: genes 12 Torsion [N]-CA--CB-[CG] |==|  0.77152
USER: genes 13 Torsion [CA]-CB--CG-[CD2] |==|  0.32682
USER: genes 14 Torsion [N]-CA--CB-[CG] |==|  0.79095
USER: genes 15 Torsion [CA]-CB--CG-[CD1] |==|  0.88520
USER: genes 16 Torsion [C]-CA--CB-[CG] |==|  0.42905
USER: genes 17 Torsion [CA]-CB--CG-[CD] |==|  0.06578
USER: genes 18 Torsion [CB]-CG--CD-[NE] |==|  0.34328
USER: genes 19 Torsion [CG]-CD--NE-[CZ] |==|  0.53933
USER: genes 20 Torsion [C]-CA--N-[C] |==|  0.82139
USER: genes 21 Torsion [N]-C--CA-[N] |==|  0.39458
USER: genes 22 Torsion [C]-CA--CB-[CG] |==|  0.18106
USER: genes 23 Torsion [CA]-CB--CG-[ND1] |==|  0.58426
USER: genes 24 Torsion [C]-CA--N-[C] |==|  0.62505
USER: genes 25 Torsion [N]-C--CA-[N] |==|  0.47708
USER: genes 26 Torsion [C]-CA--CB-[CG] |==|  0.34062
USER: genes 27 Torsion [CA]-CB--CG-[CD2] |==|  0.19426
USER: genes 28 Torsion [C]-CA--N-[C] |==|  0.61831
USER: genes 29 Torsion [N]-C--CA-[N] |==|  0.92056
USER: genes 30 Torsion [C]-CA--CB-[CG1] |==|  0.28358
USER: genes 31 Torsion [CA]-CB--CG1-[CD1] |==|  0.64786
ROOT
ATOM      1  CA  ARG D 692      10.259 -11.725  35.318  1.00 48.73 LIG 0.18  C 
ENDROOT
BRANCH 1 2
ATOM      2  C   ARG D 692       8.786 -11.905  35.646  1.00 46.10 LIG 0.24  C 
ATOM      3  N   LEU D 693       8.406 -13.064  36.178  1.00 50.64 LIG-0.35  N 
ATOM      4 H    LEU D 693       8.930 -13.717  36.369  1.00 50.64 LIG 0.16  HD
ATOM      5 O    ARG D 692       7.972 -11.035  35.341  1.00 52.04 LIG-0.27  OA
BRANCH 3 6
ATOM      6  CA  LEU D 693       6.987 -13.282  36.476  1.00 43.34 LIG 0.18  C 
BRANCH 6 7
ATOM      7  C   LEU D 693       6.739 -13.495  37.963  1.00 37.95 LIG 0.24  C 
ATOM      8  N   LEU D 694       5.720 -12.842  38.485  1.00 39.22 LIG-0.35  N 
ATOM      9 H    LEU D 694       5.237 -12.285  38.043  1.00 39.22 LIG 0.16  HD
ATOM     10 O    LEU D 693       7.489 -14.222  38.625  1.00 43.86 LIG-0.27  OA
BRANCH 8 11
ATOM     11  CA  LEU D 694       5.319 -13.007  39.857  1.00 38.59 LIG 0.18  C 
BRANCH 11 12
ATOM     12  C   LEU D 694       6.449 -12.588  40.741  1.00 46.22 LIG 0.24  C 
ATOM     13  N   GLN D 695       7.276 -11.708  40.208  1.00 66.87 LIG-0.35  N 
ATOM     14 H    GLN D 695       7.205 -11.474  39.384  1.00 66.87 LIG 0.16  HD
ATOM     15 O    LEU D 694       6.580 -13.095  41.824  1.00 54.70 LIG-0.27  OA
BRANCH 13 16
ATOM     16  CA  GLN D 695       8.388 -11.019  40.876  1.00 62.86 LIG 0.16  C 
BRANCH 16 17
ATOM     17  CB  GLN D 695       7.918  -9.746  41.525  1.00 63.26 LIG 0.04  C 
BRANCH 17 18
ATOM     18  CG  GLN D 695       6.783 -10.003  42.480  1.00 77.24 LIG 0.10  C 
BRANCH 18 19
ATOM     19  CD  GLN D 695       5.476  -9.598  41.932  1.00 84.08 LIG 0.21  C 
ATOM     20 OE1  GLN D 695       4.455 -10.136  42.315  1.00 83.40 LIG-0.27  OA
ATOM     21  NE2 GLN D 695       5.481  -8.627  41.039  1.00 79.17 LIG-0.37  N 
ATOM     22 22HE GLN D 695       4.741  -8.349  40.701  1.00 79.17 LIG 0.16  HD
ATOM     23 21HE GLN D 695       6.225  -8.272  40.794  1.00 79.17 LIG 0.16  HD
ENDBRANCH 18 19
ENDBRANCH 17 18
ENDBRANCH 16 17
BRANCH 16 24
ATOM     24  C   GLN D 695       9.232 -11.854  41.838  1.00 61.14 LIG 0.22  C 
ATOM     25 O    GLN D 695       9.943 -12.774  41.423  1.00 66.66 LIG-0.29  OA
ENDBRANCH 16 24
ENDBRANCH 13 16
ENDBRANCH 11 12
BRANCH 11 26
ATOM     26  CB  LEU D 694       5.002 -14.453  40.171  1.00 34.51 LIG 0.04  C 
BRANCH 26 27
ATOM     27  CG  LEU D 694       3.650 -15.027  39.828  1.00 27.71 LIG-0.02  C 
ATOM     28  CD2 LEU D 694       3.719 -16.147  38.834  1.00 26.48 LIG 0.01  C 
ATOM     29  CD1 LEU D 694       2.646 -13.984  39.429  1.00 27.00 LIG 0.01  C 
ENDBRANCH 26 27
ENDBRANCH 11 26
ENDBRANCH 8 11
ENDBRANCH 6 7
BRANCH 6 30
ATOM     30  CB  LEU D 693       6.392 -14.438  35.654  1.00 45.67 LIG 0.04  C 
BRANCH 30 31
ATOM     31  CG  LEU D 693       6.108 -14.134  34.174  1.00 55.29 LIG-0.02  C 
ATOM     32  CD1 LEU D 693       5.506 -12.745  34.011  1.00 47.80 LIG 0.01  C 
ATOM     33  CD2 LEU D 693       7.353 -14.316  33.294  1.00 51.02 LIG 0.01  C 
ENDBRANCH 30 31
ENDBRANCH 6 30
ENDBRANCH 3 6
ENDBRANCH 1 2
BRANCH 1 34
ATOM     34  CB  ARG D 692      10.437 -11.837  33.789  1.00 49.09 LIG 0.04  C 
BRANCH 34 35
ATOM     35  CG  ARG D 692      11.689 -11.074  33.312  1.00 50.62 LIG 0.02  C 
BRANCH 35 36
ATOM     36  CD  ARG D 692      12.756 -10.876  34.380  1.00 57.04 LIG 0.14  C 
BRANCH 36 37
ATOM     37  NE  ARG D 692      14.013 -11.431  33.918  1.00 60.90 LIG-0.23  N 
ATOM     38 HE   ARG D 692      14.081 -11.622  33.082  1.00 60.90 LIG 0.18  HD
ATOM     39  CZ  ARG D 692      15.065 -11.666  34.688  1.00 61.50 LIG 0.67  C 
ATOM     40  NH1 ARG D 692      14.991 -11.478  36.005  1.00 46.48 LIG-0.23  N 
ATOM     41  NH2 ARG D 692      16.177 -12.137  34.140  1.00 64.68 LIG-0.23  N 
ATOM     42 1HH1 ARG D 692      14.258 -11.202  36.359  1.00 46.48 LIG 0.17  HD
ATOM     43 2HH1 ARG D 692      15.677 -11.633  36.500  1.00 46.48 LIG 0.17  HD
ATOM     44 1HH2 ARG D 692      16.211 -12.286  33.294  1.00 64.68 LIG 0.17  HD
ATOM     45 2HH2 ARG D 692      16.866 -12.293  34.631  1.00 64.68 LIG 0.17  HD
ENDBRANCH 36 37
ENDBRANCH 35 36
ENDBRANCH 34 35
ENDBRANCH 1 34
BRANCH 1 46
ATOM     46  N   ARG D 692      11.195 -12.600  36.063  1.00 43.06 LIG-0.35  N 
ATOM     47  C   HIS D 691      11.337 -12.514  37.375  1.00 44.11 LIG 0.24  C 
ATOM     48 O    HIS D 691      10.745 -11.695  38.063  1.00 43.39 LIG-0.27  OA
ATOM     49 H    ARG D 692      11.627 -13.157  35.570  1.00 43.06 LIG 0.16  HD
BRANCH 47 50
ATOM     50  CA  HIS D 691      12.271 -13.492  37.977  1.00 41.80 LIG 0.18  C 
BRANCH 50 51
ATOM     51  CB  HIS D 691      11.418 -14.582  38.531  1.00 51.00 LIG 0.10  C 
BRANCH 51 52
ATOM     52  CG  HIS D 691      10.675 -15.347  37.515  1.00 57.86 LIG 0.06  A 
ATOM     53 ND1  HIS D 691       9.501 -15.901  37.764  1.00 60.60 LIG-0.24  NA
ATOM     54  CE1 HIS D 691       9.072 -16.527  36.673  1.00 72.50 LIG 0.23  A 
ATOM     55 NE2  HIS D 691       9.992 -16.388  35.723  1.00 67.35 LIG-0.25  NA
ATOM     56  CD2 HIS D 691      10.995 -15.671  36.211  1.00 66.29 LIG 0.14  A 
ENDBRANCH 51 52
ENDBRANCH 50 51
BRANCH 50 57
ATOM     57  N   HIS D 691      13.034 -12.893  39.049  1.00 39.94 LIG-0.35  N 
ATOM     58 H    HIS D 691      12.562 -12.416  39.587  1.00 39.94 LIG 0.16  HD
ATOM     59  C   LEU D 690      14.339 -13.065  39.184  1.00 35.88 LIG 0.24  C 
ATOM     60 O    LEU D 690      15.019 -13.775  38.413  1.00 34.66 LIG-0.27  OA
BRANCH 59 61
ATOM     61  CA  LEU D 690      15.008 -12.300  40.302  1.00 33.43 LIG 0.18  C 
BRANCH 61 62
ATOM     62  CB  LEU D 690      14.946 -10.800  40.013  1.00 31.34 LIG 0.04  C 
BRANCH 62 63
ATOM     63  CG  LEU D 690      14.271  -9.931  41.068  1.00 30.93 LIG-0.02  C 
ATOM     64  CD1 LEU D 690      12.911 -10.509  41.424  1.00 30.90 LIG 0.01  C 
ATOM     65  CD2 LEU D 690      15.140  -9.869  42.310  1.00 28.62 LIG 0.01  C 
ENDBRANCH 62 63
ENDBRANCH 61 62
BRANCH 61 66
ATOM     66  N   LEU D 690      16.401 -12.718  40.473  1.00 35.22 LIG-0.35  N 
ATOM     67 H    LEU D 690      16.833 -12.824  39.737  1.00 35.22 LIG 0.16  HD
ATOM     68  C   ILE D 689      16.932 -12.909  41.675  1.00 41.04 LIG 0.26  C 
ATOM     69 O    ILE D 689      16.306 -12.695  42.724  1.00 39.56 LIG-0.27  OA
BRANCH 68 70
ATOM     70  CA  ILE D 689      18.406 -13.367  41.693  1.00 40.35 LIG 0.40  C 
ATOM     71  N   ILE D 689      18.784 -14.159  40.457  1.00 40.45 LIG 0.61  N 
BRANCH 70 72
ATOM     72  CB  ILE D 689      19.284 -12.104  41.871  1.00 42.26 LIG 0.03  C 
ATOM     73  CG2 ILE D 689      18.529 -10.844  41.411  1.00 38.55 LIG 0.01  C 
BRANCH 72 74
ATOM     74  CG1 ILE D 689      19.784 -11.966  43.312  1.00 45.91 LIG 0.00  C 
ATOM     75  CD1 ILE D 689      19.485 -10.614  43.959  1.00 45.96 LIG 0.01  C 
ENDBRANCH 72 74
ENDBRANCH 70 72
ENDBRANCH 68 70
ENDBRANCH 61 66
ENDBRANCH 59 61
ENDBRANCH 50 57
ENDBRANCH 47 50
ENDBRANCH 1 46
TORSDOF 30
ENDMDL
MODEL 22
USER: ADFR SOLUTION from run 175
USER: SCORE 19.455860 LL:  -5.128 LR: -15.339 RR:   0.000 FEB:  -6.390
USER: RMSD 7.918744
USER: SEED 174
USER: STATUS no improvement in best in 31 clusters for 5 generations
USER: GENES 32
USER: genes 0 Translation |==|  0.69536 0.72415 0.35733
USER: genes 1 Rotation |==|  0.04933 0.71071 0.45065 0.50775
USER: genes 2 Torsion [N]-CA--C-[N] |==|  0.08810
USER: genes 3 Torsion [C]-N--CA-[C] |==|  0.16818
USER: genes 4 Torsion [N]-CA--C-[N] |==|  0.08333
USER: genes 5 Torsion [C]-N--CA-[C] |==|  0.83022
USER: genes 6 Torsion [N]-CA--C-[N] |==|  0.34673
USER: genes 7 Torsion [C]-N--CA-[CB] |==|  0.82243
USER: genes 8 Torsion [N]-CA--CB-[CG] |==|  0.23563
USER: genes 9 Torsion [CA]-CB--CG-[CD] |==|  0.51667
USER: genes 10 Torsion [CB]-CG--CD-[NE2] |==|  0.36367
USER: genes 11 Torsion [N]-CA--C-[O] |==|  0.13458
USER: genes 12 Torsion [N]-CA--CB-[CG] |==|  0.44548
USER: genes 13 Torsion [CA]-CB--CG-[CD2] |==|  0.71118
USER: genes 14 Torsion [N]-CA--CB-[CG] |==|  0.70908
USER: genes 15 Torsion [CA]-CB--CG-[CD1] |==|  0.23455
USER: genes 16 Torsion [C]-CA--CB-[CG] |==|  0.30338
USER: genes 17 Torsion [CA]-CB--CG-[CD] |==|  0.39207
USER: genes 18 Torsion [CB]-CG--CD-[NE] |==|  0.25456
USER: genes 19 Torsion [CG]-CD--NE-[CZ] |==|  0.32904
USER: genes 20 Torsion [C]-CA--N-[C] |==|  0.63712
USER: genes 21 Torsion [N]-C--CA-[N] |==|  0.28119
USER: genes 22 Torsion [C]-CA--CB-[CG] |==|  0.31178
USER: genes 23 Torsion [CA]-CB--CG-[ND1] |==|  0.05336
USER: genes 24 Torsion [C]-CA--N-[C] |==|  0.67026
USER: genes 25 Torsion [N]-C--CA-[N] |==|  0.05847
USER: genes 26 Torsion [C]-CA--CB-[CG] |==|  0.39534
USER: genes 27 Torsion [CA]-CB--CG-[CD2] |==|  0.93935
USER: genes 28 Torsion [C]-CA--N-[C] |==|  0.18725
USER: genes 29 Torsion [N]-C--CA-[N] |==|  0.96943
USER: genes 30 Torsion [C]-CA--CB-[CG1] |==|  0.22056
USER: genes 31 Torsion [CA]-CB--CG1-[CD1] |==|  0.24867
ROOT
ATOM      1  CA  ARG D 692      13.999 -10.799  36.137  1.00 48.73 LIG 0.18  C 
ENDROOT
BRANCH 1 2
ATOM      2  C   ARG D 692      12.621 -10.502  35.567  1.00 46.10 LIG 0.24  C 
ATOM      3  N   LEU D 693      11.664 -10.138  36.416  1.00 50.64 LIG-0.35  N 
ATOM      4 H    LEU D 693      11.765 -10.038  37.264  1.00 50.64 LIG 0.16  HD
ATOM      5 O    ARG D 692      12.391 -10.686  34.373  1.00 52.04 LIG-0.27  OA
BRANCH 3 6
ATOM      6  CA  LEU D 693      10.315  -9.876  35.904  1.00 43.34 LIG 0.18  C 
BRANCH 6 7
ATOM      7  C   LEU D 693       9.708 -11.102  35.234  1.00 37.95 LIG 0.24  C 
ATOM      8  N   LEU D 694      10.095 -12.272  35.698  1.00 39.22 LIG-0.35  N 
ATOM      9 H    LEU D 694      10.692 -12.368  36.309  1.00 39.22 LIG 0.16  HD
ATOM     10 O    LEU D 693       8.920 -10.972  34.291  1.00 43.86 LIG-0.27  OA
BRANCH 8 11
ATOM     11  CA  LEU D 694       9.547 -13.513  35.216  1.00 38.59 LIG 0.18  C 
BRANCH 11 12
ATOM     12  C   LEU D 694       8.079 -13.529  35.494  1.00 46.22 LIG 0.24  C 
ATOM     13  N   GLN D 695       7.315 -13.740  34.438  1.00 66.87 LIG-0.35  N 
ATOM     14 H    GLN D 695       7.649 -13.774  33.647  1.00 66.87 LIG 0.16  HD
ATOM     15 O    LEU D 694       7.678 -13.300  36.605  1.00 54.70 LIG-0.27  OA
BRANCH 13 16
ATOM     16  CA  GLN D 695       5.860 -13.940  34.423  1.00 62.86 LIG 0.16  C 
BRANCH 16 17
ATOM     17  CB  GLN D 695       5.485 -15.198  35.158  1.00 63.26 LIG 0.04  C 
BRANCH 17 18
ATOM     18  CG  GLN D 695       5.358 -14.954  36.638  1.00 77.24 LIG 0.10  C 
BRANCH 18 19
ATOM     19  CD  GLN D 695       5.130 -16.194  37.402  1.00 84.08 LIG 0.21  C 
ATOM     20 OE1  GLN D 695       4.283 -16.989  37.044  1.00 83.40 LIG-0.27  OA
ATOM     21  NE2 GLN D 695       5.897 -16.391  38.457  1.00 79.17 LIG-0.37  N 
ATOM     22 22HE GLN D 695       5.809 -17.107  38.925  1.00 79.17 LIG 0.16  HD
ATOM     23 21HE GLN D 695       6.485 -15.803  38.677  1.00 79.17 LIG 0.16  HD
ENDBRANCH 18 19
ENDBRANCH 17 18
ENDBRANCH 16 17
BRANCH 16 24
ATOM     24  C   GLN D 695       5.001 -12.759  34.870  1.00 61.14 LIG 0.22  C 
ATOM     25 O    GLN D 695       5.197 -11.627  34.419  1.00 66.66 LIG-0.29  OA
ENDBRANCH 16 24
ENDBRANCH 13 16
ENDBRANCH 11 12
BRANCH 11 26
ATOM     26  CB  LEU D 694      10.161 -14.701  35.924  1.00 34.51 LIG 0.04  C 
BRANCH 26 27
ATOM     27  CG  LEU D 694       9.458 -16.036  35.917  1.00 27.71 LIG-0.02  C 
ATOM     28  CD2 LEU D 694       8.784 -16.355  37.218  1.00 26.48 LIG 0.01  C 
ATOM     29  CD1 LEU D 694      10.329 -17.165  35.445  1.00 27.00 LIG 0.01  C 
ENDBRANCH 26 27
ENDBRANCH 11 26
ENDBRANCH 8 11
ENDBRANCH 6 7
BRANCH 6 30
ATOM     30  CB  LEU D 693      10.278  -8.663  34.958  1.00 45.67 LIG 0.04  C 
BRANCH 30 31
ATOM     31  CG  LEU D 693       9.677  -7.374  35.540  1.00 55.29 LIG-0.02  C 
ATOM     32  CD1 LEU D 693      10.724  -6.590  36.320  1.00 47.80 LIG 0.01  C 
ATOM     33  CD2 LEU D 693       9.008  -6.507  34.465  1.00 51.02 LIG 0.01  C 
ENDBRANCH 30 31
ENDBRANCH 6 30
ENDBRANCH 3 6
ENDBRANCH 1 2
BRANCH 1 34
ATOM     34  CB  ARG D 692      14.769 -11.675  35.126  1.00 49.09 LIG 0.04  C 
BRANCH 34 35
ATOM     35  CG  ARG D 692      15.909 -10.885  34.453  1.00 50.62 LIG 0.02  C 
BRANCH 35 36
ATOM     36  CD  ARG D 692      17.187 -11.681  34.232  1.00 57.04 LIG 0.14  C 
BRANCH 36 37
ATOM     37  NE  ARG D 692      17.156 -12.292  32.917  1.00 60.90 LIG-0.23  N 
ATOM     38 HE   ARG D 692      16.527 -12.857  32.756  1.00 60.90 LIG 0.18  HD
ATOM     39  CZ  ARG D 692      18.024 -12.046  31.947  1.00 61.50 LIG 0.67  C 
ATOM     40  NH1 ARG D 692      19.070 -11.252  32.166  1.00 46.48 LIG-0.23  N 
ATOM     41  NH2 ARG D 692      17.864 -12.636  30.770  1.00 64.68 LIG-0.23  N 
ATOM     42 1HH1 ARG D 692      19.186 -10.896  32.940  1.00 46.48 LIG 0.17  HD
ATOM     43 2HH1 ARG D 692      19.631 -11.096  31.532  1.00 46.48 LIG 0.17  HD
ATOM     44 1HH2 ARG D 692      17.204 -13.171  30.643  1.00 64.68 LIG 0.17  HD
ATOM     45 2HH2 ARG D 692      18.422 -12.483  30.133  1.00 64.68 LIG 0.17  HD
ENDBRANCH 36 37
ENDBRANCH 35 36
ENDBRANCH 34 35
ENDBRANCH 1 34
BRANCH 1 46
ATOM     46  N   ARG D 692      14.019 -11.363  37.507  1.00 43.06 LIG-0.35  N 
ATOM     47  C   HIS D 691      14.795 -10.867  38.456  1.00 44.11 LIG 0.24  C 
ATOM     48 O    HIS D 691      15.572  -9.942  38.272  1.00 43.39 LIG-0.27  OA
ATOM     49 H    ARG D 692      13.488 -12.031  37.623  1.00 43.06 LIG 0.16  HD
BRANCH 47 50
ATOM     50  CA  HIS D 691      14.661 -11.507  39.784  1.00 41.80 LIG 0.18  C 
BRANCH 50 51
ATOM     51  CB  HIS D 691      14.731 -10.400  40.779  1.00 51.00 LIG 0.10  C 
BRANCH 51 52
ATOM     52  CG  HIS D 691      13.472 -10.151  41.501  1.00 57.86 LIG 0.06  A 
ATOM     53 ND1  HIS D 691      12.506 -11.050  41.570  1.00 60.60 LIG-0.24  NA
ATOM     54  CE1 HIS D 691      11.495 -10.553  42.276  1.00 72.50 LIG 0.23  A 
ATOM     55 NE2  HIS D 691      11.812  -9.315  42.644  1.00 67.35 LIG-0.25  NA
ATOM     56  CD2 HIS D 691      13.022  -9.035  42.179  1.00 66.29 LIG 0.14  A 
ENDBRANCH 51 52
ENDBRANCH 50 51
BRANCH 50 57
ATOM     57  N   HIS D 691      15.743 -12.435  40.027  1.00 39.94 LIG-0.35  N 
ATOM     58 H    HIS D 691      16.521 -12.069  40.028  1.00 39.94 LIG 0.16  HD
ATOM     59  C   LEU D 690      15.548 -13.728  40.227  1.00 35.88 LIG 0.24  C 
ATOM     60 O    LEU D 690      14.414 -14.254  40.246  1.00 34.66 LIG-0.27  OA
BRANCH 59 61
ATOM     61  CA  LEU D 690      16.785 -14.583  40.378  1.00 33.43 LIG 0.18  C 
BRANCH 61 62
ATOM     62  CB  LEU D 690      16.537 -15.671  41.423  1.00 31.34 LIG 0.04  C 
BRANCH 62 63
ATOM     63  CG  LEU D 690      17.150 -17.038  41.140  1.00 30.93 LIG-0.02  C 
ATOM     64  CD1 LEU D 690      16.201 -18.136  41.594  1.00 30.90 LIG 0.01  C 
ATOM     65  CD2 LEU D 690      17.419 -17.180  39.654  1.00 28.62 LIG 0.01  C 
ENDBRANCH 62 63
ENDBRANCH 61 62
BRANCH 61 66
ATOM     66  N   LEU D 690      17.945 -13.776  40.762  1.00 35.22 LIG-0.35  N 
ATOM     67 H    LEU D 690      18.555 -13.722  40.159  1.00 35.22 LIG 0.16  HD
ATOM     68  C   ILE D 689      18.025 -13.187  41.949  1.00 41.04 LIG 0.26  C 
ATOM     69 O    ILE D 689      17.107 -13.234  42.782  1.00 39.56 LIG-0.27  OA
BRANCH 68 70
ATOM     70  CA  ILE D 689      19.317 -12.388  42.217  1.00 40.35 LIG 0.40  C 
ATOM     71  N   ILE D 689      20.384 -12.639  41.169  1.00 40.45 LIG 0.61  N 
BRANCH 70 72
ATOM     72  CB  ILE D 689      18.929 -10.892  42.311  1.00 42.26 LIG 0.03  C 
ATOM     73  CG2 ILE D 689      17.973 -10.502  41.169  1.00 38.55 LIG 0.01  C 
BRANCH 72 74
ATOM     74  CG1 ILE D 689      18.338 -10.550  43.682  1.00 45.91 LIG 0.00  C 
ATOM     75  CD1 ILE D 689      19.368 -10.119  44.725  1.00 45.96 LIG 0.01  C 
ENDBRANCH 72 74
ENDBRANCH 70 72
ENDBRANCH 68 70
ENDBRANCH 61 66
ENDBRANCH 59 61
ENDBRANCH 50 57
ENDBRANCH 47 50
ENDBRANCH 1 46
TORSDOF 30
ENDMDL
MODEL 23
USER: ADFR SOLUTION from run 131
USER: SCORE 20.779268 LL:  -6.275 LR: -15.330 RR:   0.000 FEB:  -6.381
USER: RMSD 6.105163
USER: SEED 130
USER: STATUS no improvement in best in 41 clusters for 5 generations
USER: GENES 32
USER: genes 0 Translation |==|  0.53660 0.63500 0.30747
USER: genes 1 Rotation |==|  0.06430 0.62413 0.64767 0.65149
USER: genes 2 Torsion [N]-CA--C-[N] |==|  0.94337
USER: genes 3 Torsion [C]-N--CA-[C] |==|  0.63575
USER: genes 4 Torsion [N]-CA--C-[N] |==|  0.44497
USER: genes 5 Torsion [C]-N--CA-[C] |==|  0.71800
USER: genes 6 Torsion [N]-CA--C-[N] |==|  0.16835
USER: genes 7 Torsion [C]-N--CA-[CB] |==|  0.28817
USER: genes 8 Torsion [N]-CA--CB-[CG] |==|  0.56681
USER: genes 9 Torsion [CA]-CB--CG-[CD] |==|  0.36251
USER: genes 10 Torsion [CB]-CG--CD-[NE2] |==|  0.37328
USER: genes 11 Torsion [N]-CA--C-[O] |==|  0.19786
USER: genes 12 Torsion [N]-CA--CB-[CG] |==|  0.97790
USER: genes 13 Torsion [CA]-CB--CG-[CD2] |==|  0.75029
USER: genes 14 Torsion [N]-CA--CB-[CG] |==|  0.71817
USER: genes 15 Torsion [CA]-CB--CG-[CD1] |==|  0.86598
USER: genes 16 Torsion [C]-CA--CB-[CG] |==|  0.40687
USER: genes 17 Torsion [CA]-CB--CG-[CD] |==|  0.06671
USER: genes 18 Torsion [CB]-CG--CD-[NE] |==|  0.34072
USER: genes 19 Torsion [CG]-CD--NE-[CZ] |==|  0.50897
USER: genes 20 Torsion [C]-CA--N-[C] |==|  0.83713
USER: genes 21 Torsion [N]-C--CA-[N] |==|  0.35655
USER: genes 22 Torsion [C]-CA--CB-[CG] |==|  0.35167
USER: genes 23 Torsion [CA]-CB--CG-[ND1] |==|  0.36705
USER: genes 24 Torsion [C]-CA--N-[C] |==|  0.75913
USER: genes 25 Torsion [N]-C--CA-[N] |==|  0.43798
USER: genes 26 Torsion [C]-CA--CB-[CG] |==|  0.90884
USER: genes 27 Torsion [CA]-CB--CG-[CD2] |==|  0.64945
USER: genes 28 Torsion [C]-CA--N-[C] |==|  0.73660
USER: genes 29 Torsion [N]-C--CA-[N] |==|  0.46819
USER: genes 30 Torsion [C]-CA--CB-[CG1] |==|  0.86646
USER: genes 31 Torsion [CA]-CB--CG1-[CD1] |==|  0.36124
ROOT
ATOM      1  CA  ARG D 692      10.426 -12.471  35.165  1.00 48.73 LIG 0.18  C 
ENDROOT
BRANCH 1 2
ATOM      2  C   ARG D 692       8.936 -12.616  35.423  1.00 46.10 LIG 0.24  C 
ATOM      3  N   LEU D 693       8.437 -13.847  35.501  1.00 50.64 LIG-0.35  N 
ATOM      4 H    LEU D 693       8.894 -14.572  35.435  1.00 50.64 LIG 0.16  HD
ATOM      5 O    ARG D 692       8.213 -11.622  35.465  1.00 52.04 LIG-0.27  OA
BRANCH 3 6
ATOM      6  CA  LEU D 693       6.997 -14.023  35.717  1.00 43.34 LIG 0.18  C 
BRANCH 6 7
ATOM      7  C   LEU D 693       6.701 -15.010  36.838  1.00 37.95 LIG 0.24  C 
ATOM      8  N   LEU D 694       5.500 -14.939  37.376  1.00 39.22 LIG-0.35  N 
ATOM      9 H    LEU D 694       4.916 -14.346  37.159  1.00 39.22 LIG 0.16  HD
ATOM     10 O    LEU D 693       7.570 -15.802  37.220  1.00 43.86 LIG-0.27  OA
BRANCH 8 11
ATOM     11  CA  LEU D 694       5.053 -15.858  38.390  1.00 38.59 LIG 0.18  C 
BRANCH 11 12
ATOM     12  C   LEU D 694       4.164 -16.877  37.755  1.00 46.22 LIG 0.24  C 
ATOM     13  N   GLN D 695       4.734 -17.604  36.811  1.00 66.87 LIG-0.35  N 
ATOM     14 H    GLN D 695       5.530 -17.429  36.536  1.00 66.87 LIG 0.16  HD
ATOM     15 O    LEU D 694       3.007 -16.944  38.077  1.00 54.70 LIG-0.27  OA
BRANCH 13 16
ATOM     16  CA  GLN D 695       4.156 -18.759  36.111  1.00 62.86 LIG 0.16  C 
BRANCH 16 17
ATOM     17  CB  GLN D 695       3.713 -18.377  34.725  1.00 63.26 LIG 0.04  C 
BRANCH 17 18
ATOM     18  CG  GLN D 695       2.639 -19.302  34.217  1.00 77.24 LIG 0.10  C 
BRANCH 18 19
ATOM     19  CD  GLN D 695       1.477 -18.578  33.670  1.00 84.08 LIG 0.21  C 
ATOM     20 OE1  GLN D 695       1.010 -17.627  34.266  1.00 83.40 LIG-0.27  OA
ATOM     21  NE2 GLN D 695       1.003 -19.003  32.515  1.00 79.17 LIG-0.37  N 
ATOM     22 22HE GLN D 695       0.335 -18.602  32.151  1.00 79.17 LIG 0.16  HD
ATOM     23 21HE GLN D 695       1.363 -19.680  32.125  1.00 79.17 LIG 0.16  HD
ENDBRANCH 18 19
ENDBRANCH 17 18
ENDBRANCH 16 17
BRANCH 16 24
ATOM     24  C   GLN D 695       4.990 -20.038  36.096  1.00 61.14 LIG 0.22  C 
ATOM     25 O    GLN D 695       5.141 -20.709  37.121  1.00 66.66 LIG-0.29  OA
ENDBRANCH 16 24
ENDBRANCH 13 16
ENDBRANCH 11 12
BRANCH 11 26
ATOM     26  CB  LEU D 694       4.251 -15.152  39.462  1.00 34.51 LIG 0.04  C 
BRANCH 26 27
ATOM     27  CG  LEU D 694       4.161 -13.646  39.476  1.00 27.71 LIG-0.02  C 
ATOM     28  CD2 LEU D 694       5.248 -12.997  40.279  1.00 26.48 LIG 0.01  C 
ATOM     29  CD1 LEU D 694       2.801 -13.135  39.855  1.00 27.00 LIG 0.01  C 
ENDBRANCH 26 27
ENDBRANCH 11 26
ENDBRANCH 8 11
ENDBRANCH 6 7
BRANCH 6 30
ATOM     30  CB  LEU D 693       6.262 -14.426  34.427  1.00 45.67 LIG 0.04  C 
BRANCH 30 31
ATOM     31  CG  LEU D 693       5.499 -13.301  33.708  1.00 55.29 LIG-0.02  C 
ATOM     32  CD1 LEU D 693       4.637 -12.517  34.688  1.00 47.80 LIG 0.01  C 
ATOM     33  CD2 LEU D 693       6.436 -12.377  32.917  1.00 51.02 LIG 0.01  C 
ENDBRANCH 30 31
ENDBRANCH 6 30
ENDBRANCH 3 6
ENDBRANCH 1 2
BRANCH 1 34
ATOM     34  CB  ARG D 692      10.627 -11.985  33.714  1.00 49.09 LIG 0.04  C 
BRANCH 34 35
ATOM     35  CG  ARG D 692      11.855 -11.061  33.596  1.00 50.62 LIG 0.02  C 
BRANCH 35 36
ATOM     36  CD  ARG D 692      12.904 -11.259  34.681  1.00 57.04 LIG 0.14  C 
BRANCH 36 37
ATOM     37  NE  ARG D 692      14.180 -11.577  34.069  1.00 60.90 LIG-0.23  N 
ATOM     38 HE   ARG D 692      14.221 -11.578  33.210  1.00 60.90 LIG 0.18  HD
ATOM     39  CZ  ARG D 692      15.287 -11.868  34.736  1.00 61.50 LIG 0.67  C 
ATOM     40  NH1 ARG D 692      15.266 -11.973  36.063  1.00 46.48 LIG-0.23  N 
ATOM     41  NH2 ARG D 692      16.407 -12.100  34.063  1.00 64.68 LIG-0.23  N 
ATOM     42 1HH1 ARG D 692      14.531 -11.852  36.492  1.00 46.48 LIG 0.17  HD
ATOM     43 2HH1 ARG D 692      15.988 -12.163  36.490  1.00 46.48 LIG 0.17  HD
ATOM     44 1HH2 ARG D 692      16.409 -12.060  33.204  1.00 64.68 LIG 0.17  HD
ATOM     45 2HH2 ARG D 692      17.131 -12.289  34.486  1.00 64.68 LIG 0.17  HD
ENDBRANCH 36 37
ENDBRANCH 35 36
ENDBRANCH 34 35
ENDBRANCH 1 34
BRANCH 1 46
ATOM     46  N   ARG D 692      11.253 -13.659  35.485  1.00 43.06 LIG-0.35  N 
ATOM     47  C   HIS D 691      11.286 -14.180  36.699  1.00 44.11 LIG 0.24  C 
ATOM     48 O    HIS D 691      10.677 -13.710  37.649  1.00 43.39 LIG-0.27  OA
ATOM     49 H    ARG D 692      11.699 -13.970  34.818  1.00 43.06 LIG 0.16  HD
BRANCH 47 50
ATOM     50  CA  HIS D 691      12.118 -15.396  36.845  1.00 41.80 LIG 0.18  C 
BRANCH 50 51
ATOM     51  CB  HIS D 691      11.168 -16.506  37.138  1.00 51.00 LIG 0.10  C 
BRANCH 51 52
ATOM     52  CG  HIS D 691      11.294 -17.666  36.240  1.00 57.86 LIG 0.06  A 
ATOM     53 ND1  HIS D 691      11.355 -18.908  36.690  1.00 60.60 LIG-0.24  NA
ATOM     54  CE1 HIS D 691      11.470 -19.742  35.661  1.00 72.50 LIG 0.23  A 
ATOM     55 NE2  HIS D 691      11.503 -19.022  34.543  1.00 67.35 LIG-0.25  NA
ATOM     56  CD2 HIS D 691      11.402 -17.740  34.865  1.00 66.29 LIG 0.14  A 
ENDBRANCH 51 52
ENDBRANCH 50 51
BRANCH 50 57
ATOM     57  N   HIS D 691      13.049 -15.262  37.943  1.00 39.94 LIG-0.35  N 
ATOM     58 H    HIS D 691      12.756 -15.577  38.687  1.00 39.94 LIG 0.16  HD
ATOM     59  C   LEU D 690      14.242 -14.705  37.809  1.00 35.88 LIG 0.24  C 
ATOM     60 O    LEU D 690      14.674 -14.268  36.721  1.00 34.66 LIG-0.27  OA
BRANCH 59 61
ATOM     61  CA  LEU D 690      15.064 -14.558  39.068  1.00 33.43 LIG 0.18  C 
BRANCH 61 62
ATOM     62  CB  LEU D 690      14.596 -13.330  39.850  1.00 31.34 LIG 0.04  C 
BRANCH 62 63
ATOM     63  CG  LEU D 690      14.086 -12.153  39.026  1.00 30.93 LIG-0.02  C 
ATOM     64  CD1 LEU D 690      12.597 -11.957  39.266  1.00 30.90 LIG 0.01  C 
ATOM     65  CD2 LEU D 690      14.835 -10.893  39.417  1.00 28.62 LIG 0.01  C 
ENDBRANCH 62 63
ENDBRANCH 61 62
BRANCH 61 66
ATOM     66  N   LEU D 690      16.491 -14.441  38.762  1.00 35.22 LIG-0.35  N 
ATOM     67 H    LEU D 690      16.750 -13.641  38.581  1.00 35.22 LIG 0.16  HD
ATOM     68  C   ILE D 689      17.297 -15.495  38.770  1.00 41.04 LIG 0.26  C 
ATOM     69 O    ILE D 689      16.911 -16.630  39.089  1.00 39.56 LIG-0.27  OA
BRANCH 68 70
ATOM     70  CA  ILE D 689      18.771 -15.217  38.407  1.00 40.35 LIG 0.40  C 
ATOM     71  N   ILE D 689      19.676 -16.396  38.703  1.00 40.45 LIG 0.61  N 
BRANCH 70 72
ATOM     72  CB  ILE D 689      18.813 -14.805  36.915  1.00 42.26 LIG 0.03  C 
ATOM     73  CG2 ILE D 689      20.267 -14.676  36.425  1.00 38.55 LIG 0.01  C 
BRANCH 72 74
ATOM     74  CG1 ILE D 689      18.008 -15.771  36.041  1.00 45.91 LIG 0.00  C 
ATOM     75  CD1 ILE D 689      17.018 -15.093  35.095  1.00 45.96 LIG 0.01  C 
ENDBRANCH 72 74
ENDBRANCH 70 72
ENDBRANCH 68 70
ENDBRANCH 61 66
ENDBRANCH 59 61
ENDBRANCH 50 57
ENDBRANCH 47 50
ENDBRANCH 1 46
TORSDOF 30
ENDMDL
MODEL 24
USER: ADFR SOLUTION from run 52
USER: SCORE 21.162096 LL:  -6.914 LR: -15.315 RR:   0.000 FEB:  -6.366
USER: RMSD 6.394042
USER: SEED 51
USER: STATUS no improvement in best in 30 clusters for 5 generations
USER: GENES 32
USER: genes 0 Translation |==|  0.51810 0.66311 0.30858
USER: genes 1 Rotation |==|  0.07751 0.66588 0.66219 0.63297
USER: genes 2 Torsion [N]-CA--C-[N] |==|  0.98379
USER: genes 3 Torsion [C]-N--CA-[C] |==|  0.63415
USER: genes 4 Torsion [N]-CA--C-[N] |==|  0.21303
USER: genes 5 Torsion [C]-N--CA-[C] |==|  0.84895
USER: genes 6 Torsion [N]-CA--C-[N] |==|  0.87868
USER: genes 7 Torsion [C]-N--CA-[CB] |==|  0.13173
USER: genes 8 Torsion [N]-CA--CB-[CG] |==|  0.22847
USER: genes 9 Torsion [CA]-CB--CG-[CD] |==|  0.75391
USER: genes 10 Torsion [CB]-CG--CD-[NE2] |==|  0.87665
USER: genes 11 Torsion [N]-CA--C-[O] |==|  0.04913
USER: genes 12 Torsion [N]-CA--CB-[CG] |==|  0.05504
USER: genes 13 Torsion [CA]-CB--CG-[CD2] |==|  0.63773
USER: genes 14 Torsion [N]-CA--CB-[CG] |==|  0.77336
USER: genes 15 Torsion [CA]-CB--CG-[CD1] |==|  0.86331
USER: genes 16 Torsion [C]-CA--CB-[CG] |==|  0.44501
USER: genes 17 Torsion [CA]-CB--CG-[CD] |==|  0.98855
USER: genes 18 Torsion [CB]-CG--CD-[NE] |==|  0.40451
USER: genes 19 Torsion [CG]-CD--NE-[CZ] |==|  0.52534
USER: genes 20 Torsion [C]-CA--N-[C] |==|  0.74158
USER: genes 21 Torsion [N]-C--CA-[N] |==|  0.35387
USER: genes 22 Torsion [C]-CA--CB-[CG] |==|  0.21062
USER: genes 23 Torsion [CA]-CB--CG-[ND1] |==|  0.00264
USER: genes 24 Torsion [C]-CA--N-[C] |==|  0.56864
USER: genes 25 Torsion [N]-C--CA-[N] |==|  0.08661
USER: genes 26 Torsion [C]-CA--CB-[CG] |==|  0.54844
USER: genes 27 Torsion [CA]-CB--CG-[CD2] |==|  0.82807
USER: genes 28 Torsion [C]-CA--N-[C] |==|  0.17423
USER: genes 29 Torsion [N]-C--CA-[N] |==|  0.82166
USER: genes 30 Torsion [C]-CA--CB-[CG1] |==|  0.52999
USER: genes 31 Torsion [CA]-CB--CG1-[CD1] |==|  0.63015
ROOT
ATOM      1  CA  ARG D 692      10.010 -11.944  35.186  1.00 48.73 LIG 0.18  C 
ENDROOT
BRANCH 1 2
ATOM      2  C   ARG D 692       8.563 -11.883  35.648  1.00 46.10 LIG 0.24  C 
ATOM      3  N   LEU D 693       8.036 -12.982  36.181  1.00 50.64 LIG-0.35  N 
ATOM      4 H    LEU D 693       8.453 -13.723  36.304  1.00 50.64 LIG 0.16  HD
ATOM      5 O    ARG D 692       7.889 -10.874  35.445  1.00 52.04 LIG-0.27  OA
BRANCH 3 6
ATOM      6  CA  LEU D 693       6.633 -12.967  36.606  1.00 43.34 LIG 0.18  C 
BRANCH 6 7
ATOM      7  C   LEU D 693       6.452 -13.531  38.009  1.00 37.95 LIG 0.24  C 
ATOM      8  N   LEU D 694       6.795 -12.740  39.005  1.00 39.22 LIG-0.35  N 
ATOM      9 H    LEU D 694       7.149 -11.964  38.895  1.00 39.22 LIG 0.16  HD
ATOM     10 O    LEU D 693       6.032 -14.682  38.172  1.00 43.86 LIG-0.27  OA
BRANCH 8 11
ATOM     11  CA  LEU D 694       6.607 -13.108  40.384  1.00 38.59 LIG 0.18  C 
BRANCH 11 12
ATOM     12  C   LEU D 694       5.173 -13.476  40.591  1.00 46.22 LIG 0.24  C 
ATOM     13  N   GLN D 695       4.302 -12.665  40.019  1.00 66.87 LIG-0.35  N 
ATOM     14 H    GLN D 695       4.556 -11.938  39.637  1.00 66.87 LIG 0.16  HD
ATOM     15 O    LEU D 694       4.892 -14.416  41.287  1.00 54.70 LIG-0.27  OA
BRANCH 13 16
ATOM     16  CA  GLN D 695       2.846 -12.845  39.937  1.00 62.86 LIG 0.16  C 
BRANCH 16 17
ATOM     17  CB  GLN D 695       2.277 -13.221  41.278  1.00 63.26 LIG 0.04  C 
BRANCH 17 18
ATOM     18  CG  GLN D 695       2.060 -12.008  42.143  1.00 77.24 LIG 0.10  C 
BRANCH 18 19
ATOM     19  CD  GLN D 695       3.248 -11.660  42.943  1.00 84.08 LIG 0.21  C 
ATOM     20 OE1  GLN D 695       3.603 -10.502  43.044  1.00 83.40 LIG-0.27  OA
ATOM     21  NE2 GLN D 695       3.872 -12.656  43.543  1.00 79.17 LIG-0.37  N 
ATOM     22 22HE GLN D 695       4.562 -12.498  44.031  1.00 79.17 LIG 0.16  HD
ATOM     23 21HE GLN D 695       3.589 -13.462  43.446  1.00 79.17 LIG 0.16  HD
ENDBRANCH 18 19
ENDBRANCH 17 18
ENDBRANCH 16 17
BRANCH 16 24
ATOM     24  C   GLN D 695       2.051 -11.710  39.294  1.00 61.14 LIG 0.22  C 
ATOM     25 O    GLN D 695       2.610 -10.865  38.589  1.00 66.66 LIG-0.29  OA
ENDBRANCH 16 24
ENDBRANCH 13 16
ENDBRANCH 11 12
BRANCH 11 26
ATOM     26  CB  LEU D 694       6.923 -11.955  41.313  1.00 34.51 LIG 0.04  C 
BRANCH 26 27
ATOM     27  CG  LEU D 694       6.935 -10.540  40.790  1.00 27.71 LIG-0.02  C 
ATOM     28  CD2 LEU D 694       8.171  -9.780  41.169  1.00 26.48 LIG 0.01  C 
ATOM     29  CD1 LEU D 694       5.684  -9.775  41.116  1.00 27.00 LIG 0.01  C 
ENDBRANCH 26 27
ENDBRANCH 11 26
ENDBRANCH 8 11
ENDBRANCH 6 7
BRANCH 6 30
ATOM     30  CB  LEU D 693       5.715 -13.691  35.606  1.00 45.67 LIG 0.04  C 
BRANCH 30 31
ATOM     31  CG  LEU D 693       5.282 -12.874  34.378  1.00 55.29 LIG-0.02  C 
ATOM     32  CD1 LEU D 693       4.754 -11.507  34.794  1.00 47.80 LIG 0.01  C 
ATOM     33  CD2 LEU D 693       6.402 -12.752  33.336  1.00 51.02 LIG 0.01  C 
ENDBRANCH 30 31
ENDBRANCH 6 30
ENDBRANCH 3 6
ENDBRANCH 1 2
BRANCH 1 34
ATOM     34  CB  ARG D 692      10.060 -11.597  33.683  1.00 49.09 LIG 0.04  C 
BRANCH 34 35
ATOM     35  CG  ARG D 692      11.475 -11.159  33.255  1.00 50.62 LIG 0.02  C 
BRANCH 35 36
ATOM     36  CD  ARG D 692      12.481 -11.064  34.392  1.00 57.04 LIG 0.14  C 
BRANCH 36 37
ATOM     37  NE  ARG D 692      13.793 -11.452  33.912  1.00 60.90 LIG-0.23  N 
ATOM     38 HE   ARG D 692      13.890 -11.565  33.065  1.00 60.90 LIG 0.18  HD
ATOM     39  CZ  ARG D 692      14.854 -11.645  34.682  1.00 61.50 LIG 0.67  C 
ATOM     40  NH1 ARG D 692      14.747 -11.575  36.007  1.00 46.48 LIG-0.23  N 
ATOM     41  NH2 ARG D 692      16.015 -11.956  34.119  1.00 64.68 LIG-0.23  N 
ATOM     42 1HH1 ARG D 692      13.985 -11.403  36.368  1.00 46.48 LIG 0.17  HD
ATOM     43 2HH1 ARG D 692      15.439 -11.701  36.501  1.00 46.48 LIG 0.17  HD
ATOM     44 1HH2 ARG D 692      16.073 -12.030  33.264  1.00 64.68 LIG 0.17  HD
ATOM     45 2HH2 ARG D 692      16.710 -12.083  34.610  1.00 64.68 LIG 0.17  HD
ENDBRANCH 36 37
ENDBRANCH 35 36
ENDBRANCH 34 35
ENDBRANCH 1 34
BRANCH 1 46
ATOM     46  N   ARG D 692      10.734 -13.198  35.503  1.00 43.06 LIG-0.35  N 
ATOM     47  C   HIS D 691      11.454 -13.330  36.604  1.00 44.11 LIG 0.24  C 
ATOM     48 O    HIS D 691      11.609 -12.430  37.418  1.00 43.39 LIG-0.27  OA
ATOM     49 H    ARG D 692      10.641 -13.818  34.914  1.00 43.06 LIG 0.16  HD
BRANCH 47 50
ATOM     50  CA  HIS D 691      12.071 -14.661  36.802  1.00 41.80 LIG 0.18  C 
BRANCH 50 51
ATOM     51  CB  HIS D 691      11.414 -15.239  38.008  1.00 51.00 LIG 0.10  C 
BRANCH 51 52
ATOM     52  CG  HIS D 691      10.049 -15.740  37.773  1.00 57.86 LIG 0.06  A 
ATOM     53 ND1  HIS D 691       9.472 -15.694  36.585  1.00 60.60 LIG-0.24  NA
ATOM     54  CE1 HIS D 691       8.248 -16.208  36.672  1.00 72.50 LIG 0.23  A 
ATOM     55 NE2  HIS D 691       8.036 -16.567  37.935  1.00 67.35 LIG-0.25  NA
ATOM     56  CD2 HIS D 691       9.123 -16.288  38.641  1.00 66.29 LIG 0.14  A 
ENDBRANCH 51 52
ENDBRANCH 50 51
BRANCH 50 57
ATOM     57  N   HIS D 691      13.492 -14.545  37.044  1.00 39.94 LIG-0.35  N 
ATOM     58 H    HIS D 691      13.729 -13.784  37.368  1.00 39.94 LIG 0.16  HD
ATOM     59  C   LEU D 690      14.346 -15.523  36.786  1.00 35.88 LIG 0.24  C 
ATOM     60 O    LEU D 690      13.997 -16.635  36.335  1.00 34.66 LIG-0.27  OA
BRANCH 59 61
ATOM     61  CA  LEU D 690      15.809 -15.217  37.009  1.00 33.43 LIG 0.18  C 
BRANCH 61 62
ATOM     62  CB  LEU D 690      16.563 -16.509  37.327  1.00 31.34 LIG 0.04  C 
BRANCH 62 63
ATOM     63  CG  LEU D 690      17.936 -16.354  37.974  1.00 30.93 LIG-0.02  C 
ATOM     64  CD1 LEU D 690      18.522 -17.723  38.281  1.00 30.90 LIG 0.01  C 
ATOM     65  CD2 LEU D 690      18.861 -15.602  37.035  1.00 28.62 LIG 0.01  C 
ENDBRANCH 62 63
ENDBRANCH 61 62
BRANCH 61 66
ATOM     66  N   LEU D 690      15.993 -14.252  38.094  1.00 35.22 LIG-0.35  N 
ATOM     67 H    LEU D 690      16.353 -13.510  37.851  1.00 35.22 LIG 0.16  HD
ATOM     68  C   ILE D 689      15.625 -14.523  39.340  1.00 41.04 LIG 0.26  C 
ATOM     69 O    ILE D 689      15.056 -15.578  39.655  1.00 39.56 LIG-0.27  OA
BRANCH 68 70
ATOM     70  CA  ILE D 689      15.901 -13.413  40.377  1.00 40.35 LIG 0.40  C 
ATOM     71  N   ILE D 689      17.381 -13.142  40.558  1.00 40.45 LIG 0.61  N 
BRANCH 70 72
ATOM     72  CB  ILE D 689      15.124 -12.152  39.928  1.00 42.26 LIG 0.03  C 
ATOM     73  CG2 ILE D 689      13.604 -12.392  39.998  1.00 38.55 LIG 0.01  C 
BRANCH 72 74
ATOM     74  CG1 ILE D 689      15.537 -10.919  40.737  1.00 45.91 LIG 0.00  C 
ATOM     75  CD1 ILE D 689      14.368 -10.083  41.257  1.00 45.96 LIG 0.01  C 
ENDBRANCH 72 74
ENDBRANCH 70 72
ENDBRANCH 68 70
ENDBRANCH 61 66
ENDBRANCH 59 61
ENDBRANCH 50 57
ENDBRANCH 47 50
ENDBRANCH 1 46
TORSDOF 30
ENDMDL
MODEL 25
USER: ADFR SOLUTION from run 167
USER: SCORE 20.283291 LL:  -6.768 LR: -15.287 RR:   0.000 FEB:  -6.338
USER: RMSD 7.868228
USER: SEED 166
USER: STATUS searching
USER: GENES 32
USER: genes 0 Translation |==|  0.64855 0.70025 0.45015
USER: genes 1 Rotation |==|  0.99569 0.46394 0.54828 0.52570
USER: genes 2 Torsion [N]-CA--C-[N] |==|  0.34338
USER: genes 3 Torsion [C]-N--CA-[C] |==|  0.15349
USER: genes 4 Torsion [N]-CA--C-[N] |==|  0.21057
USER: genes 5 Torsion [C]-N--CA-[C] |==|  0.84467
USER: genes 6 Torsion [N]-CA--C-[N] |==|  0.92197
USER: genes 7 Torsion [C]-N--CA-[CB] |==|  0.56312
USER: genes 8 Torsion [N]-CA--CB-[CG] |==|  0.28605
USER: genes 9 Torsion [CA]-CB--CG-[CD] |==|  0.56202
USER: genes 10 Torsion [CB]-CG--CD-[NE2] |==|  0.53394
USER: genes 11 Torsion [N]-CA--C-[O] |==|  0.44404
USER: genes 12 Torsion [N]-CA--CB-[CG] |==|  0.78972
USER: genes 13 Torsion [CA]-CB--CG-[CD2] |==|  0.34942
USER: genes 14 Torsion [N]-CA--CB-[CG] |==|  0.81947
USER: genes 15 Torsion [CA]-CB--CG-[CD1] |==|  0.93420
USER: genes 16 Torsion [C]-CA--CB-[CG] |==|  0.20760
USER: genes 17 Torsion [CA]-CB--CG-[CD] |==|  0.39781
USER: genes 18 Torsion [CB]-CG--CD-[NE] |==|  0.27393
USER: genes 19 Torsion [CG]-CD--NE-[CZ] |==|  0.76338
USER: genes 20 Torsion [C]-CA--N-[C] |==|  0.81269
USER: genes 21 Torsion [N]-C--CA-[N] |==|  0.08287
USER: genes 22 Torsion [C]-CA--CB-[CG] |==|  0.64908
USER: genes 23 Torsion [CA]-CB--CG-[ND1] |==|  0.27002
USER: genes 24 Torsion [C]-CA--N-[C] |==|  0.68302
USER: genes 25 Torsion [N]-C--CA-[N] |==|  0.70242
USER: genes 26 Torsion [C]-CA--CB-[CG] |==|  0.38644
USER: genes 27 Torsion [CA]-CB--CG-[CD2] |==|  0.12960
USER: genes 28 Torsion [C]-CA--N-[C] |==|  0.71175
USER: genes 29 Torsion [N]-C--CA-[N] |==|  0.42131
USER: genes 30 Torsion [C]-CA--CB-[CG1] |==|  0.21958
USER: genes 31 Torsion [CA]-CB--CG1-[CD1] |==|  0.68914
ROOT
ATOM      1  CA  ARG D 692      12.945 -11.247  37.947  1.00 48.73 LIG 0.18  C 
ENDROOT
BRANCH 1 2
ATOM      2  C   ARG D 692      11.709 -12.022  37.520  1.00 46.10 LIG 0.24  C 
ATOM      3  N   LEU D 693      10.714 -11.341  36.957  1.00 50.64 LIG-0.35  N 
ATOM      4 H    LEU D 693      10.720 -10.497  36.797  1.00 50.64 LIG 0.16  HD
ATOM      5 O    ARG D 692      11.609 -13.221  37.776  1.00 52.04 LIG-0.27  OA
BRANCH 3 6
ATOM      6  CA  LEU D 693       9.494 -12.053  36.564  1.00 43.34 LIG 0.18  C 
BRANCH 6 7
ATOM      7  C   LEU D 693       8.877 -12.819  37.726  1.00 37.95 LIG 0.24  C 
ATOM      8  N   LEU D 694       8.228 -12.101  38.620  1.00 39.22 LIG-0.35  N 
ATOM      9 H    LEU D 694       8.183 -11.243  38.598  1.00 39.22 LIG 0.16  HD
ATOM     10 O    LEU D 693       9.019 -14.044  37.813  1.00 43.86 LIG-0.27  OA
BRANCH 8 11
ATOM     11  CA  LEU D 694       7.528 -12.697  39.728  1.00 38.59 LIG 0.18  C 
BRANCH 11 12
ATOM     12  C   LEU D 694       6.540 -13.684  39.197  1.00 46.22 LIG 0.24  C 
ATOM     13  N   GLN D 695       6.087 -13.421  37.985  1.00 66.87 LIG-0.35  N 
ATOM     14 H    GLN D 695       6.288 -12.688  37.585  1.00 66.87 LIG 0.16  HD
ATOM     15 O    LEU D 694       6.176 -14.597  39.891  1.00 54.70 LIG-0.27  OA
BRANCH 13 16
ATOM     16  CA  GLN D 695       5.219 -14.273  37.160  1.00 62.86 LIG 0.16  C 
BRANCH 16 17
ATOM     17  CB  GLN D 695       5.362 -13.929  35.703  1.00 63.26 LIG 0.04  C 
BRANCH 17 18
ATOM     18  CG  GLN D 695       6.211 -14.940  34.980  1.00 77.24 LIG 0.10  C 
BRANCH 18 19
ATOM     19  CD  GLN D 695       6.803 -14.404  33.741  1.00 84.08 LIG 0.21  C 
ATOM     20 OE1  GLN D 695       6.789 -13.208  33.521  1.00 83.40 LIG-0.27  OA
ATOM     21  NE2 GLN D 695       7.353 -15.277  32.919  1.00 79.17 LIG-0.37  N 
ATOM     22 22HE GLN D 695       7.722 -15.008  32.190  1.00 79.17 LIG 0.16  HD
ATOM     23 21HE GLN D 695       7.342 -16.115  33.112  1.00 79.17 LIG 0.16  HD
ENDBRANCH 18 19
ENDBRANCH 17 18
ENDBRANCH 16 17
BRANCH 16 24
ATOM     24  C   GLN D 695       5.320 -15.780  37.389  1.00 61.14 LIG 0.22  C 
ATOM     25 O    GLN D 695       4.410 -16.536  37.038  1.00 66.66 LIG-0.29  OA
ENDBRANCH 16 24
ENDBRANCH 13 16
ENDBRANCH 11 12
BRANCH 11 26
ATOM     26  CB  LEU D 694       6.761 -11.660  40.520  1.00 34.51 LIG 0.04  C 
BRANCH 26 27
ATOM     27  CG  LEU D 694       7.489 -10.725  41.454  1.00 27.71 LIG-0.02  C 
ATOM     28  CD2 LEU D 694       7.204  -9.278  41.183  1.00 26.48 LIG 0.01  C 
ATOM     29  CD1 LEU D 694       8.963 -11.000  41.541  1.00 27.00 LIG 0.01  C 
ENDBRANCH 26 27
ENDBRANCH 11 26
ENDBRANCH 8 11
ENDBRANCH 6 7
BRANCH 6 30
ATOM     30  CB  LEU D 693       9.725 -12.982  35.360  1.00 45.67 LIG 0.04  C 
BRANCH 30 31
ATOM     31  CG  LEU D 693      10.093 -12.290  34.038  1.00 55.29 LIG-0.02  C 
ATOM     32  CD1 LEU D 693       9.602 -10.849  34.024  1.00 47.80 LIG 0.01  C 
ATOM     33  CD2 LEU D 693      11.596 -12.377  33.734  1.00 51.02 LIG 0.01  C 
ENDBRANCH 30 31
ENDBRANCH 6 30
ENDBRANCH 3 6
ENDBRANCH 1 2
BRANCH 1 34
ATOM     34  CB  ARG D 692      14.104 -11.608  36.993  1.00 49.09 LIG 0.04  C 
BRANCH 34 35
ATOM     35  CG  ARG D 692      13.932 -10.930  35.620  1.00 50.62 LIG 0.02  C 
BRANCH 35 36
ATOM     36  CD  ARG D 692      15.229 -10.463  34.976  1.00 57.04 LIG 0.14  C 
BRANCH 36 37
ATOM     37  NE  ARG D 692      15.667 -11.444  34.001  1.00 60.90 LIG-0.23  N 
ATOM     38 HE   ARG D 692      15.441 -11.318  33.181  1.00 60.90 LIG 0.18  HD
ATOM     39  CZ  ARG D 692      16.388 -12.519  34.281  1.00 61.50 LIG 0.67  C 
ATOM     40  NH1 ARG D 692      16.691 -12.818  35.543  1.00 46.48 LIG-0.23  N 
ATOM     41  NH2 ARG D 692      16.765 -13.322  33.294  1.00 64.68 LIG-0.23  N 
ATOM     42 1HH1 ARG D 692      16.418 -12.310  36.182  1.00 46.48 LIG 0.17  HD
ATOM     43 2HH1 ARG D 692      17.159 -13.517  35.719  1.00 46.48 LIG 0.17  HD
ATOM     44 1HH2 ARG D 692      16.542 -13.141  32.484  1.00 64.68 LIG 0.17  HD
ATOM     45 2HH2 ARG D 692      17.234 -14.022  33.465  1.00 64.68 LIG 0.17  HD
ENDBRANCH 36 37
ENDBRANCH 35 36
ENDBRANCH 34 35
ENDBRANCH 1 34
BRANCH 1 46
ATOM     46  N   ARG D 692      13.324 -11.378  39.374  1.00 43.06 LIG-0.35  N 
ATOM     47  C   HIS D 691      12.574 -10.883  40.344  1.00 44.11 LIG 0.24  C 
ATOM     48 O    HIS D 691      11.544 -10.257  40.144  1.00 43.39 LIG-0.27  OA
ATOM     49 H    ARG D 692      14.063 -11.798  39.507  1.00 43.06 LIG 0.16  HD
BRANCH 47 50
ATOM     50  CA  HIS D 691      13.062 -11.142  41.717  1.00 41.80 LIG 0.18  C 
BRANCH 50 51
ATOM     51  CB  HIS D 691      12.636  -9.967  42.529  1.00 51.00 LIG 0.10  C 
BRANCH 51 52
ATOM     52  CG  HIS D 691      13.728  -9.311  43.268  1.00 57.86 LIG 0.06  A 
ATOM     53 ND1  HIS D 691      14.348  -8.238  42.810  1.00 60.60 LIG-0.24  NA
ATOM     54  CE1 HIS D 691      15.286  -7.870  43.678  1.00 72.50 LIG 0.23  A 
ATOM     55 NE2  HIS D 691      15.277  -8.731  44.691  1.00 67.35 LIG-0.25  NA
ATOM     56  CD2 HIS D 691      14.333  -9.635  44.467  1.00 66.29 LIG 0.14  A 
ENDBRANCH 51 52
ENDBRANCH 50 51
BRANCH 50 57
ATOM     57  N   HIS D 691      14.504 -11.244  41.747  1.00 39.94 LIG-0.35  N 
ATOM     58 H    HIS D 691      14.909 -10.510  41.554  1.00 39.94 LIG 0.16  HD
ATOM     59  C   LEU D 690      15.138 -12.367  42.046  1.00 35.88 LIG 0.24  C 
ATOM     60 O    LEU D 690      14.548 -13.426  42.348  1.00 34.66 LIG-0.27  OA
BRANCH 59 61
ATOM     61  CA  LEU D 690      16.646 -12.337  41.947  1.00 33.43 LIG 0.18  C 
BRANCH 61 62
ATOM     62  CB  LEU D 690      17.130 -10.889  41.869  1.00 31.34 LIG 0.04  C 
BRANCH 62 63
ATOM     63  CG  LEU D 690      18.380 -10.545  42.672  1.00 30.93 LIG-0.02  C 
ATOM     64  CD1 LEU D 690      18.042 -10.481  44.154  1.00 30.90 LIG 0.01  C 
ATOM     65  CD2 LEU D 690      19.445 -11.599  42.438  1.00 28.62 LIG 0.01  C 
ENDBRANCH 62 63
ENDBRANCH 61 62
BRANCH 61 66
ATOM     66  N   LEU D 690      17.118 -13.085  40.781  1.00 35.22 LIG-0.35  N 
ATOM     67 H    LEU D 690      17.017 -12.675  40.032  1.00 35.22 LIG 0.16  HD
ATOM     68  C   ILE D 689      17.655 -14.294  40.895  1.00 41.04 LIG 0.26  C 
ATOM     69 O    ILE D 689      17.842 -14.842  41.992  1.00 39.56 LIG-0.27  OA
BRANCH 68 70
ATOM     70  CA  ILE D 689      18.087 -14.964  39.573  1.00 40.35 LIG 0.40  C 
ATOM     71  N   ILE D 689      19.239 -15.931  39.761  1.00 40.45 LIG 0.61  N 
BRANCH 70 72
ATOM     72  CB  ILE D 689      16.837 -15.650  38.969  1.00 42.26 LIG 0.03  C 
ATOM     73  CG2 ILE D 689      16.075 -16.444  40.046  1.00 38.55 LIG 0.01  C 
BRANCH 72 74
ATOM     74  CG1 ILE D 689      15.927 -14.641  38.263  1.00 45.91 LIG 0.00  C 
ATOM     75  CD1 ILE D 689      14.582 -14.413  38.952  1.00 45.96 LIG 0.01  C 
ENDBRANCH 72 74
ENDBRANCH 70 72
ENDBRANCH 68 70
ENDBRANCH 61 66
ENDBRANCH 59 61
ENDBRANCH 50 57
ENDBRANCH 47 50
ENDBRANCH 1 46
TORSDOF 30
ENDMDL
MODEL 26
USER: ADFR SOLUTION from run 1
USER: SCORE 21.756423 LL:  -7.166 LR: -15.275 RR:   0.000 FEB:  -6.326
USER: RMSD 6.780444
USER: SEED 141555
USER: STATUS no improvement in best in 15 clusters for 5 generations
USER: GENES 32
USER: genes 0 Translation |==|  0.71098 0.56252 0.33165
USER: genes 1 Rotation |==|  0.97473 0.37213 0.45646 0.57992
USER: genes 2 Torsion [N]-CA--C-[N] |==|  0.08132
USER: genes 3 Torsion [C]-N--CA-[C] |==|  0.76473
USER: genes 4 Torsion [N]-CA--C-[N] |==|  0.19121
USER: genes 5 Torsion [C]-N--CA-[C] |==|  0.71157
USER: genes 6 Torsion [N]-CA--C-[N] |==|  0.27828
USER: genes 7 Torsion [C]-N--CA-[CB] |==|  0.25385
USER: genes 8 Torsion [N]-CA--CB-[CG] |==|  0.00294
USER: genes 9 Torsion [CA]-CB--CG-[CD] |==|  0.38508
USER: genes 10 Torsion [CB]-CG--CD-[NE2] |==|  0.60292
USER: genes 11 Torsion [N]-CA--C-[O] |==|  0.18886
USER: genes 12 Torsion [N]-CA--CB-[CG] |==|  0.90423
USER: genes 13 Torsion [CA]-CB--CG-[CD2] |==|  0.24281
USER: genes 14 Torsion [N]-CA--CB-[CG] |==|  0.75362
USER: genes 15 Torsion [CA]-CB--CG-[CD1] |==|  0.86898
USER: genes 16 Torsion [C]-CA--CB-[CG] |==|  0.51595
USER: genes 17 Torsion [CA]-CB--CG-[CD] |==|  0.90314
USER: genes 18 Torsion [CB]-CG--CD-[NE] |==|  0.85751
USER: genes 19 Torsion [CG]-CD--NE-[CZ] |==|  0.32656
USER: genes 20 Torsion [C]-CA--N-[C] |==|  0.17202
USER: genes 21 Torsion [N]-C--CA-[N] |==|  0.10750
USER: genes 22 Torsion [C]-CA--CB-[CG] |==|  0.54366
USER: genes 23 Torsion [CA]-CB--CG-[ND1] |==|  0.28590
USER: genes 24 Torsion [C]-CA--N-[C] |==|  0.16108
USER: genes 25 Torsion [N]-C--CA-[N] |==|  0.96312
USER: genes 26 Torsion [C]-CA--CB-[CG] |==|  0.29790
USER: genes 27 Torsion [CA]-CB--CG-[CD2] |==|  0.05909
USER: genes 28 Torsion [C]-CA--N-[C] |==|  0.74597
USER: genes 29 Torsion [N]-C--CA-[N] |==|  0.89083
USER: genes 30 Torsion [C]-CA--CB-[CG1] |==|  0.38979
USER: genes 31 Torsion [CA]-CB--CG1-[CD1] |==|  0.32121
ROOT
ATOM      1  CA  ARG D 692      14.350 -13.830  35.636  1.00 48.73 LIG 0.18  C 
ENDROOT
BRANCH 1 2
ATOM      2  C   ARG D 692      12.853 -14.043  35.793  1.00 46.10 LIG 0.24  C 
ATOM      3  N   LEU D 693      12.307 -13.767  36.974  1.00 50.64 LIG-0.35  N 
ATOM      4 H    LEU D 693      12.731 -13.458  37.656  1.00 50.64 LIG 0.16  HD
ATOM      5 O    ARG D 692      12.199 -14.541  34.878  1.00 52.04 LIG-0.27  OA
BRANCH 3 6
ATOM      6  CA  LEU D 693      10.872 -13.993  37.169  1.00 43.34 LIG 0.18  C 
BRANCH 6 7
ATOM      7  C   LEU D 693      10.036 -12.812  36.694  1.00 37.95 LIG 0.24  C 
ATOM      8  N   LEU D 694      10.005 -12.604  35.393  1.00 39.22 LIG-0.35  N 
ATOM      9 H    LEU D 694      10.461 -13.063  34.828  1.00 39.22 LIG 0.16  HD
ATOM     10 O    LEU D 693       9.453 -12.090  37.510  1.00 43.86 LIG-0.27  OA
BRANCH 8 11
ATOM     11  CA  LEU D 694       9.195 -11.576  34.795  1.00 38.59 LIG 0.18  C 
BRANCH 11 12
ATOM     12  C   LEU D 694       7.995 -12.211  34.171  1.00 46.22 LIG 0.24  C 
ATOM     13  N   GLN D 695       6.889 -12.135  34.888  1.00 66.87 LIG-0.35  N 
ATOM     14 H    GLN D 695       6.898 -11.819  35.688  1.00 66.87 LIG 0.16  HD
ATOM     15 O    LEU D 694       8.102 -12.788  33.121  1.00 54.70 LIG-0.27  OA
BRANCH 13 16
ATOM     16  CA  GLN D 695       5.539 -12.545  34.480  1.00 62.86 LIG 0.16  C 
BRANCH 16 17
ATOM     17  CB  GLN D 695       5.274 -13.974  34.867  1.00 63.26 LIG 0.04  C 
BRANCH 17 18
ATOM     18  CG  GLN D 695       6.451 -14.577  35.586  1.00 77.24 LIG 0.10  C 
BRANCH 18 19
ATOM     19  CD  GLN D 695       6.050 -15.410  36.735  1.00 84.08 LIG 0.21  C 
ATOM     20 OE1  GLN D 695       5.060 -16.111  36.669  1.00 83.40 LIG-0.27  OA
ATOM     21  NE2 GLN D 695       6.825 -15.363  37.801  1.00 79.17 LIG-0.37  N 
ATOM     22 22HE GLN D 695       6.638 -15.842  38.490  1.00 79.17 LIG 0.16  HD
ATOM     23 21HE GLN D 695       7.518 -14.853  37.808  1.00 79.17 LIG 0.16  HD
ENDBRANCH 18 19
ENDBRANCH 17 18
ENDBRANCH 16 17
BRANCH 16 24
ATOM     24  C   GLN D 695       4.388 -11.633  34.901  1.00 61.14 LIG 0.22  C 
ATOM     25 O    GLN D 695       4.267 -10.503  34.419  1.00 66.66 LIG-0.29  OA
ENDBRANCH 16 24
ENDBRANCH 13 16
ENDBRANCH 11 12
BRANCH 11 26
ATOM     26  CB  LEU D 694       9.947 -10.844  33.704  1.00 34.51 LIG 0.04  C 
BRANCH 26 27
ATOM     27  CG  LEU D 694      11.432 -10.613  33.828  1.00 27.71 LIG-0.02  C 
ATOM     28  CD2 LEU D 694      12.254 -11.748  33.295  1.00 26.48 LIG 0.01  C 
ATOM     29  CD1 LEU D 694      11.858 -10.213  35.212  1.00 27.00 LIG 0.01  C 
ENDBRANCH 26 27
ENDBRANCH 11 26
ENDBRANCH 8 11
ENDBRANCH 6 7
BRANCH 6 30
ATOM     30  CB  LEU D 693      10.532 -14.350  38.626  1.00 45.67 LIG 0.04  C 
BRANCH 30 31
ATOM     31  CG  LEU D 693      10.586 -15.844  38.982  1.00 55.29 LIG-0.02  C 
ATOM     32  CD1 LEU D 693       9.853 -16.678  37.940  1.00 47.80 LIG 0.01  C 
ATOM     33  CD2 LEU D 693      12.024 -16.341  39.192  1.00 51.02 LIG 0.01  C 
ENDBRANCH 30 31
ENDBRANCH 6 30
ENDBRANCH 3 6
ENDBRANCH 1 2
BRANCH 1 34
ATOM     34  CB  ARG D 692      14.853 -14.718  34.479  1.00 49.09 LIG 0.04  C 
BRANCH 34 35
ATOM     35  CG  ARG D 692      16.389 -14.662  34.355  1.00 50.62 LIG 0.02  C 
BRANCH 35 36
ATOM     36  CD  ARG D 692      17.002 -13.309  34.684  1.00 57.04 LIG 0.14  C 
BRANCH 36 37
ATOM     37  NE  ARG D 692      16.325 -12.273  33.928  1.00 60.90 LIG-0.23  N 
ATOM     38 HE   ARG D 692      16.374 -12.310  33.070  1.00 60.90 LIG 0.18  HD
ATOM     39  CZ  ARG D 692      15.639 -11.273  34.460  1.00 61.50 LIG 0.67  C 
ATOM     40  NH1 ARG D 692      15.603 -11.109  35.781  1.00 46.48 LIG-0.23  N 
ATOM     41  NH2 ARG D 692      15.025 -10.410  33.661  1.00 64.68 LIG-0.23  N 
ATOM     42 1HH1 ARG D 692      16.028 -11.654  36.294  1.00 46.48 LIG 0.17  HD
ATOM     43 2HH1 ARG D 692      15.156 -10.458  36.121  1.00 46.48 LIG 0.17  HD
ATOM     44 1HH2 ARG D 692      15.076 -10.503  32.808  1.00 64.68 LIG 0.17  HD
ATOM     45 2HH2 ARG D 692      14.577  -9.757  33.997  1.00 64.68 LIG 0.17  HD
ENDBRANCH 36 37
ENDBRANCH 35 36
ENDBRANCH 34 35
ENDBRANCH 1 34
BRANCH 1 46
ATOM     46  N   ARG D 692      15.155 -13.995  36.870  1.00 43.06 LIG-0.35  N 
ATOM     47  C   HIS D 691      15.211 -15.145  37.519  1.00 44.11 LIG 0.24  C 
ATOM     48 O    HIS D 691      14.584 -16.139  37.180  1.00 43.39 LIG-0.27  OA
ATOM     49 H    ARG D 692      15.573 -13.285  37.117  1.00 43.06 LIG 0.16  HD
BRANCH 47 50
ATOM     50  CA  HIS D 691      16.100 -15.163  38.703  1.00 41.80 LIG 0.18  C 
BRANCH 50 51
ATOM     51  CB  HIS D 691      15.605 -16.273  39.566  1.00 51.00 LIG 0.10  C 
BRANCH 51 52
ATOM     52  CG  HIS D 691      16.109 -16.236  40.949  1.00 57.86 LIG 0.06  A 
ATOM     53 ND1  HIS D 691      15.371 -15.816  41.962  1.00 60.60 LIG-0.24  NA
ATOM     54  CE1 HIS D 691      16.082 -15.889  43.083  1.00 72.50 LIG 0.23  A 
ATOM     55 NE2  HIS D 691      17.295 -16.340  42.778  1.00 67.35 LIG-0.25  NA
ATOM     56  CD2 HIS D 691      17.347 -16.559  41.471  1.00 66.29 LIG 0.14  A 
ENDBRANCH 51 52
ENDBRANCH 50 51
BRANCH 50 57
ATOM     57  N   HIS D 691      16.019 -13.918  39.433  1.00 39.94 LIG-0.35  N 
ATOM     58 H    HIS D 691      16.774 -13.514  39.516  1.00 39.94 LIG 0.16  HD
ATOM     59  C   LEU D 690      14.885 -13.448  39.928  1.00 35.88 LIG 0.24  C 
ATOM     60 O    LEU D 690      13.786 -14.026  39.787  1.00 34.66 LIG-0.27  OA
BRANCH 59 61
ATOM     61  CA  LEU D 690      14.979 -12.179  40.744  1.00 33.43 LIG 0.18  C 
BRANCH 61 62
ATOM     62  CB  LEU D 690      14.370 -11.015  39.960  1.00 31.34 LIG 0.04  C 
BRANCH 62 63
ATOM     63  CG  LEU D 690      13.019 -10.501  40.446  1.00 30.93 LIG-0.02  C 
ATOM     64  CD1 LEU D 690      11.904 -11.083  39.590  1.00 30.90 LIG 0.01  C 
ATOM     65  CD2 LEU D 690      12.811 -10.900  41.894  1.00 28.62 LIG 0.01  C 
ENDBRANCH 62 63
ENDBRANCH 61 62
BRANCH 61 66
ATOM     66  N   LEU D 690      16.367 -11.873  41.094  1.00 35.22 LIG-0.35  N 
ATOM     67 H    LEU D 690      16.783 -11.396  40.511  1.00 35.22 LIG 0.16  HD
ATOM     68  C   ILE D 689      16.915 -12.305  42.223  1.00 41.04 LIG 0.26  C 
ATOM     69 O    ILE D 689      16.278 -12.943  43.075  1.00 39.56 LIG-0.27  OA
BRANCH 68 70
ATOM     70  CA  ILE D 689      18.392 -11.917  42.443  1.00 40.35 LIG 0.40  C 
ATOM     71  N   ILE D 689      19.210 -11.993  41.169  1.00 40.45 LIG 0.61  N 
BRANCH 70 72
ATOM     72  CB  ILE D 689      18.415 -10.502  43.071  1.00 42.26 LIG 0.03  C 
ATOM     73  CG2 ILE D 689      17.024 -10.122  43.612  1.00 38.55 LIG 0.01  C 
BRANCH 72 74
ATOM     74  CG1 ILE D 689      19.491 -10.384  44.154  1.00 45.91 LIG 0.00  C 
ATOM     75  CD1 ILE D 689      20.607  -9.391  43.831  1.00 45.96 LIG 0.01  C 
ENDBRANCH 72 74
ENDBRANCH 70 72
ENDBRANCH 68 70
ENDBRANCH 61 66
ENDBRANCH 59 61
ENDBRANCH 50 57
ENDBRANCH 47 50
ENDBRANCH 1 46
TORSDOF 30
ENDMDL
MODEL 27
USER: ADFR SOLUTION from run 20
USER: SCORE 20.274384 LL:  -6.857 LR: -15.263 RR:   0.000 FEB:  -6.314
USER: RMSD 6.550430
USER: SEED 19
USER: STATUS no improvement in best in 35 clusters for 5 generations
USER: GENES 32
USER: genes 0 Translation |==|  0.54929 0.69770 0.40138
USER: genes 1 Rotation |==|  0.01424 0.45190 0.43882 0.58934
USER: genes 2 Torsion [N]-CA--C-[N] |==|  0.93604
USER: genes 3 Torsion [C]-N--CA-[C] |==|  0.80385
USER: genes 4 Torsion [N]-CA--C-[N] |==|  0.99444
USER: genes 5 Torsion [C]-N--CA-[C] |==|  0.21431
USER: genes 6 Torsion [N]-CA--C-[N] |==|  0.45384
USER: genes 7 Torsion [C]-N--CA-[CB] |==|  0.52064
USER: genes 8 Torsion [N]-CA--CB-[CG] |==|  0.88256
USER: genes 9 Torsion [CA]-CB--CG-[CD] |==|  0.31543
USER: genes 10 Torsion [CB]-CG--CD-[NE2] |==|  0.16534
USER: genes 11 Torsion [N]-CA--C-[O] |==|  0.99563
USER: genes 12 Torsion [N]-CA--CB-[CG] |==|  0.84380
USER: genes 13 Torsion [CA]-CB--CG-[CD2] |==|  0.67027
USER: genes 14 Torsion [N]-CA--CB-[CG] |==|  0.07241
USER: genes 15 Torsion [CA]-CB--CG-[CD1] |==|  0.19786
USER: genes 16 Torsion [C]-CA--CB-[CG] |==|  0.96519
USER: genes 17 Torsion [CA]-CB--CG-[CD] |==|  0.71518
USER: genes 18 Torsion [CB]-CG--CD-[NE] |==|  0.71031
USER: genes 19 Torsion [CG]-CD--NE-[CZ] |==|  0.28237
USER: genes 20 Torsion [C]-CA--N-[C] |==|  0.85286
USER: genes 21 Torsion [N]-C--CA-[N] |==|  0.03740
USER: genes 22 Torsion [C]-CA--CB-[CG] |==|  0.84142
USER: genes 23 Torsion [CA]-CB--CG-[ND1] |==|  0.34053
USER: genes 24 Torsion [C]-CA--N-[C] |==|  0.75967
USER: genes 25 Torsion [N]-C--CA-[N] |==|  0.52655
USER: genes 26 Torsion [C]-CA--CB-[CG] |==|  0.37497
USER: genes 27 Torsion [CA]-CB--CG-[CD2] |==|  0.11628
USER: genes 28 Torsion [C]-CA--N-[C] |==|  0.73133
USER: genes 29 Torsion [N]-C--CA-[N] |==|  0.43676
USER: genes 30 Torsion [C]-CA--CB-[CG1] |==|  0.24480
USER: genes 31 Torsion [CA]-CB--CG1-[CD1] |==|  0.68224
ROOT
ATOM      1  CA  ARG D 692      10.712 -11.295  36.996  1.00 48.73 LIG 0.18  C 
ENDROOT
BRANCH 1 2
ATOM      2  C   ARG D 692       9.855 -12.200  36.126  1.00 46.10 LIG 0.24  C 
ATOM      3  N   LEU D 693       9.928 -13.512  36.334  1.00 50.64 LIG-0.35  N 
ATOM      4 H    LEU D 693      10.410 -13.892  36.936  1.00 50.64 LIG 0.16  HD
ATOM      5 O    ARG D 692       9.192 -11.727  35.204  1.00 52.04 LIG-0.27  OA
BRANCH 3 6
ATOM      6  CA  LEU D 693       9.140 -14.415  35.489  1.00 43.34 LIG 0.18  C 
BRANCH 6 7
ATOM      7  C   LEU D 693       7.649 -14.320  35.785  1.00 37.95 LIG 0.24  C 
ATOM      8  N   LEU D 694       7.296 -13.499  36.753  1.00 39.22 LIG-0.35  N 
ATOM      9 H    LEU D 694       7.859 -13.068  37.238  1.00 39.22 LIG 0.16  HD
ATOM     10 O    LEU D 693       6.841 -15.011  35.153  1.00 43.86 LIG-0.27  OA
BRANCH 8 11
ATOM     11  CA  LEU D 694       5.919 -13.250  37.089  1.00 38.59 LIG 0.18  C 
BRANCH 11 12
ATOM     12  C   LEU D 694       5.397 -14.410  37.872  1.00 46.22 LIG 0.24  C 
ATOM     13  N   GLN D 695       4.278 -14.178  38.533  1.00 66.87 LIG-0.35  N 
ATOM     14 H    GLN D 695       3.939 -13.389  38.570  1.00 66.87 LIG 0.16  HD
ATOM     15 O    LEU D 694       6.024 -15.436  37.910  1.00 54.70 LIG-0.27  OA
BRANCH 13 16
ATOM     16  CA  GLN D 695       3.467 -15.155  39.273  1.00 62.86 LIG 0.16  C 
BRANCH 16 17
ATOM     17  CB  GLN D 695       2.176 -14.537  39.736  1.00 63.26 LIG 0.04  C 
BRANCH 17 18
ATOM     18  CG  GLN D 695       2.393 -13.147  40.273  1.00 77.24 LIG 0.10  C 
BRANCH 18 19
ATOM     19  CD  GLN D 695       1.757 -12.111  39.439  1.00 84.08 LIG 0.21  C 
ATOM     20 OE1  GLN D 695       2.431 -11.242  38.920  1.00 83.40 LIG-0.27  OA
ATOM     21  NE2 GLN D 695       0.450 -12.195  39.280  1.00 79.17 LIG-0.37  N 
ATOM     22 22HE GLN D 695       0.039 -11.620  38.791  1.00 79.17 LIG 0.16  HD
ATOM     23 21HE GLN D 695       0.010 -12.825  39.665  1.00 79.17 LIG 0.16  HD
ENDBRANCH 18 19
ENDBRANCH 17 18
ENDBRANCH 16 17
BRANCH 16 24
ATOM     24  C   GLN D 695       3.226 -16.501  38.592  1.00 61.14 LIG 0.22  C 
ATOM     25 O    GLN D 695       3.673 -16.729  37.464  1.00 66.66 LIG-0.29  OA
ENDBRANCH 16 24
ENDBRANCH 13 16
ENDBRANCH 11 12
BRANCH 11 26
ATOM     26  CB  LEU D 694       5.063 -13.111  35.848  1.00 34.51 LIG 0.04  C 
BRANCH 26 27
ATOM     27  CG  LEU D 694       5.408 -12.084  34.799  1.00 27.71 LIG-0.02  C 
ATOM     28  CD2 LEU D 694       4.330 -11.061  34.596  1.00 26.48 LIG 0.01  C 
ATOM     29  CD1 LEU D 694       5.859 -12.688  33.500  1.00 27.00 LIG 0.01  C 
ENDBRANCH 26 27
ENDBRANCH 11 26
ENDBRANCH 8 11
ENDBRANCH 6 7
BRANCH 6 30
ATOM     30  CB  LEU D 693       9.623 -15.872  35.586  1.00 45.67 LIG 0.04  C 
BRANCH 30 31
ATOM     31  CG  LEU D 693      10.332 -16.259  36.894  1.00 55.29 LIG-0.02  C 
ATOM     32  CD1 LEU D 693       9.342 -16.327  38.049  1.00 47.80 LIG 0.01  C 
ATOM     33  CD2 LEU D 693      11.131 -17.564  36.759  1.00 51.02 LIG 0.01  C 
ENDBRANCH 30 31
ENDBRANCH 6 30
ENDBRANCH 3 6
ENDBRANCH 1 2
BRANCH 1 34
ATOM     34  CB  ARG D 692      11.910 -10.801  36.158  1.00 49.09 LIG 0.04  C 
BRANCH 34 35
ATOM     35  CG  ARG D 692      12.044 -11.597  34.845  1.00 50.62 LIG 0.02  C 
BRANCH 35 36
ATOM     36  CD  ARG D 692      13.140 -12.652  34.851  1.00 57.04 LIG 0.14  C 
BRANCH 36 37
ATOM     37  NE  ARG D 692      14.274 -12.177  34.081  1.00 60.90 LIG-0.23  N 
ATOM     38 HE   ARG D 692      14.219 -12.221  33.224  1.00 60.90 LIG 0.18  HD
ATOM     39  CZ  ARG D 692      15.387 -11.680  34.600  1.00 61.50 LIG 0.67  C 
ATOM     40  NH1 ARG D 692      15.568 -11.669  35.920  1.00 46.48 LIG-0.23  N 
ATOM     41  NH2 ARG D 692      16.338 -11.236  33.790  1.00 64.68 LIG-0.23  N 
ATOM     42 1HH1 ARG D 692      14.961 -11.987  36.440  1.00 46.48 LIG 0.17  HD
ATOM     43 2HH1 ARG D 692      16.293 -11.346  36.251  1.00 46.48 LIG 0.17  HD
ATOM     44 1HH2 ARG D 692      16.229 -11.272  32.937  1.00 64.68 LIG 0.17  HD
ATOM     45 2HH2 ARG D 692      17.065 -10.911  34.116  1.00 64.68 LIG 0.17  HD
ENDBRANCH 36 37
ENDBRANCH 35 36
ENDBRANCH 34 35
ENDBRANCH 1 34
BRANCH 1 46
ATOM     46  N   ARG D 692      11.128 -11.864  38.300  1.00 43.06 LIG-0.35  N 
ATOM     47  C   HIS D 691      10.253 -12.370  39.152  1.00 44.11 LIG 0.24  C 
ATOM     48 O    HIS D 691       9.047 -12.376  38.953  1.00 43.39 LIG-0.27  OA
ATOM     49 H    ARG D 692      11.976 -11.834  38.445  1.00 43.06 LIG 0.16  HD
BRANCH 47 50
ATOM     50  CA  HIS D 691      10.831 -12.947  40.387  1.00 41.80 LIG 0.18  C 
BRANCH 50 51
ATOM     51  CB  HIS D 691      10.031 -12.386  41.512  1.00 51.00 LIG 0.10  C 
BRANCH 51 52
ATOM     52  CG  HIS D 691      10.010 -10.914  41.567  1.00 57.86 LIG 0.06  A 
ATOM     53 ND1  HIS D 691       8.885 -10.220  41.534  1.00 60.60 LIG-0.24  NA
ATOM     54  CE1 HIS D 691       9.169  -8.923  41.594  1.00 72.50 LIG 0.23  A 
ATOM     55 NE2  HIS D 691      10.491  -8.788  41.646  1.00 67.35 LIG-0.25  NA
ATOM     56  CD2 HIS D 691      11.039  -9.995  41.626  1.00 66.29 LIG 0.14  A 
ENDBRANCH 51 52
ENDBRANCH 50 51
BRANCH 50 57
ATOM     57  N   HIS D 691      12.215 -12.557  40.545  1.00 39.94 LIG-0.35  N 
ATOM     58 H    HIS D 691      12.325 -11.853  41.026  1.00 39.94 LIG 0.16  HD
ATOM     59  C   LEU D 690      13.216 -13.227  39.998  1.00 35.88 LIG 0.24  C 
ATOM     60 O    LEU D 690      13.055 -14.263  39.318  1.00 34.66 LIG-0.27  OA
BRANCH 59 61
ATOM     61  CA  LEU D 690      14.598 -12.644  40.181  1.00 33.43 LIG 0.18  C 
BRANCH 61 62
ATOM     62  CB  LEU D 690      14.581 -11.155  39.832  1.00 31.34 LIG 0.04  C 
BRANCH 62 63
ATOM     63  CG  LEU D 690      15.304 -10.222  40.797  1.00 30.93 LIG-0.02  C 
ATOM     64  CD1 LEU D 690      14.434  -9.964  42.018  1.00 30.90 LIG 0.01  C 
ATOM     65  CD2 LEU D 690      16.615 -10.849  41.229  1.00 28.62 LIG 0.01  C 
ENDBRANCH 62 63
ENDBRANCH 61 62
BRANCH 61 66
ATOM     66  N   LEU D 690      15.583 -13.340  39.351  1.00 35.22 LIG-0.35  N 
ATOM     67 H    LEU D 690      15.622 -13.062  38.538  1.00 35.22 LIG 0.16  HD
ATOM     68  C   ILE D 689      16.343 -14.314  39.836  1.00 41.04 LIG 0.26  C 
ATOM     69 O    ILE D 689      16.309 -14.659  41.027  1.00 39.56 LIG-0.27  OA
BRANCH 68 70
ATOM     70  CA  ILE D 689      17.321 -14.965  38.835  1.00 40.35 LIG 0.40  C 
ATOM     71  N   ILE D 689      18.493 -15.637  39.520  1.00 40.45 LIG 0.61  N 
BRANCH 70 72
ATOM     72  CB  ILE D 689      16.506 -15.953  37.963  1.00 42.26 LIG 0.03  C 
ATOM     73  CG2 ILE D 689      15.422 -16.655  38.801  1.00 38.55 LIG 0.01  C 
BRANCH 72 74
ATOM     74  CG1 ILE D 689      15.908 -15.259  36.736  1.00 45.91 LIG 0.00  C 
ATOM     75  CD1 ILE D 689      14.381 -15.194  36.728  1.00 45.96 LIG 0.01  C 
ENDBRANCH 72 74
ENDBRANCH 70 72
ENDBRANCH 68 70
ENDBRANCH 61 66
ENDBRANCH 59 61
ENDBRANCH 50 57
ENDBRANCH 47 50
ENDBRANCH 1 46
TORSDOF 30
ENDMDL
MODEL 28
USER: ADFR SOLUTION from run 159
USER: SCORE 20.100779 LL:  -6.248 LR: -15.230 RR:   0.000 FEB:  -6.281
USER: RMSD 7.457197
USER: SEED 158
USER: STATUS no improvement in best in 27 clusters for 5 generations
USER: GENES 32
USER: genes 0 Translation |==|  0.54909 0.61504 0.37456
USER: genes 1 Rotation |==|  0.97876 0.41160 0.42549 0.58614
USER: genes 2 Torsion [N]-CA--C-[N] |==|  0.37690
USER: genes 3 Torsion [C]-N--CA-[C] |==|  0.14664
USER: genes 4 Torsion [N]-CA--C-[N] |==|  0.11371
USER: genes 5 Torsion [C]-N--CA-[C] |==|  0.78269
USER: genes 6 Torsion [N]-CA--C-[N] |==|  0.20678
USER: genes 7 Torsion [C]-N--CA-[CB] |==|  0.46072
USER: genes 8 Torsion [N]-CA--CB-[CG] |==|  0.56871
USER: genes 9 Torsion [CA]-CB--CG-[CD] |==|  0.19620
USER: genes 10 Torsion [CB]-CG--CD-[NE2] |==|  0.51134
USER: genes 11 Torsion [N]-CA--C-[O] |==|  0.29526
USER: genes 12 Torsion [N]-CA--CB-[CG] |==|  0.92029
USER: genes 13 Torsion [CA]-CB--CG-[CD2] |==|  0.77417
USER: genes 14 Torsion [N]-CA--CB-[CG] |==|  0.79065
USER: genes 15 Torsion [CA]-CB--CG-[CD1] |==|  0.85742
USER: genes 16 Torsion [C]-CA--CB-[CG] |==|  0.43055
USER: genes 17 Torsion [CA]-CB--CG-[CD] |==|  0.27204
USER: genes 18 Torsion [CB]-CG--CD-[NE] |==|  0.51344
USER: genes 19 Torsion [CG]-CD--NE-[CZ] |==|  0.31964
USER: genes 20 Torsion [C]-CA--N-[C] |==|  0.59952
USER: genes 21 Torsion [N]-C--CA-[N] |==|  0.22967
USER: genes 22 Torsion [C]-CA--CB-[CG] |==|  0.47347
USER: genes 23 Torsion [CA]-CB--CG-[ND1] |==|  0.28486
USER: genes 24 Torsion [C]-CA--N-[C] |==|  0.74254
USER: genes 25 Torsion [N]-C--CA-[N] |==|  0.00905
USER: genes 26 Torsion [C]-CA--CB-[CG] |==|  0.46275
USER: genes 27 Torsion [CA]-CB--CG-[CD2] |==|  0.81601
USER: genes 28 Torsion [C]-CA--N-[C] |==|  0.60000
USER: genes 29 Torsion [N]-C--CA-[N] |==|  0.36226
USER: genes 30 Torsion [C]-CA--CB-[CG1] |==|  0.81323
USER: genes 31 Torsion [CA]-CB--CG1-[CD1] |==|  0.31792
ROOT
ATOM      1  CA  ARG D 692      10.708 -12.845  36.473  1.00 48.73 LIG 0.18  C 
ENDROOT
BRANCH 1 2
ATOM      2  C   ARG D 692       9.293 -13.264  36.838  1.00 46.10 LIG 0.24  C 
ATOM      3  N   LEU D 693       8.290 -12.503  36.407  1.00 50.64 LIG-0.35  N 
ATOM      4 H    LEU D 693       8.375 -11.800  35.920  1.00 50.64 LIG 0.16  HD
ATOM      5 O    ARG D 692       9.103 -14.224  37.584  1.00 52.04 LIG-0.27  OA
BRANCH 3 6
ATOM      6  CA  LEU D 693       6.915 -12.861  36.769  1.00 43.34 LIG 0.18  C 
BRANCH 6 7
ATOM      7  C   LEU D 693       6.747 -13.045  38.272  1.00 37.95 LIG 0.24  C 
ATOM      8  N   LEU D 694       7.370 -12.174  39.040  1.00 39.22 LIG-0.35  N 
ATOM      9 H    LEU D 694       7.887 -11.558  38.737  1.00 39.22 LIG 0.16  HD
ATOM     10 O    LEU D 693       6.080 -13.986  38.715  1.00 43.86 LIG-0.27  OA
BRANCH 8 11
ATOM     11  CA  LEU D 694       7.238 -12.177  40.473  1.00 38.59 LIG 0.18  C 
BRANCH 11 12
ATOM     12  C   LEU D 694       5.934 -11.544  40.837  1.00 46.22 LIG 0.24  C 
ATOM     13  N   GLN D 695       4.869 -12.293  40.612  1.00 66.87 LIG-0.35  N 
ATOM     14 H    GLN D 695       4.935 -13.047  40.205  1.00 66.87 LIG 0.16  HD
ATOM     15 O    LEU D 694       5.912 -10.412  41.243  1.00 54.70 LIG-0.27  OA
BRANCH 13 16
ATOM     16  CA  GLN D 695       3.481 -11.995  40.989  1.00 62.86 LIG 0.16  C 
BRANCH 16 17
ATOM     17  CB  GLN D 695       2.524 -12.906  40.269  1.00 63.26 LIG 0.04  C 
BRANCH 17 18
ATOM     18  CG  GLN D 695       1.159 -12.283  40.147  1.00 77.24 LIG 0.10  C 
BRANCH 18 19
ATOM     19  CD  GLN D 695       1.131 -11.155  39.199  1.00 84.08 LIG 0.21  C 
ATOM     20 OE1  GLN D 695       2.118 -10.877  38.546  1.00 83.40 LIG-0.27  OA
ATOM     21  NE2 GLN D 695      -0.007 -10.497  39.092  1.00 79.17 LIG-0.37  N 
ATOM     22 22HE GLN D 695      -0.074  -9.840  38.542  1.00 79.17 LIG 0.16  HD
ATOM     23 21HE GLN D 695      -0.683 -10.726  39.573  1.00 79.17 LIG 0.16  HD
ENDBRANCH 18 19
ENDBRANCH 17 18
ENDBRANCH 16 17
BRANCH 16 24
ATOM     24  C   GLN D 695       3.175 -11.936  42.484  1.00 61.14 LIG 0.22  C 
ATOM     25 O    GLN D 695       2.978 -10.856  43.048  1.00 66.66 LIG-0.29  OA
ENDBRANCH 16 24
ENDBRANCH 13 16
ENDBRANCH 11 12
BRANCH 11 26
ATOM     26  CB  LEU D 694       8.338 -11.373  41.132  1.00 34.51 LIG 0.04  C 
BRANCH 26 27
ATOM     27  CG  LEU D 694       9.685 -11.241  40.466  1.00 27.71 LIG-0.02  C 
ATOM     28  CD2 LEU D 694      10.576 -12.426  40.695  1.00 26.48 LIG 0.01  C 
ATOM     29  CD1 LEU D 694      10.380  -9.948  40.779  1.00 27.00 LIG 0.01  C 
ENDBRANCH 26 27
ENDBRANCH 11 26
ENDBRANCH 8 11
ENDBRANCH 6 7
BRANCH 6 30
ATOM     30  CB  LEU D 693       6.417 -14.102  36.009  1.00 45.67 LIG 0.04  C 
BRANCH 30 31
ATOM     31  CG  LEU D 693       6.046 -13.883  34.534  1.00 55.29 LIG-0.02  C 
ATOM     32  CD1 LEU D 693       5.086 -12.710  34.384  1.00 47.80 LIG 0.01  C 
ATOM     33  CD2 LEU D 693       7.284 -13.716  33.641  1.00 51.02 LIG 0.01  C 
ENDBRANCH 30 31
ENDBRANCH 6 30
ENDBRANCH 3 6
ENDBRANCH 1 2
BRANCH 1 34
ATOM     34  CB  ARG D 692      11.148 -13.640  35.225  1.00 49.09 LIG 0.04  C 
BRANCH 34 35
ATOM     35  CG  ARG D 692      12.239 -12.889  34.437  1.00 50.62 LIG 0.02  C 
BRANCH 35 36
ATOM     36  CD  ARG D 692      13.660 -13.349  34.726  1.00 57.04 LIG 0.14  C 
BRANCH 36 37
ATOM     37  NE  ARG D 692      14.598 -12.498  34.018  1.00 60.90 LIG-0.23  N 
ATOM     38 HE   ARG D 692      14.583 -12.518  33.159  1.00 60.90 LIG 0.18  HD
ATOM     39  CZ  ARG D 692      15.476 -11.694  34.598  1.00 61.50 LIG 0.67  C 
ATOM     40  NH1 ARG D 692      15.611 -11.686  35.923  1.00 46.48 LIG-0.23  N 
ATOM     41  NH2 ARG D 692      16.253 -10.930  33.842  1.00 64.68 LIG-0.23  N 
ATOM     42 1HH1 ARG D 692      15.126 -12.206  36.408  1.00 46.48 LIG 0.17  HD
ATOM     43 2HH1 ARG D 692      16.183 -11.162  36.294  1.00 46.48 LIG 0.17  HD
ATOM     44 1HH2 ARG D 692      16.184 -10.960  32.985  1.00 64.68 LIG 0.17  HD
ATOM     45 2HH2 ARG D 692      16.827 -10.404  34.208  1.00 64.68 LIG 0.17  HD
ENDBRANCH 36 37
ENDBRANCH 35 36
ENDBRANCH 34 35
ENDBRANCH 1 34
BRANCH 1 46
ATOM     46  N   ARG D 692      11.702 -12.915  37.570  1.00 43.06 LIG-0.35  N 
ATOM     47  C   HIS D 691      12.676 -12.030  37.688  1.00 44.11 LIG 0.24  C 
ATOM     48 O    HIS D 691      12.855 -11.118  36.893  1.00 43.39 LIG-0.27  OA
ATOM     49 H    ARG D 692      11.585 -13.574  38.111  1.00 43.06 LIG 0.16  HD
BRANCH 47 50
ATOM     50  CA  HIS D 691      13.555 -12.207  38.866  1.00 41.80 LIG 0.18  C 
BRANCH 50 51
ATOM     51  CB  HIS D 691      14.199 -10.882  39.096  1.00 51.00 LIG 0.10  C 
BRANCH 51 52
ATOM     52  CG  HIS D 691      14.947 -10.782  40.360  1.00 57.86 LIG 0.06  A 
ATOM     53 ND1  HIS D 691      16.266 -10.856  40.410  1.00 60.60 LIG-0.24  NA
ATOM     54  CE1 HIS D 691      16.663 -10.740  41.674  1.00 72.50 LIG 0.23  A 
ATOM     55 NE2  HIS D 691      15.584 -10.612  42.440  1.00 67.35 LIG-0.25  NA
ATOM     56  CD2 HIS D 691      14.510 -10.640  41.663  1.00 66.29 LIG 0.14  A 
ENDBRANCH 51 52
ENDBRANCH 50 51
BRANCH 50 57
ATOM     57  N   HIS D 691      14.577 -13.196  38.610  1.00 39.94 LIG-0.35  N 
ATOM     58 H    HIS D 691      15.286 -12.876  38.243  1.00 39.94 LIG 0.16  HD
ATOM     59  C   LEU D 690      14.430 -14.476  38.914  1.00 35.88 LIG 0.24  C 
ATOM     60 O    LEU D 690      13.407 -14.934  39.467  1.00 34.66 LIG-0.27  OA
BRANCH 59 61
ATOM     61  CA  LEU D 690      15.552 -15.401  38.502  1.00 33.43 LIG 0.18  C 
BRANCH 61 62
ATOM     62  CB  LEU D 690      16.056 -16.175  39.721  1.00 31.34 LIG 0.04  C 
BRANCH 62 63
ATOM     63  CG  LEU D 690      16.960 -17.371  39.441  1.00 30.93 LIG-0.02  C 
ATOM     64  CD1 LEU D 690      17.507 -17.924  40.748  1.00 30.90 LIG 0.01  C 
ATOM     65  CD2 LEU D 690      16.172 -18.449  38.722  1.00 28.62 LIG 0.01  C 
ENDBRANCH 62 63
ENDBRANCH 61 62
BRANCH 61 66
ATOM     66  N   LEU D 690      16.656 -14.659  37.891  1.00 35.22 LIG-0.35  N 
ATOM     67 H    LEU D 690      16.800 -13.886  38.239  1.00 35.22 LIG 0.16  HD
ATOM     68  C   ILE D 689      17.362 -15.160  36.884  1.00 41.04 LIG 0.26  C 
ATOM     69 O    ILE D 689      17.172 -16.301  36.436  1.00 39.56 LIG-0.27  OA
BRANCH 68 70
ATOM     70  CA  ILE D 689      18.482 -14.252  36.333  1.00 40.35 LIG 0.40  C 
ATOM     71  N   ILE D 689      19.809 -14.974  36.212  1.00 40.45 LIG 0.61  N 
BRANCH 70 72
ATOM     72  CB  ILE D 689      17.996 -13.686  34.976  1.00 42.26 LIG 0.03  C 
ATOM     73  CG2 ILE D 689      18.911 -12.542  34.501  1.00 38.55 LIG 0.01  C 
BRANCH 72 74
ATOM     74  CG1 ILE D 689      17.876 -14.786  33.918  1.00 45.91 LIG 0.00  C 
ATOM     75  CD1 ILE D 689      16.448 -15.052  33.442  1.00 45.96 LIG 0.01  C 
ENDBRANCH 72 74
ENDBRANCH 70 72
ENDBRANCH 68 70
ENDBRANCH 61 66
ENDBRANCH 59 61
ENDBRANCH 50 57
ENDBRANCH 47 50
ENDBRANCH 1 46
TORSDOF 30
ENDMDL
MODEL 29
USER: ADFR SOLUTION from run 159
USER: SCORE 19.763312 LL:  -5.327 LR: -15.214 RR:   0.000 FEB:  -6.265
USER: RMSD 7.221263
USER: SEED 158
USER: STATUS no improvement in best in 27 clusters for 5 generations
USER: GENES 32
USER: genes 0 Translation |==|  0.59289 0.62993 0.35992
USER: genes 1 Rotation |==|  0.98075 0.41380 0.42342 0.57476
USER: genes 2 Torsion [N]-CA--C-[N] |==|  0.47221
USER: genes 3 Torsion [C]-N--CA-[C] |==|  0.82484
USER: genes 4 Torsion [N]-CA--C-[N] |==|  0.36873
USER: genes 5 Torsion [C]-N--CA-[C] |==|  0.71251
USER: genes 6 Torsion [N]-CA--C-[N] |==|  0.39918
USER: genes 7 Torsion [C]-N--CA-[CB] |==|  0.32877
USER: genes 8 Torsion [N]-CA--CB-[CG] |==|  0.47285
USER: genes 9 Torsion [CA]-CB--CG-[CD] |==|  0.26274
USER: genes 10 Torsion [CB]-CG--CD-[NE2] |==|  0.35366
USER: genes 11 Torsion [N]-CA--C-[O] |==|  0.09745
USER: genes 12 Torsion [N]-CA--CB-[CG] |==|  0.78976
USER: genes 13 Torsion [CA]-CB--CG-[CD2] |==|  0.00630
USER: genes 14 Torsion [N]-CA--CB-[CG] |==|  0.55124
USER: genes 15 Torsion [CA]-CB--CG-[CD1] |==|  0.41440
USER: genes 16 Torsion [C]-CA--CB-[CG] |==|  0.32132
USER: genes 17 Torsion [CA]-CB--CG-[CD] |==|  0.06138
USER: genes 18 Torsion [CB]-CG--CD-[NE] |==|  0.12361
USER: genes 19 Torsion [CG]-CD--NE-[CZ] |==|  0.17833
USER: genes 20 Torsion [C]-CA--N-[C] |==|  0.79101
USER: genes 21 Torsion [N]-C--CA-[N] |==|  0.03153
USER: genes 22 Torsion [C]-CA--CB-[CG] |==|  0.45628
USER: genes 23 Torsion [CA]-CB--CG-[ND1] |==|  0.26581
USER: genes 24 Torsion [C]-CA--N-[C] |==|  0.70617
USER: genes 25 Torsion [N]-C--CA-[N] |==|  0.04767
USER: genes 26 Torsion [C]-CA--CB-[CG] |==|  0.45205
USER: genes 27 Torsion [CA]-CB--CG-[CD2] |==|  0.81327
USER: genes 28 Torsion [C]-CA--N-[C] |==|  0.59045
USER: genes 29 Torsion [N]-C--CA-[N] |==|  0.37772
USER: genes 30 Torsion [C]-CA--CB-[CG1] |==|  0.81747
USER: genes 31 Torsion [CA]-CB--CG1-[CD1] |==|  0.28895
ROOT
ATOM      1  CA  ARG D 692      11.693 -12.566  36.187  1.00 48.73 LIG 0.18  C 
ENDROOT
BRANCH 1 2
ATOM      2  C   ARG D 692      10.279 -13.004  36.532  1.00 46.10 LIG 0.24  C 
ATOM      3  N   LEU D 693       9.314 -12.727  35.659  1.00 50.64 LIG-0.35  N 
ATOM      4 H    LEU D 693       9.427 -12.334  34.903  1.00 50.64 LIG 0.16  HD
ATOM      5 O    ARG D 692      10.037 -13.514  37.625  1.00 52.04 LIG-0.27  OA
BRANCH 3 6
ATOM      6  CA  LEU D 693       7.933 -13.106  35.976  1.00 43.34 LIG 0.18  C 
BRANCH 6 7
ATOM      7  C   LEU D 693       7.768 -14.615  36.105  1.00 37.95 LIG 0.24  C 
ATOM      8  N   LEU D 694       7.105 -15.042  37.161  1.00 39.22 LIG-0.35  N 
ATOM      9 H    LEU D 694       6.815 -14.523  37.782  1.00 39.22 LIG 0.16  HD
ATOM     10 O    LEU D 693       8.265 -15.372  35.264  1.00 43.86 LIG-0.27  OA
BRANCH 8 11
ATOM     11  CA  LEU D 694       6.804 -16.433  37.372  1.00 38.59 LIG 0.18  C 
BRANCH 11 12
ATOM     12  C   LEU D 694       5.365 -16.669  37.043  1.00 46.22 LIG 0.24  C 
ATOM     13  N   GLN D 695       5.108 -17.830  36.470  1.00 66.87 LIG-0.35  N 
ATOM     14 H    GLN D 695       5.743 -18.358  36.232  1.00 66.87 LIG 0.16  HD
ATOM     15 O    LEU D 694       4.555 -15.804  37.251  1.00 54.70 LIG-0.27  OA
BRANCH 13 16
ATOM     16  CA  GLN D 695       3.787 -18.391  36.158  1.00 62.86 LIG 0.16  C 
BRANCH 16 17
ATOM     17  CB  GLN D 695       3.629 -18.598  34.676  1.00 63.26 LIG 0.04  C 
BRANCH 17 18
ATOM     18  CG  GLN D 695       2.386 -19.384  34.359  1.00 77.24 LIG 0.10  C 
BRANCH 18 19
ATOM     19  CD  GLN D 695       1.232 -18.522  34.047  1.00 84.08 LIG 0.21  C 
ATOM     20 OE1  GLN D 695       0.911 -17.627  34.805  1.00 83.40 LIG-0.27  OA
ATOM     21  NE2 GLN D 695       0.598 -18.764  32.916  1.00 79.17 LIG-0.37  N 
ATOM     22 22HE GLN D 695      -0.073 -18.278  32.686  1.00 79.17 LIG 0.16  HD
ATOM     23 21HE GLN D 695       0.857 -19.408  32.408  1.00 79.17 LIG 0.16  HD
ENDBRANCH 18 19
ENDBRANCH 17 18
ENDBRANCH 16 17
BRANCH 16 24
ATOM     24  C   GLN D 695       3.367 -19.634  36.940  1.00 61.14 LIG 0.22  C 
ATOM     25 O    GLN D 695       3.696 -19.780  38.121  1.00 66.66 LIG-0.29  OA
ENDBRANCH 16 24
ENDBRANCH 13 16
ENDBRANCH 11 12
BRANCH 11 26
ATOM     26  CB  LEU D 694       7.016 -16.832  38.817  1.00 34.51 LIG 0.04  C 
BRANCH 26 27
ATOM     27  CG  LEU D 694       8.412 -17.030  39.353  1.00 27.71 LIG-0.02  C 
ATOM     28  CD2 LEU D 694       9.480 -16.739  38.342  1.00 26.48 LIG 0.01  C 
ATOM     29  CD1 LEU D 694       8.612 -18.363  40.014  1.00 27.00 LIG 0.01  C 
ENDBRANCH 26 27
ENDBRANCH 11 26
ENDBRANCH 8 11
ENDBRANCH 6 7
BRANCH 6 30
ATOM     30  CB  LEU D 693       6.926 -12.532  34.966  1.00 45.67 LIG 0.04  C 
BRANCH 30 31
ATOM     31  CG  LEU D 693       5.461 -12.488  35.428  1.00 55.29 LIG-0.02  C 
ATOM     32  CD1 LEU D 693       4.726 -11.315  34.794  1.00 47.80 LIG 0.01  C 
ATOM     33  CD2 LEU D 693       4.730 -13.815  35.174  1.00 51.02 LIG 0.01  C 
ENDBRANCH 30 31
ENDBRANCH 6 30
ENDBRANCH 3 6
ENDBRANCH 1 2
BRANCH 1 34
ATOM     34  CB  ARG D 692      12.134 -13.299  34.903  1.00 49.09 LIG 0.04  C 
BRANCH 34 35
ATOM     35  CG  ARG D 692      12.371 -12.310  33.745  1.00 50.62 LIG 0.02  C 
BRANCH 35 36
ATOM     36  CD  ARG D 692      12.650 -10.879  34.180  1.00 57.04 LIG 0.14  C 
BRANCH 36 37
ATOM     37  NE  ARG D 692      13.594 -10.882  35.281  1.00 60.90 LIG-0.23  N 
ATOM     38 HE   ARG D 692      13.321 -10.586  36.040  1.00 60.90 LIG 0.18  HD
ATOM     39  CZ  ARG D 692      14.846 -11.308  35.202  1.00 61.50 LIG 0.67  C 
ATOM     40  NH1 ARG D 692      15.355 -11.692  34.033  1.00 46.48 LIG-0.23  N 
ATOM     41  NH2 ARG D 692      15.602 -11.302  36.292  1.00 64.68 LIG-0.23  N 
ATOM     42 1HH1 ARG D 692      14.869 -11.665  33.323  1.00 46.48 LIG 0.17  HD
ATOM     43 2HH1 ARG D 692      16.169 -11.967  33.988  1.00 46.48 LIG 0.17  HD
ATOM     44 1HH2 ARG D 692      15.279 -11.024  37.039  1.00 64.68 LIG 0.17  HD
ATOM     45 2HH2 ARG D 692      16.416 -11.576  36.252  1.00 64.68 LIG 0.17  HD
ENDBRANCH 36 37
ENDBRANCH 35 36
ENDBRANCH 34 35
ENDBRANCH 1 34
BRANCH 1 46
ATOM     46  N   ARG D 692      12.688 -12.687  37.280  1.00 43.06 LIG-0.35  N 
ATOM     47  C   HIS D 691      12.720 -11.838  38.292  1.00 44.11 LIG 0.24  C 
ATOM     48 O    HIS D 691      11.968 -10.878  38.389  1.00 43.39 LIG-0.27  OA
ATOM     49 H    ARG D 692      13.230 -13.349  37.193  1.00 43.06 LIG 0.16  HD
BRANCH 47 50
ATOM     50  CA  HIS D 691      13.738 -12.125  39.328  1.00 41.80 LIG 0.18  C 
BRANCH 50 51
ATOM     51  CB  HIS D 691      14.471 -10.845  39.544  1.00 51.00 LIG 0.10  C 
BRANCH 51 52
ATOM     52  CG  HIS D 691      15.275 -10.807  40.777  1.00 57.86 LIG 0.06  A 
ATOM     53 ND1  HIS D 691      16.565 -11.092  40.791  1.00 60.60 LIG-0.24  NA
ATOM     54  CE1 HIS D 691      17.025 -10.980  42.034  1.00 72.50 LIG 0.23  A 
ATOM     55 NE2  HIS D 691      16.011 -10.640  42.824  1.00 67.35 LIG-0.25  NA
ATOM     56  CD2 HIS D 691      14.917 -10.530  42.083  1.00 66.29 LIG 0.14  A 
ENDBRANCH 51 52
ENDBRANCH 50 51
BRANCH 50 57
ATOM     57  N   HIS D 691      14.667 -13.138  38.880  1.00 39.94 LIG-0.35  N 
ATOM     58 H    HIS D 691      15.232 -12.857  38.295  1.00 39.94 LIG 0.16  HD
ATOM     59  C   LEU D 690      14.644 -14.382  39.329  1.00 35.88 LIG 0.24  C 
ATOM     60 O    LEU D 690      13.836 -14.782  40.194  1.00 34.66 LIG-0.27  OA
BRANCH 59 61
ATOM     61  CA  LEU D 690      15.622 -15.346  38.698  1.00 33.43 LIG 0.18  C 
BRANCH 61 62
ATOM     62  CB  LEU D 690      16.227 -16.247  39.775  1.00 31.34 LIG 0.04  C 
BRANCH 62 63
ATOM     63  CG  LEU D 690      16.908 -17.523  39.291  1.00 30.93 LIG-0.02  C 
ATOM     64  CD1 LEU D 690      17.619 -18.204  40.450  1.00 30.90 LIG 0.01  C 
ATOM     65  CD2 LEU D 690      15.873 -18.464  38.705  1.00 28.62 LIG 0.01  C 
ENDBRANCH 62 63
ENDBRANCH 61 62
BRANCH 61 66
ATOM     66  N   LEU D 690      16.687 -14.635  37.987  1.00 35.22 LIG-0.35  N 
ATOM     67 H    LEU D 690      16.906 -13.881  38.338  1.00 35.22 LIG 0.16  HD
ATOM     68  C   ILE D 689      17.252 -15.133  36.894  1.00 41.04 LIG 0.26  C 
ATOM     69 O    ILE D 689      16.958 -16.249  36.439  1.00 39.56 LIG-0.27  OA
BRANCH 68 70
ATOM     70  CA  ILE D 689      18.346 -14.259  36.246  1.00 40.35 LIG 0.40  C 
ATOM     71  N   ILE D 689      19.564 -15.061  35.833  1.00 40.45 LIG 0.61  N 
BRANCH 70 72
ATOM     72  CB  ILE D 689      17.700 -13.516  35.050  1.00 42.26 LIG 0.03  C 
ATOM     73  CG2 ILE D 689      18.644 -12.425  34.510  1.00 38.55 LIG 0.01  C 
BRANCH 72 74
ATOM     74  CG1 ILE D 689      17.275 -14.489  33.947  1.00 45.91 LIG 0.00  C 
ATOM     75  CD1 ILE D 689      15.771 -14.757  33.885  1.00 45.96 LIG 0.01  C 
ENDBRANCH 72 74
ENDBRANCH 70 72
ENDBRANCH 68 70
ENDBRANCH 61 66
ENDBRANCH 59 61
ENDBRANCH 50 57
ENDBRANCH 47 50
ENDBRANCH 1 46
TORSDOF 30
ENDMDL
MODEL 30
USER: ADFR SOLUTION from run 183
USER: SCORE 21.362982 LL:  -6.739 LR: -15.210 RR:   0.000 FEB:  -6.261
USER: RMSD 7.521427
USER: SEED 182
USER: STATUS no improvement in best in 17 clusters for 5 generations
USER: GENES 32
USER: genes 0 Translation |==|  0.59289 0.67780 0.35534
USER: genes 1 Rotation |==|  0.98251 0.45597 0.37882 0.52358
USER: genes 2 Torsion [N]-CA--C-[N] |==|  0.36808
USER: genes 3 Torsion [C]-N--CA-[C] |==|  0.16598
USER: genes 4 Torsion [N]-CA--C-[N] |==|  0.09765
USER: genes 5 Torsion [C]-N--CA-[C] |==|  0.82441
USER: genes 6 Torsion [N]-CA--C-[N] |==|  0.92259
USER: genes 7 Torsion [C]-N--CA-[CB] |==|  0.39236
USER: genes 8 Torsion [N]-CA--CB-[CG] |==|  0.76720
USER: genes 9 Torsion [CA]-CB--CG-[CD] |==|  0.81148
USER: genes 10 Torsion [CB]-CG--CD-[NE2] |==|  0.46952
USER: genes 11 Torsion [N]-CA--C-[O] |==|  0.95076
USER: genes 12 Torsion [N]-CA--CB-[CG] |==|  0.09643
USER: genes 13 Torsion [CA]-CB--CG-[CD2] |==|  0.58832
USER: genes 14 Torsion [N]-CA--CB-[CG] |==|  0.79308
USER: genes 15 Torsion [CA]-CB--CG-[CD1] |==|  0.39619
USER: genes 16 Torsion [C]-CA--CB-[CG] |==|  0.79354
USER: genes 17 Torsion [CA]-CB--CG-[CD] |==|  0.77089
USER: genes 18 Torsion [CB]-CG--CD-[NE] |==|  0.86604
USER: genes 19 Torsion [CG]-CD--NE-[CZ] |==|  0.33606
USER: genes 20 Torsion [C]-CA--N-[C] |==|  0.85390
USER: genes 21 Torsion [N]-C--CA-[N] |==|  0.93181
USER: genes 22 Torsion [C]-CA--CB-[CG] |==|  0.35506
USER: genes 23 Torsion [CA]-CB--CG-[ND1] |==|  0.79264
USER: genes 24 Torsion [C]-CA--N-[C] |==|  0.82105
USER: genes 25 Torsion [N]-C--CA-[N] |==|  0.04337
USER: genes 26 Torsion [C]-CA--CB-[CG] |==|  0.30270
USER: genes 27 Torsion [CA]-CB--CG-[CD2] |==|  0.27253
USER: genes 28 Torsion [C]-CA--N-[C] |==|  0.59447
USER: genes 29 Torsion [N]-C--CA-[N] |==|  0.35551
USER: genes 30 Torsion [C]-CA--CB-[CG1] |==|  0.83446
USER: genes 31 Torsion [CA]-CB--CG1-[CD1] |==|  0.66109
ROOT
ATOM      1  CA  ARG D 692      11.693 -11.668  36.098  1.00 48.73 LIG 0.18  C 
ENDROOT
BRANCH 1 2
ATOM      2  C   ARG D 692      10.401 -12.350  36.519  1.00 46.10 LIG 0.24  C 
ATOM      3  N   LEU D 693       9.293 -11.613  36.552  1.00 50.64 LIG-0.35  N 
ATOM      4 H    LEU D 693       9.244 -10.782  36.337  1.00 50.64 LIG 0.16  HD
ATOM      5 O    ARG D 692      10.412 -13.519  36.900  1.00 52.04 LIG-0.27  OA
BRANCH 3 6
ATOM      6  CA  LEU D 693       8.036 -12.231  36.985  1.00 43.34 LIG 0.18  C 
BRANCH 6 7
ATOM      7  C   LEU D 693       8.125 -12.778  38.404  1.00 37.95 LIG 0.24  C 
ATOM      8  N   LEU D 694       8.865 -12.090  39.250  1.00 39.22 LIG-0.35  N 
ATOM      9 H    LEU D 694       9.321 -11.397  39.027  1.00 39.22 LIG 0.16  HD
ATOM     10 O    LEU D 693       7.546 -13.827  38.706  1.00 43.86 LIG-0.27  OA
BRANCH 8 11
ATOM     11  CA  LEU D 694       8.977 -12.443  40.640  1.00 38.59 LIG 0.18  C 
BRANCH 11 12
ATOM     12  C   LEU D 694       7.631 -12.317  41.278  1.00 46.22 LIG 0.24  C 
ATOM     13  N   GLN D 695       6.829 -11.432  40.715  1.00 66.87 LIG-0.35  N 
ATOM     14 H    GLN D 695       7.109 -10.914  40.088  1.00 66.87 LIG 0.16  HD
ATOM     15 O    LEU D 694       7.375 -12.956  42.265  1.00 54.70 LIG-0.27  OA
BRANCH 13 16
ATOM     16  CA  GLN D 695       5.416 -11.187  41.035  1.00 62.86 LIG 0.16  C 
BRANCH 16 17
ATOM     17  CB  GLN D 695       5.103  -9.717  40.986  1.00 63.26 LIG 0.04  C 
BRANCH 17 18
ATOM     18  CG  GLN D 695       5.458  -9.034  42.280  1.00 77.24 LIG 0.10  C 
BRANCH 18 19
ATOM     19  CD  GLN D 695       4.596  -9.456  43.399  1.00 84.08 LIG 0.21  C 
ATOM     20 OE1  GLN D 695       3.604 -10.127  43.192  1.00 83.40 LIG-0.27  OA
ATOM     21  NE2 GLN D 695       4.970  -9.085  44.609  1.00 79.17 LIG-0.37  N 
ATOM     22 22HE GLN D 695       4.504  -9.319  45.293  1.00 79.17 LIG 0.16  HD
ATOM     23 21HE GLN D 695       5.678  -8.609  44.713  1.00 79.17 LIG 0.16  HD
ENDBRANCH 18 19
ENDBRANCH 17 18
ENDBRANCH 16 17
BRANCH 16 24
ATOM     24  C   GLN D 695       4.386 -12.001  40.255  1.00 61.14 LIG 0.22  C 
ATOM     25 O    GLN D 695       4.692 -12.567  39.201  1.00 66.66 LIG-0.29  OA
ENDBRANCH 16 24
ENDBRANCH 13 16
ENDBRANCH 11 12
BRANCH 11 26
ATOM     26  CB  LEU D 694       9.920 -11.514  41.373  1.00 34.51 LIG 0.04  C 
BRANCH 26 27
ATOM     27  CG  LEU D 694       9.999 -10.056  40.992  1.00 27.71 LIG-0.02  C 
ATOM     28  CD2 LEU D 694      11.363  -9.466  41.192  1.00 26.48 LIG 0.01  C 
ATOM     29  CD1 LEU D 694       8.926  -9.217  41.625  1.00 27.00 LIG 0.01  C 
ENDBRANCH 26 27
ENDBRANCH 11 26
ENDBRANCH 8 11
ENDBRANCH 6 7
BRANCH 6 30
ATOM     30  CB  LEU D 693       7.558 -13.320  36.010  1.00 45.67 LIG 0.04  C 
BRANCH 30 31
ATOM     31  CG  LEU D 693       6.959 -12.820  34.685  1.00 55.29 LIG-0.02  C 
ATOM     32  CD1 LEU D 693       7.354 -13.732  33.532  1.00 47.80 LIG 0.01  C 
ATOM     33  CD2 LEU D 693       5.436 -12.641  34.767  1.00 51.02 LIG 0.01  C 
ENDBRANCH 30 31
ENDBRANCH 6 30
ENDBRANCH 3 6
ENDBRANCH 1 2
BRANCH 1 34
ATOM     34  CB  ARG D 692      11.967 -12.007  34.618  1.00 49.09 LIG 0.04  C 
BRANCH 34 35
ATOM     35  CG  ARG D 692      12.457 -13.459  34.456  1.00 50.62 LIG 0.02  C 
BRANCH 35 36
ATOM     36  CD  ARG D 692      13.944 -13.659  34.711  1.00 57.04 LIG 0.14  C 
BRANCH 36 37
ATOM     37  NE  ARG D 692      14.700 -12.659  33.982  1.00 60.90 LIG-0.23  N 
ATOM     38 HE   ARG D 692      14.608 -12.635  33.128  1.00 60.90 LIG 0.18  HD
ATOM     39  CZ  ARG D 692      15.521 -11.780  34.536  1.00 61.50 LIG 0.67  C 
ATOM     40  NH1 ARG D 692      15.776 -11.825  35.843  1.00 46.48 LIG-0.23  N 
ATOM     41  NH2 ARG D 692      16.125 -10.883  33.767  1.00 64.68 LIG-0.23  N 
ATOM     42 1HH1 ARG D 692      15.406 -12.428  36.332  1.00 46.48 LIG 0.17  HD
ATOM     43 2HH1 ARG D 692      16.311 -11.252  36.196  1.00 46.48 LIG 0.17  HD
ATOM     44 1HH2 ARG D 692      15.980 -10.876  32.919  1.00 64.68 LIG 0.17  HD
ATOM     45 2HH2 ARG D 692      16.660 -10.307  34.116  1.00 64.68 LIG 0.17  HD
ENDBRANCH 36 37
ENDBRANCH 35 36
ENDBRANCH 34 35
ENDBRANCH 1 34
BRANCH 1 46
ATOM     46  N   ARG D 692      12.867 -11.926  36.966  1.00 43.06 LIG-0.35  N 
ATOM     47  C   HIS D 691      12.825 -11.735  38.273  1.00 44.11 LIG 0.24  C 
ATOM     48 O    HIS D 691      11.842 -11.302  38.858  1.00 43.39 LIG-0.27  OA
ATOM     49 H    ARG D 692      13.563 -12.207  36.545  1.00 43.06 LIG 0.16  HD
BRANCH 47 50
ATOM     50  CA  HIS D 691      14.062 -12.088  39.005  1.00 41.80 LIG 0.18  C 
BRANCH 50 51
ATOM     51  CB  HIS D 691      14.846 -10.825  39.112  1.00 51.00 LIG 0.10  C 
BRANCH 51 52
ATOM     52  CG  HIS D 691      15.277 -10.492  40.480  1.00 57.86 LIG 0.06  A 
ATOM     53 ND1  HIS D 691      14.442 -10.024  41.392  1.00 60.60 LIG-0.24  NA
ATOM     54  CE1 HIS D 691      15.105  -9.810  42.525  1.00 72.50 LIG 0.23  A 
ATOM     55 NE2  HIS D 691      16.381 -10.126  42.327  1.00 67.35 LIG-0.25  NA
ATOM     56  CD2 HIS D 691      16.522 -10.545  41.076  1.00 66.29 LIG 0.14  A 
ENDBRANCH 51 52
ENDBRANCH 50 51
BRANCH 50 57
ATOM     57  N   HIS D 691      14.836 -13.070  38.278  1.00 39.94 LIG-0.35  N 
ATOM     58 H    HIS D 691      15.603 -12.782  38.015  1.00 39.94 LIG 0.16  HD
ATOM     59  C   LEU D 690      14.399 -14.296  38.042  1.00 35.88 LIG 0.24  C 
ATOM     60 O    LEU D 690      13.294 -14.718  38.445  1.00 34.66 LIG-0.27  OA
BRANCH 59 61
ATOM     61  CA  LEU D 690      15.286 -15.177  37.192  1.00 33.43 LIG 0.18  C 
BRANCH 61 62
ATOM     62  CB  LEU D 690      15.340 -16.584  37.788  1.00 31.34 LIG 0.04  C 
BRANCH 62 63
ATOM     63  CG  LEU D 690      14.613 -17.679  37.014  1.00 30.93 LIG-0.02  C 
ATOM     64  CD1 LEU D 690      13.544 -17.063  36.124  1.00 30.90 LIG 0.01  C 
ATOM     65  CD2 LEU D 690      15.606 -18.446  36.161  1.00 28.62 LIG 0.01  C 
ENDBRANCH 62 63
ENDBRANCH 61 62
BRANCH 61 66
ATOM     66  N   LEU D 690      16.639 -14.627  37.088  1.00 35.22 LIG-0.35  N 
ATOM     67 H    LEU D 690      16.911 -14.218  37.793  1.00 35.22 LIG 0.16  HD
ATOM     68  C   ILE D 689      17.365 -14.763  35.985  1.00 41.04 LIG 0.26  C 
ATOM     69 O    ILE D 689      16.973 -15.406  35.000  1.00 39.56 LIG-0.27  OA
BRANCH 68 70
ATOM     70  CA  ILE D 689      18.765 -14.113  36.019  1.00 40.35 LIG 0.40  C 
ATOM     71  N   ILE D 689      19.864 -15.078  35.624  1.00 40.45 LIG 0.61  N 
BRANCH 70 72
ATOM     72  CB  ILE D 689      18.721 -12.866  35.102  1.00 42.26 LIG 0.03  C 
ATOM     73  CG2 ILE D 689      20.051 -12.092  35.168  1.00 38.55 LIG 0.01  C 
BRANCH 72 74
ATOM     74  CG1 ILE D 689      18.359 -13.240  33.662  1.00 45.91 LIG 0.00  C 
ATOM     75  CD1 ILE D 689      19.400 -12.829  32.620  1.00 45.96 LIG 0.01  C 
ENDBRANCH 72 74
ENDBRANCH 70 72
ENDBRANCH 68 70
ENDBRANCH 61 66
ENDBRANCH 59 61
ENDBRANCH 50 57
ENDBRANCH 47 50
ENDBRANCH 1 46
TORSDOF 30
ENDMDL
MODEL 31
USER: ADFR SOLUTION from run 191
USER: SCORE 21.992982 LL:  -7.351 LR: -15.213 RR:   0.000 FEB:  -6.264
USER: RMSD 6.183989
USER: SEED 190
USER: STATUS searching
USER: GENES 32
USER: genes 0 Translation |==|  0.51299 0.65822 0.34578
USER: genes 1 Rotation |==|  0.03473 0.61529 0.59693 0.60413
USER: genes 2 Torsion [N]-CA--C-[N] |==|  0.92222
USER: genes 3 Torsion [C]-N--CA-[C] |==|  0.62823
USER: genes 4 Torsion [N]-CA--C-[N] |==|  0.09263
USER: genes 5 Torsion [C]-N--CA-[C] |==|  0.77702
USER: genes 6 Torsion [N]-CA--C-[N] |==|  0.97006
USER: genes 7 Torsion [C]-N--CA-[CB] |==|  0.25482
USER: genes 8 Torsion [N]-CA--CB-[CG] |==|  0.14178
USER: genes 9 Torsion [CA]-CB--CG-[CD] |==|  0.38381
USER: genes 10 Torsion [CB]-CG--CD-[NE2] |==|  0.55184
USER: genes 11 Torsion [N]-CA--C-[O] |==|  0.45058
USER: genes 12 Torsion [N]-CA--CB-[CG] |==|  0.24792
USER: genes 13 Torsion [CA]-CB--CG-[CD2] |==|  0.81597
USER: genes 14 Torsion [N]-CA--CB-[CG] |==|  0.76489
USER: genes 15 Torsion [CA]-CB--CG-[CD1] |==|  0.87819
USER: genes 16 Torsion [C]-CA--CB-[CG] |==|  0.56795
USER: genes 17 Torsion [CA]-CB--CG-[CD] |==|  0.77215
USER: genes 18 Torsion [CB]-CG--CD-[NE] |==|  0.54809
USER: genes 19 Torsion [CG]-CD--NE-[CZ] |==|  0.66081
USER: genes 20 Torsion [C]-CA--N-[C] |==|  0.84984
USER: genes 21 Torsion [N]-C--CA-[N] |==|  0.39119
USER: genes 22 Torsion [C]-CA--CB-[CG] |==|  0.22548
USER: genes 23 Torsion [CA]-CB--CG-[ND1] |==|  0.25426
USER: genes 24 Torsion [C]-CA--N-[C] |==|  0.80046
USER: genes 25 Torsion [N]-C--CA-[N] |==|  0.41049
USER: genes 26 Torsion [C]-CA--CB-[CG] |==|  0.85406
USER: genes 27 Torsion [CA]-CB--CG-[CD2] |==|  0.65779
USER: genes 28 Torsion [C]-CA--N-[C] |==|  0.84494
USER: genes 29 Torsion [N]-C--CA-[N] |==|  0.58058
USER: genes 30 Torsion [C]-CA--CB-[CG1] |==|  0.77028
USER: genes 31 Torsion [CA]-CB--CG1-[CD1] |==|  0.24106
ROOT
ATOM      1  CA  ARG D 692       9.895 -12.035  35.912  1.00 48.73 LIG 0.18  C 
ENDROOT
BRANCH 1 2
ATOM      2  C   ARG D 692       8.388 -12.228  35.945  1.00 46.10 LIG 0.24  C 
ATOM      3  N   LEU D 693       7.924 -13.468  36.082  1.00 50.64 LIG-0.35  N 
ATOM      4 H    LEU D 693       8.409 -14.171  36.171  1.00 50.64 LIG 0.16  HD
ATOM      5 O    ARG D 692       7.636 -11.273  35.759  1.00 52.04 LIG-0.27  OA
BRANCH 3 6
ATOM      6  CA  LEU D 693       6.475 -13.692  36.084  1.00 43.34 LIG 0.18  C 
BRANCH 6 7
ATOM      7  C   LEU D 693       6.040 -14.622  37.210  1.00 37.95 LIG 0.24  C 
ATOM      8  N   LEU D 694       6.733 -14.548  38.328  1.00 39.22 LIG-0.35  N 
ATOM      9 H    LEU D 694       7.426 -14.049  38.426  1.00 39.22 LIG 0.16  HD
ATOM     10 O    LEU D 693       5.104 -15.411  37.042  1.00 43.86 LIG-0.27  OA
BRANCH 8 11
ATOM     11  CA  LEU D 694       6.388 -15.309  39.500  1.00 38.59 LIG 0.18  C 
BRANCH 11 12
ATOM     12  C   LEU D 694       5.273 -14.615  40.212  1.00 46.22 LIG 0.24  C 
ATOM     13  N   GLN D 695       5.005 -13.398  39.775  1.00 66.87 LIG-0.35  N 
ATOM     14 H    GLN D 695       5.503 -13.018  39.187  1.00 66.87 LIG 0.16  HD
ATOM     15 O    LEU D 694       4.735 -15.150  41.146  1.00 54.70 LIG-0.27  OA
BRANCH 13 16
ATOM     16  CA  GLN D 695       3.889 -12.535  40.186  1.00 62.86 LIG 0.16  C 
BRANCH 16 17
ATOM     17  CB  GLN D 695       4.292 -11.648  41.332  1.00 63.26 LIG 0.04  C 
BRANCH 17 18
ATOM     18  CG  GLN D 695       5.575 -10.918  41.038  1.00 77.24 LIG 0.10  C 
BRANCH 18 19
ATOM     19  CD  GLN D 695       5.540  -9.509  41.471  1.00 84.08 LIG 0.21  C 
ATOM     20 OE1  GLN D 695       4.728  -9.141  42.298  1.00 83.40 LIG-0.27  OA
ATOM     21  NE2 GLN D 695       6.433  -8.700  40.935  1.00 79.17 LIG-0.37  N 
ATOM     22 22HE GLN D 695       6.459  -7.873  41.168  1.00 79.17 LIG 0.16  HD
ATOM     23 21HE GLN D 695       6.991  -9.000  40.353  1.00 79.17 LIG 0.16  HD
ENDBRANCH 18 19
ENDBRANCH 17 18
ENDBRANCH 16 17
BRANCH 16 24
ATOM     24  C   GLN D 695       3.199 -11.737  39.082  1.00 61.14 LIG 0.22  C 
ATOM     25 O    GLN D 695       2.077 -11.252  39.258  1.00 66.66 LIG-0.29  OA
ENDBRANCH 16 24
ENDBRANCH 13 16
ENDBRANCH 11 12
BRANCH 11 26
ATOM     26  CB  LEU D 694       7.555 -15.405  40.460  1.00 34.51 LIG 0.04  C 
BRANCH 26 27
ATOM     27  CG  LEU D 694       7.754 -14.353  41.522  1.00 27.71 LIG-0.02  C 
ATOM     28  CD2 LEU D 694       8.091 -13.004  40.962  1.00 26.48 LIG 0.01  C 
ATOM     29  CD1 LEU D 694       8.714 -14.769  42.599  1.00 27.00 LIG 0.01  C 
ENDBRANCH 26 27
ENDBRANCH 11 26
ENDBRANCH 8 11
ENDBRANCH 6 7
BRANCH 6 30
ATOM     30  CB  LEU D 693       5.964 -14.204  34.727  1.00 45.67 LIG 0.04  C 
BRANCH 30 31
ATOM     31  CG  LEU D 693       5.659 -13.126  33.674  1.00 55.29 LIG-0.02  C 
ATOM     32  CD1 LEU D 693       4.904 -11.959  34.295  1.00 47.80 LIG 0.01  C 
ATOM     33  CD2 LEU D 693       6.923 -12.654  32.941  1.00 51.02 LIG 0.01  C 
ENDBRANCH 30 31
ENDBRANCH 6 30
ENDBRANCH 3 6
ENDBRANCH 1 2
BRANCH 1 34
ATOM     34  CB  ARG D 692      10.338 -11.888  34.441  1.00 49.09 LIG 0.04  C 
BRANCH 34 35
ATOM     35  CG  ARG D 692      11.814 -12.290  34.256  1.00 50.62 LIG 0.02  C 
BRANCH 35 36
ATOM     36  CD  ARG D 692      12.817 -11.203  34.612  1.00 57.04 LIG 0.14  C 
BRANCH 36 37
ATOM     37  NE  ARG D 692      14.107 -11.523  34.029  1.00 60.90 LIG-0.23  N 
ATOM     38 HE   ARG D 692      14.143 -11.627  33.176  1.00 60.90 LIG 0.18  HD
ATOM     39  CZ  ARG D 692      15.231 -11.668  34.714  1.00 61.50 LIG 0.67  C 
ATOM     40  NH1 ARG D 692      15.222 -11.611  36.045  1.00 46.48 LIG-0.23  N 
ATOM     41  NH2 ARG D 692      16.359 -11.919  34.063  1.00 64.68 LIG-0.23  N 
ATOM     42 1HH1 ARG D 692      14.482 -11.479  36.464  1.00 46.48 LIG 0.17  HD
ATOM     43 2HH1 ARG D 692      15.955 -11.707  36.484  1.00 46.48 LIG 0.17  HD
ATOM     44 1HH2 ARG D 692      16.355 -11.985  33.205  1.00 64.68 LIG 0.17  HD
ATOM     45 2HH2 ARG D 692      17.095 -12.015  34.498  1.00 64.68 LIG 0.17  HD
ENDBRANCH 36 37
ENDBRANCH 35 36
ENDBRANCH 34 35
ENDBRANCH 1 34
BRANCH 1 46
ATOM     46  N   ARG D 692      10.689 -13.050  36.644  1.00 43.06 LIG-0.35  N 
ATOM     47  C   HIS D 691      10.460 -13.333  37.915  1.00 44.11 LIG 0.24  C 
ATOM     48 O    HIS D 691       9.614 -12.762  38.588  1.00 43.39 LIG-0.27  OA
ATOM     49 H    ARG D 692      11.300 -13.430  36.171  1.00 43.06 LIG 0.16  HD
BRANCH 47 50
ATOM     50  CA  HIS D 691      11.303 -14.407  38.488  1.00 41.80 LIG 0.18  C 
BRANCH 50 51
ATOM     51  CB  HIS D 691      10.453 -15.631  38.494  1.00 51.00 LIG 0.10  C 
BRANCH 51 52
ATOM     52  CG  HIS D 691      10.386 -16.330  37.199  1.00 57.86 LIG 0.06  A 
ATOM     53 ND1  HIS D 691      11.222 -17.300  36.874  1.00 60.60 LIG-0.24  NA
ATOM     54  CE1 HIS D 691      10.930 -17.739  35.653  1.00 72.50 LIG 0.23  A 
ATOM     55 NE2  HIS D 691       9.909 -17.026  35.187  1.00 67.35 LIG-0.25  NA
ATOM     56  CD2 HIS D 691       9.553 -16.145  36.113  1.00 66.29 LIG 0.14  A 
ENDBRANCH 51 52
ENDBRANCH 50 51
BRANCH 50 57
ATOM     57  N   HIS D 691      11.697 -14.093  39.843  1.00 39.94 LIG-0.35  N 
ATOM     58 H    HIS D 691      11.303 -14.572  40.439  1.00 39.94 LIG 0.16  HD
ATOM     59  C   LEU D 690      12.582 -13.154  40.134  1.00 35.88 LIG 0.24  C 
ATOM     60 O    LEU D 690      13.170 -12.474  39.265  1.00 34.66 LIG-0.27  OA
BRANCH 59 61
ATOM     61  CA  LEU D 690      12.822 -12.883  41.601  1.00 33.43 LIG 0.18  C 
BRANCH 61 62
ATOM     62  CB  LEU D 690      11.864 -11.796  42.090  1.00 31.34 LIG 0.04  C 
BRANCH 62 63
ATOM     63  CG  LEU D 690      11.840 -10.500  41.287  1.00 30.93 LIG-0.02  C 
ATOM     64  CD1 LEU D 690      10.469 -10.305  40.657  1.00 30.90 LIG 0.01  C 
ATOM     65  CD2 LEU D 690      12.153  -9.328  42.197  1.00 28.62 LIG 0.01  C 
ENDBRANCH 62 63
ENDBRANCH 61 62
BRANCH 61 66
ATOM     66  N   LEU D 690      14.207 -12.476  41.848  1.00 35.22 LIG-0.35  N 
ATOM     67 H    LEU D 690      14.288 -11.720  42.251  1.00 35.22 LIG 0.16  HD
ATOM     68  C   ILE D 689      15.234 -13.227  41.472  1.00 41.04 LIG 0.26  C 
ATOM     69 O    ILE D 689      15.092 -14.339  40.943  1.00 39.56 LIG-0.27  OA
BRANCH 68 70
ATOM     70  CA  ILE D 689      16.634 -12.655  41.784  1.00 40.35 LIG 0.40  C 
ATOM     71  N   ILE D 689      17.684 -13.117  40.794  1.00 40.45 LIG 0.61  N 
BRANCH 70 72
ATOM     72  CB  ILE D 689      16.507 -11.112  41.828  1.00 42.26 LIG 0.03  C 
ATOM     73  CG2 ILE D 689      17.573 -10.502  42.756  1.00 38.55 LIG 0.01  C 
BRANCH 72 74
ATOM     74  CG1 ILE D 689      16.566 -10.503  40.424  1.00 45.91 LIG 0.00  C 
ATOM     75  CD1 ILE D 689      15.218 -10.433  39.707  1.00 45.96 LIG 0.01  C 
ENDBRANCH 72 74
ENDBRANCH 70 72
ENDBRANCH 68 70
ENDBRANCH 61 66
ENDBRANCH 59 61
ENDBRANCH 50 57
ENDBRANCH 47 50
ENDBRANCH 1 46
TORSDOF 30
ENDMDL
MODEL 32
USER: ADFR SOLUTION from run 144
USER: SCORE 21.893203 LL:  -7.160 LR: -15.134 RR:   0.000 FEB:  -6.185
USER: RMSD 7.198757
USER: SEED 143
USER: STATUS searching
USER: GENES 32
USER: genes 0 Translation |==|  0.61691 0.69951 0.44817
USER: genes 1 Rotation |==|  0.99207 0.48727 0.55057 0.57178
USER: genes 2 Torsion [N]-CA--C-[N] |==|  0.97716
USER: genes 3 Torsion [C]-N--CA-[C] |==|  0.82563
USER: genes 4 Torsion [N]-CA--C-[N] |==|  0.40821
USER: genes 5 Torsion [C]-N--CA-[C] |==|  0.76828
USER: genes 6 Torsion [N]-CA--C-[N] |==|  0.21974
USER: genes 7 Torsion [C]-N--CA-[CB] |==|  0.42046
USER: genes 8 Torsion [N]-CA--CB-[CG] |==|  0.12891
USER: genes 9 Torsion [CA]-CB--CG-[CD] |==|  0.32546
USER: genes 10 Torsion [CB]-CG--CD-[NE2] |==|  0.56305
USER: genes 11 Torsion [N]-CA--C-[O] |==|  0.89938
USER: genes 12 Torsion [N]-CA--CB-[CG] |==|  0.66569
USER: genes 13 Torsion [CA]-CB--CG-[CD2] |==|  0.23587
USER: genes 14 Torsion [N]-CA--CB-[CG] |==|  0.29955
USER: genes 15 Torsion [CA]-CB--CG-[CD1] |==|  0.30299
USER: genes 16 Torsion [C]-CA--CB-[CG] |==|  0.26206
USER: genes 17 Torsion [CA]-CB--CG-[CD] |==|  0.39941
USER: genes 18 Torsion [CB]-CG--CD-[NE] |==|  0.27470
USER: genes 19 Torsion [CG]-CD--NE-[CZ] |==|  0.73256
USER: genes 20 Torsion [C]-CA--N-[C] |==|  0.81794
USER: genes 21 Torsion [N]-C--CA-[N] |==|  0.87803
USER: genes 22 Torsion [C]-CA--CB-[CG] |==|  0.35963
USER: genes 23 Torsion [CA]-CB--CG-[ND1] |==|  0.45223
USER: genes 24 Torsion [C]-CA--N-[C] |==|  0.84444
USER: genes 25 Torsion [N]-C--CA-[N] |==|  0.95066
USER: genes 26 Torsion [C]-CA--CB-[CG] |==|  0.28437
USER: genes 27 Torsion [CA]-CB--CG-[CD2] |==|  0.01009
USER: genes 28 Torsion [C]-CA--N-[C] |==|  0.81528
USER: genes 29 Torsion [N]-C--CA-[N] |==|  0.40559
USER: genes 30 Torsion [C]-CA--CB-[CG1] |==|  0.22086
USER: genes 31 Torsion [CA]-CB--CG1-[CD1] |==|  0.51197
ROOT
ATOM      1  CA  ARG D 692      12.234 -11.261  37.908  1.00 48.73 LIG 0.18  C 
ENDROOT
BRANCH 1 2
ATOM      2  C   ARG D 692      11.058 -12.192  37.656  1.00 46.10 LIG 0.24  C 
ATOM      3  N   LEU D 693      10.590 -12.893  38.686  1.00 50.64 LIG-0.35  N 
ATOM      4 H    LEU D 693      10.887 -12.849  39.491  1.00 50.64 LIG 0.16  HD
ATOM      5 O    ARG D 692      10.626 -12.350  36.516  1.00 52.04 LIG-0.27  OA
BRANCH 3 6
ATOM      6  CA  LEU D 693       9.479 -13.824  38.470  1.00 43.34 LIG 0.18  C 
BRANCH 6 7
ATOM      7  C   LEU D 693       8.213 -13.112  38.012  1.00 37.95 LIG 0.24  C 
ATOM      8  N   LEU D 694       7.433 -13.779  37.187  1.00 39.22 LIG-0.35  N 
ATOM      9 H    LEU D 694       7.628 -14.554  36.870  1.00 39.22 LIG 0.16  HD
ATOM     10 O    LEU D 693       7.973 -11.959  38.390  1.00 43.86 LIG-0.27  OA
BRANCH 8 11
ATOM     11  CA  LEU D 694       6.168 -13.264  36.734  1.00 38.59 LIG 0.18  C 
BRANCH 11 12
ATOM     12  C   LEU D 694       5.129 -13.565  37.766  1.00 46.22 LIG 0.24  C 
ATOM     13  N   GLN D 695       5.128 -12.753  38.808  1.00 66.87 LIG-0.35  N 
ATOM     14 H    GLN D 695       5.741 -12.159  38.909  1.00 66.87 LIG 0.16  HD
ATOM     15 O    LEU D 694       4.416 -14.524  37.634  1.00 54.70 LIG-0.27  OA
BRANCH 13 16
ATOM     16  CA  GLN D 695       4.149 -12.720  39.903  1.00 62.86 LIG 0.16  C 
BRANCH 16 17
ATOM     17  CB  GLN D 695       4.784 -12.221  41.172  1.00 63.26 LIG 0.04  C 
BRANCH 17 18
ATOM     18  CG  GLN D 695       5.612 -10.988  40.926  1.00 77.24 LIG 0.10  C 
BRANCH 18 19
ATOM     19  CD  GLN D 695       5.103  -9.808  41.648  1.00 84.08 LIG 0.21  C 
ATOM     20 OE1  GLN D 695       4.422  -9.945  42.646  1.00 83.40 LIG-0.27  OA
ATOM     21  NE2 GLN D 695       5.441  -8.627  41.168  1.00 79.17 LIG-0.37  N 
ATOM     22 22HE GLN D 695       5.177  -7.911  41.564  1.00 79.17 LIG 0.16  HD
ATOM     23 21HE GLN D 695       5.924  -8.573  40.459  1.00 79.17 LIG 0.16  HD
ENDBRANCH 18 19
ENDBRANCH 17 18
ENDBRANCH 16 17
BRANCH 16 24
ATOM     24  C   GLN D 695       2.830 -12.003  39.622  1.00 61.14 LIG 0.22  C 
ATOM     25 O    GLN D 695       2.798 -10.989  38.919  1.00 66.66 LIG-0.29  OA
ENDBRANCH 16 24
ENDBRANCH 13 16
ENDBRANCH 11 12
BRANCH 11 26
ATOM     26  CB  LEU D 694       5.733 -13.920  35.441  1.00 34.51 LIG 0.04  C 
BRANCH 26 27
ATOM     27  CG  LEU D 694       5.502 -13.084  34.206  1.00 27.71 LIG-0.02  C 
ATOM     28  CD2 LEU D 694       6.756 -12.822  33.427  1.00 26.48 LIG 0.01  C 
ATOM     29  CD1 LEU D 694       4.735 -11.823  34.476  1.00 27.00 LIG 0.01  C 
ENDBRANCH 26 27
ENDBRANCH 11 26
ENDBRANCH 8 11
ENDBRANCH 6 7
BRANCH 6 30
ATOM     30  CB  LEU D 693       9.198 -14.692  39.709  1.00 45.67 LIG 0.04  C 
BRANCH 30 31
ATOM     31  CG  LEU D 693       7.915 -14.358  40.486  1.00 55.29 LIG-0.02  C 
ATOM     32  CD1 LEU D 693       6.868 -15.448  40.301  1.00 47.80 LIG 0.01  C 
ATOM     33  CD2 LEU D 693       8.190 -14.087  41.973  1.00 51.02 LIG 0.01  C 
ENDBRANCH 30 31
ENDBRANCH 6 30
ENDBRANCH 3 6
ENDBRANCH 1 2
BRANCH 1 34
ATOM     34  CB  ARG D 692      13.415 -11.713  37.024  1.00 49.09 LIG 0.04  C 
BRANCH 34 35
ATOM     35  CG  ARG D 692      13.450 -10.937  35.693  1.00 50.62 LIG 0.02  C 
BRANCH 35 36
ATOM     36  CD  ARG D 692      14.847 -10.619  35.180  1.00 57.04 LIG 0.14  C 
BRANCH 36 37
ATOM     37  NE  ARG D 692      15.223 -11.588  34.169  1.00 60.90 LIG-0.23  N 
ATOM     38 HE   ARG D 692      14.955 -11.447  33.364  1.00 60.90 LIG 0.18  HD
ATOM     39  CZ  ARG D 692      15.950 -12.672  34.393  1.00 61.50 LIG 0.67  C 
ATOM     40  NH1 ARG D 692      16.318 -12.993  35.632  1.00 46.48 LIG-0.23  N 
ATOM     41  NH2 ARG D 692      16.267 -13.461  33.375  1.00 64.68 LIG-0.23  N 
ATOM     42 1HH1 ARG D 692      16.083 -12.493  36.293  1.00 46.48 LIG 0.17  HD
ATOM     43 2HH1 ARG D 692      16.789 -13.698  35.771  1.00 46.48 LIG 0.17  HD
ATOM     44 1HH2 ARG D 692      16.002 -13.267  32.580  1.00 64.68 LIG 0.17  HD
ATOM     45 2HH2 ARG D 692      16.738 -14.168  33.509  1.00 64.68 LIG 0.17  HD
ENDBRANCH 36 37
ENDBRANCH 35 36
ENDBRANCH 34 35
ENDBRANCH 1 34
BRANCH 1 46
ATOM     46  N   ARG D 692      12.622 -11.087  39.328  1.00 43.06 LIG-0.35  N 
ATOM     47  C   HIS D 691      11.822 -10.503  40.204  1.00 44.11 LIG 0.24  C 
ATOM     48 O    HIS D 691      10.731 -10.036  39.911  1.00 43.39 LIG-0.27  OA
ATOM     49 H    ARG D 692      13.401 -11.395  39.522  1.00 43.06 LIG 0.16  HD
BRANCH 47 50
ATOM     50  CA  HIS D 691      12.332 -10.453  41.593  1.00 41.80 LIG 0.18  C 
BRANCH 50 51
ATOM     51  CB  HIS D 691      13.388  -9.401  41.601  1.00 51.00 LIG 0.10  C 
BRANCH 51 52
ATOM     52  CG  HIS D 691      13.240  -8.400  42.670  1.00 57.86 LIG 0.06  A 
ATOM     53 ND1  HIS D 691      14.231  -7.607  43.040  1.00 60.60 LIG-0.24  NA
ATOM     54  CE1 HIS D 691      13.814  -6.814  44.023  1.00 72.50 LIG 0.23  A 
ATOM     55 NE2  HIS D 691      12.548  -7.119  44.296  1.00 67.35 LIG-0.25  NA
ATOM     56  CD2 HIS D 691      12.166  -8.096  43.484  1.00 66.29 LIG 0.14  A 
ENDBRANCH 51 52
ENDBRANCH 50 51
BRANCH 50 57
ATOM     57  N   HIS D 691      12.916 -11.718  41.980  1.00 39.94 LIG-0.35  N 
ATOM     58 H    HIS D 691      13.731 -11.657  42.249  1.00 39.94 LIG 0.16  HD
ATOM     59  C   LEU D 690      12.254 -12.862  41.923  1.00 35.88 LIG 0.24  C 
ATOM     60 O    LEU D 690      11.063 -12.945  41.552  1.00 34.66 LIG-0.27  OA
BRANCH 59 61
ATOM     61  CA  LEU D 690      13.029 -14.110  42.276  1.00 33.43 LIG 0.18  C 
BRANCH 61 62
ATOM     62  CB  LEU D 690      12.636 -14.583  43.676  1.00 31.34 LIG 0.04  C 
BRANCH 62 63
ATOM     63  CG  LEU D 690      11.679 -15.768  43.750  1.00 30.93 LIG-0.02  C 
ATOM     64  CD1 LEU D 690      10.378 -15.344  44.415  1.00 30.90 LIG 0.01  C 
ATOM     65  CD2 LEU D 690      11.392 -16.281  42.351  1.00 28.62 LIG 0.01  C 
ENDBRANCH 62 63
ENDBRANCH 61 62
BRANCH 61 66
ATOM     66  N   LEU D 690      14.473 -13.874  42.216  1.00 35.22 LIG-0.35  N 
ATOM     67 H    LEU D 690      14.871 -13.920  42.977  1.00 35.22 LIG 0.16  HD
ATOM     68  C   ILE D 689      15.092 -13.614  41.071  1.00 41.04 LIG 0.26  C 
ATOM     69 O    ILE D 689      14.504 -13.608  39.979  1.00 39.56 LIG-0.27  OA
BRANCH 68 70
ATOM     70  CA  ILE D 689      16.612 -13.369  41.171  1.00 40.35 LIG 0.40  C 
ATOM     71  N   ILE D 689      17.365 -13.877  39.958  1.00 40.45 LIG 0.61  N 
BRANCH 70 72
ATOM     72  CB  ILE D 689      16.826 -11.852  41.400  1.00 42.26 LIG 0.03  C 
ATOM     73  CG2 ILE D 689      15.944 -11.026  40.445  1.00 38.55 LIG 0.01  C 
BRANCH 72 74
ATOM     74  CG1 ILE D 689      16.588 -11.465  42.863  1.00 45.91 LIG 0.00  C 
ATOM     75  CD1 ILE D 689      16.679  -9.966  43.143  1.00 45.96 LIG 0.01  C 
ENDBRANCH 72 74
ENDBRANCH 70 72
ENDBRANCH 68 70
ENDBRANCH 61 66
ENDBRANCH 59 61
ENDBRANCH 50 57
ENDBRANCH 47 50
ENDBRANCH 1 46
TORSDOF 30
ENDMDL
MODEL 33
USER: ADFR SOLUTION from run 102
USER: SCORE 21.069964 LL:  -7.216 LR: -15.121 RR:   0.000 FEB:  -6.172
USER: RMSD 6.975059
USER: SEED 101
USER: STATUS searching
USER: GENES 32
USER: genes 0 Translation |==|  0.62683 0.70009 0.44036
USER: genes 1 Rotation |==|  0.99331 0.47381 0.57136 0.52943
USER: genes 2 Torsion [N]-CA--C-[N] |==|  0.92549
USER: genes 3 Torsion [C]-N--CA-[C] |==|  0.82096
USER: genes 4 Torsion [N]-CA--C-[N] |==|  0.35695
USER: genes 5 Torsion [C]-N--CA-[C] |==|  0.76803
USER: genes 6 Torsion [N]-CA--C-[N] |==|  0.17399
USER: genes 7 Torsion [C]-N--CA-[CB] |==|  0.77400
USER: genes 8 Torsion [N]-CA--CB-[CG] |==|  0.94147
USER: genes 9 Torsion [CA]-CB--CG-[CD] |==|  0.44311
USER: genes 10 Torsion [CB]-CG--CD-[NE2] |==|  0.12040
USER: genes 11 Torsion [N]-CA--C-[O] |==|  0.00458
USER: genes 12 Torsion [N]-CA--CB-[CG] |==|  0.04269
USER: genes 13 Torsion [CA]-CB--CG-[CD2] |==|  0.16239
USER: genes 14 Torsion [N]-CA--CB-[CG] |==|  0.57336
USER: genes 15 Torsion [CA]-CB--CG-[CD1] |==|  0.71877
USER: genes 16 Torsion [C]-CA--CB-[CG] |==|  0.26219
USER: genes 17 Torsion [CA]-CB--CG-[CD] |==|  0.49607
USER: genes 18 Torsion [CB]-CG--CD-[NE] |==|  0.97098
USER: genes 19 Torsion [CG]-CD--NE-[CZ] |==|  0.37262
USER: genes 20 Torsion [C]-CA--N-[C] |==|  0.22449
USER: genes 21 Torsion [N]-C--CA-[N] |==|  0.01605
USER: genes 22 Torsion [C]-CA--CB-[CG] |==|  0.77866
USER: genes 23 Torsion [CA]-CB--CG-[ND1] |==|  0.68606
USER: genes 24 Torsion [C]-CA--N-[C] |==|  0.77718
USER: genes 25 Torsion [N]-C--CA-[N] |==|  0.98333
USER: genes 26 Torsion [C]-CA--CB-[CG] |==|  0.26282
USER: genes 27 Torsion [CA]-CB--CG-[CD2] |==|  0.57134
USER: genes 28 Torsion [C]-CA--N-[C] |==|  0.79382
USER: genes 29 Torsion [N]-C--CA-[N] |==|  0.12058
USER: genes 30 Torsion [C]-CA--CB-[CG1] |==|  0.72991
USER: genes 31 Torsion [CA]-CB--CG1-[CD1] |==|  0.64997
ROOT
ATOM      1  CA  ARG D 692      12.457 -11.250  37.756  1.00 48.73 LIG 0.18  C 
ENDROOT
BRANCH 1 2
ATOM      2  C   ARG D 692      11.296 -12.087  37.243  1.00 46.10 LIG 0.24  C 
ATOM      3  N   LEU D 693      10.967 -13.178  37.929  1.00 50.64 LIG-0.35  N 
ATOM      4 H    LEU D 693      11.347 -13.441  38.654  1.00 50.64 LIG 0.16  HD
ATOM      5 O    ARG D 692      10.750 -11.803  36.178  1.00 52.04 LIG-0.27  OA
BRANCH 3 6
ATOM      6  CA  LEU D 693       9.874 -14.026  37.443  1.00 43.34 LIG 0.18  C 
BRANCH 6 7
ATOM      7  C   LEU D 693       8.534 -13.302  37.463  1.00 37.95 LIG 0.24  C 
ATOM      8  N   LEU D 694       7.841 -13.325  36.342  1.00 39.22 LIG-0.35  N 
ATOM      9 H    LEU D 694       8.128 -13.679  35.613  1.00 39.22 LIG 0.16  HD
ATOM     10 O    LEU D 693       8.158 -12.711  38.481  1.00 43.86 LIG-0.27  OA
BRANCH 8 11
ATOM     11  CA  LEU D 694       6.525 -12.752  36.237  1.00 38.59 LIG 0.18  C 
BRANCH 11 12
ATOM     12  C   LEU D 694       5.527 -13.748  36.731  1.00 46.22 LIG 0.24  C 
ATOM     13  N   GLN D 695       5.654 -14.082  38.002  1.00 66.87 LIG-0.35  N 
ATOM     14 H    GLN D 695       6.320 -13.805  38.469  1.00 66.87 LIG 0.16  HD
ATOM     15 O    LEU D 694       4.728 -14.223  35.966  1.00 54.70 LIG-0.27  OA
BRANCH 13 16
ATOM     16  CA  GLN D 695       4.747 -14.925  38.791  1.00 62.86 LIG 0.16  C 
BRANCH 16 17
ATOM     17  CB  GLN D 695       3.566 -14.132  39.278  1.00 63.26 LIG 0.04  C 
BRANCH 17 18
ATOM     18  CG  GLN D 695       3.859 -12.655  39.284  1.00 77.24 LIG 0.10  C 
BRANCH 18 19
ATOM     19  CD  GLN D 695       2.636 -11.833  39.281  1.00 84.08 LIG 0.21  C 
ATOM     20 OE1  GLN D 695       2.548 -10.865  38.551  1.00 83.40 LIG-0.27  OA
ATOM     21  NE2 GLN D 695       1.661 -12.215  40.084  1.00 79.17 LIG-0.37  N 
ATOM     22 22HE GLN D 695       0.924 -11.773  40.106  1.00 79.17 LIG 0.16  HD
ATOM     23 21HE GLN D 695       1.763 -12.906  40.585  1.00 79.17 LIG 0.16  HD
ENDBRANCH 18 19
ENDBRANCH 17 18
ENDBRANCH 16 17
BRANCH 16 24
ATOM     24  C   GLN D 695       4.308 -16.242  38.154  1.00 61.14 LIG 0.22  C 
ATOM     25 O    GLN D 695       4.728 -16.580  37.044  1.00 66.66 LIG-0.29  OA
ENDBRANCH 16 24
ENDBRANCH 13 16
ENDBRANCH 11 12
BRANCH 11 26
ATOM     26  CB  LEU D 694       6.177 -12.426  34.801  1.00 34.51 LIG 0.04  C 
BRANCH 26 27
ATOM     27  CG  LEU D 694       6.989 -13.009  33.671  1.00 27.71 LIG-0.02  C 
ATOM     28  CD2 LEU D 694       7.007 -14.508  33.669  1.00 26.48 LIG 0.01  C 
ATOM     29  CD1 LEU D 694       8.372 -12.431  33.572  1.00 27.00 LIG 0.01  C 
ENDBRANCH 26 27
ENDBRANCH 11 26
ENDBRANCH 8 11
ENDBRANCH 6 7
BRANCH 6 30
ATOM     30  CB  LEU D 693       9.786 -15.357  38.209  1.00 45.67 LIG 0.04  C 
BRANCH 30 31
ATOM     31  CG  LEU D 693       9.161 -16.534  37.442  1.00 55.29 LIG-0.02  C 
ATOM     32  CD1 LEU D 693       7.717 -16.755  37.869  1.00 47.80 LIG 0.01  C 
ATOM     33  CD2 LEU D 693       9.280 -16.365  35.920  1.00 51.02 LIG 0.01  C 
ENDBRANCH 30 31
ENDBRANCH 6 30
ENDBRANCH 3 6
ENDBRANCH 1 2
BRANCH 1 34
ATOM     34  CB  ARG D 692      13.710 -11.584  36.919  1.00 49.09 LIG 0.04  C 
BRANCH 34 35
ATOM     35  CG  ARG D 692      13.883 -10.594  35.750  1.00 50.62 LIG 0.02  C 
BRANCH 35 36
ATOM     36  CD  ARG D 692      15.118 -10.835  34.893  1.00 57.04 LIG 0.14  C 
BRANCH 36 37
ATOM     37  NE  ARG D 692      15.976 -11.808  35.543  1.00 60.90 LIG-0.23  N 
ATOM     38 HE   ARG D 692      16.126 -11.707  36.383  1.00 60.90 LIG 0.18  HD
ATOM     39  CZ  ARG D 692      16.546 -12.838  34.936  1.00 61.50 LIG 0.67  C 
ATOM     40  NH1 ARG D 692      16.426 -12.994  33.618  1.00 46.48 LIG-0.23  N 
ATOM     41  NH2 ARG D 692      17.276 -13.686  35.647  1.00 64.68 LIG-0.23  N 
ATOM     42 1HH1 ARG D 692      15.977 -12.424  33.157  1.00 46.48 LIG 0.17  HD
ATOM     43 2HH1 ARG D 692      16.799 -13.665  33.230  1.00 46.48 LIG 0.17  HD
ATOM     44 1HH2 ARG D 692      17.375 -13.564  36.493  1.00 64.68 LIG 0.17  HD
ATOM     45 2HH2 ARG D 692      17.651 -14.359  35.263  1.00 64.68 LIG 0.17  HD
ENDBRANCH 36 37
ENDBRANCH 35 36
ENDBRANCH 34 35
ENDBRANCH 1 34
BRANCH 1 46
ATOM     46  N   ARG D 692      12.711 -11.330  39.214  1.00 43.06 LIG-0.35  N 
ATOM     47  C   HIS D 691      13.382 -12.334  39.752  1.00 44.11 LIG 0.24  C 
ATOM     48 O    HIS D 691      13.808 -13.281  39.106  1.00 43.39 LIG-0.27  OA
ATOM     49 H    ARG D 692      12.386 -10.674  39.666  1.00 43.06 LIG 0.16  HD
BRANCH 47 50
ATOM     50  CA  HIS D 691      13.597 -12.242  41.214  1.00 41.80 LIG 0.18  C 
BRANCH 50 51
ATOM     51  CB  HIS D 691      13.038 -13.498  41.788  1.00 51.00 LIG 0.10  C 
BRANCH 51 52
ATOM     52  CG  HIS D 691      11.573 -13.498  41.938  1.00 57.86 LIG 0.06  A 
ATOM     53 ND1  HIS D 691      10.982 -13.512  43.119  1.00 60.60 LIG-0.24  NA
ATOM     54  CE1 HIS D 691       9.663 -13.513  42.949  1.00 72.50 LIG 0.23  A 
ATOM     55 NE2  HIS D 691       9.411 -13.520  41.644  1.00 67.35 LIG-0.25  NA
ATOM     56  CD2 HIS D 691      10.566 -13.516  40.992  1.00 66.29 LIG 0.14  A 
ENDBRANCH 51 52
ENDBRANCH 50 51
BRANCH 50 57
ATOM     57  N   HIS D 691      12.895 -11.108  41.773  1.00 39.94 LIG-0.35  N 
ATOM     58 H    HIS D 691      12.149 -11.312  42.149  1.00 39.94 LIG 0.16  HD
ATOM     59  C   LEU D 690      13.362  -9.872  41.710  1.00 35.88 LIG 0.24  C 
ATOM     60 O    LEU D 690      14.457  -9.581  41.182  1.00 34.66 LIG-0.27  OA
BRANCH 59 61
ATOM     61  CA  LEU D 690      12.471  -8.784  42.261  1.00 33.43 LIG 0.18  C 
BRANCH 61 62
ATOM     62  CB  LEU D 690      13.143  -8.127  43.468  1.00 31.34 LIG 0.04  C 
BRANCH 62 63
ATOM     63  CG  LEU D 690      13.950  -6.863  43.191  1.00 30.93 LIG-0.02  C 
ATOM     64  CD1 LEU D 690      13.033  -5.650  43.197  1.00 30.90 LIG 0.01  C 
ATOM     65  CD2 LEU D 690      15.020  -6.697  44.254  1.00 28.62 LIG 0.01  C 
ENDBRANCH 62 63
ENDBRANCH 61 62
BRANCH 61 66
ATOM     66  N   LEU D 690      11.161  -9.313  42.648  1.00 35.22 LIG-0.35  N 
ATOM     67 H    LEU D 690      11.044  -9.385  43.497  1.00 35.22 LIG 0.16  HD
ATOM     68  C   ILE D 689      10.248  -9.647  41.744  1.00 41.04 LIG 0.26  C 
ATOM     69 O    ILE D 689      10.419  -9.483  40.527  1.00 39.56 LIG-0.27  OA
BRANCH 68 70
ATOM     70  CA  ILE D 689       8.924 -10.210  42.304  1.00 40.35 LIG 0.40  C 
ATOM     71  N   ILE D 689       8.419  -9.426  43.499  1.00 40.45 LIG 0.61  N 
BRANCH 70 72
ATOM     72  CB  ILE D 689       7.900 -10.234  41.143  1.00 42.26 LIG 0.03  C 
ATOM     73  CG2 ILE D 689       7.084 -11.540  41.161  1.00 38.55 LIG 0.01  C 
BRANCH 72 74
ATOM     74  CG1 ILE D 689       6.991  -9.002  41.169  1.00 45.91 LIG 0.00  C 
ATOM     75  CD1 ILE D 689       5.496  -9.319  41.170  1.00 45.96 LIG 0.01  C 
ENDBRANCH 72 74
ENDBRANCH 70 72
ENDBRANCH 68 70
ENDBRANCH 61 66
ENDBRANCH 59 61
ENDBRANCH 50 57
ENDBRANCH 47 50
ENDBRANCH 1 46
TORSDOF 30
ENDMDL
MODEL 34
USER: ADFR SOLUTION from run 190
USER: SCORE 21.624768 LL:  -7.161 LR: -15.117 RR:   0.000 FEB:  -6.168
USER: RMSD 6.934199
USER: SEED 189
USER: STATUS no improvement in best in 21 clusters for 5 generations
USER: GENES 32
USER: genes 0 Translation |==|  0.58557 0.73689 0.33599
USER: genes 1 Rotation |==|  0.01407 0.60383 0.53339 0.54446
USER: genes 2 Torsion [N]-CA--C-[N] |==|  0.89715
USER: genes 3 Torsion [C]-N--CA-[C] |==|  0.66608
USER: genes 4 Torsion [N]-CA--C-[N] |==|  0.95117
USER: genes 5 Torsion [C]-N--CA-[C] |==|  0.67109
USER: genes 6 Torsion [N]-CA--C-[N] |==|  0.45100
USER: genes 7 Torsion [C]-N--CA-[CB] |==|  0.32221
USER: genes 8 Torsion [N]-CA--CB-[CG] |==|  0.81705
USER: genes 9 Torsion [CA]-CB--CG-[CD] |==|  0.38650
USER: genes 10 Torsion [CB]-CG--CD-[NE2] |==|  0.49201
USER: genes 11 Torsion [N]-CA--C-[O] |==|  0.01065
USER: genes 12 Torsion [N]-CA--CB-[CG] |==|  0.97352
USER: genes 13 Torsion [CA]-CB--CG-[CD2] |==|  0.70613
USER: genes 14 Torsion [N]-CA--CB-[CG] |==|  0.53065
USER: genes 15 Torsion [CA]-CB--CG-[CD1] |==|  0.73888
USER: genes 16 Torsion [C]-CA--CB-[CG] |==|  0.62832
USER: genes 17 Torsion [CA]-CB--CG-[CD] |==|  0.79658
USER: genes 18 Torsion [CB]-CG--CD-[NE] |==|  0.45478
USER: genes 19 Torsion [CG]-CD--NE-[CZ] |==|  0.16420
USER: genes 20 Torsion [C]-CA--N-[C] |==|  0.84695
USER: genes 21 Torsion [N]-C--CA-[N] |==|  0.99809
USER: genes 22 Torsion [C]-CA--CB-[CG] |==|  0.22567
USER: genes 23 Torsion [CA]-CB--CG-[ND1] |==|  0.74204
USER: genes 24 Torsion [C]-CA--N-[C] |==|  0.78332
USER: genes 25 Torsion [N]-C--CA-[N] |==|  0.11806
USER: genes 26 Torsion [C]-CA--CB-[CG] |==|  0.27985
USER: genes 27 Torsion [CA]-CB--CG-[CD2] |==|  0.90626
USER: genes 28 Torsion [C]-CA--N-[C] |==|  0.16905
USER: genes 29 Torsion [N]-C--CA-[N] |==|  0.92950
USER: genes 30 Torsion [C]-CA--CB-[CG1] |==|  0.91686
USER: genes 31 Torsion [CA]-CB--CG1-[CD1] |==|  0.63852
ROOT
ATOM      1  CA  ARG D 692      11.528 -10.560  35.721  1.00 48.73 LIG 0.18  C 
ENDROOT
BRANCH 1 2
ATOM      2  C   ARG D 692      10.053 -10.862  35.513  1.00 46.10 LIG 0.24  C 
ATOM      3  N   LEU D 693       9.637 -12.106  35.737  1.00 50.64 LIG-0.35  N 
ATOM      4 H    LEU D 693      10.133 -12.753  36.009  1.00 50.64 LIG 0.16  HD
ATOM      5 O    ARG D 692       9.301  -9.999  35.065  1.00 52.04 LIG-0.27  OA
BRANCH 3 6
ATOM      6  CA  LEU D 693       8.227 -12.438  35.514  1.00 43.34 LIG 0.18  C 
BRANCH 6 7
ATOM      7  C   LEU D 693       7.550 -12.946  36.780  1.00 37.95 LIG 0.24  C 
ATOM      8  N   LEU D 694       8.348 -13.352  37.747  1.00 39.22 LIG-0.35  N 
ATOM      9 H    LEU D 694       9.204 -13.385  37.674  1.00 39.22 LIG 0.16  HD
ATOM     10 O    LEU D 693       6.317 -12.991  36.855  1.00 43.86 LIG-0.27  OA
BRANCH 8 11
ATOM     11  CA  LEU D 694       7.852 -13.783  39.027  1.00 38.59 LIG 0.18  C 
BRANCH 11 12
ATOM     12  C   LEU D 694       8.397 -12.877  40.083  1.00 46.22 LIG 0.24  C 
ATOM     13  N   GLN D 695       7.756 -12.917  41.237  1.00 66.87 LIG-0.35  N 
ATOM     14 H    GLN D 695       7.030 -13.369  41.326  1.00 66.87 LIG 0.16  HD
ATOM     15 O    LEU D 694       9.315 -12.143  39.826  1.00 54.70 LIG-0.27  OA
BRANCH 13 16
ATOM     16  CA  GLN D 695       8.138 -12.247  42.487  1.00 62.86 LIG 0.16  C 
BRANCH 16 17
ATOM     17  CB  GLN D 695       7.108 -11.224  42.882  1.00 63.26 LIG 0.04  C 
BRANCH 17 18
ATOM     18  CG  GLN D 695       7.050 -10.091  41.893  1.00 77.24 LIG 0.10  C 
BRANCH 18 19
ATOM     19  CD  GLN D 695       5.670  -9.656  41.608  1.00 84.08 LIG 0.21  C 
ATOM     20 OE1  GLN D 695       4.728 -10.224  42.125  1.00 83.40 LIG-0.27  OA
ATOM     21  NE2 GLN D 695       5.528  -8.627  40.794  1.00 79.17 LIG-0.37  N 
ATOM     22 22HE GLN D 695       4.743  -8.330  40.610  1.00 79.17 LIG 0.16  HD
ATOM     23 21HE GLN D 695       6.221  -8.253  40.449  1.00 79.17 LIG 0.16  HD
ENDBRANCH 18 19
ENDBRANCH 17 18
ENDBRANCH 16 17
BRANCH 16 24
ATOM     24  C   GLN D 695       8.506 -13.148  43.663  1.00 61.14 LIG 0.22  C 
ATOM     25 O    GLN D 695       8.547 -14.375  43.533  1.00 66.66 LIG-0.29  OA
ENDBRANCH 16 24
ENDBRANCH 13 16
ENDBRANCH 11 12
BRANCH 11 26
ATOM     26  CB  LEU D 694       8.305 -15.190  39.351  1.00 34.51 LIG 0.04  C 
BRANCH 26 27
ATOM     27  CG  LEU D 694       8.983 -16.031  38.298  1.00 27.71 LIG-0.02  C 
ATOM     28  CD2 LEU D 694       8.101 -17.111  37.746  1.00 26.48 LIG 0.01  C 
ATOM     29  CD1 LEU D 694      10.319 -16.564  38.730  1.00 27.00 LIG 0.01  C 
ENDBRANCH 26 27
ENDBRANCH 11 26
ENDBRANCH 8 11
ENDBRANCH 6 7
BRANCH 6 30
ATOM     30  CB  LEU D 693       8.040 -13.437  34.358  1.00 45.67 LIG 0.04  C 
BRANCH 30 31
ATOM     31  CG  LEU D 693       6.596 -13.645  33.876  1.00 55.29 LIG-0.02  C 
ATOM     32  CD1 LEU D 693       5.957 -14.838  34.574  1.00 47.80 LIG 0.01  C 
ATOM     33  CD2 LEU D 693       5.743 -12.377  34.030  1.00 51.02 LIG 0.01  C 
ENDBRANCH 30 31
ENDBRANCH 6 30
ENDBRANCH 3 6
ENDBRANCH 1 2
BRANCH 1 34
ATOM     34  CB  ARG D 692      12.269 -10.792  34.387  1.00 49.09 LIG 0.04  C 
BRANCH 34 35
ATOM     35  CG  ARG D 692      13.560 -11.607  34.595  1.00 50.62 LIG 0.02  C 
BRANCH 35 36
ATOM     36  CD  ARG D 692      14.696 -10.837  35.255  1.00 57.04 LIG 0.14  C 
BRANCH 36 37
ATOM     37  NE  ARG D 692      15.693 -11.770  35.744  1.00 60.90 LIG-0.23  N 
ATOM     38 HE   ARG D 692      15.870 -11.758  36.586  1.00 60.90 LIG 0.18  HD
ATOM     39  CZ  ARG D 692      16.352 -12.638  34.991  1.00 61.50 LIG 0.67  C 
ATOM     40  NH1 ARG D 692      16.190 -12.642  33.669  1.00 46.48 LIG-0.23  N 
ATOM     41  NH2 ARG D 692      17.210 -13.472  35.563  1.00 64.68 LIG-0.23  N 
ATOM     42 1HH1 ARG D 692      15.655 -12.078  33.300  1.00 46.48 LIG 0.17  HD
ATOM     43 2HH1 ARG D 692      16.621 -13.207  33.185  1.00 46.48 LIG 0.17  HD
ATOM     44 1HH2 ARG D 692      17.334 -13.445  36.413  1.00 64.68 LIG 0.17  HD
ATOM     45 2HH2 ARG D 692      17.643 -14.039  35.083  1.00 64.68 LIG 0.17  HD
ENDBRANCH 36 37
ENDBRANCH 35 36
ENDBRANCH 34 35
ENDBRANCH 1 34
BRANCH 1 46
ATOM     46  N   ARG D 692      12.174 -11.261  36.856  1.00 43.06 LIG-0.35  N 
ATOM     47  C   HIS D 691      11.699 -11.179  38.088  1.00 44.11 LIG 0.24  C 
ATOM     48 O    HIS D 691      10.728 -10.502  38.391  1.00 43.39 LIG-0.27  OA
ATOM     49 H    ARG D 692      12.872 -11.716  36.641  1.00 43.06 LIG 0.16  HD
BRANCH 47 50
ATOM     50  CA  HIS D 691      12.425 -11.979  39.101  1.00 41.80 LIG 0.18  C 
BRANCH 50 51
ATOM     51  CB  HIS D 691      12.969 -10.996  40.081  1.00 51.00 LIG 0.10  C 
BRANCH 51 52
ATOM     52  CG  HIS D 691      11.996 -10.544  41.090  1.00 57.86 LIG 0.06  A 
ATOM     53 ND1  HIS D 691      11.262  -9.457  40.929  1.00 60.60 LIG-0.24  NA
ATOM     54  CE1 HIS D 691      10.483  -9.293  41.994  1.00 72.50 LIG 0.23  A 
ATOM     55 NE2  HIS D 691      10.738 -10.276  42.853  1.00 67.35 LIG-0.25  NA
ATOM     56  CD2 HIS D 691      11.669 -11.061  42.329  1.00 66.29 LIG 0.14  A 
ENDBRANCH 51 52
ENDBRANCH 50 51
BRANCH 50 57
ATOM     57  N   HIS D 691      13.520 -12.709  38.502  1.00 39.94 LIG-0.35  N 
ATOM     58 H    HIS D 691      14.291 -12.353  38.636  1.00 39.94 LIG 0.16  HD
ATOM     59  C   LEU D 690      13.345 -13.824  37.810  1.00 35.88 LIG 0.24  C 
ATOM     60 O    LEU D 690      12.226 -14.352  37.635  1.00 34.66 LIG-0.27  OA
BRANCH 59 61
ATOM     61  CA  LEU D 690      14.577 -14.422  37.171  1.00 33.43 LIG 0.18  C 
BRANCH 61 62
ATOM     62  CB  LEU D 690      14.294 -15.866  36.755  1.00 31.34 LIG 0.04  C 
BRANCH 62 63
ATOM     63  CG  LEU D 690      13.990 -16.102  35.280  1.00 30.93 LIG-0.02  C 
ATOM     64  CD1 LEU D 690      13.145 -17.357  35.119  1.00 30.90 LIG 0.01  C 
ATOM     65  CD2 LEU D 690      13.243 -14.909  34.715  1.00 28.62 LIG 0.01  C 
ENDBRANCH 62 63
ENDBRANCH 61 62
BRANCH 61 66
ATOM     66  N   LEU D 690      15.723 -14.381  38.082  1.00 35.22 LIG-0.35  N 
ATOM     67 H    LEU D 690      16.390 -13.921  37.793  1.00 35.22 LIG 0.16  HD
ATOM     68  C   ILE D 689      15.709 -15.008  39.252  1.00 41.04 LIG 0.26  C 
ATOM     69 O    ILE D 689      14.715 -15.618  39.672  1.00 39.56 LIG-0.27  OA
BRANCH 68 70
ATOM     70  CA  ILE D 689      16.998 -14.889  40.093  1.00 40.35 LIG 0.40  C 
ATOM     71  N   ILE D 689      18.225 -14.627  39.242  1.00 40.45 LIG 0.61  N 
BRANCH 70 72
ATOM     72  CB  ILE D 689      16.766 -13.778  41.146  1.00 42.26 LIG 0.03  C 
ATOM     73  CG2 ILE D 689      18.104 -13.159  41.591  1.00 38.55 LIG 0.01  C 
BRANCH 72 74
ATOM     74  CG1 ILE D 689      15.795 -12.710  40.633  1.00 45.91 LIG 0.00  C 
ATOM     75  CD1 ILE D 689      16.291 -11.274  40.794  1.00 45.96 LIG 0.01  C 
ENDBRANCH 72 74
ENDBRANCH 70 72
ENDBRANCH 68 70
ENDBRANCH 61 66
ENDBRANCH 59 61
ENDBRANCH 50 57
ENDBRANCH 47 50
ENDBRANCH 1 46
TORSDOF 30
ENDMDL
MODEL 35
USER: ADFR SOLUTION from run 160
USER: SCORE 20.881641 LL:  -6.648 LR: -15.107 RR:   0.000 FEB:  -6.158
USER: RMSD 6.287894
USER: SEED 159
USER: STATUS no improvement in best in 19 clusters for 5 generations
USER: GENES 32
USER: genes 0 Translation |==|  0.55357 0.68539 0.36582
USER: genes 1 Rotation |==|  0.04275 0.49057 0.68243 0.58689
USER: genes 2 Torsion [N]-CA--C-[N] |==|  0.46569
USER: genes 3 Torsion [C]-N--CA-[C] |==|  0.16073
USER: genes 4 Torsion [N]-CA--C-[N] |==|  0.18760
USER: genes 5 Torsion [C]-N--CA-[C] |==|  0.84297
USER: genes 6 Torsion [N]-CA--C-[N] |==|  0.92719
USER: genes 7 Torsion [C]-N--CA-[CB] |==|  0.34904
USER: genes 8 Torsion [N]-CA--CB-[CG] |==|  0.99310
USER: genes 9 Torsion [CA]-CB--CG-[CD] |==|  0.25314
USER: genes 10 Torsion [CB]-CG--CD-[NE2] |==|  0.88091
USER: genes 11 Torsion [N]-CA--C-[O] |==|  0.88022
USER: genes 12 Torsion [N]-CA--CB-[CG] |==|  0.97375
USER: genes 13 Torsion [CA]-CB--CG-[CD2] |==|  0.70658
USER: genes 14 Torsion [N]-CA--CB-[CG] |==|  0.77559
USER: genes 15 Torsion [CA]-CB--CG-[CD1] |==|  0.88780
USER: genes 16 Torsion [C]-CA--CB-[CG] |==|  0.68198
USER: genes 17 Torsion [CA]-CB--CG-[CD] |==|  0.78474
USER: genes 18 Torsion [CB]-CG--CD-[NE] |==|  0.45091
USER: genes 19 Torsion [CG]-CD--NE-[CZ] |==|  0.65140
USER: genes 20 Torsion [C]-CA--N-[C] |==|  0.77735
USER: genes 21 Torsion [N]-C--CA-[N] |==|  0.47207
USER: genes 22 Torsion [C]-CA--CB-[CG] |==|  0.23394
USER: genes 23 Torsion [CA]-CB--CG-[ND1] |==|  0.74691
USER: genes 24 Torsion [C]-CA--N-[C] |==|  0.76443
USER: genes 25 Torsion [N]-C--CA-[N] |==|  0.33186
USER: genes 26 Torsion [C]-CA--CB-[CG] |==|  0.16461
USER: genes 27 Torsion [CA]-CB--CG-[CD2] |==|  0.44634
USER: genes 28 Torsion [C]-CA--N-[C] |==|  0.72259
USER: genes 29 Torsion [N]-C--CA-[N] |==|  0.90270
USER: genes 30 Torsion [C]-CA--CB-[CG1] |==|  0.92575
USER: genes 31 Torsion [CA]-CB--CG1-[CD1] |==|  0.39022
ROOT
ATOM      1  CA  ARG D 692      10.808 -11.526  36.303  1.00 48.73 LIG 0.18  C 
ENDROOT
BRANCH 1 2
ATOM      2  C   ARG D 692       9.669 -12.490  36.593  1.00 46.10 LIG 0.24  C 
ATOM      3  N   LEU D 693       8.426 -12.023  36.512  1.00 50.64 LIG-0.35  N 
ATOM      4 H    LEU D 693       8.211 -11.221  36.291  1.00 50.64 LIG 0.16  HD
ATOM      5 O    ARG D 692       9.908 -13.634  36.977  1.00 52.04 LIG-0.27  OA
BRANCH 3 6
ATOM      6  CA  LEU D 693       7.305 -12.918  36.819  1.00 43.34 LIG 0.18  C 
BRANCH 6 7
ATOM      7  C   LEU D 693       7.400 -13.495  38.225  1.00 37.95 LIG 0.24  C 
ATOM      8  N   LEU D 694       7.249 -12.642  39.218  1.00 39.22 LIG-0.35  N 
ATOM      9 H    LEU D 694       7.151 -11.796  39.106  1.00 39.22 LIG 0.16  HD
ATOM     10 O    LEU D 693       7.635 -14.697  38.392  1.00 43.86 LIG-0.27  OA
BRANCH 8 11
ATOM     11  CA  LEU D 694       7.235 -13.058  40.596  1.00 38.59 LIG 0.18  C 
BRANCH 11 12
ATOM     12  C   LEU D 694       6.161 -14.080  40.779  1.00 46.22 LIG 0.24  C 
ATOM     13  N   GLN D 695       5.163 -14.000  39.918  1.00 66.87 LIG-0.35  N 
ATOM     14 H    GLN D 695       5.110 -13.349  39.359  1.00 66.87 LIG 0.16  HD
ATOM     15 O    LEU D 694       6.224 -14.855  41.697  1.00 54.70 LIG-0.27  OA
BRANCH 13 16
ATOM     16  CA  GLN D 695       4.045 -14.941  39.768  1.00 62.86 LIG 0.16  C 
BRANCH 16 17
ATOM     17  CB  GLN D 695       2.726 -14.223  39.865  1.00 63.26 LIG 0.04  C 
BRANCH 17 18
ATOM     18  CG  GLN D 695       2.916 -12.757  40.148  1.00 77.24 LIG 0.10  C 
BRANCH 18 19
ATOM     19  CD  GLN D 695       3.000 -11.948  38.919  1.00 84.08 LIG 0.21  C 
ATOM     20 OE1  GLN D 695       2.429 -10.877  38.848  1.00 83.40 LIG-0.27  OA
ATOM     21  NE2 GLN D 695       3.732 -12.436  37.935  1.00 79.17 LIG-0.37  N 
ATOM     22 22HE GLN D 695       3.820 -11.992  37.204  1.00 79.17 LIG 0.16  HD
ATOM     23 21HE GLN D 695       4.120 -13.197  38.025  1.00 79.17 LIG 0.16  HD
ENDBRANCH 18 19
ENDBRANCH 17 18
ENDBRANCH 16 17
BRANCH 16 24
ATOM     24  C   GLN D 695       4.086 -15.866  38.554  1.00 61.14 LIG 0.22  C 
ATOM     25 O    GLN D 695       4.410 -15.439  37.442  1.00 66.66 LIG-0.29  OA
ENDBRANCH 16 24
ENDBRANCH 13 16
ENDBRANCH 11 12
BRANCH 11 26
ATOM     26  CB  LEU D 694       6.928 -11.899  41.519  1.00 34.51 LIG 0.04  C 
BRANCH 26 27
ATOM     27  CG  LEU D 694       6.893 -10.489  40.984  1.00 27.71 LIG-0.02  C 
ATOM     28  CD2 LEU D 694       8.091  -9.677  41.377  1.00 26.48 LIG 0.01  C 
ATOM     29  CD1 LEU D 694       5.607  -9.771  41.279  1.00 27.00 LIG 0.01  C 
ENDBRANCH 26 27
ENDBRANCH 11 26
ENDBRANCH 8 11
ENDBRANCH 6 7
BRANCH 6 30
ATOM     30  CB  LEU D 693       7.157 -14.040  35.777  1.00 45.67 LIG 0.04  C 
BRANCH 30 31
ATOM     31  CG  LEU D 693       6.432 -13.659  34.476  1.00 55.29 LIG-0.02  C 
ATOM     32  CD1 LEU D 693       5.239 -12.757  34.763  1.00 47.80 LIG 0.01  C 
ATOM     33  CD2 LEU D 693       7.381 -13.028  33.446  1.00 51.02 LIG 0.01  C 
ENDBRANCH 30 31
ENDBRANCH 6 30
ENDBRANCH 3 6
ENDBRANCH 1 2
BRANCH 1 34
ATOM     34  CB  ARG D 692      10.721 -11.095  34.823  1.00 49.09 LIG 0.04  C 
BRANCH 34 35
ATOM     35  CG  ARG D 692      11.935 -11.600  34.019  1.00 50.62 LIG 0.02  C 
BRANCH 35 36
ATOM     36  CD  ARG D 692      13.212 -10.799  34.227  1.00 57.04 LIG 0.14  C 
BRANCH 36 37
ATOM     37  NE  ARG D 692      14.351 -11.578  33.778  1.00 60.90 LIG-0.23  N 
ATOM     38 HE   ARG D 692      14.333 -11.881  32.974  1.00 60.90 LIG 0.18  HD
ATOM     39  CZ  ARG D 692      15.415 -11.855  34.516  1.00 61.50 LIG 0.67  C 
ATOM     40  NH1 ARG D 692      15.461 -11.492  35.797  1.00 46.48 LIG-0.23  N 
ATOM     41  NH2 ARG D 692      16.415 -12.541  33.979  1.00 64.68 LIG-0.23  N 
ATOM     42 1HH1 ARG D 692      14.796 -11.074  36.149  1.00 46.48 LIG 0.17  HD
ATOM     43 2HH1 ARG D 692      16.154 -11.675  36.271  1.00 46.48 LIG 0.17  HD
ATOM     44 1HH2 ARG D 692      16.368 -12.800  33.160  1.00 64.68 LIG 0.17  HD
ATOM     45 2HH2 ARG D 692      17.111 -12.727  34.449  1.00 64.68 LIG 0.17  HD
ENDBRANCH 36 37
ENDBRANCH 35 36
ENDBRANCH 34 35
ENDBRANCH 1 34
BRANCH 1 46
ATOM     46  N   ARG D 692      12.162 -12.000  36.676  1.00 43.06 LIG-0.35  N 
ATOM     47  C   HIS D 691      12.603 -11.942  37.921  1.00 44.11 LIG 0.24  C 
ATOM     48 O    HIS D 691      11.955 -11.467  38.843  1.00 43.39 LIG-0.27  OA
ATOM     49 H    ARG D 692      12.622 -12.310  36.019  1.00 43.06 LIG 0.16  HD
BRANCH 47 50
ATOM     50  CA  HIS D 691      13.956 -12.503  38.141  1.00 41.80 LIG 0.18  C 
BRANCH 50 51
ATOM     51  CB  HIS D 691      13.809 -13.981  38.011  1.00 51.00 LIG 0.10  C 
BRANCH 51 52
ATOM     52  CG  HIS D 691      13.868 -14.477  36.626  1.00 57.86 LIG 0.06  A 
ATOM     53 ND1  HIS D 691      12.787 -14.619  35.879  1.00 60.60 LIG-0.24  NA
ATOM     54  CE1 HIS D 691      13.139 -15.087  34.685  1.00 72.50 LIG 0.23  A 
ATOM     55 NE2  HIS D 691      14.457 -15.265  34.678  1.00 67.35 LIG-0.25  NA
ATOM     56  CD2 HIS D 691      14.936 -14.904  35.861  1.00 66.29 LIG 0.14  A 
ENDBRANCH 51 52
ENDBRANCH 50 51
BRANCH 50 57
ATOM     57  N   HIS D 691      14.442 -12.187  39.465  1.00 39.94 LIG-0.35  N 
ATOM     58 H    HIS D 691      14.300 -12.806  40.045  1.00 39.94 LIG 0.16  HD
ATOM     59  C   LEU D 690      15.049 -11.047  39.754  1.00 35.88 LIG 0.24  C 
ATOM     60 O    LEU D 690      15.273 -10.157  38.905  1.00 34.66 LIG-0.27  OA
BRANCH 59 61
ATOM     61  CA  LEU D 690      15.419 -10.826  41.202  1.00 33.43 LIG 0.18  C 
BRANCH 61 62
ATOM     62  CB  LEU D 690      14.693  -9.592  41.739  1.00 31.34 LIG 0.04  C 
BRANCH 62 63
ATOM     63  CG  LEU D 690      13.170  -9.623  41.688  1.00 30.93 LIG-0.02  C 
ATOM     64  CD1 LEU D 690      12.666 -11.009  42.063  1.00 30.90 LIG 0.01  C 
ATOM     65  CD2 LEU D 690      12.605  -8.598  42.653  1.00 28.62 LIG 0.01  C 
ENDBRANCH 62 63
ENDBRANCH 61 62
BRANCH 61 66
ATOM     66  N   LEU D 690      16.865 -10.664  41.363  1.00 35.22 LIG-0.35  N 
ATOM     67 H    LEU D 690      17.157  -9.877  41.173  1.00 35.22 LIG 0.16  HD
ATOM     68  C   ILE D 689      17.641 -11.662  41.769  1.00 41.04 LIG 0.26  C 
ATOM     69 O    ILE D 689      17.189 -12.771  42.091  1.00 39.56 LIG-0.27  OA
BRANCH 68 70
ATOM     70  CA  ILE D 689      19.147 -11.343  41.871  1.00 40.35 LIG 0.40  C 
ATOM     71  N   ILE D 689      19.613 -10.383  40.794  1.00 40.45 LIG 0.61  N 
BRANCH 70 72
ATOM     72  CB  ILE D 689      19.413 -10.798  43.296  1.00 42.26 LIG 0.03  C 
ATOM     73  CG2 ILE D 689      20.616  -9.836  43.299  1.00 38.55 LIG 0.01  C 
BRANCH 72 74
ATOM     74  CG1 ILE D 689      18.164 -10.138  43.888  1.00 45.91 LIG 0.00  C 
ATOM     75  CD1 ILE D 689      17.944 -10.420  45.374  1.00 45.96 LIG 0.01  C 
ENDBRANCH 72 74
ENDBRANCH 70 72
ENDBRANCH 68 70
ENDBRANCH 61 66
ENDBRANCH 59 61
ENDBRANCH 50 57
ENDBRANCH 47 50
ENDBRANCH 1 46
TORSDOF 30
ENDMDL
MODEL 36
USER: ADFR SOLUTION from run 20
USER: SCORE 20.228202 LL:  -6.846 LR: -15.077 RR:   0.000 FEB:  -6.128
USER: RMSD 6.390674
USER: SEED 19
USER: STATUS no improvement in best in 35 clusters for 5 generations
USER: GENES 32
USER: genes 0 Translation |==|  0.53500 0.69495 0.32033
USER: genes 1 Rotation |==|  0.00201 0.45720 0.48751 0.50390
USER: genes 2 Torsion [N]-CA--C-[N] |==|  0.91610
USER: genes 3 Torsion [C]-N--CA-[C] |==|  0.81698
USER: genes 4 Torsion [N]-CA--C-[N] |==|  0.95943
USER: genes 5 Torsion [C]-N--CA-[C] |==|  0.19301
USER: genes 6 Torsion [N]-CA--C-[N] |==|  0.49675
USER: genes 7 Torsion [C]-N--CA-[CB] |==|  0.51571
USER: genes 8 Torsion [N]-CA--CB-[CG] |==|  0.86383
USER: genes 9 Torsion [CA]-CB--CG-[CD] |==|  0.31426
USER: genes 10 Torsion [CB]-CG--CD-[NE2] |==|  0.19266
USER: genes 11 Torsion [N]-CA--C-[O] |==|  0.99987
USER: genes 12 Torsion [N]-CA--CB-[CG] |==|  0.86138
USER: genes 13 Torsion [CA]-CB--CG-[CD2] |==|  0.65018
USER: genes 14 Torsion [N]-CA--CB-[CG] |==|  0.95866
USER: genes 15 Torsion [CA]-CB--CG-[CD1] |==|  0.37685
USER: genes 16 Torsion [C]-CA--CB-[CG] |==|  0.85174
USER: genes 17 Torsion [CA]-CB--CG-[CD] |==|  0.74245
USER: genes 18 Torsion [CB]-CG--CD-[NE] |==|  0.76395
USER: genes 19 Torsion [CG]-CD--NE-[CZ] |==|  0.39192
USER: genes 20 Torsion [C]-CA--N-[C] |==|  0.86111
USER: genes 21 Torsion [N]-C--CA-[N] |==|  0.91848
USER: genes 22 Torsion [C]-CA--CB-[CG] |==|  0.31981
USER: genes 23 Torsion [CA]-CB--CG-[ND1] |==|  0.78106
USER: genes 24 Torsion [C]-CA--N-[C] |==|  0.84059
USER: genes 25 Torsion [N]-C--CA-[N] |==|  0.15009
USER: genes 26 Torsion [C]-CA--CB-[CG] |==|  0.43046
USER: genes 27 Torsion [CA]-CB--CG-[CD2] |==|  0.02440
USER: genes 28 Torsion [C]-CA--N-[C] |==|  0.79636
USER: genes 29 Torsion [N]-C--CA-[N] |==|  0.20341
USER: genes 30 Torsion [C]-CA--CB-[CG1] |==|  0.13949
USER: genes 31 Torsion [CA]-CB--CG1-[CD1] |==|  0.46734
ROOT
ATOM      1  CA  ARG D 692      10.391 -11.347  35.415  1.00 48.73 LIG 0.18  C 
ENDROOT
BRANCH 1 2
ATOM      2  C   ARG D 692       9.397 -12.443  35.066  1.00 46.10 LIG 0.24  C 
ATOM      3  N   LEU D 693       9.589 -13.647  35.599  1.00 50.64 LIG-0.35  N 
ATOM      4 H    LEU D 693      10.222 -13.853  36.142  1.00 50.64 LIG 0.16  HD
ATOM      5 O    ARG D 692       8.505 -12.233  34.245  1.00 52.04 LIG-0.27  OA
BRANCH 3 6
ATOM      6  CA  LEU D 693       8.668 -14.735  35.256  1.00 43.34 LIG 0.18  C 
BRANCH 6 7
ATOM      7  C   LEU D 693       7.260 -14.481  35.779  1.00 37.95 LIG 0.24  C 
ATOM      8  N   LEU D 694       7.135 -13.530  36.681  1.00 39.22 LIG-0.35  N 
ATOM      9 H    LEU D 694       7.800 -13.095  37.009  1.00 39.22 LIG 0.16  HD
ATOM     10 O    LEU D 693       6.313 -15.167  35.380  1.00 43.86 LIG-0.27  OA
BRANCH 8 11
ATOM     11  CA  LEU D 694       5.856 -13.127  37.205  1.00 38.59 LIG 0.18  C 
BRANCH 11 12
ATOM     12  C   LEU D 694       5.318 -14.230  38.058  1.00 46.22 LIG 0.24  C 
ATOM     13  N   GLN D 695       4.152 -13.978  38.624  1.00 66.87 LIG-0.35  N 
ATOM     14 H    GLN D 695       3.789 -13.200  38.566  1.00 66.87 LIG 0.16  HD
ATOM     15 O    LEU D 694       5.971 -15.226  38.229  1.00 54.70 LIG-0.27  OA
BRANCH 13 16
ATOM     16  CA  GLN D 695       3.323 -14.911  39.398  1.00 62.86 LIG 0.16  C 
BRANCH 16 17
ATOM     17  CB  GLN D 695       2.004 -14.283  39.758  1.00 63.26 LIG 0.04  C 
BRANCH 17 18
ATOM     18  CG  GLN D 695       2.191 -12.912  40.352  1.00 77.24 LIG 0.10  C 
BRANCH 18 19
ATOM     19  CD  GLN D 695       1.660 -11.842  39.488  1.00 84.08 LIG 0.21  C 
ATOM     20 OE1  GLN D 695       2.418 -11.080  38.919  1.00 83.40 LIG-0.27  OA
ATOM     21  NE2 GLN D 695       0.349 -11.777  39.360  1.00 79.17 LIG-0.37  N 
ATOM     22 22HE GLN D 695      -0.005 -11.177  38.856  1.00 79.17 LIG 0.16  HD
ATOM     23 21HE GLN D 695      -0.152 -12.335  39.781  1.00 79.17 LIG 0.16  HD
ENDBRANCH 18 19
ENDBRANCH 17 18
ENDBRANCH 16 17
BRANCH 16 24
ATOM     24  C   GLN D 695       3.132 -16.307  38.810  1.00 61.14 LIG 0.22  C 
ATOM     25 O    GLN D 695       3.654 -16.620  37.737  1.00 66.66 LIG-0.29  OA
ENDBRANCH 16 24
ENDBRANCH 13 16
ENDBRANCH 11 12
BRANCH 11 26
ATOM     26  CB  LEU D 694       4.858 -12.876  36.096  1.00 34.51 LIG 0.04  C 
BRANCH 26 27
ATOM     27  CG  LEU D 694       5.225 -11.992  34.929  1.00 27.71 LIG-0.02  C 
ATOM     28  CD2 LEU D 694       4.248 -10.878  34.701  1.00 26.48 LIG 0.01  C 
ATOM     29  CD1 LEU D 694       5.507 -12.758  33.668  1.00 27.00 LIG 0.01  C 
ENDBRANCH 26 27
ENDBRANCH 11 26
ENDBRANCH 8 11
ENDBRANCH 6 7
BRANCH 6 30
ATOM     30  CB  LEU D 693       9.186 -16.105  35.728  1.00 45.67 LIG 0.04  C 
BRANCH 30 31
ATOM     31  CG  LEU D 693      10.669 -16.161  36.128  1.00 55.29 LIG-0.02  C 
ATOM     32  CD1 LEU D 693      10.853 -16.940  37.423  1.00 47.80 LIG 0.01  C 
ATOM     33  CD2 LEU D 693      11.554 -16.719  35.004  1.00 51.02 LIG 0.01  C 
ENDBRANCH 30 31
ENDBRANCH 6 30
ENDBRANCH 3 6
ENDBRANCH 1 2
BRANCH 1 34
ATOM     34  CB  ARG D 692      11.431 -11.248  34.280  1.00 49.09 LIG 0.04  C 
BRANCH 34 35
ATOM     35  CG  ARG D 692      12.075 -12.618  33.989  1.00 50.62 LIG 0.02  C 
BRANCH 35 36
ATOM     36  CD  ARG D 692      13.365 -12.888  34.751  1.00 57.04 LIG 0.14  C 
BRANCH 36 37
ATOM     37  NE  ARG D 692      14.484 -12.313  34.029  1.00 60.90 LIG-0.23  N 
ATOM     38 HE   ARG D 692      14.476 -12.372  33.171  1.00 60.90 LIG 0.18  HD
ATOM     39  CZ  ARG D 692      15.517 -11.706  34.593  1.00 61.50 LIG 0.67  C 
ATOM     40  NH1 ARG D 692      15.632 -11.664  35.919  1.00 46.48 LIG-0.23  N 
ATOM     41  NH2 ARG D 692      16.460 -11.180  33.822  1.00 64.68 LIG-0.23  N 
ATOM     42 1HH1 ARG D 692      15.033 -12.033  36.414  1.00 46.48 LIG 0.17  HD
ATOM     43 2HH1 ARG D 692      16.305 -11.269  36.279  1.00 46.48 LIG 0.17  HD
ATOM     44 1HH2 ARG D 692      16.396 -11.236  32.966  1.00 64.68 LIG 0.17  HD
ATOM     45 2HH2 ARG D 692      17.135 -10.784  34.178  1.00 64.68 LIG 0.17  HD
ENDBRANCH 36 37
ENDBRANCH 35 36
ENDBRANCH 34 35
ENDBRANCH 1 34
BRANCH 1 46
ATOM     46  N   ARG D 692      11.019 -11.452  36.754  1.00 43.06 LIG-0.35  N 
ATOM     47  C   HIS D 691      10.302 -11.633  37.850  1.00 44.11 LIG 0.24  C 
ATOM     48 O    HIS D 691       9.081 -11.691  37.852  1.00 43.39 LIG-0.27  OA
ATOM     49 H    ARG D 692      11.877 -11.385  36.748  1.00 43.06 LIG 0.16  HD
BRANCH 47 50
ATOM     50  CA  HIS D 691      11.082 -11.771  39.101  1.00 41.80 LIG 0.18  C 
BRANCH 50 51
ATOM     51  CB  HIS D 691      11.252 -10.387  39.628  1.00 51.00 LIG 0.10  C 
BRANCH 51 52
ATOM     52  CG  HIS D 691      10.583 -10.142  40.917  1.00 57.86 LIG 0.06  A 
ATOM     53 ND1  HIS D 691       9.284  -9.915  41.008  1.00 60.60 LIG-0.24  NA
ATOM     54  CE1 HIS D 691       8.962  -9.724  42.284  1.00 72.50 LIG 0.23  A 
ATOM     55 NE2  HIS D 691      10.071  -9.811  43.012  1.00 67.35 LIG-0.25  NA
ATOM     56  CD2 HIS D 691      11.089 -10.062  42.200  1.00 66.29 LIG 0.14  A 
ENDBRANCH 51 52
ENDBRANCH 50 51
BRANCH 50 57
ATOM     57  N   HIS D 691      12.383 -12.347  38.844  1.00 39.94 LIG-0.35  N 
ATOM     58 H    HIS D 691      13.038 -11.856  39.106  1.00 39.94 LIG 0.16  HD
ATOM     59  C   LEU D 690      12.544 -13.523  38.259  1.00 35.88 LIG 0.24  C 
ATOM     60 O    LEU D 690      11.590 -14.245  37.899  1.00 34.66 LIG-0.27  OA
BRANCH 59 61
ATOM     61  CA  LEU D 690      13.967 -13.948  37.979  1.00 33.43 LIG 0.18  C 
BRANCH 61 62
ATOM     62  CB  LEU D 690      13.978 -15.363  37.398  1.00 31.34 LIG 0.04  C 
BRANCH 62 63
ATOM     63  CG  LEU D 690      15.177 -15.732  36.531  1.00 30.93 LIG-0.02  C 
ATOM     64  CD1 LEU D 690      14.739 -15.906  35.085  1.00 30.90 LIG 0.01  C 
ATOM     65  CD2 LEU D 690      16.227 -14.640  36.618  1.00 28.62 LIG 0.01  C 
ENDBRANCH 62 63
ENDBRANCH 61 62
BRANCH 61 66
ATOM     66  N   LEU D 690      14.785 -13.901  39.192  1.00 35.22 LIG-0.35  N 
ATOM     67 H    LEU D 690      14.979 -14.672  39.519  1.00 35.22 LIG 0.16  HD
ATOM     68  C   ILE D 689      15.183 -12.751  39.723  1.00 41.04 LIG 0.26  C 
ATOM     69 O    ILE D 689      14.938 -11.653  39.201  1.00 39.56 LIG-0.27  OA
BRANCH 68 70
ATOM     70  CA  ILE D 689      16.023 -12.862  41.013  1.00 40.35 LIG 0.40  C 
ATOM     71  N   ILE D 689      17.432 -13.355  40.749  1.00 40.45 LIG 0.61  N 
BRANCH 70 72
ATOM     72  CB  ILE D 689      16.006 -11.475  41.701  1.00 42.26 LIG 0.03  C 
ATOM     73  CG2 ILE D 689      16.920 -10.484  40.956  1.00 38.55 LIG 0.01  C 
BRANCH 72 74
ATOM     74  CG1 ILE D 689      14.581 -10.932  41.838  1.00 45.91 LIG 0.00  C 
ATOM     75  CD1 ILE D 689      14.454  -9.712  42.750  1.00 45.96 LIG 0.01  C 
ENDBRANCH 72 74
ENDBRANCH 70 72
ENDBRANCH 68 70
ENDBRANCH 61 66
ENDBRANCH 59 61
ENDBRANCH 50 57
ENDBRANCH 47 50
ENDBRANCH 1 46
TORSDOF 30
ENDMDL
MODEL 37
USER: ADFR SOLUTION from run 109
USER: SCORE 19.650446 LL:  -6.358 LR: -15.074 RR:   0.000 FEB:  -6.125
USER: RMSD 6.134560
USER: SEED 108
USER: STATUS no improvement in best in 18 clusters for 5 generations
USER: GENES 32
USER: genes 0 Translation |==|  0.53381 0.62550 0.35849
USER: genes 1 Rotation |==|  0.06445 0.57079 0.68240 0.64837
USER: genes 2 Torsion [N]-CA--C-[N] |==|  0.50194
USER: genes 3 Torsion [C]-N--CA-[C] |==|  0.14503
USER: genes 4 Torsion [N]-CA--C-[N] |==|  0.10966
USER: genes 5 Torsion [C]-N--CA-[C] |==|  0.84939
USER: genes 6 Torsion [N]-CA--C-[N] |==|  0.87393
USER: genes 7 Torsion [C]-N--CA-[CB] |==|  0.81402
USER: genes 8 Torsion [N]-CA--CB-[CG] |==|  0.55060
USER: genes 9 Torsion [CA]-CB--CG-[CD] |==|  0.16601
USER: genes 10 Torsion [CB]-CG--CD-[NE2] |==|  0.51779
USER: genes 11 Torsion [N]-CA--C-[O] |==|  0.21813
USER: genes 12 Torsion [N]-CA--CB-[CG] |==|  0.05990
USER: genes 13 Torsion [CA]-CB--CG-[CD2] |==|  0.60881
USER: genes 14 Torsion [N]-CA--CB-[CG] |==|  0.79530
USER: genes 15 Torsion [CA]-CB--CG-[CD1] |==|  0.87522
USER: genes 16 Torsion [C]-CA--CB-[CG] |==|  0.58056
USER: genes 17 Torsion [CA]-CB--CG-[CD] |==|  0.80053
USER: genes 18 Torsion [CB]-CG--CD-[NE] |==|  0.48015
USER: genes 19 Torsion [CG]-CD--NE-[CZ] |==|  0.62759
USER: genes 20 Torsion [C]-CA--N-[C] |==|  0.13626
USER: genes 21 Torsion [N]-C--CA-[N] |==|  0.10470
USER: genes 22 Torsion [C]-CA--CB-[CG] |==|  0.22492
USER: genes 23 Torsion [CA]-CB--CG-[ND1] |==|  0.16904
USER: genes 24 Torsion [C]-CA--N-[C] |==|  0.72631
USER: genes 25 Torsion [N]-C--CA-[N] |==|  0.41481
USER: genes 26 Torsion [C]-CA--CB-[CG] |==|  0.87384
USER: genes 27 Torsion [CA]-CB--CG-[CD2] |==|  0.71001
USER: genes 28 Torsion [C]-CA--N-[C] |==|  0.68963
USER: genes 29 Torsion [N]-C--CA-[N] |==|  0.39545
USER: genes 30 Torsion [C]-CA--CB-[CG1] |==|  0.14381
USER: genes 31 Torsion [CA]-CB--CG1-[CD1] |==|  0.68814
ROOT
ATOM      1  CA  ARG D 692      10.364 -12.649  36.160  1.00 48.73 LIG 0.18  C 
ENDROOT
BRANCH 1 2
ATOM      2  C   ARG D 692       8.967 -13.157  36.476  1.00 46.10 LIG 0.24  C 
ATOM      3  N   LEU D 693       7.950 -12.311  36.327  1.00 50.64 LIG-0.35  N 
ATOM      4 H    LEU D 693       8.017 -11.501  36.047  1.00 50.64 LIG 0.16  HD
ATOM      5 O    ARG D 692       8.807 -14.284  36.942  1.00 52.04 LIG-0.27  OA
BRANCH 3 6
ATOM      6  CA  LEU D 693       6.594 -12.758  36.656  1.00 43.34 LIG 0.18  C 
BRANCH 6 7
ATOM      7  C   LEU D 693       6.510 -13.359  38.053  1.00 37.95 LIG 0.24  C 
ATOM      8  N   LEU D 694       7.213 -12.756  38.990  1.00 39.22 LIG-0.35  N 
ATOM      9 H    LEU D 694       7.736 -12.091  38.839  1.00 39.22 LIG 0.16  HD
ATOM     10 O    LEU D 693       5.834 -14.373  38.258  1.00 43.86 LIG-0.27  OA
BRANCH 8 11
ATOM     11  CA  LEU D 694       7.169 -13.164  40.370  1.00 38.59 LIG 0.18  C 
BRANCH 11 12
ATOM     12  C   LEU D 694       5.745 -13.172  40.823  1.00 46.22 LIG 0.24  C 
ATOM     13  N   GLN D 695       5.043 -12.111  40.471  1.00 66.87 LIG-0.35  N 
ATOM     14 H    GLN D 695       5.416 -11.438  40.088  1.00 66.87 LIG 0.16  HD
ATOM     15 O    LEU D 694       5.341 -14.075  41.508  1.00 54.70 LIG-0.27  OA
BRANCH 13 16
ATOM     16  CA  GLN D 695       3.600 -11.902  40.655  1.00 62.86 LIG 0.16  C 
BRANCH 16 17
ATOM     17  CB  GLN D 695       2.808 -12.855  39.803  1.00 63.26 LIG 0.04  C 
BRANCH 17 18
ATOM     18  CG  GLN D 695       1.387 -12.388  39.631  1.00 77.24 LIG 0.10  C 
BRANCH 18 19
ATOM     19  CD  GLN D 695       1.298 -11.063  38.991  1.00 84.08 LIG 0.21  C 
ATOM     20 OE1  GLN D 695       2.294 -10.528  38.544  1.00 83.40 LIG-0.27  OA
ATOM     21  NE2 GLN D 695       0.098 -10.518  38.919  1.00 79.17 LIG-0.37  N 
ATOM     22 22HE GLN D 695      -0.004  -9.752  38.543  1.00 79.17 LIG 0.16  HD
ATOM     23 21HE GLN D 695      -0.581 -10.930  39.248  1.00 79.17 LIG 0.16  HD
ENDBRANCH 18 19
ENDBRANCH 17 18
ENDBRANCH 16 17
BRANCH 16 24
ATOM     24  C   GLN D 695       3.089 -11.888  42.095  1.00 61.14 LIG 0.22  C 
ATOM     25 O    GLN D 695       3.228 -10.888  42.806  1.00 66.66 LIG-0.29  OA
ENDBRANCH 16 24
ENDBRANCH 13 16
ENDBRANCH 11 12
BRANCH 11 26
ATOM     26  CB  LEU D 694       7.928 -12.200  41.256  1.00 34.51 LIG 0.04  C 
BRANCH 26 27
ATOM     27  CG  LEU D 694       8.188 -10.787  40.795  1.00 27.71 LIG-0.02  C 
ATOM     28  CD2 LEU D 694       9.551 -10.286  41.166  1.00 26.48 LIG 0.01  C 
ATOM     29  CD1 LEU D 694       7.107  -9.824  41.192  1.00 27.00 LIG 0.01  C 
ENDBRANCH 26 27
ENDBRANCH 11 26
ENDBRANCH 8 11
ENDBRANCH 6 7
BRANCH 6 30
ATOM     30  CB  LEU D 693       6.034 -13.736  35.608  1.00 45.67 LIG 0.04  C 
BRANCH 30 31
ATOM     31  CG  LEU D 693       5.618 -13.116  34.265  1.00 55.29 LIG-0.02  C 
ATOM     32  CD1 LEU D 693       4.818 -11.838  34.481  1.00 47.80 LIG 0.01  C 
ATOM     33  CD2 LEU D 693       6.818 -12.879  33.336  1.00 51.02 LIG 0.01  C 
ENDBRANCH 30 31
ENDBRANCH 6 30
ENDBRANCH 3 6
ENDBRANCH 1 2
BRANCH 1 34
ATOM     34  CB  ARG D 692      10.348 -12.017  34.752  1.00 49.09 LIG 0.04  C 
BRANCH 34 35
ATOM     35  CG  ARG D 692      11.725 -12.134  34.069  1.00 50.62 LIG 0.02  C 
BRANCH 35 36
ATOM     36  CD  ARG D 692      12.801 -11.229  34.651  1.00 57.04 LIG 0.14  C 
BRANCH 36 37
ATOM     37  NE  ARG D 692      14.080 -11.546  34.046  1.00 60.90 LIG-0.23  N 
ATOM     38 HE   ARG D 692      14.104 -11.642  33.191  1.00 60.90 LIG 0.18  HD
ATOM     39  CZ  ARG D 692      15.215 -11.700  34.712  1.00 61.50 LIG 0.67  C 
ATOM     40  NH1 ARG D 692      15.226 -11.655  36.043  1.00 46.48 LIG-0.23  N 
ATOM     41  NH2 ARG D 692      16.332 -11.947  34.041  1.00 64.68 LIG-0.23  N 
ATOM     42 1HH1 ARG D 692      14.493 -11.525  36.475  1.00 46.48 LIG 0.17  HD
ATOM     43 2HH1 ARG D 692      15.965 -11.756  36.470  1.00 46.48 LIG 0.17  HD
ATOM     44 1HH2 ARG D 692      16.315 -12.005  33.183  1.00 64.68 LIG 0.17  HD
ATOM     45 2HH2 ARG D 692      17.074 -12.049  34.464  1.00 64.68 LIG 0.17  HD
ENDBRANCH 36 37
ENDBRANCH 35 36
ENDBRANCH 34 35
ENDBRANCH 1 34
BRANCH 1 46
ATOM     46  N   ARG D 692      11.459 -13.634  36.327  1.00 43.06 LIG-0.35  N 
ATOM     47  C   HIS D 691      11.391 -14.848  35.808  1.00 44.11 LIG 0.24  C 
ATOM     48 O    HIS D 691      10.420 -15.263  35.191  1.00 43.39 LIG-0.27  OA
ATOM     49 H    ARG D 692      12.128 -13.345  36.783  1.00 43.06 LIG 0.16  HD
BRANCH 47 50
ATOM     50  CA  HIS D 691      12.587 -15.695  36.018  1.00 41.80 LIG 0.18  C 
BRANCH 50 51
ATOM     51  CB  HIS D 691      12.112 -17.104  35.913  1.00 51.00 LIG 0.10  C 
BRANCH 51 52
ATOM     52  CG  HIS D 691      11.963 -17.593  34.533  1.00 57.86 LIG 0.06  A 
ATOM     53 ND1  HIS D 691      12.979 -17.658  33.690  1.00 60.60 LIG-0.24  NA
ATOM     54  CE1 HIS D 691      12.552 -18.130  32.523  1.00 72.50 LIG 0.23  A 
ATOM     55 NE2  HIS D 691      11.243 -18.348  32.616  1.00 67.35 LIG-0.25  NA
ATOM     56  CD2 HIS D 691      10.848 -18.023  33.839  1.00 66.29 LIG 0.14  A 
ENDBRANCH 51 52
ENDBRANCH 50 51
BRANCH 50 57
ATOM     57  N   HIS D 691      13.154 -15.480  37.331  1.00 39.94 LIG-0.35  N 
ATOM     58 H    HIS D 691      12.756 -15.915  37.957  1.00 39.94 LIG 0.16  HD
ATOM     59  C   LEU D 690      14.189 -14.685  37.544  1.00 35.88 LIG 0.24  C 
ATOM     60 O    LEU D 690      14.780 -14.071  36.629  1.00 34.66 LIG-0.27  OA
BRANCH 59 61
ATOM     61  CA  LEU D 690      14.609 -14.493  38.983  1.00 33.43 LIG 0.18  C 
BRANCH 61 62
ATOM     62  CB  LEU D 690      13.842 -13.319  39.593  1.00 31.34 LIG 0.04  C 
BRANCH 62 63
ATOM     63  CG  LEU D 690      13.748 -12.055  38.747  1.00 30.93 LIG-0.02  C 
ATOM     64  CD1 LEU D 690      12.325 -11.518  38.773  1.00 30.90 LIG 0.01  C 
ATOM     65  CD2 LEU D 690      14.698 -11.005  39.290  1.00 28.62 LIG 0.01  C 
ENDBRANCH 62 63
ENDBRANCH 61 62
BRANCH 61 66
ATOM     66  N   LEU D 690      16.050 -14.257  39.090  1.00 35.22 LIG-0.35  N 
ATOM     67 H    LEU D 690      16.311 -13.504  38.766  1.00 35.22 LIG 0.16  HD
ATOM     68  C   ILE D 689      16.865 -15.145  39.646  1.00 41.04 LIG 0.26  C 
ATOM     69 O    ILE D 689      16.458 -16.199  40.157  1.00 39.56 LIG-0.27  OA
BRANCH 68 70
ATOM     70  CA  ILE D 689      18.360 -14.763  39.668  1.00 40.35 LIG 0.40  C 
ATOM     71  N   ILE D 689      19.053 -15.198  40.944  1.00 40.45 LIG 0.61  N 
BRANCH 70 72
ATOM     72  CB  ILE D 689      19.016 -15.375  38.406  1.00 42.26 LIG 0.03  C 
ATOM     73  CG2 ILE D 689      19.164 -16.901  38.552  1.00 38.55 LIG 0.01  C 
BRANCH 72 74
ATOM     74  CG1 ILE D 689      18.247 -15.003  37.135  1.00 45.91 LIG 0.00  C 
ATOM     75  CD1 ILE D 689      17.546 -16.178  36.454  1.00 45.96 LIG 0.01  C 
ENDBRANCH 72 74
ENDBRANCH 70 72
ENDBRANCH 68 70
ENDBRANCH 61 66
ENDBRANCH 59 61
ENDBRANCH 50 57
ENDBRANCH 47 50
ENDBRANCH 1 46
TORSDOF 30
ENDMDL
MODEL 38
USER: ADFR SOLUTION from run 85
USER: SCORE 21.407556 LL:  -7.320 LR: -15.069 RR:   0.000 FEB:  -6.120
USER: RMSD 7.723572
USER: SEED 84
USER: STATUS no improvement in best in 15 clusters for 5 generations
USER: GENES 32
USER: genes 0 Translation |==|  0.64478 0.69738 0.46021
USER: genes 1 Rotation |==|  0.99137 0.53563 0.58515 0.50603
USER: genes 2 Torsion [N]-CA--C-[N] |==|  0.14329
USER: genes 3 Torsion [C]-N--CA-[C] |==|  0.81971
USER: genes 4 Torsion [N]-CA--C-[N] |==|  0.91304
USER: genes 5 Torsion [C]-N--CA-[C] |==|  0.15404
USER: genes 6 Torsion [N]-CA--C-[N] |==|  0.12948
USER: genes 7 Torsion [C]-N--CA-[CB] |==|  0.32922
USER: genes 8 Torsion [N]-CA--CB-[CG] |==|  0.89727
USER: genes 9 Torsion [CA]-CB--CG-[CD] |==|  0.51963
USER: genes 10 Torsion [CB]-CG--CD-[NE2] |==|  0.57269
USER: genes 11 Torsion [N]-CA--C-[O] |==|  0.08600
USER: genes 12 Torsion [N]-CA--CB-[CG] |==|  0.80187
USER: genes 13 Torsion [CA]-CB--CG-[CD2] |==|  0.73819
USER: genes 14 Torsion [N]-CA--CB-[CG] |==|  0.16416
USER: genes 15 Torsion [CA]-CB--CG-[CD1] |==|  0.41438
USER: genes 16 Torsion [C]-CA--CB-[CG] |==|  0.21467
USER: genes 17 Torsion [CA]-CB--CG-[CD] |==|  0.56279
USER: genes 18 Torsion [CB]-CG--CD-[NE] |==|  0.99057
USER: genes 19 Torsion [CG]-CD--NE-[CZ] |==|  0.38956
USER: genes 20 Torsion [C]-CA--N-[C] |==|  0.73686
USER: genes 21 Torsion [N]-C--CA-[N] |==|  0.05489
USER: genes 22 Torsion [C]-CA--CB-[CG] |==|  0.52470
USER: genes 23 Torsion [CA]-CB--CG-[ND1] |==|  0.92286
USER: genes 24 Torsion [C]-CA--N-[C] |==|  0.17562
USER: genes 25 Torsion [N]-C--CA-[N] |==|  0.24664
USER: genes 26 Torsion [C]-CA--CB-[CG] |==|  0.26225
USER: genes 27 Torsion [CA]-CB--CG-[CD2] |==|  0.08660
USER: genes 28 Torsion [C]-CA--N-[C] |==|  0.73975
USER: genes 29 Torsion [N]-C--CA-[N] |==|  0.31868
USER: genes 30 Torsion [C]-CA--CB-[CG1] |==|  0.43172
USER: genes 31 Torsion [CA]-CB--CG1-[CD1] |==|  0.54389
ROOT
ATOM      1  CA  ARG D 692      12.861 -11.301  38.143  1.00 48.73 LIG 0.18  C 
ENDROOT
BRANCH 1 2
ATOM      2  C   ARG D 692      11.977 -12.376  37.531  1.00 46.10 LIG 0.24  C 
ATOM      3  N   LEU D 693      10.785 -12.588  38.082  1.00 50.64 LIG-0.35  N 
ATOM      4 H    LEU D 693      10.463 -12.152  38.750  1.00 50.64 LIG 0.16  HD
ATOM      5 O    ARG D 692      12.401 -13.079  36.615  1.00 52.04 LIG-0.27  OA
BRANCH 3 6
ATOM      6  CA  LEU D 693       9.922 -13.640  37.537  1.00 43.34 LIG 0.18  C 
BRANCH 6 7
ATOM      7  C   LEU D 693       9.479 -13.337  36.112  1.00 37.95 LIG 0.24  C 
ATOM      8  N   LEU D 694       9.337 -12.064  35.802  1.00 39.22 LIG-0.35  N 
ATOM      9 H    LEU D 694       9.435 -11.424  36.367  1.00 39.22 LIG 0.16  HD
ATOM     10 O    LEU D 693       9.245 -14.258  35.321  1.00 43.86 LIG-0.27  OA
BRANCH 8 11
ATOM     11  CA  LEU D 694       9.001 -11.626  34.473  1.00 38.59 LIG 0.18  C 
BRANCH 11 12
ATOM     12  C   LEU D 694       7.739 -12.305  34.048  1.00 46.22 LIG 0.24  C 
ATOM     13  N   GLN D 695       6.771 -12.293  34.946  1.00 66.87 LIG-0.35  N 
ATOM     14 H    GLN D 695       6.906 -11.992  35.740  1.00 66.87 LIG 0.16  HD
ATOM     15 O    LEU D 694       7.688 -12.856  32.980  1.00 54.70 LIG-0.27  OA
BRANCH 13 16
ATOM     16  CA  GLN D 695       5.390 -12.758  34.765  1.00 62.86 LIG 0.16  C 
BRANCH 16 17
ATOM     17  CB  GLN D 695       5.078 -13.889  35.706  1.00 63.26 LIG 0.04  C 
BRANCH 17 18
ATOM     18  CG  GLN D 695       6.265 -14.798  35.886  1.00 77.24 LIG 0.10  C 
BRANCH 18 19
ATOM     19  CD  GLN D 695       5.943 -16.005  36.669  1.00 84.08 LIG 0.21  C 
ATOM     20 OE1  GLN D 695       4.810 -16.447  36.678  1.00 83.40 LIG-0.27  OA
ATOM     21  NE2 GLN D 695       6.938 -16.571  37.323  1.00 79.17 LIG-0.37  N 
ATOM     22 22HE GLN D 695       6.800 -17.285  37.783  1.00 79.17 LIG 0.16  HD
ATOM     23 21HE GLN D 695       7.725 -16.227  37.290  1.00 79.17 LIG 0.16  HD
ENDBRANCH 18 19
ENDBRANCH 17 18
ENDBRANCH 16 17
BRANCH 16 24
ATOM     24  C   GLN D 695       4.298 -11.690  34.799  1.00 61.14 LIG 0.22  C 
ATOM     25 O    GLN D 695       4.523 -10.541  34.409  1.00 66.66 LIG-0.29  OA
ENDBRANCH 16 24
ENDBRANCH 13 16
ENDBRANCH 11 12
BRANCH 11 26
ATOM     26  CB  LEU D 694      10.080 -11.999  33.478  1.00 34.51 LIG 0.04  C 
BRANCH 26 27
ATOM     27  CG  LEU D 694      11.409 -11.286  33.497  1.00 27.71 LIG-0.02  C 
ATOM     28  CD2 LEU D 694      11.473 -10.129  32.546  1.00 26.48 LIG 0.01  C 
ATOM     29  CD1 LEU D 694      12.582 -12.210  33.336  1.00 27.00 LIG 0.01  C 
ENDBRANCH 26 27
ENDBRANCH 11 26
ENDBRANCH 8 11
ENDBRANCH 6 7
BRANCH 6 30
ATOM     30  CB  LEU D 693       8.706 -13.920  38.437  1.00 45.67 LIG 0.04  C 
BRANCH 30 31
ATOM     31  CG  LEU D 693       7.773 -12.726  38.697  1.00 55.29 LIG-0.02  C 
ATOM     32  CD1 LEU D 693       6.338 -13.193  38.897  1.00 47.80 LIG 0.01  C 
ATOM     33  CD2 LEU D 693       8.252 -11.857  39.869  1.00 51.02 LIG 0.01  C 
ENDBRANCH 30 31
ENDBRANCH 6 30
ENDBRANCH 3 6
ENDBRANCH 1 2
BRANCH 1 34
ATOM     34  CB  ARG D 692      14.188 -11.252  37.358  1.00 49.09 LIG 0.04  C 
BRANCH 34 35
ATOM     35  CG  ARG D 692      14.019 -10.518  36.014  1.00 50.62 LIG 0.02  C 
BRANCH 35 36
ATOM     36  CD  ARG D 692      15.061 -10.870  34.962  1.00 57.04 LIG 0.14  C 
BRANCH 36 37
ATOM     37  NE  ARG D 692      16.034 -11.782  35.532  1.00 60.90 LIG-0.23  N 
ATOM     38 HE   ARG D 692      16.287 -11.640  36.341  1.00 60.90 LIG 0.18  HD
ATOM     39  CZ  ARG D 692      16.563 -12.817  34.897  1.00 61.50 LIG 0.67  C 
ATOM     40  NH1 ARG D 692      16.282 -13.036  33.613  1.00 46.48 LIG-0.23  N 
ATOM     41  NH2 ARG D 692      17.413 -13.607  35.540  1.00 64.68 LIG-0.23  N 
ATOM     42 1HH1 ARG D 692      15.754 -12.503  33.192  1.00 46.48 LIG 0.17  HD
ATOM     43 2HH1 ARG D 692      16.629 -13.709  33.206  1.00 46.48 LIG 0.17  HD
ATOM     44 1HH2 ARG D 692      17.615 -13.445  36.360  1.00 64.68 LIG 0.17  HD
ATOM     45 2HH2 ARG D 692      17.762 -14.282  35.137  1.00 64.68 LIG 0.17  HD
ENDBRANCH 36 37
ENDBRANCH 35 36
ENDBRANCH 34 35
ENDBRANCH 1 34
BRANCH 1 46
ATOM     46  N   ARG D 692      13.071 -11.399  39.607  1.00 43.06 LIG-0.35  N 
ATOM     47  C   HIS D 691      12.323 -10.728  40.467  1.00 44.11 LIG 0.24  C 
ATOM     48 O    HIS D 691      11.437  -9.957  40.128  1.00 43.39 LIG-0.27  OA
ATOM     49 H    ARG D 692      13.712 -11.924  39.838  1.00 43.06 LIG 0.16  HD
BRANCH 47 50
ATOM     50  CA  HIS D 691      12.624 -10.974  41.895  1.00 41.80 LIG 0.18  C 
BRANCH 50 51
ATOM     51  CB  HIS D 691      12.565  -9.641  42.559  1.00 51.00 LIG 0.10  C 
BRANCH 51 52
ATOM     52  CG  HIS D 691      13.038  -9.636  43.953  1.00 57.86 LIG 0.06  A 
ATOM     53 ND1  HIS D 691      12.969 -10.704  44.729  1.00 60.60 LIG-0.24  NA
ATOM     54  CE1 HIS D 691      13.461 -10.407  45.928  1.00 72.50 LIG 0.23  A 
ATOM     55 NE2  HIS D 691      13.829  -9.129  45.923  1.00 67.35 LIG-0.25  NA
ATOM     56  CD2 HIS D 691      13.577  -8.623  44.723  1.00 66.29 LIG 0.14  A 
ENDBRANCH 51 52
ENDBRANCH 50 51
BRANCH 50 57
ATOM     57  N   HIS D 691      13.947 -11.532  42.061  1.00 39.94 LIG-0.35  N 
ATOM     58 H    HIS D 691      13.952 -12.324  42.396  1.00 39.94 LIG 0.16  HD
ATOM     59  C   LEU D 690      15.048 -10.879  41.725  1.00 35.88 LIG 0.24  C 
ATOM     60 O    LEU D 690      15.038  -9.736  41.218  1.00 34.66 LIG-0.27  OA
BRANCH 59 61
ATOM     61  CA  LEU D 690      16.360 -11.559  42.042  1.00 33.43 LIG 0.18  C 
BRANCH 61 62
ATOM     62  CB  LEU D 690      17.431 -10.506  42.330  1.00 31.34 LIG 0.04  C 
BRANCH 62 63
ATOM     63  CG  LEU D 690      17.648 -10.138  43.793  1.00 30.93 LIG-0.02  C 
ATOM     64  CD1 LEU D 690      16.728  -8.990  44.181  1.00 30.90 LIG 0.01  C 
ATOM     65  CD2 LEU D 690      17.358 -11.341  44.671  1.00 28.62 LIG 0.01  C 
ENDBRANCH 62 63
ENDBRANCH 61 62
BRANCH 61 66
ATOM     66  N   LEU D 690      16.792 -12.421  40.941  1.00 35.22 LIG-0.35  N 
ATOM     67 H    LEU D 690      17.243 -12.018  40.330  1.00 35.22 LIG 0.16  HD
ATOM     68  C   ILE D 689      16.499 -13.716  40.910  1.00 41.04 LIG 0.26  C 
ATOM     69 O    ILE D 689      15.894 -14.287  41.830  1.00 39.56 LIG-0.27  OA
BRANCH 68 70
ATOM     70  CA  ILE D 689      17.005 -14.490  39.675  1.00 40.35 LIG 0.40  C 
ATOM     71  N   ILE D 689      18.046 -15.534  40.029  1.00 40.45 LIG 0.61  N 
BRANCH 70 72
ATOM     72  CB  ILE D 689      15.771 -15.107  38.973  1.00 42.26 LIG 0.03  C 
ATOM     73  CG2 ILE D 689      14.525 -14.226  39.183  1.00 38.55 LIG 0.01  C 
BRANCH 72 74
ATOM     74  CG1 ILE D 689      16.037 -15.360  37.486  1.00 45.91 LIG 0.00  C 
ATOM     75  CD1 ILE D 689      14.780 -15.604  36.651  1.00 45.96 LIG 0.01  C 
ENDBRANCH 72 74
ENDBRANCH 70 72
ENDBRANCH 68 70
ENDBRANCH 61 66
ENDBRANCH 59 61
ENDBRANCH 50 57
ENDBRANCH 47 50
ENDBRANCH 1 46
TORSDOF 30
ENDMDL
MODEL 39
USER: ADFR SOLUTION from run 72
USER: SCORE 21.116512 LL:  -7.011 LR: -15.060 RR:   0.000 FEB:  -6.111
USER: RMSD 6.762083
USER: SEED 71
USER: STATUS no improvement in best in 11 clusters for 5 generations
USER: GENES 32
USER: genes 0 Translation |==|  0.62517 0.63598 0.38405
USER: genes 1 Rotation |==|  0.02340 0.55046 0.43542 0.62703
USER: genes 2 Torsion [N]-CA--C-[N] |==|  0.25853
USER: genes 3 Torsion [C]-N--CA-[C] |==|  0.17319
USER: genes 4 Torsion [N]-CA--C-[N] |==|  0.05351
USER: genes 5 Torsion [C]-N--CA-[C] |==|  0.74682
USER: genes 6 Torsion [N]-CA--C-[N] |==|  0.00046
USER: genes 7 Torsion [C]-N--CA-[CB] |==|  0.60391
USER: genes 8 Torsion [N]-CA--CB-[CG] |==|  0.03235
USER: genes 9 Torsion [CA]-CB--CG-[CD] |==|  0.22996
USER: genes 10 Torsion [CB]-CG--CD-[NE2] |==|  0.36868
USER: genes 11 Torsion [N]-CA--C-[O] |==|  0.80824
USER: genes 12 Torsion [N]-CA--CB-[CG] |==|  0.78392
USER: genes 13 Torsion [CA]-CB--CG-[CD2] |==|  0.30019
USER: genes 14 Torsion [N]-CA--CB-[CG] |==|  0.88891
USER: genes 15 Torsion [CA]-CB--CG-[CD1] |==|  0.93284
USER: genes 16 Torsion [C]-CA--CB-[CG] |==|  0.34918
USER: genes 17 Torsion [CA]-CB--CG-[CD] |==|  0.55522
USER: genes 18 Torsion [CB]-CG--CD-[NE] |==|  0.96795
USER: genes 19 Torsion [CG]-CD--NE-[CZ] |==|  0.79664
USER: genes 20 Torsion [C]-CA--N-[C] |==|  0.62551
USER: genes 21 Torsion [N]-C--CA-[N] |==|  0.40814
USER: genes 22 Torsion [C]-CA--CB-[CG] |==|  0.99873
USER: genes 23 Torsion [CA]-CB--CG-[ND1] |==|  0.25130
USER: genes 24 Torsion [C]-CA--N-[C] |==|  0.81002
USER: genes 25 Torsion [N]-C--CA-[N] |==|  0.49141
USER: genes 26 Torsion [C]-CA--CB-[CG] |==|  0.92433
USER: genes 27 Torsion [CA]-CB--CG-[CD2] |==|  0.81490
USER: genes 28 Torsion [C]-CA--N-[C] |==|  0.54057
USER: genes 29 Torsion [N]-C--CA-[N] |==|  0.92384
USER: genes 30 Torsion [C]-CA--CB-[CG1] |==|  0.21019
USER: genes 31 Torsion [CA]-CB--CG1-[CD1] |==|  0.73127
ROOT
ATOM      1  CA  ARG D 692      12.419 -12.452  36.658  1.00 48.73 LIG 0.18  C 
ENDROOT
BRANCH 1 2
ATOM      2  C   ARG D 692      11.268 -12.797  35.727  1.00 46.10 LIG 0.24  C 
ATOM      3  N   LEU D 693      10.080 -12.254  35.983  1.00 50.64 LIG-0.35  N 
ATOM      4 H    LEU D 693       9.913 -11.706  36.624  1.00 50.64 LIG 0.16  HD
ATOM      5 O    ARG D 692      11.422 -13.623  34.829  1.00 52.04 LIG-0.27  OA
BRANCH 3 6
ATOM      6  CA  LEU D 693       8.941 -12.592  35.124  1.00 43.34 LIG 0.18  C 
BRANCH 6 7
ATOM      7  C   LEU D 693       8.601 -14.075  35.178  1.00 37.95 LIG 0.24  C 
ATOM      8  N   LEU D 694       9.062 -14.742  36.217  1.00 39.22 LIG-0.35  N 
ATOM      9 H    LEU D 694       9.569 -14.395  36.818  1.00 39.22 LIG 0.16  HD
ATOM     10 O    LEU D 693       7.952 -14.602  34.268  1.00 43.86 LIG-0.27  OA
BRANCH 8 11
ATOM     11  CA  LEU D 694       8.754 -16.130  36.441  1.00 38.59 LIG 0.18  C 
BRANCH 11 12
ATOM     12  C   LEU D 694       7.525 -16.220  37.286  1.00 46.22 LIG 0.24  C 
ATOM     13  N   GLN D 695       7.000 -15.058  37.631  1.00 66.87 LIG-0.35  N 
ATOM     14 H    GLN D 695       7.400 -14.319  37.449  1.00 66.87 LIG 0.16  HD
ATOM     15 O    LEU D 694       7.123 -17.295  37.645  1.00 54.70 LIG-0.27  OA
BRANCH 13 16
ATOM     16  CA  GLN D 695       5.732 -14.833  38.337  1.00 62.86 LIG 0.16  C 
BRANCH 16 17
ATOM     17  CB  GLN D 695       5.033 -13.612  37.807  1.00 63.26 LIG 0.04  C 
BRANCH 17 18
ATOM     18  CG  GLN D 695       5.668 -13.125  36.531  1.00 77.24 LIG 0.10  C 
BRANCH 18 19
ATOM     19  CD  GLN D 695       5.189 -13.854  35.343  1.00 84.08 LIG 0.21  C 
ATOM     20 OE1  GLN D 695       5.120 -15.068  35.355  1.00 83.40 LIG-0.27  OA
ATOM     21  NE2 GLN D 695       4.832 -13.126  34.303  1.00 79.17 LIG-0.37  N 
ATOM     22 22HE GLN D 695       4.535 -13.508  33.593  1.00 79.17 LIG 0.16  HD
ATOM     23 21HE GLN D 695       4.897 -12.269  34.335  1.00 79.17 LIG 0.16  HD
ENDBRANCH 18 19
ENDBRANCH 17 18
ENDBRANCH 16 17
BRANCH 16 24
ATOM     24  C   GLN D 695       4.779 -16.023  38.429  1.00 61.14 LIG 0.22  C 
ATOM     25 O    GLN D 695       4.206 -16.455  37.424  1.00 66.66 LIG-0.29  OA
ENDBRANCH 16 24
ENDBRANCH 13 16
ENDBRANCH 11 12
BRANCH 11 26
ATOM     26  CB  LEU D 694       9.872 -16.832  37.182  1.00 34.51 LIG 0.04  C 
BRANCH 26 27
ATOM     27  CG  LEU D 694      11.124 -17.249  36.450  1.00 27.71 LIG-0.02  C 
ATOM     28  CD2 LEU D 694      12.319 -16.415  36.799  1.00 26.48 LIG 0.01  C 
ATOM     29  CD1 LEU D 694      10.934 -17.363  34.964  1.00 27.00 LIG 0.01  C 
ENDBRANCH 26 27
ENDBRANCH 11 26
ENDBRANCH 8 11
ENDBRANCH 6 7
BRANCH 6 30
ATOM     30  CB  LEU D 693       9.152 -12.134  33.671  1.00 45.67 LIG 0.04  C 
BRANCH 30 31
ATOM     31  CG  LEU D 693       9.817 -10.760  33.489  1.00 55.29 LIG-0.02  C 
ATOM     32  CD1 LEU D 693       9.602  -9.886  34.717  1.00 47.80 LIG 0.01  C 
ATOM     33  CD2 LEU D 693      11.306 -10.877  33.133  1.00 51.02 LIG 0.01  C 
ENDBRANCH 30 31
ENDBRANCH 6 30
ENDBRANCH 3 6
ENDBRANCH 1 2
BRANCH 1 34
ATOM     34  CB  ARG D 692      13.691 -12.243  35.808  1.00 49.09 LIG 0.04  C 
BRANCH 34 35
ATOM     35  CG  ARG D 692      14.335 -10.872  36.092  1.00 50.62 LIG 0.02  C 
BRANCH 35 36
ATOM     36  CD  ARG D 692      15.278 -10.377  35.005  1.00 57.04 LIG 0.14  C 
BRANCH 36 37
ATOM     37  NE  ARG D 692      15.552 -11.455  34.073  1.00 60.90 LIG-0.23  N 
ATOM     38 HE   ARG D 692      15.184 -11.413  33.297  1.00 60.90 LIG 0.18  HD
ATOM     39  CZ  ARG D 692      16.326 -12.498  34.331  1.00 61.50 LIG 0.67  C 
ATOM     40  NH1 ARG D 692      16.850 -12.667  35.544  1.00 46.48 LIG-0.23  N 
ATOM     41  NH2 ARG D 692      16.536 -13.399  33.380  1.00 64.68 LIG-0.23  N 
ATOM     42 1HH1 ARG D 692      16.685 -12.095  36.166  1.00 46.48 LIG 0.17  HD
ATOM     43 2HH1 ARG D 692      17.351 -13.346  35.705  1.00 46.48 LIG 0.17  HD
ATOM     44 1HH2 ARG D 692      16.172 -13.302  32.607  1.00 64.68 LIG 0.17  HD
ATOM     45 2HH2 ARG D 692      17.037 -14.081  33.536  1.00 64.68 LIG 0.17  HD
ENDBRANCH 36 37
ENDBRANCH 35 36
ENDBRANCH 34 35
ENDBRANCH 1 34
BRANCH 1 46
ATOM     46  N   ARG D 692      12.639 -13.391  37.784  1.00 43.06 LIG-0.35  N 
ATOM     47  C   HIS D 691      12.856 -12.965  39.016  1.00 44.11 LIG 0.24  C 
ATOM     48 O    HIS D 691      12.929 -11.782  39.315  1.00 43.39 LIG-0.27  OA
ATOM     49 H    ARG D 692      12.611 -14.222  37.562  1.00 43.06 LIG 0.16  HD
BRANCH 47 50
ATOM     50  CA  HIS D 691      13.003 -14.027  40.037  1.00 41.80 LIG 0.18  C 
BRANCH 50 51
ATOM     51  CB  HIS D 691      11.650 -14.207  40.636  1.00 51.00 LIG 0.10  C 
BRANCH 51 52
ATOM     52  CG  HIS D 691      10.617 -13.318  40.078  1.00 57.86 LIG 0.06  A 
ATOM     53 ND1  HIS D 691       9.873 -13.661  39.041  1.00 60.60 LIG-0.24  NA
ATOM     54  CE1 HIS D 691       9.034 -12.669  38.757  1.00 72.50 LIG 0.23  A 
ATOM     55 NE2  HIS D 691       9.261 -11.674  39.610  1.00 67.35 LIG-0.25  NA
ATOM     56  CD2 HIS D 691      10.233 -12.040  40.434  1.00 66.29 LIG 0.14  A 
ENDBRANCH 51 52
ENDBRANCH 50 51
BRANCH 50 57
ATOM     57  N   HIS D 691      13.933 -13.630  41.071  1.00 39.94 LIG-0.35  N 
ATOM     58 H    HIS D 691      13.565 -13.496  41.837  1.00 39.94 LIG 0.16  HD
ATOM     59  C   LEU D 690      15.230 -13.487  40.854  1.00 35.88 LIG 0.24  C 
ATOM     60 O    LEU D 690      15.766 -13.704  39.746  1.00 34.66 LIG-0.27  OA
BRANCH 59 61
ATOM     61  CA  LEU D 690      16.058 -12.981  42.013  1.00 33.43 LIG 0.18  C 
BRANCH 61 62
ATOM     62  CB  LEU D 690      15.575 -11.588  42.422  1.00 31.34 LIG 0.04  C 
BRANCH 62 63
ATOM     63  CG  LEU D 690      14.922 -10.747  41.331  1.00 30.93 LIG-0.02  C 
ATOM     64  CD1 LEU D 690      14.342  -9.477  41.934  1.00 30.90 LIG 0.01  C 
ATOM     65  CD2 LEU D 690      15.951 -10.387  40.277  1.00 28.62 LIG 0.01  C 
ENDBRANCH 62 63
ENDBRANCH 61 62
BRANCH 61 66
ATOM     66  N   LEU D 690      17.480 -12.936  41.671  1.00 35.22 LIG-0.35  N 
ATOM     67 H    LEU D 690      17.646 -13.003  40.830  1.00 35.22 LIG 0.16  HD
ATOM     68  C   ILE D 689      18.419 -12.801  42.600  1.00 41.04 LIG 0.26  C 
ATOM     69 O    ILE D 689      18.153 -12.650  43.802  1.00 39.56 LIG-0.27  OA
BRANCH 68 70
ATOM     70  CA  ILE D 689      19.874 -12.790  42.088  1.00 40.35 LIG 0.40  C 
ATOM     71  N   ILE D 689      20.041 -13.562  40.794  1.00 40.45 LIG 0.61  N 
BRANCH 70 72
ATOM     72  CB  ILE D 689      20.308 -11.310  41.947  1.00 42.26 LIG 0.03  C 
ATOM     73  CG2 ILE D 689      19.252 -10.503  41.169  1.00 38.55 LIG 0.01  C 
BRANCH 72 74
ATOM     74  CG1 ILE D 689      20.606 -10.679  43.311  1.00 45.91 LIG 0.00  C 
ATOM     75  CD1 ILE D 689      19.446  -9.882  43.906  1.00 45.96 LIG 0.01  C 
ENDBRANCH 72 74
ENDBRANCH 70 72
ENDBRANCH 68 70
ENDBRANCH 61 66
ENDBRANCH 59 61
ENDBRANCH 50 57
ENDBRANCH 47 50
ENDBRANCH 1 46
TORSDOF 30
ENDMDL
MODEL 40
USER: ADFR SOLUTION from run 121
USER: SCORE 20.600634 LL:  -6.814 LR: -15.049 RR:   0.000 FEB:  -6.100
USER: RMSD 6.600298
USER: SEED 120
USER: STATUS no improvement in best in 47 clusters for 5 generations
USER: GENES 32
USER: genes 0 Translation |==|  0.52234 0.67080 0.33355
USER: genes 1 Rotation |==|  0.03141 0.65867 0.57153 0.51143
USER: genes 2 Torsion [N]-CA--C-[N] |==|  0.92623
USER: genes 3 Torsion [C]-N--CA-[C] |==|  0.62561
USER: genes 4 Torsion [N]-CA--C-[N] |==|  0.14270
USER: genes 5 Torsion [C]-N--CA-[C] |==|  0.79951
USER: genes 6 Torsion [N]-CA--C-[N] |==|  0.30136
USER: genes 7 Torsion [C]-N--CA-[CB] |==|  0.80299
USER: genes 8 Torsion [N]-CA--CB-[CG] |==|  0.95346
USER: genes 9 Torsion [CA]-CB--CG-[CD] |==|  0.32550
USER: genes 10 Torsion [CB]-CG--CD-[NE2] |==|  0.43792
USER: genes 11 Torsion [N]-CA--C-[O] |==|  0.97125
USER: genes 12 Torsion [N]-CA--CB-[CG] |==|  0.09853
USER: genes 13 Torsion [CA]-CB--CG-[CD2] |==|  0.61519
USER: genes 14 Torsion [N]-CA--CB-[CG] |==|  0.74077
USER: genes 15 Torsion [CA]-CB--CG-[CD1] |==|  0.85824
USER: genes 16 Torsion [C]-CA--CB-[CG] |==|  0.39324
USER: genes 17 Torsion [CA]-CB--CG-[CD] |==|  0.11509
USER: genes 18 Torsion [CB]-CG--CD-[NE] |==|  0.37366
USER: genes 19 Torsion [CG]-CD--NE-[CZ] |==|  0.52631
USER: genes 20 Torsion [C]-CA--N-[C] |==|  0.78293
USER: genes 21 Torsion [N]-C--CA-[N] |==|  0.16029
USER: genes 22 Torsion [C]-CA--CB-[CG] |==|  0.47802
USER: genes 23 Torsion [CA]-CB--CG-[ND1] |==|  0.97595
USER: genes 24 Torsion [C]-CA--N-[C] |==|  0.77881
USER: genes 25 Torsion [N]-C--CA-[N] |==|  0.09463
USER: genes 26 Torsion [C]-CA--CB-[CG] |==|  0.27366
USER: genes 27 Torsion [CA]-CB--CG-[CD2] |==|  0.04780
USER: genes 28 Torsion [C]-CA--N-[C] |==|  0.15602
USER: genes 29 Torsion [N]-C--CA-[N] |==|  0.90057
USER: genes 30 Torsion [C]-CA--CB-[CG1] |==|  0.88460
USER: genes 31 Torsion [CA]-CB--CG1-[CD1] |==|  0.60336
ROOT
ATOM      1  CA  ARG D 692      10.106 -11.799  35.673  1.00 48.73 LIG 0.18  C 
ENDROOT
BRANCH 1 2
ATOM      2  C   ARG D 692       8.590 -11.796  35.784  1.00 46.10 LIG 0.24  C 
ATOM      3  N   LEU D 693       8.012 -12.807  36.428  1.00 50.64 LIG-0.35  N 
ATOM      4 H    LEU D 693       8.429 -13.457  36.805  1.00 50.64 LIG 0.16  HD
ATOM      5 O    ARG D 692       7.928 -10.930  35.213  1.00 52.04 LIG-0.27  OA
BRANCH 3 6
ATOM      6  CA  LEU D 693       6.550 -12.851  36.524  1.00 43.34 LIG 0.18  C 
BRANCH 6 7
ATOM      7  C   LEU D 693       6.077 -13.196  37.930  1.00 37.95 LIG 0.24  C 
ATOM      8  N   LEU D 694       6.584 -12.474  38.910  1.00 39.22 LIG-0.35  N 
ATOM      9 H    LEU D 694       7.185 -11.871  38.794  1.00 39.22 LIG 0.16  HD
ATOM     10 O    LEU D 693       5.284 -14.125  38.113  1.00 43.86 LIG-0.27  OA
BRANCH 8 11
ATOM     11  CA  LEU D 694       6.171 -12.634  40.279  1.00 38.59 LIG 0.18  C 
BRANCH 11 12
ATOM     12  C   LEU D 694       4.794 -12.075  40.434  1.00 46.22 LIG 0.24  C 
ATOM     13  N   GLN D 695       3.844 -12.975  40.608  1.00 66.87 LIG-0.35  N 
ATOM     14 H    GLN D 695       4.011 -13.816  40.545  1.00 66.87 LIG 0.16  HD
ATOM     15 O    LEU D 694       4.616 -10.889  40.337  1.00 54.70 LIG-0.27  OA
BRANCH 13 16
ATOM     16  CA  GLN D 695       2.430 -12.722  40.919  1.00 62.86 LIG 0.16  C 
BRANCH 16 17
ATOM     17  CB  GLN D 695       2.273 -12.220  42.328  1.00 63.26 LIG 0.04  C 
BRANCH 17 18
ATOM     18  CG  GLN D 695       3.505 -12.492  43.150  1.00 77.24 LIG 0.10  C 
BRANCH 18 19
ATOM     19  CD  GLN D 695       4.158 -11.257  43.621  1.00 84.08 LIG 0.21  C 
ATOM     20 OE1  GLN D 695       3.958 -10.201  43.053  1.00 83.40 LIG-0.27  OA
ATOM     21  NE2 GLN D 695       4.935 -11.365  44.682  1.00 79.17 LIG-0.37  N 
ATOM     22 22HE GLN D 695       5.326 -10.668  45.000  1.00 79.17 LIG 0.16  HD
ATOM     23 21HE GLN D 695       5.050 -12.131  45.055  1.00 79.17 LIG 0.16  HD
ENDBRANCH 18 19
ENDBRANCH 17 18
ENDBRANCH 16 17
BRANCH 16 24
ATOM     24  C   GLN D 695       1.656 -11.854  39.929  1.00 61.14 LIG 0.22  C 
ATOM     25 O    GLN D 695       2.241 -11.241  39.032  1.00 66.66 LIG-0.29  OA
ENDBRANCH 16 24
ENDBRANCH 13 16
ENDBRANCH 11 12
BRANCH 11 26
ATOM     26  CB  LEU D 694       7.082 -11.879  41.223  1.00 34.51 LIG 0.04  C 
BRANCH 26 27
ATOM     27  CG  LEU D 694       7.675 -10.555  40.810  1.00 27.71 LIG-0.02  C 
ATOM     28  CD2 LEU D 694       9.112 -10.402  41.208  1.00 26.48 LIG 0.01  C 
ATOM     29  CD1 LEU D 694       6.847  -9.375  41.231  1.00 27.00 LIG 0.01  C 
ENDBRANCH 26 27
ENDBRANCH 11 26
ENDBRANCH 8 11
ENDBRANCH 6 7
BRANCH 6 30
ATOM     30  CB  LEU D 693       5.928 -13.807  35.491  1.00 45.67 LIG 0.04  C 
BRANCH 30 31
ATOM     31  CG  LEU D 693       5.493 -13.169  34.162  1.00 55.29 LIG-0.02  C 
ATOM     32  CD1 LEU D 693       4.614 -11.949  34.407  1.00 47.80 LIG 0.01  C 
ATOM     33  CD2 LEU D 693       6.688 -12.830  33.260  1.00 51.02 LIG 0.01  C 
ENDBRANCH 30 31
ENDBRANCH 6 30
ENDBRANCH 3 6
ENDBRANCH 1 2
BRANCH 1 34
ATOM     34  CB  ARG D 692      10.493 -12.294  34.264  1.00 49.09 LIG 0.04  C 
BRANCH 34 35
ATOM     35  CG  ARG D 692      11.702 -11.516  33.708  1.00 50.62 LIG 0.02  C 
BRANCH 35 36
ATOM     36  CD  ARG D 692      12.805 -11.250  34.722  1.00 57.04 LIG 0.14  C 
BRANCH 36 37
ATOM     37  NE  ARG D 692      14.093 -11.550  34.128  1.00 60.90 LIG-0.23  N 
ATOM     38 HE   ARG D 692      14.114 -11.710  33.283  1.00 60.90 LIG 0.18  HD
ATOM     39  CZ  ARG D 692      15.240 -11.598  34.790  1.00 61.50 LIG 0.67  C 
ATOM     40  NH1 ARG D 692      15.260 -11.451  36.113  1.00 46.48 LIG-0.23  N 
ATOM     41  NH2 ARG D 692      16.362 -11.840  34.125  1.00 64.68 LIG-0.23  N 
ATOM     42 1HH1 ARG D 692      14.526 -11.324  36.543  1.00 46.48 LIG 0.17  HD
ATOM     43 2HH1 ARG D 692      16.008 -11.483  36.537  1.00 46.48 LIG 0.17  HD
ATOM     44 1HH2 ARG D 692      16.340 -11.965  33.275  1.00 64.68 LIG 0.17  HD
ATOM     45 2HH2 ARG D 692      17.112 -11.873  34.545  1.00 64.68 LIG 0.17  HD
ENDBRANCH 36 37
ENDBRANCH 35 36
ENDBRANCH 34 35
ENDBRANCH 1 34
BRANCH 1 46
ATOM     46  N   ARG D 692      10.826 -12.524  36.747  1.00 43.06 LIG-0.35  N 
ATOM     47  C   HIS D 691      11.010 -11.996  37.945  1.00 44.11 LIG 0.24  C 
ATOM     48 O    HIS D 691      10.639 -10.871  38.247  1.00 43.39 LIG-0.27  OA
ATOM     49 H    ARG D 692      11.107 -13.305  36.520  1.00 43.06 LIG 0.16  HD
BRANCH 47 50
ATOM     50  CA  HIS D 691      11.702 -12.866  38.922  1.00 41.80 LIG 0.18  C 
BRANCH 50 51
ATOM     51  CB  HIS D 691      11.880 -12.039  40.149  1.00 51.00 LIG 0.10  C 
BRANCH 51 52
ATOM     52  CG  HIS D 691      12.389 -12.783  41.314  1.00 57.86 LIG 0.06  A 
ATOM     53 ND1  HIS D 691      12.505 -14.099  41.318  1.00 60.60 LIG-0.24  NA
ATOM     54  CE1 HIS D 691      12.984 -14.493  42.495  1.00 72.50 LIG 0.23  A 
ATOM     55 NE2  HIS D 691      13.155 -13.416  43.256  1.00 67.35 LIG-0.25  NA
ATOM     56  CD2 HIS D 691      12.793 -12.347  42.561  1.00 66.29 LIG 0.14  A 
ENDBRANCH 51 52
ENDBRANCH 50 51
BRANCH 50 57
ATOM     57  N   HIS D 691      12.999 -13.274  38.430  1.00 39.94 LIG-0.35  N 
ATOM     58 H    HIS D 691      13.653 -12.822  38.759  1.00 39.94 LIG 0.16  HD
ATOM     59  C   LEU D 690      13.160 -14.252  37.554  1.00 35.88 LIG 0.24  C 
ATOM     60 O    LEU D 690      12.210 -14.922  37.095  1.00 34.66 LIG-0.27  OA
BRANCH 59 61
ATOM     61  CA  LEU D 690      14.569 -14.500  37.070  1.00 33.43 LIG 0.18  C 
BRANCH 61 62
ATOM     62  CB  LEU D 690      14.701 -15.944  36.581  1.00 31.34 LIG 0.04  C 
BRANCH 62 63
ATOM     63  CG  LEU D 690      14.595 -16.164  35.076  1.00 30.93 LIG-0.02  C 
ATOM     64  CD1 LEU D 690      13.227 -16.731  34.729  1.00 30.90 LIG 0.01  C 
ATOM     65  CD2 LEU D 690      14.799 -14.848  34.350  1.00 28.62 LIG 0.01  C 
ENDBRANCH 62 63
ENDBRANCH 61 62
BRANCH 61 66
ATOM     66  N   LEU D 690      15.549 -14.241  38.126  1.00 35.22 LIG-0.35  N 
ATOM     67 H    LEU D 690      16.152 -13.664  37.917  1.00 35.22 LIG 0.16  HD
ATOM     68  C   ILE D 689      15.490 -14.856  39.301  1.00 41.04 LIG 0.26  C 
ATOM     69 O    ILE D 689      14.578 -15.641  39.600  1.00 39.56 LIG-0.27  OA
BRANCH 68 70
ATOM     70  CA  ILE D 689      16.604 -14.492  40.306  1.00 40.35 LIG 0.40  C 
ATOM     71  N   ILE D 689      17.939 -14.250  39.631  1.00 40.45 LIG 0.61  N 
BRANCH 70 72
ATOM     72  CB  ILE D 689      16.122 -13.261  41.111  1.00 42.26 LIG 0.03  C 
ATOM     73  CG2 ILE D 689      17.288 -12.628  41.893  1.00 38.55 LIG 0.01  C 
BRANCH 72 74
ATOM     74  CG1 ILE D 689      15.426 -12.237  40.210  1.00 45.91 LIG 0.00  C 
ATOM     75  CD1 ILE D 689      15.705 -10.779  40.577  1.00 45.96 LIG 0.01  C 
ENDBRANCH 72 74
ENDBRANCH 70 72
ENDBRANCH 68 70
ENDBRANCH 61 66
ENDBRANCH 59 61
ENDBRANCH 50 57
ENDBRANCH 47 50
ENDBRANCH 1 46
TORSDOF 30
ENDMDL
MODEL 41
USER: ADFR SOLUTION from run 64
USER: SCORE 20.209514 LL:  -5.604 LR: -15.046 RR:   0.000 FEB:  -6.097
USER: RMSD 6.551821
USER: SEED 63
USER: STATUS no improvement in best in 8 clusters for 5 generations
USER: GENES 32
USER: genes 0 Translation |==|  0.51078 0.66162 0.41430
USER: genes 1 Rotation |==|  0.99154 0.49468 0.40931 0.51169
USER: genes 2 Torsion [N]-CA--C-[N] |==|  0.46066
USER: genes 3 Torsion [C]-N--CA-[C] |==|  0.84137
USER: genes 4 Torsion [N]-CA--C-[N] |==|  0.35378
USER: genes 5 Torsion [C]-N--CA-[C] |==|  0.74234
USER: genes 6 Torsion [N]-CA--C-[N] |==|  0.44507
USER: genes 7 Torsion [C]-N--CA-[CB] |==|  0.18055
USER: genes 8 Torsion [N]-CA--CB-[CG] |==|  0.54148
USER: genes 9 Torsion [CA]-CB--CG-[CD] |==|  0.44009
USER: genes 10 Torsion [CB]-CG--CD-[NE2] |==|  0.40130
USER: genes 11 Torsion [N]-CA--C-[O] |==|  0.03150
USER: genes 12 Torsion [N]-CA--CB-[CG] |==|  0.80112
USER: genes 13 Torsion [CA]-CB--CG-[CD2] |==|  0.25994
USER: genes 14 Torsion [N]-CA--CB-[CG] |==|  0.07246
USER: genes 15 Torsion [CA]-CB--CG-[CD1] |==|  0.21051
USER: genes 16 Torsion [C]-CA--CB-[CG] |==|  0.42138
USER: genes 17 Torsion [CA]-CB--CG-[CD] |==|  0.37276
USER: genes 18 Torsion [CB]-CG--CD-[NE] |==|  0.77096
USER: genes 19 Torsion [CG]-CD--NE-[CZ] |==|  0.48257
USER: genes 20 Torsion [C]-CA--N-[C] |==|  0.82670
USER: genes 21 Torsion [N]-C--CA-[N] |==|  0.44195
USER: genes 22 Torsion [C]-CA--CB-[CG] |==|  0.18279
USER: genes 23 Torsion [CA]-CB--CG-[ND1] |==|  0.11576
USER: genes 24 Torsion [C]-CA--N-[C] |==|  0.82778
USER: genes 25 Torsion [N]-C--CA-[N] |==|  0.38383
USER: genes 26 Torsion [C]-CA--CB-[CG] |==|  0.12045
USER: genes 27 Torsion [CA]-CB--CG-[CD2] |==|  0.67346
USER: genes 28 Torsion [C]-CA--N-[C] |==|  0.83739
USER: genes 29 Torsion [N]-C--CA-[N] |==|  0.93352
USER: genes 30 Torsion [C]-CA--CB-[CG1] |==|  0.97387
USER: genes 31 Torsion [CA]-CB--CG1-[CD1] |==|  0.32555
ROOT
ATOM      1  CA  ARG D 692       9.846 -11.972  37.248  1.00 48.73 LIG 0.18  C 
ENDROOT
BRANCH 1 2
ATOM      2  C   ARG D 692       8.631 -12.861  37.454  1.00 46.10 LIG 0.24  C 
ATOM      3  N   LEU D 693       7.522 -12.563  36.781  1.00 50.64 LIG-0.35  N 
ATOM      4 H    LEU D 693       7.441 -11.916  36.222  1.00 50.64 LIG 0.16  HD
ATOM      5 O    ARG D 692       8.658 -13.766  38.287  1.00 52.04 LIG-0.27  OA
BRANCH 3 6
ATOM      6  CA  LEU D 693       6.322 -13.381  36.982  1.00 43.34 LIG 0.18  C 
BRANCH 6 7
ATOM      7  C   LEU D 693       6.574 -14.853  36.684  1.00 37.95 LIG 0.24  C 
ATOM      8  N   LEU D 694       6.235 -15.707  37.628  1.00 39.22 LIG-0.35  N 
ATOM      9 H    LEU D 694       5.932 -15.470  38.397  1.00 39.22 LIG 0.16  HD
ATOM     10 O    LEU D 693       7.098 -15.194  35.617  1.00 43.86 LIG-0.27  OA
BRANCH 8 11
ATOM     11  CA  LEU D 694       6.342 -17.132  37.455  1.00 38.59 LIG 0.18  C 
BRANCH 11 12
ATOM     12  C   LEU D 694       5.036 -17.655  36.952  1.00 46.22 LIG 0.24  C 
ATOM     13  N   GLN D 695       5.097 -18.838  36.368  1.00 66.87 LIG-0.35  N 
ATOM     14 H    GLN D 695       5.852 -19.221  36.219  1.00 66.87 LIG 0.16  HD
ATOM     15 O    LEU D 694       4.046 -16.978  37.044  1.00 54.70 LIG-0.27  OA
BRANCH 13 16
ATOM     16  CA  GLN D 695       3.969 -19.654  35.901  1.00 62.86 LIG 0.16  C 
BRANCH 16 17
ATOM     17  CB  GLN D 695       3.241 -18.969  34.777  1.00 63.26 LIG 0.04  C 
BRANCH 17 18
ATOM     18  CG  GLN D 695       1.895 -19.596  34.530  1.00 77.24 LIG 0.10  C 
BRANCH 18 19
ATOM     19  CD  GLN D 695       0.966 -18.691  33.830  1.00 84.08 LIG 0.21  C 
ATOM     20 OE1  GLN D 695       0.996 -17.494  34.044  1.00 83.40 LIG-0.27  OA
ATOM     21  NE2 GLN D 695       0.137 -19.243  32.965  1.00 79.17 LIG-0.37  N 
ATOM     22 22HE GLN D 695      -0.414 -18.752  32.523  1.00 79.17 LIG 0.16  HD
ATOM     23 21HE GLN D 695       0.148 -20.094  32.842  1.00 79.17 LIG 0.16  HD
ENDBRANCH 18 19
ENDBRANCH 17 18
ENDBRANCH 16 17
BRANCH 16 24
ATOM     24  C   GLN D 695       4.273 -21.112  35.559  1.00 61.14 LIG 0.22  C 
ATOM     25 O    GLN D 695       5.354 -21.622  35.867  1.00 66.66 LIG-0.29  OA
ENDBRANCH 16 24
ENDBRANCH 13 16
ENDBRANCH 11 12
BRANCH 11 26
ATOM     26  CB  LEU D 694       6.641 -17.828  38.766  1.00 34.51 LIG 0.04  C 
BRANCH 26 27
ATOM     27  CG  LEU D 694       8.002 -17.696  39.402  1.00 27.71 LIG-0.02  C 
ATOM     28  CD2 LEU D 694       8.080 -16.583  40.404  1.00 26.48 LIG 0.01  C 
ATOM     29  CD1 LEU D 694       9.122 -17.632  38.404  1.00 27.00 LIG 0.01  C 
ENDBRANCH 26 27
ENDBRANCH 11 26
ENDBRANCH 8 11
ENDBRANCH 6 7
BRANCH 6 30
ATOM     30  CB  LEU D 693       5.121 -12.860  36.175  1.00 45.67 LIG 0.04  C 
BRANCH 30 31
ATOM     31  CG  LEU D 693       5.460 -12.064  34.904  1.00 55.29 LIG-0.02  C 
ATOM     32  CD1 LEU D 693       5.907 -12.994  33.784  1.00 47.80 LIG 0.01  C 
ATOM     33  CD2 LEU D 693       4.301 -11.160  34.458  1.00 51.02 LIG 0.01  C 
ENDBRANCH 30 31
ENDBRANCH 6 30
ENDBRANCH 3 6
ENDBRANCH 1 2
BRANCH 1 34
ATOM     34  CB  ARG D 692      10.339 -12.144  35.796  1.00 49.09 LIG 0.04  C 
BRANCH 34 35
ATOM     35  CG  ARG D 692      11.042 -10.871  35.287  1.00 50.62 LIG 0.02  C 
BRANCH 35 36
ATOM     36  CD  ARG D 692      12.358 -11.119  34.563  1.00 57.04 LIG 0.14  C 
BRANCH 36 37
ATOM     37  NE  ARG D 692      13.424 -11.272  35.535  1.00 60.90 LIG-0.23  N 
ATOM     38 HE   ARG D 692      13.233 -11.129  36.361  1.00 60.90 LIG 0.18  HD
ATOM     39  CZ  ARG D 692      14.669 -11.615  35.243  1.00 61.50 LIG 0.67  C 
ATOM     40  NH1 ARG D 692      15.049 -11.761  33.975  1.00 46.48 LIG-0.23  N 
ATOM     41  NH2 ARG D 692      15.547 -11.767  36.227  1.00 64.68 LIG-0.23  N 
ATOM     42 1HH1 ARG D 692      14.484 -11.632  33.340  1.00 46.48 LIG 0.17  HD
ATOM     43 2HH1 ARG D 692      15.860 -11.983  33.793  1.00 46.48 LIG 0.17  HD
ATOM     44 1HH2 ARG D 692      15.305 -11.643  37.043  1.00 64.68 LIG 0.17  HD
ATOM     45 2HH2 ARG D 692      16.358 -11.990  36.049  1.00 64.68 LIG 0.17  HD
ENDBRANCH 36 37
ENDBRANCH 35 36
ENDBRANCH 34 35
ENDBRANCH 1 34
BRANCH 1 46
ATOM     46  N   ARG D 692      10.935 -12.132  38.240  1.00 43.06 LIG-0.35  N 
ATOM     47  C   HIS D 691      10.755 -11.872  39.524  1.00 44.11 LIG 0.24  C 
ATOM     48 O    HIS D 691       9.703 -11.450  39.983  1.00 43.39 LIG-0.27  OA
ATOM     49 H    ARG D 692      11.680 -12.405  37.906  1.00 43.06 LIG 0.16  HD
BRANCH 47 50
ATOM     50  CA  HIS D 691      11.924 -12.132  40.393  1.00 41.80 LIG 0.18  C 
BRANCH 50 51
ATOM     51  CB  HIS D 691      11.895 -13.593  40.688  1.00 51.00 LIG 0.10  C 
BRANCH 51 52
ATOM     52  CG  HIS D 691      12.117 -14.454  39.514  1.00 57.86 LIG 0.06  A 
ATOM     53 ND1  HIS D 691      13.029 -14.180  38.597  1.00 60.60 LIG-0.24  NA
ATOM     54  CE1 HIS D 691      13.002 -15.121  37.658  1.00 72.50 LIG 0.23  A 
ATOM     55 NE2  HIS D 691      12.048 -15.993  37.970  1.00 67.35 LIG-0.25  NA
ATOM     56  CD2 HIS D 691      11.480 -15.609  39.105  1.00 66.29 LIG 0.14  A 
ENDBRANCH 51 52
ENDBRANCH 50 51
BRANCH 50 57
ATOM     57  N   HIS D 691      11.826 -11.394  41.633  1.00 39.94 LIG-0.35  N 
ATOM     58 H    HIS D 691      11.789 -11.892  42.333  1.00 39.94 LIG 0.16  HD
ATOM     59  C   LEU D 690      11.796 -10.072  41.680  1.00 35.88 LIG 0.24  C 
ATOM     60 O    LEU D 690      11.872  -9.349  40.663  1.00 34.66 LIG-0.27  OA
BRANCH 59 61
ATOM     61  CA  LEU D 690      11.602  -9.449  43.043  1.00 33.43 LIG 0.18  C 
BRANCH 61 62
ATOM     62  CB  LEU D 690      10.140  -9.035  43.218  1.00 31.34 LIG 0.04  C 
BRANCH 62 63
ATOM     63  CG  LEU D 690       9.089 -10.033  42.744  1.00 30.93 LIG-0.02  C 
ATOM     64  CD1 LEU D 690       8.173 -10.410  43.897  1.00 30.90 LIG 0.01  C 
ATOM     65  CD2 LEU D 690       8.271  -9.420  41.623  1.00 28.62 LIG 0.01  C 
ENDBRANCH 62 63
ENDBRANCH 61 62
BRANCH 61 66
ATOM     66  N   LEU D 690      12.474  -8.288  43.227  1.00 35.22 LIG-0.35  N 
ATOM     67 H    LEU D 690      12.058  -7.555  43.399  1.00 35.22 LIG 0.16  HD
ATOM     68  C   ILE D 689      13.795  -8.383  43.133  1.00 41.04 LIG 0.26  C 
ATOM     69 O    ILE D 689      14.375  -9.462  42.940  1.00 39.56 LIG-0.27  OA
BRANCH 68 70
ATOM     70  CA  ILE D 689      14.579  -7.068  43.332  1.00 40.35 LIG 0.40  C 
ATOM     71  N   ILE D 689      13.742  -5.841  43.031  1.00 40.45 LIG 0.61  N 
BRANCH 70 72
ATOM     72  CB  ILE D 689      15.123  -7.066  44.782  1.00 42.26 LIG 0.03  C 
ATOM     73  CG2 ILE D 689      14.879  -5.702  45.455  1.00 38.55 LIG 0.01  C 
BRANCH 72 74
ATOM     74  CG1 ILE D 689      14.533  -8.214  45.606  1.00 45.91 LIG 0.00  C 
ATOM     75  CD1 ILE D 689      15.562  -9.229  46.102  1.00 45.96 LIG 0.01  C 
ENDBRANCH 72 74
ENDBRANCH 70 72
ENDBRANCH 68 70
ENDBRANCH 61 66
ENDBRANCH 59 61
ENDBRANCH 50 57
ENDBRANCH 47 50
ENDBRANCH 1 46
TORSDOF 30
ENDMDL
MODEL 42
USER: ADFR SOLUTION from run 191
USER: SCORE 20.629849 LL:  -7.675 LR: -15.047 RR:   0.000 FEB:  -6.098
USER: RMSD 7.147047
USER: SEED 190
USER: STATUS searching
USER: GENES 32
USER: genes 0 Translation |==|  0.51333 0.66831 0.36704
USER: genes 1 Rotation |==|  0.98445 0.38309 0.50824 0.53967
USER: genes 2 Torsion [N]-CA--C-[N] |==|  0.84720
USER: genes 3 Torsion [C]-N--CA-[C] |==|  0.60174
USER: genes 4 Torsion [N]-CA--C-[N] |==|  0.06572
USER: genes 5 Torsion [C]-N--CA-[C] |==|  0.79071
USER: genes 6 Torsion [N]-CA--C-[N] |==|  0.94067
USER: genes 7 Torsion [C]-N--CA-[CB] |==|  0.27064
USER: genes 8 Torsion [N]-CA--CB-[CG] |==|  0.15856
USER: genes 9 Torsion [CA]-CB--CG-[CD] |==|  0.38947
USER: genes 10 Torsion [CB]-CG--CD-[NE2] |==|  0.61044
USER: genes 11 Torsion [N]-CA--C-[O] |==|  0.46340
USER: genes 12 Torsion [N]-CA--CB-[CG] |==|  0.88164
USER: genes 13 Torsion [CA]-CB--CG-[CD2] |==|  0.23795
USER: genes 14 Torsion [N]-CA--CB-[CG] |==|  0.74223
USER: genes 15 Torsion [CA]-CB--CG-[CD1] |==|  0.89757
USER: genes 16 Torsion [C]-CA--CB-[CG] |==|  0.26799
USER: genes 17 Torsion [CA]-CB--CG-[CD] |==|  0.34114
USER: genes 18 Torsion [CB]-CG--CD-[NE] |==|  0.88469
USER: genes 19 Torsion [CG]-CD--NE-[CZ] |==|  0.44697
USER: genes 20 Torsion [C]-CA--N-[C] |==|  0.51941
USER: genes 21 Torsion [N]-C--CA-[N] |==|  0.39621
USER: genes 22 Torsion [C]-CA--CB-[CG] |==|  0.26098
USER: genes 23 Torsion [CA]-CB--CG-[ND1] |==|  0.97756
USER: genes 24 Torsion [C]-CA--N-[C] |==|  0.53385
USER: genes 25 Torsion [N]-C--CA-[N] |==|  0.91274
USER: genes 26 Torsion [C]-CA--CB-[CG] |==|  0.97480
USER: genes 27 Torsion [CA]-CB--CG-[CD2] |==|  0.75629
USER: genes 28 Torsion [C]-CA--N-[C] |==|  0.81316
USER: genes 29 Torsion [N]-C--CA-[N] |==|  0.41022
USER: genes 30 Torsion [C]-CA--CB-[CG1] |==|  0.89619
USER: genes 31 Torsion [CA]-CB--CG1-[CD1] |==|  0.68451
ROOT
ATOM      1  CA  ARG D 692       9.903 -11.846  36.326  1.00 48.73 LIG 0.18  C 
ENDROOT
BRANCH 1 2
ATOM      2  C   ARG D 692       8.433 -12.161  36.103  1.00 46.10 LIG 0.24  C 
ATOM      3  N   LEU D 693       8.010 -13.389  36.394  1.00 50.64 LIG-0.35  N 
ATOM      4 H    LEU D 693       8.499 -14.018  36.718  1.00 50.64 LIG 0.16  HD
ATOM      5 O    ARG D 692       7.692 -11.328  35.584  1.00 52.04 LIG-0.27  OA
BRANCH 3 6
ATOM      6  CA  LEU D 693       6.605 -13.736  36.159  1.00 43.34 LIG 0.18  C 
BRANCH 6 7
ATOM      7  C   LEU D 693       6.057 -14.667  37.232  1.00 37.95 LIG 0.24  C 
ATOM      8  N   LEU D 694       6.672 -14.642  38.397  1.00 39.22 LIG-0.35  N 
ATOM      9 H    LEU D 694       7.374 -14.172  38.553  1.00 39.22 LIG 0.16  HD
ATOM     10 O    LEU D 693       5.104 -15.415  36.984  1.00 43.86 LIG-0.27  OA
BRANCH 8 11
ATOM     11  CA  LEU D 694       6.216 -15.409  39.527  1.00 38.59 LIG 0.18  C 
BRANCH 11 12
ATOM     12  C   LEU D 694       5.006 -14.746  40.100  1.00 46.22 LIG 0.24  C 
ATOM     13  N   GLN D 695       4.875 -13.467  39.799  1.00 66.87 LIG-0.35  N 
ATOM     14 H    GLN D 695       5.495 -13.044  39.379  1.00 66.87 LIG 0.16  HD
ATOM     15 O    LEU D 694       4.273 -15.365  40.826  1.00 54.70 LIG-0.27  OA
BRANCH 13 16
ATOM     16  CA  GLN D 695       3.732 -12.597  40.104  1.00 62.86 LIG 0.16  C 
BRANCH 16 17
ATOM     17  CB  GLN D 695       3.989 -11.794  41.350  1.00 63.26 LIG 0.04  C 
BRANCH 17 18
ATOM     18  CG  GLN D 695       5.244 -10.972  41.227  1.00 77.24 LIG 0.10  C 
BRANCH 18 19
ATOM     19  CD  GLN D 695       5.103  -9.627  41.815  1.00 84.08 LIG 0.21  C 
ATOM     20 OE1  GLN D 695       4.511  -9.475  42.866  1.00 83.40 LIG-0.27  OA
ATOM     21  NE2 GLN D 695       5.662  -8.630  41.156  1.00 79.17 LIG-0.37  N 
ATOM     22 22HE GLN D 695       5.617  -7.830  41.468  1.00 79.17 LIG 0.16  HD
ATOM     23 21HE GLN D 695       6.072  -8.780  40.416  1.00 79.17 LIG 0.16  HD
ENDBRANCH 18 19
ENDBRANCH 17 18
ENDBRANCH 16 17
BRANCH 16 24
ATOM     24  C   GLN D 695       3.221 -11.712  38.969  1.00 61.14 LIG 0.22  C 
ATOM     25 O    GLN D 695       2.133 -11.137  39.054  1.00 66.66 LIG-0.29  OA
ENDBRANCH 16 24
ENDBRANCH 13 16
ENDBRANCH 11 12
BRANCH 11 26
ATOM     26  CB  LEU D 694       7.266 -15.468  40.615  1.00 34.51 LIG 0.04  C 
BRANCH 26 27
ATOM     27  CG  LEU D 694       8.715 -15.696  40.261  1.00 27.71 LIG-0.02  C 
ATOM     28  CD2 LEU D 694       9.444 -14.432  39.915  1.00 26.48 LIG 0.01  C 
ATOM     29  CD1 LEU D 694       8.913 -16.761  39.221  1.00 27.00 LIG 0.01  C 
ENDBRANCH 26 27
ENDBRANCH 11 26
ENDBRANCH 8 11
ENDBRANCH 6 7
BRANCH 6 30
ATOM     30  CB  LEU D 693       6.380 -14.327  34.757  1.00 45.67 LIG 0.04  C 
BRANCH 30 31
ATOM     31  CG  LEU D 693       5.985 -13.325  33.660  1.00 55.29 LIG-0.02  C 
ATOM     32  CD1 LEU D 693       5.066 -12.246  34.216  1.00 47.80 LIG 0.01  C 
ATOM     33  CD2 LEU D 693       7.210 -12.717  32.961  1.00 51.02 LIG 0.01  C 
ENDBRANCH 30 31
ENDBRANCH 6 30
ENDBRANCH 3 6
ENDBRANCH 1 2
BRANCH 1 34
ATOM     34  CB  ARG D 692      10.729 -12.563  35.237  1.00 49.09 LIG 0.04  C 
BRANCH 34 35
ATOM     35  CG  ARG D 692      11.048 -11.618  34.062  1.00 50.62 LIG 0.02  C 
BRANCH 35 36
ATOM     36  CD  ARG D 692      12.531 -11.456  33.764  1.00 57.04 LIG 0.14  C 
BRANCH 36 37
ATOM     37  NE  ARG D 692      13.267 -11.344  35.009  1.00 60.90 LIG-0.23  N 
ATOM     38 HE   ARG D 692      12.825 -11.127  35.714  1.00 60.90 LIG 0.18  HD
ATOM     39  CZ  ARG D 692      14.569 -11.551  35.140  1.00 61.50 LIG 0.67  C 
ATOM     40  NH1 ARG D 692      15.323 -11.799  34.070  1.00 46.48 LIG-0.23  N 
ATOM     41  NH2 ARG D 692      15.122 -11.461  36.342  1.00 64.68 LIG-0.23  N 
ATOM     42 1HH1 ARG D 692      14.964 -11.826  33.289  1.00 46.48 LIG 0.17  HD
ATOM     43 2HH1 ARG D 692      16.167 -11.932  34.162  1.00 46.48 LIG 0.17  HD
ATOM     44 1HH2 ARG D 692      14.636 -11.270  37.026  1.00 64.68 LIG 0.17  HD
ATOM     45 2HH2 ARG D 692      15.966 -11.593  36.439  1.00 64.68 LIG 0.17  HD
ENDBRANCH 36 37
ENDBRANCH 35 36
ENDBRANCH 34 35
ENDBRANCH 1 34
BRANCH 1 46
ATOM     46  N   ARG D 692      10.416 -12.108  37.692  1.00 43.06 LIG-0.35  N 
ATOM     47  C   HIS D 691      11.635 -11.754  38.060  1.00 44.11 LIG 0.24  C 
ATOM     48 O    HIS D 691      12.437 -11.223  37.306  1.00 43.39 LIG-0.27  OA
ATOM     49 H    ARG D 692       9.855 -12.505  38.210  1.00 43.06 LIG 0.16  HD
BRANCH 47 50
ATOM     50  CA  HIS D 691      11.978 -12.038  39.472  1.00 41.80 LIG 0.18  C 
BRANCH 50 51
ATOM     51  CB  HIS D 691      11.789 -10.753  40.204  1.00 51.00 LIG 0.10  C 
BRANCH 51 52
ATOM     52  CG  HIS D 691      10.463 -10.598  40.825  1.00 57.86 LIG 0.06  A 
ATOM     53 ND1  HIS D 691       9.475 -11.449  40.608  1.00 60.60 LIG-0.24  NA
ATOM     54  CE1 HIS D 691       8.403 -11.058  41.290  1.00 72.50 LIG 0.23  A 
ATOM     55 NE2  HIS D 691       8.704  -9.934  41.933  1.00 67.35 LIG-0.25  NA
ATOM     56  CD2 HIS D 691       9.964  -9.620  41.664  1.00 66.29 LIG 0.14  A 
ENDBRANCH 51 52
ENDBRANCH 50 51
BRANCH 50 57
ATOM     57  N   HIS D 691      13.356 -12.460  39.598  1.00 39.94 LIG-0.35  N 
ATOM     58 H    HIS D 691      13.825 -12.332  38.889  1.00 39.94 LIG 0.16  HD
ATOM     59  C   LEU D 690      13.844 -12.994  40.706  1.00 35.88 LIG 0.24  C 
ATOM     60 O    LEU D 690      13.166 -13.158  41.743  1.00 34.66 LIG-0.27  OA
BRANCH 59 61
ATOM     61  CA  LEU D 690      15.279 -13.466  40.653  1.00 33.43 LIG 0.18  C 
BRANCH 61 62
ATOM     62  CB  LEU D 690      16.212 -12.331  41.077  1.00 31.34 LIG 0.04  C 
BRANCH 62 63
ATOM     63  CG  LEU D 690      15.577 -10.955  41.246  1.00 30.93 LIG-0.02  C 
ATOM     64  CD1 LEU D 690      16.353 -10.149  42.276  1.00 30.90 LIG 0.01  C 
ATOM     65  CD2 LEU D 690      15.582 -10.223  39.918  1.00 28.62 LIG 0.01  C 
ENDBRANCH 62 63
ENDBRANCH 61 62
BRANCH 61 66
ATOM     66  N   LEU D 690      15.636 -13.931  39.311  1.00 35.22 LIG-0.35  N 
ATOM     67 H    LEU D 690      16.217 -13.440  38.909  1.00 35.22 LIG 0.16  HD
ATOM     68  C   ILE D 689      15.097 -15.022  38.782  1.00 41.04 LIG 0.26  C 
ATOM     69 O    ILE D 689      14.305 -15.746  39.404  1.00 39.56 LIG-0.27  OA
BRANCH 68 70
ATOM     70  CA  ILE D 689      15.559 -15.374  37.352  1.00 40.35 LIG 0.40  C 
ATOM     71  N   ILE D 689      15.587 -16.868  37.101  1.00 40.45 LIG 0.61  N 
BRANCH 70 72
ATOM     72  CB  ILE D 689      14.626 -14.630  36.365  1.00 42.26 LIG 0.03  C 
ATOM     73  CG2 ILE D 689      14.718 -15.246  34.957  1.00 38.55 LIG 0.01  C 
BRANCH 72 74
ATOM     74  CG1 ILE D 689      13.182 -14.597  36.873  1.00 45.91 LIG 0.00  C 
ATOM     75  CD1 ILE D 689      12.195 -15.399  36.025  1.00 45.96 LIG 0.01  C 
ENDBRANCH 72 74
ENDBRANCH 70 72
ENDBRANCH 68 70
ENDBRANCH 61 66
ENDBRANCH 59 61
ENDBRANCH 50 57
ENDBRANCH 47 50
ENDBRANCH 1 46
TORSDOF 30
ENDMDL
MODEL 43
USER: ADFR SOLUTION from run 60
USER: SCORE 21.492471 LL:  -7.535 LR: -15.042 RR:   0.000 FEB:  -6.093
USER: RMSD 7.102362
USER: SEED 59
USER: STATUS no improvement in best in 14 clusters for 5 generations
USER: GENES 32
USER: genes 0 Translation |==|  0.71518 0.58394 0.36635
USER: genes 1 Rotation |==|  0.93232 0.36115 0.59651 0.68575
USER: genes 2 Torsion [N]-CA--C-[N] |==|  0.90520
USER: genes 3 Torsion [C]-N--CA-[C] |==|  0.76765
USER: genes 4 Torsion [N]-CA--C-[N] |==|  0.19658
USER: genes 5 Torsion [C]-N--CA-[C] |==|  0.81791
USER: genes 6 Torsion [N]-CA--C-[N] |==|  0.86889
USER: genes 7 Torsion [C]-N--CA-[CB] |==|  0.74615
USER: genes 8 Torsion [N]-CA--CB-[CG] |==|  0.16937
USER: genes 9 Torsion [CA]-CB--CG-[CD] |==|  0.46557
USER: genes 10 Torsion [CB]-CG--CD-[NE2] |==|  0.36817
USER: genes 11 Torsion [N]-CA--C-[O] |==|  0.65865
USER: genes 12 Torsion [N]-CA--CB-[CG] |==|  0.90469
USER: genes 13 Torsion [CA]-CB--CG-[CD2] |==|  0.25196
USER: genes 14 Torsion [N]-CA--CB-[CG] |==|  0.70347
USER: genes 15 Torsion [CA]-CB--CG-[CD1] |==|  0.59327
USER: genes 16 Torsion [C]-CA--CB-[CG] |==|  0.32378
USER: genes 17 Torsion [CA]-CB--CG-[CD] |==|  0.11180
USER: genes 18 Torsion [CB]-CG--CD-[NE] |==|  0.73977
USER: genes 19 Torsion [CG]-CD--NE-[CZ] |==|  0.31311
USER: genes 20 Torsion [C]-CA--N-[C] |==|  0.86061
USER: genes 21 Torsion [N]-C--CA-[N] |==|  0.61667
USER: genes 22 Torsion [C]-CA--CB-[CG] |==|  0.46191
USER: genes 23 Torsion [CA]-CB--CG-[ND1] |==|  0.32165
USER: genes 24 Torsion [C]-CA--N-[C] |==|  0.14463
USER: genes 25 Torsion [N]-C--CA-[N] |==|  0.99384
USER: genes 26 Torsion [C]-CA--CB-[CG] |==|  0.39632
USER: genes 27 Torsion [CA]-CB--CG-[CD2] |==|  0.60280
USER: genes 28 Torsion [C]-CA--N-[C] |==|  0.74604
USER: genes 29 Torsion [N]-C--CA-[N] |==|  0.32927
USER: genes 30 Torsion [C]-CA--CB-[CG1] |==|  0.45555
USER: genes 31 Torsion [CA]-CB--CG1-[CD1] |==|  0.41923
ROOT
ATOM      1  CA  ARG D 692      14.445 -13.428  36.313  1.00 48.73 LIG 0.18  C 
ENDROOT
BRANCH 1 2
ATOM      2  C   ARG D 692      12.999 -13.760  35.982  1.00 46.10 LIG 0.24  C 
ATOM      3  N   LEU D 693      12.201 -14.123  36.984  1.00 50.64 LIG-0.35  N 
ATOM      4 H    LEU D 693      12.432 -14.168  37.810  1.00 50.64 LIG 0.16  HD
ATOM      5 O    ARG D 692      12.618 -13.777  34.813  1.00 52.04 LIG-0.27  OA
BRANCH 3 6
ATOM      6  CA  LEU D 693      10.809 -14.481  36.695  1.00 43.34 LIG 0.18  C 
BRANCH 6 7
ATOM      7  C   LEU D 693       9.907 -13.258  36.610  1.00 37.95 LIG 0.24  C 
ATOM      8  N   LEU D 694      10.073 -12.481  35.558  1.00 39.22 LIG-0.35  N 
ATOM      9 H    LEU D 694      10.681 -12.609  34.965  1.00 39.22 LIG 0.16  HD
ATOM     10 O    LEU D 693       9.093 -13.017  37.509  1.00 43.86 LIG-0.27  OA
BRANCH 8 11
ATOM     11  CA  LEU D 694       9.239 -11.336  35.306  1.00 38.59 LIG 0.18  C 
BRANCH 11 12
ATOM     12  C   LEU D 694       7.846 -11.805  35.037  1.00 46.22 LIG 0.24  C 
ATOM     13  N   GLN D 695       7.751 -12.805  34.180  1.00 66.87 LIG-0.35  N 
ATOM     14 H    GLN D 695       8.440 -13.091  33.753  1.00 66.87 LIG 0.16  HD
ATOM     15 O    LEU D 694       6.915 -11.236  35.544  1.00 54.70 LIG-0.27  OA
BRANCH 13 16
ATOM     16  CA  GLN D 695       6.539 -13.555  33.826  1.00 62.86 LIG 0.16  C 
BRANCH 16 17
ATOM     17  CB  GLN D 695       6.378 -14.761  34.711  1.00 63.26 LIG 0.04  C 
BRANCH 17 18
ATOM     18  CG  GLN D 695       6.243 -14.367  36.158  1.00 77.24 LIG 0.10  C 
BRANCH 18 19
ATOM     19  CD  GLN D 695       5.796 -15.482  37.012  1.00 84.08 LIG 0.21  C 
ATOM     20 OE1  GLN D 695       4.864 -16.182  36.669  1.00 83.40 LIG-0.27  OA
ATOM     21  NE2 GLN D 695       6.467 -15.679  38.131  1.00 79.17 LIG-0.37  N 
ATOM     22 22HE GLN D 695       6.250 -16.326  38.654  1.00 79.17 LIG 0.16  HD
ATOM     23 21HE GLN D 695       7.121 -15.160  38.337  1.00 79.17 LIG 0.16  HD
ENDBRANCH 18 19
ENDBRANCH 17 18
ENDBRANCH 16 17
BRANCH 16 24
ATOM     24  C   GLN D 695       5.241 -12.756  33.733  1.00 61.14 LIG 0.22  C 
ATOM     25 O    GLN D 695       4.260 -13.059  34.419  1.00 66.66 LIG-0.29  OA
ENDBRANCH 16 24
ENDBRANCH 13 16
ENDBRANCH 11 12
BRANCH 11 26
ATOM     26  CB  LEU D 694       9.708 -10.568  34.089  1.00 34.51 LIG 0.04  C 
BRANCH 26 27
ATOM     27  CG  LEU D 694      11.180 -10.478  33.768  1.00 27.71 LIG-0.02  C 
ATOM     28  CD2 LEU D 694      11.656 -11.579  32.869  1.00 26.48 LIG 0.01  C 
ATOM     29  CD1 LEU D 694      12.046 -10.333  34.985  1.00 27.00 LIG 0.01  C 
ENDBRANCH 26 27
ENDBRANCH 11 26
ENDBRANCH 8 11
ENDBRANCH 6 7
BRANCH 6 30
ATOM     30  CB  LEU D 693      10.251 -15.502  37.702  1.00 45.67 LIG 0.04  C 
BRANCH 30 31
ATOM     31  CG  LEU D 693      10.073 -16.935  37.178  1.00 55.29 LIG-0.02  C 
ATOM     32  CD1 LEU D 693       8.867 -17.604  37.823  1.00 47.80 LIG 0.01  C 
ATOM     33  CD2 LEU D 693       9.995 -16.989  35.645  1.00 51.02 LIG 0.01  C 
ENDBRANCH 30 31
ENDBRANCH 6 30
ENDBRANCH 3 6
ENDBRANCH 1 2
BRANCH 1 34
ATOM     34  CB  ARG D 692      15.295 -14.702  36.124  1.00 49.09 LIG 0.04  C 
BRANCH 34 35
ATOM     35  CG  ARG D 692      16.337 -14.520  35.002  1.00 50.62 LIG 0.02  C 
BRANCH 35 36
ATOM     36  CD  ARG D 692      17.010 -13.155  34.977  1.00 57.04 LIG 0.14  C 
BRANCH 36 37
ATOM     37  NE  ARG D 692      16.295 -12.279  34.068  1.00 60.90 LIG-0.23  N 
ATOM     38 HE   ARG D 692      16.322 -12.469  33.230  1.00 60.90 LIG 0.18  HD
ATOM     39  CZ  ARG D 692      15.606 -11.209  34.434  1.00 61.50 LIG 0.67  C 
ATOM     40  NH1 ARG D 692      15.603 -10.812  35.705  1.00 46.48 LIG-0.23  N 
ATOM     41  NH2 ARG D 692      14.957 -10.510  33.512  1.00 64.68 LIG-0.23  N 
ATOM     42 1HH1 ARG D 692      16.050 -11.251  36.294  1.00 46.48 LIG 0.17  HD
ATOM     43 2HH1 ARG D 692      15.154 -10.116  35.936  1.00 46.48 LIG 0.17  HD
ATOM     44 1HH2 ARG D 692      14.986 -10.753  32.688  1.00 64.68 LIG 0.17  HD
ATOM     45 2HH2 ARG D 692      14.506  -9.814  33.739  1.00 64.68 LIG 0.17  HD
ENDBRANCH 36 37
ENDBRANCH 35 36
ENDBRANCH 34 35
ENDBRANCH 1 34
BRANCH 1 46
ATOM     46  N   ARG D 692      14.672 -12.785  37.629  1.00 43.06 LIG-0.35  N 
ATOM     47  C   HIS D 691      13.978 -11.729  38.019  1.00 44.11 LIG 0.24  C 
ATOM     48 O    HIS D 691      13.133 -11.185  37.323  1.00 43.39 LIG-0.27  OA
ATOM     49 H    ARG D 692      15.285 -13.157  38.103  1.00 43.06 LIG 0.16  HD
BRANCH 47 50
ATOM     50  CA  HIS D 691      14.286 -11.236  39.380  1.00 41.80 LIG 0.18  C 
BRANCH 50 51
ATOM     51  CB  HIS D 691      14.953 -12.369  40.083  1.00 51.00 LIG 0.10  C 
BRANCH 51 52
ATOM     52  CG  HIS D 691      15.624 -11.995  41.339  1.00 57.86 LIG 0.06  A 
ATOM     53 ND1  HIS D 691      15.238 -12.459  42.514  1.00 60.60 LIG-0.24  NA
ATOM     54  CE1 HIS D 691      16.018 -11.951  43.464  1.00 72.50 LIG 0.23  A 
ATOM     55 NE2  HIS D 691      16.898 -11.136  42.889  1.00 67.35 LIG-0.25  NA
ATOM     56  CD2 HIS D 691      16.680 -11.137  41.581  1.00 66.29 LIG 0.14  A 
ENDBRANCH 51 52
ENDBRANCH 50 51
BRANCH 50 57
ATOM     57  N   HIS D 691      13.079 -10.879  40.091  1.00 39.94 LIG-0.35  N 
ATOM     58 H    HIS D 691      13.095 -10.087  40.428  1.00 39.94 LIG 0.16  HD
ATOM     59  C   LEU D 690      12.047 -11.698  40.210  1.00 35.88 LIG 0.24  C 
ATOM     60 O    LEU D 690      12.017 -12.839  39.701  1.00 34.66 LIG-0.27  OA
BRANCH 59 61
ATOM     61  CA  LEU D 690      10.894 -11.213  41.058  1.00 33.43 LIG 0.18  C 
BRANCH 61 62
ATOM     62  CB  LEU D 690       9.624 -11.139  40.209  1.00 31.34 LIG 0.04  C 
BRANCH 62 63
ATOM     63  CG  LEU D 690       8.322 -11.537  40.897  1.00 30.93 LIG-0.02  C 
ATOM     64  CD1 LEU D 690       7.604 -10.297  41.406  1.00 30.90 LIG 0.01  C 
ATOM     65  CD2 LEU D 690       7.431 -12.275  39.916  1.00 28.62 LIG 0.01  C 
ENDBRANCH 62 63
ENDBRANCH 61 62
BRANCH 61 66
ATOM     66  N   LEU D 690      11.179  -9.903  41.645  1.00 35.22 LIG-0.35  N 
ATOM     67 H    LEU D 690      10.950  -9.236  41.152  1.00 35.22 LIG 0.16  HD
ATOM     68  C   ILE D 689      11.742  -9.779  42.840  1.00 41.04 LIG 0.26  C 
ATOM     69 O    ILE D 689      12.011 -10.755  43.557  1.00 39.56 LIG-0.27  OA
BRANCH 68 70
ATOM     70  CA  ILE D 689      11.998  -8.333  43.316  1.00 40.35 LIG 0.40  C 
ATOM     71  N   ILE D 689      11.243  -7.997  44.586  1.00 40.45 LIG 0.61  N 
BRANCH 70 72
ATOM     72  CB  ILE D 689      13.528  -8.160  43.479  1.00 42.26 LIG 0.03  C 
ATOM     73  CG2 ILE D 689      14.284  -8.885  42.350  1.00 38.55 LIG 0.01  C 
BRANCH 72 74
ATOM     74  CG1 ILE D 689      13.921  -6.682  43.561  1.00 45.91 LIG 0.00  C 
ATOM     75  CD1 ILE D 689      15.183  -6.409  44.380  1.00 45.96 LIG 0.01  C 
ENDBRANCH 72 74
ENDBRANCH 70 72
ENDBRANCH 68 70
ENDBRANCH 61 66
ENDBRANCH 59 61
ENDBRANCH 50 57
ENDBRANCH 47 50
ENDBRANCH 1 46
TORSDOF 30
ENDMDL
MODEL 44
USER: ADFR SOLUTION from run 183
USER: SCORE 20.325637 LL:  -6.816 LR: -15.036 RR:   0.000 FEB:  -6.087
USER: RMSD 6.998082
USER: SEED 182
USER: STATUS no improvement in best in 17 clusters for 5 generations
USER: GENES 32
USER: genes 0 Translation |==|  0.57660 0.72423 0.37425
USER: genes 1 Rotation |==|  0.02200 0.47359 0.61904 0.58156
USER: genes 2 Torsion [N]-CA--C-[N] |==|  0.44954
USER: genes 3 Torsion [C]-N--CA-[C] |==|  0.19723
USER: genes 4 Torsion [N]-CA--C-[N] |==|  0.97252
USER: genes 5 Torsion [C]-N--CA-[C] |==|  0.16593
USER: genes 6 Torsion [N]-CA--C-[N] |==|  0.08690
USER: genes 7 Torsion [C]-N--CA-[CB] |==|  0.35962
USER: genes 8 Torsion [N]-CA--CB-[CG] |==|  0.90245
USER: genes 9 Torsion [CA]-CB--CG-[CD] |==|  0.72898
USER: genes 10 Torsion [CB]-CG--CD-[NE2] |==|  0.01715
USER: genes 11 Torsion [N]-CA--C-[O] |==|  0.91793
USER: genes 12 Torsion [N]-CA--CB-[CG] |==|  0.75796
USER: genes 13 Torsion [CA]-CB--CG-[CD2] |==|  0.94886
USER: genes 14 Torsion [N]-CA--CB-[CG] |==|  0.64611
USER: genes 15 Torsion [CA]-CB--CG-[CD1] |==|  0.85162
USER: genes 16 Torsion [C]-CA--CB-[CG] |==|  0.85886
USER: genes 17 Torsion [CA]-CB--CG-[CD] |==|  0.81818
USER: genes 18 Torsion [CB]-CG--CD-[NE] |==|  0.76863
USER: genes 19 Torsion [CG]-CD--NE-[CZ] |==|  0.32315
USER: genes 20 Torsion [C]-CA--N-[C] |==|  0.81821
USER: genes 21 Torsion [N]-C--CA-[N] |==|  0.90195
USER: genes 22 Torsion [C]-CA--CB-[CG] |==|  0.35635
USER: genes 23 Torsion [CA]-CB--CG-[ND1] |==|  0.76003
USER: genes 24 Torsion [C]-CA--N-[C] |==|  0.85626
USER: genes 25 Torsion [N]-C--CA-[N] |==|  0.03121
USER: genes 26 Torsion [C]-CA--CB-[CG] |==|  0.25160
USER: genes 27 Torsion [CA]-CB--CG-[CD2] |==|  0.04054
USER: genes 28 Torsion [C]-CA--N-[C] |==|  0.56136
USER: genes 29 Torsion [N]-C--CA-[N] |==|  0.35133
USER: genes 30 Torsion [C]-CA--CB-[CG1] |==|  0.83245
USER: genes 31 Torsion [CA]-CB--CG1-[CD1] |==|  0.62185
ROOT
ATOM      1  CA  ARG D 692      11.327 -10.798  36.467  1.00 48.73 LIG 0.18  C 
ENDROOT
BRANCH 1 2
ATOM      2  C   ARG D 692      10.175 -11.789  36.444  1.00 46.10 LIG 0.24  C 
ATOM      3  N   LEU D 693       8.964 -11.327  36.139  1.00 50.64 LIG-0.35  N 
ATOM      4 H    LEU D 693       8.782 -10.512  35.935  1.00 50.64 LIG 0.16  HD
ATOM      5 O    ARG D 692      10.354 -12.956  36.787  1.00 52.04 LIG-0.27  OA
BRANCH 3 6
ATOM      6  CA  LEU D 693       7.826 -12.250  36.141  1.00 43.34 LIG 0.18  C 
BRANCH 6 7
ATOM      7  C   LEU D 693       7.439 -12.683  37.549  1.00 37.95 LIG 0.24  C 
ATOM      8  N   LEU D 694       8.274 -12.349  38.512  1.00 39.22 LIG-0.35  N 
ATOM      9 H    LEU D 694       9.025 -11.954  38.374  1.00 39.22 LIG 0.16  HD
ATOM     10 O    LEU D 693       6.407 -13.335  37.741  1.00 43.86 LIG-0.27  OA
BRANCH 8 11
ATOM     11  CA  LEU D 694       8.001 -12.622  39.899  1.00 38.59 LIG 0.18  C 
BRANCH 11 12
ATOM     12  C   LEU D 694       7.842 -14.097  40.076  1.00 46.22 LIG 0.24  C 
ATOM     13  N   GLN D 695       8.561 -14.838  39.252  1.00 66.87 LIG-0.35  N 
ATOM     14 H    GLN D 695       9.010 -14.482  38.612  1.00 66.87 LIG 0.16  HD
ATOM     15 O    LEU D 694       7.058 -14.521  40.884  1.00 54.70 LIG-0.27  OA
BRANCH 13 16
ATOM     16  CA  GLN D 695       8.712 -16.299  39.278  1.00 62.86 LIG 0.16  C 
BRANCH 16 17
ATOM     17  CB  GLN D 695       8.449 -16.888  37.919  1.00 63.26 LIG 0.04  C 
BRANCH 17 18
ATOM     18  CG  GLN D 695       7.370 -16.132  37.190  1.00 77.24 LIG 0.10  C 
BRANCH 18 19
ATOM     19  CD  GLN D 695       6.048 -16.773  37.308  1.00 84.08 LIG 0.21  C 
ATOM     20 OE1  GLN D 695       5.103 -16.354  36.669  1.00 83.40 LIG-0.27  OA
ATOM     21  NE2 GLN D 695       5.963 -17.814  38.114  1.00 79.17 LIG-0.37  N 
ATOM     22 22HE GLN D 695       5.215 -18.227  38.205  1.00 79.17 LIG 0.16  HD
ATOM     23 21HE GLN D 695       6.656 -18.079  38.549  1.00 79.17 LIG 0.16  HD
ENDBRANCH 18 19
ENDBRANCH 17 18
ENDBRANCH 16 17
BRANCH 16 24
ATOM     24  C   GLN D 695      10.006 -16.844  39.879  1.00 61.14 LIG 0.22  C 
ATOM     25 O    GLN D 695      11.053 -16.194  39.822  1.00 66.66 LIG-0.29  OA
ENDBRANCH 16 24
ENDBRANCH 13 16
ENDBRANCH 11 12
BRANCH 11 26
ATOM     26  CB  LEU D 694       6.714 -11.964  40.349  1.00 34.51 LIG 0.04  C 
BRANCH 26 27
ATOM     27  CG  LEU D 694       6.724 -10.543  40.855  1.00 27.71 LIG-0.02  C 
ATOM     28  CD2 LEU D 694       8.087 -10.071  41.264  1.00 26.48 LIG 0.01  C 
ATOM     29  CD1 LEU D 694       5.698 -10.284  41.920  1.00 27.00 LIG 0.01  C 
ENDBRANCH 26 27
ENDBRANCH 11 26
ENDBRANCH 8 11
ENDBRANCH 6 7
BRANCH 6 30
ATOM     30  CB  LEU D 693       8.069 -13.475  35.242  1.00 45.67 LIG 0.04  C 
BRANCH 30 31
ATOM     31  CG  LEU D 693       6.980 -13.770  34.199  1.00 55.29 LIG-0.02  C 
ATOM     32  CD1 LEU D 693       5.610 -13.866  34.856  1.00 47.80 LIG 0.01  C 
ATOM     33  CD2 LEU D 693       6.983 -12.752  33.049  1.00 51.02 LIG 0.01  C 
ENDBRANCH 30 31
ENDBRANCH 6 30
ENDBRANCH 3 6
ENDBRANCH 1 2
BRANCH 1 34
ATOM     34  CB  ARG D 692      11.634 -10.370  35.016  1.00 49.09 LIG 0.04  C 
BRANCH 34 35
ATOM     35  CG  ARG D 692      11.806 -11.594  34.095  1.00 50.62 LIG 0.02  C 
BRANCH 35 36
ATOM     36  CD  ARG D 692      13.011 -12.467  34.417  1.00 57.04 LIG 0.14  C 
BRANCH 36 37
ATOM     37  NE  ARG D 692      14.196 -11.905  33.797  1.00 60.90 LIG-0.23  N 
ATOM     38 HE   ARG D 692      14.217 -11.870  32.938  1.00 60.90 LIG 0.18  HD
ATOM     39  CZ  ARG D 692      15.248 -11.443  34.456  1.00 61.50 LIG 0.67  C 
ATOM     40  NH1 ARG D 692      15.314 -11.553  35.782  1.00 46.48 LIG-0.23  N 
ATOM     41  NH2 ARG D 692      16.256 -10.911  33.777  1.00 64.68 LIG-0.23  N 
ATOM     42 1HH1 ARG D 692      14.671 -11.927  36.215  1.00 46.48 LIG 0.17  HD
ATOM     43 2HH1 ARG D 692      16.000 -11.252  36.204  1.00 46.48 LIG 0.17  HD
ATOM     44 1HH2 ARG D 692      16.222 -10.869  32.919  1.00 64.68 LIG 0.17  HD
ATOM     45 2HH2 ARG D 692      16.944 -10.608  34.195  1.00 64.68 LIG 0.17  HD
ENDBRANCH 36 37
ENDBRANCH 35 36
ENDBRANCH 34 35
ENDBRANCH 1 34
BRANCH 1 46
ATOM     46  N   ARG D 692      12.538 -11.238  37.198  1.00 43.06 LIG-0.35  N 
ATOM     47  C   HIS D 691      12.531 -11.440  38.504  1.00 44.11 LIG 0.24  C 
ATOM     48 O    HIS D 691      11.551 -11.248  39.209  1.00 43.39 LIG-0.27  OA
ATOM     49 H    ARG D 692      13.232 -11.347  36.700  1.00 43.06 LIG 0.16  HD
BRANCH 47 50
ATOM     50  CA  HIS D 691      13.806 -11.928  39.077  1.00 41.80 LIG 0.18  C 
BRANCH 50 51
ATOM     51  CB  HIS D 691      14.647 -10.716  39.290  1.00 51.00 LIG 0.10  C 
BRANCH 51 52
ATOM     52  CG  HIS D 691      15.205 -10.595  40.648  1.00 57.86 LIG 0.06  A 
ATOM     53 ND1  HIS D 691      14.540 -10.028  41.639  1.00 60.60 LIG-0.24  NA
ATOM     54  CE1 HIS D 691      15.285 -10.055  42.739  1.00 72.50 LIG 0.23  A 
ATOM     55 NE2  HIS D 691      16.447 -10.629  42.441  1.00 67.35 LIG-0.25  NA
ATOM     56  CD2 HIS D 691      16.433 -10.969  41.160  1.00 66.29 LIG 0.14  A 
ENDBRANCH 51 52
ENDBRANCH 50 51
BRANCH 50 57
ATOM     57  N   HIS D 691      14.480 -12.822  38.162  1.00 39.94 LIG-0.35  N 
ATOM     58 H    HIS D 691      15.301 -12.612  38.012  1.00 39.94 LIG 0.16  HD
ATOM     59  C   LEU D 690      13.885 -13.865  37.608  1.00 35.88 LIG 0.24  C 
ATOM     60 O    LEU D 690      12.698 -14.181  37.844  1.00 34.66 LIG-0.27  OA
BRANCH 59 61
ATOM     61  CA  LEU D 690      14.695 -14.651  36.603  1.00 33.43 LIG 0.18  C 
BRANCH 61 62
ATOM     62  CB  LEU D 690      14.573 -16.147  36.898  1.00 31.34 LIG 0.04  C 
BRANCH 62 63
ATOM     63  CG  LEU D 690      13.439 -16.887  36.197  1.00 30.93 LIG-0.02  C 
ATOM     64  CD1 LEU D 690      12.330 -17.198  37.190  1.00 30.90 LIG 0.01  C 
ATOM     65  CD2 LEU D 690      12.889 -16.032  35.071  1.00 28.62 LIG 0.01  C 
ENDBRANCH 62 63
ENDBRANCH 61 62
BRANCH 61 66
ATOM     66  N   LEU D 690      16.104 -14.252  36.627  1.00 35.22 LIG-0.35  N 
ATOM     67 H    LEU D 690      16.354 -13.878  37.360  1.00 35.22 LIG 0.16  HD
ATOM     68  C   ILE D 689      16.908 -14.461  35.592  1.00 41.04 LIG 0.26  C 
ATOM     69 O    ILE D 689      16.538 -15.053  34.567  1.00 39.56 LIG-0.27  OA
BRANCH 68 70
ATOM     70  CA  ILE D 689      18.360 -13.968  35.759  1.00 40.35 LIG 0.40  C 
ATOM     71  N   ILE D 689      19.379 -15.056  35.485  1.00 40.45 LIG 0.61  N 
BRANCH 70 72
ATOM     72  CB  ILE D 689      18.546 -12.743  34.830  1.00 42.26 LIG 0.03  C 
ATOM     73  CG2 ILE D 689      19.934 -12.107  35.035  1.00 38.55 LIG 0.01  C 
BRANCH 72 74
ATOM     74  CG1 ILE D 689      18.305 -13.108  33.363  1.00 45.91 LIG 0.00  C 
ATOM     75  CD1 ILE D 689      19.331 -12.528  32.390  1.00 45.96 LIG 0.01  C 
ENDBRANCH 72 74
ENDBRANCH 70 72
ENDBRANCH 68 70
ENDBRANCH 61 66
ENDBRANCH 59 61
ENDBRANCH 50 57
ENDBRANCH 47 50
ENDBRANCH 1 46
TORSDOF 30
ENDMDL
MODEL 45
USER: ADFR SOLUTION from run 6
USER: SCORE 20.249309 LL:  -7.129 LR: -15.029 RR:   0.000 FEB:  -6.080
USER: RMSD 8.239434
USER: SEED 572840
USER: STATUS no improvement in best in 7 clusters for 5 generations
USER: GENES 32
USER: genes 0 Translation |==|  0.66516 0.50611 0.37861
USER: genes 1 Rotation |==|  0.42859 0.91187 0.65469 0.72657
USER: genes 2 Torsion [N]-CA--C-[N] |==|  0.85595
USER: genes 3 Torsion [C]-N--CA-[C] |==|  0.51144
USER: genes 4 Torsion [N]-CA--C-[N] |==|  0.45269
USER: genes 5 Torsion [C]-N--CA-[C] |==|  0.57589
USER: genes 6 Torsion [N]-CA--C-[N] |==|  0.01251
USER: genes 7 Torsion [C]-N--CA-[CB] |==|  0.50456
USER: genes 8 Torsion [N]-CA--CB-[CG] |==|  0.67764
USER: genes 9 Torsion [CA]-CB--CG-[CD] |==|  0.53187
USER: genes 10 Torsion [CB]-CG--CD-[NE2] |==|  0.42837
USER: genes 11 Torsion [N]-CA--C-[O] |==|  0.64515
USER: genes 12 Torsion [N]-CA--CB-[CG] |==|  0.68050
USER: genes 13 Torsion [CA]-CB--CG-[CD2] |==|  0.21323
USER: genes 14 Torsion [N]-CA--CB-[CG] |==|  0.56410
USER: genes 15 Torsion [CA]-CB--CG-[CD1] |==|  0.16884
USER: genes 16 Torsion [C]-CA--CB-[CG] |==|  0.31093
USER: genes 17 Torsion [CA]-CB--CG-[CD] |==|  0.69965
USER: genes 18 Torsion [CB]-CG--CD-[NE] |==|  0.02424
USER: genes 19 Torsion [CG]-CD--NE-[CZ] |==|  0.73823
USER: genes 20 Torsion [C]-CA--N-[C] |==|  0.81437
USER: genes 21 Torsion [N]-C--CA-[N] |==|  0.95396
USER: genes 22 Torsion [C]-CA--CB-[CG] |==|  0.86416
USER: genes 23 Torsion [CA]-CB--CG-[ND1] |==|  0.24540
USER: genes 24 Torsion [C]-CA--N-[C] |==|  0.78327
USER: genes 25 Torsion [N]-C--CA-[N] |==|  0.64868
USER: genes 26 Torsion [C]-CA--CB-[CG] |==|  0.44822
USER: genes 27 Torsion [CA]-CB--CG-[CD2] |==|  0.24566
USER: genes 28 Torsion [C]-CA--N-[C] |==|  0.16666
USER: genes 29 Torsion [N]-C--CA-[N] |==|  0.43783
USER: genes 30 Torsion [C]-CA--CB-[CG1] |==|  0.84146
USER: genes 31 Torsion [CA]-CB--CG1-[CD1] |==|  0.77377
ROOT
ATOM      1  CA  ARG D 692      13.319 -14.887  36.552  1.00 48.73 LIG 0.18  C 
ENDROOT
BRANCH 1 2
ATOM      2  C   ARG D 692      13.680 -14.061  37.775  1.00 46.10 LIG 0.24  C 
ATOM      3  N   LEU D 693      12.807 -13.142  38.183  1.00 50.64 LIG-0.35  N 
ATOM      4 H    LEU D 693      12.043 -12.989  37.820  1.00 50.64 LIG 0.16  HD
ATOM      5 O    ARG D 692      14.783 -14.184  38.304  1.00 52.04 LIG-0.27  OA
BRANCH 3 6
ATOM      6  CA  LEU D 693      13.139 -12.305  39.339  1.00 43.34 LIG 0.18  C 
BRANCH 6 7
ATOM      7  C   LEU D 693      11.991 -11.382  39.727  1.00 37.95 LIG 0.24  C 
ATOM      8  N   LEU D 694      12.049 -10.853  40.933  1.00 39.22 LIG-0.35  N 
ATOM      9 H    LEU D 694      12.662 -11.041  41.505  1.00 39.22 LIG 0.16  HD
ATOM     10 O    LEU D 693      11.057 -11.182  38.943  1.00 43.86 LIG-0.27  OA
BRANCH 8 11
ATOM     11  CA  LEU D 694      11.077  -9.902  41.406  1.00 38.59 LIG 0.18  C 
BRANCH 11 12
ATOM     12  C   LEU D 694      11.720  -9.029  42.433  1.00 46.22 LIG 0.24  C 
ATOM     13  N   GLN D 695      13.011  -9.239  42.614  1.00 66.87 LIG-0.35  N 
ATOM     14 H    GLN D 695      13.413  -9.892  42.226  1.00 66.87 LIG 0.16  HD
ATOM     15 O    LEU D 694      11.049  -8.252  43.062  1.00 54.70 LIG-0.27  OA
BRANCH 13 16
ATOM     16  CA  GLN D 695      13.928  -8.453  43.450  1.00 62.86 LIG 0.16  C 
BRANCH 16 17
ATOM     17  CB  GLN D 695      15.330  -8.991  43.359  1.00 63.26 LIG 0.04  C 
BRANCH 17 18
ATOM     18  CG  GLN D 695      15.804  -9.517  44.688  1.00 77.24 LIG 0.10  C 
BRANCH 18 19
ATOM     19  CD  GLN D 695      17.251  -9.801  44.703  1.00 84.08 LIG 0.21  C 
ATOM     20 OE1  GLN D 695      17.839 -10.046  43.668  1.00 83.40 LIG-0.27  OA
ATOM     21  NE2 GLN D 695      17.853  -9.752  45.876  1.00 79.17 LIG-0.37  N 
ATOM     22 22HE GLN D 695      18.699  -9.898  45.931  1.00 79.17 LIG 0.16  HD
ATOM     23 21HE GLN D 695      17.400  -9.575  46.584  1.00 79.17 LIG 0.16  HD
ENDBRANCH 18 19
ENDBRANCH 17 18
ENDBRANCH 16 17
BRANCH 16 24
ATOM     24  C   GLN D 695      13.901  -6.937  43.259  1.00 61.14 LIG 0.22  C 
ATOM     25 O    GLN D 695      14.940  -6.308  43.044  1.00 66.66 LIG-0.29  OA
ENDBRANCH 16 24
ENDBRANCH 13 16
ENDBRANCH 11 12
BRANCH 11 26
ATOM     26  CB  LEU D 694       9.901 -10.593  42.061  1.00 34.51 LIG 0.04  C 
BRANCH 26 27
ATOM     27  CG  LEU D 694       8.525 -10.497  41.449  1.00 27.71 LIG-0.02  C 
ATOM     28  CD2 LEU D 694       8.348 -11.384  40.253  1.00 26.48 LIG 0.01  C 
ATOM     29  CD1 LEU D 694       8.096  -9.086  41.169  1.00 27.00 LIG 0.01  C 
ENDBRANCH 26 27
ENDBRANCH 11 26
ENDBRANCH 8 11
ENDBRANCH 6 7
BRANCH 6 30
ATOM     30  CB  LEU D 693      14.434 -11.503  39.125  1.00 45.67 LIG 0.04  C 
BRANCH 30 31
ATOM     31  CG  LEU D 693      15.161 -11.046  40.400  1.00 55.29 LIG-0.02  C 
ATOM     32  CD1 LEU D 693      15.581 -12.242  41.244  1.00 47.80 LIG 0.01  C 
ATOM     33  CD2 LEU D 693      16.352 -10.127  40.093  1.00 51.02 LIG 0.01  C 
ENDBRANCH 30 31
ENDBRANCH 6 30
ENDBRANCH 3 6
ENDBRANCH 1 2
BRANCH 1 34
ATOM     34  CB  ARG D 692      13.512 -14.013  35.295  1.00 49.09 LIG 0.04  C 
BRANCH 34 35
ATOM     35  CG  ARG D 692      14.688 -14.517  34.436  1.00 50.62 LIG 0.02  C 
BRANCH 35 36
ATOM     36  CD  ARG D 692      15.923 -13.629  34.467  1.00 57.04 LIG 0.14  C 
BRANCH 36 37
ATOM     37  NE  ARG D 692      15.758 -12.605  35.481  1.00 60.90 LIG-0.23  N 
ATOM     38 HE   ARG D 692      15.979 -12.804  36.288  1.00 60.90 LIG 0.18  HD
ATOM     39  CZ  ARG D 692      15.292 -11.385  35.257  1.00 61.50 LIG 0.67  C 
ATOM     40  NH1 ARG D 692      14.847 -11.046  34.048  1.00 46.48 LIG-0.23  N 
ATOM     41  NH2 ARG D 692      15.228 -10.521  36.260  1.00 64.68 LIG-0.23  N 
ATOM     42 1HH1 ARG D 692      14.863 -11.621  33.407  1.00 46.48 LIG 0.17  HD
ATOM     43 2HH1 ARG D 692      14.545 -10.253  33.908  1.00 46.48 LIG 0.17  HD
ATOM     44 1HH2 ARG D 692      15.488 -10.754  37.046  1.00 64.68 LIG 0.17  HD
ATOM     45 2HH2 ARG D 692      14.927  -9.726  36.126  1.00 64.68 LIG 0.17  HD
ENDBRANCH 36 37
ENDBRANCH 35 36
ENDBRANCH 34 35
ENDBRANCH 1 34
BRANCH 1 46
ATOM     46  N   ARG D 692      11.990 -15.543  36.588  1.00 43.06 LIG-0.35  N 
ATOM     47  C   HIS D 691      11.712 -16.512  37.443  1.00 44.11 LIG 0.24  C 
ATOM     48 O    HIS D 691      12.527 -16.964  38.235  1.00 43.39 LIG-0.27  OA
ATOM     49 H    ARG D 692      11.429 -15.237  36.012  1.00 43.06 LIG 0.16  HD
BRANCH 47 50
ATOM     50  CA  HIS D 691      10.325 -17.027  37.390  1.00 41.80 LIG 0.18  C 
BRANCH 50 51
ATOM     51  CB  HIS D 691      10.397 -18.312  36.639  1.00 51.00 LIG 0.10  C 
BRANCH 51 52
ATOM     52  CG  HIS D 691      11.146 -18.235  35.374  1.00 57.86 LIG 0.06  A 
ATOM     53 ND1  HIS D 691      12.452 -18.430  35.310  1.00 60.60 LIG-0.24  NA
ATOM     54  CE1 HIS D 691      12.854 -18.295  34.050  1.00 72.50 LIG 0.23  A 
ATOM     55 NE2  HIS D 691      11.796 -17.990  33.305  1.00 67.35 LIG-0.25  NA
ATOM     56  CD2 HIS D 691      10.728 -17.940  34.090  1.00 66.29 LIG 0.14  A 
ENDBRANCH 51 52
ENDBRANCH 50 51
BRANCH 50 57
ATOM     57  N   HIS D 691       9.457 -16.111  36.685  1.00 39.94 LIG-0.35  N 
ATOM     58 H    HIS D 691       9.281 -16.350  35.877  1.00 39.94 LIG 0.16  HD
ATOM     59  C   LEU D 690       8.979 -15.006  37.235  1.00 35.88 LIG 0.24  C 
ATOM     60 O    LEU D 690       9.218 -14.672  38.416  1.00 34.66 LIG-0.27  OA
BRANCH 59 61
ATOM     61  CA  LEU D 690       8.157 -14.107  36.342  1.00 33.43 LIG 0.18  C 
BRANCH 61 62
ATOM     62  CB  LEU D 690       8.161 -14.655  34.914  1.00 31.34 LIG 0.04  C 
BRANCH 62 63
ATOM     63  CG  LEU D 690       7.058 -14.150  33.989  1.00 30.93 LIG-0.02  C 
ATOM     64  CD1 LEU D 690       5.797 -13.870  34.791  1.00 30.90 LIG 0.01  C 
ATOM     65  CD2 LEU D 690       7.514 -12.881  33.296  1.00 28.62 LIG 0.01  C 
ENDBRANCH 62 63
ENDBRANCH 61 62
BRANCH 61 66
ATOM     66  N   LEU D 690       8.670 -12.735  36.351  1.00 35.22 LIG-0.35  N 
ATOM     67 H    LEU D 690       8.106 -12.148  36.626  1.00 35.22 LIG 0.16  HD
ATOM     68  C   ILE D 689       9.906 -12.448  35.961  1.00 41.04 LIG 0.26  C 
ATOM     69 O    ILE D 689      10.720 -13.320  35.621  1.00 39.56 LIG-0.27  OA
BRANCH 68 70
ATOM     70  CA  ILE D 689      10.295 -10.956  36.008  1.00 40.35 LIG 0.40  C 
ATOM     71  N   ILE D 689      11.795 -10.747  36.087  1.00 40.45 LIG 0.61  N 
BRANCH 70 72
ATOM     72  CB  ILE D 689       9.672 -10.273  34.766  1.00 42.26 LIG 0.03  C 
ATOM     73  CG2 ILE D 689       9.973  -8.762  34.764  1.00 38.55 LIG 0.01  C 
BRANCH 72 74
ATOM     74  CG1 ILE D 689      10.133 -10.940  33.467  1.00 45.91 LIG 0.00  C 
ATOM     75  CD1 ILE D 689      11.508 -10.488  32.977  1.00 45.96 LIG 0.01  C 
ENDBRANCH 72 74
ENDBRANCH 70 72
ENDBRANCH 68 70
ENDBRANCH 61 66
ENDBRANCH 59 61
ENDBRANCH 50 57
ENDBRANCH 47 50
ENDBRANCH 1 46
TORSDOF 30
ENDMDL
MODEL 46
USER: ADFR SOLUTION from run 94
USER: SCORE 21.866676 LL:  -7.293 LR: -15.030 RR:   0.000 FEB:  -6.081
USER: RMSD 6.846656
USER: SEED 93
USER: STATUS no improvement in best in 7 clusters for 5 generations
USER: GENES 32
USER: genes 0 Translation |==|  0.55900 0.67740 0.34502
USER: genes 1 Rotation |==|  0.03467 0.52733 0.66935 0.56356
USER: genes 2 Torsion [N]-CA--C-[N] |==|  0.42225
USER: genes 3 Torsion [C]-N--CA-[C] |==|  0.18057
USER: genes 4 Torsion [N]-CA--C-[N] |==|  0.06700
USER: genes 5 Torsion [C]-N--CA-[C] |==|  0.81452
USER: genes 6 Torsion [N]-CA--C-[N] |==|  0.93274
USER: genes 7 Torsion [C]-N--CA-[CB] |==|  0.81319
USER: genes 8 Torsion [N]-CA--CB-[CG] |==|  0.74634
USER: genes 9 Torsion [CA]-CB--CG-[CD] |==|  0.65927
USER: genes 10 Torsion [CB]-CG--CD-[NE2] |==|  0.81775
USER: genes 11 Torsion [N]-CA--C-[O] |==|  0.57104
USER: genes 12 Torsion [N]-CA--CB-[CG] |==|  0.11465
USER: genes 13 Torsion [CA]-CB--CG-[CD2] |==|  0.57543
USER: genes 14 Torsion [N]-CA--CB-[CG] |==|  0.77762
USER: genes 15 Torsion [CA]-CB--CG-[CD1] |==|  0.89132
USER: genes 16 Torsion [C]-CA--CB-[CG] |==|  0.63940
USER: genes 17 Torsion [CA]-CB--CG-[CD] |==|  0.79329
USER: genes 18 Torsion [CB]-CG--CD-[NE] |==|  0.41489
USER: genes 19 Torsion [CG]-CD--NE-[CZ] |==|  0.65308
USER: genes 20 Torsion [C]-CA--N-[C] |==|  0.78002
USER: genes 21 Torsion [N]-C--CA-[N] |==|  0.48065
USER: genes 22 Torsion [C]-CA--CB-[CG] |==|  0.87021
USER: genes 23 Torsion [CA]-CB--CG-[ND1] |==|  0.34999
USER: genes 24 Torsion [C]-CA--N-[C] |==|  0.77597
USER: genes 25 Torsion [N]-C--CA-[N] |==|  0.34022
USER: genes 26 Torsion [C]-CA--CB-[CG] |==|  0.41568
USER: genes 27 Torsion [CA]-CB--CG-[CD2] |==|  0.30794
USER: genes 28 Torsion [C]-CA--N-[C] |==|  0.72222
USER: genes 29 Torsion [N]-C--CA-[N] |==|  0.91165
USER: genes 30 Torsion [C]-CA--CB-[CG1] |==|  0.92465
USER: genes 31 Torsion [CA]-CB--CG1-[CD1] |==|  0.38534
ROOT
ATOM      1  CA  ARG D 692      10.931 -11.676  35.897  1.00 48.73 LIG 0.18  C 
ENDROOT
BRANCH 1 2
ATOM      2  C   ARG D 692       9.683 -12.460  36.270  1.00 46.10 LIG 0.24  C 
ATOM      3  N   LEU D 693       8.538 -11.790  36.377  1.00 50.64 LIG-0.35  N 
ATOM      4 H    LEU D 693       8.441 -10.948  36.233  1.00 50.64 LIG 0.16  HD
ATOM      5 O    ARG D 692       9.762 -13.655  36.551  1.00 52.04 LIG-0.27  OA
BRANCH 3 6
ATOM      6  CA  LEU D 693       7.323 -12.511  36.767  1.00 43.34 LIG 0.18  C 
BRANCH 6 7
ATOM      7  C   LEU D 693       7.412 -13.061  38.185  1.00 37.95 LIG 0.24  C 
ATOM      8  N   LEU D 694       8.249 -12.448  38.997  1.00 39.22 LIG-0.35  N 
ATOM      9 H    LEU D 694       8.763 -11.804  38.753  1.00 39.22 LIG 0.16  HD
ATOM     10 O    LEU D 693       6.745 -14.047  38.516  1.00 43.86 LIG-0.27  OA
BRANCH 8 11
ATOM     11  CA  LEU D 694       8.380 -12.808  40.385  1.00 38.59 LIG 0.18  C 
BRANCH 11 12
ATOM     12  C   LEU D 694       7.109 -12.467  41.091  1.00 46.22 LIG 0.24  C 
ATOM     13  N   GLN D 695       6.389 -11.520  40.518  1.00 66.87 LIG-0.35  N 
ATOM     14 H    GLN D 695       6.689 -11.083  39.841  1.00 66.87 LIG 0.16  HD
ATOM     15 O    LEU D 694       6.841 -13.005  42.134  1.00 54.70 LIG-0.27  OA
BRANCH 13 16
ATOM     16  CA  GLN D 695       5.045 -11.072  40.905  1.00 62.86 LIG 0.16  C 
BRANCH 16 17
ATOM     17  CB  GLN D 695       4.028 -12.151  40.652  1.00 63.26 LIG 0.04  C 
BRANCH 17 18
ATOM     18  CG  GLN D 695       3.426 -12.029  39.277  1.00 77.24 LIG 0.10  C 
BRANCH 18 19
ATOM     19  CD  GLN D 695       1.959 -11.896  39.309  1.00 84.08 LIG 0.21  C 
ATOM     20 OE1  GLN D 695       1.426 -10.875  38.919  1.00 83.40 LIG-0.27  OA
ATOM     21  NE2 GLN D 695       1.278 -12.934  39.756  1.00 79.17 LIG-0.37  N 
ATOM     22 22HE GLN D 695       0.418 -12.906  39.780  1.00 79.17 LIG 0.16  HD
ATOM     23 21HE GLN D 695       1.692 -13.637  40.023  1.00 79.17 LIG 0.16  HD
ENDBRANCH 18 19
ENDBRANCH 17 18
ENDBRANCH 16 17
BRANCH 16 24
ATOM     24  C   GLN D 695       4.895 -10.485  42.307  1.00 61.14 LIG 0.22  C 
ATOM     25 O    GLN D 695       3.810 -10.516  42.894  1.00 66.66 LIG-0.29  OA
ENDBRANCH 16 24
ENDBRANCH 13 16
ENDBRANCH 11 12
BRANCH 11 26
ATOM     26  CB  LEU D 694       9.498 -12.036  41.053  1.00 34.51 LIG 0.04  C 
BRANCH 26 27
ATOM     27  CG  LEU D 694       9.691 -10.570  40.757  1.00 27.71 LIG-0.02  C 
ATOM     28  CD2 LEU D 694      11.108 -10.113  40.933  1.00 26.48 LIG 0.01  C 
ATOM     29  CD1 LEU D 694       8.722  -9.683  41.484  1.00 27.00 LIG 0.01  C 
ENDBRANCH 26 27
ENDBRANCH 11 26
ENDBRANCH 8 11
ENDBRANCH 6 7
BRANCH 6 30
ATOM     30  CB  LEU D 693       6.962 -13.626  35.771  1.00 45.67 LIG 0.04  C 
BRANCH 30 31
ATOM     31  CG  LEU D 693       6.244 -13.176  34.489  1.00 55.29 LIG-0.02  C 
ATOM     32  CD1 LEU D 693       5.233 -12.078  34.790  1.00 47.80 LIG 0.01  C 
ATOM     33  CD2 LEU D 693       7.228 -12.752  33.389  1.00 51.02 LIG 0.01  C 
ENDBRANCH 30 31
ENDBRANCH 6 30
ENDBRANCH 3 6
ENDBRANCH 1 2
BRANCH 1 34
ATOM     34  CB  ARG D 692      10.933 -11.457  34.369  1.00 49.09 LIG 0.04  C 
BRANCH 34 35
ATOM     35  CG  ARG D 692      12.283 -11.865  33.746  1.00 50.62 LIG 0.02  C 
BRANCH 35 36
ATOM     36  CD  ARG D 692      13.422 -10.889  34.004  1.00 57.04 LIG 0.14  C 
BRANCH 36 37
ATOM     37  NE  ARG D 692      14.678 -11.613  34.054  1.00 60.90 LIG-0.23  N 
ATOM     38 HE   ARG D 692      14.880 -12.105  33.378  1.00 60.90 LIG 0.18  HD
ATOM     39  CZ  ARG D 692      15.535 -11.572  35.063  1.00 61.50 LIG 0.67  C 
ATOM     40  NH1 ARG D 692      15.236 -10.902  36.174  1.00 46.48 LIG-0.23  N 
ATOM     41  NH2 ARG D 692      16.675 -12.245  34.973  1.00 64.68 LIG-0.23  N 
ATOM     42 1HH1 ARG D 692      14.482 -10.492  36.239  1.00 46.48 LIG 0.17  HD
ATOM     43 2HH1 ARG D 692      15.797 -10.879  36.826  1.00 46.48 LIG 0.17  HD
ATOM     44 1HH2 ARG D 692      16.850 -12.701  34.265  1.00 64.68 LIG 0.17  HD
ATOM     45 2HH2 ARG D 692      17.238 -12.225  35.622  1.00 64.68 LIG 0.17  HD
ENDBRANCH 36 37
ENDBRANCH 35 36
ENDBRANCH 34 35
ENDBRANCH 1 34
BRANCH 1 46
ATOM     46  N   ARG D 692      12.212 -12.233  36.392  1.00 43.06 LIG-0.35  N 
ATOM     47  C   HIS D 691      12.613 -12.058  37.640  1.00 44.11 LIG 0.24  C 
ATOM     48 O    HIS D 691      11.988 -11.403  38.462  1.00 43.39 LIG-0.27  OA
ATOM     49 H    ARG D 692      12.659 -12.671  35.802  1.00 43.06 LIG 0.16  HD
BRANCH 47 50
ATOM     50  CA  HIS D 691      13.889 -12.721  37.994  1.00 41.80 LIG 0.18  C 
BRANCH 50 51
ATOM     51  CB  HIS D 691      13.607 -14.185  37.970  1.00 51.00 LIG 0.10  C 
BRANCH 51 52
ATOM     52  CG  HIS D 691      12.374 -14.577  38.672  1.00 57.86 LIG 0.06  A 
ATOM     53 ND1  HIS D 691      11.425 -15.291  38.092  1.00 60.60 LIG-0.24  NA
ATOM     54  CE1 HIS D 691      10.435 -15.490  38.957  1.00 72.50 LIG 0.23  A 
ATOM     55 NE2  HIS D 691      10.748 -14.878  40.096  1.00 67.35 LIG-0.25  NA
ATOM     56  CD2 HIS D 691      11.934 -14.301  39.952  1.00 66.29 LIG 0.14  A 
ENDBRANCH 51 52
ENDBRANCH 50 51
BRANCH 50 57
ATOM     57  N   HIS D 691      14.323 -12.341  39.319  1.00 39.94 LIG-0.35  N 
ATOM     58 H    HIS D 691      14.137 -12.921  39.926  1.00 39.94 LIG 0.16  HD
ATOM     59  C   LEU D 690      14.950 -11.203  39.571  1.00 35.88 LIG 0.24  C 
ATOM     60 O    LEU D 690      15.239 -10.371  38.684  1.00 34.66 LIG-0.27  OA
BRANCH 59 61
ATOM     61  CA  LEU D 690      15.260 -10.909  41.020  1.00 33.43 LIG 0.18  C 
BRANCH 61 62
ATOM     62  CB  LEU D 690      14.488  -9.668  41.472  1.00 31.34 LIG 0.04  C 
BRANCH 62 63
ATOM     63  CG  LEU D 690      14.087  -9.614  42.942  1.00 30.93 LIG-0.02  C 
ATOM     64  CD1 LEU D 690      14.351 -10.959  43.601  1.00 30.90 LIG 0.01  C 
ATOM     65  CD2 LEU D 690      14.883  -8.534  43.650  1.00 28.62 LIG 0.01  C 
ENDBRANCH 62 63
ENDBRANCH 61 62
BRANCH 61 66
ATOM     66  N   LEU D 690      16.695 -10.706  41.227  1.00 35.22 LIG-0.35  N 
ATOM     67 H    LEU D 690      16.977  -9.923  41.010  1.00 35.22 LIG 0.16  HD
ATOM     68  C   ILE D 689      17.474 -11.665  41.710  1.00 41.04 LIG 0.26  C 
ATOM     69 O    ILE D 689      17.034 -12.768  42.068  1.00 39.56 LIG-0.27  OA
BRANCH 68 70
ATOM     70  CA  ILE D 689      18.969 -11.308  41.853  1.00 40.35 LIG 0.40  C 
ATOM     71  N   ILE D 689      19.437 -10.330  40.794  1.00 40.45 LIG 0.61  N 
BRANCH 70 72
ATOM     72  CB  ILE D 689      19.183 -10.766  43.288  1.00 42.26 LIG 0.03  C 
ATOM     73  CG2 ILE D 689      20.367  -9.781  43.329  1.00 38.55 LIG 0.01  C 
BRANCH 72 74
ATOM     74  CG1 ILE D 689      17.905 -10.135  43.847  1.00 45.91 LIG 0.00  C 
ATOM     75  CD1 ILE D 689      17.628 -10.464  45.314  1.00 45.96 LIG 0.01  C 
ENDBRANCH 72 74
ENDBRANCH 70 72
ENDBRANCH 68 70
ENDBRANCH 61 66
ENDBRANCH 59 61
ENDBRANCH 50 57
ENDBRANCH 47 50
ENDBRANCH 1 46
TORSDOF 30
ENDMDL
MODEL 47
USER: ADFR SOLUTION from run 52
USER: SCORE 20.832921 LL:  -6.966 LR: -15.009 RR:   0.000 FEB:  -6.060
USER: RMSD 7.019978
USER: SEED 51
USER: STATUS no improvement in best in 30 clusters for 5 generations
USER: GENES 32
USER: genes 0 Translation |==|  0.53149 0.68274 0.31527
USER: genes 1 Rotation |==|  0.03384 0.63066 0.62409 0.51489
USER: genes 2 Torsion [N]-CA--C-[N] |==|  0.96326
USER: genes 3 Torsion [C]-N--CA-[C] |==|  0.59864
USER: genes 4 Torsion [N]-CA--C-[N] |==|  0.24659
USER: genes 5 Torsion [C]-N--CA-[C] |==|  0.79895
USER: genes 6 Torsion [N]-CA--C-[N] |==|  0.88237
USER: genes 7 Torsion [C]-N--CA-[CB] |==|  0.11871
USER: genes 8 Torsion [N]-CA--CB-[CG] |==|  0.21681
USER: genes 9 Torsion [CA]-CB--CG-[CD] |==|  0.75294
USER: genes 10 Torsion [CB]-CG--CD-[NE2] |==|  0.86215
USER: genes 11 Torsion [N]-CA--C-[O] |==|  0.03535
USER: genes 12 Torsion [N]-CA--CB-[CG] |==|  0.04443
USER: genes 13 Torsion [CA]-CB--CG-[CD2] |==|  0.62858
USER: genes 14 Torsion [N]-CA--CB-[CG] |==|  0.72374
USER: genes 15 Torsion [CA]-CB--CG-[CD1] |==|  0.89944
USER: genes 16 Torsion [C]-CA--CB-[CG] |==|  0.44269
USER: genes 17 Torsion [CA]-CB--CG-[CD] |==|  0.05491
USER: genes 18 Torsion [CB]-CG--CD-[NE] |==|  0.37378
USER: genes 19 Torsion [CG]-CD--NE-[CZ] |==|  0.56147
USER: genes 20 Torsion [C]-CA--N-[C] |==|  0.75045
USER: genes 21 Torsion [N]-C--CA-[N] |==|  0.46051
USER: genes 22 Torsion [C]-CA--CB-[CG] |==|  0.79198
USER: genes 23 Torsion [CA]-CB--CG-[ND1] |==|  0.14377
USER: genes 24 Torsion [C]-CA--N-[C] |==|  0.54042
USER: genes 25 Torsion [N]-C--CA-[N] |==|  0.04612
USER: genes 26 Torsion [C]-CA--CB-[CG] |==|  0.39991
USER: genes 27 Torsion [CA]-CB--CG-[CD2] |==|  0.35018
USER: genes 28 Torsion [C]-CA--N-[C] |==|  0.20484
USER: genes 29 Torsion [N]-C--CA-[N] |==|  0.40527
USER: genes 30 Torsion [C]-CA--CB-[CG1] |==|  0.42827
USER: genes 31 Torsion [CA]-CB--CG1-[CD1] |==|  0.57796
ROOT
ATOM      1  CA  ARG D 692      10.312 -11.576  35.317  1.00 48.73 LIG 0.18  C 
ENDROOT
BRANCH 1 2
ATOM      2  C   ARG D 692       8.853 -11.753  35.706  1.00 46.10 LIG 0.24  C 
ATOM      3  N   LEU D 693       8.553 -12.727  36.562  1.00 50.64 LIG-0.35  N 
ATOM      4 H    LEU D 693       9.122 -13.256  36.930  1.00 50.64 LIG 0.16  HD
ATOM      5 O    ARG D 692       7.981 -11.072  35.169  1.00 52.04 LIG-0.27  OA
BRANCH 3 6
ATOM      6  CA  LEU D 693       7.152 -12.946  36.932  1.00 43.34 LIG 0.18  C 
BRANCH 6 7
ATOM      7  C   LEU D 693       7.003 -13.375  38.386  1.00 37.95 LIG 0.24  C 
ATOM      8  N   LEU D 694       6.880 -12.407  39.271  1.00 39.22 LIG-0.35  N 
ATOM      9 H    LEU D 694       6.926 -11.572  39.071  1.00 39.22 LIG 0.16  HD
ATOM     10 O    LEU D 693       7.030 -14.573  38.691  1.00 43.86 LIG-0.27  OA
BRANCH 8 11
ATOM     11  CA  LEU D 694       6.653 -12.663  40.669  1.00 38.59 LIG 0.18  C 
BRANCH 11 12
ATOM     12  C   LEU D 694       5.250 -13.147  40.847  1.00 46.22 LIG 0.24  C 
ATOM     13  N   GLN D 695       4.343 -12.497  40.141  1.00 66.87 LIG-0.35  N 
ATOM     14 H    GLN D 695       4.551 -11.796  39.689  1.00 66.87 LIG 0.16  HD
ATOM     15 O    LEU D 694       5.016 -14.025  41.635  1.00 54.70 LIG-0.27  OA
BRANCH 13 16
ATOM     16  CA  GLN D 695       2.918 -12.829  40.010  1.00 62.86 LIG 0.16  C 
BRANCH 16 17
ATOM     17  CB  GLN D 695       2.334 -13.216  41.341  1.00 63.26 LIG 0.04  C 
BRANCH 17 18
ATOM     18  CG  GLN D 695       2.051 -12.006  42.191  1.00 77.24 LIG 0.10  C 
BRANCH 18 19
ATOM     19  CD  GLN D 695       3.205 -11.612  43.020  1.00 84.08 LIG 0.21  C 
ATOM     20 OE1  GLN D 695       3.575 -10.455  43.047  1.00 83.40 LIG-0.27  OA
ATOM     21  NE2 GLN D 695       3.781 -12.565  43.727  1.00 79.17 LIG-0.37  N 
ATOM     22 22HE GLN D 695       4.449 -12.379  44.235  1.00 79.17 LIG 0.16  HD
ATOM     23 21HE GLN D 695       3.488 -13.372  43.680  1.00 79.17 LIG 0.16  HD
ENDBRANCH 18 19
ENDBRANCH 17 18
ENDBRANCH 16 17
BRANCH 16 24
ATOM     24  C   GLN D 695       2.039 -11.805  39.294  1.00 61.14 LIG 0.22  C 
ATOM     25 O    GLN D 695       2.542 -10.877  38.653  1.00 66.66 LIG-0.29  OA
ENDBRANCH 16 24
ENDBRANCH 13 16
ENDBRANCH 11 12
BRANCH 11 26
ATOM     26  CB  LEU D 694       6.813 -11.405  41.495  1.00 34.51 LIG 0.04  C 
BRANCH 26 27
ATOM     27  CG  LEU D 694       6.809 -10.052  40.828  1.00 27.71 LIG-0.02  C 
ATOM     28  CD2 LEU D 694       7.914  -9.156  41.301  1.00 26.48 LIG 0.01  C 
ATOM     29  CD1 LEU D 694       5.473  -9.369  40.877  1.00 27.00 LIG 0.01  C 
ENDBRANCH 26 27
ENDBRANCH 11 26
ENDBRANCH 8 11
ENDBRANCH 6 7
BRANCH 6 30
ATOM     30  CB  LEU D 693       6.452 -13.946  35.995  1.00 45.67 LIG 0.04  C 
BRANCH 30 31
ATOM     31  CG  LEU D 693       5.578 -13.332  34.890  1.00 55.29 LIG-0.02  C 
ATOM     32  CD1 LEU D 693       4.869 -12.081  35.390  1.00 47.80 LIG 0.01  C 
ATOM     33  CD2 LEU D 693       6.374 -13.053  33.606  1.00 51.02 LIG 0.01  C 
ENDBRANCH 30 31
ENDBRANCH 6 30
ENDBRANCH 3 6
ENDBRANCH 1 2
BRANCH 1 34
ATOM     34  CB  ARG D 692      10.462 -11.901  33.816  1.00 49.09 LIG 0.04  C 
BRANCH 34 35
ATOM     35  CG  ARG D 692      11.743 -11.275  33.231  1.00 50.62 LIG 0.02  C 
BRANCH 35 36
ATOM     36  CD  ARG D 692      12.796 -10.903  34.264  1.00 57.04 LIG 0.14  C 
BRANCH 36 37
ATOM     37  NE  ARG D 692      14.099 -11.349  33.810  1.00 60.90 LIG-0.23  N 
ATOM     38 HE   ARG D 692      14.203 -11.480  32.967  1.00 60.90 LIG 0.18  HD
ATOM     39  CZ  ARG D 692      15.140 -11.570  34.599  1.00 61.50 LIG 0.67  C 
ATOM     40  NH1 ARG D 692      15.016 -11.473  35.922  1.00 46.48 LIG-0.23  N 
ATOM     41  NH2 ARG D 692      16.296 -11.935  34.060  1.00 64.68 LIG-0.23  N 
ATOM     42 1HH1 ARG D 692      14.256 -11.266  36.268  1.00 46.48 LIG 0.17  HD
ATOM     43 2HH1 ARG D 692      15.695 -11.618  36.429  1.00 46.48 LIG 0.17  HD
ATOM     44 1HH2 ARG D 692      16.364 -12.025  33.208  1.00 64.68 LIG 0.17  HD
ATOM     45 2HH2 ARG D 692      16.978 -12.081  34.563  1.00 64.68 LIG 0.17  HD
ENDBRANCH 36 37
ENDBRANCH 35 36
ENDBRANCH 34 35
ENDBRANCH 1 34
BRANCH 1 46
ATOM     46  N   ARG D 692      11.293 -12.303  36.156  1.00 43.06 LIG-0.35  N 
ATOM     47  C   HIS D 691      11.828 -11.759  37.236  1.00 44.11 LIG 0.24  C 
ATOM     48 O    HIS D 691      11.587 -10.618  37.603  1.00 43.39 LIG-0.27  OA
ATOM     49 H    ARG D 692      11.477 -13.096  35.878  1.00 43.06 LIG 0.16  HD
BRANCH 47 50
ATOM     50  CA  HIS D 691      12.751 -12.633  37.995  1.00 41.80 LIG 0.18  C 
BRANCH 50 51
ATOM     51  CB  HIS D 691      11.885 -13.597  38.732  1.00 51.00 LIG 0.10  C 
BRANCH 51 52
ATOM     52  CG  HIS D 691      11.194 -13.024  39.899  1.00 57.86 LIG 0.06  A 
ATOM     53 ND1  HIS D 691      10.477 -11.916  39.824  1.00 60.60 LIG-0.24  NA
ATOM     54  CE1 HIS D 691       9.977 -11.635  41.024  1.00 72.50 LIG 0.23  A 
ATOM     55 NE2  HIS D 691      10.398 -12.563  41.878  1.00 67.35 LIG-0.25  NA
ATOM     56  CD2 HIS D 691      11.154 -13.431  41.218  1.00 66.29 LIG 0.14  A 
ENDBRANCH 51 52
ENDBRANCH 50 51
BRANCH 50 57
ATOM     57  N   HIS D 691      13.528 -11.869  38.945  1.00 39.94 LIG-0.35  N 
ATOM     58 H    HIS D 691      13.225 -11.076  39.085  1.00 39.94 LIG 0.16  HD
ATOM     59  C   LEU D 690      14.607 -12.350  39.542  1.00 35.88 LIG 0.24  C 
ATOM     60 O    LEU D 690      15.033 -13.510  39.354  1.00 34.66 LIG-0.27  OA
BRANCH 59 61
ATOM     61  CA  LEU D 690      15.362 -11.399  40.441  1.00 33.43 LIG 0.18  C 
BRANCH 61 62
ATOM     62  CB  LEU D 690      15.801 -12.128  41.712  1.00 31.34 LIG 0.04  C 
BRANCH 62 63
ATOM     63  CG  LEU D 690      17.156 -11.734  42.288  1.00 30.93 LIG-0.02  C 
ATOM     64  CD1 LEU D 690      17.732 -10.563  41.507  1.00 30.90 LIG 0.01  C 
ATOM     65  CD2 LEU D 690      16.998 -11.345  43.746  1.00 28.62 LIG 0.01  C 
ENDBRANCH 62 63
ENDBRANCH 61 62
BRANCH 61 66
ATOM     66  N   LEU D 690      14.546 -10.235  40.790  1.00 35.22 LIG-0.35  N 
ATOM     67 H    LEU D 690      14.774  -9.508  40.390  1.00 35.22 LIG 0.16  HD
ATOM     68  C   ILE D 689      13.542 -10.318  41.655  1.00 41.04 LIG 0.26  C 
ATOM     69 O    ILE D 689      13.197 -11.389  42.177  1.00 39.56 LIG-0.27  OA
BRANCH 68 70
ATOM     70  CA  ILE D 689      12.787  -9.002  41.936  1.00 40.35 LIG 0.40  C 
ATOM     71  N   ILE D 689      11.309  -9.223  42.190  1.00 40.45 LIG 0.61  N 
BRANCH 70 72
ATOM     72  CB  ILE D 689      13.489  -8.308  43.129  1.00 42.26 LIG 0.03  C 
ATOM     73  CG2 ILE D 689      14.985  -8.670  43.168  1.00 38.55 LIG 0.01  C 
BRANCH 72 74
ATOM     74  CG1 ILE D 689      13.277  -6.791  43.101  1.00 45.91 LIG 0.00  C 
ATOM     75  CD1 ILE D 689      14.398  -5.984  43.755  1.00 45.96 LIG 0.01  C 
ENDBRANCH 72 74
ENDBRANCH 70 72
ENDBRANCH 68 70
ENDBRANCH 61 66
ENDBRANCH 59 61
ENDBRANCH 50 57
ENDBRANCH 47 50
ENDBRANCH 1 46
TORSDOF 30
ENDMDL
MODEL 48
USER: ADFR SOLUTION from run 91
USER: SCORE 20.750661 LL:  -6.817 LR: -14.999 RR:   0.000 FEB:  -6.050
USER: RMSD 6.973919
USER: SEED 90
USER: STATUS no improvement in best in 9 clusters for 5 generations
USER: GENES 32
USER: genes 0 Translation |==|  0.52212 0.67807 0.29607
USER: genes 1 Rotation |==|  0.10908 0.62921 0.70524 0.69586
USER: genes 2 Torsion [N]-CA--C-[N] |==|  0.00483
USER: genes 3 Torsion [C]-N--CA-[C] |==|  0.65428
USER: genes 4 Torsion [N]-CA--C-[N] |==|  0.11938
USER: genes 5 Torsion [C]-N--CA-[C] |==|  0.82584
USER: genes 6 Torsion [N]-CA--C-[N] |==|  0.91874
USER: genes 7 Torsion [C]-N--CA-[CB] |==|  0.33718
USER: genes 8 Torsion [N]-CA--CB-[CG] |==|  0.90945
USER: genes 9 Torsion [CA]-CB--CG-[CD] |==|  0.31033
USER: genes 10 Torsion [CB]-CG--CD-[NE2] |==|  0.11859
USER: genes 11 Torsion [N]-CA--C-[O] |==|  0.99556
USER: genes 12 Torsion [N]-CA--CB-[CG] |==|  0.92223
USER: genes 13 Torsion [CA]-CB--CG-[CD2] |==|  0.58997
USER: genes 14 Torsion [N]-CA--CB-[CG] |==|  0.78122
USER: genes 15 Torsion [CA]-CB--CG-[CD1] |==|  0.84954
USER: genes 16 Torsion [C]-CA--CB-[CG] |==|  0.43763
USER: genes 17 Torsion [CA]-CB--CG-[CD] |==|  0.13361
USER: genes 18 Torsion [CB]-CG--CD-[NE] |==|  0.73864
USER: genes 19 Torsion [CG]-CD--NE-[CZ] |==|  0.57886
USER: genes 20 Torsion [C]-CA--N-[C] |==|  0.74965
USER: genes 21 Torsion [N]-C--CA-[N] |==|  0.20236
USER: genes 22 Torsion [C]-CA--CB-[CG] |==|  0.21523
USER: genes 23 Torsion [CA]-CB--CG-[ND1] |==|  0.00872
USER: genes 24 Torsion [C]-CA--N-[C] |==|  0.57102
USER: genes 25 Torsion [N]-C--CA-[N] |==|  0.11086
USER: genes 26 Torsion [C]-CA--CB-[CG] |==|  0.48219
USER: genes 27 Torsion [CA]-CB--CG-[CD2] |==|  0.67831
USER: genes 28 Torsion [C]-CA--N-[C] |==|  0.16570
USER: genes 29 Torsion [N]-C--CA-[N] |==|  0.48236
USER: genes 30 Torsion [C]-CA--CB-[CG1] |==|  0.60456
USER: genes 31 Torsion [CA]-CB--CG1-[CD1] |==|  0.71698
ROOT
ATOM      1  CA  ARG D 692      10.101 -11.663  34.942  1.00 48.73 LIG 0.18  C 
ENDROOT
BRANCH 1 2
ATOM      2  C   ARG D 692       8.689 -11.847  35.475  1.00 46.10 LIG 0.24  C 
ATOM      3  N   LEU D 693       8.292 -13.083  35.768  1.00 50.64 LIG-0.35  N 
ATOM      4 H    LEU D 693       8.778 -13.789  35.698  1.00 50.64 LIG 0.16  HD
ATOM      5 O    ARG D 692       7.921 -10.889  35.540  1.00 52.04 LIG-0.27  OA
BRANCH 3 6
ATOM      6  CA  LEU D 693       6.926 -13.299  36.252  1.00 43.34 LIG 0.18  C 
BRANCH 6 7
ATOM      7  C   LEU D 693       6.899 -14.025  37.591  1.00 37.95 LIG 0.24  C 
ATOM      8  N   LEU D 694       7.777 -13.626  38.489  1.00 39.22 LIG-0.35  N 
ATOM      9 H    LEU D 694       8.374 -13.026  38.336  1.00 39.22 LIG 0.16  HD
ATOM     10 O    LEU D 693       6.106 -14.953  37.783  1.00 43.86 LIG-0.27  OA
BRANCH 8 11
ATOM     11  CA  LEU D 694       7.816 -14.166  39.822  1.00 38.59 LIG 0.18  C 
BRANCH 11 12
ATOM     12  C   LEU D 694       6.530 -13.842  40.510  1.00 46.22 LIG 0.24  C 
ATOM     13  N   GLN D 695       5.946 -12.730  40.103  1.00 66.87 LIG-0.35  N 
ATOM     14 H    GLN D 695       6.335 -12.201  39.549  1.00 66.87 LIG 0.16  HD
ATOM     15 O    LEU D 694       6.135 -14.546  41.403  1.00 54.70 LIG-0.27  OA
BRANCH 13 16
ATOM     16  CA  GLN D 695       4.621 -12.230  40.496  1.00 62.86 LIG 0.16  C 
BRANCH 16 17
ATOM     17  CB  GLN D 695       4.728 -10.867  41.124  1.00 63.26 LIG 0.04  C 
BRANCH 17 18
ATOM     18  CG  GLN D 695       6.018 -10.711  41.884  1.00 77.24 LIG 0.10  C 
BRANCH 18 19
ATOM     19  CD  GLN D 695       6.936  -9.745  41.253  1.00 84.08 LIG 0.21  C 
ATOM     20 OE1  GLN D 695       8.120 -10.000  41.151  1.00 83.40 LIG-0.27  OA
ATOM     21  NE2 GLN D 695       6.402  -8.627  40.801  1.00 79.17 LIG-0.37  N 
ATOM     22 22HE GLN D 695       6.897  -8.040  40.414  1.00 79.17 LIG 0.16  HD
ATOM     23 21HE GLN D 695       5.559  -8.485  40.893  1.00 79.17 LIG 0.16  HD
ENDBRANCH 18 19
ENDBRANCH 17 18
ENDBRANCH 16 17
BRANCH 16 24
ATOM     24  C   GLN D 695       3.532 -12.265  39.426  1.00 61.14 LIG 0.22  C 
ATOM     25 O    GLN D 695       3.776 -12.667  38.285  1.00 66.66 LIG-0.29  OA
ENDBRANCH 16 24
ENDBRANCH 13 16
ENDBRANCH 11 12
BRANCH 11 26
ATOM     26  CB  LEU D 694       8.938 -13.554  40.634  1.00 34.51 LIG 0.04  C 
BRANCH 26 27
ATOM     27  CG  LEU D 694      10.180 -13.042  39.949  1.00 27.71 LIG-0.02  C 
ATOM     28  CD2 LEU D 694      11.418 -13.192  40.780  1.00 26.48 LIG 0.01  C 
ATOM     29  CD1 LEU D 694      10.031 -11.648  39.411  1.00 27.00 LIG 0.01  C 
ENDBRANCH 26 27
ENDBRANCH 11 26
ENDBRANCH 8 11
ENDBRANCH 6 7
BRANCH 6 30
ATOM     30  CB  LEU D 693       6.051 -14.030  35.219  1.00 45.67 LIG 0.04  C 
BRANCH 30 31
ATOM     31  CG  LEU D 693       5.503 -13.166  34.072  1.00 55.29 LIG-0.02  C 
ATOM     32  CD1 LEU D 693       4.753 -11.957  34.613  1.00 47.80 LIG 0.01  C 
ATOM     33  CD2 LEU D 693       6.600 -12.752  33.080  1.00 51.02 LIG 0.01  C 
ENDBRANCH 30 31
ENDBRANCH 6 30
ENDBRANCH 3 6
ENDBRANCH 1 2
BRANCH 1 34
ATOM     34  CB  ARG D 692      10.032 -10.819  33.652  1.00 49.09 LIG 0.04  C 
BRANCH 34 35
ATOM     35  CG  ARG D 692      11.378 -10.128  33.361  1.00 50.62 LIG 0.02  C 
BRANCH 35 36
ATOM     36  CD  ARG D 692      12.592 -11.041  33.452  1.00 57.04 LIG 0.14  C 
BRANCH 36 37
ATOM     37  NE  ARG D 692      13.167 -10.952  34.780  1.00 60.90 LIG-0.23  N 
ATOM     38 HE   ARG D 692      12.639 -10.759  35.431  1.00 60.90 LIG 0.18  HD
ATOM     39  CZ  ARG D 692      14.446 -11.148  35.066  1.00 61.50 LIG 0.67  C 
ATOM     40  NH1 ARG D 692      15.329 -11.360  34.092  1.00 46.48 LIG-0.23  N 
ATOM     41  NH2 ARG D 692      14.845 -11.083  36.329  1.00 64.68 LIG-0.23  N 
ATOM     42 1HH1 ARG D 692      15.070 -11.371  33.272  1.00 46.48 LIG 0.17  HD
ATOM     43 2HH1 ARG D 692      16.158 -11.486  34.284  1.00 46.48 LIG 0.17  HD
ATOM     44 1HH2 ARG D 692      14.276 -10.915  36.952  1.00 64.68 LIG 0.17  HD
ATOM     45 2HH2 ARG D 692      15.673 -11.208  36.526  1.00 64.68 LIG 0.17  HD
ENDBRANCH 36 37
ENDBRANCH 35 36
ENDBRANCH 34 35
ENDBRANCH 1 34
BRANCH 1 46
ATOM     46  N   ARG D 692      10.887 -12.907  34.765  1.00 43.06 LIG-0.35  N 
ATOM     47  C   HIS D 691      11.644 -13.398  35.731  1.00 44.11 LIG 0.24  C 
ATOM     48 O    HIS D 691      11.783 -12.856  36.818  1.00 43.39 LIG-0.27  OA
ATOM     49 H    ARG D 692      10.805 -13.270  33.989  1.00 43.06 LIG 0.16  HD
BRANCH 47 50
ATOM     50  CA  HIS D 691      12.325 -14.675  35.415  1.00 41.80 LIG 0.18  C 
BRANCH 50 51
ATOM     51  CB  HIS D 691      12.875 -15.173  36.708  1.00 51.00 LIG 0.10  C 
BRANCH 51 52
ATOM     52  CG  HIS D 691      11.876 -15.793  37.594  1.00 57.86 LIG 0.06  A 
ATOM     53 ND1  HIS D 691      10.613 -15.949  37.238  1.00 60.60 LIG-0.24  NA
ATOM     54  CE1 HIS D 691       9.946 -16.528  38.232  1.00 72.50 LIG 0.23  A 
ATOM     55 NE2  HIS D 691      10.790 -16.724  39.241  1.00 67.35 LIG-0.25  NA
ATOM     56  CD2 HIS D 691      11.986 -16.278  38.883  1.00 66.29 LIG 0.14  A 
ENDBRANCH 51 52
ENDBRANCH 50 51
BRANCH 50 57
ATOM     57  N   HIS D 691      13.411 -14.469  34.483  1.00 39.94 LIG-0.35  N 
ATOM     58 H    HIS D 691      13.741 -13.675  34.503  1.00 39.94 LIG 0.16  HD
ATOM     59  C   LEU D 690      13.852 -15.419  33.674  1.00 35.88 LIG 0.24  C 
ATOM     60 O    LEU D 690      13.385 -16.579  33.662  1.00 34.66 LIG-0.27  OA
BRANCH 59 61
ATOM     61  CA  LEU D 690      14.933 -15.025  32.695  1.00 33.43 LIG 0.18  C 
BRANCH 61 62
ATOM     62  CB  LEU D 690      15.636 -16.277  32.170  1.00 31.34 LIG 0.04  C 
BRANCH 62 63
ATOM     63  CG  LEU D 690      16.656 -16.068  31.055  1.00 30.93 LIG-0.02  C 
ATOM     64  CD1 LEU D 690      18.005 -16.632  31.474  1.00 30.90 LIG 0.01  C 
ATOM     65  CD2 LEU D 690      16.183 -16.763  29.793  1.00 28.62 LIG 0.01  C 
ENDBRANCH 62 63
ENDBRANCH 61 62
BRANCH 61 66
ATOM     66  N   LEU D 690      15.909 -14.126  33.313  1.00 35.22 LIG-0.35  N 
ATOM     67 H    LEU D 690      15.977 -13.359  32.930  1.00 35.22 LIG 0.16  HD
ATOM     68  C   ILE D 689      16.617 -14.487  34.376  1.00 41.04 LIG 0.26  C 
ATOM     69 O    ILE D 689      16.460 -15.578  34.944  1.00 39.56 LIG-0.27  OA
BRANCH 68 70
ATOM     70  CA  ILE D 689      17.620 -13.439  34.902  1.00 40.35 LIG 0.40  C 
ATOM     71  N   ILE D 689      18.276 -13.863  36.201  1.00 40.45 LIG 0.61  N 
BRANCH 70 72
ATOM     72  CB  ILE D 689      18.655 -13.180  33.780  1.00 42.26 LIG 0.03  C 
ATOM     73  CG2 ILE D 689      18.224 -11.990  32.902  1.00 38.55 LIG 0.01  C 
BRANCH 72 74
ATOM     74  CG1 ILE D 689      20.063 -12.980  34.348  1.00 45.91 LIG 0.00  C 
ATOM     75  CD1 ILE D 689      20.517 -11.522  34.414  1.00 45.96 LIG 0.01  C 
ENDBRANCH 72 74
ENDBRANCH 70 72
ENDBRANCH 68 70
ENDBRANCH 61 66
ENDBRANCH 59 61
ENDBRANCH 50 57
ENDBRANCH 47 50
ENDBRANCH 1 46
TORSDOF 30
ENDMDL
MODEL 49
USER: ADFR SOLUTION from run 138
USER: SCORE 20.646955 LL:  -6.302 LR: -14.998 RR:   0.000 FEB:  -6.049
USER: RMSD 6.854567
USER: SEED 137
USER: STATUS no improvement in best in 29 clusters for 5 generations
USER: GENES 32
USER: genes 0 Translation |==|  0.53469 0.65896 0.30470
USER: genes 1 Rotation |==|  0.13077 0.68163 0.69631 0.70530
USER: genes 2 Torsion [N]-CA--C-[N] |==|  0.05676
USER: genes 3 Torsion [C]-N--CA-[C] |==|  0.65555
USER: genes 4 Torsion [N]-CA--C-[N] |==|  0.46514
USER: genes 5 Torsion [C]-N--CA-[C] |==|  0.65139
USER: genes 6 Torsion [N]-CA--C-[N] |==|  0.00734
USER: genes 7 Torsion [C]-N--CA-[CB] |==|  0.26742
USER: genes 8 Torsion [N]-CA--CB-[CG] |==|  0.92840
USER: genes 9 Torsion [CA]-CB--CG-[CD] |==|  0.33580
USER: genes 10 Torsion [CB]-CG--CD-[NE2] |==|  0.21777
USER: genes 11 Torsion [N]-CA--C-[O] |==|  0.99409
USER: genes 12 Torsion [N]-CA--CB-[CG] |==|  0.93316
USER: genes 13 Torsion [CA]-CB--CG-[CD2] |==|  0.74425
USER: genes 14 Torsion [N]-CA--CB-[CG] |==|  0.80001
USER: genes 15 Torsion [CA]-CB--CG-[CD1] |==|  0.84880
USER: genes 16 Torsion [C]-CA--CB-[CG] |==|  0.44023
USER: genes 17 Torsion [CA]-CB--CG-[CD] |==|  0.93931
USER: genes 18 Torsion [CB]-CG--CD-[NE] |==|  0.42067
USER: genes 19 Torsion [CG]-CD--NE-[CZ] |==|  0.50536
USER: genes 20 Torsion [C]-CA--N-[C] |==|  0.67609
USER: genes 21 Torsion [N]-C--CA-[N] |==|  0.37672
USER: genes 22 Torsion [C]-CA--CB-[CG] |==|  0.60688
USER: genes 23 Torsion [CA]-CB--CG-[ND1] |==|  0.77947
USER: genes 24 Torsion [C]-CA--N-[C] |==|  0.84962
USER: genes 25 Torsion [N]-C--CA-[N] |==|  0.45450
USER: genes 26 Torsion [C]-CA--CB-[CG] |==|  0.21904
USER: genes 27 Torsion [CA]-CB--CG-[CD2] |==|  0.70501
USER: genes 28 Torsion [C]-CA--N-[C] |==|  0.57062
USER: genes 29 Torsion [N]-C--CA-[N] |==|  0.93021
USER: genes 30 Torsion [C]-CA--CB-[CG1] |==|  0.85473
USER: genes 31 Torsion [CA]-CB--CG1-[CD1] |==|  0.33535
ROOT
ATOM      1  CA  ARG D 692      10.384 -12.022  35.111  1.00 48.73 LIG 0.18  C 
ENDROOT
BRANCH 1 2
ATOM      2  C   ARG D 692       9.014 -11.884  35.756  1.00 46.10 LIG 0.24  C 
ATOM      3  N   LEU D 693       8.555 -12.915  36.462  1.00 50.64 LIG-0.35  N 
ATOM      4 H    LEU D 693       8.979 -13.650  36.599  1.00 50.64 LIG 0.16  HD
ATOM      5 O    ARG D 692       8.328 -10.886  35.548  1.00 52.04 LIG-0.27  OA
BRANCH 3 6
ATOM      6  CA  LEU D 693       7.224 -12.828  37.070  1.00 43.34 LIG 0.18  C 
BRANCH 6 7
ATOM      7  C   LEU D 693       7.263 -13.066  38.574  1.00 37.95 LIG 0.24  C 
ATOM      8  N   LEU D 694       6.170 -12.759  39.242  1.00 39.22 LIG-0.35  N 
ATOM      9 H    LEU D 694       5.478 -12.398  38.882  1.00 39.22 LIG 0.16  HD
ATOM     10 O    LEU D 693       8.289 -13.498  39.112  1.00 43.86 LIG-0.27  OA
BRANCH 8 11
ATOM     11  CA  LEU D 694       6.035 -13.005  40.654  1.00 38.59 LIG 0.18  C 
BRANCH 11 12
ATOM     12  C   LEU D 694       4.802 -13.816  40.885  1.00 46.22 LIG 0.24  C 
ATOM     13  N   GLN D 695       4.155 -14.170  39.790  1.00 66.87 LIG-0.35  N 
ATOM     14 H    GLN D 695       4.391 -13.872  39.019  1.00 66.87 LIG 0.16  HD
ATOM     15 O    LEU D 694       4.440 -14.047  42.009  1.00 54.70 LIG-0.27  OA
BRANCH 13 16
ATOM     16  CA  GLN D 695       2.999 -15.072  39.696  1.00 62.86 LIG 0.16  C 
BRANCH 16 17
ATOM     17  CB  GLN D 695       1.713 -14.291  39.667  1.00 63.26 LIG 0.04  C 
BRANCH 17 18
ATOM     18  CG  GLN D 695       1.865 -12.954  40.340  1.00 77.24 LIG 0.10  C 
BRANCH 18 19
ATOM     19  CD  GLN D 695       1.566 -11.826  39.439  1.00 84.08 LIG 0.21  C 
ATOM     20 OE1  GLN D 695       2.469 -11.200  38.919  1.00 83.40 LIG-0.27  OA
ATOM     21  NE2 GLN D 695       0.293 -11.561  39.222  1.00 79.17 LIG-0.37  N 
ATOM     22 22HE GLN D 695       0.071 -10.920  38.693  1.00 79.17 LIG 0.16  HD
ATOM     23 21HE GLN D 695      -0.316 -12.028  39.609  1.00 79.17 LIG 0.16  HD
ENDBRANCH 18 19
ENDBRANCH 17 18
ENDBRANCH 16 17
BRANCH 16 24
ATOM     24  C   GLN D 695       3.037 -16.122  38.588  1.00 61.14 LIG 0.22  C 
ATOM     25 O    GLN D 695       3.981 -16.172  37.795  1.00 66.66 LIG-0.29  OA
ENDBRANCH 16 24
ENDBRANCH 13 16
ENDBRANCH 11 12
BRANCH 11 26
ATOM     26  CB  LEU D 694       5.886 -11.712  41.428  1.00 34.51 LIG 0.04  C 
BRANCH 26 27
ATOM     27  CG  LEU D 694       6.413 -10.419  40.856  1.00 27.71 LIG-0.02  C 
ATOM     28  CD2 LEU D 694       7.817 -10.114  41.283  1.00 26.48 LIG 0.01  C 
ATOM     29  CD1 LEU D 694       5.493  -9.253  41.077  1.00 27.00 LIG 0.01  C 
ENDBRANCH 26 27
ENDBRANCH 11 26
ENDBRANCH 8 11
ENDBRANCH 6 7
BRANCH 6 30
ATOM     30  CB  LEU D 693       6.214 -13.772  36.395  1.00 45.67 LIG 0.04  C 
BRANCH 30 31
ATOM     31  CG  LEU D 693       5.753 -13.366  34.986  1.00 55.29 LIG-0.02  C 
ATOM     32  CD1 LEU D 693       5.200 -11.947  34.983  1.00 47.80 LIG 0.01  C 
ATOM     33  CD2 LEU D 693       6.861 -13.541  33.938  1.00 51.02 LIG 0.01  C 
ENDBRANCH 30 31
ENDBRANCH 6 30
ENDBRANCH 3 6
ENDBRANCH 1 2
BRANCH 1 34
ATOM     34  CB  ARG D 692      10.389 -11.212  33.797  1.00 49.09 LIG 0.04  C 
BRANCH 34 35
ATOM     35  CG  ARG D 692      11.825 -10.854  33.364  1.00 50.62 LIG 0.02  C 
BRANCH 35 36
ATOM     36  CD  ARG D 692      12.850 -10.876  34.488  1.00 57.04 LIG 0.14  C 
BRANCH 36 37
ATOM     37  NE  ARG D 692      14.157 -11.199  33.947  1.00 60.90 LIG-0.23  N 
ATOM     38 HE   ARG D 692      14.218 -11.312  33.096  1.00 60.90 LIG 0.18  HD
ATOM     39  CZ  ARG D 692      15.261 -11.334  34.665  1.00 61.50 LIG 0.67  C 
ATOM     40  NH1 ARG D 692      15.214 -11.263  35.994  1.00 46.48 LIG-0.23  N 
ATOM     41  NH2 ARG D 692      16.408 -11.589  34.049  1.00 64.68 LIG-0.23  N 
ATOM     42 1HH1 ARG D 692      14.462 -11.128  36.391  1.00 46.48 LIG 0.17  HD
ATOM     43 2HH1 ARG D 692      15.934 -11.351  36.455  1.00 46.48 LIG 0.17  HD
ATOM     44 1HH2 ARG D 692      16.429 -11.664  33.193  1.00 64.68 LIG 0.17  HD
ATOM     45 2HH2 ARG D 692      17.131 -11.678  34.506  1.00 64.68 LIG 0.17  HD
ENDBRANCH 36 37
ENDBRANCH 35 36
ENDBRANCH 34 35
ENDBRANCH 1 34
BRANCH 1 46
ATOM     46  N   ARG D 692      10.870 -13.409  34.924  1.00 43.06 LIG-0.35  N 
ATOM     47  C   HIS D 691      11.952 -13.859  35.536  1.00 44.11 LIG 0.24  C 
ATOM     48 O    HIS D 691      12.649 -13.166  36.264  1.00 43.39 LIG-0.27  OA
ATOM     49 H    ARG D 692      10.389 -13.884  34.391  1.00 43.06 LIG 0.16  HD
BRANCH 47 50
ATOM     50  CA  HIS D 691      12.276 -15.281  35.287  1.00 41.80 LIG 0.18  C 
BRANCH 50 51
ATOM     51  CB  HIS D 691      11.915 -16.006  36.538  1.00 51.00 LIG 0.10  C 
BRANCH 51 52
ATOM     52  CG  HIS D 691      12.850 -17.081  36.909  1.00 57.86 LIG 0.06  A 
ATOM     53 ND1  HIS D 691      12.823 -18.272  36.337  1.00 60.60 LIG-0.24  NA
ATOM     54  CE1 HIS D 691      13.771 -19.036  36.870  1.00 72.50 LIG 0.23  A 
ATOM     55 NE2  HIS D 691      14.397 -18.331  37.808  1.00 67.35 LIG-0.25  NA
ATOM     56  CD2 HIS D 691      13.850 -17.124  37.861  1.00 66.29 LIG 0.14  A 
ENDBRANCH 51 52
ENDBRANCH 50 51
BRANCH 50 57
ATOM     57  N   HIS D 691      13.688 -15.456  35.026  1.00 39.94 LIG-0.35  N 
ATOM     58 H    HIS D 691      14.066 -16.037  35.536  1.00 39.94 LIG 0.16  HD
ATOM     59  C   LEU D 690      14.333 -14.783  34.088  1.00 35.88 LIG 0.24  C 
ATOM     60 O    LEU D 690      13.776 -13.956  33.334  1.00 34.66 LIG-0.27  OA
BRANCH 59 61
ATOM     61  CA  LEU D 690      15.824 -15.011  33.997  1.00 33.43 LIG 0.18  C 
BRANCH 61 62
ATOM     62  CB  LEU D 690      16.528 -14.299  35.153  1.00 31.34 LIG 0.04  C 
BRANCH 62 63
ATOM     63  CG  LEU D 690      16.485 -14.996  36.508  1.00 30.93 LIG-0.02  C 
ATOM     64  CD1 LEU D 690      17.872 -15.002  37.133  1.00 30.90 LIG 0.01  C 
ATOM     65  CD2 LEU D 690      15.517 -14.273  37.425  1.00 28.62 LIG 0.01  C 
ENDBRANCH 62 63
ENDBRANCH 61 62
BRANCH 61 66
ATOM     66  N   LEU D 690      16.358 -14.536  32.719  1.00 35.22 LIG-0.35  N 
ATOM     67 H    LEU D 690      15.894 -13.913  32.350  1.00 35.22 LIG 0.16  HD
ATOM     68  C   ILE D 689      17.469 -15.040  32.195  1.00 41.04 LIG 0.26  C 
ATOM     69 O    ILE D 689      18.152 -15.899  32.773  1.00 39.56 LIG-0.27  OA
BRANCH 68 70
ATOM     70  CA  ILE D 689      17.896 -14.451  30.834  1.00 40.35 LIG 0.40  C 
ATOM     71  N   ILE D 689      16.728 -13.876  30.057  1.00 40.45 LIG 0.61  N 
BRANCH 70 72
ATOM     72  CB  ILE D 689      18.995 -13.395  31.107  1.00 42.26 LIG 0.03  C 
ATOM     73  CG2 ILE D 689      19.430 -12.708  29.799  1.00 38.55 LIG 0.01  C 
BRANCH 72 74
ATOM     74  CG1 ILE D 689      18.547 -12.375  32.157  1.00 45.91 LIG 0.00  C 
ATOM     75  CD1 ILE D 689      19.437 -12.313  33.398  1.00 45.96 LIG 0.01  C 
ENDBRANCH 72 74
ENDBRANCH 70 72
ENDBRANCH 68 70
ENDBRANCH 61 66
ENDBRANCH 59 61
ENDBRANCH 50 57
ENDBRANCH 47 50
ENDBRANCH 1 46
TORSDOF 30
ENDMDL
MODEL 50
USER: ADFR SOLUTION from run 124
USER: SCORE 22.206710 LL:  -7.897 LR: -14.988 RR:   0.000 FEB:  -6.039
USER: RMSD 5.893492
USER: SEED 123
USER: STATUS no improvement in best in 14 clusters for 5 generations
USER: GENES 32
USER: genes 0 Translation |==|  0.53520 0.68269 0.31534
USER: genes 1 Rotation |==|  0.04102 0.64872 0.61793 0.55757
USER: genes 2 Torsion [N]-CA--C-[N] |==|  0.95000
USER: genes 3 Torsion [C]-N--CA-[C] |==|  0.65595
USER: genes 4 Torsion [N]-CA--C-[N] |==|  0.04441
USER: genes 5 Torsion [C]-N--CA-[C] |==|  0.18082
USER: genes 6 Torsion [N]-CA--C-[N] |==|  0.06175
USER: genes 7 Torsion [C]-N--CA-[CB] |==|  0.40494
USER: genes 8 Torsion [N]-CA--CB-[CG] |==|  0.73176
USER: genes 9 Torsion [CA]-CB--CG-[CD] |==|  0.23704
USER: genes 10 Torsion [CB]-CG--CD-[NE2] |==|  0.76898
USER: genes 11 Torsion [N]-CA--C-[O] |==|  0.96486
USER: genes 12 Torsion [N]-CA--CB-[CG] |==|  0.70712
USER: genes 13 Torsion [CA]-CB--CG-[CD2] |==|  0.41332
USER: genes 14 Torsion [N]-CA--CB-[CG] |==|  0.75043
USER: genes 15 Torsion [CA]-CB--CG-[CD1] |==|  0.84507
USER: genes 16 Torsion [C]-CA--CB-[CG] |==|  0.41858
USER: genes 17 Torsion [CA]-CB--CG-[CD] |==|  0.07637
USER: genes 18 Torsion [CB]-CG--CD-[NE] |==|  0.34429
USER: genes 19 Torsion [CG]-CD--NE-[CZ] |==|  0.52961
USER: genes 20 Torsion [C]-CA--N-[C] |==|  0.84027
USER: genes 21 Torsion [N]-C--CA-[N] |==|  0.39509
USER: genes 22 Torsion [C]-CA--CB-[CG] |==|  0.18158
USER: genes 23 Torsion [CA]-CB--CG-[ND1] |==|  0.69666
USER: genes 24 Torsion [C]-CA--N-[C] |==|  0.80922
USER: genes 25 Torsion [N]-C--CA-[N] |==|  0.33189
USER: genes 26 Torsion [C]-CA--CB-[CG] |==|  0.27198
USER: genes 27 Torsion [CA]-CB--CG-[CD2] |==|  0.17776
USER: genes 28 Torsion [C]-CA--N-[C] |==|  0.68345
USER: genes 29 Torsion [N]-C--CA-[N] |==|  0.78942
USER: genes 30 Torsion [C]-CA--CB-[CG1] |==|  0.48137
USER: genes 31 Torsion [CA]-CB--CG1-[CD1] |==|  0.42660
ROOT
ATOM      1  CA  ARG D 692      10.395 -11.577  35.318  1.00 48.73 LIG 0.18  C 
ENDROOT
BRANCH 1 2
ATOM      2  C   ARG D 692       8.903 -11.625  35.605  1.00 46.10 LIG 0.24  C 
ATOM      3  N   LEU D 693       8.424 -12.706  36.217  1.00 50.64 LIG-0.35  N 
ATOM      4 H    LEU D 693       8.894 -13.375  36.481  1.00 50.64 LIG 0.16  HD
ATOM      5 O    ARG D 692       8.164 -10.731  35.198  1.00 52.04 LIG-0.27  OA
BRANCH 3 6
ATOM      6  CA  LEU D 693       6.985 -12.799  36.479  1.00 43.34 LIG 0.18  C 
BRANCH 6 7
ATOM      7  C   LEU D 693       6.683 -13.020  37.956  1.00 37.95 LIG 0.24  C 
ATOM      8  N   LEU D 694       7.667 -12.771  38.796  1.00 39.22 LIG-0.35  N 
ATOM      9 H    LEU D 694       8.458 -12.543  38.548  1.00 39.22 LIG 0.16  HD
ATOM     10 O    LEU D 693       5.576 -13.438  38.312  1.00 43.86 LIG-0.27  OA
BRANCH 8 11
ATOM     11  CA  LEU D 694       7.504 -12.859  40.223  1.00 38.59 LIG 0.18  C 
BRANCH 11 12
ATOM     12  C   LEU D 694       7.223 -14.281  40.588  1.00 46.22 LIG 0.24  C 
ATOM     13  N   GLN D 695       7.625 -15.173  39.701  1.00 66.87 LIG-0.35  N 
ATOM     14 H    GLN D 695       7.941 -14.931  38.939  1.00 66.87 LIG 0.16  HD
ATOM     15 O    LEU D 694       6.619 -14.531  41.597  1.00 54.70 LIG-0.27  OA
BRANCH 13 16
ATOM     16  CA  GLN D 695       7.607 -16.635  39.844  1.00 62.86 LIG 0.16  C 
BRANCH 16 17
ATOM     17  CB  GLN D 695       7.327 -17.298  38.524  1.00 63.26 LIG 0.04  C 
BRANCH 17 18
ATOM     18  CG  GLN D 695       5.869 -17.642  38.378  1.00 77.24 LIG 0.10  C 
BRANCH 18 19
ATOM     19  CD  GLN D 695       5.068 -16.516  37.863  1.00 84.08 LIG 0.21  C 
ATOM     20 OE1  GLN D 695       4.790 -16.450  36.681  1.00 83.40 LIG-0.27  OA
ATOM     21  NE2 GLN D 695       4.667 -15.620  38.744  1.00 79.17 LIG-0.37  N 
ATOM     22 22HE GLN D 695       4.186 -14.953  38.491  1.00 79.17 LIG 0.16  HD
ATOM     23 21HE GLN D 695       4.885 -15.703  39.571  1.00 79.17 LIG 0.16  HD
ENDBRANCH 18 19
ENDBRANCH 17 18
ENDBRANCH 16 17
BRANCH 16 24
ATOM     24  C   GLN D 695       8.808 -17.270  40.542  1.00 61.14 LIG 0.22  C 
ATOM     25 O    GLN D 695       9.836 -16.619  40.751  1.00 66.66 LIG-0.29  OA
ENDBRANCH 16 24
ENDBRANCH 13 16
ENDBRANCH 11 12
BRANCH 11 26
ATOM     26  CB  LEU D 694       6.334 -12.024  40.699  1.00 34.51 LIG 0.04  C 
BRANCH 26 27
ATOM     27  CG  LEU D 694       6.575 -10.717  41.413  1.00 27.71 LIG-0.02  C 
ATOM     28  CD2 LEU D 694       5.497  -9.704  41.170  1.00 26.48 LIG 0.01  C 
ATOM     29  CD1 LEU D 694       7.944 -10.149  41.169  1.00 27.00 LIG 0.01  C 
ENDBRANCH 26 27
ENDBRANCH 11 26
ENDBRANCH 8 11
ENDBRANCH 6 7
BRANCH 6 30
ATOM     30  CB  LEU D 693       6.306 -13.878  35.617  1.00 45.67 LIG 0.04  C 
BRANCH 30 31
ATOM     31  CG  LEU D 693       5.772 -13.411  34.254  1.00 55.29 LIG-0.02  C 
ATOM     32  CD1 LEU D 693       4.805 -12.247  34.419  1.00 47.80 LIG 0.01  C 
ATOM     33  CD2 LEU D 693       6.903 -13.070  33.272  1.00 51.02 LIG 0.01  C 
ENDBRANCH 30 31
ENDBRANCH 6 30
ENDBRANCH 3 6
ENDBRANCH 1 2
BRANCH 1 34
ATOM     34  CB  ARG D 692      10.606 -11.718  33.796  1.00 49.09 LIG 0.04  C 
BRANCH 34 35
ATOM     35  CG  ARG D 692      11.885 -10.990  33.337  1.00 50.62 LIG 0.02  C 
BRANCH 35 36
ATOM     36  CD  ARG D 692      12.967 -10.877  34.400  1.00 57.04 LIG 0.14  C 
BRANCH 36 37
ATOM     37  NE  ARG D 692      14.199 -11.459  33.902  1.00 60.90 LIG-0.23  N 
ATOM     38 HE   ARG D 692      14.235 -11.659  33.067  1.00 60.90 LIG 0.18  HD
ATOM     39  CZ  ARG D 692      15.272 -11.704  34.639  1.00 61.50 LIG 0.67  C 
ATOM     40  NH1 ARG D 692      15.246 -11.502  35.955  1.00 46.48 LIG-0.23  N 
ATOM     41  NH2 ARG D 692      16.357 -12.199  34.059  1.00 64.68 LIG-0.23  N 
ATOM     42 1HH1 ARG D 692      14.529 -11.210  36.331  1.00 46.48 LIG 0.17  HD
ATOM     43 2HH1 ARG D 692      15.945 -11.664  36.429  1.00 46.48 LIG 0.17  HD
ATOM     44 1HH2 ARG D 692      16.359 -12.357  33.214  1.00 64.68 LIG 0.17  HD
ATOM     45 2HH2 ARG D 692      17.059 -12.363  34.528  1.00 64.68 LIG 0.17  HD
ENDBRANCH 36 37
ENDBRANCH 35 36
ENDBRANCH 34 35
ENDBRANCH 1 34
BRANCH 1 46
ATOM     46  N   ARG D 692      11.230 -12.522  36.097  1.00 43.06 LIG-0.35  N 
ATOM     47  C   HIS D 691      11.240 -12.520  37.419  1.00 44.11 LIG 0.24  C 
ATOM     48 O    HIS D 691      10.599 -11.728  38.094  1.00 43.39 LIG-0.27  OA
ATOM     49 H    ARG D 692      11.698 -13.060  35.615  1.00 43.06 LIG 0.16  HD
BRANCH 47 50
ATOM     50  CA  HIS D 691      12.085 -13.560  38.048  1.00 41.80 LIG 0.18  C 
BRANCH 50 51
ATOM     51  CB  HIS D 691      11.157 -14.658  38.439  1.00 51.00 LIG 0.10  C 
BRANCH 51 52
ATOM     52  CG  HIS D 691      10.511 -15.340  37.304  1.00 57.86 LIG 0.06  A 
ATOM     53 ND1  HIS D 691       9.226 -15.200  37.032  1.00 60.60 LIG-0.24  NA
ATOM     54  CE1 HIS D 691       8.922 -15.930  35.963  1.00 72.50 LIG 0.23  A 
ATOM     55 NE2  HIS D 691      10.022 -16.560  35.562  1.00 67.35 LIG-0.25  NA
ATOM     56  CD2 HIS D 691      11.019 -16.222  36.370  1.00 66.29 LIG 0.14  A 
ENDBRANCH 51 52
ENDBRANCH 50 51
BRANCH 50 57
ATOM     57  N   HIS D 691      12.745 -13.050  39.229  1.00 39.94 LIG-0.35  N 
ATOM     58 H    HIS D 691      12.460 -13.396  39.963  1.00 39.94 LIG 0.16  HD
ATOM     59  C   LEU D 690      13.700 -12.135  39.180  1.00 35.88 LIG 0.24  C 
ATOM     60 O    LEU D 690      14.128 -11.650  38.111  1.00 34.66 LIG-0.27  OA
BRANCH 59 61
ATOM     61  CA  LEU D 690      14.229 -11.639  40.506  1.00 33.43 LIG 0.18  C 
BRANCH 61 62
ATOM     62  CB  LEU D 690      13.970 -10.137  40.636  1.00 31.34 LIG 0.04  C 
BRANCH 62 63
ATOM     63  CG  LEU D 690      12.740  -9.726  41.436  1.00 30.93 LIG-0.02  C 
ATOM     64  CD1 LEU D 690      11.496 -10.370  40.843  1.00 30.90 LIG 0.01  C 
ATOM     65  CD2 LEU D 690      12.900 -10.161  42.880  1.00 28.62 LIG 0.01  C 
ENDBRANCH 62 63
ENDBRANCH 61 62
BRANCH 61 66
ATOM     66  N   LEU D 690      15.660 -11.913  40.644  1.00 35.22 LIG-0.35  N 
ATOM     67 H    LEU D 690      16.159 -11.480  40.092  1.00 35.22 LIG 0.16  HD
ATOM     68  C   ILE D 689      16.126 -12.762  41.552  1.00 41.04 LIG 0.26  C 
ATOM     69 O    ILE D 689      15.392 -13.332  42.373  1.00 39.56 LIG-0.27  OA
BRANCH 68 70
ATOM     70  CA  ILE D 689      17.656 -12.961  41.562  1.00 40.35 LIG 0.40  C 
ATOM     71  N   ILE D 689      18.137 -13.832  40.419  1.00 40.45 LIG 0.61  N 
BRANCH 70 72
ATOM     72  CB  ILE D 689      18.309 -11.557  41.544  1.00 42.26 LIG 0.03  C 
ATOM     73  CG2 ILE D 689      17.666 -10.641  42.602  1.00 38.55 LIG 0.01  C 
BRANCH 72 74
ATOM     74  CG1 ILE D 689      19.828 -11.640  41.719  1.00 45.91 LIG 0.00  C 
ATOM     75  CD1 ILE D 689      20.600 -10.473  41.105  1.00 45.96 LIG 0.01  C 
ENDBRANCH 72 74
ENDBRANCH 70 72
ENDBRANCH 68 70
ENDBRANCH 61 66
ENDBRANCH 59 61
ENDBRANCH 50 57
ENDBRANCH 47 50
ENDBRANCH 1 46
TORSDOF 30
ENDMDL
MODEL 51
USER: ADFR SOLUTION from run 151
USER: SCORE 20.900307 LL:  -6.725 LR: -14.967 RR:   0.000 FEB:  -6.018
USER: RMSD 8.059677
USER: SEED 150
USER: STATUS searching
USER: GENES 32
USER: genes 0 Translation |==|  0.68645 0.72000 0.39730
USER: genes 1 Rotation |==|  0.00894 0.50727 0.51768 0.59216
USER: genes 2 Torsion [N]-CA--C-[N] |==|  0.35686
USER: genes 3 Torsion [C]-N--CA-[C] |==|  0.15884
USER: genes 4 Torsion [N]-CA--C-[N] |==|  0.14336
USER: genes 5 Torsion [C]-N--CA-[C] |==|  0.77346
USER: genes 6 Torsion [N]-CA--C-[N] |==|  0.17635
USER: genes 7 Torsion [C]-N--CA-[CB] |==|  0.26785
USER: genes 8 Torsion [N]-CA--CB-[CG] |==|  0.29281
USER: genes 9 Torsion [CA]-CB--CG-[CD] |==|  0.78874
USER: genes 10 Torsion [CB]-CG--CD-[NE2] |==|  0.42172
USER: genes 11 Torsion [N]-CA--C-[O] |==|  0.42507
USER: genes 12 Torsion [N]-CA--CB-[CG] |==|  0.97826
USER: genes 13 Torsion [CA]-CB--CG-[CD2] |==|  0.57283
USER: genes 14 Torsion [N]-CA--CB-[CG] |==|  0.83166
USER: genes 15 Torsion [CA]-CB--CG-[CD1] |==|  0.94092
USER: genes 16 Torsion [C]-CA--CB-[CG] |==|  0.80366
USER: genes 17 Torsion [CA]-CB--CG-[CD] |==|  0.59961
USER: genes 18 Torsion [CB]-CG--CD-[NE] |==|  0.63607
USER: genes 19 Torsion [CG]-CD--NE-[CZ] |==|  0.46079
USER: genes 20 Torsion [C]-CA--N-[C] |==|  0.76621
USER: genes 21 Torsion [N]-C--CA-[N] |==|  0.90969
USER: genes 22 Torsion [C]-CA--CB-[CG] |==|  0.25986
USER: genes 23 Torsion [CA]-CB--CG-[ND1] |==|  0.83161
USER: genes 24 Torsion [C]-CA--N-[C] |==|  0.73660
USER: genes 25 Torsion [N]-C--CA-[N] |==|  0.96961
USER: genes 26 Torsion [C]-CA--CB-[CG] |==|  0.34614
USER: genes 27 Torsion [CA]-CB--CG-[CD2] |==|  0.09160
USER: genes 28 Torsion [C]-CA--N-[C] |==|  0.80085
USER: genes 29 Torsion [N]-C--CA-[N] |==|  0.93525
USER: genes 30 Torsion [C]-CA--CB-[CG1] |==|  0.18565
USER: genes 31 Torsion [CA]-CB--CG1-[CD1] |==|  0.37626
ROOT
ATOM      1  CA  ARG D 692      13.798 -10.877  36.916  1.00 48.73 LIG 0.18  C 
ENDROOT
BRANCH 1 2
ATOM      2  C   ARG D 692      12.564 -11.609  36.415  1.00 46.10 LIG 0.24  C 
ATOM      3  N   LEU D 693      11.423 -10.927  36.348  1.00 50.64 LIG-0.35  N 
ATOM      4 H    LEU D 693      11.330 -10.096  36.548  1.00 50.64 LIG 0.16  HD
ATOM      5 O    ARG D 692      12.613 -12.814  36.173  1.00 52.04 LIG-0.27  OA
BRANCH 3 6
ATOM      6  CA  LEU D 693      10.206 -11.612  35.900  1.00 43.34 LIG 0.18  C 
BRANCH 6 7
ATOM      7  C   LEU D 693       9.882 -12.826  36.761  1.00 37.95 LIG 0.24  C 
ATOM      8  N   LEU D 694       9.844 -12.626  38.063  1.00 39.22 LIG-0.35  N 
ATOM      9 H    LEU D 694      10.036 -11.875  38.434  1.00 39.22 LIG 0.16  HD
ATOM     10 O    LEU D 693       9.698 -13.931  36.239  1.00 43.86 LIG-0.27  OA
BRANCH 8 11
ATOM     11  CA  LEU D 694       9.474 -13.661  38.992  1.00 38.59 LIG 0.18  C 
BRANCH 11 12
ATOM     12  C   LEU D 694       7.984 -13.748  39.045  1.00 46.22 LIG 0.24  C 
ATOM     13  N   GLN D 695       7.406 -14.104  37.912  1.00 66.87 LIG-0.35  N 
ATOM     14 H    GLN D 695       7.861 -14.187  37.188  1.00 66.87 LIG 0.16  HD
ATOM     15 O    LEU D 694       7.403 -13.446  40.055  1.00 54.70 LIG-0.27  OA
BRANCH 13 16
ATOM     16  CA  GLN D 695       5.983 -14.399  37.699  1.00 62.86 LIG 0.16  C 
BRANCH 16 17
ATOM     17  CB  GLN D 695       5.259 -13.192  37.166  1.00 63.26 LIG 0.04  C 
BRANCH 17 18
ATOM     18  CG  GLN D 695       4.949 -13.339  35.701  1.00 77.24 LIG 0.10  C 
BRANCH 18 19
ATOM     19  CD  GLN D 695       6.131 -13.129  34.845  1.00 84.08 LIG 0.21  C 
ATOM     20 OE1  GLN D 695       7.043 -12.419  35.221  1.00 83.40 LIG-0.27  OA
ATOM     21  NE2 GLN D 695       6.144 -13.759  33.686  1.00 79.17 LIG-0.37  N 
ATOM     22 22HE GLN D 695       6.819 -13.677  33.160  1.00 79.17 LIG 0.16  HD
ATOM     23 21HE GLN D 695       5.478 -14.252  33.457  1.00 79.17 LIG 0.16  HD
ENDBRANCH 18 19
ENDBRANCH 17 18
ENDBRANCH 16 17
BRANCH 16 24
ATOM     24  C   GLN D 695       5.658 -15.648  36.881  1.00 61.14 LIG 0.22  C 
ATOM     25 O    GLN D 695       4.594 -16.253  37.044  1.00 66.66 LIG-0.29  OA
ENDBRANCH 16 24
ENDBRANCH 13 16
ENDBRANCH 11 12
BRANCH 11 26
ATOM     26  CB  LEU D 694       9.966 -13.351  40.389  1.00 34.51 LIG 0.04  C 
BRANCH 26 27
ATOM     27  CG  LEU D 694      10.887 -12.180  40.629  1.00 27.71 LIG-0.02  C 
ATOM     28  CD2 LEU D 694      11.755 -12.348  41.839  1.00 26.48 LIG 0.01  C 
ATOM     29  CD1 LEU D 694      10.178 -10.856  40.626  1.00 27.00 LIG 0.01  C 
ENDBRANCH 26 27
ENDBRANCH 11 26
ENDBRANCH 8 11
ENDBRANCH 6 7
BRANCH 6 30
ATOM     30  CB  LEU D 693      10.271 -11.999  34.413  1.00 45.67 LIG 0.04  C 
BRANCH 30 31
ATOM     31  CG  LEU D 693      10.431 -10.836  33.422  1.00 55.29 LIG-0.02  C 
ATOM     32  CD1 LEU D 693       9.980  -9.523  34.047  1.00 47.80 LIG 0.01  C 
ATOM     33  CD2 LEU D 693      11.861 -10.736  32.869  1.00 51.02 LIG 0.01  C 
ENDBRANCH 30 31
ENDBRANCH 6 30
ENDBRANCH 3 6
ENDBRANCH 1 2
BRANCH 1 34
ATOM     34  CB  ARG D 692      14.698 -10.549  35.706  1.00 49.09 LIG 0.04  C 
BRANCH 34 35
ATOM     35  CG  ARG D 692      15.351 -11.821  35.131  1.00 50.62 LIG 0.02  C 
BRANCH 35 36
ATOM     36  CD  ARG D 692      16.768 -11.628  34.612  1.00 57.04 LIG 0.14  C 
BRANCH 36 37
ATOM     37  NE  ARG D 692      16.881 -12.203  33.285  1.00 60.90 LIG-0.23  N 
ATOM     38 HE   ARG D 692      16.251 -12.728  33.024  1.00 60.90 LIG 0.18  HD
ATOM     39  CZ  ARG D 692      17.882 -11.981  32.446  1.00 61.50 LIG 0.67  C 
ATOM     40  NH1 ARG D 692      18.930 -11.252  32.826  1.00 46.48 LIG-0.23  N 
ATOM     41  NH2 ARG D 692      17.850 -12.531  31.240  1.00 64.68 LIG-0.23  N 
ATOM     42 1HH1 ARG D 692      18.959 -10.923  33.620  1.00 46.48 LIG 0.17  HD
ATOM     43 2HH1 ARG D 692      19.577 -11.111  32.277  1.00 46.48 LIG 0.17  HD
ATOM     44 1HH2 ARG D 692      17.186 -13.025  31.009  1.00 64.68 LIG 0.17  HD
ATOM     45 2HH2 ARG D 692      18.495 -12.393  30.687  1.00 64.68 LIG 0.17  HD
ENDBRANCH 36 37
ENDBRANCH 35 36
ENDBRANCH 34 35
ENDBRANCH 1 34
BRANCH 1 46
ATOM     46  N   ARG D 692      14.541 -11.545  38.011  1.00 43.06 LIG-0.35  N 
ATOM     47  C   HIS D 691      14.191 -11.407  39.279  1.00 44.11 LIG 0.24  C 
ATOM     48 O    HIS D 691      13.264 -10.699  39.647  1.00 43.39 LIG-0.27  OA
ATOM     49 H    ARG D 692      15.207 -12.021  37.748  1.00 43.06 LIG 0.16  HD
BRANCH 47 50
ATOM     50  CA  HIS D 691      15.000 -12.180  40.248  1.00 41.80 LIG 0.18  C 
BRANCH 50 51
ATOM     51  CB  HIS D 691      16.179 -11.325  40.567  1.00 51.00 LIG 0.10  C 
BRANCH 51 52
ATOM     52  CG  HIS D 691      16.009 -10.478  41.760  1.00 57.86 LIG 0.06  A 
ATOM     53 ND1  HIS D 691      15.060  -9.563  41.849  1.00 60.60 LIG-0.24  NA
ATOM     54  CE1 HIS D 691      15.149  -8.953  43.027  1.00 72.50 LIG 0.23  A 
ATOM     55 NE2  HIS D 691      16.181  -9.471  43.688  1.00 67.35 LIG-0.25  NA
ATOM     56  CD2 HIS D 691      16.735 -10.409  42.933  1.00 66.29 LIG 0.14  A 
ENDBRANCH 51 52
ENDBRANCH 50 51
BRANCH 50 57
ATOM     57  N   HIS D 691      15.456 -13.424  39.670  1.00 39.94 LIG-0.35  N 
ATOM     58 H    HIS D 691      16.184 -13.351  39.217  1.00 39.94 LIG 0.16  HD
ATOM     59  C   LEU D 690      14.810 -14.568  39.827  1.00 35.88 LIG 0.24  C 
ATOM     60 O    LEU D 690      13.764 -14.675  40.503  1.00 34.66 LIG-0.27  OA
BRANCH 59 61
ATOM     61  CA  LEU D 690      15.364 -15.763  39.087  1.00 33.43 LIG 0.18  C 
BRANCH 61 62
ATOM     62  CB  LEU D 690      15.953 -16.761  40.086  1.00 31.34 LIG 0.04  C 
BRANCH 62 63
ATOM     63  CG  LEU D 690      15.413 -18.185  40.025  1.00 30.93 LIG-0.02  C 
ATOM     64  CD1 LEU D 690      14.177 -18.310  40.903  1.00 30.90 LIG 0.01  C 
ATOM     65  CD2 LEU D 690      15.057 -18.535  38.592  1.00 28.62 LIG 0.01  C 
ENDBRANCH 62 63
ENDBRANCH 61 62
BRANCH 61 66
ATOM     66  N   LEU D 690      16.387 -15.364  38.119  1.00 35.22 LIG-0.35  N 
ATOM     67 H    LEU D 690      17.189 -15.582  38.340  1.00 35.22 LIG 0.16  HD
ATOM     68  C   ILE D 689      16.077 -14.720  37.000  1.00 41.04 LIG 0.26  C 
ATOM     69 O    ILE D 689      14.907 -14.466  36.677  1.00 39.56 LIG-0.27  OA
BRANCH 68 70
ATOM     70  CA  ILE D 689      17.266 -14.348  36.089  1.00 40.35 LIG 0.40  C 
ATOM     71  N   ILE D 689      18.576 -14.267  36.846  1.00 40.45 LIG 0.61  N 
BRANCH 70 72
ATOM     72  CB  ILE D 689      17.315 -15.386  34.941  1.00 42.26 LIG 0.03  C 
ATOM     73  CG2 ILE D 689      17.463 -16.813  35.500  1.00 38.55 LIG 0.01  C 
BRANCH 72 74
ATOM     74  CG1 ILE D 689      16.097 -15.265  34.020  1.00 45.91 LIG 0.00  C 
ATOM     75  CD1 ILE D 689      16.425 -15.322  32.528  1.00 45.96 LIG 0.01  C 
ENDBRANCH 72 74
ENDBRANCH 70 72
ENDBRANCH 68 70
ENDBRANCH 61 66
ENDBRANCH 59 61
ENDBRANCH 50 57
ENDBRANCH 47 50
ENDBRANCH 1 46
TORSDOF 30
ENDMDL
MODEL 52
USER: ADFR SOLUTION from run 173
USER: SCORE 20.651864 LL:  -7.272 LR: -14.970 RR:   0.000 FEB:  -6.021
USER: RMSD 6.210027
USER: SEED 172
USER: STATUS no improvement in best in 36 clusters for 5 generations
USER: GENES 32
USER: genes 0 Translation |==|  0.54426 0.66078 0.31451
USER: genes 1 Rotation |==|  0.06173 0.65165 0.65835 0.59925
USER: genes 2 Torsion [N]-CA--C-[N] |==|  0.91799
USER: genes 3 Torsion [C]-N--CA-[C] |==|  0.68904
USER: genes 4 Torsion [N]-CA--C-[N] |==|  0.24695
USER: genes 5 Torsion [C]-N--CA-[C] |==|  0.77110
USER: genes 6 Torsion [N]-CA--C-[N] |==|  0.00754
USER: genes 7 Torsion [C]-N--CA-[CB] |==|  0.88982
USER: genes 8 Torsion [N]-CA--CB-[CG] |==|  0.74884
USER: genes 9 Torsion [CA]-CB--CG-[CD] |==|  0.16197
USER: genes 10 Torsion [CB]-CG--CD-[NE2] |==|  0.17426
USER: genes 11 Torsion [N]-CA--C-[O] |==|  0.15330
USER: genes 12 Torsion [N]-CA--CB-[CG] |==|  0.98273
USER: genes 13 Torsion [CA]-CB--CG-[CD2] |==|  0.76374
USER: genes 14 Torsion [N]-CA--CB-[CG] |==|  0.77261
USER: genes 15 Torsion [CA]-CB--CG-[CD1] |==|  0.81408
USER: genes 16 Torsion [C]-CA--CB-[CG] |==|  0.43007
USER: genes 17 Torsion [CA]-CB--CG-[CD] |==|  0.02174
USER: genes 18 Torsion [CB]-CG--CD-[NE] |==|  0.37580
USER: genes 19 Torsion [CG]-CD--NE-[CZ] |==|  0.53699
USER: genes 20 Torsion [C]-CA--N-[C] |==|  0.77778
USER: genes 21 Torsion [N]-C--CA-[N] |==|  0.41553
USER: genes 22 Torsion [C]-CA--CB-[CG] |==|  0.21542
USER: genes 23 Torsion [CA]-CB--CG-[ND1] |==|  0.14072
USER: genes 24 Torsion [C]-CA--N-[C] |==|  0.19739
USER: genes 25 Torsion [N]-C--CA-[N] |==|  0.99480
USER: genes 26 Torsion [C]-CA--CB-[CG] |==|  0.70014
USER: genes 27 Torsion [CA]-CB--CG-[CD2] |==|  0.57523
USER: genes 28 Torsion [C]-CA--N-[C] |==|  0.72046
USER: genes 29 Torsion [N]-C--CA-[N] |==|  0.39007
USER: genes 30 Torsion [C]-CA--CB-[CG1] |==|  0.20561
USER: genes 31 Torsion [CA]-CB--CG1-[CD1] |==|  0.61092
ROOT
ATOM      1  CA  ARG D 692      10.599 -11.987  35.302  1.00 48.73 LIG 0.18  C 
ENDROOT
BRANCH 1 2
ATOM      2  C   ARG D 692       9.149 -12.031  35.757  1.00 46.10 LIG 0.24  C 
ATOM      3  N   LEU D 693       8.600 -13.225  35.968  1.00 50.64 LIG-0.35  N 
ATOM      4 H    LEU D 693       9.006 -13.978  35.885  1.00 50.64 LIG 0.16  HD
ATOM      5 O    ARG D 692       8.492 -10.994  35.834  1.00 52.04 LIG-0.27  OA
BRANCH 3 6
ATOM      6  CA  LEU D 693       7.194 -13.303  36.375  1.00 43.34 LIG 0.18  C 
BRANCH 6 7
ATOM      7  C   LEU D 693       7.038 -13.804  37.805  1.00 37.95 LIG 0.24  C 
ATOM      8  N   LEU D 694       7.053 -12.886  38.750  1.00 39.22 LIG-0.35  N 
ATOM      9 H    LEU D 694       7.191 -12.051  38.599  1.00 39.22 LIG 0.16  HD
ATOM     10 O    LEU D 693       6.934 -15.014  38.035  1.00 43.86 LIG-0.27  OA
BRANCH 8 11
ATOM     11  CA  LEU D 694       6.838 -13.204  40.137  1.00 38.59 LIG 0.18  C 
BRANCH 11 12
ATOM     12  C   LEU D 694       5.367 -13.294  40.387  1.00 46.22 LIG 0.24  C 
ATOM     13  N   GLN D 695       4.610 -13.128  39.318  1.00 66.87 LIG-0.35  N 
ATOM     14 H    GLN D 695       4.951 -12.899  38.563  1.00 66.87 LIG 0.16  HD
ATOM     15 O    LEU D 694       4.960 -13.447  41.508  1.00 54.70 LIG-0.27  OA
BRANCH 13 16
ATOM     16  CA  GLN D 695       3.153 -13.294  39.231  1.00 62.86 LIG 0.16  C 
BRANCH 16 17
ATOM     17  CB  GLN D 695       2.700 -14.481  40.036  1.00 63.26 LIG 0.04  C 
BRANCH 17 18
ATOM     18  CG  GLN D 695       2.684 -15.736  39.205  1.00 77.24 LIG 0.10  C 
BRANCH 18 19
ATOM     19  CD  GLN D 695       4.004 -16.052  38.628  1.00 84.08 LIG 0.21  C 
ATOM     20 OE1  GLN D 695       4.163 -16.054  37.423  1.00 83.40 LIG-0.27  OA
ATOM     21  NE2 GLN D 695       4.979 -16.304  39.480  1.00 79.17 LIG-0.37  N 
ATOM     22 22HE GLN D 695       5.769 -16.481  39.189  1.00 79.17 LIG 0.16  HD
ATOM     23 21HE GLN D 695       4.825 -16.293  40.326  1.00 79.17 LIG 0.16  HD
ENDBRANCH 18 19
ENDBRANCH 17 18
ENDBRANCH 16 17
BRANCH 16 24
ATOM     24  C   GLN D 695       2.304 -12.060  39.533  1.00 61.14 LIG 0.22  C 
ATOM     25 O    GLN D 695       2.480 -11.004  38.919  1.00 66.66 LIG-0.29  OA
ENDBRANCH 16 24
ENDBRANCH 13 16
ENDBRANCH 11 12
BRANCH 11 26
ATOM     26  CB  LEU D 694       7.392 -12.126  41.044  1.00 34.51 LIG 0.04  C 
BRANCH 26 27
ATOM     27  CG  LEU D 694       8.189 -10.983  40.466  1.00 27.71 LIG-0.02  C 
ATOM     28  CD2 LEU D 694       9.642 -11.307  40.287  1.00 26.48 LIG 0.01  C 
ATOM     29  CD1 LEU D 694       7.989  -9.688  41.199  1.00 27.00 LIG 0.01  C 
ENDBRANCH 26 27
ENDBRANCH 11 26
ENDBRANCH 8 11
ENDBRANCH 6 7
BRANCH 6 30
ATOM     30  CB  LEU D 693       6.355 -14.152  35.405  1.00 45.67 LIG 0.04  C 
BRANCH 30 31
ATOM     31  CG  LEU D 693       5.870 -13.438  34.133  1.00 55.29 LIG-0.02  C 
ATOM     32  CD1 LEU D 693       4.861 -12.349  34.472  1.00 47.80 LIG 0.01  C 
ATOM     33  CD2 LEU D 693       7.034 -12.887  33.296  1.00 51.02 LIG 0.01  C 
ENDBRANCH 30 31
ENDBRANCH 6 30
ENDBRANCH 3 6
ENDBRANCH 1 2
BRANCH 1 34
ATOM     34  CB  ARG D 692      10.626 -11.815  33.769  1.00 49.09 LIG 0.04  C 
BRANCH 34 35
ATOM     35  CG  ARG D 692      11.939 -11.155  33.301  1.00 50.62 LIG 0.02  C 
BRANCH 35 36
ATOM     36  CD  ARG D 692      12.988 -10.988  34.391  1.00 57.04 LIG 0.14  C 
BRANCH 36 37
ATOM     37  NE  ARG D 692      14.284 -11.393  33.881  1.00 60.90 LIG-0.23  N 
ATOM     38 HE   ARG D 692      14.362 -11.499  33.031  1.00 60.90 LIG 0.18  HD
ATOM     39  CZ  ARG D 692      15.356 -11.610  34.628  1.00 61.50 LIG 0.67  C 
ATOM     40  NH1 ARG D 692      15.276 -11.551  35.956  1.00 46.48 LIG-0.23  N 
ATOM     41  NH2 ARG D 692      16.501 -11.934  34.040  1.00 64.68 LIG-0.23  N 
ATOM     42 1HH1 ARG D 692      14.524 -11.371  36.333  1.00 46.48 LIG 0.17  HD
ATOM     43 2HH1 ARG D 692      15.975 -11.694  36.435  1.00 46.48 LIG 0.17  HD
ATOM     44 1HH2 ARG D 692      16.541 -12.001  33.184  1.00 64.68 LIG 0.17  HD
ATOM     45 2HH2 ARG D 692      17.203 -12.078  34.515  1.00 64.68 LIG 0.17  HD
ENDBRANCH 36 37
ENDBRANCH 35 36
ENDBRANCH 34 35
ENDBRANCH 1 34
BRANCH 1 46
ATOM     46  N   ARG D 692      11.450 -13.110  35.762  1.00 43.06 LIG-0.35  N 
ATOM     47  C   HIS D 691      11.967 -13.142  36.979  1.00 44.11 LIG 0.24  C 
ATOM     48 O    HIS D 691      11.816 -12.246  37.797  1.00 43.39 LIG-0.27  OA
ATOM     49 H    ARG D 692      11.573 -13.725  35.173  1.00 43.06 LIG 0.16  HD
BRANCH 47 50
ATOM     50  CA  HIS D 691      12.750 -14.356  37.303  1.00 41.80 LIG 0.18  C 
BRANCH 50 51
ATOM     51  CB  HIS D 691      11.787 -15.309  37.923  1.00 51.00 LIG 0.10  C 
BRANCH 51 52
ATOM     52  CG  HIS D 691      10.909 -15.996  36.961  1.00 57.86 LIG 0.06  A 
ATOM     53 ND1  HIS D 691      11.377 -16.614  35.891  1.00 60.60 LIG-0.24  NA
ATOM     54  CE1 HIS D 691      10.362 -17.136  35.208  1.00 72.50 LIG 0.23  A 
ATOM     55 NE2  HIS D 691       9.233 -16.829  35.839  1.00 67.35 LIG-0.25  NA
ATOM     56  CD2 HIS D 691       9.533 -16.123  36.920  1.00 66.29 LIG 0.14  A 
ENDBRANCH 51 52
ENDBRANCH 50 51
BRANCH 50 57
ATOM     57  N   HIS D 691      13.803 -14.059  38.249  1.00 39.94 LIG-0.35  N 
ATOM     58 H    HIS D 691      14.593 -14.083  37.909  1.00 39.94 LIG 0.16  HD
ATOM     59  C   LEU D 690      13.567 -13.776  39.520  1.00 35.88 LIG 0.24  C 
ATOM     60 O    LEU D 690      12.417 -13.720  40.006  1.00 34.66 LIG-0.27  OA
BRANCH 59 61
ATOM     61  CA  LEU D 690      14.777 -13.576  40.403  1.00 33.43 LIG 0.18  C 
BRANCH 61 62
ATOM     62  CB  LEU D 690      14.755 -12.167  40.998  1.00 31.34 LIG 0.04  C 
BRANCH 62 63
ATOM     63  CG  LEU D 690      15.777 -11.180  40.445  1.00 30.93 LIG-0.02  C 
ATOM     64  CD1 LEU D 690      15.221 -10.499  39.203  1.00 30.90 LIG 0.01  C 
ATOM     65  CD2 LEU D 690      16.100 -10.136  41.497  1.00 28.62 LIG 0.01  C 
ENDBRANCH 62 63
ENDBRANCH 61 62
BRANCH 61 66
ATOM     66  N   LEU D 690      16.020 -13.784  39.658  1.00 35.22 LIG-0.35  N 
ATOM     67 H    LEU D 690      16.258 -13.116  39.172  1.00 35.22 LIG 0.16  HD
ATOM     68  C   ILE D 689      16.705 -14.918  39.744  1.00 41.04 LIG 0.26  C 
ATOM     69 O    ILE D 689      16.371 -15.846  40.495  1.00 39.56 LIG-0.27  OA
BRANCH 68 70
ATOM     70  CA  ILE D 689      17.985 -14.996  38.884  1.00 40.35 LIG 0.40  C 
ATOM     71  N   ILE D 689      19.127 -15.685  39.603  1.00 40.45 LIG 0.61  N 
BRANCH 70 72
ATOM     72  CB  ILE D 689      17.613 -15.705  37.558  1.00 42.26 LIG 0.03  C 
ATOM     73  CG2 ILE D 689      16.873 -17.027  37.834  1.00 38.55 LIG 0.01  C 
BRANCH 72 74
ATOM     74  CG1 ILE D 689      16.803 -14.787  36.638  1.00 45.91 LIG 0.00  C 
ATOM     75  CD1 ILE D 689      15.660 -15.483  35.899  1.00 45.96 LIG 0.01  C 
ENDBRANCH 72 74
ENDBRANCH 70 72
ENDBRANCH 68 70
ENDBRANCH 61 66
ENDBRANCH 59 61
ENDBRANCH 50 57
ENDBRANCH 47 50
ENDBRANCH 1 46
TORSDOF 30
ENDMDL
MODEL 53
USER: ADFR SOLUTION from run 88
USER: SCORE 20.931621 LL:  -7.189 LR: -14.968 RR:   0.000 FEB:  -6.019
USER: RMSD 7.390380
USER: SEED 87
USER: STATUS no improvement in best in 21 clusters for 5 generations
USER: GENES 32
USER: genes 0 Translation |==|  0.60749 0.65868 0.50008
USER: genes 1 Rotation |==|  0.92428 0.27951 0.62574 0.57458
USER: genes 2 Torsion [N]-CA--C-[N] |==|  0.50209
USER: genes 3 Torsion [C]-N--CA-[C] |==|  0.85435
USER: genes 4 Torsion [N]-CA--C-[N] |==|  0.37752
USER: genes 5 Torsion [C]-N--CA-[C] |==|  0.18551
USER: genes 6 Torsion [N]-CA--C-[N] |==|  0.04801
USER: genes 7 Torsion [C]-N--CA-[CB] |==|  0.77632
USER: genes 8 Torsion [N]-CA--CB-[CG] |==|  0.77370
USER: genes 9 Torsion [CA]-CB--CG-[CD] |==|  0.44706
USER: genes 10 Torsion [CB]-CG--CD-[NE2] |==|  0.57616
USER: genes 11 Torsion [N]-CA--C-[O] |==|  0.03718
USER: genes 12 Torsion [N]-CA--CB-[CG] |==|  0.82903
USER: genes 13 Torsion [CA]-CB--CG-[CD2] |==|  0.28816
USER: genes 14 Torsion [N]-CA--CB-[CG] |==|  0.70769
USER: genes 15 Torsion [CA]-CB--CG-[CD1] |==|  0.02472
USER: genes 16 Torsion [C]-CA--CB-[CG] |==|  0.30815
USER: genes 17 Torsion [CA]-CB--CG-[CD] |==|  0.89385
USER: genes 18 Torsion [CB]-CG--CD-[NE] |==|  0.54131
USER: genes 19 Torsion [CG]-CD--NE-[CZ] |==|  0.31890
USER: genes 20 Torsion [C]-CA--N-[C] |==|  0.79472
USER: genes 21 Torsion [N]-C--CA-[N] |==|  0.12784
USER: genes 22 Torsion [C]-CA--CB-[CG] |==|  0.76004
USER: genes 23 Torsion [CA]-CB--CG-[ND1] |==|  0.77589
USER: genes 24 Torsion [C]-CA--N-[C] |==|  0.77601
USER: genes 25 Torsion [N]-C--CA-[N] |==|  0.87750
USER: genes 26 Torsion [C]-CA--CB-[CG] |==|  0.51079
USER: genes 27 Torsion [CA]-CB--CG-[CD2] |==|  0.24819
USER: genes 28 Torsion [C]-CA--N-[C] |==|  0.80732
USER: genes 29 Torsion [N]-C--CA-[N] |==|  0.47913
USER: genes 30 Torsion [C]-CA--CB-[CG1] |==|  0.70272
USER: genes 31 Torsion [CA]-CB--CG1-[CD1] |==|  0.20235
ROOT
ATOM      1  CA  ARG D 692      12.021 -12.027  38.921  1.00 48.73 LIG 0.18  C 
ENDROOT
BRANCH 1 2
ATOM      2  C   ARG D 692      10.778 -11.881  38.058  1.00 46.10 LIG 0.24  C 
ATOM      3  N   LEU D 693      10.929 -11.944  36.737  1.00 50.64 LIG-0.35  N 
ATOM      4 H    LEU D 693      11.673 -12.079  36.329  1.00 50.64 LIG 0.16  HD
ATOM      5 O    ARG D 692       9.692 -11.623  38.574  1.00 52.04 LIG-0.27  OA
BRANCH 3 6
ATOM      6  CA  LEU D 693       9.755 -11.774  35.875  1.00 43.34 LIG 0.18  C 
BRANCH 6 7
ATOM      7  C   LEU D 693       8.617 -12.708  36.265  1.00 37.95 LIG 0.24  C 
ATOM      8  N   LEU D 694       7.412 -12.177  36.300  1.00 39.22 LIG-0.35  N 
ATOM      9 H    LEU D 694       7.256 -11.343  36.163  1.00 39.22 LIG 0.16  HD
ATOM     10 O    LEU D 693       8.848 -13.888  36.555  1.00 43.86 LIG-0.27  OA
BRANCH 8 11
ATOM     11  CA  LEU D 694       6.233 -12.957  36.574  1.00 38.59 LIG 0.18  C 
BRANCH 11 12
ATOM     12  C   LEU D 694       6.295 -13.440  37.987  1.00 46.22 LIG 0.24  C 
ATOM     13  N   GLN D 695       7.153 -12.798  38.758  1.00 66.87 LIG-0.35  N 
ATOM     14 H    GLN D 695       7.690 -12.211  38.433  1.00 66.87 LIG 0.16  HD
ATOM     15 O    LEU D 694       5.633 -14.387  38.324  1.00 54.70 LIG-0.27  OA
BRANCH 13 16
ATOM     16  CA  GLN D 695       7.335 -12.959  40.207  1.00 62.86 LIG 0.16  C 
BRANCH 16 17
ATOM     17  CB  GLN D 695       6.289 -12.189  40.966  1.00 63.26 LIG 0.04  C 
BRANCH 17 18
ATOM     18  CG  GLN D 695       6.655 -10.734  41.084  1.00 77.24 LIG 0.10  C 
BRANCH 18 19
ATOM     19  CD  GLN D 695       5.497  -9.881  41.406  1.00 84.08 LIG 0.21  C 
ATOM     20 OE1  GLN D 695       4.558 -10.331  42.033  1.00 83.40 LIG-0.27  OA
ATOM     21  NE2 GLN D 695       5.551  -8.627  41.000  1.00 79.17 LIG-0.37  N 
ATOM     22 22HE GLN D 695       4.904  -8.089  41.177  1.00 79.17 LIG 0.16  HD
ATOM     23 21HE GLN D 695       6.234  -8.347  40.558  1.00 79.17 LIG 0.16  HD
ENDBRANCH 18 19
ENDBRANCH 17 18
ENDBRANCH 16 17
BRANCH 16 24
ATOM     24  C   GLN D 695       7.458 -14.390  40.727  1.00 61.14 LIG 0.22  C 
ATOM     25 O    GLN D 695       7.652 -15.331  39.952  1.00 66.66 LIG-0.29  OA
ENDBRANCH 16 24
ENDBRANCH 13 16
ENDBRANCH 11 12
BRANCH 11 26
ATOM     26  CB  LEU D 694       6.153 -14.173  35.676  1.00 34.51 LIG 0.04  C 
BRANCH 26 27
ATOM     27  CG  LEU D 694       6.062 -14.007  34.179  1.00 27.71 LIG-0.02  C 
ATOM     28  CD2 LEU D 694       7.353 -14.293  33.474  1.00 26.48 LIG 0.01  C 
ATOM     29  CD1 LEU D 694       5.474 -12.690  33.762  1.00 27.00 LIG 0.01  C 
ENDBRANCH 26 27
ENDBRANCH 11 26
ENDBRANCH 8 11
ENDBRANCH 6 7
BRANCH 6 30
ATOM     30  CB  LEU D 693      10.102 -11.929  34.384  1.00 45.67 LIG 0.04  C 
BRANCH 30 31
ATOM     31  CG  LEU D 693      10.153 -10.628  33.568  1.00 55.29 LIG-0.02  C 
ATOM     32  CD1 LEU D 693      10.055  -9.411  34.478  1.00 47.80 LIG 0.01  C 
ATOM     33  CD2 LEU D 693      11.391 -10.558  32.662  1.00 51.02 LIG 0.01  C 
ENDBRANCH 30 31
ENDBRANCH 6 30
ENDBRANCH 3 6
ENDBRANCH 1 2
BRANCH 1 34
ATOM     34  CB  ARG D 692      12.771 -13.305  38.489  1.00 49.09 LIG 0.04  C 
BRANCH 34 35
ATOM     35  CG  ARG D 692      14.105 -12.967  37.795  1.00 50.62 LIG 0.02  C 
BRANCH 35 36
ATOM     36  CD  ARG D 692      14.056 -11.746  36.888  1.00 57.04 LIG 0.14  C 
BRANCH 36 37
ATOM     37  NE  ARG D 692      15.229 -11.730  36.035  1.00 60.90 LIG-0.23  N 
ATOM     38 HE   ARG D 692      15.995 -11.628  36.413  1.00 60.90 LIG 0.18  HD
ATOM     39  CZ  ARG D 692      15.208 -11.859  34.717  1.00 61.50 LIG 0.67  C 
ATOM     40  NH1 ARG D 692      14.049 -11.928  34.065  1.00 46.48 LIG-0.23  N 
ATOM     41  NH2 ARG D 692      16.354 -11.872  34.048  1.00 64.68 LIG-0.23  N 
ATOM     42 1HH1 ARG D 692      13.308 -11.889  34.500  1.00 46.48 LIG 0.17  HD
ATOM     43 2HH1 ARG D 692      14.042 -12.012  33.209  1.00 46.48 LIG 0.17  HD
ATOM     44 1HH2 ARG D 692      17.099 -11.797  34.471  1.00 64.68 LIG 0.17  HD
ATOM     45 2HH2 ARG D 692      16.352 -11.956  33.193  1.00 64.68 LIG 0.17  HD
ENDBRANCH 36 37
ENDBRANCH 35 36
ENDBRANCH 34 35
ENDBRANCH 1 34
BRANCH 1 46
ATOM     46  N   ARG D 692      11.798 -11.967  40.385  1.00 43.06 LIG-0.35  N 
ATOM     47  C   HIS D 691      11.528 -10.831  41.004  1.00 44.11 LIG 0.24  C 
ATOM     48 O    HIS D 691      11.479  -9.750  40.435  1.00 43.39 LIG-0.27  OA
ATOM     49 H    ARG D 692      11.859 -12.727  40.783  1.00 43.06 LIG 0.16  HD
BRANCH 47 50
ATOM     50  CA  HIS D 691      11.279 -10.946  42.459  1.00 41.80 LIG 0.18  C 
BRANCH 50 51
ATOM     51  CB  HIS D 691      11.382  -9.561  43.001  1.00 51.00 LIG 0.10  C 
BRANCH 51 52
ATOM     52  CG  HIS D 691      12.750  -9.148  43.354  1.00 57.86 LIG 0.06  A 
ATOM     53 ND1  HIS D 691      13.325  -9.498  44.491  1.00 60.60 LIG-0.24  NA
ATOM     54  CE1 HIS D 691      14.549  -8.981  44.541  1.00 72.50 LIG 0.23  A 
ATOM     55 NE2  HIS D 691      14.749  -8.276  43.432  1.00 67.35 LIG-0.25  NA
ATOM     56  CD2 HIS D 691      13.659  -8.353  42.681  1.00 66.29 LIG 0.14  A 
ENDBRANCH 51 52
ENDBRANCH 50 51
BRANCH 50 57
ATOM     57  N   HIS D 691      12.274 -11.781  43.094  1.00 39.94 LIG-0.35  N 
ATOM     58 H    HIS D 691      12.900 -11.340  43.485  1.00 39.94 LIG 0.16  HD
ATOM     59  C   LEU D 690      12.222 -13.103  43.072  1.00 35.88 LIG 0.24  C 
ATOM     60 O    LEU D 690      11.299 -13.742  42.522  1.00 34.66 LIG-0.27  OA
BRANCH 59 61
ATOM     61  CA  LEU D 690      13.383 -13.836  43.703  1.00 33.43 LIG 0.18  C 
BRANCH 61 62
ATOM     62  CB  LEU D 690      13.240 -13.814  45.226  1.00 31.34 LIG 0.04  C 
BRANCH 62 63
ATOM     63  CG  LEU D 690      14.382 -14.434  46.025  1.00 30.93 LIG-0.02  C 
ATOM     64  CD1 LEU D 690      15.012 -15.569  45.234  1.00 30.90 LIG 0.01  C 
ATOM     65  CD2 LEU D 690      15.430 -13.378  46.322  1.00 28.62 LIG 0.01  C 
ENDBRANCH 62 63
ENDBRANCH 61 62
BRANCH 61 66
ATOM     66  N   LEU D 690      14.663 -13.241  43.314  1.00 35.22 LIG-0.35  N 
ATOM     67 H    LEU D 690      15.075 -12.836  43.951  1.00 35.22 LIG 0.16  HD
ATOM     68  C   ILE D 689      15.128 -13.333  42.074  1.00 41.04 LIG 0.26  C 
ATOM     69 O    ILE D 689      14.543 -13.970  41.185  1.00 39.56 LIG-0.27  OA
BRANCH 68 70
ATOM     70  CA  ILE D 689      16.481 -12.639  41.811  1.00 40.35 LIG 0.40  C 
ATOM     71  N   ILE D 689      17.031 -12.940  40.431  1.00 40.45 LIG 0.61  N 
BRANCH 70 72
ATOM     72  CB  ILE D 689      16.279 -11.121  42.044  1.00 42.26 LIG 0.03  C 
ATOM     73  CG2 ILE D 689      17.338 -10.572  43.018  1.00 38.55 LIG 0.01  C 
BRANCH 72 74
ATOM     74  CG1 ILE D 689      16.272 -10.346  40.723  1.00 45.91 LIG 0.00  C 
ATOM     75  CD1 ILE D 689      15.009 -10.538  39.885  1.00 45.96 LIG 0.01  C 
ENDBRANCH 72 74
ENDBRANCH 70 72
ENDBRANCH 68 70
ENDBRANCH 61 66
ENDBRANCH 59 61
ENDBRANCH 50 57
ENDBRANCH 47 50
ENDBRANCH 1 46
TORSDOF 30
ENDMDL
MODEL 54
USER: ADFR SOLUTION from run 2
USER: SCORE 22.604724 LL:  -8.555 LR: -14.945 RR:   0.000 FEB:  -5.996
USER: RMSD 6.124501
USER: SEED 980314
USER: STATUS searching
USER: GENES 32
USER: genes 0 Translation |==|  0.52799 0.71812 0.33795
USER: genes 1 Rotation |==|  0.00867 0.42771 0.49251 0.55757
USER: genes 2 Torsion [N]-CA--C-[N] |==|  0.95443
USER: genes 3 Torsion [C]-N--CA-[C] |==|  0.80788
USER: genes 4 Torsion [N]-CA--C-[N] |==|  0.96561
USER: genes 5 Torsion [C]-N--CA-[C] |==|  0.19600
USER: genes 6 Torsion [N]-CA--C-[N] |==|  0.01656
USER: genes 7 Torsion [C]-N--CA-[CB] |==|  0.80963
USER: genes 8 Torsion [N]-CA--CB-[CG] |==|  0.80050
USER: genes 9 Torsion [CA]-CB--CG-[CD] |==|  0.24950
USER: genes 10 Torsion [CB]-CG--CD-[NE2] |==|  0.51646
USER: genes 11 Torsion [N]-CA--C-[O] |==|  0.98224
USER: genes 12 Torsion [N]-CA--CB-[CG] |==|  0.85297
USER: genes 13 Torsion [CA]-CB--CG-[CD2] |==|  0.64809
USER: genes 14 Torsion [N]-CA--CB-[CG] |==|  0.22539
USER: genes 15 Torsion [CA]-CB--CG-[CD1] |==|  0.52619
USER: genes 16 Torsion [C]-CA--CB-[CG] |==|  0.86979
USER: genes 17 Torsion [CA]-CB--CG-[CD] |==|  0.78086
USER: genes 18 Torsion [CB]-CG--CD-[NE] |==|  0.69121
USER: genes 19 Torsion [CG]-CD--NE-[CZ] |==|  0.37742
USER: genes 20 Torsion [C]-CA--N-[C] |==|  0.85362
USER: genes 21 Torsion [N]-C--CA-[N] |==|  0.90841
USER: genes 22 Torsion [C]-CA--CB-[CG] |==|  0.21686
USER: genes 23 Torsion [CA]-CB--CG-[ND1] |==|  0.04757
USER: genes 24 Torsion [C]-CA--N-[C] |==|  0.84806
USER: genes 25 Torsion [N]-C--CA-[N] |==|  0.08353
USER: genes 26 Torsion [C]-CA--CB-[CG] |==|  0.30243
USER: genes 27 Torsion [CA]-CB--CG-[CD2] |==|  0.12483
USER: genes 28 Torsion [C]-CA--N-[C] |==|  0.16835
USER: genes 29 Torsion [N]-C--CA-[N] |==|  0.86880
USER: genes 30 Torsion [C]-CA--CB-[CG1] |==|  0.10804
USER: genes 31 Torsion [CA]-CB--CG1-[CD1] |==|  0.50823
ROOT
ATOM      1  CA  ARG D 692      10.233 -10.912  35.759  1.00 48.73 LIG 0.18  C 
ENDROOT
BRANCH 1 2
ATOM      2  C   ARG D 692       9.363 -12.031  35.211  1.00 46.10 LIG 0.24  C 
ATOM      3  N   LEU D 693       9.550 -13.257  35.694  1.00 50.64 LIG-0.35  N 
ATOM      4 H    LEU D 693      10.113 -13.466  36.309  1.00 50.64 LIG 0.16  HD
ATOM      5 O    ARG D 692       8.581 -11.813  34.286  1.00 52.04 LIG-0.27  OA
BRANCH 3 6
ATOM      6  CA  LEU D 693       8.750 -14.365  35.163  1.00 43.34 LIG 0.18  C 
BRANCH 6 7
ATOM      7  C   LEU D 693       7.284 -14.258  35.564  1.00 37.95 LIG 0.24  C 
ATOM      8  N   LEU D 694       6.998 -13.378  36.501  1.00 39.22 LIG-0.35  N 
ATOM      9 H    LEU D 694       7.591 -12.913  36.914  1.00 39.22 LIG 0.16  HD
ATOM     10 O    LEU D 693       6.438 -14.992  35.040  1.00 43.86 LIG-0.27  OA
BRANCH 8 11
ATOM     11  CA  LEU D 694       5.647 -13.113  36.924  1.00 38.59 LIG 0.18  C 
BRANCH 11 12
ATOM     12  C   LEU D 694       5.141 -14.296  37.683  1.00 46.22 LIG 0.24  C 
ATOM     13  N   GLN D 695       6.037 -15.239  37.908  1.00 66.87 LIG-0.35  N 
ATOM     14 H    GLN D 695       6.822 -15.198  37.560  1.00 66.87 LIG 0.16  HD
ATOM     15 O    LEU D 694       3.978 -14.358  37.987  1.00 54.70 LIG-0.27  OA
BRANCH 13 16
ATOM     16  CA  GLN D 695       5.869 -16.442  38.734  1.00 62.86 LIG 0.16  C 
BRANCH 16 17
ATOM     17  CB  GLN D 695       5.755 -16.081  40.189  1.00 63.26 LIG 0.04  C 
BRANCH 17 18
ATOM     18  CG  GLN D 695       7.075 -15.623  40.748  1.00 77.24 LIG 0.10  C 
BRANCH 18 19
ATOM     19  CD  GLN D 695       7.275 -14.168  40.613  1.00 84.08 LIG 0.21  C 
ATOM     20 OE1  GLN D 695       6.374 -13.459  40.211  1.00 83.40 LIG-0.27  OA
ATOM     21  NE2 GLN D 695       8.455 -13.696  40.967  1.00 79.17 LIG-0.37  N 
ATOM     22 22HE GLN D 695       8.613 -12.852  40.918  1.00 79.17 LIG 0.16  HD
ATOM     23 21HE GLN D 695       9.067 -14.232  41.246  1.00 79.17 LIG 0.16  HD
ENDBRANCH 18 19
ENDBRANCH 17 18
ENDBRANCH 16 17
BRANCH 16 24
ATOM     24  C   GLN D 695       4.767 -17.413  38.313  1.00 61.14 LIG 0.22  C 
ATOM     25 O    GLN D 695       3.987 -17.128  37.400  1.00 66.66 LIG-0.29  OA
ENDBRANCH 16 24
ENDBRANCH 13 16
ENDBRANCH 11 12
BRANCH 11 26
ATOM     26  CB  LEU D 694       4.729 -12.900  35.739  1.00 34.51 LIG 0.04  C 
BRANCH 26 27
ATOM     27  CG  LEU D 694       5.080 -11.886  34.679  1.00 27.71 LIG-0.02  C 
ATOM     28  CD2 LEU D 694       3.981 -10.899  34.419  1.00 26.48 LIG 0.01  C 
ATOM     29  CD1 LEU D 694       5.590 -12.505  33.410  1.00 27.00 LIG 0.01  C 
ENDBRANCH 26 27
ENDBRANCH 11 26
ENDBRANCH 8 11
ENDBRANCH 6 7
BRANCH 6 30
ATOM     30  CB  LEU D 693       9.324 -15.737  35.556  1.00 45.67 LIG 0.04  C 
BRANCH 30 31
ATOM     31  CG  LEU D 693       8.971 -16.234  36.967  1.00 55.29 LIG-0.02  C 
ATOM     32  CD1 LEU D 693       9.776 -17.476  37.323  1.00 47.80 LIG 0.01  C 
ATOM     33  CD2 LEU D 693       9.132 -15.135  38.028  1.00 51.02 LIG 0.01  C 
ENDBRANCH 30 31
ENDBRANCH 6 30
ENDBRANCH 3 6
ENDBRANCH 1 2
BRANCH 1 34
ATOM     34  CB  ARG D 692      11.197 -10.450  34.646  1.00 49.09 LIG 0.04  C 
BRANCH 34 35
ATOM     35  CG  ARG D 692      11.866 -11.651  33.949  1.00 50.62 LIG 0.02  C 
BRANCH 35 36
ATOM     36  CD  ARG D 692      13.024 -12.267  34.720  1.00 57.04 LIG 0.14  C 
BRANCH 36 37
ATOM     37  NE  ARG D 692      14.267 -12.003  34.021  1.00 60.90 LIG-0.23  N 
ATOM     38 HE   ARG D 692      14.275 -12.112  33.168  1.00 60.90 LIG 0.18  HD
ATOM     39  CZ  ARG D 692      15.392 -11.608  34.599  1.00 61.50 LIG 0.67  C 
ATOM     40  NH1 ARG D 692      15.469 -11.509  35.924  1.00 46.48 LIG-0.23  N 
ATOM     41  NH2 ARG D 692      16.454 -11.355  33.845  1.00 64.68 LIG-0.23  N 
ATOM     42 1HH1 ARG D 692      14.787 -11.703  36.411  1.00 46.48 LIG 0.17  HD
ATOM     43 2HH1 ARG D 692      16.202 -11.252  36.294  1.00 46.48 LIG 0.17  HD
ATOM     44 1HH2 ARG D 692      16.408 -11.449  32.991  1.00 64.68 LIG 0.17  HD
ATOM     45 2HH2 ARG D 692      17.189 -11.098  34.210  1.00 64.68 LIG 0.17  HD
ENDBRANCH 36 37
ENDBRANCH 35 36
ENDBRANCH 34 35
ENDBRANCH 1 34
BRANCH 1 46
ATOM     46  N   ARG D 692      10.935 -11.209  37.030  1.00 43.06 LIG-0.35  N 
ATOM     47  C   HIS D 691      10.292 -11.652  38.097  1.00 44.11 LIG 0.24  C 
ATOM     48 O    HIS D 691       9.081 -11.816  38.131  1.00 43.39 LIG-0.27  OA
ATOM     49 H    ARG D 692      11.783 -11.067  37.007  1.00 43.06 LIG 0.16  HD
BRANCH 47 50
ATOM     50  CA  HIS D 691      11.142 -11.951  39.271  1.00 41.80 LIG 0.18  C 
BRANCH 50 51
ATOM     51  CB  HIS D 691      11.303 -10.659  39.997  1.00 51.00 LIG 0.10  C 
BRANCH 51 52
ATOM     52  CG  HIS D 691      10.139 -10.271  40.811  1.00 57.86 LIG 0.06  A 
ATOM     53 ND1  HIS D 691       9.198 -11.132  41.157  1.00 60.60 LIG-0.24  NA
ATOM     54  CE1 HIS D 691       8.275 -10.505  41.881  1.00 72.50 LIG 0.23  A 
ATOM     55 NE2  HIS D 691       8.622  -9.225  41.980  1.00 67.35 LIG-0.25  NA
ATOM     56  CD2 HIS D 691       9.763  -9.046  41.327  1.00 66.29 LIG 0.14  A 
ENDBRANCH 51 52
ENDBRANCH 50 51
BRANCH 50 57
ATOM     57  N   HIS D 691      12.442 -12.434  38.863  1.00 39.94 LIG-0.35  N 
ATOM     58 H    HIS D 691      13.099 -11.987  39.194  1.00 39.94 LIG 0.16  HD
ATOM     59  C   LEU D 690      12.602 -13.469  38.055  1.00 35.88 LIG 0.24  C 
ATOM     60 O    LEU D 690      11.648 -14.131  37.593  1.00 34.66 LIG-0.27  OA
BRANCH 59 61
ATOM     61  CA  LEU D 690      14.021 -13.797  37.650  1.00 33.43 LIG 0.18  C 
BRANCH 61 62
ATOM     62  CB  LEU D 690      14.140 -15.292  37.349  1.00 31.34 LIG 0.04  C 
BRANCH 62 63
ATOM     63  CG  LEU D 690      14.320 -15.679  35.885  1.00 30.93 LIG-0.02  C 
ATOM     64  CD1 LEU D 690      12.997 -15.548  35.147  1.00 30.90 LIG 0.01  C 
ATOM     65  CD2 LEU D 690      15.354 -14.774  35.242  1.00 28.62 LIG 0.01  C 
ENDBRANCH 62 63
ENDBRANCH 61 62
BRANCH 61 66
ATOM     66  N   LEU D 690      14.973 -13.422  38.697  1.00 35.22 LIG-0.35  N 
ATOM     67 H    LEU D 690      15.557 -12.839  38.453  1.00 35.22 LIG 0.16  HD
ATOM     68  C   ILE D 689      14.919 -13.951  39.914  1.00 41.04 LIG 0.26  C 
ATOM     69 O    ILE D 689      14.034 -14.747  40.258  1.00 39.56 LIG-0.27  OA
BRANCH 68 70
ATOM     70  CA  ILE D 689      16.003 -13.471  40.903  1.00 40.35 LIG 0.40  C 
ATOM     71  N   ILE D 689      17.393 -13.491  40.297  1.00 40.45 LIG 0.61  N 
BRANCH 70 72
ATOM     72  CB  ILE D 689      15.596 -12.059  41.390  1.00 42.26 LIG 0.03  C 
ATOM     73  CG2 ILE D 689      16.104 -10.977  40.419  1.00 38.55 LIG 0.01  C 
BRANCH 72 74
ATOM     74  CG1 ILE D 689      14.084 -11.953  41.610  1.00 45.91 LIG 0.00  C 
ATOM     75  CD1 ILE D 689      13.601 -10.564  42.025  1.00 45.96 LIG 0.01  C 
ENDBRANCH 72 74
ENDBRANCH 70 72
ENDBRANCH 68 70
ENDBRANCH 61 66
ENDBRANCH 59 61
ENDBRANCH 50 57
ENDBRANCH 47 50
ENDBRANCH 1 46
TORSDOF 30
ENDMDL
MODEL 55
USER: ADFR SOLUTION from run 52
USER: SCORE 21.139259 LL:  -6.689 LR: -14.907 RR:   0.000 FEB:  -5.958
USER: RMSD 5.863600
USER: SEED 51
USER: STATUS no improvement in best in 30 clusters for 5 generations
USER: GENES 32
USER: genes 0 Translation |==|  0.53091 0.67526 0.33006
USER: genes 1 Rotation |==|  0.03523 0.63790 0.61397 0.54455
USER: genes 2 Torsion [N]-CA--C-[N] |==|  0.94758
USER: genes 3 Torsion [C]-N--CA-[C] |==|  0.62932
USER: genes 4 Torsion [N]-CA--C-[N] |==|  0.44822
USER: genes 5 Torsion [C]-N--CA-[C] |==|  0.78890
USER: genes 6 Torsion [N]-CA--C-[N] |==|  0.88654
USER: genes 7 Torsion [C]-N--CA-[CB] |==|  0.26997
USER: genes 8 Torsion [N]-CA--CB-[CG] |==|  0.37608
USER: genes 9 Torsion [CA]-CB--CG-[CD] |==|  0.69360
USER: genes 10 Torsion [CB]-CG--CD-[NE2] |==|  0.87156
USER: genes 11 Torsion [N]-CA--C-[O] |==|  0.02024
USER: genes 12 Torsion [N]-CA--CB-[CG] |==|  0.08287
USER: genes 13 Torsion [CA]-CB--CG-[CD2] |==|  0.71990
USER: genes 14 Torsion [N]-CA--CB-[CG] |==|  0.75119
USER: genes 15 Torsion [CA]-CB--CG-[CD1] |==|  0.87271
USER: genes 16 Torsion [C]-CA--CB-[CG] |==|  0.41201
USER: genes 17 Torsion [CA]-CB--CG-[CD] |==|  0.09339
USER: genes 18 Torsion [CB]-CG--CD-[NE] |==|  0.34423
USER: genes 19 Torsion [CG]-CD--NE-[CZ] |==|  0.53498
USER: genes 20 Torsion [C]-CA--N-[C] |==|  0.82935
USER: genes 21 Torsion [N]-C--CA-[N] |==|  0.41338
USER: genes 22 Torsion [C]-CA--CB-[CG] |==|  0.17119
USER: genes 23 Torsion [CA]-CB--CG-[ND1] |==|  0.10549
USER: genes 24 Torsion [C]-CA--N-[C] |==|  0.79689
USER: genes 25 Torsion [N]-C--CA-[N] |==|  0.34463
USER: genes 26 Torsion [C]-CA--CB-[CG] |==|  0.27280
USER: genes 27 Torsion [CA]-CB--CG-[CD2] |==|  0.10643
USER: genes 28 Torsion [C]-CA--N-[C] |==|  0.62222
USER: genes 29 Torsion [N]-C--CA-[N] |==|  0.88676
USER: genes 30 Torsion [C]-CA--CB-[CG1] |==|  0.52883
USER: genes 31 Torsion [CA]-CB--CG1-[CD1] |==|  0.60256
ROOT
ATOM      1  CA  ARG D 692      10.298 -11.716  35.605  1.00 48.73 LIG 0.18  C 
ENDROOT
BRANCH 1 2
ATOM      2  C   ARG D 692       8.809 -11.837  35.882  1.00 46.10 LIG 0.24  C 
ATOM      3  N   LEU D 693       8.383 -12.923  36.522  1.00 50.64 LIG-0.35  N 
ATOM      4 H    LEU D 693       8.886 -13.558  36.810  1.00 50.64 LIG 0.16  HD
ATOM      5 O    ARG D 692       8.026 -10.997  35.442  1.00 52.04 LIG-0.27  OA
BRANCH 3 6
ATOM      6  CA  LEU D 693       6.948 -13.087  36.776  1.00 43.34 LIG 0.18  C 
BRANCH 6 7
ATOM      7  C   LEU D 693       6.664 -13.510  38.211  1.00 37.95 LIG 0.24  C 
ATOM      8  N   LEU D 694       5.434 -13.318  38.643  1.00 39.22 LIG-0.35  N 
ATOM      9 H    LEU D 694       4.822 -12.933  38.179  1.00 39.22 LIG 0.16  HD
ATOM     10 O    LEU D 693       7.566 -13.978  38.915  1.00 43.86 LIG-0.27  OA
BRANCH 8 11
ATOM     11  CA  LEU D 694       5.001 -13.741  39.949  1.00 38.59 LIG 0.18  C 
BRANCH 11 12
ATOM     12  C   LEU D 694       4.798 -15.222  39.932  1.00 46.22 LIG 0.24  C 
ATOM     13  N   GLN D 695       4.222 -15.692  38.841  1.00 66.87 LIG-0.35  N 
ATOM     14 H    GLN D 695       3.914 -15.163  38.237  1.00 66.87 LIG 0.16  HD
ATOM     15 O    LEU D 694       5.100 -15.878  40.894  1.00 54.70 LIG-0.27  OA
BRANCH 13 16
ATOM     16  CA  GLN D 695       4.017 -17.102  38.485  1.00 62.86 LIG 0.16  C 
BRANCH 16 17
ATOM     17  CB  GLN D 695       2.628 -17.550  38.850  1.00 63.26 LIG 0.04  C 
BRANCH 17 18
ATOM     18  CG  GLN D 695       2.000 -18.354  37.743  1.00 77.24 LIG 0.10  C 
BRANCH 18 19
ATOM     19  CD  GLN D 695       0.895 -17.641  37.079  1.00 84.08 LIG 0.21  C 
ATOM     20 OE1  GLN D 695       0.814 -17.627  35.866  1.00 83.40 LIG-0.27  OA
ATOM     21  NE2 GLN D 695       0.012 -17.052  37.863  1.00 79.17 LIG-0.37  N 
ATOM     22 22HE GLN D 695      -0.657 -16.635  37.519  1.00 79.17 LIG 0.16  HD
ATOM     23 21HE GLN D 695       0.106 -17.085  38.717  1.00 79.17 LIG 0.16  HD
ENDBRANCH 18 19
ENDBRANCH 17 18
ENDBRANCH 16 17
BRANCH 16 24
ATOM     24  C   GLN D 695       4.374 -17.508  37.056  1.00 61.14 LIG 0.22  C 
ATOM     25 O    GLN D 695       4.934 -16.715  36.294  1.00 66.66 LIG-0.29  OA
ENDBRANCH 16 24
ENDBRANCH 13 16
ENDBRANCH 11 12
BRANCH 11 26
ATOM     26  CB  LEU D 694       3.683 -13.101  40.329  1.00 34.51 LIG 0.04  C 
BRANCH 26 27
ATOM     27  CG  LEU D 694       2.682 -12.733  39.262  1.00 27.71 LIG-0.02  C 
ATOM     28  CD2 LEU D 694       2.693 -11.274  38.919  1.00 26.48 LIG 0.01  C 
ATOM     29  CD1 LEU D 694       1.295 -13.232  39.550  1.00 27.00 LIG 0.01  C 
ENDBRANCH 26 27
ENDBRANCH 11 26
ENDBRANCH 8 11
ENDBRANCH 6 7
BRANCH 6 30
ATOM     30  CB  LEU D 693       6.289 -14.058  35.781  1.00 45.67 LIG 0.04  C 
BRANCH 30 31
ATOM     31  CG  LEU D 693       5.740 -13.427  34.491  1.00 55.29 LIG-0.02  C 
ATOM     32  CD1 LEU D 693       4.944 -12.166  34.799  1.00 47.80 LIG 0.01  C 
ATOM     33  CD2 LEU D 693       6.844 -13.159  33.458  1.00 51.02 LIG 0.01  C 
ENDBRANCH 30 31
ENDBRANCH 6 30
ENDBRANCH 3 6
ENDBRANCH 1 2
BRANCH 1 34
ATOM     34  CB  ARG D 692      10.533 -11.913  34.093  1.00 49.09 LIG 0.04  C 
BRANCH 34 35
ATOM     35  CG  ARG D 692      11.739 -11.088  33.600  1.00 50.62 LIG 0.02  C 
BRANCH 35 36
ATOM     36  CD  ARG D 692      12.863 -10.940  34.614  1.00 57.04 LIG 0.14  C 
BRANCH 36 37
ATOM     37  NE  ARG D 692      14.103 -11.423  34.037  1.00 60.90 LIG-0.23  N 
ATOM     38 HE   ARG D 692      14.118 -11.568  33.189  1.00 60.90 LIG 0.18  HD
ATOM     39  CZ  ARG D 692      15.214 -11.657  34.719  1.00 61.50 LIG 0.67  C 
ATOM     40  NH1 ARG D 692      15.229 -11.540  36.045  1.00 46.48 LIG-0.23  N 
ATOM     41  NH2 ARG D 692      16.300 -12.057  34.070  1.00 64.68 LIG-0.23  N 
ATOM     42 1HH1 ARG D 692      14.513 -11.310  36.464  1.00 46.48 LIG 0.17  HD
ATOM     43 2HH1 ARG D 692      15.953 -11.694  36.483  1.00 46.48 LIG 0.17  HD
ATOM     44 1HH2 ARG D 692      16.279 -12.160  33.217  1.00 64.68 LIG 0.17  HD
ATOM     45 2HH2 ARG D 692      17.027 -12.212  34.503  1.00 64.68 LIG 0.17  HD
ENDBRANCH 36 37
ENDBRANCH 35 36
ENDBRANCH 34 35
ENDBRANCH 1 34
BRANCH 1 46
ATOM     46  N   ARG D 692      11.178 -12.576  36.432  1.00 43.06 LIG-0.35  N 
ATOM     47  C   HIS D 691      11.228 -12.462  37.749  1.00 44.11 LIG 0.24  C 
ATOM     48 O    HIS D 691      10.593 -11.627  38.376  1.00 43.39 LIG-0.27  OA
ATOM     49 H    ARG D 692      11.641 -13.144  35.982  1.00 43.06 LIG 0.16  HD
BRANCH 47 50
ATOM     50  CA  HIS D 691      12.115 -13.429  38.435  1.00 41.80 LIG 0.18  C 
BRANCH 50 51
ATOM     51  CB  HIS D 691      11.249 -14.584  38.804  1.00 51.00 LIG 0.10  C 
BRANCH 51 52
ATOM     52  CG  HIS D 691      10.637 -15.275  37.657  1.00 57.86 LIG 0.06  A 
ATOM     53 ND1  HIS D 691      11.280 -15.465  36.518  1.00 60.60 LIG-0.24  NA
ATOM     54  CE1 HIS D 691      10.485 -16.107  35.668  1.00 72.50 LIG 0.23  A 
ATOM     55 NE2  HIS D 691       9.314 -16.310  36.264  1.00 67.35 LIG-0.25  NA
ATOM     56  CD2 HIS D 691       9.372 -15.806  37.489  1.00 66.29 LIG 0.14  A 
ENDBRANCH 51 52
ENDBRANCH 50 51
BRANCH 50 57
ATOM     57  N   HIS D 691      12.682 -12.855  39.635  1.00 39.94 LIG-0.35  N 
ATOM     58 H    HIS D 691      12.345 -13.166  40.362  1.00 39.94 LIG 0.16  HD
ATOM     59  C   LEU D 690      13.633 -11.935  39.611  1.00 35.88 LIG 0.24  C 
ATOM     60 O    LEU D 690      14.137 -11.500  38.553  1.00 34.66 LIG-0.27  OA
BRANCH 59 61
ATOM     61  CA  LEU D 690      14.059 -11.369  40.945  1.00 33.43 LIG 0.18  C 
BRANCH 61 62
ATOM     62  CB  LEU D 690      13.680  -9.889  41.023  1.00 31.34 LIG 0.04  C 
BRANCH 62 63
ATOM     63  CG  LEU D 690      12.388  -9.555  41.762  1.00 30.93 LIG-0.02  C 
ATOM     64  CD1 LEU D 690      11.197  -9.750  40.836  1.00 30.90 LIG 0.01  C 
ATOM     65  CD2 LEU D 690      12.245 -10.457  42.973  1.00 28.62 LIG 0.01  C 
ENDBRANCH 62 63
ENDBRANCH 61 62
BRANCH 61 66
ATOM     66  N   LEU D 690      15.499 -11.526  41.155  1.00 35.22 LIG-0.35  N 
ATOM     67 H    LEU D 690      15.981 -11.330  40.470  1.00 35.22 LIG 0.16  HD
ATOM     68  C   ILE D 689      15.996 -11.938  42.315  1.00 41.04 LIG 0.26  C 
ATOM     69 O    ILE D 689      15.284 -12.161  43.306  1.00 39.56 LIG-0.27  OA
BRANCH 68 70
ATOM     70  CA  ILE D 689      17.532 -12.074  42.377  1.00 40.35 LIG 0.40  C 
ATOM     71  N   ILE D 689      18.114 -12.673  41.113  1.00 40.45 LIG 0.61  N 
BRANCH 70 72
ATOM     72  CB  ILE D 689      18.112 -10.672  42.683  1.00 42.26 LIG 0.03  C 
ATOM     73  CG2 ILE D 689      17.689 -10.199  44.086  1.00 38.55 LIG 0.01  C 
BRANCH 72 74
ATOM     74  CG1 ILE D 689      19.634 -10.643  42.515  1.00 45.91 LIG 0.00  C 
ATOM     75  CD1 ILE D 689      20.366  -9.770  43.532  1.00 45.96 LIG 0.01  C 
ENDBRANCH 72 74
ENDBRANCH 70 72
ENDBRANCH 68 70
ENDBRANCH 61 66
ENDBRANCH 59 61
ENDBRANCH 50 57
ENDBRANCH 47 50
ENDBRANCH 1 46
TORSDOF 30
ENDMDL
MODEL 56
USER: ADFR SOLUTION from run 136
USER: SCORE 20.918664 LL:  -6.752 LR: -14.899 RR:   0.000 FEB:  -5.950
USER: RMSD 6.848666
USER: SEED 135
USER: STATUS no improvement in best in 49 clusters for 5 generations
USER: GENES 32
USER: genes 0 Translation |==|  0.53046 0.69267 0.33345
USER: genes 1 Rotation |==|  0.02043 0.55503 0.61048 0.56917
USER: genes 2 Torsion [N]-CA--C-[N] |==|  0.91329
USER: genes 3 Torsion [C]-N--CA-[C] |==|  0.53063
USER: genes 4 Torsion [N]-CA--C-[N] |==|  0.43801
USER: genes 5 Torsion [C]-N--CA-[C] |==|  0.61111
USER: genes 6 Torsion [N]-CA--C-[N] |==|  0.36936
USER: genes 7 Torsion [C]-N--CA-[CB] |==|  0.10469
USER: genes 8 Torsion [N]-CA--CB-[CG] |==|  0.41164
USER: genes 9 Torsion [CA]-CB--CG-[CD] |==|  0.52182
USER: genes 10 Torsion [CB]-CG--CD-[NE2] |==|  0.54463
USER: genes 11 Torsion [N]-CA--C-[O] |==|  0.82637
USER: genes 12 Torsion [N]-CA--CB-[CG] |==|  0.01252
USER: genes 13 Torsion [CA]-CB--CG-[CD2] |==|  0.55449
USER: genes 14 Torsion [N]-CA--CB-[CG] |==|  0.63512
USER: genes 15 Torsion [CA]-CB--CG-[CD1] |==|  0.97197
USER: genes 16 Torsion [C]-CA--CB-[CG] |==|  0.62638
USER: genes 17 Torsion [CA]-CB--CG-[CD] |==|  0.79880
USER: genes 18 Torsion [CB]-CG--CD-[NE] |==|  0.54397
USER: genes 19 Torsion [CG]-CD--NE-[CZ] |==|  0.63565
USER: genes 20 Torsion [C]-CA--N-[C] |==|  0.76814
USER: genes 21 Torsion [N]-C--CA-[N] |==|  0.90214
USER: genes 22 Torsion [C]-CA--CB-[CG] |==|  0.34645
USER: genes 23 Torsion [CA]-CB--CG-[ND1] |==|  0.62236
USER: genes 24 Torsion [C]-CA--N-[C] |==|  0.84642
USER: genes 25 Torsion [N]-C--CA-[N] |==|  0.93469
USER: genes 26 Torsion [C]-CA--CB-[CG] |==|  0.29129
USER: genes 27 Torsion [CA]-CB--CG-[CD2] |==|  0.12383
USER: genes 28 Torsion [C]-CA--N-[C] |==|  0.83480
USER: genes 29 Torsion [N]-C--CA-[N] |==|  0.53847
USER: genes 30 Torsion [C]-CA--CB-[CG1] |==|  0.84847
USER: genes 31 Torsion [CA]-CB--CG1-[CD1] |==|  0.38684
ROOT
ATOM      1  CA  ARG D 692      10.288 -11.389  35.671  1.00 48.73 LIG 0.18  C 
ENDROOT
BRANCH 1 2
ATOM      2  C   ARG D 692       8.892 -11.981  35.769  1.00 46.10 LIG 0.24  C 
ATOM      3  N   LEU D 693       8.786 -13.295  35.953  1.00 50.64 LIG-0.35  N 
ATOM      4 H    LEU D 693       9.447 -13.838  36.040  1.00 50.64 LIG 0.16  HD
ATOM      5 O    ARG D 692       7.903 -11.272  35.590  1.00 52.04 LIG-0.27  OA
BRANCH 3 6
ATOM      6  CA  LEU D 693       7.454 -13.903  36.018  1.00 43.34 LIG 0.18  C 
BRANCH 6 7
ATOM      7  C   LEU D 693       7.505 -15.348  36.496  1.00 37.95 LIG 0.24  C 
ATOM      8  N   LEU D 694       6.395 -15.831  37.016  1.00 39.22 LIG-0.35  N 
ATOM      9 H    LEU D 694       5.684 -15.363  37.136  1.00 39.22 LIG 0.16  HD
ATOM     10 O    LEU D 693       8.554 -15.997  36.412  1.00 43.86 LIG-0.27  OA
BRANCH 8 11
ATOM     11  CA  LEU D 694       6.273 -17.202  37.436  1.00 38.59 LIG 0.18  C 
BRANCH 11 12
ATOM     12  C   LEU D 694       4.919 -17.704  37.052  1.00 46.22 LIG 0.24  C 
ATOM     13  N   GLN D 695       4.909 -18.884  36.460  1.00 66.87 LIG-0.35  N 
ATOM     14 H    GLN D 695       5.642 -19.276  36.240  1.00 66.87 LIG 0.16  HD
ATOM     15 O    LEU D 694       3.951 -17.014  37.239  1.00 54.70 LIG-0.27  OA
BRANCH 13 16
ATOM     16  CA  GLN D 695       3.732 -19.682  36.094  1.00 62.86 LIG 0.16  C 
BRANCH 16 17
ATOM     17  CB  GLN D 695       2.615 -18.797  35.609  1.00 63.26 LIG 0.04  C 
BRANCH 17 18
ATOM     18  CG  GLN D 695       1.776 -19.490  34.569  1.00 77.24 LIG 0.10  C 
BRANCH 18 19
ATOM     19  CD  GLN D 695       0.791 -18.591  33.942  1.00 84.08 LIG 0.21  C 
ATOM     20 OE1  GLN D 695       0.912 -17.385  34.037  1.00 83.40 LIG-0.27  OA
ATOM     21  NE2 GLN D 695      -0.192 -19.162  33.272  1.00 79.17 LIG-0.37  N 
ATOM     22 22HE GLN D 695      -0.783 -18.676  32.879  1.00 79.17 LIG 0.16  HD
ATOM     23 21HE GLN D 695      -0.242 -20.019  33.229  1.00 79.17 LIG 0.16  HD
ENDBRANCH 18 19
ENDBRANCH 17 18
ENDBRANCH 16 17
BRANCH 16 24
ATOM     24  C   GLN D 695       3.967 -20.852  35.141  1.00 61.14 LIG 0.22  C 
ATOM     25 O    GLN D 695       4.385 -20.663  33.996  1.00 66.66 LIG-0.29  OA
ENDBRANCH 16 24
ENDBRANCH 13 16
ENDBRANCH 11 12
BRANCH 11 26
ATOM     26  CB  LEU D 694       6.402 -17.334  38.939  1.00 34.51 LIG 0.04  C 
BRANCH 26 27
ATOM     27  CG  LEU D 694       6.528 -16.102  39.801  1.00 27.71 LIG-0.02  C 
ATOM     28  CD2 LEU D 694       7.102 -16.386  41.157  1.00 26.48 LIG 0.01  C 
ATOM     29  CD1 LEU D 694       5.259 -15.304  39.886  1.00 27.00 LIG 0.01  C 
ENDBRANCH 26 27
ENDBRANCH 11 26
ENDBRANCH 8 11
ENDBRANCH 6 7
BRANCH 6 30
ATOM     30  CB  LEU D 693       6.700 -13.797  34.681  1.00 45.67 LIG 0.04  C 
BRANCH 30 31
ATOM     31  CG  LEU D 693       5.257 -13.276  34.763  1.00 55.29 LIG-0.02  C 
ATOM     32  CD1 LEU D 693       4.787 -13.201  36.209  1.00 47.80 LIG 0.01  C 
ATOM     33  CD2 LEU D 693       5.083 -11.930  34.044  1.00 51.02 LIG 0.01  C 
ENDBRANCH 30 31
ENDBRANCH 6 30
ENDBRANCH 3 6
ENDBRANCH 1 2
BRANCH 1 34
ATOM     34  CB  ARG D 692      10.659 -11.253  34.180  1.00 49.09 LIG 0.04  C 
BRANCH 34 35
ATOM     35  CG  ARG D 692      12.089 -11.762  33.908  1.00 50.62 LIG 0.02  C 
BRANCH 35 36
ATOM     36  CD  ARG D 692      13.195 -10.856  34.429  1.00 57.04 LIG 0.14  C 
BRANCH 36 37
ATOM     37  NE  ARG D 692      14.454 -11.221  33.808  1.00 60.90 LIG-0.23  N 
ATOM     38 HE   ARG D 692      14.464 -11.313  32.953  1.00 60.90 LIG 0.18  HD
ATOM     39  CZ  ARG D 692      15.588 -11.425  34.461  1.00 61.50 LIG 0.67  C 
ATOM     40  NH1 ARG D 692      15.616 -11.387  35.792  1.00 46.48 LIG-0.23  N 
ATOM     41  NH2 ARG D 692      16.687 -11.712  33.776  1.00 64.68 LIG-0.23  N 
ATOM     42 1HH1 ARG D 692      14.894 -11.230  36.233  1.00 46.48 LIG 0.17  HD
ATOM     43 2HH1 ARG D 692      16.355 -11.521  36.210  1.00 46.48 LIG 0.17  HD
ATOM     44 1HH2 ARG D 692      16.658 -11.765  32.918  1.00 64.68 LIG 0.17  HD
ATOM     45 2HH2 ARG D 692      17.429 -11.846  34.190  1.00 64.68 LIG 0.17  HD
ENDBRANCH 36 37
ENDBRANCH 35 36
ENDBRANCH 34 35
ENDBRANCH 1 34
BRANCH 1 46
ATOM     46  N   ARG D 692      11.337 -12.084  36.455  1.00 43.06 LIG-0.35  N 
ATOM     47  C   HIS D 691      11.527 -11.838  37.740  1.00 44.11 LIG 0.24  C 
ATOM     48 O    HIS D 691      10.888 -11.005  38.366  1.00 43.39 LIG-0.27  OA
ATOM     49 H    ARG D 692      11.800 -12.651  36.003  1.00 43.06 LIG 0.16  HD
BRANCH 47 50
ATOM     50  CA  HIS D 691      12.578 -12.652  38.393  1.00 41.80 LIG 0.18  C 
BRANCH 50 51
ATOM     51  CB  HIS D 691      13.867 -11.967  38.094  1.00 51.00 LIG 0.10  C 
BRANCH 51 52
ATOM     52  CG  HIS D 691      14.663 -11.624  39.285  1.00 57.86 LIG 0.06  A 
ATOM     53 ND1  HIS D 691      15.255 -10.451  39.427  1.00 60.60 LIG-0.24  NA
ATOM     54  CE1 HIS D 691      15.901 -10.425  40.589  1.00 72.50 LIG 0.23  A 
ATOM     55 NE2  HIS D 691      15.736 -11.602  41.184  1.00 67.35 LIG-0.25  NA
ATOM     56  CD2 HIS D 691      14.983 -12.366  40.405  1.00 66.29 LIG 0.14  A 
ENDBRANCH 51 52
ENDBRANCH 50 51
BRANCH 50 57
ATOM     57  N   HIS D 691      12.612 -13.991  37.850  1.00 39.94 LIG-0.35  N 
ATOM     58 H    HIS D 691      13.383 -14.225  37.549  1.00 39.94 LIG 0.16  HD
ATOM     59  C   LEU D 690      11.551 -14.781  37.820  1.00 35.88 LIG 0.24  C 
ATOM     60 O    LEU D 690      10.437 -14.448  38.278  1.00 34.66 LIG-0.27  OA
BRANCH 59 61
ATOM     61  CA  LEU D 690      11.724 -16.119  37.140  1.00 33.43 LIG 0.18  C 
BRANCH 61 62
ATOM     62  CB  LEU D 690      11.979 -17.203  38.188  1.00 31.34 LIG 0.04  C 
BRANCH 62 63
ATOM     63  CG  LEU D 690      10.817 -18.141  38.495  1.00 30.93 LIG-0.02  C 
ATOM     64  CD1 LEU D 690       9.792 -17.430  39.366  1.00 30.90 LIG 0.01  C 
ATOM     65  CD2 LEU D 690      10.163 -18.585  37.200  1.00 28.62 LIG 0.01  C 
ENDBRANCH 62 63
ENDBRANCH 61 62
BRANCH 61 66
ATOM     66  N   LEU D 690      12.826 -16.088  36.176  1.00 35.22 LIG-0.35  N 
ATOM     67 H    LEU D 690      13.454 -16.654  36.337  1.00 35.22 LIG 0.16  HD
ATOM     68  C   ILE D 689      12.833 -15.249  35.148  1.00 41.04 LIG 0.26  C 
ATOM     69 O    ILE D 689      11.889 -14.481  34.905  1.00 39.56 LIG-0.27  OA
BRANCH 68 70
ATOM     70  CA  ILE D 689      14.072 -15.320  34.231  1.00 40.35 LIG 0.40  C 
ATOM     71  N   ILE D 689      14.172 -14.132  33.295  1.00 40.45 LIG 0.61  N 
BRANCH 70 72
ATOM     72  CB  ILE D 689      15.317 -15.458  35.141  1.00 42.26 LIG 0.03  C 
ATOM     73  CG2 ILE D 689      16.605 -15.524  34.298  1.00 38.55 LIG 0.01  C 
BRANCH 72 74
ATOM     74  CG1 ILE D 689      15.381 -14.335  36.180  1.00 45.91 LIG 0.00  C 
ATOM     75  CD1 ILE D 689      15.823 -14.786  37.572  1.00 45.96 LIG 0.01  C 
ENDBRANCH 72 74
ENDBRANCH 70 72
ENDBRANCH 68 70
ENDBRANCH 61 66
ENDBRANCH 59 61
ENDBRANCH 50 57
ENDBRANCH 47 50
ENDBRANCH 1 46
TORSDOF 30
ENDMDL
MODEL 57
USER: ADFR SOLUTION from run 44
USER: SCORE 21.586610 LL:  -7.847 LR: -14.871 RR:   0.000 FEB:  -5.922
USER: RMSD 5.755306
USER: SEED 43
USER: STATUS no improvement in best in 2 clusters for 5 generations
USER: GENES 32
USER: genes 0 Translation |==|  0.56630 0.66999 0.38470
USER: genes 1 Rotation |==|  0.09577 0.63141 0.74111 0.60582
USER: genes 2 Torsion [N]-CA--C-[N] |==|  0.13302
USER: genes 3 Torsion [C]-N--CA-[C] |==|  0.20694
USER: genes 4 Torsion [N]-CA--C-[N] |==|  0.67290
USER: genes 5 Torsion [C]-N--CA-[C] |==|  0.70465
USER: genes 6 Torsion [N]-CA--C-[N] |==|  0.05199
USER: genes 7 Torsion [C]-N--CA-[CB] |==|  0.11801
USER: genes 8 Torsion [N]-CA--CB-[CG] |==|  0.28038
USER: genes 9 Torsion [CA]-CB--CG-[CD] |==|  0.74543
USER: genes 10 Torsion [CB]-CG--CD-[NE2] |==|  0.51705
USER: genes 11 Torsion [N]-CA--C-[O] |==|  0.48541
USER: genes 12 Torsion [N]-CA--CB-[CG] |==|  0.01732
USER: genes 13 Torsion [CA]-CB--CG-[CD2] |==|  0.18746
USER: genes 14 Torsion [N]-CA--CB-[CG] |==|  0.74165
USER: genes 15 Torsion [CA]-CB--CG-[CD1] |==|  0.65308
USER: genes 16 Torsion [C]-CA--CB-[CG] |==|  0.53945
USER: genes 17 Torsion [CA]-CB--CG-[CD] |==|  0.88236
USER: genes 18 Torsion [CB]-CG--CD-[NE] |==|  0.42998
USER: genes 19 Torsion [CG]-CD--NE-[CZ] |==|  0.61134
USER: genes 20 Torsion [C]-CA--N-[C] |==|  0.16648
USER: genes 21 Torsion [N]-C--CA-[N] |==|  0.08333
USER: genes 22 Torsion [C]-CA--CB-[CG] |==|  0.26623
USER: genes 23 Torsion [CA]-CB--CG-[ND1] |==|  0.58388
USER: genes 24 Torsion [C]-CA--N-[C] |==|  0.16450
USER: genes 25 Torsion [N]-C--CA-[N] |==|  0.99852
USER: genes 26 Torsion [C]-CA--CB-[CG] |==|  0.91704
USER: genes 27 Torsion [CA]-CB--CG-[CD2] |==|  0.75586
USER: genes 28 Torsion [C]-CA--N-[C] |==|  0.75412
USER: genes 29 Torsion [N]-C--CA-[N] |==|  0.45072
USER: genes 30 Torsion [C]-CA--CB-[CG1] |==|  0.83545
USER: genes 31 Torsion [CA]-CB--CG1-[CD1] |==|  0.41587
ROOT
ATOM      1  CA  ARG D 692      11.095 -11.815  36.671  1.00 48.73 LIG 0.18  C 
ENDROOT
BRANCH 1 2
ATOM      2  C   ARG D 692       9.864 -12.093  37.518  1.00 46.10 LIG 0.24  C 
ATOM      3  N   LEU D 693      10.052 -12.560  38.751  1.00 50.64 LIG-0.35  N 
ATOM      4 H    LEU D 693      10.818 -12.700  39.116  1.00 50.64 LIG 0.16  HD
ATOM      5 O    ARG D 692       8.739 -11.974  37.036  1.00 52.04 LIG-0.27  OA
BRANCH 3 6
ATOM      6  CA  LEU D 693       8.886 -12.870  39.583  1.00 43.34 LIG 0.18  C 
BRANCH 6 7
ATOM      7  C   LEU D 693       8.197 -14.157  39.148  1.00 37.95 LIG 0.24  C 
ATOM      8  N   LEU D 694       6.952 -14.041  38.732  1.00 39.22 LIG-0.35  N 
ATOM      9 H    LEU D 694       6.515 -13.300  38.742  1.00 39.22 LIG 0.16  HD
ATOM     10 O    LEU D 693       8.790 -15.239  39.220  1.00 43.86 LIG-0.27  OA
BRANCH 8 11
ATOM     11  CA  LEU D 694       6.203 -15.157  38.218  1.00 38.59 LIG 0.18  C 
BRANCH 11 12
ATOM     12  C   LEU D 694       6.084 -15.013  36.735  1.00 46.22 LIG 0.24  C 
ATOM     13  N   GLN D 695       6.958 -14.191  36.183  1.00 66.87 LIG-0.35  N 
ATOM     14 H    GLN D 695       7.488 -13.717  36.666  1.00 66.87 LIG 0.16  HD
ATOM     15 O    LEU D 694       5.200 -15.580  36.149  1.00 54.70 LIG-0.27  OA
BRANCH 13 16
ATOM     16  CA  GLN D 695       7.168 -13.954  34.749  1.00 62.86 LIG 0.16  C 
BRANCH 16 17
ATOM     17  CB  GLN D 695       5.853 -13.852  34.025  1.00 63.26 LIG 0.04  C 
BRANCH 17 18
ATOM     18  CG  GLN D 695       5.484 -12.419  33.752  1.00 77.24 LIG 0.10  C 
BRANCH 18 19
ATOM     19  CD  GLN D 695       4.661 -11.830  34.824  1.00 84.08 LIG 0.21  C 
ATOM     20 OE1  GLN D 695       4.458 -12.446  35.852  1.00 83.40 LIG-0.27  OA
ATOM     21  NE2 GLN D 695       4.187 -10.617  34.611  1.00 79.17 LIG-0.37  N 
ATOM     22 22HE GLN D 695       3.712 -10.229  35.214  1.00 79.17 LIG 0.16  HD
ATOM     23 21HE GLN D 695       4.353 -10.215  33.869  1.00 79.17 LIG 0.16  HD
ENDBRANCH 18 19
ENDBRANCH 17 18
ENDBRANCH 16 17
BRANCH 16 24
ATOM     24  C   GLN D 695       8.099 -12.804  34.373  1.00 61.14 LIG 0.22  C 
ATOM     25 O    GLN D 695       8.407 -12.596  33.196  1.00 66.66 LIG-0.29  OA
ENDBRANCH 16 24
ENDBRANCH 13 16
ENDBRANCH 11 12
BRANCH 11 26
ATOM     26  CB  LEU D 694       4.802 -15.194  38.789  1.00 34.51 LIG 0.04  C 
BRANCH 26 27
ATOM     27  CG  LEU D 694       4.307 -14.065  39.659  1.00 27.71 LIG-0.02  C 
ATOM     28  CD2 LEU D 694       4.140 -12.775  38.914  1.00 26.48 LIG 0.01  C 
ATOM     29  CD1 LEU D 694       5.108 -13.887  40.917  1.00 27.00 LIG 0.01  C 
ENDBRANCH 26 27
ENDBRANCH 11 26
ENDBRANCH 8 11
ENDBRANCH 6 7
BRANCH 6 30
ATOM     30  CB  LEU D 693       7.883 -11.705  39.636  1.00 45.67 LIG 0.04  C 
BRANCH 30 31
ATOM     31  CG  LEU D 693       8.053 -10.724  40.806  1.00 55.29 LIG-0.02  C 
ATOM     32  CD1 LEU D 693       6.760 -10.594  41.599  1.00 47.80 LIG 0.01  C 
ATOM     33  CD2 LEU D 693       9.235 -11.099  41.713  1.00 51.02 LIG 0.01  C 
ENDBRANCH 30 31
ENDBRANCH 6 30
ENDBRANCH 3 6
ENDBRANCH 1 2
BRANCH 1 34
ATOM     34  CB  ARG D 692      10.633 -11.398  35.258  1.00 49.09 LIG 0.04  C 
BRANCH 34 35
ATOM     35  CG  ARG D 692      11.799 -11.440  34.251  1.00 50.62 LIG 0.02  C 
BRANCH 35 36
ATOM     36  CD  ARG D 692      13.111 -10.877  34.776  1.00 57.04 LIG 0.14  C 
BRANCH 36 37
ATOM     37  NE  ARG D 692      14.218 -11.473  34.053  1.00 60.90 LIG-0.23  N 
ATOM     38 HE   ARG D 692      14.124 -11.590  33.206  1.00 60.90 LIG 0.18  HD
ATOM     39  CZ  ARG D 692      15.364 -11.851  34.600  1.00 61.50 LIG 0.67  C 
ATOM     40  NH1 ARG D 692      15.536 -11.781  35.919  1.00 46.48 LIG-0.23  N 
ATOM     41  NH2 ARG D 692      16.321 -12.345  33.826  1.00 64.68 LIG-0.23  N 
ATOM     42 1HH1 ARG D 692      14.901 -11.488  36.420  1.00 46.48 LIG 0.17  HD
ATOM     43 2HH1 ARG D 692      16.282 -12.028  36.269  1.00 46.48 LIG 0.17  HD
ATOM     44 1HH2 ARG D 692      16.194 -12.417  32.978  1.00 64.68 LIG 0.17  HD
ATOM     45 2HH2 ARG D 692      17.068 -12.593  34.171  1.00 64.68 LIG 0.17  HD
ENDBRANCH 36 37
ENDBRANCH 35 36
ENDBRANCH 34 35
ENDBRANCH 1 34
BRANCH 1 46
ATOM     46  N   ARG D 692      12.111 -12.893  36.640  1.00 43.06 LIG-0.35  N 
ATOM     47  C   HIS D 691      11.829 -14.106  36.197  1.00 44.11 LIG 0.24  C 
ATOM     48 O    HIS D 691      10.716 -14.442  35.819  1.00 43.39 LIG-0.27  OA
ATOM     49 H    ARG D 692      12.886 -12.657  36.931  1.00 43.06 LIG 0.16  HD
BRANCH 47 50
ATOM     50  CA  HIS D 691      12.966 -15.055  36.181  1.00 41.80 LIG 0.18  C 
BRANCH 50 51
ATOM     51  CB  HIS D 691      12.375 -16.401  36.428  1.00 51.00 LIG 0.10  C 
BRANCH 51 52
ATOM     52  CG  HIS D 691      12.098 -17.176  35.206  1.00 57.86 LIG 0.06  A 
ATOM     53 ND1  HIS D 691      11.113 -18.053  35.132  1.00 60.60 LIG-0.24  NA
ATOM     54  CE1 HIS D 691      11.104 -18.601  33.920  1.00 72.50 LIG 0.23  A 
ATOM     55 NE2  HIS D 691      12.108 -18.081  33.221  1.00 67.35 LIG-0.25  NA
ATOM     56  CD2 HIS D 691      12.744 -17.204  33.985  1.00 66.29 LIG 0.14  A 
ENDBRANCH 51 52
ENDBRANCH 50 51
BRANCH 50 57
ATOM     57  N   HIS D 691      13.913 -14.751  37.230  1.00 39.94 LIG-0.35  N 
ATOM     58 H    HIS D 691      14.706 -14.579  36.943  1.00 39.94 LIG 0.16  HD
ATOM     59  C   LEU D 690      13.587 -14.740  38.512  1.00 35.88 LIG 0.24  C 
ATOM     60 O    LEU D 690      12.429 -14.969  38.925  1.00 34.66 LIG-0.27  OA
BRANCH 59 61
ATOM     61  CA  LEU D 690      14.709 -14.492  39.493  1.00 33.43 LIG 0.18  C 
BRANCH 61 62
ATOM     62  CB  LEU D 690      14.396 -13.252  40.333  1.00 31.34 LIG 0.04  C 
BRANCH 62 63
ATOM     63  CG  LEU D 690      13.551 -12.173  39.664  1.00 30.93 LIG-0.02  C 
ATOM     64  CD1 LEU D 690      12.756 -11.412  40.715  1.00 30.90 LIG 0.01  C 
ATOM     65  CD2 LEU D 690      14.451 -11.212  38.911  1.00 28.62 LIG 0.01  C 
ENDBRANCH 62 63
ENDBRANCH 61 62
BRANCH 61 66
ATOM     66  N   LEU D 690      15.989 -14.317  38.804  1.00 35.22 LIG-0.35  N 
ATOM     67 H    LEU D 690      16.179 -13.501  38.609  1.00 35.22 LIG 0.16  HD
ATOM     68  C   ILE D 689      16.774 -15.348  38.517  1.00 41.04 LIG 0.26  C 
ATOM     69 O    ILE D 689      16.506 -16.509  38.858  1.00 39.56 LIG-0.27  OA
BRANCH 68 70
ATOM     70  CA  ILE D 689      18.082 -15.007  37.771  1.00 40.35 LIG 0.40  C 
ATOM     71  N   ILE D 689      19.106 -16.122  37.854  1.00 40.45 LIG 0.61  N 
BRANCH 70 72
ATOM     72  CB  ILE D 689      17.708 -14.662  36.309  1.00 42.26 LIG 0.03  C 
ATOM     73  CG2 ILE D 689      18.950 -14.207  35.520  1.00 38.55 LIG 0.01  C 
BRANCH 72 74
ATOM     74  CG1 ILE D 689      16.999 -15.830  35.618  1.00 45.91 LIG 0.00  C 
ATOM     75  CD1 ILE D 689      15.994 -15.414  34.544  1.00 45.96 LIG 0.01  C 
ENDBRANCH 72 74
ENDBRANCH 70 72
ENDBRANCH 68 70
ENDBRANCH 61 66
ENDBRANCH 59 61
ENDBRANCH 50 57
ENDBRANCH 47 50
ENDBRANCH 1 46
TORSDOF 30
ENDMDL
MODEL 58
USER: ADFR SOLUTION from run 70
USER: SCORE 20.261624 LL:  -6.349 LR: -14.860 RR:   0.000 FEB:  -5.911
USER: RMSD 7.449529
USER: SEED 69
USER: STATUS no improvement in best in 12 clusters for 5 generations
USER: GENES 32
USER: genes 0 Translation |==|  0.66477 0.70461 0.38745
USER: genes 1 Rotation |==|  0.99300 0.49429 0.41684 0.50098
USER: genes 2 Torsion [N]-CA--C-[N] |==|  0.36548
USER: genes 3 Torsion [C]-N--CA-[C] |==|  0.58729
USER: genes 4 Torsion [N]-CA--C-[N] |==|  0.47762
USER: genes 5 Torsion [C]-N--CA-[C] |==|  0.56756
USER: genes 6 Torsion [N]-CA--C-[N] |==|  0.14953
USER: genes 7 Torsion [C]-N--CA-[CB] |==|  0.31242
USER: genes 8 Torsion [N]-CA--CB-[CG] |==|  0.97516
USER: genes 9 Torsion [CA]-CB--CG-[CD] |==|  0.77537
USER: genes 10 Torsion [CB]-CG--CD-[NE2] |==|  0.47303
USER: genes 11 Torsion [N]-CA--C-[O] |==|  0.10443
USER: genes 12 Torsion [N]-CA--CB-[CG] |==|  0.02483
USER: genes 13 Torsion [CA]-CB--CG-[CD2] |==|  0.15110
USER: genes 14 Torsion [N]-CA--CB-[CG] |==|  0.72787
USER: genes 15 Torsion [CA]-CB--CG-[CD1] |==|  0.92590
USER: genes 16 Torsion [C]-CA--CB-[CG] |==|  0.55959
USER: genes 17 Torsion [CA]-CB--CG-[CD] |==|  0.28865
USER: genes 18 Torsion [CB]-CG--CD-[NE] |==|  0.25580
USER: genes 19 Torsion [CG]-CD--NE-[CZ] |==|  0.27657
USER: genes 20 Torsion [C]-CA--N-[C] |==|  0.83817
USER: genes 21 Torsion [N]-C--CA-[N] |==|  0.45222
USER: genes 22 Torsion [C]-CA--CB-[CG] |==|  0.51286
USER: genes 23 Torsion [CA]-CB--CG-[ND1] |==|  0.37809
USER: genes 24 Torsion [C]-CA--N-[C] |==|  0.62684
USER: genes 25 Torsion [N]-C--CA-[N] |==|  0.41851
USER: genes 26 Torsion [C]-CA--CB-[CG] |==|  0.60604
USER: genes 27 Torsion [CA]-CB--CG-[CD2] |==|  0.81121
USER: genes 28 Torsion [C]-CA--N-[C] |==|  0.80008
USER: genes 29 Torsion [N]-C--CA-[N] |==|  0.37860
USER: genes 30 Torsion [C]-CA--CB-[CG1] |==|  0.18112
USER: genes 31 Torsion [CA]-CB--CG1-[CD1] |==|  0.64079
ROOT
ATOM      1  CA  ARG D 692      13.310 -11.166  36.724  1.00 48.73 LIG 0.18  C 
ENDROOT
BRANCH 1 2
ATOM      2  C   ARG D 692      12.083 -12.052  36.855  1.00 46.10 LIG 0.24  C 
ATOM      3  N   LEU D 693      10.888 -11.469  36.800  1.00 50.64 LIG-0.35  N 
ATOM      4 H    LEU D 693      10.751 -10.629  36.677  1.00 50.64 LIG 0.16  HD
ATOM      5 O    ARG D 692      12.206 -13.252  37.096  1.00 52.04 LIG-0.27  OA
BRANCH 3 6
ATOM      6  CA  LEU D 693       9.684 -12.291  36.956  1.00 43.34 LIG 0.18  C 
BRANCH 6 7
ATOM      7  C   LEU D 693       8.507 -11.741  36.162  1.00 37.95 LIG 0.24  C 
ATOM      8  N   LEU D 694       7.431 -12.501  36.109  1.00 39.22 LIG-0.35  N 
ATOM      9 H    LEU D 694       7.388 -13.287  36.454  1.00 39.22 LIG 0.16  HD
ATOM     10 O    LEU D 693       8.596 -10.652  35.584  1.00 43.86 LIG-0.27  OA
BRANCH 8 11
ATOM     11  CA  LEU D 694       6.218 -12.077  35.462  1.00 38.59 LIG 0.18  C 
BRANCH 11 12
ATOM     12  C   LEU D 694       5.069 -12.827  36.055  1.00 46.22 LIG 0.24  C 
ATOM     13  N   GLN D 695       4.975 -12.752  37.370  1.00 66.87 LIG-0.35  N 
ATOM     14 H    GLN D 695       5.587 -12.371  37.838  1.00 66.87 LIG 0.16  HD
ATOM     15 O    LEU D 694       4.353 -13.482  35.344  1.00 54.70 LIG-0.27  OA
BRANCH 13 16
ATOM     16  CA  GLN D 695       3.887 -13.269  38.210  1.00 62.86 LIG 0.16  C 
BRANCH 16 17
ATOM     17  CB  GLN D 695       4.366 -14.411  39.064  1.00 63.26 LIG 0.04  C 
BRANCH 17 18
ATOM     18  CG  GLN D 695       5.752 -14.848  38.671  1.00 77.24 LIG 0.10  C 
BRANCH 18 19
ATOM     19  CD  GLN D 695       5.755 -15.736  37.494  1.00 84.08 LIG 0.21  C 
ATOM     20 OE1  GLN D 695       4.710 -16.167  37.047  1.00 83.40 LIG-0.27  OA
ATOM     21  NE2 GLN D 695       6.930 -16.009  36.959  1.00 79.17 LIG-0.37  N 
ATOM     22 22HE GLN D 695       6.979 -16.511  36.263  1.00 79.17 LIG 0.16  HD
ATOM     23 21HE GLN D 695       7.646 -15.683  37.306  1.00 79.17 LIG 0.16  HD
ENDBRANCH 18 19
ENDBRANCH 17 18
ENDBRANCH 16 17
BRANCH 16 24
ATOM     24  C   GLN D 695       3.114 -12.243  39.037  1.00 61.14 LIG 0.22  C 
ATOM     25 O    GLN D 695       2.860 -11.124  38.582  1.00 66.66 LIG-0.29  OA
ENDBRANCH 16 24
ENDBRANCH 13 16
ENDBRANCH 11 12
BRANCH 11 26
ATOM     26  CB  LEU D 694       6.247 -12.379  33.979  1.00 34.51 LIG 0.04  C 
BRANCH 26 27
ATOM     27  CG  LEU D 694       7.356 -13.221  33.397  1.00 27.71 LIG-0.02  C 
ATOM     28  CD2 LEU D 694       7.506 -14.550  34.075  1.00 26.48 LIG 0.01  C 
ATOM     29  CD1 LEU D 694       8.664 -12.493  33.294  1.00 27.00 LIG 0.01  C 
ENDBRANCH 26 27
ENDBRANCH 11 26
ENDBRANCH 8 11
ENDBRANCH 6 7
BRANCH 6 30
ATOM     30  CB  LEU D 693       9.300 -12.485  38.433  1.00 45.67 LIG 0.04  C 
BRANCH 30 31
ATOM     31  CG  LEU D 693       9.758 -13.803  39.078  1.00 55.29 LIG-0.02  C 
ATOM     32  CD1 LEU D 693       9.909 -14.897  38.030  1.00 47.80 LIG 0.01  C 
ATOM     33  CD2 LEU D 693      11.042 -13.632  39.904  1.00 51.02 LIG 0.01  C 
ENDBRANCH 30 31
ENDBRANCH 6 30
ENDBRANCH 3 6
ENDBRANCH 1 2
BRANCH 1 34
ATOM     34  CB  ARG D 692      13.848 -11.282  35.282  1.00 49.09 LIG 0.04  C 
BRANCH 34 35
ATOM     35  CG  ARG D 692      15.331 -10.871  35.201  1.00 50.62 LIG 0.02  C 
BRANCH 35 36
ATOM     36  CD  ARG D 692      16.306 -12.032  35.079  1.00 57.04 LIG 0.14  C 
BRANCH 36 37
ATOM     37  NE  ARG D 692      16.562 -12.306  33.678  1.00 60.90 LIG-0.23  N 
ATOM     38 HE   ARG D 692      15.978 -12.770  33.250  1.00 60.90 LIG 0.18  HD
ATOM     39  CZ  ARG D 692      17.629 -11.895  33.010  1.00 61.50 LIG 0.67  C 
ATOM     40  NH1 ARG D 692      18.611 -11.252  33.638  1.00 46.48 LIG-0.23  N 
ATOM     41  NH2 ARG D 692      17.730 -12.172  31.716  1.00 64.68 LIG-0.23  N 
ATOM     42 1HH1 ARG D 692      18.555 -11.102  34.483  1.00 46.48 LIG 0.17  HD
ATOM     43 2HH1 ARG D 692      19.302 -10.988  33.198  1.00 46.48 LIG 0.17  HD
ATOM     44 1HH2 ARG D 692      17.106 -12.613  31.321  1.00 64.68 LIG 0.17  HD
ATOM     45 2HH2 ARG D 692      18.418 -11.909  31.272  1.00 64.68 LIG 0.17  HD
ENDBRANCH 36 37
ENDBRANCH 35 36
ENDBRANCH 34 35
ENDBRANCH 1 34
BRANCH 1 46
ATOM     46  N   ARG D 692      14.367 -11.377  37.742  1.00 43.06 LIG-0.35  N 
ATOM     47  C   HIS D 691      14.127 -11.247  39.035  1.00 44.11 LIG 0.24  C 
ATOM     48 O    HIS D 691      13.042 -10.911  39.487  1.00 43.39 LIG-0.27  OA
ATOM     49 H    ARG D 692      15.135 -11.589  37.416  1.00 43.06 LIG 0.16  HD
BRANCH 47 50
ATOM     50  CA  HIS D 691      15.272 -11.543  39.926  1.00 41.80 LIG 0.18  C 
BRANCH 50 51
ATOM     51  CB  HIS D 691      15.350 -13.029  40.009  1.00 51.00 LIG 0.10  C 
BRANCH 51 52
ATOM     52  CG  HIS D 691      16.371 -13.532  40.943  1.00 57.86 LIG 0.06  A 
ATOM     53 ND1  HIS D 691      16.135 -14.525  41.782  1.00 60.60 LIG-0.24  NA
ATOM     54  CE1 HIS D 691      17.229 -14.761  42.501  1.00 72.50 LIG 0.23  A 
ATOM     55 NE2  HIS D 691      18.166 -13.893  42.130  1.00 67.35 LIG-0.25  NA
ATOM     56  CD2 HIS D 691      17.669 -13.119  41.175  1.00 66.29 LIG 0.14  A 
ENDBRANCH 51 52
ENDBRANCH 50 51
BRANCH 50 57
ATOM     57  N   HIS D 691      15.057 -11.002  41.249  1.00 39.94 LIG-0.35  N 
ATOM     58 H    HIS D 691      14.271 -11.155  41.564  1.00 39.94 LIG 0.16  HD
ATOM     59  C   LEU D 690      15.986 -10.332  41.911  1.00 35.88 LIG 0.24  C 
ATOM     60 O    LEU D 690      17.134 -10.129  41.461  1.00 34.66 LIG-0.27  OA
BRANCH 59 61
ATOM     61  CA  LEU D 690      15.580  -9.753  43.247  1.00 33.43 LIG 0.18  C 
BRANCH 61 62
ATOM     62  CB  LEU D 690      14.970  -8.365  43.044  1.00 31.34 LIG 0.04  C 
BRANCH 62 63
ATOM     63  CG  LEU D 690      15.310  -7.313  44.094  1.00 30.93 LIG-0.02  C 
ATOM     64  CD1 LEU D 690      14.810  -5.949  43.643  1.00 30.90 LIG 0.01  C 
ATOM     65  CD2 LEU D 690      14.663  -7.682  45.415  1.00 28.62 LIG 0.01  C 
ENDBRANCH 62 63
ENDBRANCH 61 62
BRANCH 61 66
ATOM     66  N   LEU D 690      16.721  -9.669  44.160  1.00 35.22 LIG-0.35  N 
ATOM     67 H    LEU D 690      17.004  -8.869  44.301  1.00 35.22 LIG 0.16  HD
ATOM     68  C   ILE D 689      17.257 -10.751  44.711  1.00 41.04 LIG 0.26  C 
ATOM     69 O    ILE D 689      16.797 -11.889  44.536  1.00 39.56 LIG-0.27  OA
BRANCH 68 70
ATOM     70  CA  ILE D 689      18.467 -10.503  45.636  1.00 40.35 LIG 0.40  C 
ATOM     71  N   ILE D 689      18.398 -11.313  46.915  1.00 40.45 LIG 0.61  N 
BRANCH 70 72
ATOM     72  CB  ILE D 689      19.748 -10.805  44.819  1.00 42.26 LIG 0.03  C 
ATOM     73  CG2 ILE D 689      19.751 -12.264  44.327  1.00 38.55 LIG 0.01  C 
BRANCH 72 74
ATOM     74  CG1 ILE D 689      19.921  -9.819  43.660  1.00 45.91 LIG 0.00  C 
ATOM     75  CD1 ILE D 689      20.173 -10.476  42.304  1.00 45.96 LIG 0.01  C 
ENDBRANCH 72 74
ENDBRANCH 70 72
ENDBRANCH 68 70
ENDBRANCH 61 66
ENDBRANCH 59 61
ENDBRANCH 50 57
ENDBRANCH 47 50
ENDBRANCH 1 46
TORSDOF 30
ENDMDL
MODEL 59
USER: ADFR SOLUTION from run 35
USER: SCORE 21.492784 LL:  -7.907 LR: -14.846 RR:   0.000 FEB:  -5.897
USER: RMSD 6.691265
USER: SEED 34
USER: STATUS no improvement in best in 18 clusters for 5 generations
USER: GENES 32
USER: genes 0 Translation |==|  0.57372 0.72429 0.33690
USER: genes 1 Rotation |==|  0.01703 0.58920 0.59329 0.50911
USER: genes 2 Torsion [N]-CA--C-[N] |==|  0.93333
USER: genes 3 Torsion [C]-N--CA-[C] |==|  0.63089
USER: genes 4 Torsion [N]-CA--C-[N] |==|  0.23797
USER: genes 5 Torsion [C]-N--CA-[C] |==|  0.75053
USER: genes 6 Torsion [N]-CA--C-[N] |==|  0.00507
USER: genes 7 Torsion [C]-N--CA-[CB] |==|  0.88099
USER: genes 8 Torsion [N]-CA--CB-[CG] |==|  0.72858
USER: genes 9 Torsion [CA]-CB--CG-[CD] |==|  0.14519
USER: genes 10 Torsion [CB]-CG--CD-[NE2] |==|  0.15296
USER: genes 11 Torsion [N]-CA--C-[O] |==|  0.14425
USER: genes 12 Torsion [N]-CA--CB-[CG] |==|  0.11006
USER: genes 13 Torsion [CA]-CB--CG-[CD2] |==|  0.61467
USER: genes 14 Torsion [N]-CA--CB-[CG] |==|  0.69725
USER: genes 15 Torsion [CA]-CB--CG-[CD1] |==|  0.86975
USER: genes 16 Torsion [C]-CA--CB-[CG] |==|  0.79361
USER: genes 17 Torsion [CA]-CB--CG-[CD] |==|  0.79171
USER: genes 18 Torsion [CB]-CG--CD-[NE] |==|  0.82508
USER: genes 19 Torsion [CG]-CD--NE-[CZ] |==|  0.35135
USER: genes 20 Torsion [C]-CA--N-[C] |==|  0.84858
USER: genes 21 Torsion [N]-C--CA-[N] |==|  0.88764
USER: genes 22 Torsion [C]-CA--CB-[CG] |==|  0.35886
USER: genes 23 Torsion [CA]-CB--CG-[ND1] |==|  0.87643
USER: genes 24 Torsion [C]-CA--N-[C] |==|  0.83625
USER: genes 25 Torsion [N]-C--CA-[N] |==|  0.10303
USER: genes 26 Torsion [C]-CA--CB-[CG] |==|  0.27758
USER: genes 27 Torsion [CA]-CB--CG-[CD2] |==|  0.95354
USER: genes 28 Torsion [C]-CA--N-[C] |==|  0.77648
USER: genes 29 Torsion [N]-C--CA-[N] |==|  0.51815
USER: genes 30 Torsion [C]-CA--CB-[CG1] |==|  0.87754
USER: genes 31 Torsion [CA]-CB--CG1-[CD1] |==|  0.55627
ROOT
ATOM      1  CA  ARG D 692      11.262 -10.797  35.738  1.00 48.73 LIG 0.18  C 
ENDROOT
BRANCH 1 2
ATOM      2  C   ARG D 692       9.817 -11.224  35.941  1.00 46.10 LIG 0.24  C 
ATOM      3  N   LEU D 693       9.593 -12.360  36.597  1.00 50.64 LIG-0.35  N 
ATOM      4 H    LEU D 693      10.200 -12.867  36.933  1.00 50.64 LIG 0.16  HD
ATOM      5 O    ARG D 692       8.902 -10.579  35.432  1.00 52.04 LIG-0.27  OA
BRANCH 3 6
ATOM      6  CA  LEU D 693       8.212 -12.818  36.781  1.00 43.34 LIG 0.18  C 
BRANCH 6 7
ATOM      7  C   LEU D 693       7.936 -13.245  38.217  1.00 37.95 LIG 0.24  C 
ATOM      8  N   LEU D 694       7.584 -12.289  39.052  1.00 39.22 LIG-0.35  N 
ATOM      9 H    LEU D 694       7.553 -11.457  38.837  1.00 39.22 LIG 0.16  HD
ATOM     10 O    LEU D 693       8.071 -14.426  38.555  1.00 43.86 LIG-0.27  OA
BRANCH 8 11
ATOM     11  CA  LEU D 694       7.217 -12.555  40.418  1.00 38.59 LIG 0.18  C 
BRANCH 11 12
ATOM     12  C   LEU D 694       5.744 -12.802  40.480  1.00 46.22 LIG 0.24  C 
ATOM     13  N   GLN D 695       5.124 -12.764  39.316  1.00 66.87 LIG-0.35  N 
ATOM     14 H    GLN D 695       5.536 -12.527  38.600  1.00 66.87 LIG 0.16  HD
ATOM     15 O    LEU D 694       5.209 -12.956  41.547  1.00 54.70 LIG-0.27  OA
BRANCH 13 16
ATOM     16  CA  GLN D 695       3.718 -13.097  39.050  1.00 62.86 LIG 0.16  C 
BRANCH 16 17
ATOM     17  CB  GLN D 695       3.313 -14.341  39.792  1.00 63.26 LIG 0.04  C 
BRANCH 17 18
ATOM     18  CG  GLN D 695       3.380 -15.557  38.906  1.00 77.24 LIG 0.10  C 
BRANCH 18 19
ATOM     19  CD  GLN D 695       4.683 -15.698  38.232  1.00 84.08 LIG 0.21  C 
ATOM     20 OE1  GLN D 695       4.743 -15.774  37.020  1.00 83.40 LIG-0.27  OA
ATOM     21  NE2 GLN D 695       5.752 -15.714  39.004  1.00 79.17 LIG-0.37  N 
ATOM     22 22HE GLN D 695       6.535 -15.782  38.654  1.00 79.17 LIG 0.16  HD
ATOM     23 21HE GLN D 695       5.667 -15.658  39.858  1.00 79.17 LIG 0.16  HD
ENDBRANCH 18 19
ENDBRANCH 17 18
ENDBRANCH 16 17
BRANCH 16 24
ATOM     24  C   GLN D 695       2.699 -11.976  39.247  1.00 61.14 LIG 0.22  C 
ATOM     25 O    GLN D 695       2.855 -10.877  38.707  1.00 66.66 LIG-0.29  OA
ENDBRANCH 16 24
ENDBRANCH 13 16
ENDBRANCH 11 12
BRANCH 11 26
ATOM     26  CB  LEU D 694       7.522 -11.374  41.314  1.00 34.51 LIG 0.04  C 
BRANCH 26 27
ATOM     27  CG  LEU D 694       7.272  -9.967  40.828  1.00 27.71 LIG-0.02  C 
ATOM     28  CD2 LEU D 694       8.360  -9.009  41.206  1.00 26.48 LIG 0.01  C 
ATOM     29  CD1 LEU D 694       5.912  -9.445  41.193  1.00 27.00 LIG 0.01  C 
ENDBRANCH 26 27
ENDBRANCH 11 26
ENDBRANCH 8 11
ENDBRANCH 6 7
BRANCH 6 30
ATOM     30  CB  LEU D 693       7.836 -13.940  35.797  1.00 45.67 LIG 0.04  C 
BRANCH 30 31
ATOM     31  CG  LEU D 693       6.848 -13.554  34.685  1.00 55.29 LIG-0.02  C 
ATOM     32  CD1 LEU D 693       5.665 -12.782  35.253  1.00 47.80 LIG 0.01  C 
ATOM     33  CD2 LEU D 693       7.528 -12.784  33.543  1.00 51.02 LIG 0.01  C 
ENDBRANCH 30 31
ENDBRANCH 6 30
ENDBRANCH 3 6
ENDBRANCH 1 2
BRANCH 1 34
ATOM     34  CB  ARG D 692      11.661 -11.096  34.278  1.00 49.09 LIG 0.04  C 
BRANCH 34 35
ATOM     35  CG  ARG D 692      11.876 -12.605  34.053  1.00 50.62 LIG 0.02  C 
BRANCH 35 36
ATOM     36  CD  ARG D 692      13.174 -13.154  34.629  1.00 57.04 LIG 0.14  C 
BRANCH 36 37
ATOM     37  NE  ARG D 692      14.301 -12.525  33.968  1.00 60.90 LIG-0.23  N 
ATOM     38 HE   ARG D 692      14.326 -12.553  33.109  1.00 60.90 LIG 0.18  HD
ATOM     39  CZ  ARG D 692      15.296 -11.910  34.591  1.00 61.50 LIG 0.67  C 
ATOM     40  NH1 ARG D 692      15.362 -11.912  35.921  1.00 46.48 LIG-0.23  N 
ATOM     41  NH2 ARG D 692      16.251 -11.333  33.874  1.00 64.68 LIG-0.23  N 
ATOM     42 1HH1 ARG D 692      14.757 -12.315  36.381  1.00 46.48 LIG 0.17  HD
ATOM     43 2HH1 ARG D 692      16.011 -11.512  36.319  1.00 46.48 LIG 0.17  HD
ATOM     44 1HH2 ARG D 692      16.220 -11.360  33.015  1.00 64.68 LIG 0.17  HD
ATOM     45 2HH2 ARG D 692      16.901 -10.931  34.268  1.00 64.68 LIG 0.17  HD
ENDBRANCH 36 37
ENDBRANCH 35 36
ENDBRANCH 34 35
ENDBRANCH 1 34
BRANCH 1 46
ATOM     46  N   ARG D 692      12.236 -11.339  36.715  1.00 43.06 LIG-0.35  N 
ATOM     47  C   HIS D 691      12.075 -11.189  38.019  1.00 44.11 LIG 0.24  C 
ATOM     48 O    HIS D 691      11.145 -10.569  38.514  1.00 43.39 LIG-0.27  OA
ATOM     49 H    ARG D 692      12.901 -11.753  36.359  1.00 43.06 LIG 0.16  HD
BRANCH 47 50
ATOM     50  CA  HIS D 691      13.106 -11.834  38.863  1.00 41.80 LIG 0.18  C 
BRANCH 50 51
ATOM     51  CB  HIS D 691      14.295 -10.936  38.811  1.00 51.00 LIG 0.10  C 
BRANCH 51 52
ATOM     52  CG  HIS D 691      14.846 -10.581  40.129  1.00 57.86 LIG 0.06  A 
ATOM     53 ND1  HIS D 691      14.080 -10.226  41.145  1.00 60.60 LIG-0.24  NA
ATOM     54  CE1 HIS D 691      14.845  -9.959  42.199  1.00 72.50 LIG 0.23  A 
ATOM     55 NE2  HIS D 691      16.116 -10.127  41.845  1.00 67.35 LIG-0.25  NA
ATOM     56  CD2 HIS D 691      16.152 -10.505  40.574  1.00 66.29 LIG 0.14  A 
ENDBRANCH 51 52
ENDBRANCH 50 51
BRANCH 50 57
ATOM     57  N   HIS D 691      13.467 -13.134  38.343  1.00 39.94 LIG-0.35  N 
ATOM     58 H    HIS D 691      14.301 -13.211  38.148  1.00 39.94 LIG 0.16  HD
ATOM     59  C   LEU D 690      12.590 -14.111  38.183  1.00 35.88 LIG 0.24  C 
ATOM     60 O    LEU D 690      11.383 -14.004  38.487  1.00 34.66 LIG-0.27  OA
BRANCH 59 61
ATOM     61  CA  LEU D 690      13.104 -15.381  37.545  1.00 33.43 LIG 0.18  C 
BRANCH 61 62
ATOM     62  CB  LEU D 690      12.177 -16.547  37.895  1.00 31.34 LIG 0.04  C 
BRANCH 62 63
ATOM     63  CG  LEU D 690      11.167 -16.956  36.828  1.00 30.93 LIG-0.02  C 
ATOM     64  CD1 LEU D 690       9.815 -17.226  37.471  1.00 30.90 LIG 0.01  C 
ATOM     65  CD2 LEU D 690      11.030 -15.848  35.801  1.00 28.62 LIG 0.01  C 
ENDBRANCH 62 63
ENDBRANCH 61 62
BRANCH 61 66
ATOM     66  N   LEU D 690      14.469 -15.682  37.981  1.00 35.22 LIG-0.35  N 
ATOM     67 H    LEU D 690      14.520 -16.272  38.604  1.00 35.22 LIG 0.16  HD
ATOM     68  C   ILE D 689      15.523 -15.081  37.443  1.00 41.04 LIG 0.26  C 
ATOM     69 O    ILE D 689      15.427 -14.274  36.506  1.00 39.56 LIG-0.27  OA
BRANCH 68 70
ATOM     70  CA  ILE D 689      16.895 -15.488  38.021  1.00 40.35 LIG 0.40  C 
ATOM     71  N   ILE D 689      18.031 -14.649  37.469  1.00 40.45 LIG 0.61  N 
BRANCH 70 72
ATOM     72  CB  ILE D 689      16.796 -15.399  39.564  1.00 42.26 LIG 0.03  C 
ATOM     73  CG2 ILE D 689      18.188 -15.524  40.209  1.00 38.55 LIG 0.01  C 
BRANCH 72 74
ATOM     74  CG1 ILE D 689      16.081 -14.121  40.009  1.00 45.91 LIG 0.00  C 
ATOM     75  CD1 ILE D 689      16.359 -13.712  41.455  1.00 45.96 LIG 0.01  C 
ENDBRANCH 72 74
ENDBRANCH 70 72
ENDBRANCH 68 70
ENDBRANCH 61 66
ENDBRANCH 59 61
ENDBRANCH 50 57
ENDBRANCH 47 50
ENDBRANCH 1 46
TORSDOF 30
ENDMDL
MODEL 60
USER: ADFR SOLUTION from run 137
USER: SCORE 20.542196 LL:  -7.107 LR: -14.854 RR:   0.000 FEB:  -5.905
USER: RMSD 6.227762
USER: SEED 136
USER: STATUS no improvement in best in 16 clusters for 5 generations
USER: GENES 32
USER: genes 0 Translation |==|  0.52333 0.71498 0.30999
USER: genes 1 Rotation |==|  0.02003 0.57573 0.61787 0.50025
USER: genes 2 Torsion [N]-CA--C-[N] |==|  0.92907
USER: genes 3 Torsion [C]-N--CA-[C] |==|  0.65265
USER: genes 4 Torsion [N]-CA--C-[N] |==|  0.18345
USER: genes 5 Torsion [C]-N--CA-[C] |==|  0.80554
USER: genes 6 Torsion [N]-CA--C-[N] |==|  0.95996
USER: genes 7 Torsion [C]-N--CA-[CB] |==|  0.90576
USER: genes 8 Torsion [N]-CA--CB-[CG] |==|  0.71554
USER: genes 9 Torsion [CA]-CB--CG-[CD] |==|  0.19191
USER: genes 10 Torsion [CB]-CG--CD-[NE2] |==|  0.13702
USER: genes 11 Torsion [N]-CA--C-[O] |==|  0.19207
USER: genes 12 Torsion [N]-CA--CB-[CG] |==|  0.31402
USER: genes 13 Torsion [CA]-CB--CG-[CD2] |==|  0.71348
USER: genes 14 Torsion [N]-CA--CB-[CG] |==|  0.75841
USER: genes 15 Torsion [CA]-CB--CG-[CD1] |==|  0.86391
USER: genes 16 Torsion [C]-CA--CB-[CG] |==|  0.46064
USER: genes 17 Torsion [CA]-CB--CG-[CD] |==|  0.25597
USER: genes 18 Torsion [CB]-CG--CD-[NE] |==|  0.74222
USER: genes 19 Torsion [CG]-CD--NE-[CZ] |==|  0.50491
USER: genes 20 Torsion [C]-CA--N-[C] |==|  0.19156
USER: genes 21 Torsion [N]-C--CA-[N] |==|  0.09694
USER: genes 22 Torsion [C]-CA--CB-[CG] |==|  0.51587
USER: genes 23 Torsion [CA]-CB--CG-[ND1] |==|  0.90570
USER: genes 24 Torsion [C]-CA--N-[C] |==|  0.15753
USER: genes 25 Torsion [N]-C--CA-[N] |==|  0.95556
USER: genes 26 Torsion [C]-CA--CB-[CG] |==|  0.44074
USER: genes 27 Torsion [CA]-CB--CG-[CD2] |==|  0.90562
USER: genes 28 Torsion [C]-CA--N-[C] |==|  0.79780
USER: genes 29 Torsion [N]-C--CA-[N] |==|  0.86280
USER: genes 30 Torsion [C]-CA--CB-[CG1] |==|  0.80285
USER: genes 31 Torsion [CA]-CB--CG1-[CD1] |==|  0.34011
ROOT
ATOM      1  CA  ARG D 692      10.128 -10.971  35.214  1.00 48.73 LIG 0.18  C 
ENDROOT
BRANCH 1 2
ATOM      2  C   ARG D 692       8.739 -11.480  35.565  1.00 46.10 LIG 0.24  C 
ATOM      3  N   LEU D 693       8.649 -12.636  36.217  1.00 50.64 LIG-0.35  N 
ATOM      4 H    LEU D 693       9.315 -13.114  36.473  1.00 50.64 LIG 0.16  HD
ATOM      5 O    ARG D 692       7.741 -10.878  35.174  1.00 52.04 LIG-0.27  OA
BRANCH 3 6
ATOM      6  CA  LEU D 693       7.323 -13.172  36.542  1.00 43.34 LIG 0.18  C 
BRANCH 6 7
ATOM      7  C   LEU D 693       7.169 -13.457  38.030  1.00 37.95 LIG 0.24  C 
ATOM      8  N   LEU D 694       7.190 -12.411  38.831  1.00 39.22 LIG-0.35  N 
ATOM      9 H    LEU D 694       7.332 -11.608  38.559  1.00 39.22 LIG 0.16  HD
ATOM     10 O    LEU D 693       7.060 -14.620  38.435  1.00 43.86 LIG-0.27  OA
BRANCH 8 11
ATOM     11  CA  LEU D 694       6.977 -12.521  40.250  1.00 38.59 LIG 0.18  C 
BRANCH 11 12
ATOM     12  C   LEU D 694       5.545 -12.869  40.495  1.00 46.22 LIG 0.24  C 
ATOM     13  N   GLN D 695       4.747 -12.707  39.456  1.00 66.87 LIG-0.35  N 
ATOM     14 H    GLN D 695       5.030 -12.344  38.730  1.00 66.87 LIG 0.16  HD
ATOM     15 O    LEU D 694       5.192 -13.208  41.594  1.00 54.70 LIG-0.27  OA
BRANCH 13 16
ATOM     16  CA  GLN D 695       3.332 -13.089  39.358  1.00 62.86 LIG 0.16  C 
BRANCH 16 17
ATOM     17  CB  GLN D 695       3.060 -14.343  40.143  1.00 63.26 LIG 0.04  C 
BRANCH 17 18
ATOM     18  CG  GLN D 695       2.952 -15.544  39.242  1.00 77.24 LIG 0.10  C 
BRANCH 18 19
ATOM     19  CD  GLN D 695       4.241 -15.913  38.630  1.00 84.08 LIG 0.21  C 
ATOM     20 OE1  GLN D 695       4.322 -16.093  37.430  1.00 83.40 LIG-0.27  OA
ATOM     21  NE2 GLN D 695       5.276 -16.015  39.441  1.00 79.17 LIG-0.37  N 
ATOM     22 22HE GLN D 695       6.051 -16.215  39.126  1.00 79.17 LIG 0.16  HD
ATOM     23 21HE GLN D 695       5.176 -15.880  40.284  1.00 79.17 LIG 0.16  HD
ENDBRANCH 18 19
ENDBRANCH 17 18
ENDBRANCH 16 17
BRANCH 16 24
ATOM     24  C   GLN D 695       2.305 -12.002  39.673  1.00 61.14 LIG 0.22  C 
ATOM     25 O    GLN D 695       2.152 -11.038  38.919  1.00 66.66 LIG-0.29  OA
ENDBRANCH 16 24
ENDBRANCH 13 16
ENDBRANCH 11 12
BRANCH 11 26
ATOM     26  CB  LEU D 694       7.259 -11.211  40.954  1.00 34.51 LIG 0.04  C 
BRANCH 26 27
ATOM     27  CG  LEU D 694       6.136 -10.444  41.609  1.00 27.71 LIG-0.02  C 
ATOM     28  CD2 LEU D 694       5.685  -9.260  40.808  1.00 26.48 LIG 0.01  C 
ATOM     29  CD1 LEU D 694       6.418 -10.081  43.038  1.00 27.00 LIG 0.01  C 
ENDBRANCH 26 27
ENDBRANCH 11 26
ENDBRANCH 8 11
ENDBRANCH 6 7
BRANCH 6 30
ATOM     30  CB  LEU D 693       6.980 -14.419  35.709  1.00 45.67 LIG 0.04  C 
BRANCH 30 31
ATOM     31  CG  LEU D 693       6.332 -14.156  34.341  1.00 55.29 LIG-0.02  C 
ATOM     32  CD1 LEU D 693       5.171 -13.179  34.468  1.00 47.80 LIG 0.01  C 
ATOM     33  CD2 LEU D 693       7.353 -13.685  33.294  1.00 51.02 LIG 0.01  C 
ENDBRANCH 30 31
ENDBRANCH 6 30
ENDBRANCH 3 6
ENDBRANCH 1 2
BRANCH 1 34
ATOM     34  CB  ARG D 692      10.393 -11.261  33.721  1.00 49.09 LIG 0.04  C 
BRANCH 34 35
ATOM     35  CG  ARG D 692      11.614 -10.475  33.205  1.00 50.62 LIG 0.02  C 
BRANCH 35 36
ATOM     36  CD  ARG D 692      12.935 -11.224  33.296  1.00 57.04 LIG 0.14  C 
BRANCH 36 37
ATOM     37  NE  ARG D 692      13.590 -10.903  34.550  1.00 60.90 LIG-0.23  N 
ATOM     38 HE   ARG D 692      13.179 -10.374  35.089  1.00 60.90 LIG 0.18  HD
ATOM     39  CZ  ARG D 692      14.774 -11.362  34.924  1.00 61.50 LIG 0.67  C 
ATOM     40  NH1 ARG D 692      15.500 -12.110  34.095  1.00 46.48 LIG-0.23  N 
ATOM     41  NH2 ARG D 692      15.250 -11.031  36.117  1.00 64.68 LIG-0.23  N 
ATOM     42 1HH1 ARG D 692      15.200 -12.297  33.311  1.00 46.48 LIG 0.17  HD
ATOM     43 2HH1 ARG D 692      16.268 -12.405  34.344  1.00 46.48 LIG 0.17  HD
ATOM     44 1HH2 ARG D 692      14.791 -10.523  36.638  1.00 64.68 LIG 0.17  HD
ATOM     45 2HH2 ARG D 692      16.018 -11.324  36.371  1.00 64.68 LIG 0.17  HD
ENDBRANCH 36 37
ENDBRANCH 35 36
ENDBRANCH 34 35
ENDBRANCH 1 34
BRANCH 1 46
ATOM     46  N   ARG D 692      11.227 -11.447  36.087  1.00 43.06 LIG-0.35  N 
ATOM     47  C   HIS D 691      11.623 -12.709  36.087  1.00 44.11 LIG 0.24  C 
ATOM     48 O    HIS D 691      11.099 -13.577  35.405  1.00 43.39 LIG-0.27  OA
ATOM     49 H    ARG D 692      11.574 -10.836  36.583  1.00 43.06 LIG 0.16  HD
BRANCH 47 50
ATOM     50  CA  HIS D 691      12.766 -13.014  36.977  1.00 41.80 LIG 0.18  C 
BRANCH 50 51
ATOM     51  CB  HIS D 691      12.629 -14.454  37.336  1.00 51.00 LIG 0.10  C 
BRANCH 51 52
ATOM     52  CG  HIS D 691      13.606 -14.927  38.331  1.00 57.86 LIG 0.06  A 
ATOM     53 ND1  HIS D 691      14.841 -14.460  38.389  1.00 60.60 LIG-0.24  NA
ATOM     54  CE1 HIS D 691      15.493 -15.068  39.375  1.00 72.50 LIG 0.23  A 
ATOM     55 NE2  HIS D 691      14.671 -15.949  39.938  1.00 67.35 LIG-0.25  NA
ATOM     56  CD2 HIS D 691      13.502 -15.891  39.316  1.00 66.29 LIG 0.14  A 
ENDBRANCH 51 52
ENDBRANCH 50 51
BRANCH 50 57
ATOM     57  N   HIS D 691      12.717 -12.216  38.181  1.00 39.94 LIG-0.35  N 
ATOM     58 H    HIS D 691      13.424 -11.744  38.314  1.00 39.94 LIG 0.16  HD
ATOM     59  C   LEU D 690      11.678 -12.215  39.000  1.00 35.88 LIG 0.24  C 
ATOM     60 O    LEU D 690      10.644 -12.885  38.793  1.00 34.66 LIG-0.27  OA
BRANCH 59 61
ATOM     61  CA  LEU D 690      11.815 -11.396  40.263  1.00 33.43 LIG 0.18  C 
BRANCH 61 62
ATOM     62  CB  LEU D 690      10.979 -10.121  40.145  1.00 31.34 LIG 0.04  C 
BRANCH 62 63
ATOM     63  CG  LEU D 690      10.588  -9.440  41.452  1.00 30.93 LIG-0.02  C 
ATOM     64  CD1 LEU D 690       9.318  -8.627  41.255  1.00 30.90 LIG 0.01  C 
ATOM     65  CD2 LEU D 690      10.361 -10.487  42.526  1.00 28.62 LIG 0.01  C 
ENDBRANCH 62 63
ENDBRANCH 61 62
BRANCH 61 66
ATOM     66  N   LEU D 690      13.213 -11.053  40.527  1.00 35.22 LIG-0.35  N 
ATOM     67 H    LEU D 690      13.409 -10.228  40.384  1.00 35.22 LIG 0.16  HD
ATOM     68  C   ILE D 689      14.087 -11.958  40.951  1.00 41.04 LIG 0.26  C 
ATOM     69 O    ILE D 689      13.768 -13.129  41.204  1.00 39.56 LIG-0.27  OA
BRANCH 68 70
ATOM     70  CA  ILE D 689      15.529 -11.450  41.166  1.00 40.35 LIG 0.40  C 
ATOM     71  N   ILE D 689      16.053 -10.668  39.978  1.00 40.45 LIG 0.61  N 
BRANCH 70 72
ATOM     72  CB  ILE D 689      15.539 -10.613  42.469  1.00 42.26 LIG 0.03  C 
ATOM     73  CG2 ILE D 689      16.979 -10.401  42.971  1.00 38.55 LIG 0.01  C 
BRANCH 72 74
ATOM     74  CG1 ILE D 689      14.803  -9.282  42.288  1.00 45.91 LIG 0.00  C 
ATOM     75  CD1 ILE D 689      13.642  -9.064  43.258  1.00 45.96 LIG 0.01  C 
ENDBRANCH 72 74
ENDBRANCH 70 72
ENDBRANCH 68 70
ENDBRANCH 61 66
ENDBRANCH 59 61
ENDBRANCH 50 57
ENDBRANCH 47 50
ENDBRANCH 1 46
TORSDOF 30
ENDMDL
MODEL 61
USER: ADFR SOLUTION from run 69
USER: SCORE 20.908119 LL:  -6.631 LR: -14.837 RR:   0.000 FEB:  -5.888
USER: RMSD 6.065793
USER: SEED 68
USER: STATUS no improvement in best in 17 clusters for 5 generations
USER: GENES 32
USER: genes 0 Translation |==|  0.53154 0.68191 0.31708
USER: genes 1 Rotation |==|  0.04117 0.64411 0.61810 0.56902
USER: genes 2 Torsion [N]-CA--C-[N] |==|  0.96286
USER: genes 3 Torsion [C]-N--CA-[C] |==|  0.64367
USER: genes 4 Torsion [N]-CA--C-[N] |==|  0.45484
USER: genes 5 Torsion [C]-N--CA-[C] |==|  0.69646
USER: genes 6 Torsion [N]-CA--C-[N] |==|  0.30460
USER: genes 7 Torsion [C]-N--CA-[CB] |==|  0.36668
USER: genes 8 Torsion [N]-CA--CB-[CG] |==|  0.78499
USER: genes 9 Torsion [CA]-CB--CG-[CD] |==|  0.19150
USER: genes 10 Torsion [CB]-CG--CD-[NE2] |==|  0.12037
USER: genes 11 Torsion [N]-CA--C-[O] |==|  0.22219
USER: genes 12 Torsion [N]-CA--CB-[CG] |==|  0.67511
USER: genes 13 Torsion [CA]-CB--CG-[CD2] |==|  0.24047
USER: genes 14 Torsion [N]-CA--CB-[CG] |==|  0.75061
USER: genes 15 Torsion [CA]-CB--CG-[CD1] |==|  0.84783
USER: genes 16 Torsion [C]-CA--CB-[CG] |==|  0.42054
USER: genes 17 Torsion [CA]-CB--CG-[CD] |==|  0.07852
USER: genes 18 Torsion [CB]-CG--CD-[NE] |==|  0.34781
USER: genes 19 Torsion [CG]-CD--NE-[CZ] |==|  0.51932
USER: genes 20 Torsion [C]-CA--N-[C] |==|  0.80044
USER: genes 21 Torsion [N]-C--CA-[N] |==|  0.40876
USER: genes 22 Torsion [C]-CA--CB-[CG] |==|  0.20152
USER: genes 23 Torsion [CA]-CB--CG-[ND1] |==|  0.67737
USER: genes 24 Torsion [C]-CA--N-[C] |==|  0.68846
USER: genes 25 Torsion [N]-C--CA-[N] |==|  0.42228
USER: genes 26 Torsion [C]-CA--CB-[CG] |==|  0.32439
USER: genes 27 Torsion [CA]-CB--CG-[CD2] |==|  0.22052
USER: genes 28 Torsion [C]-CA--N-[C] |==|  0.64223
USER: genes 29 Torsion [N]-C--CA-[N] |==|  0.93302
USER: genes 30 Torsion [C]-CA--CB-[CG1] |==|  0.91422
USER: genes 31 Torsion [CA]-CB--CG1-[CD1] |==|  0.66140
ROOT
ATOM      1  CA  ARG D 692      10.313 -11.591  35.352  1.00 48.73 LIG 0.18  C 
ENDROOT
BRANCH 1 2
ATOM      2  C   ARG D 692       8.817 -11.662  35.614  1.00 46.10 LIG 0.24  C 
ATOM      3  N   LEU D 693       8.349 -12.731  36.252  1.00 50.64 LIG-0.35  N 
ATOM      4 H    LEU D 693       8.827 -13.382  36.547  1.00 50.64 LIG 0.16  HD
ATOM      5 O    ARG D 692       8.067 -10.797  35.165  1.00 52.04 LIG-0.27  OA
BRANCH 3 6
ATOM      6  CA  LEU D 693       6.907 -12.847  36.492  1.00 43.34 LIG 0.18  C 
BRANCH 6 7
ATOM      7  C   LEU D 693       6.589 -13.133  37.953  1.00 37.95 LIG 0.24  C 
ATOM      8  N   LEU D 694       5.344 -12.927  38.331  1.00 39.22 LIG-0.35  N 
ATOM      9 H    LEU D 694       4.738 -12.604  37.814  1.00 39.22 LIG 0.16  HD
ATOM     10 O    LEU D 693       7.479 -13.508  38.725  1.00 43.86 LIG-0.27  OA
BRANCH 8 11
ATOM     11  CA  LEU D 694       4.881 -13.229  39.660  1.00 38.59 LIG 0.18  C 
BRANCH 11 12
ATOM     12  C   LEU D 694       3.976 -14.416  39.595  1.00 46.22 LIG 0.24  C 
ATOM     13  N   GLN D 695       4.469 -15.522  40.123  1.00 66.87 LIG-0.35  N 
ATOM     14 H    GLN D 695       5.283 -15.559  40.397  1.00 66.87 LIG 0.16  HD
ATOM     15 O    LEU D 694       2.913 -14.328  39.038  1.00 54.70 LIG-0.27  OA
BRANCH 13 16
ATOM     16  CA  GLN D 695       3.767 -16.797  40.323  1.00 62.86 LIG 0.16  C 
BRANCH 16 17
ATOM     17  CB  GLN D 695       4.596 -17.948  39.822  1.00 63.26 LIG 0.04  C 
BRANCH 17 18
ATOM     18  CG  GLN D 695       4.545 -18.052  38.321  1.00 77.24 LIG 0.10  C 
BRANCH 18 19
ATOM     19  CD  GLN D 695       5.238 -16.937  37.650  1.00 84.08 LIG 0.21  C 
ATOM     20 OE1  GLN D 695       4.728 -16.381  36.697  1.00 83.40 LIG-0.27  OA
ATOM     21  NE2 GLN D 695       6.406 -16.579  38.148  1.00 79.17 LIG-0.37  N 
ATOM     22 22HE GLN D 695       6.840 -15.925  37.798  1.00 79.17 LIG 0.16  HD
ATOM     23 21HE GLN D 695       6.732 -16.998  38.824  1.00 79.17 LIG 0.16  HD
ENDBRANCH 18 19
ENDBRANCH 17 18
ENDBRANCH 16 17
BRANCH 16 24
ATOM     24  C   GLN D 695       3.228 -17.070  41.726  1.00 61.14 LIG 0.22  C 
ATOM     25 O    GLN D 695       2.168 -16.565  42.106  1.00 66.66 LIG-0.29  OA
ENDBRANCH 16 24
ENDBRANCH 13 16
ENDBRANCH 11 12
BRANCH 11 26
ATOM     26  CB  LEU D 694       4.089 -12.079  40.245  1.00 34.51 LIG 0.04  C 
BRANCH 26 27
ATOM     27  CG  LEU D 694       4.585 -11.364  41.477  1.00 27.71 LIG-0.02  C 
ATOM     28  CD2 LEU D 694       5.541 -10.251  41.169  1.00 26.48 LIG 0.01  C 
ATOM     29  CD1 LEU D 694       5.124 -12.292  42.527  1.00 27.00 LIG 0.01  C 
ENDBRANCH 26 27
ENDBRANCH 11 26
ENDBRANCH 8 11
ENDBRANCH 6 7
BRANCH 6 30
ATOM     30  CB  LEU D 693       6.247 -13.892  35.576  1.00 45.67 LIG 0.04  C 
BRANCH 30 31
ATOM     31  CG  LEU D 693       5.728 -13.371  34.226  1.00 55.29 LIG-0.02  C 
ATOM     32  CD1 LEU D 693       4.770 -12.205  34.426  1.00 47.80 LIG 0.01  C 
ATOM     33  CD2 LEU D 693       6.870 -13.004  33.266  1.00 51.02 LIG 0.01  C 
ENDBRANCH 30 31
ENDBRANCH 6 30
ENDBRANCH 3 6
ENDBRANCH 1 2
BRANCH 1 34
ATOM     34  CB  ARG D 692      10.547 -11.660  33.828  1.00 49.09 LIG 0.04  C 
BRANCH 34 35
ATOM     35  CG  ARG D 692      11.837 -10.919  33.425  1.00 50.62 LIG 0.02  C 
BRANCH 35 36
ATOM     36  CD  ARG D 692      12.910 -10.880  34.503  1.00 57.04 LIG 0.14  C 
BRANCH 36 37
ATOM     37  NE  ARG D 692      14.149 -11.416  33.973  1.00 60.90 LIG-0.23  N 
ATOM     38 HE   ARG D 692      14.177 -11.599  33.133  1.00 60.90 LIG 0.18  HD
ATOM     39  CZ  ARG D 692      15.241 -11.646  34.687  1.00 61.50 LIG 0.67  C 
ATOM     40  NH1 ARG D 692      15.232 -11.471  36.008  1.00 46.48 LIG-0.23  N 
ATOM     41  NH2 ARG D 692      16.330 -12.098  34.080  1.00 64.68 LIG-0.23  N 
ATOM     42 1HH1 ARG D 692      14.514 -11.207  36.401  1.00 46.48 LIG 0.17  HD
ATOM     43 2HH1 ARG D 692      15.944 -11.622  36.466  1.00 46.48 LIG 0.17  HD
ATOM     44 1HH2 ARG D 692      16.323 -12.238  33.231  1.00 64.68 LIG 0.17  HD
ATOM     45 2HH2 ARG D 692      17.044 -12.250  34.534  1.00 64.68 LIG 0.17  HD
ENDBRANCH 36 37
ENDBRANCH 35 36
ENDBRANCH 34 35
ENDBRANCH 1 34
BRANCH 1 46
ATOM     46  N   ARG D 692      11.142 -12.567  36.098  1.00 43.06 LIG-0.35  N 
ATOM     47  C   HIS D 691      11.352 -12.455  37.399  1.00 44.11 LIG 0.24  C 
ATOM     48 O    HIS D 691      10.917 -11.533  38.073  1.00 43.39 LIG-0.27  OA
ATOM     49 H    ARG D 692      11.467 -13.199  35.613  1.00 43.06 LIG 0.16  HD
BRANCH 47 50
ATOM     50  CA  HIS D 691      12.159 -13.538  38.006  1.00 41.80 LIG 0.18  C 
BRANCH 50 51
ATOM     51  CB  HIS D 691      11.178 -14.532  38.527  1.00 51.00 LIG 0.10  C 
BRANCH 51 52
ATOM     52  CG  HIS D 691      10.500 -15.320  37.484  1.00 57.86 LIG 0.06  A 
ATOM     53 ND1  HIS D 691       9.196 -15.251  37.279  1.00 60.60 LIG-0.24  NA
ATOM     54  CE1 HIS D 691       8.864 -16.068  36.285  1.00 72.50 LIG 0.23  A 
ATOM     55 NE2  HIS D 691       9.967 -16.682  35.864  1.00 67.35 LIG-0.25  NA
ATOM     56  CD2 HIS D 691      10.992 -16.247  36.585  1.00 66.29 LIG 0.14  A 
ENDBRANCH 51 52
ENDBRANCH 50 51
BRANCH 50 57
ATOM     57  N   HIS D 691      12.960 -13.039  39.101  1.00 39.94 LIG-0.35  N 
ATOM     58 H    HIS D 691      12.499 -12.792  39.784  1.00 39.94 LIG 0.16  HD
ATOM     59  C   LEU D 690      14.280 -12.972  39.052  1.00 35.88 LIG 0.24  C 
ATOM     60 O    LEU D 690      14.949 -13.353  38.067  1.00 34.66 LIG-0.27  OA
BRANCH 59 61
ATOM     61  CA  LEU D 690      14.969 -12.344  40.242  1.00 33.43 LIG 0.18  C 
BRANCH 61 62
ATOM     62  CB  LEU D 690      15.028 -10.827  40.064  1.00 31.34 LIG 0.04  C 
BRANCH 62 63
ATOM     63  CG  LEU D 690      14.269  -9.992  41.089  1.00 30.93 LIG-0.02  C 
ATOM     64  CD1 LEU D 690      12.928 -10.640  41.397  1.00 30.90 LIG 0.01  C 
ATOM     65  CD2 LEU D 690      15.085  -9.881  42.363  1.00 28.62 LIG 0.01  C 
ENDBRANCH 62 63
ENDBRANCH 61 62
BRANCH 61 66
ATOM     66  N   LEU D 690      16.321 -12.879  40.417  1.00 35.22 LIG-0.35  N 
ATOM     67 H    LEU D 690      16.806 -12.855  39.708  1.00 35.22 LIG 0.16  HD
ATOM     68  C   ILE D 689      16.740 -13.353  41.584  1.00 41.04 LIG 0.26  C 
ATOM     69 O    ILE D 689      16.040 -13.324  42.608  1.00 39.56 LIG-0.27  OA
BRANCH 68 70
ATOM     70  CA  ILE D 689      18.183 -13.900  41.608  1.00 40.35 LIG 0.40  C 
ATOM     71  N   ILE D 689      18.662 -14.337  40.237  1.00 40.45 LIG 0.61  N 
BRANCH 70 72
ATOM     72  CB  ILE D 689      19.087 -12.803  42.222  1.00 42.26 LIG 0.03  C 
ATOM     73  CG2 ILE D 689      20.545 -12.973  41.759  1.00 38.55 LIG 0.01  C 
BRANCH 72 74
ATOM     74  CG1 ILE D 689      18.558 -11.400  41.913  1.00 45.91 LIG 0.00  C 
ATOM     75  CD1 ILE D 689      19.545 -10.502  41.168  1.00 45.96 LIG 0.01  C 
ENDBRANCH 72 74
ENDBRANCH 70 72
ENDBRANCH 68 70
ENDBRANCH 61 66
ENDBRANCH 59 61
ENDBRANCH 50 57
ENDBRANCH 47 50
ENDBRANCH 1 46
TORSDOF 30
ENDMDL
MODEL 62
USER: ADFR SOLUTION from run 41
USER: SCORE 21.313187 LL:  -7.341 LR: -14.837 RR:   0.000 FEB:  -5.888
USER: RMSD 7.671869
USER: SEED 40
USER: STATUS no improvement in best in 31 clusters for 5 generations
USER: GENES 32
USER: genes 0 Translation |==|  0.69598 0.73768 0.38437
USER: genes 1 Rotation |==|  0.01911 0.61313 0.54151 0.56499
USER: genes 2 Torsion [N]-CA--C-[N] |==|  0.88430
USER: genes 3 Torsion [C]-N--CA-[C] |==|  0.66320
USER: genes 4 Torsion [N]-CA--C-[N] |==|  0.26687
USER: genes 5 Torsion [C]-N--CA-[C] |==|  0.82603
USER: genes 6 Torsion [N]-CA--C-[N] |==|  0.90149
USER: genes 7 Torsion [C]-N--CA-[CB] |==|  0.57309
USER: genes 8 Torsion [N]-CA--CB-[CG] |==|  0.17187
USER: genes 9 Torsion [CA]-CB--CG-[CD] |==|  0.42816
USER: genes 10 Torsion [CB]-CG--CD-[NE2] |==|  0.68939
USER: genes 11 Torsion [N]-CA--C-[O] |==|  0.45873
USER: genes 12 Torsion [N]-CA--CB-[CG] |==|  0.79008
USER: genes 13 Torsion [CA]-CB--CG-[CD2] |==|  0.40952
USER: genes 14 Torsion [N]-CA--CB-[CG] |==|  0.77871
USER: genes 15 Torsion [CA]-CB--CG-[CD1] |==|  0.86177
USER: genes 16 Torsion [C]-CA--CB-[CG] |==|  0.76951
USER: genes 17 Torsion [CA]-CB--CG-[CD] |==|  0.66723
USER: genes 18 Torsion [CB]-CG--CD-[NE] |==|  0.71130
USER: genes 19 Torsion [CG]-CD--NE-[CZ] |==|  0.35278
USER: genes 20 Torsion [C]-CA--N-[C] |==|  0.86504
USER: genes 21 Torsion [N]-C--CA-[N] |==|  0.90424
USER: genes 22 Torsion [C]-CA--CB-[CG] |==|  0.22752
USER: genes 23 Torsion [CA]-CB--CG-[ND1] |==|  0.82132
USER: genes 24 Torsion [C]-CA--N-[C] |==|  0.84213
USER: genes 25 Torsion [N]-C--CA-[N] |==|  0.07960
USER: genes 26 Torsion [C]-CA--CB-[CG] |==|  0.24916
USER: genes 27 Torsion [CA]-CB--CG-[CD2] |==|  0.02737
USER: genes 28 Torsion [C]-CA--N-[C] |==|  0.71333
USER: genes 29 Torsion [N]-C--CA-[N] |==|  0.54785
USER: genes 30 Torsion [C]-CA--CB-[CG1] |==|  0.82579
USER: genes 31 Torsion [CA]-CB--CG1-[CD1] |==|  0.50924
ROOT
ATOM      1  CA  ARG D 692      14.013 -10.546  36.664  1.00 48.73 LIG 0.18  C 
ENDROOT
BRANCH 1 2
ATOM      2  C   ARG D 692      12.522 -10.766  36.463  1.00 46.10 LIG 0.24  C 
ATOM      3  N   LEU D 693      12.070 -12.017  36.495  1.00 50.64 LIG-0.35  N 
ATOM      4 H    LEU D 693      12.551 -12.714  36.639  1.00 50.64 LIG 0.16  HD
ATOM      5 O    ARG D 692      11.787  -9.819  36.188  1.00 52.04 LIG-0.27  OA
BRANCH 3 6
ATOM      6  CA  LEU D 693      10.643 -12.267  36.271  1.00 43.34 LIG 0.18  C 
BRANCH 6 7
ATOM      7  C   LEU D 693       9.993 -12.979  37.450  1.00 37.95 LIG 0.24  C 
ATOM      8  N   LEU D 694       9.376 -12.213  38.327  1.00 39.22 LIG-0.35  N 
ATOM      9 H    LEU D 694       9.368 -11.355  38.285  1.00 39.22 LIG 0.16  HD
ATOM     10 O    LEU D 693      10.082 -14.207  37.565  1.00 43.86 LIG-0.27  OA
BRANCH 8 11
ATOM     11  CA  LEU D 694       8.652 -12.753  39.447  1.00 38.59 LIG 0.18  C 
BRANCH 11 12
ATOM     12  C   LEU D 694       7.518 -13.579  38.933  1.00 46.22 LIG 0.24  C 
ATOM     13  N   GLN D 695       6.952 -13.124  37.830  1.00 66.87 LIG-0.35  N 
ATOM     14 H    GLN D 695       7.174 -12.363  37.499  1.00 66.87 LIG 0.16  HD
ATOM     15 O    LEU D 694       7.152 -14.543  39.553  1.00 54.70 LIG-0.27  OA
BRANCH 13 16
ATOM     16  CA  GLN D 695       5.916 -13.787  37.028  1.00 62.86 LIG 0.16  C 
BRANCH 16 17
ATOM     17  CB  GLN D 695       5.975 -13.332  35.595  1.00 63.26 LIG 0.04  C 
BRANCH 17 18
ATOM     18  CG  GLN D 695       7.292 -13.687  34.959  1.00 77.24 LIG 0.10  C 
BRANCH 18 19
ATOM     19  CD  GLN D 695       7.196 -13.830  33.495  1.00 84.08 LIG 0.21  C 
ATOM     20 OE1  GLN D 695       6.996 -12.857  32.794  1.00 83.40 LIG-0.27  OA
ATOM     21  NE2 GLN D 695       7.355 -15.045  33.006  1.00 79.17 LIG-0.37  N 
ATOM     22 22HE GLN D 695       7.320 -15.174  32.156  1.00 79.17 LIG 0.16  HD
ATOM     23 21HE GLN D 695       7.494 -15.707  33.536  1.00 79.17 LIG 0.16  HD
ENDBRANCH 18 19
ENDBRANCH 17 18
ENDBRANCH 16 17
BRANCH 16 24
ATOM     24  C   GLN D 695       5.844 -15.310  37.125  1.00 61.14 LIG 0.22  C 
ATOM     25 O    GLN D 695       4.856 -15.925  36.714  1.00 66.66 LIG-0.29  OA
ENDBRANCH 16 24
ENDBRANCH 13 16
ENDBRANCH 11 12
BRANCH 11 26
ATOM     26  CB  LEU D 694       8.066 -11.654  40.308  1.00 34.51 LIG 0.04  C 
BRANCH 26 27
ATOM     27  CG  LEU D 694       8.953 -10.859  41.233  1.00 27.71 LIG-0.02  C 
ATOM     28  CD2 LEU D 694       8.507  -9.437  41.402  1.00 26.48 LIG 0.01  C 
ATOM     29  CD1 LEU D 694      10.411 -10.952  40.885  1.00 27.00 LIG 0.01  C 
ENDBRANCH 26 27
ENDBRANCH 11 26
ENDBRANCH 8 11
ENDBRANCH 6 7
BRANCH 6 30
ATOM     30  CB  LEU D 693      10.386 -13.034  34.962  1.00 45.67 LIG 0.04  C 
BRANCH 30 31
ATOM     31  CG  LEU D 693      10.416 -12.195  33.675  1.00 55.29 LIG-0.02  C 
ATOM     32  CD1 LEU D 693       9.541 -10.956  33.813  1.00 47.80 LIG 0.01  C 
ATOM     33  CD2 LEU D 693      11.846 -11.831  33.251  1.00 51.02 LIG 0.01  C 
ENDBRANCH 30 31
ENDBRANCH 6 30
ENDBRANCH 3 6
ENDBRANCH 1 2
BRANCH 1 34
ATOM     34  CB  ARG D 692      14.719 -10.692  35.300  1.00 49.09 LIG 0.04  C 
BRANCH 34 35
ATOM     35  CG  ARG D 692      14.995 -12.172  34.967  1.00 50.62 LIG 0.02  C 
BRANCH 35 36
ATOM     36  CD  ARG D 692      16.465 -12.516  34.780  1.00 57.04 LIG 0.14  C 
BRANCH 36 37
ATOM     37  NE  ARG D 692      16.751 -12.667  33.366  1.00 60.90 LIG-0.23  N 
ATOM     38 HE   ARG D 692      16.258 -13.208  32.915  1.00 60.90 LIG 0.18  HD
ATOM     39  CZ  ARG D 692      17.717 -12.033  32.718  1.00 61.50 LIG 0.67  C 
ATOM     40  NH1 ARG D 692      18.572 -11.253  33.377  1.00 46.48 LIG-0.23  N 
ATOM     41  NH2 ARG D 692      17.853 -12.221  31.411  1.00 64.68 LIG-0.23  N 
ATOM     42 1HH1 ARG D 692      18.498 -11.159  34.229  1.00 46.48 LIG 0.17  HD
ATOM     43 2HH1 ARG D 692      19.197 -10.845  32.951  1.00 46.48 LIG 0.17  HD
ATOM     44 1HH2 ARG D 692      17.317 -12.749  30.995  1.00 64.68 LIG 0.17  HD
ATOM     45 2HH2 ARG D 692      18.476 -11.814  30.981  1.00 64.68 LIG 0.17  HD
ENDBRANCH 36 37
ENDBRANCH 35 36
ENDBRANCH 34 35
ENDBRANCH 1 34
BRANCH 1 46
ATOM     46  N   ARG D 692      14.646 -11.368  37.722  1.00 43.06 LIG-0.35  N 
ATOM     47  C   HIS D 691      14.124 -11.472  38.932  1.00 44.11 LIG 0.24  C 
ATOM     48 O    HIS D 691      13.114 -10.879  39.282  1.00 43.39 LIG-0.27  OA
ATOM     49 H    ARG D 692      15.371 -11.762  37.477  1.00 43.06 LIG 0.16  HD
BRANCH 47 50
ATOM     50  CA  HIS D 691      14.847 -12.372  39.859  1.00 41.80 LIG 0.18  C 
BRANCH 50 51
ATOM     51  CB  HIS D 691      15.946 -11.555  40.446  1.00 51.00 LIG 0.10  C 
BRANCH 51 52
ATOM     52  CG  HIS D 691      15.533 -10.701  41.573  1.00 57.86 LIG 0.06  A 
ATOM     53 ND1  HIS D 691      14.670  -9.710  41.431  1.00 60.60 LIG-0.24  NA
ATOM     54  CE1 HIS D 691      14.490  -9.115  42.607  1.00 72.50 LIG 0.23  A 
ATOM     55 NE2  HIS D 691      15.263  -9.720  43.503  1.00 67.35 LIG-0.25  NA
ATOM     56  CD2 HIS D 691      15.923 -10.699  42.898  1.00 66.29 LIG 0.14  A 
ENDBRANCH 51 52
ENDBRANCH 50 51
BRANCH 50 57
ATOM     57  N   HIS D 691      15.416 -13.499  39.153  1.00 39.94 LIG-0.35  N 
ATOM     58 H    HIS D 691      16.267 -13.579  39.254  1.00 39.94 LIG 0.16  HD
ATOM     59  C   LEU D 690      14.690 -14.328  38.421  1.00 35.88 LIG 0.24  C 
ATOM     60 O    LEU D 690      13.451 -14.223  38.294  1.00 34.66 LIG-0.27  OA
BRANCH 59 61
ATOM     61  CA  LEU D 690      15.443 -15.404  37.673  1.00 33.43 LIG 0.18  C 
BRANCH 61 62
ATOM     62  CB  LEU D 690      14.553 -16.637  37.507  1.00 31.34 LIG 0.04  C 
BRANCH 62 63
ATOM     63  CG  LEU D 690      13.685 -16.686  36.255  1.00 30.93 LIG-0.02  C 
ATOM     64  CD1 LEU D 690      12.220 -16.529  36.632  1.00 30.90 LIG 0.01  C 
ATOM     65  CD2 LEU D 690      14.089 -15.571  35.308  1.00 28.62 LIG 0.01  C 
ENDBRANCH 62 63
ENDBRANCH 61 62
BRANCH 61 66
ATOM     66  N   LEU D 690      16.678 -15.771  38.367  1.00 35.22 LIG-0.35  N 
ATOM     67 H    LEU D 690      16.563 -16.276  39.054  1.00 35.22 LIG 0.16  HD
ATOM     68  C   ILE D 689      17.866 -15.346  37.953  1.00 41.04 LIG 0.26  C 
ATOM     69 O    ILE D 689      18.012 -14.664  36.928  1.00 39.56 LIG-0.27  OA
BRANCH 68 70
ATOM     70  CA  ILE D 689      19.074 -15.800  38.800  1.00 40.35 LIG 0.40  C 
ATOM     71  N   ILE D 689      20.313 -14.968  38.537  1.00 40.45 LIG 0.61  N 
BRANCH 70 72
ATOM     72  CB  ILE D 689      18.643 -15.757  40.287  1.00 42.26 LIG 0.03  C 
ATOM     73  CG2 ILE D 689      19.727 -16.377  41.188  1.00 38.55 LIG 0.01  C 
BRANCH 72 74
ATOM     74  CG1 ILE D 689      18.288 -14.335  40.729  1.00 45.91 LIG 0.00  C 
ATOM     75  CD1 ILE D 689      17.929 -14.204  42.209  1.00 45.96 LIG 0.01  C 
ENDBRANCH 72 74
ENDBRANCH 70 72
ENDBRANCH 68 70
ENDBRANCH 61 66
ENDBRANCH 59 61
ENDBRANCH 50 57
ENDBRANCH 47 50
ENDBRANCH 1 46
TORSDOF 30
ENDMDL
MODEL 63
USER: ADFR SOLUTION from run 177
USER: SCORE 20.385335 LL:  -6.625 LR: -14.810 RR:   0.000 FEB:  -5.861
USER: RMSD 7.212699
USER: SEED 176
USER: STATUS no improvement in best in 47 clusters for 5 generations
USER: GENES 32
USER: genes 0 Translation |==|  0.53565 0.68460 0.31898
USER: genes 1 Rotation |==|  0.04657 0.63304 0.65339 0.55632
USER: genes 2 Torsion [N]-CA--C-[N] |==|  0.99325
USER: genes 3 Torsion [C]-N--CA-[C] |==|  0.65626
USER: genes 4 Torsion [N]-CA--C-[N] |==|  0.13213
USER: genes 5 Torsion [C]-N--CA-[C] |==|  0.78681
USER: genes 6 Torsion [N]-CA--C-[N] |==|  0.22611
USER: genes 7 Torsion [C]-N--CA-[CB] |==|  0.43143
USER: genes 8 Torsion [N]-CA--CB-[CG] |==|  0.77563
USER: genes 9 Torsion [CA]-CB--CG-[CD] |==|  0.73483
USER: genes 10 Torsion [CB]-CG--CD-[NE2] |==|  0.83900
USER: genes 11 Torsion [N]-CA--C-[O] |==|  0.32432
USER: genes 12 Torsion [N]-CA--CB-[CG] |==|  0.87170
USER: genes 13 Torsion [CA]-CB--CG-[CD2] |==|  0.84891
USER: genes 14 Torsion [N]-CA--CB-[CG] |==|  0.72432
USER: genes 15 Torsion [CA]-CB--CG-[CD1] |==|  0.89573
USER: genes 16 Torsion [C]-CA--CB-[CG] |==|  0.50759
USER: genes 17 Torsion [CA]-CB--CG-[CD] |==|  0.93912
USER: genes 18 Torsion [CB]-CG--CD-[NE] |==|  0.48248
USER: genes 19 Torsion [CG]-CD--NE-[CZ] |==|  0.58051
USER: genes 20 Torsion [C]-CA--N-[C] |==|  0.79909
USER: genes 21 Torsion [N]-C--CA-[N] |==|  0.97337
USER: genes 22 Torsion [C]-CA--CB-[CG] |==|  0.22831
USER: genes 23 Torsion [CA]-CB--CG-[ND1] |==|  0.10486
USER: genes 24 Torsion [C]-CA--N-[C] |==|  0.80950
USER: genes 25 Torsion [N]-C--CA-[N] |==|  0.00305
USER: genes 26 Torsion [C]-CA--CB-[CG] |==|  0.41234
USER: genes 27 Torsion [CA]-CB--CG-[CD2] |==|  0.33882
USER: genes 28 Torsion [C]-CA--N-[C] |==|  0.79444
USER: genes 29 Torsion [N]-C--CA-[N] |==|  0.39523
USER: genes 30 Torsion [C]-CA--CB-[CG1] |==|  0.51644
USER: genes 31 Torsion [CA]-CB--CG1-[CD1] |==|  0.61190
ROOT
ATOM      1  CA  ARG D 692      10.405 -11.541  35.389  1.00 48.73 LIG 0.18  C 
ENDROOT
BRANCH 1 2
ATOM      2  C   ARG D 692       8.970 -11.711  35.861  1.00 46.10 LIG 0.24  C 
ATOM      3  N   LEU D 693       8.714 -12.687  36.728  1.00 50.64 LIG-0.35  N 
ATOM      4 H    LEU D 693       9.299 -13.222  37.060  1.00 50.64 LIG 0.16  HD
ATOM      5 O    ARG D 692       8.073 -11.022  35.379  1.00 52.04 LIG-0.27  OA
BRANCH 3 6
ATOM      6  CA  LEU D 693       7.335 -12.900  37.177  1.00 43.34 LIG 0.18  C 
BRANCH 6 7
ATOM      7  C   LEU D 693       7.209 -12.834  38.694  1.00 37.95 LIG 0.24  C 
ATOM      8  N   LEU D 694       7.795 -11.812  39.285  1.00 39.22 LIG-0.35  N 
ATOM      9 H    LEU D 694       8.269 -11.230  38.867  1.00 39.22 LIG 0.16  HD
ATOM     10 O    LEU D 693       6.608 -13.721  39.310  1.00 43.86 LIG-0.27  OA
BRANCH 8 11
ATOM     11  CA  LEU D 694       7.693 -11.579  40.701  1.00 38.59 LIG 0.18  C 
BRANCH 11 12
ATOM     12  C   LEU D 694       6.348 -10.999  40.997  1.00 46.22 LIG 0.24  C 
ATOM     13  N   GLN D 695       5.369 -11.880  41.082  1.00 66.87 LIG-0.35  N 
ATOM     14 H    GLN D 695       5.498 -12.708  40.891  1.00 66.87 LIG 0.16  HD
ATOM     15 O    LEU D 694       6.217  -9.806  41.081  1.00 54.70 LIG-0.27  OA
BRANCH 13 16
ATOM     16  CA  GLN D 695       3.980 -11.625  41.489  1.00 62.86 LIG 0.16  C 
BRANCH 16 17
ATOM     17  CB  GLN D 695       3.055 -12.662  40.914  1.00 63.26 LIG 0.04  C 
BRANCH 17 18
ATOM     18  CG  GLN D 695       2.706 -12.355  39.482  1.00 77.24 LIG 0.10  C 
BRANCH 18 19
ATOM     19  CD  GLN D 695       1.434 -11.622  39.351  1.00 84.08 LIG 0.21  C 
ATOM     20 OE1  GLN D 695       1.399 -10.546  38.787  1.00 83.40 LIG-0.27  OA
ATOM     21  NE2 GLN D 695       0.360 -12.203  39.853  1.00 79.17 LIG-0.37  N 
ATOM     22 22HE GLN D 695      -0.406 -11.818  39.788  1.00 79.17 LIG 0.16  HD
ATOM     23 21HE GLN D 695       0.427 -12.965  40.245  1.00 79.17 LIG 0.16  HD
ENDBRANCH 18 19
ENDBRANCH 17 18
ENDBRANCH 16 17
BRANCH 16 24
ATOM     24  C   GLN D 695       3.730 -11.424  42.982  1.00 61.14 LIG 0.22  C 
ATOM     25 O    GLN D 695       3.302 -10.350  43.414  1.00 66.66 LIG-0.29  OA
ENDBRANCH 16 24
ENDBRANCH 13 16
ENDBRANCH 11 12
BRANCH 11 26
ATOM     26  CB  LEU D 694       8.735 -10.587  41.174  1.00 34.51 LIG 0.04  C 
BRANCH 26 27
ATOM     27  CG  LEU D 694      10.169 -10.721  40.728  1.00 27.71 LIG-0.02  C 
ATOM     28  CD2 LEU D 694      10.752 -12.073  41.012  1.00 26.48 LIG 0.01  C 
ATOM     29  CD1 LEU D 694      11.053  -9.613  41.224  1.00 27.00 LIG 0.01  C 
ENDBRANCH 26 27
ENDBRANCH 11 26
ENDBRANCH 8 11
ENDBRANCH 6 7
BRANCH 6 30
ATOM     30  CB  LEU D 693       6.743 -14.213  36.638  1.00 45.67 LIG 0.04  C 
BRANCH 30 31
ATOM     31  CG  LEU D 693       5.833 -14.085  35.406  1.00 55.29 LIG-0.02  C 
ATOM     32  CD1 LEU D 693       4.981 -12.826  35.489  1.00 47.80 LIG 0.01  C 
ATOM     33  CD2 LEU D 693       6.623 -14.145  34.090  1.00 51.02 LIG 0.01  C 
ENDBRANCH 30 31
ENDBRANCH 6 30
ENDBRANCH 3 6
ENDBRANCH 1 2
BRANCH 1 34
ATOM     34  CB  ARG D 692      10.423 -11.590  33.847  1.00 49.09 LIG 0.04  C 
BRANCH 34 35
ATOM     35  CG  ARG D 692      11.861 -11.491  33.299  1.00 50.62 LIG 0.02  C 
BRANCH 35 36
ATOM     36  CD  ARG D 692      12.862 -10.860  34.255  1.00 57.04 LIG 0.14  C 
BRANCH 36 37
ATOM     37  NE  ARG D 692      14.196 -10.957  33.693  1.00 60.90 LIG-0.23  N 
ATOM     38 HE   ARG D 692      14.267 -10.967  32.836  1.00 60.90 LIG 0.18  HD
ATOM     39  CZ  ARG D 692      15.312 -11.032  34.403  1.00 61.50 LIG 0.67  C 
ATOM     40  NH1 ARG D 692      15.262 -11.114  35.731  1.00 46.48 LIG-0.23  N 
ATOM     41  NH2 ARG D 692      16.479 -11.073  33.773  1.00 64.68 LIG-0.23  N 
ATOM     42 1HH1 ARG D 692      14.501 -11.118  36.133  1.00 46.48 LIG 0.17  HD
ATOM     43 2HH1 ARG D 692      15.990 -11.163  36.186  1.00 46.48 LIG 0.17  HD
ATOM     44 1HH2 ARG D 692      16.505 -11.050  32.914  1.00 64.68 LIG 0.17  HD
ATOM     45 2HH2 ARG D 692      17.209 -11.122  34.224  1.00 64.68 LIG 0.17  HD
ENDBRANCH 36 37
ENDBRANCH 35 36
ENDBRANCH 34 35
ENDBRANCH 1 34
BRANCH 1 46
ATOM     46  N   ARG D 692      11.395 -12.461  35.997  1.00 43.06 LIG-0.35  N 
ATOM     47  C   HIS D 691      11.788 -12.334  37.253  1.00 44.11 LIG 0.24  C 
ATOM     48 O    HIS D 691      11.401 -11.439  37.991  1.00 43.39 LIG-0.27  OA
ATOM     49 H    ARG D 692      11.682 -13.074  35.465  1.00 43.06 LIG 0.16  HD
BRANCH 47 50
ATOM     50  CA  HIS D 691      12.741 -13.363  37.727  1.00 41.80 LIG 0.18  C 
BRANCH 50 51
ATOM     51  CB  HIS D 691      14.052 -12.669  37.871  1.00 51.00 LIG 0.10  C 
BRANCH 51 52
ATOM     52  CG  HIS D 691      14.210 -11.928  39.134  1.00 57.86 LIG 0.06  A 
ATOM     53 ND1  HIS D 691      13.740 -12.379  40.284  1.00 60.60 LIG-0.24  NA
ATOM     54  CE1 HIS D 691      14.024 -11.506  41.246  1.00 72.50 LIG 0.23  A 
ATOM     55 NE2  HIS D 691      14.663 -10.476  40.698  1.00 67.35 LIG-0.25  NA
ATOM     56  CD2 HIS D 691      14.790 -10.702  39.398  1.00 66.29 LIG 0.14  A 
ENDBRANCH 51 52
ENDBRANCH 50 51
BRANCH 50 57
ATOM     57  N   HIS D 691      12.872 -14.434  36.764  1.00 39.94 LIG-0.35  N 
ATOM     58 H    HIS D 691      13.641 -14.464  36.380  1.00 39.94 LIG 0.16  HD
ATOM     59  C   LEU D 690      11.895 -15.287  36.501  1.00 35.88 LIG 0.24  C 
ATOM     60 O    LEU D 690      10.785 -15.254  37.076  1.00 34.66 LIG-0.27  OA
BRANCH 59 61
ATOM     61  CA  LEU D 690      12.155 -16.295  35.406  1.00 33.43 LIG 0.18  C 
BRANCH 61 62
ATOM     62  CB  LEU D 690      11.980 -17.711  35.955  1.00 31.34 LIG 0.04  C 
BRANCH 62 63
ATOM     63  CG  LEU D 690      11.471 -18.763  34.976  1.00 30.93 LIG-0.02  C 
ATOM     64  CD1 LEU D 690      11.275 -18.141  33.602  1.00 30.90 LIG 0.01  C 
ATOM     65  CD2 LEU D 690      12.471 -19.900  34.881  1.00 28.62 LIG 0.01  C 
ENDBRANCH 62 63
ENDBRANCH 61 62
BRANCH 61 66
ATOM     66  N   LEU D 690      13.499 -16.139  34.847  1.00 35.22 LIG-0.35  N 
ATOM     67 H    LEU D 690      14.055 -16.750  35.085  1.00 35.22 LIG 0.16  HD
ATOM     68  C   ILE D 689      13.808 -15.130  34.041  1.00 41.04 LIG 0.26  C 
ATOM     69 O    ILE D 689      12.974 -14.293  33.667  1.00 39.56 LIG-0.27  OA
BRANCH 68 70
ATOM     70  CA  ILE D 689      15.270 -15.089  33.548  1.00 40.35 LIG 0.40  C 
ATOM     71  N   ILE D 689      15.386 -14.630  32.108  1.00 40.45 LIG 0.61  N 
BRANCH 70 72
ATOM     72  CB  ILE D 689      16.064 -14.181  34.519  1.00 42.26 LIG 0.03  C 
ATOM     73  CG2 ILE D 689      16.032 -14.751  35.949  1.00 38.55 LIG 0.01  C 
BRANCH 72 74
ATOM     74  CG1 ILE D 689      17.499 -13.958  34.033  1.00 45.91 LIG 0.00  C 
ATOM     75  CD1 ILE D 689      18.552 -13.983  35.141  1.00 45.96 LIG 0.01  C 
ENDBRANCH 72 74
ENDBRANCH 70 72
ENDBRANCH 68 70
ENDBRANCH 61 66
ENDBRANCH 59 61
ENDBRANCH 50 57
ENDBRANCH 47 50
ENDBRANCH 1 46
TORSDOF 30
ENDMDL
MODEL 64
USER: ADFR SOLUTION from run 181
USER: SCORE 21.018540 LL:  -6.920 LR: -14.801 RR:   0.000 FEB:  -5.852
USER: RMSD 6.383415
USER: SEED 180
USER: STATUS no improvement in best in 24 clusters for 5 generations
USER: GENES 32
USER: genes 0 Translation |==|  0.52642 0.67277 0.32888
USER: genes 1 Rotation |==|  0.03313 0.64696 0.59675 0.53285
USER: genes 2 Torsion [N]-CA--C-[N] |==|  0.94944
USER: genes 3 Torsion [C]-N--CA-[C] |==|  0.62839
USER: genes 4 Torsion [N]-CA--C-[N] |==|  0.41607
USER: genes 5 Torsion [C]-N--CA-[C] |==|  0.52462
USER: genes 6 Torsion [N]-CA--C-[N] |==|  0.40206
USER: genes 7 Torsion [C]-N--CA-[CB] |==|  0.85043
USER: genes 8 Torsion [N]-CA--CB-[CG] |==|  0.79221
USER: genes 9 Torsion [CA]-CB--CG-[CD] |==|  0.37910
USER: genes 10 Torsion [CB]-CG--CD-[NE2] |==|  0.23481
USER: genes 11 Torsion [N]-CA--C-[O] |==|  0.01074
USER: genes 12 Torsion [N]-CA--CB-[CG] |==|  0.06243
USER: genes 13 Torsion [CA]-CB--CG-[CD2] |==|  0.66890
USER: genes 14 Torsion [N]-CA--CB-[CG] |==|  0.75655
USER: genes 15 Torsion [CA]-CB--CG-[CD1] |==|  0.87351
USER: genes 16 Torsion [C]-CA--CB-[CG] |==|  0.40476
USER: genes 17 Torsion [CA]-CB--CG-[CD] |==|  0.10315
USER: genes 18 Torsion [CB]-CG--CD-[NE] |==|  0.35547
USER: genes 19 Torsion [CG]-CD--NE-[CZ] |==|  0.53306
USER: genes 20 Torsion [C]-CA--N-[C] |==|  0.83889
USER: genes 21 Torsion [N]-C--CA-[N] |==|  0.40409
USER: genes 22 Torsion [C]-CA--CB-[CG] |==|  0.17660
USER: genes 23 Torsion [CA]-CB--CG-[ND1] |==|  0.10050
USER: genes 24 Torsion [C]-CA--N-[C] |==|  0.80135
USER: genes 25 Torsion [N]-C--CA-[N] |==|  0.38106
USER: genes 26 Torsion [C]-CA--CB-[CG] |==|  0.25688
USER: genes 27 Torsion [CA]-CB--CG-[CD2] |==|  0.04570
USER: genes 28 Torsion [C]-CA--N-[C] |==|  0.77165
USER: genes 29 Torsion [N]-C--CA-[N] |==|  0.94044
USER: genes 30 Torsion [C]-CA--CB-[CG1] |==|  0.90235
USER: genes 31 Torsion [CA]-CB--CG1-[CD1] |==|  0.72882
ROOT
ATOM      1  CA  ARG D 692      10.197 -11.763  35.582  1.00 48.73 LIG 0.18  C 
ENDROOT
BRANCH 1 2
ATOM      2  C   ARG D 692       8.693 -11.826  35.791  1.00 46.10 LIG 0.24  C 
ATOM      3  N   LEU D 693       8.207 -12.845  36.496  1.00 50.64 LIG-0.35  N 
ATOM      4 H    LEU D 693       8.678 -13.464  36.860  1.00 50.64 LIG 0.16  HD
ATOM      5 O    ARG D 692       7.956 -11.008  35.244  1.00 52.04 LIG-0.27  OA
BRANCH 3 6
ATOM      6  CA  LEU D 693       6.758 -12.954  36.688  1.00 43.34 LIG 0.18  C 
BRANCH 6 7
ATOM      7  C   LEU D 693       6.392 -13.257  38.135  1.00 37.95 LIG 0.24  C 
ATOM      8  N   LEU D 694       5.233 -12.790  38.554  1.00 39.22 LIG-0.35  N 
ATOM      9 H    LEU D 694       4.717 -12.299  38.074  1.00 39.22 LIG 0.16  HD
ATOM     10 O    LEU D 693       7.173 -13.884  38.859  1.00 43.86 LIG-0.27  OA
BRANCH 8 11
ATOM     11  CA  LEU D 694       4.722 -13.066  39.871  1.00 38.59 LIG 0.18  C 
BRANCH 11 12
ATOM     12  C   LEU D 694       3.311 -12.580  39.950  1.00 46.22 LIG 0.24  C 
ATOM     13  N   GLN D 695       2.507 -13.321  40.690  1.00 66.87 LIG-0.35  N 
ATOM     14 H    GLN D 695       2.771 -14.070  41.020  1.00 66.87 LIG 0.16  HD
ATOM     15 O    LEU D 694       2.975 -11.614  39.316  1.00 54.70 LIG-0.27  OA
BRANCH 13 16
ATOM     16  CA  GLN D 695       1.116 -13.024  41.058  1.00 62.86 LIG 0.16  C 
BRANCH 16 17
ATOM     17  CB  GLN D 695       1.010 -11.666  41.697  1.00 63.26 LIG 0.04  C 
BRANCH 17 18
ATOM     18  CG  GLN D 695       1.536 -11.680  43.108  1.00 77.24 LIG 0.10  C 
BRANCH 18 19
ATOM     19  CD  GLN D 695       2.379 -10.509  43.411  1.00 84.08 LIG 0.21  C 
ATOM     20 OE1  GLN D 695       3.587 -10.576  43.294  1.00 83.40 LIG-0.27  OA
ATOM     21  NE2 GLN D 695       1.755  -9.410  43.788  1.00 79.17 LIG-0.37  N 
ATOM     22 22HE GLN D 695       2.205  -8.698  43.963  1.00 79.17 LIG 0.16  HD
ATOM     23 21HE GLN D 695       0.898  -9.404  43.859  1.00 79.17 LIG 0.16  HD
ENDBRANCH 18 19
ENDBRANCH 17 18
ENDBRANCH 16 17
BRANCH 16 24
ATOM     24  C   GLN D 695       0.065 -13.207  39.965  1.00 61.14 LIG 0.22  C 
ATOM     25 O    GLN D 695       0.374 -13.654  38.857  1.00 66.66 LIG-0.29  OA
ENDBRANCH 16 24
ENDBRANCH 13 16
ENDBRANCH 11 12
BRANCH 11 26
ATOM     26  CB  LEU D 694       5.517 -12.341  40.936  1.00 34.51 LIG 0.04  C 
BRANCH 26 27
ATOM     27  CG  LEU D 694       6.318 -11.113  40.581  1.00 27.71 LIG-0.02  C 
ATOM     28  CD2 LEU D 694       7.786 -11.270  40.840  1.00 26.48 LIG 0.01  C 
ATOM     29  CD1 LEU D 694       5.773  -9.852  41.188  1.00 27.00 LIG 0.01  C 
ENDBRANCH 26 27
ENDBRANCH 11 26
ENDBRANCH 8 11
ENDBRANCH 6 7
BRANCH 6 30
ATOM     30  CB  LEU D 693       6.122 -13.983  35.737  1.00 45.67 LIG 0.04  C 
BRANCH 30 31
ATOM     31  CG  LEU D 693       5.695 -13.452  34.360  1.00 55.29 LIG-0.02  C 
ATOM     32  CD1 LEU D 693       4.951 -12.131  34.493  1.00 47.80 LIG 0.01  C 
ATOM     33  CD2 LEU D 693       6.880 -13.336  33.389  1.00 51.02 LIG 0.01  C 
ENDBRANCH 30 31
ENDBRANCH 6 30
ENDBRANCH 3 6
ENDBRANCH 1 2
BRANCH 1 34
ATOM     34  CB  ARG D 692      10.500 -12.074  34.101  1.00 49.09 LIG 0.04  C 
BRANCH 34 35
ATOM     35  CG  ARG D 692      11.712 -11.268  33.595  1.00 50.62 LIG 0.02  C 
BRANCH 35 36
ATOM     36  CD  ARG D 692      12.827 -11.090  34.615  1.00 57.04 LIG 0.14  C 
BRANCH 36 37
ATOM     37  NE  ARG D 692      14.089 -11.506  34.031  1.00 60.90 LIG-0.23  N 
ATOM     38 HE   ARG D 692      14.109 -11.641  33.182  1.00 60.90 LIG 0.18  HD
ATOM     39  CZ  ARG D 692      15.211 -11.692  34.710  1.00 61.50 LIG 0.67  C 
ATOM     40  NH1 ARG D 692      15.222 -11.587  36.037  1.00 46.48 LIG-0.23  N 
ATOM     41  NH2 ARG D 692      16.315 -12.030  34.056  1.00 64.68 LIG-0.23  N 
ATOM     42 1HH1 ARG D 692      14.496 -11.397  36.459  1.00 46.48 LIG 0.17  HD
ATOM     43 2HH1 ARG D 692      15.954 -11.709  36.472  1.00 46.48 LIG 0.17  HD
ATOM     44 1HH2 ARG D 692      16.297 -12.126  33.201  1.00 64.68 LIG 0.17  HD
ATOM     45 2HH2 ARG D 692      17.049 -12.153  34.486  1.00 64.68 LIG 0.17  HD
ENDBRANCH 36 37
ENDBRANCH 35 36
ENDBRANCH 34 35
ENDBRANCH 1 34
BRANCH 1 46
ATOM     46  N   ARG D 692      11.010 -12.582  36.512  1.00 43.06 LIG-0.35  N 
ATOM     47  C   HIS D 691      10.950 -12.420  37.822  1.00 44.11 LIG 0.24  C 
ATOM     48 O    HIS D 691      10.258 -11.569  38.362  1.00 43.39 LIG-0.27  OA
ATOM     49 H    ARG D 692      11.514 -13.162  36.124  1.00 43.06 LIG 0.16  HD
BRANCH 47 50
ATOM     50  CA  HIS D 691      11.783 -13.351  38.616  1.00 41.80 LIG 0.18  C 
BRANCH 50 51
ATOM     51  CB  HIS D 691      10.876 -14.461  39.025  1.00 51.00 LIG 0.10  C 
BRANCH 51 52
ATOM     52  CG  HIS D 691      10.336 -15.249  37.904  1.00 57.86 LIG 0.06  A 
ATOM     53 ND1  HIS D 691      11.045 -15.518  36.822  1.00 60.60 LIG-0.24  NA
ATOM     54  CE1 HIS D 691      10.307 -16.236  35.981  1.00 72.50 LIG 0.23  A 
ATOM     55 NE2  HIS D 691       9.106 -16.410  36.526  1.00 67.35 LIG-0.25  NA
ATOM     56  CD2 HIS D 691       9.089 -15.809  37.708  1.00 66.29 LIG 0.14  A 
ENDBRANCH 51 52
ENDBRANCH 50 51
BRANCH 50 57
ATOM     57  N   HIS D 691      12.307 -12.703  39.798  1.00 39.94 LIG-0.35  N 
ATOM     58 H    HIS D 691      11.945 -12.971  40.530  1.00 39.94 LIG 0.16  HD
ATOM     59  C   LEU D 690      13.256 -11.783  39.750  1.00 35.88 LIG 0.24  C 
ATOM     60 O    LEU D 690      13.796 -11.411  38.686  1.00 34.66 LIG-0.27  OA
BRANCH 59 61
ATOM     61  CA  LEU D 690      13.635 -11.136  41.062  1.00 33.43 LIG 0.18  C 
BRANCH 61 62
ATOM     62  CB  LEU D 690      12.971  -9.762  41.171  1.00 31.34 LIG 0.04  C 
BRANCH 62 63
ATOM     63  CG  LEU D 690      11.615  -9.715  41.868  1.00 30.93 LIG-0.02  C 
ATOM     64  CD1 LEU D 690      10.507  -9.564  40.837  1.00 30.90 LIG 0.01  C 
ATOM     65  CD2 LEU D 690      11.403 -10.992  42.659  1.00 28.62 LIG 0.01  C 
ENDBRANCH 62 63
ENDBRANCH 61 62
BRANCH 61 66
ATOM     66  N   LEU D 690      15.087 -10.999  41.189  1.00 35.22 LIG-0.35  N 
ATOM     67 H    LEU D 690      15.390 -10.221  40.981  1.00 35.22 LIG 0.16  HD
ATOM     68  C   ILE D 689      15.852 -12.005  41.594  1.00 41.04 LIG 0.26  C 
ATOM     69 O    ILE D 689      15.387 -13.100  41.942  1.00 39.56 LIG-0.27  OA
BRANCH 68 70
ATOM     70  CA  ILE D 689      17.366 -11.714  41.658  1.00 40.35 LIG 0.40  C 
ATOM     71  N   ILE D 689      17.771 -10.545  40.782  1.00 40.45 LIG 0.61  N 
BRANCH 70 72
ATOM     72  CB  ILE D 689      17.735 -11.488  43.145  1.00 42.26 LIG 0.03  C 
ATOM     73  CG2 ILE D 689      19.066 -10.724  43.268  1.00 38.55 LIG 0.01  C 
BRANCH 72 74
ATOM     74  CG1 ILE D 689      16.608 -10.781  43.903  1.00 45.91 LIG 0.00  C 
ATOM     75  CD1 ILE D 689      16.793  -9.271  44.048  1.00 45.96 LIG 0.01  C 
ENDBRANCH 72 74
ENDBRANCH 70 72
ENDBRANCH 68 70
ENDBRANCH 61 66
ENDBRANCH 59 61
ENDBRANCH 50 57
ENDBRANCH 47 50
ENDBRANCH 1 46
TORSDOF 30
ENDMDL
MODEL 65
USER: ADFR SOLUTION from run 175
USER: SCORE 20.531381 LL:  -6.778 LR: -14.796 RR:   0.000 FEB:  -5.847
USER: RMSD 6.757937
USER: SEED 174
USER: STATUS no improvement in best in 31 clusters for 5 generations
USER: GENES 32
USER: genes 0 Translation |==|  0.69563 0.72738 0.32445
USER: genes 1 Rotation |==|  0.04100 0.67858 0.50753 0.58586
USER: genes 2 Torsion [N]-CA--C-[N] |==|  0.16667
USER: genes 3 Torsion [C]-N--CA-[C] |==|  0.15551
USER: genes 4 Torsion [N]-CA--C-[N] |==|  0.08488
USER: genes 5 Torsion [C]-N--CA-[C] |==|  0.85850
USER: genes 6 Torsion [N]-CA--C-[N] |==|  0.33946
USER: genes 7 Torsion [C]-N--CA-[CB] |==|  0.80962
USER: genes 8 Torsion [N]-CA--CB-[CG] |==|  0.22126
USER: genes 9 Torsion [CA]-CB--CG-[CD] |==|  0.50265
USER: genes 10 Torsion [CB]-CG--CD-[NE2] |==|  0.42129
USER: genes 11 Torsion [N]-CA--C-[O] |==|  0.19031
USER: genes 12 Torsion [N]-CA--CB-[CG] |==|  0.46607
USER: genes 13 Torsion [CA]-CB--CG-[CD2] |==|  0.69293
USER: genes 14 Torsion [N]-CA--CB-[CG] |==|  0.71959
USER: genes 15 Torsion [CA]-CB--CG-[CD1] |==|  0.19778
USER: genes 16 Torsion [C]-CA--CB-[CG] |==|  0.45853
USER: genes 17 Torsion [CA]-CB--CG-[CD] |==|  0.32304
USER: genes 18 Torsion [CB]-CG--CD-[NE] |==|  0.19809
USER: genes 19 Torsion [CG]-CD--NE-[CZ] |==|  0.22456
USER: genes 20 Torsion [C]-CA--N-[C] |==|  0.13935
USER: genes 21 Torsion [N]-C--CA-[N] |==|  0.14928
USER: genes 22 Torsion [C]-CA--CB-[CG] |==|  0.57236
USER: genes 23 Torsion [CA]-CB--CG-[ND1] |==|  0.38660
USER: genes 24 Torsion [C]-CA--N-[C] |==|  0.12641
USER: genes 25 Torsion [N]-C--CA-[N] |==|  0.05133
USER: genes 26 Torsion [C]-CA--CB-[CG] |==|  0.33975
USER: genes 27 Torsion [CA]-CB--CG-[CD2] |==|  0.79399
USER: genes 28 Torsion [C]-CA--N-[C] |==|  0.18038
USER: genes 29 Torsion [N]-C--CA-[N] |==|  0.43622
USER: genes 30 Torsion [C]-CA--CB-[CG1] |==|  0.86851
USER: genes 31 Torsion [CA]-CB--CG1-[CD1] |==|  0.29855
ROOT
ATOM      1  CA  ARG D 692      14.005 -10.739  35.496  1.00 48.73 LIG 0.18  C 
ENDROOT
BRANCH 1 2
ATOM      2  C   ARG D 692      12.547 -10.506  35.133  1.00 46.10 LIG 0.24  C 
ATOM      3  N   LEU D 693      11.732 -10.067  36.089  1.00 50.64 LIG-0.35  N 
ATOM      4 H    LEU D 693      11.967  -9.887  36.896  1.00 50.64 LIG 0.16  HD
ATOM      5 O    ARG D 692      12.131 -10.804  34.014  1.00 52.04 LIG-0.27  OA
BRANCH 3 6
ATOM      6  CA  LEU D 693      10.313  -9.864  35.781  1.00 43.34 LIG 0.18  C 
BRANCH 6 7
ATOM      7  C   LEU D 693       9.659 -11.125  35.231  1.00 37.95 LIG 0.24  C 
ATOM      8  N   LEU D 694      10.148 -12.271  35.660  1.00 39.22 LIG-0.35  N 
ATOM      9 H    LEU D 694      10.828 -12.332  36.181  1.00 39.22 LIG 0.16  HD
ATOM     10 O    LEU D 693       8.741 -11.044  34.407  1.00 43.86 LIG-0.27  OA
BRANCH 8 11
ATOM     11  CA  LEU D 694       9.579 -13.539  35.287  1.00 38.59 LIG 0.18  C 
BRANCH 11 12
ATOM     12  C   LEU D 694       8.108 -13.501  35.546  1.00 46.22 LIG 0.24  C 
ATOM     13  N   GLN D 695       7.350 -13.740  34.491  1.00 66.87 LIG-0.35  N 
ATOM     14 H    GLN D 695       7.693 -13.822  33.707  1.00 66.87 LIG 0.16  HD
ATOM     15 O    LEU D 694       7.701 -13.208  36.640  1.00 54.70 LIG-0.27  OA
BRANCH 13 16
ATOM     16  CA  GLN D 695       5.890 -13.900  34.467  1.00 62.86 LIG 0.16  C 
BRANCH 16 17
ATOM     17  CB  GLN D 695       5.479 -15.170  35.161  1.00 63.26 LIG 0.04  C 
BRANCH 17 18
ATOM     18  CG  GLN D 695       5.475 -15.003  36.657  1.00 77.24 LIG 0.10  C 
BRANCH 18 19
ATOM     19  CD  GLN D 695       5.097 -16.240  37.365  1.00 84.08 LIG 0.21  C 
ATOM     20 OE1  GLN D 695       4.379 -17.060  36.828  1.00 83.40 LIG-0.27  OA
ATOM     21  NE2 GLN D 695       5.591 -16.404  38.578  1.00 79.17 LIG-0.37  N 
ATOM     22 22HE GLN D 695       5.408 -17.116  39.023  1.00 79.17 LIG 0.16  HD
ATOM     23 21HE GLN D 695       6.095 -15.799  38.922  1.00 79.17 LIG 0.16  HD
ENDBRANCH 18 19
ENDBRANCH 17 18
ENDBRANCH 16 17
BRANCH 16 24
ATOM     24  C   GLN D 695       5.063 -12.710  34.950  1.00 61.14 LIG 0.22  C 
ATOM     25 O    GLN D 695       5.023 -11.661  34.300  1.00 66.66 LIG-0.29  OA
ENDBRANCH 16 24
ENDBRANCH 13 16
ENDBRANCH 11 12
BRANCH 11 26
ATOM     26  CB  LEU D 694      10.160 -14.669  36.110  1.00 34.51 LIG 0.04  C 
BRANCH 26 27
ATOM     27  CG  LEU D 694       9.520 -16.035  36.085  1.00 27.71 LIG-0.02  C 
ATOM     28  CD2 LEU D 694       8.850 -16.397  37.376  1.00 26.48 LIG 0.01  C 
ATOM     29  CD1 LEU D 694      10.446 -17.117  35.610  1.00 27.00 LIG 0.01  C 
ENDBRANCH 26 27
ENDBRANCH 11 26
ENDBRANCH 8 11
ENDBRANCH 6 7
BRANCH 6 30
ATOM     30  CB  LEU D 693      10.089  -8.675  34.831  1.00 45.67 LIG 0.04  C 
BRANCH 30 31
ATOM     31  CG  LEU D 693       9.620  -7.368  35.489  1.00 55.29 LIG-0.02  C 
ATOM     32  CD1 LEU D 693      10.743  -6.734  36.300  1.00 47.80 LIG 0.01  C 
ATOM     33  CD2 LEU D 693       9.035  -6.380  34.469  1.00 51.02 LIG 0.01  C 
ENDBRANCH 30 31
ENDBRANCH 6 30
ENDBRANCH 3 6
ENDBRANCH 1 2
BRANCH 1 34
ATOM     34  CB  ARG D 692      14.787 -11.056  34.204  1.00 49.09 LIG 0.04  C 
BRANCH 34 35
ATOM     35  CG  ARG D 692      16.308 -10.940  34.426  1.00 50.62 LIG 0.02  C 
BRANCH 35 36
ATOM     36  CD  ARG D 692      17.075 -12.242  34.253  1.00 57.04 LIG 0.14  C 
BRANCH 36 37
ATOM     37  NE  ARG D 692      17.109 -12.602  32.848  1.00 60.90 LIG-0.23  N 
ATOM     38 HE   ARG D 692      16.543 -13.189  32.574  1.00 60.90 LIG 0.18  HD
ATOM     39  CZ  ARG D 692      17.947 -12.095  31.957  1.00 61.50 LIG 0.67  C 
ATOM     40  NH1 ARG D 692      18.906 -11.252  32.337  1.00 46.48 LIG-0.23  N 
ATOM     41  NH2 ARG D 692      17.851 -12.472  30.689  1.00 64.68 LIG-0.23  N 
ATOM     42 1HH1 ARG D 692      18.983 -11.034  33.166  1.00 46.48 LIG 0.17  HD
ATOM     43 2HH1 ARG D 692      19.447 -10.926  31.754  1.00 46.48 LIG 0.17  HD
ATOM     44 1HH2 ARG D 692      17.250 -13.039  30.453  1.00 64.68 LIG 0.17  HD
ATOM     45 2HH2 ARG D 692      18.391 -12.148  30.102  1.00 64.68 LIG 0.17  HD
ENDBRANCH 36 37
ENDBRANCH 35 36
ENDBRANCH 34 35
ENDBRANCH 1 34
BRANCH 1 46
ATOM     46  N   ARG D 692      14.249 -11.735  36.566  1.00 43.06 LIG-0.35  N 
ATOM     47  C   HIS D 691      13.704 -12.939  36.537  1.00 44.11 LIG 0.24  C 
ATOM     48 O    HIS D 691      12.937 -13.309  35.659  1.00 43.39 LIG-0.27  OA
ATOM     49 H    ARG D 692      14.769 -11.459  37.194  1.00 43.06 LIG 0.16  HD
BRANCH 47 50
ATOM     50  CA  HIS D 691      14.087 -13.835  37.651  1.00 41.80 LIG 0.18  C 
BRANCH 50 51
ATOM     51  CB  HIS D 691      13.220 -15.040  37.521  1.00 51.00 LIG 0.10  C 
BRANCH 51 52
ATOM     52  CG  HIS D 691      12.985 -15.759  38.784  1.00 57.86 LIG 0.06  A 
ATOM     53 ND1  HIS D 691      11.805 -16.257  39.108  1.00 60.60 LIG-0.24  NA
ATOM     54  CE1 HIS D 691      11.887 -16.843  40.298  1.00 72.50 LIG 0.23  A 
ATOM     55 NE2  HIS D 691      13.130 -16.699  40.748  1.00 67.35 LIG-0.25  NA
ATOM     56  CD2 HIS D 691      13.832 -16.031  39.842  1.00 66.29 LIG 0.14  A 
ENDBRANCH 51 52
ENDBRANCH 50 51
BRANCH 50 57
ATOM     57  N   HIS D 691      13.843 -13.209  38.931  1.00 39.94 LIG-0.35  N 
ATOM     58 H    HIS D 691      14.492 -13.294  39.489  1.00 39.94 LIG 0.16  HD
ATOM     59  C   LEU D 690      12.723 -12.565  39.214  1.00 35.88 LIG 0.24  C 
ATOM     60 O    LEU D 690      11.790 -12.423  38.394  1.00 34.66 LIG-0.27  OA
BRANCH 59 61
ATOM     61  CA  LEU D 690      12.581 -12.041  40.624  1.00 33.43 LIG 0.18  C 
BRANCH 61 62
ATOM     62  CB  LEU D 690      11.925 -10.660  40.599  1.00 31.34 LIG 0.04  C 
BRANCH 62 63
ATOM     63  CG  LEU D 690      10.633 -10.506  41.394  1.00 30.93 LIG-0.02  C 
ATOM     64  CD1 LEU D 690      10.307  -9.032  41.575  1.00 30.90 LIG 0.01  C 
ATOM     65  CD2 LEU D 690       9.497 -11.193  40.661  1.00 28.62 LIG 0.01  C 
ENDBRANCH 62 63
ENDBRANCH 61 62
BRANCH 61 66
ATOM     66  N   LEU D 690      13.880 -11.965  41.296  1.00 35.22 LIG-0.35  N 
ATOM     67 H    LEU D 690      13.963 -12.493  41.969  1.00 35.22 LIG 0.16  HD
ATOM     68  C   ILE D 689      14.834 -11.141  40.882  1.00 41.04 LIG 0.26  C 
ATOM     69 O    ILE D 689      14.712 -10.429  39.874  1.00 39.56 LIG-0.27  OA
BRANCH 68 70
ATOM     70  CA  ILE D 689      16.141 -11.159  41.704  1.00 40.35 LIG 0.40  C 
ATOM     71  N   ILE D 689      17.333 -10.662  40.911  1.00 40.45 LIG 0.61  N 
BRANCH 70 72
ATOM     72  CB  ILE D 689      15.897 -10.322  42.983  1.00 42.26 LIG 0.03  C 
ATOM     73  CG2 ILE D 689      17.208 -10.128  43.768  1.00 38.55 LIG 0.01  C 
BRANCH 72 74
ATOM     74  CG1 ILE D 689      15.231  -8.981  42.661  1.00 45.91 LIG 0.00  C 
ATOM     75  CD1 ILE D 689      13.762  -8.890  43.073  1.00 45.96 LIG 0.01  C 
ENDBRANCH 72 74
ENDBRANCH 70 72
ENDBRANCH 68 70
ENDBRANCH 61 66
ENDBRANCH 59 61
ENDBRANCH 50 57
ENDBRANCH 47 50
ENDBRANCH 1 46
TORSDOF 30
ENDMDL
MODEL 66
USER: ADFR SOLUTION from run 172
USER: SCORE 21.483845 LL:  -8.011 LR: -14.802 RR:   0.000 FEB:  -5.853
USER: RMSD 6.176520
USER: SEED 171
USER: STATUS searching
USER: GENES 32
USER: genes 0 Translation |==|  0.53212 0.63994 0.32837
USER: genes 1 Rotation |==|  0.05579 0.66037 0.64495 0.57714
USER: genes 2 Torsion [N]-CA--C-[N] |==|  0.86301
USER: genes 3 Torsion [C]-N--CA-[C] |==|  0.69344
USER: genes 4 Torsion [N]-CA--C-[N] |==|  0.11970
USER: genes 5 Torsion [C]-N--CA-[C] |==|  0.84702
USER: genes 6 Torsion [N]-CA--C-[N] |==|  0.88889
USER: genes 7 Torsion [C]-N--CA-[CB] |==|  0.32455
USER: genes 8 Torsion [N]-CA--CB-[CG] |==|  0.99994
USER: genes 9 Torsion [CA]-CB--CG-[CD] |==|  0.34071
USER: genes 10 Torsion [CB]-CG--CD-[NE2] |==|  0.95669
USER: genes 11 Torsion [N]-CA--C-[O] |==|  0.70184
USER: genes 12 Torsion [N]-CA--CB-[CG] |==|  0.01654
USER: genes 13 Torsion [CA]-CB--CG-[CD2] |==|  0.75749
USER: genes 14 Torsion [N]-CA--CB-[CG] |==|  0.77352
USER: genes 15 Torsion [CA]-CB--CG-[CD1] |==|  0.84694
USER: genes 16 Torsion [C]-CA--CB-[CG] |==|  0.39289
USER: genes 17 Torsion [CA]-CB--CG-[CD] |==|  0.06134
USER: genes 18 Torsion [CB]-CG--CD-[NE] |==|  0.40496
USER: genes 19 Torsion [CG]-CD--NE-[CZ] |==|  0.50181
USER: genes 20 Torsion [C]-CA--N-[C] |==|  0.17330
USER: genes 21 Torsion [N]-C--CA-[N] |==|  0.92349
USER: genes 22 Torsion [C]-CA--CB-[CG] |==|  0.18961
USER: genes 23 Torsion [CA]-CB--CG-[ND1] |==|  0.55081
USER: genes 24 Torsion [C]-CA--N-[C] |==|  0.83756
USER: genes 25 Torsion [N]-C--CA-[N] |==|  0.95406
USER: genes 26 Torsion [C]-CA--CB-[CG] |==|  0.30765
USER: genes 27 Torsion [CA]-CB--CG-[CD2] |==|  0.18621
USER: genes 28 Torsion [C]-CA--N-[C] |==|  0.83774
USER: genes 29 Torsion [N]-C--CA-[N] |==|  0.04415
USER: genes 30 Torsion [C]-CA--CB-[CG1] |==|  0.61948
USER: genes 31 Torsion [CA]-CB--CG1-[CD1] |==|  0.63908
ROOT
ATOM      1  CA  ARG D 692      10.326 -12.378  35.572  1.00 48.73 LIG 0.18  C 
ENDROOT
BRANCH 1 2
ATOM      2  C   ARG D 692       8.867 -12.364  35.999  1.00 46.10 LIG 0.24  C 
ATOM      3  N   LEU D 693       8.192 -13.510  35.939  1.00 50.64 LIG-0.35  N 
ATOM      4 H    LEU D 693       8.520 -14.266  35.694  1.00 50.64 LIG 0.16  HD
ATOM      5 O    ARG D 692       8.318 -11.305  36.298  1.00 52.04 LIG-0.27  OA
BRANCH 3 6
ATOM      6  CA  LEU D 693       6.774 -13.524  36.311  1.00 43.34 LIG 0.18  C 
BRANCH 6 7
ATOM      7  C   LEU D 693       6.531 -14.272  37.615  1.00 37.95 LIG 0.24  C 
ATOM      8  N   LEU D 694       7.384 -14.036  38.592  1.00 39.22 LIG-0.35  N 
ATOM      9 H    LEU D 694       8.074 -13.531  38.508  1.00 39.22 LIG 0.16  HD
ATOM     10 O    LEU D 693       5.594 -15.072  37.711  1.00 43.86 LIG-0.27  OA
BRANCH 8 11
ATOM     11  CA  LEU D 694       7.233 -14.610  39.903  1.00 38.59 LIG 0.18  C 
BRANCH 11 12
ATOM     12  C   LEU D 694       5.878 -14.263  40.427  1.00 46.22 LIG 0.24  C 
ATOM     13  N   GLN D 695       5.477 -13.033  40.163  1.00 66.87 LIG-0.35  N 
ATOM     14 H    GLN D 695       6.005 -12.463  39.795  1.00 66.87 LIG 0.16  HD
ATOM     15 O    LEU D 694       5.268 -15.064  41.086  1.00 54.70 LIG-0.27  OA
BRANCH 13 16
ATOM     16  CA  GLN D 695       4.153 -12.456  40.431  1.00 62.86 LIG 0.16  C 
BRANCH 16 17
ATOM     17  CB  GLN D 695       4.253 -11.322  41.415  1.00 63.26 LIG 0.04  C 
BRANCH 17 18
ATOM     18  CG  GLN D 695       5.675 -11.095  41.851  1.00 77.24 LIG 0.10  C 
BRANCH 18 19
ATOM     19  CD  GLN D 695       6.139  -9.722  41.585  1.00 84.08 LIG 0.21  C 
ATOM     20 OE1  GLN D 695       7.154  -9.303  42.108  1.00 83.40 LIG-0.27  OA
ATOM     21  NE2 GLN D 695       5.415  -9.002  40.749  1.00 79.17 LIG-0.37  N 
ATOM     22 22HE GLN D 695       5.655  -8.200  40.554  1.00 79.17 LIG 0.16  HD
ATOM     23 21HE GLN D 695       4.704  -9.335  40.400  1.00 79.17 LIG 0.16  HD
ENDBRANCH 18 19
ENDBRANCH 17 18
ENDBRANCH 16 17
BRANCH 16 24
ATOM     24  C   GLN D 695       3.318 -12.063  39.214  1.00 61.14 LIG 0.22  C 
ATOM     25 O    GLN D 695       3.147 -10.877  38.919  1.00 66.66 LIG-0.29  OA
ENDBRANCH 16 24
ENDBRANCH 13 16
ENDBRANCH 11 12
BRANCH 11 26
ATOM     26  CB  LEU D 694       8.256 -14.055  40.871  1.00 34.51 LIG 0.04  C 
BRANCH 26 27
ATOM     27  CG  LEU D 694       9.173 -12.935  40.446  1.00 27.71 LIG-0.02  C 
ATOM     28  CD2 LEU D 694      10.425 -13.417  39.778  1.00 26.48 LIG 0.01  C 
ATOM     29  CD1 LEU D 694       9.466 -11.956  41.547  1.00 27.00 LIG 0.01  C 
ENDBRANCH 26 27
ENDBRANCH 11 26
ENDBRANCH 8 11
ENDBRANCH 6 7
BRANCH 6 30
ATOM     30  CB  LEU D 693       5.884 -14.083  35.188  1.00 45.67 LIG 0.04  C 
BRANCH 30 31
ATOM     31  CG  LEU D 693       5.512 -13.096  34.070  1.00 55.29 LIG-0.02  C 
ATOM     32  CD1 LEU D 693       4.858 -11.846  34.644  1.00 47.80 LIG 0.01  C 
ATOM     33  CD2 LEU D 693       6.714 -12.744  33.181  1.00 51.02 LIG 0.01  C 
ENDBRANCH 30 31
ENDBRANCH 6 30
ENDBRANCH 3 6
ENDBRANCH 1 2
BRANCH 1 34
ATOM     34  CB  ARG D 692      10.386 -12.375  34.030  1.00 49.09 LIG 0.04  C 
BRANCH 34 35
ATOM     35  CG  ARG D 692      11.538 -11.491  33.515  1.00 50.62 LIG 0.02  C 
BRANCH 35 36
ATOM     36  CD  ARG D 692      12.654 -11.252  34.522  1.00 57.04 LIG 0.14  C 
BRANCH 36 37
ATOM     37  NE  ARG D 692      13.924 -11.169  33.828  1.00 60.90 LIG-0.23  N 
ATOM     38 HE   ARG D 692      13.916 -11.250  32.972  1.00 60.90 LIG 0.18  HD
ATOM     39  CZ  ARG D 692      15.096 -10.979  34.415  1.00 61.50 LIG 0.67  C 
ATOM     40  NH1 ARG D 692      15.186 -10.939  35.743  1.00 46.48 LIG-0.23  N 
ATOM     41  NH2 ARG D 692      16.187 -10.877  33.667  1.00 64.68 LIG-0.23  N 
ATOM     42 1HH1 ARG D 692      14.480 -11.036  36.225  1.00 46.48 LIG 0.17  HD
ATOM     43 2HH1 ARG D 692      15.950 -10.816  36.118  1.00 46.48 LIG 0.17  HD
ATOM     44 1HH2 ARG D 692      16.128 -10.934  32.811  1.00 64.68 LIG 0.17  HD
ATOM     45 2HH2 ARG D 692      16.953 -10.754  34.038  1.00 64.68 LIG 0.17  HD
ENDBRANCH 36 37
ENDBRANCH 35 36
ENDBRANCH 34 35
ENDBRANCH 1 34
BRANCH 1 46
ATOM     46  N   ARG D 692      11.160 -13.448  36.170  1.00 43.06 LIG-0.35  N 
ATOM     47  C   HIS D 691      10.912 -14.729  35.956  1.00 44.11 LIG 0.24  C 
ATOM     48 O    HIS D 691       9.969 -15.128  35.289  1.00 43.39 LIG-0.27  OA
ATOM     49 H    ARG D 692      11.807 -13.160  36.659  1.00 43.06 LIG 0.16  HD
BRANCH 47 50
ATOM     50  CA  HIS D 691      11.867 -15.672  36.580  1.00 41.80 LIG 0.18  C 
BRANCH 50 51
ATOM     51  CB  HIS D 691      11.306 -15.990  37.924  1.00 51.00 LIG 0.10  C 
BRANCH 51 52
ATOM     52  CG  HIS D 691      10.063 -16.780  37.891  1.00 57.86 LIG 0.06  A 
ATOM     53 ND1  HIS D 691       9.245 -16.855  38.926  1.00 60.60 LIG-0.24  NA
ATOM     54  CE1 HIS D 691       8.214 -17.636  38.613  1.00 72.50 LIG 0.23  A 
ATOM     55 NE2  HIS D 691       8.389 -18.080  37.372  1.00 67.35 LIG-0.25  NA
ATOM     56  CD2 HIS D 691       9.521 -17.575  36.900  1.00 66.29 LIG 0.14  A 
ENDBRANCH 51 52
ENDBRANCH 50 51
BRANCH 50 57
ATOM     57  N   HIS D 691      13.170 -15.065  36.739  1.00 39.94 LIG-0.35  N 
ATOM     58 H    HIS D 691      13.447 -15.045  37.553  1.00 39.94 LIG 0.16  HD
ATOM     59  C   LEU D 690      13.868 -14.587  35.722  1.00 35.88 LIG 0.24  C 
ATOM     60 O    LEU D 690      13.473 -14.638  34.537  1.00 34.66 LIG-0.27  OA
BRANCH 59 61
ATOM     61  CA  LEU D 690      15.172 -13.903  36.060  1.00 33.43 LIG 0.18  C 
BRANCH 61 62
ATOM     62  CB  LEU D 690      16.344 -14.814  35.691  1.00 31.34 LIG 0.04  C 
BRANCH 62 63
ATOM     63  CG  LEU D 690      17.208 -14.369  34.517  1.00 30.93 LIG-0.02  C 
ATOM     64  CD1 LEU D 690      16.335 -14.111  33.298  1.00 30.90 LIG 0.01  C 
ATOM     65  CD2 LEU D 690      17.957 -13.102  34.885  1.00 28.62 LIG 0.01  C 
ENDBRANCH 62 63
ENDBRANCH 61 62
BRANCH 61 66
ATOM     66  N   LEU D 690      15.239 -13.556  37.481  1.00 35.22 LIG-0.35  N 
ATOM     67 H    LEU D 690      15.905 -13.903  37.900  1.00 35.22 LIG 0.16  HD
ATOM     68  C   ILE D 689      14.335 -12.769  38.052  1.00 41.04 LIG 0.26  C 
ATOM     69 O    ILE D 689      13.415 -12.235  37.414  1.00 39.56 LIG-0.27  OA
BRANCH 68 70
ATOM     70  CA  ILE D 689      14.527 -12.510  39.561  1.00 40.35 LIG 0.40  C 
ATOM     71  N   ILE D 689      15.915 -12.884  40.043  1.00 40.45 LIG 0.61  N 
BRANCH 70 72
ATOM     72  CB  ILE D 689      14.196 -11.020  39.824  1.00 42.26 LIG 0.03  C 
ATOM     73  CG2 ILE D 689      12.756 -10.864  40.346  1.00 38.55 LIG 0.01  C 
BRANCH 72 74
ATOM     74  CG1 ILE D 689      15.212 -10.378  40.773  1.00 45.91 LIG 0.00  C 
ATOM     75  CD1 ILE D 689      14.590  -9.618  41.945  1.00 45.96 LIG 0.01  C 
ENDBRANCH 72 74
ENDBRANCH 70 72
ENDBRANCH 68 70
ENDBRANCH 61 66
ENDBRANCH 59 61
ENDBRANCH 50 57
ENDBRANCH 47 50
ENDBRANCH 1 46
TORSDOF 30
ENDMDL
MODEL 67
USER: ADFR SOLUTION from run 187
USER: SCORE 20.088600 LL:  -6.652 LR: -14.789 RR:   0.000 FEB:  -5.840
USER: RMSD 7.191706
USER: SEED 186
USER: STATUS no improvement in best in 15 clusters for 5 generations
USER: GENES 32
USER: genes 0 Translation |==|  0.56765 0.72614 0.36050
USER: genes 1 Rotation |==|  0.00550 0.46749 0.54647 0.54752
USER: genes 2 Torsion [N]-CA--C-[N] |==|  0.35000
USER: genes 3 Torsion [C]-N--CA-[C] |==|  0.18650
USER: genes 4 Torsion [N]-CA--C-[N] |==|  0.49754
USER: genes 5 Torsion [C]-N--CA-[C] |==|  0.53995
USER: genes 6 Torsion [N]-CA--C-[N] |==|  0.43981
USER: genes 7 Torsion [C]-N--CA-[CB] |==|  0.12228
USER: genes 8 Torsion [N]-CA--CB-[CG] |==|  0.64467
USER: genes 9 Torsion [CA]-CB--CG-[CD] |==|  0.44813
USER: genes 10 Torsion [CB]-CG--CD-[NE2] |==|  0.10139
USER: genes 11 Torsion [N]-CA--C-[O] |==|  0.83390
USER: genes 12 Torsion [N]-CA--CB-[CG] |==|  0.02296
USER: genes 13 Torsion [CA]-CB--CG-[CD2] |==|  0.55637
USER: genes 14 Torsion [N]-CA--CB-[CG] |==|  0.59749
USER: genes 15 Torsion [CA]-CB--CG-[CD1] |==|  0.69077
USER: genes 16 Torsion [C]-CA--CB-[CG] |==|  0.75179
USER: genes 17 Torsion [CA]-CB--CG-[CD] |==|  0.71213
USER: genes 18 Torsion [CB]-CG--CD-[NE] |==|  0.60518
USER: genes 19 Torsion [CG]-CD--NE-[CZ] |==|  0.66964
USER: genes 20 Torsion [C]-CA--N-[C] |==|  0.83084
USER: genes 21 Torsion [N]-C--CA-[N] |==|  0.40011
USER: genes 22 Torsion [C]-CA--CB-[CG] |==|  0.80869
USER: genes 23 Torsion [CA]-CB--CG-[ND1] |==|  0.29123
USER: genes 24 Torsion [C]-CA--N-[C] |==|  0.67284
USER: genes 25 Torsion [N]-C--CA-[N] |==|  0.99302
USER: genes 26 Torsion [C]-CA--CB-[CG] |==|  0.32300
USER: genes 27 Torsion [CA]-CB--CG-[CD2] |==|  0.94868
USER: genes 28 Torsion [C]-CA--N-[C] |==|  0.78851
USER: genes 29 Torsion [N]-C--CA-[N] |==|  0.24186
USER: genes 30 Torsion [C]-CA--CB-[CG1] |==|  0.57727
USER: genes 31 Torsion [CA]-CB--CG1-[CD1] |==|  0.44527
ROOT
ATOM      1  CA  ARG D 692      11.125 -10.762  36.199  1.00 48.73 LIG 0.18  C 
ENDROOT
BRANCH 1 2
ATOM      2  C   ARG D 692      10.020 -11.775  35.949  1.00 46.10 LIG 0.24  C 
ATOM      3  N   LEU D 693       8.765 -11.334  35.938  1.00 50.64 LIG-0.35  N 
ATOM      4 H    LEU D 693       8.526 -10.515  36.043  1.00 50.64 LIG 0.16  HD
ATOM      5 O    ARG D 692      10.286 -12.973  35.855  1.00 52.04 LIG-0.27  OA
BRANCH 3 6
ATOM      6  CA  LEU D 693       7.673 -12.291  35.733  1.00 43.34 LIG 0.18  C 
BRANCH 6 7
ATOM      7  C   LEU D 693       7.533 -13.260  36.900  1.00 37.95 LIG 0.24  C 
ATOM      8  N   LEU D 694       6.562 -14.146  36.810  1.00 39.22 LIG-0.35  N 
ATOM      9 H    LEU D 694       5.996 -14.167  36.163  1.00 39.22 LIG 0.16  HD
ATOM     10 O    LEU D 693       8.285 -13.175  37.877  1.00 43.86 LIG-0.27  OA
BRANCH 8 11
ATOM     11  CA  LEU D 694       6.360 -15.173  37.798  1.00 38.59 LIG 0.18  C 
BRANCH 11 12
ATOM     12  C   LEU D 694       5.432 -16.202  37.240  1.00 46.22 LIG 0.24  C 
ATOM     13  N   GLN D 695       5.501 -17.387  37.818  1.00 66.87 LIG-0.35  N 
ATOM     14 H    GLN D 695       6.102 -17.559  38.408  1.00 66.87 LIG 0.16  HD
ATOM     15 O    LEU D 694       4.739 -15.932  36.294  1.00 54.70 LIG-0.27  OA
BRANCH 13 16
ATOM     16  CA  GLN D 695       4.627 -18.543  37.576  1.00 62.86 LIG 0.16  C 
BRANCH 16 17
ATOM     17  CB  GLN D 695       4.391 -18.737  36.103  1.00 63.26 LIG 0.04  C 
BRANCH 17 18
ATOM     18  CG  GLN D 695       2.922 -18.832  35.789  1.00 77.24 LIG 0.10  C 
BRANCH 18 19
ATOM     19  CD  GLN D 695       2.628 -18.583  34.366  1.00 84.08 LIG 0.21  C 
ATOM     20 OE1  GLN D 695       1.627 -17.973  34.044  1.00 83.40 LIG-0.27  OA
ATOM     21  NE2 GLN D 695       3.505 -19.034  33.491  1.00 79.17 LIG-0.37  N 
ATOM     22 22HE GLN D 695       3.381 -18.900  32.650  1.00 79.17 LIG 0.16  HD
ATOM     23 21HE GLN D 695       4.201 -19.461  33.760  1.00 79.17 LIG 0.16  HD
ENDBRANCH 18 19
ENDBRANCH 17 18
ENDBRANCH 16 17
BRANCH 16 24
ATOM     24  C   GLN D 695       5.023 -19.854  38.253  1.00 61.14 LIG 0.22  C 
ATOM     25 O    GLN D 695       6.113 -20.384  38.019  1.00 66.66 LIG-0.29  OA
ENDBRANCH 16 24
ENDBRANCH 13 16
ENDBRANCH 11 12
BRANCH 11 26
ATOM     26  CB  LEU D 694       5.725 -14.614  39.054  1.00 34.51 LIG 0.04  C 
BRANCH 26 27
ATOM     27  CG  LEU D 694       5.218 -13.194  39.081  1.00 27.71 LIG-0.02  C 
ATOM     28  CD2 LEU D 694       5.074 -12.645  40.469  1.00 26.48 LIG 0.01  C 
ATOM     29  CD1 LEU D 694       3.975 -12.990  38.265  1.00 27.00 LIG 0.01  C 
ENDBRANCH 26 27
ENDBRANCH 11 26
ENDBRANCH 8 11
ENDBRANCH 6 7
BRANCH 6 30
ATOM     30  CB  LEU D 693       7.810 -13.054  34.405  1.00 45.67 LIG 0.04  C 
BRANCH 30 31
ATOM     31  CG  LEU D 693       6.495 -13.393  33.685  1.00 55.29 LIG-0.02  C 
ATOM     32  CD1 LEU D 693       6.235 -14.893  33.706  1.00 47.80 LIG 0.01  C 
ATOM     33  CD2 LEU D 693       5.303 -12.606  34.250  1.00 51.02 LIG 0.01  C 
ENDBRANCH 30 31
ENDBRANCH 6 30
ENDBRANCH 3 6
ENDBRANCH 1 2
BRANCH 1 34
ATOM     34  CB  ARG D 692      11.861 -10.501  34.867  1.00 49.09 LIG 0.04  C 
BRANCH 34 35
ATOM     35  CG  ARG D 692      13.031 -11.484  34.671  1.00 50.62 LIG 0.02  C 
BRANCH 35 36
ATOM     36  CD  ARG D 692      14.408 -10.891  34.928  1.00 57.04 LIG 0.14  C 
BRANCH 36 37
ATOM     37  NE  ARG D 692      15.355 -11.427  33.968  1.00 60.90 LIG-0.23  N 
ATOM     38 HE   ARG D 692      15.206 -11.273  33.135  1.00 60.90 LIG 0.18  HD
ATOM     39  CZ  ARG D 692      16.429 -12.136  34.280  1.00 61.50 LIG 0.67  C 
ATOM     40  NH1 ARG D 692      16.663 -12.485  35.544  1.00 46.48 LIG-0.23  N 
ATOM     41  NH2 ARG D 692      17.245 -12.535  33.313  1.00 64.68 LIG-0.23  N 
ATOM     42 1HH1 ARG D 692      16.114 -12.249  36.163  1.00 46.48 LIG 0.17  HD
ATOM     43 2HH1 ARG D 692      17.362 -12.945  35.740  1.00 46.48 LIG 0.17  HD
ATOM     44 1HH2 ARG D 692      17.074 -12.333  32.495  1.00 64.68 LIG 0.17  HD
ATOM     45 2HH2 ARG D 692      17.945 -12.996  33.505  1.00 64.68 LIG 0.17  HD
ENDBRANCH 36 37
ENDBRANCH 35 36
ENDBRANCH 34 35
ENDBRANCH 1 34
BRANCH 1 46
ATOM     46  N   ARG D 692      12.055 -11.085  37.307  1.00 43.06 LIG-0.35  N 
ATOM     47  C   HIS D 691      11.637 -11.219  38.553  1.00 44.11 LIG 0.24  C 
ATOM     48 O    HIS D 691      10.474 -11.054  38.894  1.00 43.39 LIG-0.27  OA
ATOM     49 H    ARG D 692      12.876 -11.175  37.065  1.00 43.06 LIG 0.16  HD
BRANCH 47 50
ATOM     50  CA  HIS D 691      12.679 -11.595  39.535  1.00 41.80 LIG 0.18  C 
BRANCH 50 51
ATOM     51  CB  HIS D 691      12.568 -13.071  39.702  1.00 51.00 LIG 0.10  C 
BRANCH 51 52
ATOM     52  CG  HIS D 691      11.341 -13.514  40.385  1.00 57.86 LIG 0.06  A 
ATOM     53 ND1  HIS D 691      10.331 -14.069  39.737  1.00 60.60 LIG-0.24  NA
ATOM     54  CE1 HIS D 691       9.364 -14.362  40.602  1.00 72.50 LIG 0.23  A 
ATOM     55 NE2  HIS D 691       9.754 -13.969  41.811  1.00 67.35 LIG-0.25  NA
ATOM     56  CD2 HIS D 691      10.965 -13.439  41.712  1.00 66.29 LIG 0.14  A 
ENDBRANCH 51 52
ENDBRANCH 50 51
BRANCH 50 57
ATOM     57  N   HIS D 691      12.450 -10.952  40.810  1.00 39.94 LIG-0.35  N 
ATOM     58 H    HIS D 691      11.709 -11.176  41.184  1.00 39.94 LIG 0.16  HD
ATOM     59  C   LEU D 690      13.306 -10.097  41.347  1.00 35.88 LIG 0.24  C 
ATOM     60 O    LEU D 690      14.392  -9.789  40.812  1.00 34.66 LIG-0.27  OA
BRANCH 59 61
ATOM     61  CA  LEU D 690      12.883  -9.442  42.641  1.00 33.43 LIG 0.18  C 
BRANCH 61 62
ATOM     62  CB  LEU D 690      13.876  -9.796  43.749  1.00 31.34 LIG 0.04  C 
BRANCH 62 63
ATOM     63  CG  LEU D 690      14.664  -8.638  44.352  1.00 30.93 LIG-0.02  C 
ATOM     64  CD1 LEU D 690      16.110  -9.055  44.577  1.00 30.90 LIG 0.01  C 
ATOM     65  CD2 LEU D 690      14.618  -7.446  43.415  1.00 28.62 LIG 0.01  C 
ENDBRANCH 62 63
ENDBRANCH 61 62
BRANCH 61 66
ATOM     66  N   LEU D 690      11.533  -9.855  43.031  1.00 35.22 LIG-0.35  N 
ATOM     67 H    LEU D 690      11.509 -10.430  43.670  1.00 35.22 LIG 0.16  HD
ATOM     68  C   ILE D 689      10.453  -9.367  42.434  1.00 41.04 LIG 0.26  C 
ATOM     69 O    ILE D 689      10.511  -8.496  41.553  1.00 39.56 LIG-0.27  OA
BRANCH 68 70
ATOM     70  CA  ILE D 689       9.101  -9.913  42.941  1.00 40.35 LIG 0.40  C 
ATOM     71  N   ILE D 689       8.567  -9.133  44.126  1.00 40.45 LIG 0.61  N 
BRANCH 70 72
ATOM     72  CB  ILE D 689       8.118  -9.909  41.745  1.00 42.26 LIG 0.03  C 
ATOM     73  CG2 ILE D 689       8.308 -11.167  40.877  1.00 38.55 LIG 0.01  C 
BRANCH 72 74
ATOM     74  CG1 ILE D 689       6.667  -9.759  42.210  1.00 45.91 LIG 0.00  C 
ATOM     75  CD1 ILE D 689       5.703  -9.278  41.126  1.00 45.96 LIG 0.01  C 
ENDBRANCH 72 74
ENDBRANCH 70 72
ENDBRANCH 68 70
ENDBRANCH 61 66
ENDBRANCH 59 61
ENDBRANCH 50 57
ENDBRANCH 47 50
ENDBRANCH 1 46
TORSDOF 30
ENDMDL
MODEL 68
USER: ADFR SOLUTION from run 1
USER: SCORE 21.066340 LL:  -7.128 LR: -14.779 RR:   0.000 FEB:  -5.830
USER: RMSD 6.927805
USER: SEED 141555
USER: STATUS no improvement in best in 15 clusters for 5 generations
USER: GENES 32
USER: genes 0 Translation |==|  0.63008 0.66860 0.34964
USER: genes 1 Rotation |==|  0.99498 0.46358 0.51142 0.55945
USER: genes 2 Torsion [N]-CA--C-[N] |==|  0.98853
USER: genes 3 Torsion [C]-N--CA-[C] |==|  0.78469
USER: genes 4 Torsion [N]-CA--C-[N] |==|  0.49346
USER: genes 5 Torsion [C]-N--CA-[C] |==|  0.70348
USER: genes 6 Torsion [N]-CA--C-[N] |==|  0.42674
USER: genes 7 Torsion [C]-N--CA-[CB] |==|  0.22805
USER: genes 8 Torsion [N]-CA--CB-[CG] |==|  0.08769
USER: genes 9 Torsion [CA]-CB--CG-[CD] |==|  0.30722
USER: genes 10 Torsion [CB]-CG--CD-[NE2] |==|  0.59323
USER: genes 11 Torsion [N]-CA--C-[O] |==|  0.94724
USER: genes 12 Torsion [N]-CA--CB-[CG] |==|  0.73185
USER: genes 13 Torsion [CA]-CB--CG-[CD2] |==|  0.19004
USER: genes 14 Torsion [N]-CA--CB-[CG] |==|  0.69439
USER: genes 15 Torsion [CA]-CB--CG-[CD1] |==|  0.71354
USER: genes 16 Torsion [C]-CA--CB-[CG] |==|  0.35961
USER: genes 17 Torsion [CA]-CB--CG-[CD] |==|  0.28524
USER: genes 18 Torsion [CB]-CG--CD-[NE] |==|  0.03167
USER: genes 19 Torsion [CG]-CD--NE-[CZ] |==|  0.21226
USER: genes 20 Torsion [C]-CA--N-[C] |==|  0.82677
USER: genes 21 Torsion [N]-C--CA-[N] |==|  0.43822
USER: genes 22 Torsion [C]-CA--CB-[CG] |==|  0.17821
USER: genes 23 Torsion [CA]-CB--CG-[ND1] |==|  0.65744
USER: genes 24 Torsion [C]-CA--N-[C] |==|  0.60004
USER: genes 25 Torsion [N]-C--CA-[N] |==|  0.09836
USER: genes 26 Torsion [C]-CA--CB-[CG] |==|  0.41662
USER: genes 27 Torsion [CA]-CB--CG-[CD2] |==|  0.94105
USER: genes 28 Torsion [C]-CA--N-[C] |==|  0.15582
USER: genes 29 Torsion [N]-C--CA-[N] |==|  0.85443
USER: genes 30 Torsion [C]-CA--CB-[CG1] |==|  0.11568
USER: genes 31 Torsion [CA]-CB--CG1-[CD1] |==|  0.48508
ROOT
ATOM      1  CA  ARG D 692      12.530 -11.841  35.987  1.00 48.73 LIG 0.18  C 
ENDROOT
BRANCH 1 2
ATOM      2  C   ARG D 692      11.233 -12.622  35.854  1.00 46.10 LIG 0.24  C 
ATOM      3  N   LEU D 693      10.789 -13.274  36.926  1.00 50.64 LIG-0.35  N 
ATOM      4 H    LEU D 693      11.167 -13.275  37.698  1.00 50.64 LIG 0.16  HD
ATOM      5 O    ARG D 692      10.673 -12.714  34.763  1.00 52.04 LIG-0.27  OA
BRANCH 3 6
ATOM      6  CA  LEU D 693       9.558 -14.064  36.823  1.00 43.34 LIG 0.18  C 
BRANCH 6 7
ATOM      7  C   LEU D 693       8.311 -13.190  36.854  1.00 37.95 LIG 0.24  C 
ATOM      8  N   LEU D 694       7.158 -13.814  36.718  1.00 39.22 LIG-0.35  N 
ATOM      9 H    LEU D 694       7.088 -14.657  36.570  1.00 39.22 LIG 0.16  HD
ATOM     10 O    LEU D 693       8.409 -11.964  36.972  1.00 43.86 LIG-0.27  OA
BRANCH 8 11
ATOM     11  CA  LEU D 694       5.895 -13.128  36.807  1.00 38.59 LIG 0.18  C 
BRANCH 11 12
ATOM     12  C   LEU D 694       5.246 -13.482  38.105  1.00 46.22 LIG 0.24  C 
ATOM     13  N   GLN D 695       4.410 -12.575  38.576  1.00 66.87 LIG-0.35  N 
ATOM     14 H    GLN D 695       4.326 -11.809  38.195  1.00 66.87 LIG 0.16  HD
ATOM     15 O    LEU D 694       5.548 -14.503  38.666  1.00 54.70 LIG-0.27  OA
BRANCH 13 16
ATOM     16  CA  GLN D 695       3.534 -12.701  39.748  1.00 62.86 LIG 0.16  C 
BRANCH 16 17
ATOM     17  CB  GLN D 695       4.291 -12.414  41.015  1.00 63.26 LIG 0.04  C 
BRANCH 17 18
ATOM     18  CG  GLN D 695       5.382 -11.403  40.787  1.00 77.24 LIG 0.10  C 
BRANCH 18 19
ATOM     19  CD  GLN D 695       5.103 -10.109  41.436  1.00 84.08 LIG 0.21  C 
ATOM     20 OE1  GLN D 695       4.515 -10.069  42.499  1.00 83.40 LIG-0.27  OA
ATOM     21  NE2 GLN D 695       5.537  -9.028  40.816  1.00 79.17 LIG-0.37  N 
ATOM     22 22HE GLN D 695       5.408  -8.252  41.164  1.00 79.17 LIG 0.16  HD
ATOM     23 21HE GLN D 695       5.948  -9.099  40.065  1.00 79.17 LIG 0.16  HD
ENDBRANCH 18 19
ENDBRANCH 17 18
ENDBRANCH 16 17
BRANCH 16 24
ATOM     24  C   GLN D 695       2.214 -11.934  39.703  1.00 61.14 LIG 0.22  C 
ATOM     25 O    GLN D 695       2.054 -10.994  38.919  1.00 66.66 LIG-0.29  OA
ENDBRANCH 16 24
ENDBRANCH 13 16
ENDBRANCH 11 12
BRANCH 11 26
ATOM     26  CB  LEU D 694       4.958 -13.549  35.695  1.00 34.51 LIG 0.04  C 
BRANCH 26 27
ATOM     27  CG  LEU D 694       4.847 -12.719  34.440  1.00 27.71 LIG-0.02  C 
ATOM     28  CD2 LEU D 694       6.087 -12.752  33.599  1.00 26.48 LIG 0.01  C 
ATOM     29  CD1 LEU D 694       4.379 -11.316  34.695  1.00 27.00 LIG 0.01  C 
ENDBRANCH 26 27
ENDBRANCH 11 26
ENDBRANCH 8 11
ENDBRANCH 6 7
BRANCH 6 30
ATOM     30  CB  LEU D 693       9.481 -15.163  37.897  1.00 45.67 LIG 0.04  C 
BRANCH 30 31
ATOM     31  CG  LEU D 693       9.626 -16.607  37.393  1.00 55.29 LIG-0.02  C 
ATOM     32  CD1 LEU D 693       8.273 -17.303  37.340  1.00 47.80 LIG 0.01  C 
ATOM     33  CD2 LEU D 693      10.351 -16.681  36.041  1.00 51.02 LIG 0.01  C 
ENDBRANCH 30 31
ENDBRANCH 6 30
ENDBRANCH 3 6
ENDBRANCH 1 2
BRANCH 1 34
ATOM     34  CB  ARG D 692      13.520 -12.351  34.919  1.00 49.09 LIG 0.04  C 
BRANCH 34 35
ATOM     35  CG  ARG D 692      14.124 -11.185  34.111  1.00 50.62 LIG 0.02  C 
BRANCH 35 36
ATOM     36  CD  ARG D 692      15.544 -10.808  34.505  1.00 57.04 LIG 0.14  C 
BRANCH 36 37
ATOM     37  NE  ARG D 692      16.090 -11.826  35.383  1.00 60.90 LIG-0.23  N 
ATOM     38 HE   ARG D 692      16.133 -11.646  36.223  1.00 60.90 LIG 0.18  HD
ATOM     39  CZ  ARG D 692      16.528 -13.011  34.985  1.00 61.50 LIG 0.67  C 
ATOM     40  NH1 ARG D 692      16.574 -13.313  33.689  1.00 46.48 LIG-0.23  N 
ATOM     41  NH2 ARG D 692      16.966 -13.877  35.890  1.00 64.68 LIG-0.23  N 
ATOM     42 1HH1 ARG D 692      16.317 -12.736  33.104  1.00 46.48 LIG 0.17  HD
ATOM     43 2HH1 ARG D 692      16.860 -14.084  33.437  1.00 46.48 LIG 0.17  HD
ATOM     44 1HH2 ARG D 692      16.963 -13.666  36.724  1.00 64.68 LIG 0.17  HD
ATOM     45 2HH2 ARG D 692      17.252 -14.649  35.643  1.00 64.68 LIG 0.17  HD
ENDBRANCH 36 37
ENDBRANCH 35 36
ENDBRANCH 34 35
ENDBRANCH 1 34
BRANCH 1 46
ATOM     46  N   ARG D 692      13.125 -11.810  37.344  1.00 43.06 LIG-0.35  N 
ATOM     47  C   HIS D 691      12.496 -11.263  38.370  1.00 44.11 LIG 0.24  C 
ATOM     48 O    HIS D 691      11.407 -10.716  38.277  1.00 43.39 LIG-0.27  OA
ATOM     49 H    ARG D 692      13.903 -12.174  37.398  1.00 43.06 LIG 0.16  HD
BRANCH 47 50
ATOM     50  CA  HIS D 691      13.200 -11.359  39.669  1.00 41.80 LIG 0.18  C 
BRANCH 50 51
ATOM     51  CB  HIS D 691      12.859 -12.702  40.218  1.00 51.00 LIG 0.10  C 
BRANCH 51 52
ATOM     52  CG  HIS D 691      13.356 -13.831  39.414  1.00 57.86 LIG 0.06  A 
ATOM     53 ND1  HIS D 691      12.555 -14.767  38.936  1.00 60.60 LIG-0.24  NA
ATOM     54  CE1 HIS D 691      13.275 -15.655  38.257  1.00 72.50 LIG 0.23  A 
ATOM     55 NE2  HIS D 691      14.552 -15.292  38.320  1.00 67.35 LIG-0.25  NA
ATOM     56  CD2 HIS D 691      14.638 -14.175  39.030  1.00 66.29 LIG 0.14  A 
ENDBRANCH 51 52
ENDBRANCH 50 51
BRANCH 50 57
ATOM     57  N   HIS D 691      12.743 -10.339  40.586  1.00 39.94 LIG-0.35  N 
ATOM     58 H    HIS D 691      11.903 -10.163  40.520  1.00 39.94 LIG 0.16  HD
ATOM     59  C   LEU D 690      13.546  -9.735  41.446  1.00 35.88 LIG 0.24  C 
ATOM     60 O    LEU D 690      14.761 -10.008  41.556  1.00 34.66 LIG-0.27  OA
BRANCH 59 61
ATOM     61  CA  LEU D 690      12.937  -8.628  42.276  1.00 33.43 LIG 0.18  C 
BRANCH 61 62
ATOM     62  CB  LEU D 690      13.758  -8.427  43.551  1.00 31.34 LIG 0.04  C 
BRANCH 62 63
ATOM     63  CG  LEU D 690      13.781  -7.016  44.130  1.00 30.93 LIG-0.02  C 
ATOM     64  CD1 LEU D 690      15.166  -6.700  44.672  1.00 30.90 LIG 0.01  C 
ATOM     65  CD2 LEU D 690      13.416  -6.015  43.050  1.00 28.62 LIG 0.01  C 
ENDBRANCH 62 63
ENDBRANCH 61 62
BRANCH 61 66
ATOM     66  N   LEU D 690      11.546  -8.925  42.621  1.00 35.22 LIG-0.35  N 
ATOM     67 H    LEU D 690      10.984  -8.321  42.378  1.00 35.22 LIG 0.16  HD
ATOM     68  C   ILE D 689      11.205 -10.040  43.254  1.00 41.04 LIG 0.26  C 
ATOM     69 O    ILE D 689      12.026 -10.923  43.544  1.00 39.56 LIG-0.27  OA
BRANCH 68 70
ATOM     70  CA  ILE D 689       9.702 -10.202  43.566  1.00 40.35 LIG 0.40  C 
ATOM     71  N   ILE D 689       9.125  -9.002  44.289  1.00 40.45 LIG 0.61  N 
BRANCH 70 72
ATOM     72  CB  ILE D 689       8.976 -10.486  42.228  1.00 42.26 LIG 0.03  C 
ATOM     73  CG2 ILE D 689       8.675  -9.173  41.481  1.00 38.55 LIG 0.01  C 
BRANCH 72 74
ATOM     74  CG1 ILE D 689       9.769 -11.462  41.354  1.00 45.91 LIG 0.00  C 
ATOM     75  CD1 ILE D 689       9.052 -11.889  40.073  1.00 45.96 LIG 0.01  C 
ENDBRANCH 72 74
ENDBRANCH 70 72
ENDBRANCH 68 70
ENDBRANCH 61 66
ENDBRANCH 59 61
ENDBRANCH 50 57
ENDBRANCH 47 50
ENDBRANCH 1 46
TORSDOF 30
ENDMDL
MODEL 69
USER: ADFR SOLUTION from run 136
USER: SCORE 20.728196 LL:  -6.807 LR: -14.784 RR:   0.000 FEB:  -5.835
USER: RMSD 7.152614
USER: SEED 135
USER: STATUS no improvement in best in 49 clusters for 5 generations
USER: GENES 32
USER: genes 0 Translation |==|  0.53514 0.65561 0.32519
USER: genes 1 Rotation |==|  0.04531 0.59040 0.64775 0.61515
USER: genes 2 Torsion [N]-CA--C-[N] |==|  0.92480
USER: genes 3 Torsion [C]-N--CA-[C] |==|  0.56457
USER: genes 4 Torsion [N]-CA--C-[N] |==|  0.45774
USER: genes 5 Torsion [C]-N--CA-[C] |==|  0.64054
USER: genes 6 Torsion [N]-CA--C-[N] |==|  0.28504
USER: genes 7 Torsion [C]-N--CA-[CB] |==|  0.01928
USER: genes 8 Torsion [N]-CA--CB-[CG] |==|  0.45775
USER: genes 9 Torsion [CA]-CB--CG-[CD] |==|  0.67603
USER: genes 10 Torsion [CB]-CG--CD-[NE2] |==|  0.56039
USER: genes 11 Torsion [N]-CA--C-[O] |==|  0.83149
USER: genes 12 Torsion [N]-CA--CB-[CG] |==|  0.01209
USER: genes 13 Torsion [CA]-CB--CG-[CD2] |==|  0.56053
USER: genes 14 Torsion [N]-CA--CB-[CG] |==|  0.63988
USER: genes 15 Torsion [CA]-CB--CG-[CD1] |==|  0.96542
USER: genes 16 Torsion [C]-CA--CB-[CG] |==|  0.56192
USER: genes 17 Torsion [CA]-CB--CG-[CD] |==|  0.82001
USER: genes 18 Torsion [CB]-CG--CD-[NE] |==|  0.49491
USER: genes 19 Torsion [CG]-CD--NE-[CZ] |==|  0.62894
USER: genes 20 Torsion [C]-CA--N-[C] |==|  0.73178
USER: genes 21 Torsion [N]-C--CA-[N] |==|  0.87646
USER: genes 22 Torsion [C]-CA--CB-[CG] |==|  0.71867
USER: genes 23 Torsion [CA]-CB--CG-[ND1] |==|  0.71676
USER: genes 24 Torsion [C]-CA--N-[C] |==|  0.83873
USER: genes 25 Torsion [N]-C--CA-[N] |==|  0.97681
USER: genes 26 Torsion [C]-CA--CB-[CG] |==|  0.45323
USER: genes 27 Torsion [CA]-CB--CG-[CD2] |==|  0.19367
USER: genes 28 Torsion [C]-CA--N-[C] |==|  0.71254
USER: genes 29 Torsion [N]-C--CA-[N] |==|  0.09151
USER: genes 30 Torsion [C]-CA--CB-[CG1] |==|  0.72884
USER: genes 31 Torsion [CA]-CB--CG1-[CD1] |==|  0.63425
ROOT
ATOM      1  CA  ARG D 692      10.394 -12.084  35.510  1.00 48.73 LIG 0.18  C 
ENDROOT
BRANCH 1 2
ATOM      2  C   ARG D 692       8.944 -12.467  35.758  1.00 46.10 LIG 0.24  C 
ATOM      3  N   LEU D 693       8.648 -13.762  35.829  1.00 50.64 LIG-0.35  N 
ATOM      4 H    LEU D 693       9.215 -14.405  35.764  1.00 50.64 LIG 0.16  HD
ATOM      5 O    ARG D 692       8.072 -11.601  35.797  1.00 52.04 LIG-0.27  OA
BRANCH 3 6
ATOM      6  CA  LEU D 693       7.253 -14.167  36.034  1.00 43.34 LIG 0.18  C 
BRANCH 6 7
ATOM      7  C   LEU D 693       7.143 -15.558  36.644  1.00 37.95 LIG 0.24  C 
ATOM      8  N   LEU D 694       5.970 -15.883  37.148  1.00 39.22 LIG-0.35  N 
ATOM      9 H    LEU D 694       5.303 -15.342  37.187  1.00 39.22 LIG 0.16  HD
ATOM     10 O    LEU D 693       8.126 -16.307  36.675  1.00 43.86 LIG-0.27  OA
BRANCH 8 11
ATOM     11  CA  LEU D 694       5.696 -17.190  37.685  1.00 38.59 LIG 0.18  C 
BRANCH 11 12
ATOM     12  C   LEU D 694       4.435 -17.707  37.072  1.00 46.22 LIG 0.24  C 
ATOM     13  N   GLN D 695       4.606 -18.604  36.119  1.00 66.87 LIG-0.35  N 
ATOM     14 H    GLN D 695       5.391 -18.797  35.826  1.00 66.87 LIG 0.16  HD
ATOM     15 O    LEU D 694       3.374 -17.258  37.419  1.00 54.70 LIG-0.27  OA
BRANCH 13 16
ATOM     16  CA  GLN D 695       3.563 -19.380  35.435  1.00 62.86 LIG 0.16  C 
BRANCH 16 17
ATOM     17  CB  GLN D 695       2.193 -18.909  35.840  1.00 63.26 LIG 0.04  C 
BRANCH 17 18
ATOM     18  CG  GLN D 695       1.135 -19.420  34.899  1.00 77.24 LIG 0.10  C 
BRANCH 18 19
ATOM     19  CD  GLN D 695       0.444 -18.335  34.178  1.00 84.08 LIG 0.21  C 
ATOM     20 OE1  GLN D 695       0.978 -17.252  34.039  1.00 83.40 LIG-0.27  OA
ATOM     21  NE2 GLN D 695      -0.750 -18.613  33.690  1.00 79.17 LIG-0.37  N 
ATOM     22 22HE GLN D 695      -1.185 -18.015  33.251  1.00 79.17 LIG 0.16  HD
ATOM     23 21HE GLN D 695      -1.093 -19.392  33.810  1.00 79.17 LIG 0.16  HD
ENDBRANCH 18 19
ENDBRANCH 17 18
ENDBRANCH 16 17
BRANCH 16 24
ATOM     24  C   GLN D 695       3.684 -19.500  33.917  1.00 61.14 LIG 0.22  C 
ATOM     25 O    GLN D 695       3.662 -18.497  33.198  1.00 66.66 LIG-0.29  OA
ENDBRANCH 16 24
ENDBRANCH 13 16
ENDBRANCH 11 12
BRANCH 11 26
ATOM     26  CB  LEU D 694       5.491 -17.140  39.184  1.00 34.51 LIG 0.04  C 
BRANCH 26 27
ATOM     27  CG  LEU D 694       5.488 -15.816  39.907  1.00 27.71 LIG-0.02  C 
ATOM     28  CD2 LEU D 694       5.793 -15.940  41.369  1.00 26.48 LIG 0.01  C 
ATOM     29  CD1 LEU D 694       4.248 -15.006  39.659  1.00 27.00 LIG 0.01  C 
ENDBRANCH 26 27
ENDBRANCH 11 26
ENDBRANCH 8 11
ENDBRANCH 6 7
BRANCH 6 30
ATOM     30  CB  LEU D 693       6.424 -14.070  34.742  1.00 45.67 LIG 0.04  C 
BRANCH 30 31
ATOM     31  CG  LEU D 693       5.094 -13.308  34.852  1.00 55.29 LIG-0.02  C 
ATOM     32  CD1 LEU D 693       4.728 -13.062  36.309  1.00 47.80 LIG 0.01  C 
ATOM     33  CD2 LEU D 693       5.103 -12.002  34.044  1.00 51.02 LIG 0.01  C 
ENDBRANCH 30 31
ENDBRANCH 6 30
ENDBRANCH 3 6
ENDBRANCH 1 2
BRANCH 1 34
ATOM     34  CB  ARG D 692      10.558 -11.728  34.018  1.00 49.09 LIG 0.04  C 
BRANCH 34 35
ATOM     35  CG  ARG D 692      12.025 -11.868  33.566  1.00 50.62 LIG 0.02  C 
BRANCH 35 36
ATOM     36  CD  ARG D 692      12.990 -10.898  34.232  1.00 57.04 LIG 0.14  C 
BRANCH 36 37
ATOM     37  NE  ARG D 692      14.338 -11.154  33.761  1.00 60.90 LIG-0.23  N 
ATOM     38 HE   ARG D 692      14.451 -11.254  32.914  1.00 60.90 LIG 0.18  HD
ATOM     39  CZ  ARG D 692      15.406 -11.246  34.538  1.00 61.50 LIG 0.67  C 
ATOM     40  NH1 ARG D 692      15.282 -11.191  35.863  1.00 46.48 LIG-0.23  N 
ATOM     41  NH2 ARG D 692      16.596 -11.440  33.985  1.00 64.68 LIG-0.23  N 
ATOM     42 1HH1 ARG D 692      14.504 -11.096  36.219  1.00 46.48 LIG 0.17  HD
ATOM     43 2HH1 ARG D 692      15.980 -11.252  36.363  1.00 46.48 LIG 0.17  HD
ATOM     44 1HH2 ARG D 692      16.667 -11.504  33.130  1.00 64.68 LIG 0.17  HD
ATOM     45 2HH2 ARG D 692      17.296 -11.501  34.480  1.00 64.68 LIG 0.17  HD
ENDBRANCH 36 37
ENDBRANCH 35 36
ENDBRANCH 34 35
ENDBRANCH 1 34
BRANCH 1 46
ATOM     46  N   ARG D 692      11.405 -13.063  35.975  1.00 43.06 LIG-0.35  N 
ATOM     47  C   HIS D 691      12.011 -12.941  37.143  1.00 44.11 LIG 0.24  C 
ATOM     48 O    HIS D 691      11.816 -12.005  37.906  1.00 43.39 LIG-0.27  OA
ATOM     49 H    ARG D 692      11.556 -13.705  35.422  1.00 43.06 LIG 0.16  HD
BRANCH 47 50
ATOM     50  CA  HIS D 691      12.956 -14.028  37.485  1.00 41.80 LIG 0.18  C 
BRANCH 50 51
ATOM     51  CB  HIS D 691      14.158 -13.806  36.632  1.00 51.00 LIG 0.10  C 
BRANCH 51 52
ATOM     52  CG  HIS D 691      14.233 -14.680  35.450  1.00 57.86 LIG 0.06  A 
ATOM     53 ND1  HIS D 691      15.020 -15.741  35.403  1.00 60.60 LIG-0.24  NA
ATOM     54  CE1 HIS D 691      14.886 -16.334  34.220  1.00 72.50 LIG 0.23  A 
ATOM     55 NE2  HIS D 691      14.020 -15.630  33.497  1.00 67.35 LIG-0.25  NA
ATOM     56  CD2 HIS D 691      13.603 -14.602  34.223  1.00 66.29 LIG 0.14  A 
ENDBRANCH 51 52
ENDBRANCH 50 51
BRANCH 50 57
ATOM     57  N   HIS D 691      12.390 -15.324  37.183  1.00 39.94 LIG-0.35  N 
ATOM     58 H    HIS D 691      12.859 -15.788  36.631  1.00 39.94 LIG 0.16  HD
ATOM     59  C   LEU D 690      11.254 -15.751  37.709  1.00 35.88 LIG 0.24  C 
ATOM     60 O    LEU D 690      10.585 -15.084  38.527  1.00 34.66 LIG-0.27  OA
BRANCH 59 61
ATOM     61  CA  LEU D 690      10.748 -17.091  37.226  1.00 33.43 LIG 0.18  C 
BRANCH 61 62
ATOM     62  CB  LEU D 690      10.791 -18.103  38.372  1.00 31.34 LIG 0.04  C 
BRANCH 62 63
ATOM     63  CG  LEU D 690       9.965 -19.371  38.191  1.00 30.93 LIG-0.02  C 
ATOM     64  CD1 LEU D 690       8.541 -19.011  37.794  1.00 30.90 LIG 0.01  C 
ATOM     65  CD2 LEU D 690      10.589 -20.239  37.115  1.00 28.62 LIG 0.01  C 
ENDBRANCH 62 63
ENDBRANCH 61 62
BRANCH 61 66
ATOM     66  N   LEU D 690      11.538 -17.583  36.096  1.00 35.22 LIG-0.35  N 
ATOM     67 H    LEU D 690      12.306 -17.905  36.314  1.00 35.22 LIG 0.16  HD
ATOM     68  C   ILE D 689      11.087 -17.527  34.849  1.00 41.04 LIG 0.26  C 
ATOM     69 O    ILE D 689       9.954 -17.109  34.567  1.00 39.56 LIG-0.27  OA
BRANCH 68 70
ATOM     70  CA  ILE D 689      12.043 -18.066  33.764  1.00 40.35 LIG 0.40  C 
ATOM     71  N   ILE D 689      12.895 -19.217  34.260  1.00 40.45 LIG 0.61  N 
BRANCH 70 72
ATOM     72  CB  ILE D 689      11.182 -18.459  32.539  1.00 42.26 LIG 0.03  C 
ATOM     73  CG2 ILE D 689      11.852 -18.002  31.230  1.00 38.55 LIG 0.01  C 
BRANCH 72 74
ATOM     74  CG1 ILE D 689      10.880 -19.961  32.522  1.00 45.91 LIG 0.00  C 
ATOM     75  CD1 ILE D 689      11.138 -20.642  31.179  1.00 45.96 LIG 0.01  C 
ENDBRANCH 72 74
ENDBRANCH 70 72
ENDBRANCH 68 70
ENDBRANCH 61 66
ENDBRANCH 59 61
ENDBRANCH 50 57
ENDBRANCH 47 50
ENDBRANCH 1 46
TORSDOF 30
ENDMDL
MODEL 70
USER: ADFR SOLUTION from run 175
USER: SCORE 20.101146 LL:  -6.264 LR: -14.767 RR:   0.000 FEB:  -5.818
USER: RMSD 7.561011
USER: SEED 174
USER: STATUS no improvement in best in 31 clusters for 5 generations
USER: GENES 32
USER: genes 0 Translation |==|  0.69749 0.72746 0.32340
USER: genes 1 Rotation |==|  0.04073 0.67717 0.50893 0.58720
USER: genes 2 Torsion [N]-CA--C-[N] |==|  0.16667
USER: genes 3 Torsion [C]-N--CA-[C] |==|  0.15648
USER: genes 4 Torsion [N]-CA--C-[N] |==|  0.09409
USER: genes 5 Torsion [C]-N--CA-[C] |==|  0.85724
USER: genes 6 Torsion [N]-CA--C-[N] |==|  0.35017
USER: genes 7 Torsion [C]-N--CA-[CB] |==|  0.80842
USER: genes 8 Torsion [N]-CA--CB-[CG] |==|  0.21501
USER: genes 9 Torsion [CA]-CB--CG-[CD] |==|  0.50853
USER: genes 10 Torsion [CB]-CG--CD-[NE2] |==|  0.40994
USER: genes 11 Torsion [N]-CA--C-[O] |==|  0.05133
USER: genes 12 Torsion [N]-CA--CB-[CG] |==|  0.48548
USER: genes 13 Torsion [CA]-CB--CG-[CD2] |==|  0.63076
USER: genes 14 Torsion [N]-CA--CB-[CG] |==|  0.71494
USER: genes 15 Torsion [CA]-CB--CG-[CD1] |==|  0.20070
USER: genes 16 Torsion [C]-CA--CB-[CG] |==|  0.46757
USER: genes 17 Torsion [CA]-CB--CG-[CD] |==|  0.31654
USER: genes 18 Torsion [CB]-CG--CD-[NE] |==|  0.20091
USER: genes 19 Torsion [CG]-CD--NE-[CZ] |==|  0.20835
USER: genes 20 Torsion [C]-CA--N-[C] |==|  0.10683
USER: genes 21 Torsion [N]-C--CA-[N] |==|  0.86879
USER: genes 22 Torsion [C]-CA--CB-[CG] |==|  0.75523
USER: genes 23 Torsion [CA]-CB--CG-[ND1] |==|  0.74383
USER: genes 24 Torsion [C]-CA--N-[C] |==|  0.78043
USER: genes 25 Torsion [N]-C--CA-[N] |==|  0.10188
USER: genes 26 Torsion [C]-CA--CB-[CG] |==|  0.53193
USER: genes 27 Torsion [CA]-CB--CG-[CD2] |==|  0.71013
USER: genes 28 Torsion [C]-CA--N-[C] |==|  0.17750
USER: genes 29 Torsion [N]-C--CA-[N] |==|  0.07205
USER: genes 30 Torsion [C]-CA--CB-[CG1] |==|  0.80866
USER: genes 31 Torsion [CA]-CB--CG1-[CD1] |==|  0.28826
ROOT
ATOM      1  CA  ARG D 692      14.047 -10.737  35.475  1.00 48.73 LIG 0.18  C 
ENDROOT
BRANCH 1 2
ATOM      2  C   ARG D 692      12.587 -10.511  35.117  1.00 46.10 LIG 0.24  C 
ATOM      3  N   LEU D 693      11.771 -10.085  36.078  1.00 50.64 LIG-0.35  N 
ATOM      4 H    LEU D 693      12.006  -9.908  36.886  1.00 50.64 LIG 0.16  HD
ATOM      5 O    ARG D 692      12.170 -10.804  33.998  1.00 52.04 LIG-0.27  OA
BRANCH 3 6
ATOM      6  CA  LEU D 693      10.350  -9.888  35.775  1.00 43.34 LIG 0.18  C 
BRANCH 6 7
ATOM      7  C   LEU D 693       9.701 -11.152  35.226  1.00 37.95 LIG 0.24  C 
ATOM      8  N   LEU D 694      10.151 -12.295  35.702  1.00 39.22 LIG-0.35  N 
ATOM      9 H    LEU D 694      10.807 -12.353  36.256  1.00 39.22 LIG 0.16  HD
ATOM     10 O    LEU D 693       8.822 -11.077  34.359  1.00 43.86 LIG-0.27  OA
BRANCH 8 11
ATOM     11  CA  LEU D 694       9.579 -13.563  35.335  1.00 38.59 LIG 0.18  C 
BRANCH 11 12
ATOM     12  C   LEU D 694       8.100 -13.499  35.537  1.00 46.22 LIG 0.24  C 
ATOM     13  N   GLN D 695       7.379 -13.829  34.480  1.00 66.87 LIG-0.35  N 
ATOM     14 H    GLN D 695       7.749 -13.978  33.719  1.00 66.87 LIG 0.16  HD
ATOM     15 O    LEU D 694       7.656 -13.112  36.585  1.00 54.70 LIG-0.27  OA
BRANCH 13 16
ATOM     16  CA  GLN D 695       5.920 -13.987  34.418  1.00 62.86 LIG 0.16  C 
BRANCH 16 17
ATOM     17  CB  GLN D 695       5.479 -15.197  35.195  1.00 63.26 LIG 0.04  C 
BRANCH 17 18
ATOM     18  CG  GLN D 695       5.477 -14.929  36.677  1.00 77.24 LIG 0.10  C 
BRANCH 18 19
ATOM     19  CD  GLN D 695       5.119 -16.119  37.469  1.00 84.08 LIG 0.21  C 
ATOM     20 OE1  GLN D 695       4.352 -16.948  37.020  1.00 83.40 LIG-0.27  OA
ATOM     21  NE2 GLN D 695       5.683 -16.234  38.656  1.00 79.17 LIG-0.37  N 
ATOM     22 22HE GLN D 695       5.514 -16.918  39.148  1.00 79.17 LIG 0.16  HD
ATOM     23 21HE GLN D 695       6.221 -15.625  38.938  1.00 79.17 LIG 0.16  HD
ENDBRANCH 18 19
ENDBRANCH 17 18
ENDBRANCH 16 17
BRANCH 16 24
ATOM     24  C   GLN D 695       5.082 -12.761  34.776  1.00 61.14 LIG 0.22  C 
ATOM     25 O    GLN D 695       5.578 -11.631  34.768  1.00 66.66 LIG-0.29  OA
ENDBRANCH 16 24
ENDBRANCH 13 16
ENDBRANCH 11 12
BRANCH 11 26
ATOM     26  CB  LEU D 694      10.113 -14.683  36.202  1.00 34.51 LIG 0.04  C 
BRANCH 26 27
ATOM     27  CG  LEU D 694       9.558 -16.079  36.066  1.00 27.71 LIG-0.02  C 
ATOM     28  CD2 LEU D 694       9.228 -16.715  37.383  1.00 26.48 LIG 0.01  C 
ATOM     29  CD1 LEU D 694      10.405 -16.975  35.208  1.00 27.00 LIG 0.01  C 
ENDBRANCH 26 27
ENDBRANCH 11 26
ENDBRANCH 8 11
ENDBRANCH 6 7
BRANCH 6 30
ATOM     30  CB  LEU D 693      10.117  -8.700  34.826  1.00 45.67 LIG 0.04  C 
BRANCH 30 31
ATOM     31  CG  LEU D 693       9.605  -7.407  35.482  1.00 55.29 LIG-0.02  C 
ATOM     32  CD1 LEU D 693      10.704  -6.739  36.297  1.00 47.80 LIG 0.01  C 
ATOM     33  CD2 LEU D 693       8.994  -6.439  34.459  1.00 51.02 LIG 0.01  C 
ENDBRANCH 30 31
ENDBRANCH 6 30
ENDBRANCH 3 6
ENDBRANCH 1 2
BRANCH 1 34
ATOM     34  CB  ARG D 692      14.828 -11.041  34.180  1.00 49.09 LIG 0.04  C 
BRANCH 34 35
ATOM     35  CG  ARG D 692      16.350 -10.995  34.418  1.00 50.62 LIG 0.02  C 
BRANCH 35 36
ATOM     36  CD  ARG D 692      17.057 -12.333  34.260  1.00 57.04 LIG 0.14  C 
BRANCH 36 37
ATOM     37  NE  ARG D 692      17.111 -12.690  32.855  1.00 60.90 LIG-0.23  N 
ATOM     38 HE   ARG D 692      16.575 -13.304  32.579  1.00 60.90 LIG 0.18  HD
ATOM     39  CZ  ARG D 692      17.924 -12.141  31.966  1.00 61.50 LIG 0.67  C 
ATOM     40  NH1 ARG D 692      18.839 -11.252  32.348  1.00 46.48 LIG-0.23  N 
ATOM     41  NH2 ARG D 692      17.849 -12.521  30.697  1.00 64.68 LIG-0.23  N 
ATOM     42 1HH1 ARG D 692      18.904 -11.031  33.177  1.00 46.48 LIG 0.17  HD
ATOM     43 2HH1 ARG D 692      19.365 -10.899  31.766  1.00 46.48 LIG 0.17  HD
ATOM     44 1HH2 ARG D 692      17.277 -13.118  30.460  1.00 64.68 LIG 0.17  HD
ATOM     45 2HH2 ARG D 692      18.372 -12.171  30.111  1.00 64.68 LIG 0.17  HD
ENDBRANCH 36 37
ENDBRANCH 35 36
ENDBRANCH 34 35
ENDBRANCH 1 34
BRANCH 1 46
ATOM     46  N   ARG D 692      14.300 -11.739  36.538  1.00 43.06 LIG-0.35  N 
ATOM     47  C   HIS D 691      13.595 -12.854  36.629  1.00 44.11 LIG 0.24  C 
ATOM     48 O    HIS D 691      12.669 -13.127  35.879  1.00 43.39 LIG-0.27  OA
ATOM     49 H    ARG D 692      14.936 -11.529  37.078  1.00 43.06 LIG 0.16  HD
BRANCH 47 50
ATOM     50  CA  HIS D 691      14.005 -13.776  37.712  1.00 41.80 LIG 0.18  C 
BRANCH 50 51
ATOM     51  CB  HIS D 691      13.586 -13.121  38.984  1.00 51.00 LIG 0.10  C 
BRANCH 51 52
ATOM     52  CG  HIS D 691      14.589 -12.205  39.554  1.00 57.86 LIG 0.06  A 
ATOM     53 ND1  HIS D 691      15.486 -12.599  40.440  1.00 60.60 LIG-0.24  NA
ATOM     54  CE1 HIS D 691      16.252 -11.566  40.778  1.00 72.50 LIG 0.23  A 
ATOM     55 NE2  HIS D 691      15.824 -10.496  40.114  1.00 67.35 LIG-0.25  NA
ATOM     56  CD2 HIS D 691      14.797 -10.854  39.355  1.00 66.29 LIG 0.14  A 
ENDBRANCH 51 52
ENDBRANCH 50 51
BRANCH 50 57
ATOM     57  N   HIS D 691      15.438 -13.964  37.722  1.00 39.94 LIG-0.35  N 
ATOM     58 H    HIS D 691      15.846 -13.502  38.323  1.00 39.94 LIG 0.16  HD
ATOM     59  C   LEU D 690      16.062 -14.774  36.882  1.00 35.88 LIG 0.24  C 
ATOM     60 O    LEU D 690      15.466 -15.461  36.024  1.00 34.66 LIG-0.27  OA
BRANCH 59 61
ATOM     61  CA  LEU D 690      17.571 -14.795  36.958  1.00 33.43 LIG 0.18  C 
BRANCH 61 62
ATOM     62  CB  LEU D 690      18.100 -16.096  36.354  1.00 31.34 LIG 0.04  C 
BRANCH 62 63
ATOM     63  CG  LEU D 690      19.574 -16.406  36.590  1.00 30.93 LIG-0.02  C 
ATOM     64  CD1 LEU D 690      19.740 -17.862  36.995  1.00 30.90 LIG 0.01  C 
ATOM     65  CD2 LEU D 690      20.363 -16.137  35.323  1.00 28.62 LIG 0.01  C 
ENDBRANCH 62 63
ENDBRANCH 61 62
BRANCH 61 66
ATOM     66  N   LEU D 690      18.036 -14.661  38.340  1.00 35.22 LIG-0.35  N 
ATOM     67 H    LEU D 690      18.488 -13.946  38.494  1.00 35.22 LIG 0.16  HD
ATOM     68  C   ILE D 689      17.768 -15.580  39.260  1.00 41.04 LIG 0.26  C 
ATOM     69 O    ILE D 689      17.066 -16.575  39.027  1.00 39.56 LIG-0.27  OA
BRANCH 68 70
ATOM     70  CA  ILE D 689      18.343 -15.309  40.666  1.00 40.35 LIG 0.40  C 
ATOM     71  N   ILE D 689      18.556 -13.832  40.933  1.00 40.45 LIG 0.61  N 
BRANCH 70 72
ATOM     72  CB  ILE D 689      17.384 -15.957  41.695  1.00 42.26 LIG 0.03  C 
ATOM     73  CG2 ILE D 689      18.044 -16.037  43.083  1.00 38.55 LIG 0.01  C 
BRANCH 72 74
ATOM     74  CG1 ILE D 689      16.040 -15.225  41.751  1.00 45.91 LIG 0.00  C 
ATOM     75  CD1 ILE D 689      14.896 -15.947  41.041  1.00 45.96 LIG 0.01  C 
ENDBRANCH 72 74
ENDBRANCH 70 72
ENDBRANCH 68 70
ENDBRANCH 61 66
ENDBRANCH 59 61
ENDBRANCH 50 57
ENDBRANCH 47 50
ENDBRANCH 1 46
TORSDOF 30
ENDMDL
MODEL 71
USER: ADFR SOLUTION from run 191
USER: SCORE 20.741673 LL:  -7.538 LR: -14.737 RR:   0.000 FEB:  -5.788
USER: RMSD 6.682329
USER: SEED 190
USER: STATUS searching
USER: GENES 32
USER: genes 0 Translation |==|  0.51160 0.66404 0.36577
USER: genes 1 Rotation |==|  0.98329 0.37484 0.49504 0.52727
USER: genes 2 Torsion [N]-CA--C-[N] |==|  0.85373
USER: genes 3 Torsion [C]-N--CA-[C] |==|  0.60012
USER: genes 4 Torsion [N]-CA--C-[N] |==|  0.09433
USER: genes 5 Torsion [C]-N--CA-[C] |==|  0.78122
USER: genes 6 Torsion [N]-CA--C-[N] |==|  0.90434
USER: genes 7 Torsion [C]-N--CA-[CB] |==|  0.86854
USER: genes 8 Torsion [N]-CA--CB-[CG] |==|  0.49297
USER: genes 9 Torsion [CA]-CB--CG-[CD] |==|  0.23076
USER: genes 10 Torsion [CB]-CG--CD-[NE2] |==|  0.43461
USER: genes 11 Torsion [N]-CA--C-[O] |==|  0.25324
USER: genes 12 Torsion [N]-CA--CB-[CG] |==|  0.37778
USER: genes 13 Torsion [CA]-CB--CG-[CD2] |==|  0.64075
USER: genes 14 Torsion [N]-CA--CB-[CG] |==|  0.75128
USER: genes 15 Torsion [CA]-CB--CG-[CD1] |==|  0.89798
USER: genes 16 Torsion [C]-CA--CB-[CG] |==|  0.51104
USER: genes 17 Torsion [CA]-CB--CG-[CD] |==|  0.75481
USER: genes 18 Torsion [CB]-CG--CD-[NE] |==|  0.60935
USER: genes 19 Torsion [CG]-CD--NE-[CZ] |==|  0.75757
USER: genes 20 Torsion [C]-CA--N-[C] |==|  0.91978
USER: genes 21 Torsion [N]-C--CA-[N] |==|  0.40024
USER: genes 22 Torsion [C]-CA--CB-[CG] |==|  0.13451
USER: genes 23 Torsion [CA]-CB--CG-[ND1] |==|  0.67089
USER: genes 24 Torsion [C]-CA--N-[C] |==|  0.83451
USER: genes 25 Torsion [N]-C--CA-[N] |==|  0.36254
USER: genes 26 Torsion [C]-CA--CB-[CG] |==|  0.12698
USER: genes 27 Torsion [CA]-CB--CG-[CD2] |==|  0.48966
USER: genes 28 Torsion [C]-CA--N-[C] |==|  0.80509
USER: genes 29 Torsion [N]-C--CA-[N] |==|  0.43469
USER: genes 30 Torsion [C]-CA--CB-[CG1] |==|  0.78048
USER: genes 31 Torsion [CA]-CB--CG1-[CD1] |==|  0.26848
ROOT
ATOM      1  CA  ARG D 692       9.864 -11.926  36.301  1.00 48.73 LIG 0.18  C 
ENDROOT
BRANCH 1 2
ATOM      2  C   ARG D 692       8.376 -12.175  36.116  1.00 46.10 LIG 0.24  C 
ATOM      3  N   LEU D 693       7.911 -13.390  36.395  1.00 50.64 LIG-0.35  N 
ATOM      4 H    LEU D 693       8.381 -14.045  36.691  1.00 50.64 LIG 0.16  HD
ATOM      5 O    ARG D 692       7.656 -11.301  35.635  1.00 52.04 LIG-0.27  OA
BRANCH 3 6
ATOM      6  CA  LEU D 693       6.486 -13.673  36.194  1.00 43.34 LIG 0.18  C 
BRANCH 6 7
ATOM      7  C   LEU D 693       5.933 -14.614  37.256  1.00 37.95 LIG 0.24  C 
ATOM      8  N   LEU D 694       6.448 -14.500  38.464  1.00 39.22 LIG-0.35  N 
ATOM      9 H    LEU D 694       7.094 -13.967  38.656  1.00 39.22 LIG 0.16  HD
ATOM     10 O    LEU D 693       5.070 -15.449  36.963  1.00 43.86 LIG-0.27  OA
BRANCH 8 11
ATOM     11  CA  LEU D 694       5.969 -15.268  39.583  1.00 38.59 LIG 0.18  C 
BRANCH 11 12
ATOM     12  C   LEU D 694       4.708 -14.645  40.088  1.00 46.22 LIG 0.24  C 
ATOM     13  N   GLN D 695       4.664 -13.328  40.000  1.00 66.87 LIG-0.35  N 
ATOM     14 H    GLN D 695       5.351 -12.876  39.752  1.00 66.87 LIG 0.16  HD
ATOM     15 O    LEU D 694       3.857 -15.336  40.584  1.00 54.70 LIG-0.27  OA
BRANCH 13 16
ATOM     16  CA  GLN D 695       3.515 -12.460  40.290  1.00 62.86 LIG 0.16  C 
BRANCH 16 17
ATOM     17  CB  GLN D 695       2.268 -12.984  39.634  1.00 63.26 LIG 0.04  C 
BRANCH 17 18
ATOM     18  CG  GLN D 695       1.070 -12.138  39.972  1.00 77.24 LIG 0.10  C 
BRANCH 18 19
ATOM     19  CD  GLN D 695       0.954 -10.946  39.113  1.00 84.08 LIG 0.21  C 
ATOM     20 OE1  GLN D 695       1.932 -10.502  38.544  1.00 83.40 LIG-0.27  OA
ATOM     21  NE2 GLN D 695      -0.249 -10.419  38.988  1.00 79.17 LIG-0.37  N 
ATOM     22 22HE GLN D 695      -0.366  -9.730  38.486  1.00 79.17 LIG 0.16  HD
ATOM     23 21HE GLN D 695      -0.915 -10.763  39.407  1.00 79.17 LIG 0.16  HD
ENDBRANCH 18 19
ENDBRANCH 17 18
ENDBRANCH 16 17
BRANCH 16 24
ATOM     24  C   GLN D 695       3.268 -12.118  41.759  1.00 61.14 LIG 0.22  C 
ATOM     25 O    GLN D 695       3.770 -11.111  42.267  1.00 66.66 LIG-0.29  OA
ENDBRANCH 16 24
ENDBRANCH 13 16
ENDBRANCH 11 12
BRANCH 11 26
ATOM     26  CB  LEU D 694       6.968 -15.270  40.720  1.00 34.51 LIG 0.04  C 
BRANCH 26 27
ATOM     27  CG  LEU D 694       6.502 -15.066  42.140  1.00 27.71 LIG-0.02  C 
ATOM     28  CD2 LEU D 694       7.272 -14.004  42.867  1.00 26.48 LIG 0.01  C 
ATOM     29  CD1 LEU D 694       6.423 -16.341  42.929  1.00 27.00 LIG 0.01  C 
ENDBRANCH 26 27
ENDBRANCH 11 26
ENDBRANCH 8 11
ENDBRANCH 6 7
BRANCH 6 30
ATOM     30  CB  LEU D 693       6.193 -14.211  34.783  1.00 45.67 LIG 0.04  C 
BRANCH 30 31
ATOM     31  CG  LEU D 693       5.883 -13.153  33.712  1.00 55.29 LIG-0.02  C 
ATOM     32  CD1 LEU D 693       5.075 -12.004  34.301  1.00 47.80 LIG 0.01  C 
ATOM     33  CD2 LEU D 693       7.151 -12.648  33.008  1.00 51.02 LIG 0.01  C 
ENDBRANCH 30 31
ENDBRANCH 6 30
ENDBRANCH 3 6
ENDBRANCH 1 2
BRANCH 1 34
ATOM     34  CB  ARG D 692      10.623 -12.604  35.141  1.00 49.09 LIG 0.04  C 
BRANCH 34 35
ATOM     35  CG  ARG D 692      12.149 -12.476  35.318  1.00 50.62 LIG 0.02  C 
BRANCH 35 36
ATOM     36  CD  ARG D 692      12.753 -11.214  34.721  1.00 57.04 LIG 0.14  C 
BRANCH 36 37
ATOM     37  NE  ARG D 692      14.026 -11.532  34.102  1.00 60.90 LIG-0.23  N 
ATOM     38 HE   ARG D 692      14.024 -11.726  33.265  1.00 60.90 LIG 0.18  HD
ATOM     39  CZ  ARG D 692      15.191 -11.545  34.733  1.00 61.50 LIG 0.67  C 
ATOM     40  NH1 ARG D 692      15.248 -11.343  36.048  1.00 46.48 LIG-0.23  N 
ATOM     41  NH2 ARG D 692      16.296 -11.809  34.047  1.00 64.68 LIG-0.23  N 
ATOM     42 1HH1 ARG D 692      14.525 -11.203  36.493  1.00 46.48 LIG 0.17  HD
ATOM     43 2HH1 ARG D 692      16.007 -11.354  36.451  1.00 46.48 LIG 0.17  HD
ATOM     44 1HH2 ARG D 692      16.251 -11.969  33.203  1.00 64.68 LIG 0.17  HD
ATOM     45 2HH2 ARG D 692      17.057 -11.820  34.446  1.00 64.68 LIG 0.17  HD
ENDBRANCH 36 37
ENDBRANCH 35 36
ENDBRANCH 34 35
ENDBRANCH 1 34
BRANCH 1 46
ATOM     46  N   ARG D 692      10.415 -12.290  37.629  1.00 43.06 LIG-0.35  N 
ATOM     47  C   HIS D 691       9.677 -12.255  38.725  1.00 44.11 LIG 0.24  C 
ATOM     48 O    HIS D 691       8.510 -11.892  38.738  1.00 43.39 LIG-0.27  OA
ATOM     49 H    ARG D 692      11.244 -12.520  37.616  1.00 43.06 LIG 0.16  HD
BRANCH 47 50
ATOM     50  CA  HIS D 691      10.359 -12.697  39.962  1.00 41.80 LIG 0.18  C 
BRANCH 50 51
ATOM     51  CB  HIS D 691       9.968 -14.123  40.155  1.00 51.00 LIG 0.10  C 
BRANCH 51 52
ATOM     52  CG  HIS D 691      10.109 -14.960  38.952  1.00 57.86 LIG 0.06  A 
ATOM     53 ND1  HIS D 691       9.081 -15.566  38.386  1.00 60.60 LIG-0.24  NA
ATOM     54  CE1 HIS D 691       9.504 -16.251  37.327  1.00 72.50 LIG 0.23  A 
ATOM     55 NE2  HIS D 691      10.821 -16.095  37.230  1.00 67.35 LIG-0.25  NA
ATOM     56  CD2 HIS D 691      11.227 -15.309  38.218  1.00 66.29 LIG 0.14  A 
ENDBRANCH 51 52
ENDBRANCH 50 51
BRANCH 50 57
ATOM     57  N   HIS D 691       9.921 -11.924  41.103  1.00 39.94 LIG-0.35  N 
ATOM     58 H    HIS D 691       9.562 -12.396  41.726  1.00 39.94 LIG 0.16  HD
ATOM     59  C   LEU D 690      10.062 -10.611  41.176  1.00 35.88 LIG 0.24  C 
ATOM     60 O    LEU D 690      10.603  -9.929  40.279  1.00 34.66 LIG-0.27  OA
BRANCH 59 61
ATOM     61  CA  LEU D 690       9.474  -9.935  42.394  1.00 33.43 LIG 0.18  C 
BRANCH 61 62
ATOM     62  CB  LEU D 690       8.220  -9.155  41.996  1.00 31.34 LIG 0.04  C 
BRANCH 62 63
ATOM     63  CG  LEU D 690       7.229  -9.876  41.089  1.00 30.93 LIG-0.02  C 
ATOM     64  CD1 LEU D 690       6.806 -11.192  41.725  1.00 30.90 LIG 0.01  C 
ATOM     65  CD2 LEU D 690       6.009  -9.002  40.869  1.00 28.62 LIG 0.01  C 
ENDBRANCH 62 63
ENDBRANCH 61 62
BRANCH 61 66
ATOM     66  N   LEU D 690      10.442  -9.036  43.023  1.00 35.22 LIG-0.35  N 
ATOM     67 H    LEU D 690      10.258  -8.200  42.939  1.00 35.22 LIG 0.16  HD
ATOM     68  C   ILE D 689      11.509  -9.496  43.667  1.00 41.04 LIG 0.26  C 
ATOM     69 O    ILE D 689      11.724 -10.707  43.824  1.00 39.56 LIG-0.27  OA
BRANCH 68 70
ATOM     70  CA  ILE D 689      12.448  -8.426  44.261  1.00 40.35 LIG 0.40  C 
ATOM     71  N   ILE D 689      13.278  -8.955  45.413  1.00 40.45 LIG 0.61  N 
BRANCH 70 72
ATOM     72  CB  ILE D 689      13.326  -7.883  43.106  1.00 42.26 LIG 0.03  C 
ATOM     73  CG2 ILE D 689      13.840  -6.468  43.428  1.00 38.55 LIG 0.01  C 
BRANCH 72 74
ATOM     74  CG1 ILE D 689      14.476  -8.839  42.777  1.00 45.91 LIG 0.00  C 
ATOM     75  CD1 ILE D 689      14.198  -9.785  41.609  1.00 45.96 LIG 0.01  C 
ENDBRANCH 72 74
ENDBRANCH 70 72
ENDBRANCH 68 70
ENDBRANCH 61 66
ENDBRANCH 59 61
ENDBRANCH 50 57
ENDBRANCH 47 50
ENDBRANCH 1 46
TORSDOF 30
ENDMDL
MODEL 72
USER: ADFR SOLUTION from run 108
USER: SCORE 20.121420 LL:  -6.903 LR: -14.741 RR:   0.000 FEB:  -5.792
USER: RMSD 7.083496
USER: SEED 107
USER: STATUS no improvement in best in 18 clusters for 5 generations
USER: GENES 32
USER: genes 0 Translation |==|  0.67006 0.62165 0.39589
USER: genes 1 Rotation |==|  0.86035 0.25470 0.42907 0.73441
USER: genes 2 Torsion [N]-CA--C-[N] |==|  0.68436
USER: genes 3 Torsion [C]-N--CA-[C] |==|  0.59246
USER: genes 4 Torsion [N]-CA--C-[N] |==|  0.47222
USER: genes 5 Torsion [C]-N--CA-[C] |==|  0.76014
USER: genes 6 Torsion [N]-CA--C-[N] |==|  0.03166
USER: genes 7 Torsion [C]-N--CA-[CB] |==|  0.41744
USER: genes 8 Torsion [N]-CA--CB-[CG] |==|  0.20398
USER: genes 9 Torsion [CA]-CB--CG-[CD] |==|  0.42588
USER: genes 10 Torsion [CB]-CG--CD-[NE2] |==|  0.67637
USER: genes 11 Torsion [N]-CA--C-[O] |==|  0.37934
USER: genes 12 Torsion [N]-CA--CB-[CG] |==|  0.87671
USER: genes 13 Torsion [CA]-CB--CG-[CD2] |==|  0.69698
USER: genes 14 Torsion [N]-CA--CB-[CG] |==|  0.88965
USER: genes 15 Torsion [CA]-CB--CG-[CD1] |==|  0.31059
USER: genes 16 Torsion [C]-CA--CB-[CG] |==|  0.30652
USER: genes 17 Torsion [CA]-CB--CG-[CD] |==|  0.17429
USER: genes 18 Torsion [CB]-CG--CD-[NE] |==|  0.72404
USER: genes 19 Torsion [CG]-CD--NE-[CZ] |==|  0.30494
USER: genes 20 Torsion [C]-CA--N-[C] |==|  0.14108
USER: genes 21 Torsion [N]-C--CA-[N] |==|  0.35966
USER: genes 22 Torsion [C]-CA--CB-[CG] |==|  0.24108
USER: genes 23 Torsion [CA]-CB--CG-[ND1] |==|  0.79669
USER: genes 24 Torsion [C]-CA--N-[C] |==|  0.80632
USER: genes 25 Torsion [N]-C--CA-[N] |==|  0.81261
USER: genes 26 Torsion [C]-CA--CB-[CG] |==|  0.44819
USER: genes 27 Torsion [CA]-CB--CG-[CD2] |==|  0.86172
USER: genes 28 Torsion [C]-CA--N-[C] |==|  0.66796
USER: genes 29 Torsion [N]-C--CA-[N] |==|  0.40344
USER: genes 30 Torsion [C]-CA--CB-[CG1] |==|  0.15234
USER: genes 31 Torsion [CA]-CB--CG1-[CD1] |==|  0.70913
ROOT
ATOM      1  CA  ARG D 692      13.429 -12.721  36.889  1.00 48.73 LIG 0.18  C 
ENDROOT
BRANCH 1 2
ATOM      2  C   ARG D 692      12.154 -11.950  37.187  1.00 46.10 LIG 0.24  C 
ATOM      3  N   LEU D 693      11.049 -12.650  37.432  1.00 50.64 LIG-0.35  N 
ATOM      4 H    LEU D 693      11.000 -13.507  37.454  1.00 50.64 LIG 0.16  HD
ATOM      5 O    ARG D 692      12.138 -10.723  37.109  1.00 52.04 LIG-0.27  OA
BRANCH 3 6
ATOM      6  CA  LEU D 693       9.794 -11.937  37.690  1.00 43.34 LIG 0.18  C 
BRANCH 6 7
ATOM      7  C   LEU D 693       8.906 -12.678  38.681  1.00 37.95 LIG 0.24  C 
ATOM      8  N   LEU D 694       7.856 -12.021  39.129  1.00 39.22 LIG-0.35  N 
ATOM      9 H    LEU D 694       7.686 -11.202  38.927  1.00 39.22 LIG 0.16  HD
ATOM     10 O    LEU D 693       9.198 -13.822  39.047  1.00 43.86 LIG-0.27  OA
BRANCH 8 11
ATOM     11  CA  LEU D 694       6.887 -12.621  40.008  1.00 38.59 LIG 0.18  C 
BRANCH 11 12
ATOM     12  C   LEU D 694       5.863 -13.330  39.181  1.00 46.22 LIG 0.24  C 
ATOM     13  N   GLN D 695       6.173 -13.464  37.905  1.00 66.87 LIG-0.35  N 
ATOM     14 H    GLN D 695       6.872 -13.087  37.576  1.00 66.87 LIG 0.16  HD
ATOM     15 O    LEU D 694       4.826 -13.677  39.683  1.00 54.70 LIG-0.27  OA
BRANCH 13 16
ATOM     16  CA  GLN D 695       5.433 -14.224  36.889  1.00 62.86 LIG 0.16  C 
BRANCH 16 17
ATOM     17  CB  GLN D 695       5.611 -13.611  35.527  1.00 63.26 LIG 0.04  C 
BRANCH 17 18
ATOM     18  CG  GLN D 695       6.988 -13.876  34.979  1.00 77.24 LIG 0.10  C 
BRANCH 18 19
ATOM     19  CD  GLN D 695       7.024 -13.875  33.506  1.00 84.08 LIG 0.21  C 
ATOM     20 OE1  GLN D 695       6.776 -12.859  32.886  1.00 83.40 LIG-0.27  OA
ATOM     21  NE2 GLN D 695       7.353 -15.010  32.919  1.00 79.17 LIG-0.37  N 
ATOM     22 22HE GLN D 695       7.400 -15.053  32.061  1.00 79.17 LIG 0.16  HD
ATOM     23 21HE GLN D 695       7.521 -15.707  33.394  1.00 79.17 LIG 0.16  HD
ENDBRANCH 18 19
ENDBRANCH 17 18
ENDBRANCH 16 17
BRANCH 16 24
ATOM     24  C   GLN D 695       5.670 -15.732  36.854  1.00 61.14 LIG 0.22  C 
ATOM     25 O    GLN D 695       4.728 -16.519  36.724  1.00 66.66 LIG-0.29  OA
ENDBRANCH 16 24
ENDBRANCH 13 16
ENDBRANCH 11 12
BRANCH 11 26
ATOM     26  CB  LEU D 694       6.167 -11.577  40.834  1.00 34.51 LIG 0.04  C 
BRANCH 26 27
ATOM     27  CG  LEU D 694       6.941 -10.459  41.486  1.00 27.71 LIG-0.02  C 
ATOM     28  CD2 LEU D 694       7.022 -10.588  42.978  1.00 26.48 LIG 0.01  C 
ATOM     29  CD1 LEU D 694       6.482  -9.093  41.065  1.00 27.00 LIG 0.01  C 
ENDBRANCH 26 27
ENDBRANCH 11 26
ENDBRANCH 8 11
ENDBRANCH 6 7
BRANCH 6 30
ATOM     30  CB  LEU D 693       9.024 -11.627  36.394  1.00 45.67 LIG 0.04  C 
BRANCH 30 31
ATOM     31  CG  LEU D 693       9.878 -11.191  35.193  1.00 55.29 LIG-0.02  C 
ATOM     32  CD1 LEU D 693       9.863 -12.253  34.102  1.00 47.80 LIG 0.01  C 
ATOM     33  CD2 LEU D 693       9.459  -9.817  34.649  1.00 51.02 LIG 0.01  C 
ENDBRANCH 30 31
ENDBRANCH 6 30
ENDBRANCH 3 6
ENDBRANCH 1 2
BRANCH 1 34
ATOM     34  CB  ARG D 692      13.057 -14.191  36.600  1.00 49.09 LIG 0.04  C 
BRANCH 34 35
ATOM     35  CG  ARG D 692      13.274 -14.543  35.115  1.00 50.62 LIG 0.02  C 
BRANCH 35 36
ATOM     36  CD  ARG D 692      14.717 -14.438  34.642  1.00 57.04 LIG 0.14  C 
BRANCH 36 37
ATOM     37  NE  ARG D 692      14.911 -13.177  33.952  1.00 60.90 LIG-0.23  N 
ATOM     38 HE   ARG D 692      14.536 -13.082  33.184  1.00 60.90 LIG 0.18  HD
ATOM     39  CZ  ARG D 692      15.622 -12.161  34.418  1.00 61.50 LIG 0.67  C 
ATOM     40  NH1 ARG D 692      16.300 -12.280  35.558  1.00 46.48 LIG-0.23  N 
ATOM     41  NH2 ARG D 692      15.689 -11.040  33.712  1.00 64.68 LIG-0.23  N 
ATOM     42 1HH1 ARG D 692      16.278 -13.020  35.996  1.00 46.48 LIG 0.17  HD
ATOM     43 2HH1 ARG D 692      16.760 -11.617  35.855  1.00 46.48 LIG 0.17  HD
ATOM     44 1HH2 ARG D 692      15.273 -10.978  32.962  1.00 64.68 LIG 0.17  HD
ATOM     45 2HH2 ARG D 692      16.148 -10.374  34.005  1.00 64.68 LIG 0.17  HD
ENDBRANCH 36 37
ENDBRANCH 35 36
ENDBRANCH 34 35
ENDBRANCH 1 34
BRANCH 1 46
ATOM     46  N   ARG D 692      14.506 -12.597  37.900  1.00 43.06 LIG-0.35  N 
ATOM     47  C   HIS D 691      14.282 -12.800  39.187  1.00 44.11 LIG 0.24  C 
ATOM     48 O    HIS D 691      13.180 -13.066  39.644  1.00 43.39 LIG-0.27  OA
ATOM     49 H    ARG D 692      15.274 -12.385  37.575  1.00 43.06 LIG 0.16  HD
BRANCH 47 50
ATOM     50  CA  HIS D 691      15.471 -12.689  40.062  1.00 41.80 LIG 0.18  C 
BRANCH 50 51
ATOM     51  CB  HIS D 691      15.733 -14.067  40.569  1.00 51.00 LIG 0.10  C 
BRANCH 51 52
ATOM     52  CG  HIS D 691      16.577 -14.888  39.685  1.00 57.86 LIG 0.06  A 
ATOM     53 ND1  HIS D 691      16.131 -15.390  38.546  1.00 60.60 LIG-0.24  NA
ATOM     54  CE1 HIS D 691      17.103 -16.087  37.964  1.00 72.50 LIG 0.23  A 
ATOM     55 NE2  HIS D 691      18.173 -16.047  38.752  1.00 67.35 LIG-0.25  NA
ATOM     56  CD2 HIS D 691      17.882 -15.321  39.823  1.00 66.29 LIG 0.14  A 
ENDBRANCH 51 52
ENDBRANCH 50 51
BRANCH 50 57
ATOM     57  N   HIS D 691      15.215 -11.811  41.181  1.00 39.94 LIG-0.35  N 
ATOM     58 H    HIS D 691      15.168 -12.217  41.938  1.00 39.94 LIG 0.16  HD
ATOM     59  C   LEU D 690      15.066 -10.503  41.048  1.00 35.88 LIG 0.24  C 
ATOM     60 O    LEU D 690      15.157  -9.913  39.950  1.00 34.66 LIG-0.27  OA
BRANCH 59 61
ATOM     61  CA  LEU D 690      14.714  -9.732  42.299  1.00 33.43 LIG 0.18  C 
BRANCH 61 62
ATOM     62  CB  LEU D 690      15.740 -10.027  43.394  1.00 31.34 LIG 0.04  C 
BRANCH 62 63
ATOM     63  CG  LEU D 690      15.809  -9.033  44.548  1.00 30.93 LIG-0.02  C 
ATOM     64  CD1 LEU D 690      17.021  -9.331  45.417  1.00 30.90 LIG 0.01  C 
ATOM     65  CD2 LEU D 690      15.908  -7.622  44.002  1.00 28.62 LIG 0.01  C 
ENDBRANCH 62 63
ENDBRANCH 61 62
BRANCH 61 66
ATOM     66  N   LEU D 690      13.370 -10.068  42.771  1.00 35.22 LIG-0.35  N 
ATOM     67 H    LEU D 690      13.262 -10.897  42.973  1.00 35.22 LIG 0.16  HD
ATOM     68  C   ILE D 689      12.414  -9.153  42.871  1.00 41.04 LIG 0.26  C 
ATOM     69 O    ILE D 689      12.609  -7.953  42.626  1.00 39.56 LIG-0.27  OA
BRANCH 68 70
ATOM     70  CA  ILE D 689      11.044  -9.664  43.365  1.00 40.35 LIG 0.40  C 
ATOM     71  N   ILE D 689      10.319  -8.647  44.223  1.00 40.45 LIG 0.61  N 
BRANCH 70 72
ATOM     72  CB  ILE D 689      10.222 -10.072  42.118  1.00 42.26 LIG 0.03  C 
ATOM     73  CG2 ILE D 689       9.807  -8.831  41.306  1.00 38.55 LIG 0.01  C 
BRANCH 72 74
ATOM     74  CG1 ILE D 689      10.977 -11.084  41.252  1.00 45.91 LIG 0.00  C 
ATOM     75  CD1 ILE D 689      11.573 -10.500  39.971  1.00 45.96 LIG 0.01  C 
ENDBRANCH 72 74
ENDBRANCH 70 72
ENDBRANCH 68 70
ENDBRANCH 61 66
ENDBRANCH 59 61
ENDBRANCH 50 57
ENDBRANCH 47 50
ENDBRANCH 1 46
TORSDOF 30
ENDMDL
MODEL 73
USER: ADFR SOLUTION from run 138
USER: SCORE 20.636494 LL:  -6.868 LR: -14.733 RR:   0.000 FEB:  -5.784
USER: RMSD 7.150690
USER: SEED 137
USER: STATUS no improvement in best in 29 clusters for 5 generations
USER: GENES 32
USER: genes 0 Translation |==|  0.53431 0.64102 0.30492
USER: genes 1 Rotation |==|  0.12054 0.67292 0.69399 0.69615
USER: genes 2 Torsion [N]-CA--C-[N] |==|  0.96176
USER: genes 3 Torsion [C]-N--CA-[C] |==|  0.69429
USER: genes 4 Torsion [N]-CA--C-[N] |==|  0.13065
USER: genes 5 Torsion [C]-N--CA-[C] |==|  0.84883
USER: genes 6 Torsion [N]-CA--C-[N] |==|  0.89743
USER: genes 7 Torsion [C]-N--CA-[CB] |==|  0.33508
USER: genes 8 Torsion [N]-CA--CB-[CG] |==|  0.93649
USER: genes 9 Torsion [CA]-CB--CG-[CD] |==|  0.29695
USER: genes 10 Torsion [CB]-CG--CD-[NE2] |==|  0.09930
USER: genes 11 Torsion [N]-CA--C-[O] |==|  0.02723
USER: genes 12 Torsion [N]-CA--CB-[CG] |==|  0.96921
USER: genes 13 Torsion [CA]-CB--CG-[CD2] |==|  0.80772
USER: genes 14 Torsion [N]-CA--CB-[CG] |==|  0.77908
USER: genes 15 Torsion [CA]-CB--CG-[CD1] |==|  0.83498
USER: genes 16 Torsion [C]-CA--CB-[CG] |==|  0.40505
USER: genes 17 Torsion [CA]-CB--CG-[CD] |==|  0.99679
USER: genes 18 Torsion [CB]-CG--CD-[NE] |==|  0.38722
USER: genes 19 Torsion [CG]-CD--NE-[CZ] |==|  0.47292
USER: genes 20 Torsion [C]-CA--N-[C] |==|  0.68668
USER: genes 21 Torsion [N]-C--CA-[N] |==|  0.35758
USER: genes 22 Torsion [C]-CA--CB-[CG] |==|  0.60212
USER: genes 23 Torsion [CA]-CB--CG-[ND1] |==|  0.80779
USER: genes 24 Torsion [C]-CA--N-[C] |==|  0.85546
USER: genes 25 Torsion [N]-C--CA-[N] |==|  0.45600
USER: genes 26 Torsion [C]-CA--CB-[CG] |==|  0.21151
USER: genes 27 Torsion [CA]-CB--CG-[CD2] |==|  0.69980
USER: genes 28 Torsion [C]-CA--N-[C] |==|  0.58420
USER: genes 29 Torsion [N]-C--CA-[N] |==|  0.92190
USER: genes 30 Torsion [C]-CA--CB-[CG1] |==|  0.83556
USER: genes 31 Torsion [CA]-CB--CG1-[CD1] |==|  0.36463
ROOT
ATOM      1  CA  ARG D 692      10.375 -12.358  35.115  1.00 48.73 LIG 0.18  C 
ENDROOT
BRANCH 1 2
ATOM      2  C   ARG D 692       8.985 -12.270  35.724  1.00 46.10 LIG 0.24  C 
ATOM      3  N   LEU D 693       8.281 -13.395  35.827  1.00 50.64 LIG-0.35  N 
ATOM      4 H    LEU D 693       8.556 -14.175  35.594  1.00 50.64 LIG 0.16  HD
ATOM      5 O    ARG D 692       8.505 -11.177  36.020  1.00 52.04 LIG-0.27  OA
BRANCH 3 6
ATOM      6  CA  LEU D 693       6.924 -13.340  36.379  1.00 43.34 LIG 0.18  C 
BRANCH 6 7
ATOM      7  C   LEU D 693       6.837 -13.990  37.754  1.00 37.95 LIG 0.24  C 
ATOM      8  N   LEU D 694       7.771 -13.651  38.620  1.00 39.22 LIG-0.35  N 
ATOM      9 H    LEU D 694       8.430 -13.134  38.430  1.00 39.22 LIG 0.16  HD
ATOM     10 O    LEU D 693       5.945 -14.808  38.004  1.00 43.86 LIG-0.27  OA
BRANCH 8 11
ATOM     11  CA  LEU D 694       7.770 -14.124  39.979  1.00 38.59 LIG 0.18  C 
BRANCH 11 12
ATOM     12  C   LEU D 694       6.453 -13.792  40.603  1.00 46.22 LIG 0.24  C 
ATOM     13  N   GLN D 695       5.940 -12.631  40.237  1.00 66.87 LIG-0.35  N 
ATOM     14 H    GLN D 695       6.386 -12.084  39.746  1.00 66.87 LIG 0.16  HD
ATOM     15 O    LEU D 694       5.973 -14.535  41.418  1.00 54.70 LIG-0.27  OA
BRANCH 13 16
ATOM     16  CA  GLN D 695       4.613 -12.103  40.576  1.00 62.86 LIG 0.16  C 
BRANCH 16 17
ATOM     17  CB  GLN D 695       4.729 -10.800  41.318  1.00 63.26 LIG 0.04  C 
BRANCH 17 18
ATOM     18  CG  GLN D 695       6.071 -10.664  41.986  1.00 77.24 LIG 0.10  C 
BRANCH 18 19
ATOM     19  CD  GLN D 695       6.948  -9.691  41.307  1.00 84.08 LIG 0.21  C 
ATOM     20 OE1  GLN D 695       8.143  -9.894  41.227  1.00 83.40 LIG-0.27  OA
ATOM     21  NE2 GLN D 695       6.364  -8.627  40.790  1.00 79.17 LIG-0.37  N 
ATOM     22 22HE GLN D 695       6.834  -8.039  40.374  1.00 79.17 LIG 0.16  HD
ATOM     23 21HE GLN D 695       5.515  -8.521  40.869  1.00 79.17 LIG 0.16  HD
ENDBRANCH 18 19
ENDBRANCH 17 18
ENDBRANCH 16 17
BRANCH 16 24
ATOM     24  C   GLN D 695       3.602 -12.005  39.435  1.00 61.14 LIG 0.22  C 
ATOM     25 O    GLN D 695       3.835 -12.517  38.337  1.00 66.66 LIG-0.29  OA
ENDBRANCH 16 24
ENDBRANCH 13 16
ENDBRANCH 11 12
BRANCH 11 26
ATOM     26  CB  LEU D 694       8.849 -13.451  40.800  1.00 34.51 LIG 0.04  C 
BRANCH 26 27
ATOM     27  CG  LEU D 694       9.911 -12.620  40.123  1.00 27.71 LIG-0.02  C 
ATOM     28  CD2 LEU D 694      10.866 -13.435  39.303  1.00 26.48 LIG 0.01  C 
ATOM     29  CD1 LEU D 694      10.627 -11.691  41.060  1.00 27.00 LIG 0.01  C 
ENDBRANCH 26 27
ENDBRANCH 11 26
ENDBRANCH 8 11
ENDBRANCH 6 7
BRANCH 6 30
ATOM     30  CB  LEU D 693       5.883 -13.947  35.423  1.00 45.67 LIG 0.04  C 
BRANCH 30 31
ATOM     31  CG  LEU D 693       5.426 -13.044  34.267  1.00 55.29 LIG-0.02  C 
ATOM     32  CD1 LEU D 693       4.803 -11.758  34.795  1.00 47.80 LIG 0.01  C 
ATOM     33  CD2 LEU D 693       6.559 -12.754  33.272  1.00 51.02 LIG 0.01  C 
ENDBRANCH 30 31
ENDBRANCH 6 30
ENDBRANCH 3 6
ENDBRANCH 1 2
BRANCH 1 34
ATOM     34  CB  ARG D 692      10.372 -11.593  33.775  1.00 49.09 LIG 0.04  C 
BRANCH 34 35
ATOM     35  CG  ARG D 692      11.729 -10.908  33.517  1.00 50.62 LIG 0.02  C 
BRANCH 35 36
ATOM     36  CD  ARG D 692      12.756 -11.099  34.622  1.00 57.04 LIG 0.14  C 
BRANCH 36 37
ATOM     37  NE  ARG D 692      14.063 -11.329  34.036  1.00 60.90 LIG-0.23  N 
ATOM     38 HE   ARG D 692      14.100 -11.462  33.187  1.00 60.90 LIG 0.18  HD
ATOM     39  CZ  ARG D 692      15.202 -11.350  34.711  1.00 61.50 LIG 0.67  C 
ATOM     40  NH1 ARG D 692      15.201 -11.243  36.038  1.00 46.48 LIG-0.23  N 
ATOM     41  NH2 ARG D 692      16.341 -11.527  34.054  1.00 64.68 LIG-0.23  N 
ATOM     42 1HH1 ARG D 692      14.457 -11.159  36.462  1.00 46.48 LIG 0.17  HD
ATOM     43 2HH1 ARG D 692      15.944 -11.258  36.471  1.00 46.48 LIG 0.17  HD
ATOM     44 1HH2 ARG D 692      16.335 -11.627  33.200  1.00 64.68 LIG 0.17  HD
ATOM     45 2HH2 ARG D 692      17.087 -11.543  34.482  1.00 64.68 LIG 0.17  HD
ENDBRANCH 36 37
ENDBRANCH 35 36
ENDBRANCH 34 35
ENDBRANCH 1 34
BRANCH 1 46
ATOM     46  N   ARG D 692      10.935 -13.724  34.987  1.00 43.06 LIG-0.35  N 
ATOM     47  C   HIS D 691      11.980 -14.120  35.694  1.00 44.11 LIG 0.24  C 
ATOM     48 O    HIS D 691      12.580 -13.391  36.471  1.00 43.39 LIG-0.27  OA
ATOM     49 H    ARG D 692      10.523 -14.224  34.420  1.00 43.06 LIG 0.16  HD
BRANCH 47 50
ATOM     50  CA  HIS D 691      12.386 -15.529  35.491  1.00 41.80 LIG 0.18  C 
BRANCH 50 51
ATOM     51  CB  HIS D 691      12.105 -16.223  36.780  1.00 51.00 LIG 0.10  C 
BRANCH 51 52
ATOM     52  CG  HIS D 691      13.095 -17.251  37.144  1.00 57.86 LIG 0.06  A 
ATOM     53 ND1  HIS D 691      13.215 -18.386  36.478  1.00 60.60 LIG-0.24  NA
ATOM     54  CE1 HIS D 691      14.179 -19.118  37.030  1.00 72.50 LIG 0.23  A 
ATOM     55 NE2  HIS D 691      14.665 -18.449  38.071  1.00 67.35 LIG-0.25  NA
ATOM     56  CD2 HIS D 691      14.016 -17.297  38.173  1.00 66.29 LIG 0.14  A 
ENDBRANCH 51 52
ENDBRANCH 50 51
BRANCH 50 57
ATOM     57  N   HIS D 691      13.797 -15.627  35.194  1.00 39.94 LIG-0.35  N 
ATOM     58 H    HIS D 691      14.221 -16.183  35.696  1.00 39.94 LIG 0.16  HD
ATOM     59  C   LEU D 690      14.380 -14.923  34.238  1.00 35.88 LIG 0.24  C 
ATOM     60 O    LEU D 690      13.759 -14.132  33.496  1.00 34.66 LIG-0.27  OA
BRANCH 59 61
ATOM     61  CA  LEU D 690      15.879 -15.069  34.109  1.00 33.43 LIG 0.18  C 
BRANCH 61 62
ATOM     62  CB  LEU D 690      16.571 -14.325  35.252  1.00 31.34 LIG 0.04  C 
BRANCH 62 63
ATOM     63  CG  LEU D 690      16.544 -15.001  36.618  1.00 30.93 LIG-0.02  C 
ATOM     64  CD1 LEU D 690      17.941 -15.011  37.219  1.00 30.90 LIG 0.01  C 
ATOM     65  CD2 LEU D 690      15.599 -14.254  37.540  1.00 28.62 LIG 0.01  C 
ENDBRANCH 62 63
ENDBRANCH 61 62
BRANCH 61 66
ATOM     66  N   LEU D 690      16.355 -14.559  32.821  1.00 35.22 LIG-0.35  N 
ATOM     67 H    LEU D 690      15.885 -13.915  32.500  1.00 35.22 LIG 0.16  HD
ATOM     68  C   ILE D 689      17.425 -15.066  32.221  1.00 41.04 LIG 0.26  C 
ATOM     69 O    ILE D 689      18.119 -15.957  32.732  1.00 39.56 LIG-0.27  OA
BRANCH 68 70
ATOM     70  CA  ILE D 689      17.791 -14.437  30.860  1.00 40.35 LIG 0.40  C 
ATOM     71  N   ILE D 689      16.584 -13.877  30.134  1.00 40.45 LIG 0.61  N 
BRANCH 70 72
ATOM     72  CB  ILE D 689      18.872 -13.359  31.120  1.00 42.26 LIG 0.03  C 
ATOM     73  CG2 ILE D 689      19.369 -12.752  29.795  1.00 38.55 LIG 0.01  C 
BRANCH 72 74
ATOM     74  CG1 ILE D 689      18.367 -12.278  32.081  1.00 45.91 LIG 0.00  C 
ATOM     75  CD1 ILE D 689      19.324 -11.954  33.227  1.00 45.96 LIG 0.01  C 
ENDBRANCH 72 74
ENDBRANCH 70 72
ENDBRANCH 68 70
ENDBRANCH 61 66
ENDBRANCH 59 61
ENDBRANCH 50 57
ENDBRANCH 47 50
ENDBRANCH 1 46
TORSDOF 30
ENDMDL
MODEL 74
USER: ADFR SOLUTION from run 192
USER: SCORE 20.908701 LL:  -7.825 LR: -14.727 RR:   0.000 FEB:  -5.778
USER: RMSD 6.609521
USER: SEED 191
USER: STATUS no improvement in best in 18 clusters for 5 generations
USER: GENES 32
USER: genes 0 Translation |==|  0.54816 0.66664 0.29929
USER: genes 1 Rotation |==|  0.11888 0.67242 0.68954 0.69773
USER: genes 2 Torsion [N]-CA--C-[N] |==|  1.00000
USER: genes 3 Torsion [C]-N--CA-[C] |==|  0.69576
USER: genes 4 Torsion [N]-CA--C-[N] |==|  0.11847
USER: genes 5 Torsion [C]-N--CA-[C] |==|  0.76194
USER: genes 6 Torsion [N]-CA--C-[N] |==|  0.14456
USER: genes 7 Torsion [C]-N--CA-[CB] |==|  0.71802
USER: genes 8 Torsion [N]-CA--CB-[CG] |==|  0.76341
USER: genes 9 Torsion [CA]-CB--CG-[CD] |==|  0.98559
USER: genes 10 Torsion [CB]-CG--CD-[NE2] |==|  0.26678
USER: genes 11 Torsion [N]-CA--C-[O] |==|  0.13332
USER: genes 12 Torsion [N]-CA--CB-[CG] |==|  0.15989
USER: genes 13 Torsion [CA]-CB--CG-[CD2] |==|  0.77758
USER: genes 14 Torsion [N]-CA--CB-[CG] |==|  0.77950
USER: genes 15 Torsion [CA]-CB--CG-[CD1] |==|  0.81784
USER: genes 16 Torsion [C]-CA--CB-[CG] |==|  0.42135
USER: genes 17 Torsion [CA]-CB--CG-[CD] |==|  0.00049
USER: genes 18 Torsion [CB]-CG--CD-[NE] |==|  0.38947
USER: genes 19 Torsion [CG]-CD--NE-[CZ] |==|  0.48747
USER: genes 20 Torsion [C]-CA--N-[C] |==|  0.77915
USER: genes 21 Torsion [N]-C--CA-[N] |==|  0.40676
USER: genes 22 Torsion [C]-CA--CB-[CG] |==|  0.85056
USER: genes 23 Torsion [CA]-CB--CG-[ND1] |==|  0.85211
USER: genes 24 Torsion [C]-CA--N-[C] |==|  0.83362
USER: genes 25 Torsion [N]-C--CA-[N] |==|  0.68687
USER: genes 26 Torsion [C]-CA--CB-[CG] |==|  0.30550
USER: genes 27 Torsion [CA]-CB--CG-[CD2] |==|  0.28707
USER: genes 28 Torsion [C]-CA--N-[C] |==|  0.18867
USER: genes 29 Torsion [N]-C--CA-[N] |==|  0.89604
USER: genes 30 Torsion [C]-CA--CB-[CG1] |==|  0.38727
USER: genes 31 Torsion [CA]-CB--CG1-[CD1] |==|  0.19242
ROOT
ATOM      1  CA  ARG D 692      10.687 -11.877  35.005  1.00 48.73 LIG 0.18  C 
ENDROOT
BRANCH 1 2
ATOM      2  C   ARG D 692       9.286 -11.780  35.587  1.00 46.10 LIG 0.24  C 
ATOM      3  N   LEU D 693       8.681 -12.911  35.942  1.00 50.64 LIG-0.35  N 
ATOM      4 H    LEU D 693       9.026 -13.696  35.886  1.00 50.64 LIG 0.16  HD
ATOM      5 O    ARG D 692       8.709 -10.695  35.636  1.00 52.04 LIG-0.27  OA
BRANCH 3 6
ATOM      6  CA  LEU D 693       7.317 -12.856  36.475  1.00 43.34 LIG 0.18  C 
BRANCH 6 7
ATOM      7  C   LEU D 693       7.269 -13.177  37.963  1.00 37.95 LIG 0.24  C 
ATOM      8  N   LEU D 694       8.211 -12.635  38.708  1.00 39.22 LIG-0.35  N 
ATOM      9 H    LEU D 694       8.855 -12.163  38.391  1.00 39.22 LIG 0.16  HD
ATOM     10 O    LEU D 693       6.399 -13.932  38.412  1.00 43.86 LIG-0.27  OA
BRANCH 8 11
ATOM     11  CA  LEU D 694       8.245 -12.786  40.139  1.00 38.59 LIG 0.18  C 
BRANCH 11 12
ATOM     12  C   LEU D 694       7.385 -11.731  40.755  1.00 46.22 LIG 0.24  C 
ATOM     13  N   GLN D 695       6.159 -11.659  40.271  1.00 66.87 LIG-0.35  N 
ATOM     14 H    GLN D 695       5.921 -12.131  39.593  1.00 66.87 LIG 0.16  HD
ATOM     15 O    LEU D 694       7.848 -10.990  41.583  1.00 54.70 LIG-0.27  OA
BRANCH 13 16
ATOM     16  CA  GLN D 695       5.059 -10.820  40.765  1.00 62.86 LIG 0.16  C 
BRANCH 16 17
ATOM     17  CB  GLN D 695       4.097 -11.631  41.591  1.00 63.26 LIG 0.04  C 
BRANCH 17 18
ATOM     18  CG  GLN D 695       3.072 -12.315  40.726  1.00 77.24 LIG 0.10  C 
BRANCH 18 19
ATOM     19  CD  GLN D 695       3.180 -11.934  39.307  1.00 84.08 LIG 0.21  C 
ATOM     20 OE1  GLN D 695       2.661 -10.911  38.904  1.00 83.40 LIG-0.27  OA
ATOM     21  NE2 GLN D 695       3.872 -12.741  38.526  1.00 79.17 LIG-0.37  N 
ATOM     22 22HE GLN D 695       3.973 -12.552  37.693  1.00 79.17 LIG 0.16  HD
ATOM     23 21HE GLN D 695       4.224 -13.455  38.850  1.00 79.17 LIG 0.16  HD
ENDBRANCH 18 19
ENDBRANCH 17 18
ENDBRANCH 16 17
BRANCH 16 24
ATOM     24  C   GLN D 695       5.451  -9.527  41.478  1.00 61.14 LIG 0.22  C 
ATOM     25 O    GLN D 695       6.282  -8.759  40.986  1.00 66.66 LIG-0.29  OA
ENDBRANCH 16 24
ENDBRANCH 13 16
ENDBRANCH 11 12
BRANCH 11 26
ATOM     26  CB  LEU D 694       9.648 -12.610  40.681  1.00 34.51 LIG 0.04  C 
BRANCH 26 27
ATOM     27  CG  LEU D 694      10.406 -11.331  40.422  1.00 27.71 LIG-0.02  C 
ATOM     28  CD2 LEU D 694      11.025 -11.277  39.058  1.00 26.48 LIG 0.01  C 
ATOM     29  CD1 LEU D 694      11.396 -10.998  41.501  1.00 27.00 LIG 0.01  C 
ENDBRANCH 26 27
ENDBRANCH 11 26
ENDBRANCH 8 11
ENDBRANCH 6 7
BRANCH 6 30
ATOM     30  CB  LEU D 693       6.349 -13.758  35.691  1.00 45.67 LIG 0.04  C 
BRANCH 30 31
ATOM     31  CG  LEU D 693       5.831 -13.192  34.359  1.00 55.29 LIG-0.02  C 
ATOM     32  CD1 LEU D 693       4.961 -11.965  34.592  1.00 47.80 LIG 0.01  C 
ATOM     33  CD2 LEU D 693       6.970 -12.897  33.371  1.00 51.02 LIG 0.01  C 
ENDBRANCH 30 31
ENDBRANCH 6 30
ENDBRANCH 3 6
ENDBRANCH 1 2
BRANCH 1 34
ATOM     34  CB  ARG D 692      10.714 -11.117  33.663  1.00 49.09 LIG 0.04  C 
BRANCH 34 35
ATOM     35  CG  ARG D 692      12.120 -10.563  33.359  1.00 50.62 LIG 0.02  C 
BRANCH 35 36
ATOM     36  CD  ARG D 692      13.167 -10.877  34.418  1.00 57.04 LIG 0.14  C 
BRANCH 36 37
ATOM     37  NE  ARG D 692      14.425 -11.204  33.774  1.00 60.90 LIG-0.23  N 
ATOM     38 HE   ARG D 692      14.433 -11.246  32.915  1.00 60.90 LIG 0.18  HD
ATOM     39  CZ  ARG D 692      15.561 -11.442  34.411  1.00 61.50 LIG 0.67  C 
ATOM     40  NH1 ARG D 692      15.593 -11.482  35.742  1.00 46.48 LIG-0.23  N 
ATOM     41  NH2 ARG D 692      16.659 -11.688  33.708  1.00 64.68 LIG-0.23  N 
ATOM     42 1HH1 ARG D 692      14.872 -11.352  36.193  1.00 46.48 LIG 0.17  HD
ATOM     43 2HH1 ARG D 692      16.334 -11.638  36.150  1.00 46.48 LIG 0.17  HD
ATOM     44 1HH2 ARG D 692      16.628 -11.691  32.848  1.00 64.68 LIG 0.17  HD
ATOM     45 2HH2 ARG D 692      17.402 -11.844  34.111  1.00 64.68 LIG 0.17  HD
ENDBRANCH 36 37
ENDBRANCH 35 36
ENDBRANCH 34 35
ENDBRANCH 1 34
BRANCH 1 46
ATOM     46  N   ARG D 692      11.241 -13.247  34.892  1.00 43.06 LIG-0.35  N 
ATOM     47  C   HIS D 691      11.758 -13.880  35.932  1.00 44.11 LIG 0.24  C 
ATOM     48 O    HIS D 691      11.852 -13.380  37.044  1.00 43.39 LIG-0.27  OA
ATOM     49 H    ARG D 692      11.195 -13.584  34.101  1.00 43.06 LIG 0.16  HD
BRANCH 47 50
ATOM     50  CA  HIS D 691      12.222 -15.260  35.668  1.00 41.80 LIG 0.18  C 
BRANCH 50 51
ATOM     51  CB  HIS D 691      11.091 -16.151  36.055  1.00 51.00 LIG 0.10  C 
BRANCH 51 52
ATOM     52  CG  HIS D 691      10.595 -15.940  37.425  1.00 57.86 LIG 0.06  A 
ATOM     53 ND1  HIS D 691      11.392 -15.965  38.479  1.00 60.60 LIG-0.24  NA
ATOM     54  CE1 HIS D 691      10.673 -15.750  39.577  1.00 72.50 LIG 0.23  A 
ATOM     55 NE2  HIS D 691       9.400 -15.609  39.221  1.00 67.35 LIG-0.25  NA
ATOM     56  CD2 HIS D 691       9.316 -15.725  37.902  1.00 66.29 LIG 0.14  A 
ENDBRANCH 51 52
ENDBRANCH 50 51
BRANCH 50 57
ATOM     57  N   HIS D 691      13.380 -15.584  36.471  1.00 39.94 LIG-0.35  N 
ATOM     58 H    HIS D 691      13.262 -16.253  36.998  1.00 39.94 LIG 0.16  HD
ATOM     59  C   LEU D 690      14.515 -14.908  36.398  1.00 35.88 LIG 0.24  C 
ATOM     60 O    LEU D 690      14.692 -13.950  35.615  1.00 34.66 LIG-0.27  OA
BRANCH 59 61
ATOM     61  CA  LEU D 690      15.604 -15.311  37.365  1.00 33.43 LIG 0.18  C 
BRANCH 61 62
ATOM     62  CB  LEU D 690      15.205 -16.600  38.085  1.00 31.34 LIG 0.04  C 
BRANCH 62 63
ATOM     63  CG  LEU D 690      15.993 -17.854  37.721  1.00 30.93 LIG-0.02  C 
ATOM     64  CD1 LEU D 690      16.732 -17.640  36.409  1.00 30.90 LIG 0.01  C 
ATOM     65  CD2 LEU D 690      16.989 -18.169  38.820  1.00 28.62 LIG 0.01  C 
ENDBRANCH 62 63
ENDBRANCH 61 62
BRANCH 61 66
ATOM     66  N   LEU D 690      15.864 -14.254  38.344  1.00 35.22 LIG-0.35  N 
ATOM     67 H    LEU D 690      16.634 -13.878  38.264  1.00 35.22 LIG 0.16  HD
ATOM     68  C   ILE D 689      14.971 -13.921  39.268  1.00 41.04 LIG 0.26  C 
ATOM     69 O    ILE D 689      13.846 -14.439  39.328  1.00 39.56 LIG-0.27  OA
BRANCH 68 70
ATOM     70  CA  ILE D 689      15.398 -12.801  40.241  1.00 40.35 LIG 0.40  C 
ATOM     71  N   ILE D 689      16.865 -12.882  40.614  1.00 40.45 LIG 0.61  N 
BRANCH 70 72
ATOM     72  CB  ILE D 689      15.034 -11.448  39.583  1.00 42.26 LIG 0.03  C 
ATOM     73  CG2 ILE D 689      14.074 -11.657  38.397  1.00 38.55 LIG 0.01  C 
BRANCH 72 74
ATOM     74  CG1 ILE D 689      14.460 -10.462  40.605  1.00 45.91 LIG 0.00  C 
ATOM     75  CD1 ILE D 689      15.474  -9.950  41.628  1.00 45.96 LIG 0.01  C 
ENDBRANCH 72 74
ENDBRANCH 70 72
ENDBRANCH 68 70
ENDBRANCH 61 66
ENDBRANCH 59 61
ENDBRANCH 50 57
ENDBRANCH 47 50
ENDBRANCH 1 46
TORSDOF 30
ENDMDL
MODEL 75
USER: ADFR SOLUTION from run 100
USER: SCORE 22.114251 LL:  -8.248 LR: -14.713 RR:   0.000 FEB:  -5.764
USER: RMSD 6.843257
USER: SEED 99
USER: STATUS no improvement in best in 21 clusters for 5 generations
USER: GENES 32
USER: genes 0 Translation |==|  0.54110 0.68710 0.31712
USER: genes 1 Rotation |==|  0.03480 0.62867 0.62370 0.54160
USER: genes 2 Torsion [N]-CA--C-[N] |==|  0.95042
USER: genes 3 Torsion [C]-N--CA-[C] |==|  0.62987
USER: genes 4 Torsion [N]-CA--C-[N] |==|  0.24491
USER: genes 5 Torsion [C]-N--CA-[C] |==|  0.77329
USER: genes 6 Torsion [N]-CA--C-[N] |==|  0.98987
USER: genes 7 Torsion [C]-N--CA-[CB] |==|  0.89376
USER: genes 8 Torsion [N]-CA--CB-[CG] |==|  0.74403
USER: genes 9 Torsion [CA]-CB--CG-[CD] |==|  0.16509
USER: genes 10 Torsion [CB]-CG--CD-[NE2] |==|  0.16790
USER: genes 11 Torsion [N]-CA--C-[O] |==|  0.13961
USER: genes 12 Torsion [N]-CA--CB-[CG] |==|  0.20920
USER: genes 13 Torsion [CA]-CB--CG-[CD2] |==|  0.65366
USER: genes 14 Torsion [N]-CA--CB-[CG] |==|  0.70440
USER: genes 15 Torsion [CA]-CB--CG-[CD1] |==|  0.87162
USER: genes 16 Torsion [C]-CA--CB-[CG] |==|  0.43248
USER: genes 17 Torsion [CA]-CB--CG-[CD] |==|  0.08059
USER: genes 18 Torsion [CB]-CG--CD-[NE] |==|  0.33826
USER: genes 19 Torsion [CG]-CD--NE-[CZ] |==|  0.53854
USER: genes 20 Torsion [C]-CA--N-[C] |==|  0.79449
USER: genes 21 Torsion [N]-C--CA-[N] |==|  0.44800
USER: genes 22 Torsion [C]-CA--CB-[CG] |==|  0.78439
USER: genes 23 Torsion [CA]-CB--CG-[ND1] |==|  0.67746
USER: genes 24 Torsion [C]-CA--N-[C] |==|  0.81392
USER: genes 25 Torsion [N]-C--CA-[N] |==|  0.93790
USER: genes 26 Torsion [C]-CA--CB-[CG] |==|  0.40365
USER: genes 27 Torsion [CA]-CB--CG-[CD2] |==|  0.55203
USER: genes 28 Torsion [C]-CA--N-[C] |==|  0.68351
USER: genes 29 Torsion [N]-C--CA-[N] |==|  0.37022
USER: genes 30 Torsion [C]-CA--CB-[CG1] |==|  0.99459
USER: genes 31 Torsion [CA]-CB--CG1-[CD1] |==|  0.71207
ROOT
ATOM      1  CA  ARG D 692      10.528 -11.494  35.353  1.00 48.73 LIG 0.18  C 
ENDROOT
BRANCH 1 2
ATOM      2  C   ARG D 692       9.055 -11.678  35.682  1.00 46.10 LIG 0.24  C 
ATOM      3  N   LEU D 693       8.700 -12.775  36.345  1.00 50.64 LIG-0.35  N 
ATOM      4 H    LEU D 693       9.240 -13.384  36.621  1.00 50.64 LIG 0.16  HD
ATOM      5 O    ARG D 692       8.221 -10.878  35.261  1.00 52.04 LIG-0.27  OA
BRANCH 3 6
ATOM      6  CA  LEU D 693       7.284 -13.000  36.649  1.00 43.34 LIG 0.18  C 
BRANCH 6 7
ATOM      7  C   LEU D 693       7.066 -13.416  38.098  1.00 37.95 LIG 0.24  C 
ATOM      8  N   LEU D 694       6.907 -12.440  38.968  1.00 39.22 LIG-0.35  N 
ATOM      9 H    LEU D 694       6.966 -11.607  38.764  1.00 39.22 LIG 0.16  HD
ATOM     10 O    LEU D 693       7.074 -14.611  38.413  1.00 43.86 LIG-0.27  OA
BRANCH 8 11
ATOM     11  CA  LEU D 694       6.615 -12.684  40.356  1.00 38.59 LIG 0.18  C 
BRANCH 11 12
ATOM     12  C   LEU D 694       5.150 -12.940  40.501  1.00 46.22 LIG 0.24  C 
ATOM     13  N   GLN D 695       4.450 -12.817  39.388  1.00 66.87 LIG-0.35  N 
ATOM     14 H    GLN D 695       4.812 -12.525  38.666  1.00 66.87 LIG 0.16  HD
ATOM     15 O    LEU D 694       4.689 -13.177  41.587  1.00 54.70 LIG-0.27  OA
BRANCH 13 16
ATOM     16  CA  GLN D 695       3.029 -13.135  39.196  1.00 62.86 LIG 0.16  C 
BRANCH 16 17
ATOM     17  CB  GLN D 695       2.649 -14.374  39.960  1.00 63.26 LIG 0.04  C 
BRANCH 17 18
ATOM     18  CG  GLN D 695       2.786 -15.608  39.110  1.00 77.24 LIG 0.10  C 
BRANCH 18 19
ATOM     19  CD  GLN D 695       4.160 -15.806  38.613  1.00 84.08 LIG 0.21  C 
ATOM     20 OE1  GLN D 695       4.386 -15.812  37.419  1.00 83.40 LIG-0.27  OA
ATOM     21  NE2 GLN D 695       5.104 -15.953  39.523  1.00 79.17 LIG-0.37  N 
ATOM     22 22HE GLN D 695       5.923 -16.058  39.279  1.00 79.17 LIG 0.16  HD
ATOM     23 21HE GLN D 695       4.902 -15.943  40.358  1.00 79.17 LIG 0.16  HD
ENDBRANCH 18 19
ENDBRANCH 17 18
ENDBRANCH 16 17
BRANCH 16 24
ATOM     24  C   GLN D 695       2.034 -12.002  39.444  1.00 61.14 LIG 0.22  C 
ATOM     25 O    GLN D 695       2.190 -10.896  38.919  1.00 66.66 LIG-0.29  OA
ENDBRANCH 16 24
ENDBRANCH 13 16
ENDBRANCH 11 12
BRANCH 11 26
ATOM     26  CB  LEU D 694       6.958 -11.484  41.213  1.00 34.51 LIG 0.04  C 
BRANCH 26 27
ATOM     27  CG  LEU D 694       6.065 -10.267  41.208  1.00 27.71 LIG-0.02  C 
ATOM     28  CD2 LEU D 694       6.794  -9.002  40.867  1.00 26.48 LIG 0.01  C 
ATOM     29  CD1 LEU D 694       5.248 -10.124  42.459  1.00 27.00 LIG 0.01  C 
ENDBRANCH 26 27
ENDBRANCH 11 26
ENDBRANCH 8 11
ENDBRANCH 6 7
BRANCH 6 30
ATOM     30  CB  LEU D 693       6.637 -14.013  35.688  1.00 45.67 LIG 0.04  C 
BRANCH 30 31
ATOM     31  CG  LEU D 693       5.681 -13.426  34.637  1.00 55.29 LIG-0.02  C 
ATOM     32  CD1 LEU D 693       4.720 -12.431  35.273  1.00 47.80 LIG 0.01  C 
ATOM     33  CD2 LEU D 693       6.432 -12.806  33.450  1.00 51.02 LIG 0.01  C 
ENDBRANCH 30 31
ENDBRANCH 6 30
ENDBRANCH 3 6
ENDBRANCH 1 2
BRANCH 1 34
ATOM     34  CB  ARG D 692      10.716 -11.670  33.831  1.00 49.09 LIG 0.04  C 
BRANCH 34 35
ATOM     35  CG  ARG D 692      11.978 -10.938  33.334  1.00 50.62 LIG 0.02  C 
BRANCH 35 36
ATOM     36  CD  ARG D 692      13.090 -10.817  34.365  1.00 57.04 LIG 0.14  C 
BRANCH 36 37
ATOM     37  NE  ARG D 692      14.296 -11.440  33.854  1.00 60.90 LIG-0.23  N 
ATOM     38 HE   ARG D 692      14.322 -11.627  33.015  1.00 60.90 LIG 0.18  HD
ATOM     39  CZ  ARG D 692      15.359 -11.742  34.584  1.00 61.50 LIG 0.67  C 
ATOM     40  NH1 ARG D 692      15.344 -11.562  35.903  1.00 46.48 LIG-0.23  N 
ATOM     41  NH2 ARG D 692      16.422 -12.271  33.992  1.00 64.68 LIG-0.23  N 
ATOM     42 1HH1 ARG D 692      14.641 -11.247  36.286  1.00 46.48 LIG 0.17  HD
ATOM     43 2HH1 ARG D 692      16.037 -11.760  36.372  1.00 46.48 LIG 0.17  HD
ATOM     44 1HH2 ARG D 692      16.416 -12.414  33.144  1.00 64.68 LIG 0.17  HD
ATOM     45 2HH2 ARG D 692      17.117 -12.471  34.457  1.00 64.68 LIG 0.17  HD
ENDBRANCH 36 37
ENDBRANCH 35 36
ENDBRANCH 34 35
ENDBRANCH 1 34
BRANCH 1 46
ATOM     46  N   ARG D 692      11.470 -12.323  36.141  1.00 43.06 LIG-0.35  N 
ATOM     47  C   HIS D 691      11.744 -12.058  37.407  1.00 44.11 LIG 0.24  C 
ATOM     48 O    HIS D 691      11.278 -11.101  38.009  1.00 43.39 LIG-0.27  OA
ATOM     49 H    ARG D 692      11.814 -12.980  35.704  1.00 43.06 LIG 0.16  HD
BRANCH 47 50
ATOM     50  CA  HIS D 691      12.664 -13.010  38.069  1.00 41.80 LIG 0.18  C 
BRANCH 50 51
ATOM     51  CB  HIS D 691      11.830 -14.185  38.448  1.00 51.00 LIG 0.10  C 
BRANCH 51 52
ATOM     52  CG  HIS D 691      11.000 -13.979  39.648  1.00 57.86 LIG 0.06  A 
ATOM     53 ND1  HIS D 691      11.170 -14.680  40.755  1.00 60.60 LIG-0.24  NA
ATOM     54  CE1 HIS D 691      10.283 -14.285  41.664  1.00 72.50 LIG 0.23  A 
ATOM     55 NE2  HIS D 691       9.526 -13.336  41.122  1.00 67.35 LIG-0.25  NA
ATOM     56  CD2 HIS D 691       9.938 -13.127  39.879  1.00 66.29 LIG 0.14  A 
ENDBRANCH 51 52
ENDBRANCH 50 51
BRANCH 50 57
ATOM     57  N   HIS D 691      13.243 -12.431  39.261  1.00 39.94 LIG-0.35  N 
ATOM     58 H    HIS D 691      12.988 -12.810  39.990  1.00 39.94 LIG 0.16  HD
ATOM     59  C   LEU D 690      14.085 -11.412  39.228  1.00 35.88 LIG 0.24  C 
ATOM     60 O    LEU D 690      14.471 -10.877  38.167  1.00 34.66 LIG-0.27  OA
BRANCH 59 61
ATOM     61  CA  LEU D 690      14.533 -10.863  40.563  1.00 33.43 LIG 0.18  C 
BRANCH 61 62
ATOM     62  CB  LEU D 690      15.916 -11.417  40.912  1.00 31.34 LIG 0.04  C 
BRANCH 62 63
ATOM     63  CG  LEU D 690      16.852 -10.482  41.668  1.00 30.93 LIG-0.02  C 
ATOM     64  CD1 LEU D 690      16.464 -10.436  43.138  1.00 30.90 LIG 0.01  C 
ATOM     65  CD2 LEU D 690      18.282 -10.972  41.534  1.00 28.62 LIG 0.01  C 
ENDBRANCH 62 63
ENDBRANCH 61 62
BRANCH 61 66
ATOM     66  N   LEU D 690      13.580 -11.196  41.623  1.00 35.22 LIG-0.35  N 
ATOM     67 H    LEU D 690      13.524 -12.036  41.799  1.00 35.22 LIG 0.16  HD
ATOM     68  C   ILE D 689      12.873 -10.262  42.247  1.00 41.04 LIG 0.26  C 
ATOM     69 O    ILE D 689      13.012  -9.051  42.015  1.00 39.56 LIG-0.27  OA
BRANCH 68 70
ATOM     70  CA  ILE D 689      11.895 -10.769  43.327  1.00 40.35 LIG 0.40  C 
ATOM     71  N   ILE D 689      11.985  -9.973  44.614  1.00 40.45 LIG 0.61  N 
BRANCH 70 72
ATOM     72  CB  ILE D 689      10.472 -10.741  42.718  1.00 42.26 LIG 0.03  C 
ATOM     73  CG2 ILE D 689       9.505  -9.956  43.625  1.00 38.55 LIG 0.01  C 
BRANCH 72 74
ATOM     74  CG1 ILE D 689      10.482 -10.185  41.291  1.00 45.91 LIG 0.00  C 
ATOM     75  CD1 ILE D 689       9.978  -8.748  41.169  1.00 45.96 LIG 0.01  C 
ENDBRANCH 72 74
ENDBRANCH 70 72
ENDBRANCH 68 70
ENDBRANCH 61 66
ENDBRANCH 59 61
ENDBRANCH 50 57
ENDBRANCH 47 50
ENDBRANCH 1 46
TORSDOF 30
ENDMDL
MODEL 76
USER: ADFR SOLUTION from run 127
USER: SCORE 21.930267 LL:  -7.892 LR: -14.712 RR:   0.000 FEB:  -5.763
USER: RMSD 6.771980
USER: SEED 126
USER: STATUS no improvement in best in 13 clusters for 5 generations
USER: GENES 32
USER: genes 0 Translation |==|  0.52840 0.68476 0.32141
USER: genes 1 Rotation |==|  0.03096 0.63195 0.60202 0.54675
USER: genes 2 Torsion [N]-CA--C-[N] |==|  0.93608
USER: genes 3 Torsion [C]-N--CA-[C] |==|  0.62781
USER: genes 4 Torsion [N]-CA--C-[N] |==|  0.95708
USER: genes 5 Torsion [C]-N--CA-[C] |==|  0.69262
USER: genes 6 Torsion [N]-CA--C-[N] |==|  0.03522
USER: genes 7 Torsion [C]-N--CA-[CB] |==|  0.73005
USER: genes 8 Torsion [N]-CA--CB-[CG] |==|  0.02939
USER: genes 9 Torsion [CA]-CB--CG-[CD] |==|  0.47959
USER: genes 10 Torsion [CB]-CG--CD-[NE2] |==|  0.14660
USER: genes 11 Torsion [N]-CA--C-[O] |==|  0.18338
USER: genes 12 Torsion [N]-CA--CB-[CG] |==|  0.90126
USER: genes 13 Torsion [CA]-CB--CG-[CD2] |==|  0.23435
USER: genes 14 Torsion [N]-CA--CB-[CG] |==|  0.73874
USER: genes 15 Torsion [CA]-CB--CG-[CD1] |==|  0.87652
USER: genes 16 Torsion [C]-CA--CB-[CG] |==|  0.42064
USER: genes 17 Torsion [CA]-CB--CG-[CD] |==|  0.09950
USER: genes 18 Torsion [CB]-CG--CD-[NE] |==|  0.34310
USER: genes 19 Torsion [CG]-CD--NE-[CZ] |==|  0.52153
USER: genes 20 Torsion [C]-CA--N-[C] |==|  0.79608
USER: genes 21 Torsion [N]-C--CA-[N] |==|  0.44805
USER: genes 22 Torsion [C]-CA--CB-[CG] |==|  0.57045
USER: genes 23 Torsion [CA]-CB--CG-[ND1] |==|  0.35727
USER: genes 24 Torsion [C]-CA--N-[C] |==|  0.77862
USER: genes 25 Torsion [N]-C--CA-[N] |==|  0.40362
USER: genes 26 Torsion [C]-CA--CB-[CG] |==|  0.43849
USER: genes 27 Torsion [CA]-CB--CG-[CD2] |==|  0.26636
USER: genes 28 Torsion [C]-CA--N-[C] |==|  0.75141
USER: genes 29 Torsion [N]-C--CA-[N] |==|  0.92840
USER: genes 30 Torsion [C]-CA--CB-[CG1] |==|  0.87358
USER: genes 31 Torsion [CA]-CB--CG1-[CD1] |==|  0.48451
ROOT
ATOM      1  CA  ARG D 692      10.242 -11.538  35.437  1.00 48.73 LIG 0.18  C 
ENDROOT
BRANCH 1 2
ATOM      2  C   ARG D 692       8.743 -11.689  35.635  1.00 46.10 LIG 0.24  C 
ATOM      3  N   LEU D 693       8.300 -12.821  36.177  1.00 50.64 LIG-0.35  N 
ATOM      4 H    LEU D 693       8.796 -13.470  36.443  1.00 50.64 LIG 0.16  HD
ATOM      5 O    ARG D 692       7.972 -10.826  35.218  1.00 52.04 LIG-0.27  OA
BRANCH 3 6
ATOM      6  CA  LEU D 693       6.857 -13.013  36.351  1.00 43.34 LIG 0.18  C 
BRANCH 6 7
ATOM      7  C   LEU D 693       6.512 -13.551  37.734  1.00 37.95 LIG 0.24  C 
ATOM      8  N   LEU D 694       7.511 -14.053  38.431  1.00 39.22 LIG-0.35  N 
ATOM      9 H    LEU D 694       8.312 -14.130  38.126  1.00 39.22 LIG 0.16  HD
ATOM     10 O    LEU D 693       5.345 -13.529  38.140  1.00 43.86 LIG-0.27  OA
BRANCH 8 11
ATOM     11  CA  LEU D 694       7.350 -14.525  39.781  1.00 38.59 LIG 0.18  C 
BRANCH 11 12
ATOM     12  C   LEU D 694       8.070 -13.596  40.704  1.00 46.22 LIG 0.24  C 
ATOM     13  N   GLN D 695       8.449 -12.454  40.160  1.00 66.87 LIG-0.35  N 
ATOM     14 H    GLN D 695       8.359 -12.312  39.317  1.00 66.87 LIG 0.16  HD
ATOM     15 O    LEU D 694       8.311 -13.941  41.831  1.00 54.70 LIG-0.27  OA
BRANCH 13 16
ATOM     16  CA  GLN D 695       9.050 -11.303  40.846  1.00 62.86 LIG 0.16  C 
BRANCH 16 17
ATOM     17  CB  GLN D 695       8.008 -10.267  41.168  1.00 63.26 LIG 0.04  C 
BRANCH 17 18
ATOM     18  CG  GLN D 695       6.617 -10.796  40.937  1.00 77.24 LIG 0.10  C 
BRANCH 18 19
ATOM     19  CD  GLN D 695       5.572  -9.868  41.406  1.00 84.08 LIG 0.21  C 
ATOM     20 OE1  GLN D 695       4.713 -10.250  42.176  1.00 83.40 LIG-0.27  OA
ATOM     21  NE2 GLN D 695       5.638  -8.627  40.964  1.00 79.17 LIG-0.37  N 
ATOM     22 22HE GLN D 695       5.056  -8.048  41.221  1.00 79.17 LIG 0.16  HD
ATOM     23 21HE GLN D 695       6.261  -8.397  40.419  1.00 79.17 LIG 0.16  HD
ENDBRANCH 18 19
ENDBRANCH 17 18
ENDBRANCH 16 17
BRANCH 16 24
ATOM     24  C   GLN D 695       9.924 -11.609  42.061  1.00 61.14 LIG 0.22  C 
ATOM     25 O    GLN D 695      10.989 -12.220  41.938  1.00 66.66 LIG-0.29  OA
ENDBRANCH 16 24
ENDBRANCH 13 16
ENDBRANCH 11 12
BRANCH 11 26
ATOM     26  CB  LEU D 694       7.948 -15.904  39.960  1.00 34.51 LIG 0.04  C 
BRANCH 26 27
ATOM     27  CG  LEU D 694       7.875 -16.914  38.842  1.00 27.71 LIG-0.02  C 
ATOM     28  CD2 LEU D 694       8.979 -16.765  37.839  1.00 26.48 LIG 0.01  C 
ATOM     29  CD1 LEU D 694       6.526 -16.981  38.187  1.00 27.00 LIG 0.01  C 
ENDBRANCH 26 27
ENDBRANCH 11 26
ENDBRANCH 8 11
ENDBRANCH 6 7
BRANCH 6 30
ATOM     30  CB  LEU D 693       6.253 -13.906  35.254  1.00 45.67 LIG 0.04  C 
BRANCH 30 31
ATOM     31  CG  LEU D 693       5.658 -13.171  34.042  1.00 55.29 LIG-0.02  C 
ATOM     32  CD1 LEU D 693       4.816 -11.983  34.486  1.00 47.80 LIG 0.01  C 
ATOM     33  CD2 LEU D 693       6.735 -12.752  33.030  1.00 51.02 LIG 0.01  C 
ENDBRANCH 30 31
ENDBRANCH 6 30
ENDBRANCH 3 6
ENDBRANCH 1 2
BRANCH 1 34
ATOM     34  CB  ARG D 692      10.561 -11.730  33.939  1.00 49.09 LIG 0.04  C 
BRANCH 34 35
ATOM     35  CG  ARG D 692      11.819 -10.942  33.527  1.00 50.62 LIG 0.02  C 
BRANCH 35 36
ATOM     36  CD  ARG D 692      12.907 -10.883  34.589  1.00 57.04 LIG 0.14  C 
BRANCH 36 37
ATOM     37  NE  ARG D 692      14.145 -11.407  34.044  1.00 60.90 LIG-0.23  N 
ATOM     38 HE   ARG D 692      14.166 -11.584  33.203  1.00 60.90 LIG 0.18  HD
ATOM     39  CZ  ARG D 692      15.245 -11.633  34.747  1.00 61.50 LIG 0.67  C 
ATOM     40  NH1 ARG D 692      15.247 -11.465  36.068  1.00 46.48 LIG-0.23  N 
ATOM     41  NH2 ARG D 692      16.331 -12.073  34.126  1.00 64.68 LIG-0.23  N 
ATOM     42 1HH1 ARG D 692      14.531 -11.208  36.469  1.00 46.48 LIG 0.17  HD
ATOM     43 2HH1 ARG D 692      15.965 -11.613  36.518  1.00 46.48 LIG 0.17  HD
ATOM     44 1HH2 ARG D 692      16.317 -12.209  33.277  1.00 64.68 LIG 0.17  HD
ATOM     45 2HH2 ARG D 692      17.051 -12.223  34.572  1.00 64.68 LIG 0.17  HD
ENDBRANCH 36 37
ENDBRANCH 35 36
ENDBRANCH 34 35
ENDBRANCH 1 34
BRANCH 1 46
ATOM     46  N   ARG D 692      11.094 -12.379  36.310  1.00 43.06 LIG-0.35  N 
ATOM     47  C   HIS D 691      11.251 -12.115  37.596  1.00 44.11 LIG 0.24  C 
ATOM     48 O    HIS D 691      10.745 -11.150  38.151  1.00 43.39 LIG-0.27  OA
ATOM     49 H    ARG D 692      11.468 -13.042  35.908  1.00 43.06 LIG 0.16  HD
BRANCH 47 50
ATOM     50  CA  HIS D 691      12.090 -13.079  38.343  1.00 41.80 LIG 0.18  C 
BRANCH 50 51
ATOM     51  CB  HIS D 691      11.206 -14.241  38.643  1.00 51.00 LIG 0.10  C 
BRANCH 51 52
ATOM     52  CG  HIS D 691      11.608 -15.020  39.826  1.00 57.86 LIG 0.06  A 
ATOM     53 ND1  HIS D 691      10.764 -15.316  40.800  1.00 60.60 LIG-0.24  NA
ATOM     54  CE1 HIS D 691      11.399 -16.018  41.733  1.00 72.50 LIG 0.23  A 
ATOM     55 NE2  HIS D 691      12.669 -16.153  41.360  1.00 67.35 LIG-0.25  NA
ATOM     56  CD2 HIS D 691      12.832 -15.546  40.192  1.00 66.29 LIG 0.14  A 
ENDBRANCH 51 52
ENDBRANCH 50 51
BRANCH 50 57
ATOM     57  N   HIS D 691      12.562 -12.507  39.585  1.00 39.94 LIG-0.35  N 
ATOM     58 H    HIS D 691      12.113 -12.756  40.275  1.00 39.94 LIG 0.16  HD
ATOM     59  C   LEU D 690      13.590 -11.676  39.647  1.00 35.88 LIG 0.24  C 
ATOM     60 O    LEU D 690      14.254 -11.333  38.645  1.00 34.66 LIG-0.27  OA
BRANCH 59 61
ATOM     61  CA  LEU D 690      13.906 -11.093  41.005  1.00 33.43 LIG 0.18  C 
BRANCH 61 62
ATOM     62  CB  LEU D 690      13.190  -9.752  41.170  1.00 31.34 LIG 0.04  C 
BRANCH 62 63
ATOM     63  CG  LEU D 690      12.957  -9.277  42.600  1.00 30.93 LIG-0.02  C 
ATOM     64  CD1 LEU D 690      12.931 -10.469  43.545  1.00 30.90 LIG 0.01  C 
ATOM     65  CD2 LEU D 690      14.065  -8.327  43.011  1.00 28.62 LIG 0.01  C 
ENDBRANCH 62 63
ENDBRANCH 61 62
BRANCH 61 66
ATOM     66  N   LEU D 690      15.348 -10.915  41.185  1.00 35.22 LIG-0.35  N 
ATOM     67 H    LEU D 690      15.644 -10.146  40.938  1.00 35.22 LIG 0.16  HD
ATOM     68  C   ILE D 689      16.113 -11.874  41.691  1.00 41.04 LIG 0.26  C 
ATOM     69 O    ILE D 689      15.655 -12.953  42.094  1.00 39.56 LIG-0.27  OA
BRANCH 68 70
ATOM     70  CA  ILE D 689      17.617 -11.544  41.802  1.00 40.35 LIG 0.40  C 
ATOM     71  N   ILE D 689      18.060 -10.502  40.794  1.00 40.45 LIG 0.61  N 
BRANCH 70 72
ATOM     72  CB  ILE D 689      17.892 -11.103  43.261  1.00 42.26 LIG 0.03  C 
ATOM     73  CG2 ILE D 689      19.314 -10.531  43.400  1.00 38.55 LIG 0.01  C 
BRANCH 72 74
ATOM     74  CG1 ILE D 689      16.835 -10.112  43.757  1.00 45.91 LIG 0.00  C 
ATOM     75  CD1 ILE D 689      16.965  -9.736  45.232  1.00 45.96 LIG 0.01  C 
ENDBRANCH 72 74
ENDBRANCH 70 72
ENDBRANCH 68 70
ENDBRANCH 61 66
ENDBRANCH 59 61
ENDBRANCH 50 57
ENDBRANCH 47 50
ENDBRANCH 1 46
TORSDOF 30
ENDMDL
MODEL 77
USER: ADFR SOLUTION from run 75
USER: SCORE 20.535512 LL:  -7.450 LR: -14.712 RR:   0.000 FEB:  -5.763
USER: RMSD 6.133043
USER: SEED 74
USER: STATUS no improvement in best in 27 clusters for 5 generations
USER: GENES 32
USER: genes 0 Translation |==|  0.52692 0.63156 0.34389
USER: genes 1 Rotation |==|  0.07242 0.61633 0.70684 0.60421
USER: genes 2 Torsion [N]-CA--C-[N] |==|  0.77170
USER: genes 3 Torsion [C]-N--CA-[C] |==|  0.70273
USER: genes 4 Torsion [N]-CA--C-[N] |==|  0.46445
USER: genes 5 Torsion [C]-N--CA-[C] |==|  0.72320
USER: genes 6 Torsion [N]-CA--C-[N] |==|  0.29157
USER: genes 7 Torsion [C]-N--CA-[CB] |==|  0.21853
USER: genes 8 Torsion [N]-CA--CB-[CG] |==|  0.58312
USER: genes 9 Torsion [CA]-CB--CG-[CD] |==|  0.29367
USER: genes 10 Torsion [CB]-CG--CD-[NE2] |==|  0.38640
USER: genes 11 Torsion [N]-CA--C-[O] |==|  0.23728
USER: genes 12 Torsion [N]-CA--CB-[CG] |==|  0.78492
USER: genes 13 Torsion [CA]-CB--CG-[CD2] |==|  0.58674
USER: genes 14 Torsion [N]-CA--CB-[CG] |==|  0.89089
USER: genes 15 Torsion [CA]-CB--CG-[CD1] |==|  0.26375
USER: genes 16 Torsion [C]-CA--CB-[CG] |==|  0.51970
USER: genes 17 Torsion [CA]-CB--CG-[CD] |==|  0.83560
USER: genes 18 Torsion [CB]-CG--CD-[NE] |==|  0.45325
USER: genes 19 Torsion [CG]-CD--NE-[CZ] |==|  0.56772
USER: genes 20 Torsion [C]-CA--N-[C] |==|  0.13807
USER: genes 21 Torsion [N]-C--CA-[N] |==|  0.97086
USER: genes 22 Torsion [C]-CA--CB-[CG] |==|  0.93587
USER: genes 23 Torsion [CA]-CB--CG-[ND1] |==|  0.81499
USER: genes 24 Torsion [C]-CA--N-[C] |==|  0.80556
USER: genes 25 Torsion [N]-C--CA-[N] |==|  0.93609
USER: genes 26 Torsion [C]-CA--CB-[CG] |==|  0.37062
USER: genes 27 Torsion [CA]-CB--CG-[CD2] |==|  0.71771
USER: genes 28 Torsion [C]-CA--N-[C] |==|  0.82394
USER: genes 29 Torsion [N]-C--CA-[N] |==|  0.26606
USER: genes 30 Torsion [C]-CA--CB-[CG1] |==|  0.76001
USER: genes 31 Torsion [CA]-CB--CG1-[CD1] |==|  0.35933
ROOT
ATOM      1  CA  ARG D 692      10.209 -12.535  35.875  1.00 48.73 LIG 0.18  C 
ENDROOT
BRANCH 1 2
ATOM      2  C   ARG D 692       8.868 -12.851  36.517  1.00 46.10 LIG 0.24  C 
ATOM      3  N   LEU D 693       8.032 -13.644  35.850  1.00 50.64 LIG-0.35  N 
ATOM      4 H    LEU D 693       8.196 -14.009  35.089  1.00 50.64 LIG 0.16  HD
ATOM      5 O    ARG D 692       8.543 -12.312  37.573  1.00 52.04 LIG-0.27  OA
BRANCH 3 6
ATOM      6  CA  LEU D 693       6.717 -13.942  36.425  1.00 43.34 LIG 0.18  C 
BRANCH 6 7
ATOM      7  C   LEU D 693       6.631 -15.368  36.952  1.00 37.95 LIG 0.24  C 
ATOM      8  N   LEU D 694       5.593 -15.648  37.714  1.00 39.22 LIG-0.35  N 
ATOM      9 H    LEU D 694       5.010 -15.064  37.955  1.00 39.22 LIG 0.16  HD
ATOM     10 O    LEU D 693       7.517 -16.188  36.685  1.00 43.86 LIG-0.27  OA
BRANCH 8 11
ATOM     11  CA  LEU D 694       5.339 -16.972  38.216  1.00 38.59 LIG 0.18  C 
BRANCH 11 12
ATOM     12  C   LEU D 694       4.303 -17.622  37.358  1.00 46.22 LIG 0.24  C 
ATOM     13  N   GLN D 695       4.763 -18.538  36.526  1.00 66.87 LIG-0.35  N 
ATOM     14 H    GLN D 695       5.608 -18.673  36.437  1.00 66.87 LIG 0.16  HD
ATOM     15 O    LEU D 694       3.159 -17.254  37.420  1.00 54.70 LIG-0.27  OA
BRANCH 13 16
ATOM     16  CA  GLN D 695       3.975 -19.429  35.665  1.00 62.86 LIG 0.16  C 
BRANCH 16 17
ATOM     17  CB  GLN D 695       3.498 -18.702  34.437  1.00 63.26 LIG 0.04  C 
BRANCH 17 18
ATOM     18  CG  GLN D 695       2.190 -19.259  33.941  1.00 77.24 LIG 0.10  C 
BRANCH 18 19
ATOM     19  CD  GLN D 695       1.048 -18.374  34.234  1.00 84.08 LIG 0.21  C 
ATOM     20 OE1  GLN D 695       0.978 -17.793  35.299  1.00 83.40 LIG-0.27  OA
ATOM     21  NE2 GLN D 695       0.142 -18.240  33.284  1.00 79.17 LIG-0.37  N 
ATOM     22 22HE GLN D 695      -0.535 -17.724  33.405  1.00 79.17 LIG 0.16  HD
ATOM     23 21HE GLN D 695       0.228 -18.669  32.544  1.00 79.17 LIG 0.16  HD
ENDBRANCH 18 19
ENDBRANCH 17 18
ENDBRANCH 16 17
BRANCH 16 24
ATOM     24  C   GLN D 695       4.608 -20.772  35.305  1.00 61.14 LIG 0.22  C 
ATOM     25 O    GLN D 695       4.499 -21.745  36.056  1.00 66.66 LIG-0.29  OA
ENDBRANCH 16 24
ENDBRANCH 13 16
ENDBRANCH 11 12
BRANCH 11 26
ATOM     26  CB  LEU D 694       4.805 -16.934  39.632  1.00 34.51 LIG 0.04  C 
BRANCH 26 27
ATOM     27  CG  LEU D 694       5.739 -16.688  40.790  1.00 27.71 LIG-0.02  C 
ATOM     28  CD2 LEU D 694       5.308 -17.372  42.053  1.00 26.48 LIG 0.01  C 
ATOM     29  CD1 LEU D 694       6.039 -15.233  41.014  1.00 27.00 LIG 0.01  C 
ENDBRANCH 26 27
ENDBRANCH 11 26
ENDBRANCH 8 11
ENDBRANCH 6 7
BRANCH 6 30
ATOM     30  CB  LEU D 693       5.572 -13.654  35.439  1.00 45.67 LIG 0.04  C 
BRANCH 30 31
ATOM     31  CG  LEU D 693       5.730 -12.393  34.575  1.00 55.29 LIG-0.02  C 
ATOM     32  CD1 LEU D 693       6.342 -12.733  33.223  1.00 47.80 LIG 0.01  C 
ATOM     33  CD2 LEU D 693       4.409 -11.626  34.419  1.00 51.02 LIG 0.01  C 
ENDBRANCH 30 31
ENDBRANCH 6 30
ENDBRANCH 3 6
ENDBRANCH 1 2
BRANCH 1 34
ATOM     34  CB  ARG D 692       9.971 -12.182  34.391  1.00 49.09 LIG 0.04  C 
BRANCH 34 35
ATOM     35  CG  ARG D 692      11.303 -12.021  33.632  1.00 50.62 LIG 0.02  C 
BRANCH 35 36
ATOM     36  CD  ARG D 692      12.224 -10.944  34.188  1.00 57.04 LIG 0.14  C 
BRANCH 36 37
ATOM     37  NE  ARG D 692      13.566 -11.142  33.676  1.00 60.90 LIG-0.23  N 
ATOM     38 HE   ARG D 692      13.650 -11.568  32.933  1.00 60.90 LIG 0.18  HD
ATOM     39  CZ  ARG D 692      14.672 -10.717  34.267  1.00 61.50 LIG 0.67  C 
ATOM     40  NH1 ARG D 692      14.615 -10.133  35.463  1.00 46.48 LIG-0.23  N 
ATOM     41  NH2 ARG D 692      15.842 -10.921  33.677  1.00 64.68 LIG-0.23  N 
ATOM     42 1HH1 ARG D 692      13.856 -10.030  35.855  1.00 46.48 LIG 0.17  HD
ATOM     43 2HH1 ARG D 692      15.337  -9.859  35.842  1.00 46.48 LIG 0.17  HD
ATOM     44 1HH2 ARG D 692      15.877 -11.326  32.919  1.00 64.68 LIG 0.17  HD
ATOM     45 2HH2 ARG D 692      16.567 -10.649  34.052  1.00 64.68 LIG 0.17  HD
ENDBRANCH 36 37
ENDBRANCH 35 36
ENDBRANCH 34 35
ENDBRANCH 1 34
BRANCH 1 46
ATOM     46  N   ARG D 692      11.263 -13.562  36.051  1.00 43.06 LIG-0.35  N 
ATOM     47  C   HIS D 691      11.044 -14.840  35.795  1.00 44.11 LIG 0.24  C 
ATOM     48 O    HIS D 691       9.960 -15.277  35.433  1.00 43.39 LIG-0.27  OA
ATOM     49 H    ARG D 692      12.016 -13.252  36.330  1.00 43.06 LIG 0.16  HD
BRANCH 47 50
ATOM     50  CA  HIS D 691      12.212 -15.732  35.970  1.00 41.80 LIG 0.18  C 
BRANCH 50 51
ATOM     51  CB  HIS D 691      11.938 -16.526  37.201  1.00 51.00 LIG 0.10  C 
BRANCH 51 52
ATOM     52  CG  HIS D 691      10.986 -15.895  38.131  1.00 57.86 LIG 0.06  A 
ATOM     53 ND1  HIS D 691      11.264 -14.777  38.779  1.00 60.60 LIG-0.24  NA
ATOM     54  CE1 HIS D 691      10.230 -14.446  39.545  1.00 72.50 LIG 0.23  A 
ATOM     55 NE2  HIS D 691       9.289 -15.375  39.400  1.00 67.35 LIG-0.25  NA
ATOM     56  CD2 HIS D 691       9.725 -16.285  38.540  1.00 66.29 LIG 0.14  A 
ENDBRANCH 51 52
ENDBRANCH 50 51
BRANCH 50 57
ATOM     57  N   HIS D 691      13.426 -14.969  36.156  1.00 39.94 LIG-0.35  N 
ATOM     58 H    HIS D 691      13.748 -15.015  36.952  1.00 39.94 LIG 0.16  HD
ATOM     59  C   LEU D 690      13.987 -14.265  35.186  1.00 35.88 LIG 0.24  C 
ATOM     60 O    LEU D 690      13.530 -14.216  34.024  1.00 34.66 LIG-0.27  OA
BRANCH 59 61
ATOM     61  CA  LEU D 690      15.204 -13.450  35.560  1.00 33.43 LIG 0.18  C 
BRANCH 61 62
ATOM     62  CB  LEU D 690      16.473 -14.203  35.160  1.00 31.34 LIG 0.04  C 
BRANCH 62 63
ATOM     63  CG  LEU D 690      17.540 -13.397  34.428  1.00 30.93 LIG-0.02  C 
ATOM     64  CD1 LEU D 690      18.918 -13.753  34.964  1.00 30.90 LIG 0.01  C 
ATOM     65  CD2 LEU D 690      17.479 -13.698  32.942  1.00 28.62 LIG 0.01  C 
ENDBRANCH 62 63
ENDBRANCH 61 62
BRANCH 61 66
ATOM     66  N   LEU D 690      15.228 -13.157  36.994  1.00 35.22 LIG-0.35  N 
ATOM     67 H    LEU D 690      15.895 -13.499  37.415  1.00 35.22 LIG 0.16  HD
ATOM     68  C   ILE D 689      14.287 -12.421  37.574  1.00 41.04 LIG 0.26  C 
ATOM     69 O    ILE D 689      13.365 -11.891  36.936  1.00 39.56 LIG-0.27  OA
BRANCH 68 70
ATOM     70  CA  ILE D 689      14.439 -12.216  39.096  1.00 40.35 LIG 0.40  C 
ATOM     71  N   ILE D 689      15.134 -10.914  39.441  1.00 40.45 LIG 0.61  N 
BRANCH 70 72
ATOM     72  CB  ILE D 689      13.025 -12.310  39.721  1.00 42.26 LIG 0.03  C 
ATOM     73  CG2 ILE D 689      13.095 -12.887  41.147  1.00 38.55 LIG 0.01  C 
BRANCH 72 74
ATOM     74  CG1 ILE D 689      12.308 -10.957  39.696  1.00 45.91 LIG 0.00  C 
ATOM     75  CD1 ILE D 689      10.897 -11.001  39.108  1.00 45.96 LIG 0.01  C 
ENDBRANCH 72 74
ENDBRANCH 70 72
ENDBRANCH 68 70
ENDBRANCH 61 66
ENDBRANCH 59 61
ENDBRANCH 50 57
ENDBRANCH 47 50
ENDBRANCH 1 46
TORSDOF 30
ENDMDL
MODEL 78
USER: ADFR SOLUTION from run 34
USER: SCORE 21.510192 LL:  -7.831 LR: -14.702 RR:   0.000 FEB:  -5.753
USER: RMSD 7.218532
USER: SEED 33
USER: STATUS searching
USER: GENES 32
USER: genes 0 Translation |==|  0.69568 0.72939 0.36562
USER: genes 1 Rotation |==|  0.02394 0.63457 0.52940 0.56629
USER: genes 2 Torsion [N]-CA--C-[N] |==|  0.86735
USER: genes 3 Torsion [C]-N--CA-[C] |==|  0.61904
USER: genes 4 Torsion [N]-CA--C-[N] |==|  0.18776
USER: genes 5 Torsion [C]-N--CA-[C] |==|  0.75943
USER: genes 6 Torsion [N]-CA--C-[N] |==|  0.19570
USER: genes 7 Torsion [C]-N--CA-[CB] |==|  0.34820
USER: genes 8 Torsion [N]-CA--CB-[CG] |==|  0.02681
USER: genes 9 Torsion [CA]-CB--CG-[CD] |==|  0.35103
USER: genes 10 Torsion [CB]-CG--CD-[NE2] |==|  0.98283
USER: genes 11 Torsion [N]-CA--C-[O] |==|  0.86366
USER: genes 12 Torsion [N]-CA--CB-[CG] |==|  0.04590
USER: genes 13 Torsion [CA]-CB--CG-[CD2] |==|  0.53780
USER: genes 14 Torsion [N]-CA--CB-[CG] |==|  0.75990
USER: genes 15 Torsion [CA]-CB--CG-[CD1] |==|  0.91949
USER: genes 16 Torsion [C]-CA--CB-[CG] |==|  0.81543
USER: genes 17 Torsion [CA]-CB--CG-[CD] |==|  0.66216
USER: genes 18 Torsion [CB]-CG--CD-[NE] |==|  0.87791
USER: genes 19 Torsion [CG]-CD--NE-[CZ] |==|  0.34610
USER: genes 20 Torsion [C]-CA--N-[C] |==|  0.86111
USER: genes 21 Torsion [N]-C--CA-[N] |==|  0.38176
USER: genes 22 Torsion [C]-CA--CB-[CG] |==|  0.16653
USER: genes 23 Torsion [CA]-CB--CG-[ND1] |==|  0.10603
USER: genes 24 Torsion [C]-CA--N-[C] |==|  0.84085
USER: genes 25 Torsion [N]-C--CA-[N] |==|  0.36266
USER: genes 26 Torsion [C]-CA--CB-[CG] |==|  0.24484
USER: genes 27 Torsion [CA]-CB--CG-[CD2] |==|  0.10465
USER: genes 28 Torsion [C]-CA--N-[C] |==|  0.73467
USER: genes 29 Torsion [N]-C--CA-[N] |==|  0.39614
USER: genes 30 Torsion [C]-CA--CB-[CG1] |==|  0.35600
USER: genes 31 Torsion [CA]-CB--CG1-[CD1] |==|  0.63766
ROOT
ATOM      1  CA  ARG D 692      14.006 -10.701  36.299  1.00 48.73 LIG 0.18  C 
ENDROOT
BRANCH 1 2
ATOM      2  C   ARG D 692      12.509 -10.784  36.046  1.00 46.10 LIG 0.24  C 
ATOM      3  N   LEU D 693      11.962 -11.993  35.950  1.00 50.64 LIG-0.35  N 
ATOM      4 H    LEU D 693      12.385 -12.736  36.038  1.00 50.64 LIG 0.16  HD
ATOM      5 O    ARG D 692      11.856  -9.761  35.848  1.00 52.04 LIG-0.27  OA
BRANCH 3 6
ATOM      6  CA  LEU D 693      10.527 -12.108  35.674  1.00 43.34 LIG 0.18  C 
BRANCH 6 7
ATOM      7  C   LEU D 693       9.862 -13.177  36.531  1.00 37.95 LIG 0.24  C 
ATOM      8  N   LEU D 694       9.794 -12.931  37.824  1.00 39.22 LIG-0.35  N 
ATOM      9 H    LEU D 694      10.142 -12.237  38.194  1.00 39.22 LIG 0.16  HD
ATOM     10 O    LEU D 693       9.444 -14.221  36.017  1.00 43.86 LIG-0.27  OA
BRANCH 8 11
ATOM     11  CA  LEU D 694       9.125 -13.812  38.743  1.00 38.59 LIG 0.18  C 
BRANCH 11 12
ATOM     12  C   LEU D 694       7.676 -13.449  38.789  1.00 46.22 LIG 0.24  C 
ATOM     13  N   GLN D 695       6.994 -13.742  37.697  1.00 66.87 LIG-0.35  N 
ATOM     14 H    GLN D 695       7.388 -14.037  36.993  1.00 66.87 LIG 0.16  HD
ATOM     15 O    LEU D 694       7.233 -12.878  39.751  1.00 54.70 LIG-0.27  OA
BRANCH 13 16
ATOM     16  CA  GLN D 695       5.542 -13.626  37.502  1.00 62.86 LIG 0.16  C 
BRANCH 16 17
ATOM     17  CB  GLN D 695       5.230 -12.784  36.295  1.00 63.26 LIG 0.04  C 
BRANCH 17 18
ATOM     18  CG  GLN D 695       6.470 -12.490  35.494  1.00 77.24 LIG 0.10  C 
BRANCH 18 19
ATOM     19  CD  GLN D 695       6.331 -12.863  34.074  1.00 84.08 LIG 0.21  C 
ATOM     20 OE1  GLN D 695       7.213 -12.600  33.281  1.00 83.40 LIG-0.27  OA
ATOM     21  NE2 GLN D 695       5.227 -13.501  33.734  1.00 79.17 LIG-0.37  N 
ATOM     22 22HE GLN D 695       5.109 -13.750  32.919  1.00 79.17 LIG 0.16  HD
ATOM     23 21HE GLN D 695       4.627 -13.668  34.326  1.00 79.17 LIG 0.16  HD
ENDBRANCH 18 19
ENDBRANCH 17 18
ENDBRANCH 16 17
BRANCH 16 24
ATOM     24  C   GLN D 695       4.746 -14.930  37.491  1.00 61.14 LIG 0.22  C 
ATOM     25 O    GLN D 695       5.104 -15.885  36.795  1.00 66.66 LIG-0.29  OA
ENDBRANCH 16 24
ENDBRANCH 13 16
ENDBRANCH 11 12
BRANCH 11 26
ATOM     26  CB  LEU D 694       9.677 -13.672  40.146  1.00 34.51 LIG 0.04  C 
BRANCH 26 27
ATOM     27  CG  LEU D 694      10.509 -12.470  40.518  1.00 27.71 LIG-0.02  C 
ATOM     28  CD2 LEU D 694      11.239 -12.636  41.817  1.00 26.48 LIG 0.01  C 
ATOM     29  CD1 LEU D 694       9.745 -11.179  40.464  1.00 27.00 LIG 0.01  C 
ENDBRANCH 26 27
ENDBRANCH 11 26
ENDBRANCH 8 11
ENDBRANCH 6 7
BRANCH 6 30
ATOM     30  CB  LEU D 693      10.240 -12.350  34.182  1.00 45.67 LIG 0.04  C 
BRANCH 30 31
ATOM     31  CG  LEU D 693      10.129 -11.091  33.307  1.00 55.29 LIG-0.02  C 
ATOM     32  CD1 LEU D 693       9.627  -9.906  34.121  1.00 47.80 LIG 0.01  C 
ATOM     33  CD2 LEU D 693      11.446 -10.764  32.588  1.00 51.02 LIG 0.01  C 
ENDBRANCH 30 31
ENDBRANCH 6 30
ENDBRANCH 3 6
ENDBRANCH 1 2
BRANCH 1 34
ATOM     34  CB  ARG D 692      14.742 -10.929  34.962  1.00 49.09 LIG 0.04  C 
BRANCH 34 35
ATOM     35  CG  ARG D 692      14.537 -12.368  34.447  1.00 50.62 LIG 0.02  C 
BRANCH 35 36
ATOM     36  CD  ARG D 692      15.821 -13.157  34.243  1.00 57.04 LIG 0.14  C 
BRANCH 36 37
ATOM     37  NE  ARG D 692      16.806 -12.320  33.584  1.00 60.90 LIG-0.23  N 
ATOM     38 HE   ARG D 692      16.584 -11.958  32.836  1.00 60.90 LIG 0.18  HD
ATOM     39  CZ  ARG D 692      18.021 -12.072  34.050  1.00 61.50 LIG 0.67  C 
ATOM     40  NH1 ARG D 692      18.455 -12.675  35.155  1.00 46.48 LIG-0.23  N 
ATOM     41  NH2 ARG D 692      18.818 -11.252  33.378  1.00 64.68 LIG-0.23  N 
ATOM     42 1HH1 ARG D 692      17.945 -13.230  35.571  1.00 46.48 LIG 0.17  HD
ATOM     43 2HH1 ARG D 692      19.245 -12.511  35.452  1.00 46.48 LIG 0.17  HD
ATOM     44 1HH2 ARG D 692      18.544 -10.888  32.648  1.00 64.68 LIG 0.17  HD
ATOM     45 2HH2 ARG D 692      19.609 -11.084  33.671  1.00 64.68 LIG 0.17  HD
ENDBRANCH 36 37
ENDBRANCH 35 36
ENDBRANCH 34 35
ENDBRANCH 1 34
BRANCH 1 46
ATOM     46  N   ARG D 692      14.523 -11.566  37.386  1.00 43.06 LIG-0.35  N 
ATOM     47  C   HIS D 691      13.969 -11.586  38.586  1.00 44.11 LIG 0.24  C 
ATOM     48 O    HIS D 691      13.024 -10.877  38.902  1.00 43.39 LIG-0.27  OA
ATOM     49 H    ARG D 692      15.204 -12.043  37.164  1.00 43.06 LIG 0.16  HD
BRANCH 47 50
ATOM     50  CA  HIS D 691      14.568 -12.541  39.545  1.00 41.80 LIG 0.18  C 
BRANCH 50 51
ATOM     51  CB  HIS D 691      13.618 -13.686  39.627  1.00 51.00 LIG 0.10  C 
BRANCH 51 52
ATOM     52  CG  HIS D 691      13.385 -14.374  38.346  1.00 57.86 LIG 0.06  A 
ATOM     53 ND1  HIS D 691      14.350 -14.577  37.465  1.00 60.60 LIG-0.24  NA
ATOM     54  CE1 HIS D 691      13.852 -15.212  36.408  1.00 72.50 LIG 0.23  A 
ATOM     55 NE2  HIS D 691      12.550 -15.398  36.609  1.00 67.35 LIG-0.25  NA
ATOM     56  CD2 HIS D 691      12.230 -14.889  37.791  1.00 66.29 LIG 0.14  A 
ENDBRANCH 51 52
ENDBRANCH 50 51
BRANCH 50 57
ATOM     57  N   HIS D 691      14.709 -11.944  40.855  1.00 39.94 LIG-0.35  N 
ATOM     58 H    HIS D 691      14.307 -12.378  41.479  1.00 39.94 LIG 0.16  HD
ATOM     59  C   LEU D 690      15.395 -10.833  41.067  1.00 35.88 LIG 0.24  C 
ATOM     60 O    LEU D 690      15.997 -10.217  40.162  1.00 34.66 LIG-0.27  OA
BRANCH 59 61
ATOM     61  CA  LEU D 690      15.376 -10.286  42.476  1.00 33.43 LIG 0.18  C 
BRANCH 61 62
ATOM     62  CB  LEU D 690      14.511  -9.026  42.529  1.00 31.34 LIG 0.04  C 
BRANCH 62 63
ATOM     63  CG  LEU D 690      13.023  -9.233  42.790  1.00 30.93 LIG-0.02  C 
ATOM     64  CD1 LEU D 690      12.311  -9.577  41.491  1.00 30.90 LIG 0.01  C 
ATOM     65  CD2 LEU D 690      12.831 -10.358  43.790  1.00 28.62 LIG 0.01  C 
ENDBRANCH 62 63
ENDBRANCH 61 62
BRANCH 61 66
ATOM     66  N   LEU D 690      16.728  -9.983  42.948  1.00 35.22 LIG-0.35  N 
ATOM     67 H    LEU D 690      17.020  -9.209  42.715  1.00 35.22 LIG 0.16  HD
ATOM     68  C   ILE D 689      17.425 -10.848  43.675  1.00 41.04 LIG 0.26  C 
ATOM     69 O    ILE D 689      16.961 -11.937  44.046  1.00 39.56 LIG-0.27  OA
BRANCH 68 70
ATOM     70  CA  ILE D 689      18.843 -10.394  44.081  1.00 40.35 LIG 0.40  C 
ATOM     71  N   ILE D 689      19.218 -10.842  45.480  1.00 40.45 LIG 0.61  N 
BRANCH 70 72
ATOM     72  CB  ILE D 689      19.827 -10.926  43.011  1.00 42.26 LIG 0.03  C 
ATOM     73  CG2 ILE D 689      19.069 -11.646  41.880  1.00 38.55 LIG 0.01  C 
BRANCH 72 74
ATOM     74  CG1 ILE D 689      20.724  -9.811  42.467  1.00 45.91 LIG 0.00  C 
ATOM     75  CD1 ILE D 689      20.789  -9.740  40.941  1.00 45.96 LIG 0.01  C 
ENDBRANCH 72 74
ENDBRANCH 70 72
ENDBRANCH 68 70
ENDBRANCH 61 66
ENDBRANCH 59 61
ENDBRANCH 50 57
ENDBRANCH 47 50
ENDBRANCH 1 46
TORSDOF 30
ENDMDL
MODEL 79
USER: ADFR SOLUTION from run 84
USER: SCORE 21.526082 LL:  -7.721 LR: -14.701 RR:   0.000 FEB:  -5.752
USER: RMSD 6.940794
USER: SEED 83
USER: STATUS no improvement in best in 14 clusters for 5 generations
USER: GENES 32
USER: genes 0 Translation |==|  0.46512 0.66000 0.39506
USER: genes 1 Rotation |==|  0.00799 0.43904 0.53413 0.55521
USER: genes 2 Torsion [N]-CA--C-[N] |==|  0.35578
USER: genes 3 Torsion [C]-N--CA-[C] |==|  0.19119
USER: genes 4 Torsion [N]-CA--C-[N] |==|  0.01449
USER: genes 5 Torsion [C]-N--CA-[C] |==|  0.70695
USER: genes 6 Torsion [N]-CA--C-[N] |==|  0.04206
USER: genes 7 Torsion [C]-N--CA-[CB] |==|  0.19910
USER: genes 8 Torsion [N]-CA--CB-[CG] |==|  0.12568
USER: genes 9 Torsion [CA]-CB--CG-[CD] |==|  0.38239
USER: genes 10 Torsion [CB]-CG--CD-[NE2] |==|  0.55374
USER: genes 11 Torsion [N]-CA--C-[O] |==|  0.84857
USER: genes 12 Torsion [N]-CA--CB-[CG] |==|  0.89569
USER: genes 13 Torsion [CA]-CB--CG-[CD2] |==|  0.87136
USER: genes 14 Torsion [N]-CA--CB-[CG] |==|  0.86225
USER: genes 15 Torsion [CA]-CB--CG-[CD1] |==|  0.92104
USER: genes 16 Torsion [C]-CA--CB-[CG] |==|  0.31751
USER: genes 17 Torsion [CA]-CB--CG-[CD] |==|  0.47695
USER: genes 18 Torsion [CB]-CG--CD-[NE] |==|  0.90072
USER: genes 19 Torsion [CG]-CD--NE-[CZ] |==|  0.32206
USER: genes 20 Torsion [C]-CA--N-[C] |==|  0.83517
USER: genes 21 Torsion [N]-C--CA-[N] |==|  0.06205
USER: genes 22 Torsion [C]-CA--CB-[CG] |==|  0.75976
USER: genes 23 Torsion [CA]-CB--CG-[ND1] |==|  0.77877
USER: genes 24 Torsion [C]-CA--N-[C] |==|  0.67404
USER: genes 25 Torsion [N]-C--CA-[N] |==|  0.31693
USER: genes 26 Torsion [C]-CA--CB-[CG] |==|  0.22020
USER: genes 27 Torsion [CA]-CB--CG-[CD2] |==|  0.04347
USER: genes 28 Torsion [C]-CA--N-[C] |==|  0.60912
USER: genes 29 Torsion [N]-C--CA-[N] |==|  0.38193
USER: genes 30 Torsion [C]-CA--CB-[CG1] |==|  0.98721
USER: genes 31 Torsion [CA]-CB--CG1-[CD1] |==|  0.66413
ROOT
ATOM      1  CA  ARG D 692       8.818 -12.002  36.873  1.00 48.73 LIG 0.18  C 
ENDROOT
BRANCH 1 2
ATOM      2  C   ARG D 692       7.843 -13.112  36.516  1.00 46.10 LIG 0.24  C 
ATOM      3  N   LEU D 693       6.555 -12.795  36.408  1.00 50.64 LIG-0.35  N 
ATOM      4 H    LEU D 693       6.229 -12.006  36.506  1.00 50.64 LIG 0.16  HD
ATOM      5 O    ARG D 692       8.233 -14.275  36.425  1.00 52.04 LIG-0.27  OA
BRANCH 3 6
ATOM      6  CA  LEU D 693       5.583 -13.848  36.098  1.00 43.34 LIG 0.18  C 
BRANCH 6 7
ATOM      7  C   LEU D 693       5.415 -14.831  37.249  1.00 37.95 LIG 0.24  C 
ATOM      8  N   LEU D 694       6.061 -14.543  38.361  1.00 39.22 LIG-0.35  N 
ATOM      9 H    LEU D 694       6.592 -13.872  38.443  1.00 39.22 LIG 0.16  HD
ATOM     10 O    LEU D 693       4.728 -15.848  37.108  1.00 43.86 LIG-0.27  OA
BRANCH 8 11
ATOM     11  CA  LEU D 694       5.933 -15.338  39.555  1.00 38.59 LIG 0.18  C 
BRANCH 11 12
ATOM     12  C   LEU D 694       5.087 -14.596  40.538  1.00 46.22 LIG 0.24  C 
ATOM     13  N   GLN D 695       4.402 -13.586  40.032  1.00 66.87 LIG-0.35  N 
ATOM     14 H    GLN D 695       4.515 -13.336  39.218  1.00 66.87 LIG 0.16  HD
ATOM     15 O    LEU D 694       5.115 -14.901  41.701  1.00 54.70 LIG-0.27  OA
BRANCH 13 16
ATOM     16  CA  GLN D 695       3.394 -12.768  40.719  1.00 62.86 LIG 0.16  C 
BRANCH 16 17
ATOM     17  CB  GLN D 695       4.040 -11.861  41.731  1.00 63.26 LIG 0.04  C 
BRANCH 17 18
ATOM     18  CG  GLN D 695       5.261 -11.186  41.165  1.00 77.24 LIG 0.10  C 
BRANCH 18 19
ATOM     19  CD  GLN D 695       5.346  -9.762  41.535  1.00 84.08 LIG 0.21  C 
ATOM     20 OE1  GLN D 695       4.728  -9.338  42.492  1.00 83.40 LIG-0.27  OA
ATOM     21  NE2 GLN D 695       6.129  -9.002  40.794  1.00 79.17 LIG-0.37  N 
ATOM     22 22HE GLN D 695       6.220  -8.167  40.981  1.00 79.17 LIG 0.16  HD
ATOM     23 21HE GLN D 695       6.549  -9.341  40.125  1.00 79.17 LIG 0.16  HD
ENDBRANCH 18 19
ENDBRANCH 17 18
ENDBRANCH 16 17
BRANCH 16 24
ATOM     24  C   GLN D 695       2.413 -12.002  39.833  1.00 61.14 LIG 0.22  C 
ATOM     25 O    GLN D 695       2.819 -11.239  38.952  1.00 66.66 LIG-0.29  OA
ENDBRANCH 16 24
ENDBRANCH 13 16
ENDBRANCH 11 12
BRANCH 11 26
ATOM     26  CB  LEU D 694       7.279 -15.584  40.202  1.00 34.51 LIG 0.04  C 
BRANCH 26 27
ATOM     27  CG  LEU D 694       8.500 -15.822  39.349  1.00 27.71 LIG-0.02  C 
ATOM     28  CD2 LEU D 694       8.264 -16.803  38.240  1.00 26.48 LIG 0.01  C 
ATOM     29  CD1 LEU D 694       9.727 -16.162  40.146  1.00 27.00 LIG 0.01  C 
ENDBRANCH 26 27
ENDBRANCH 11 26
ENDBRANCH 8 11
ENDBRANCH 6 7
BRANCH 6 30
ATOM     30  CB  LEU D 693       5.926 -14.590  34.794  1.00 45.67 LIG 0.04  C 
BRANCH 30 31
ATOM     31  CG  LEU D 693       6.222 -13.703  33.575  1.00 55.29 LIG-0.02  C 
ATOM     32  CD1 LEU D 693       5.478 -12.378  33.673  1.00 47.80 LIG 0.01  C 
ATOM     33  CD2 LEU D 693       7.728 -13.489  33.362  1.00 51.02 LIG 0.01  C 
ENDBRANCH 30 31
ENDBRANCH 6 30
ENDBRANCH 3 6
ENDBRANCH 1 2
BRANCH 1 34
ATOM     34  CB  ARG D 692       9.593 -11.602  35.599  1.00 49.09 LIG 0.04  C 
BRANCH 34 35
ATOM     35  CG  ARG D 692       9.260 -10.160  35.169  1.00 50.62 LIG 0.02  C 
BRANCH 35 36
ATOM     36  CD  ARG D 692      10.126  -9.618  34.041  1.00 57.04 LIG 0.14  C 
BRANCH 36 37
ATOM     37  NE  ARG D 692      11.477 -10.127  34.181  1.00 60.90 LIG-0.23  N 
ATOM     38 HE   ARG D 692      11.921  -9.891  34.879  1.00 60.90 LIG 0.18  HD
ATOM     39  CZ  ARG D 692      12.078 -10.926  33.312  1.00 61.50 LIG 0.67  C 
ATOM     40  NH1 ARG D 692      11.478 -11.252  32.169  1.00 46.48 LIG-0.23  N 
ATOM     41  NH2 ARG D 692      13.304 -11.361  33.573  1.00 64.68 LIG-0.23  N 
ATOM     42 1HH1 ARG D 692      10.695 -10.943  31.991  1.00 46.48 LIG 0.17  HD
ATOM     43 2HH1 ARG D 692      11.874 -11.771  31.609  1.00 46.48 LIG 0.17  HD
ATOM     44 1HH2 ARG D 692      13.700 -11.124  34.299  1.00 64.68 LIG 0.17  HD
ATOM     45 2HH2 ARG D 692      13.703 -11.881  33.016  1.00 64.68 LIG 0.17  HD
ENDBRANCH 36 37
ENDBRANCH 35 36
ENDBRANCH 34 35
ENDBRANCH 1 34
BRANCH 1 46
ATOM     46  N   ARG D 692       9.716 -12.279  38.019  1.00 43.06 LIG-0.35  N 
ATOM     47  C   HIS D 691       9.247 -12.546  39.226  1.00 44.11 LIG 0.24  C 
ATOM     48 O    HIS D 691       8.055 -12.549  39.497  1.00 43.39 LIG-0.27  OA
ATOM     49 H    ARG D 692      10.554 -12.251  37.827  1.00 43.06 LIG 0.16  HD
BRANCH 47 50
ATOM     50  CA  HIS D 691      10.270 -12.853  40.251  1.00 41.80 LIG 0.18  C 
BRANCH 50 51
ATOM     51  CB  HIS D 691       9.800 -12.197  41.504  1.00 51.00 LIG 0.10  C 
BRANCH 51 52
ATOM     52  CG  HIS D 691      10.209 -10.789  41.643  1.00 57.86 LIG 0.06  A 
ATOM     53 ND1  HIS D 691      11.418 -10.439  42.043  1.00 60.60 LIG-0.24  NA
ATOM     54  CE1 HIS D 691      11.501  -9.112  42.079  1.00 72.50 LIG 0.23  A 
ATOM     55 NE2  HIS D 691      10.323  -8.612  41.718  1.00 67.35 LIG-0.25  NA
ATOM     56  CD2 HIS D 691       9.503  -9.618  41.447  1.00 66.29 LIG 0.14  A 
ENDBRANCH 51 52
ENDBRANCH 50 51
BRANCH 50 57
ATOM     57  N   HIS D 691      11.557 -12.307  39.881  1.00 39.94 LIG-0.35  N 
ATOM     58 H    HIS D 691      11.567 -11.449  39.822  1.00 39.94 LIG 0.16  HD
ATOM     59  C   LEU D 690      12.619 -13.064  39.656  1.00 35.88 LIG 0.24  C 
ATOM     60 O    LEU D 690      12.607 -14.309  39.765  1.00 34.66 LIG-0.27  OA
BRANCH 59 61
ATOM     61  CA  LEU D 690      13.869 -12.352  39.192  1.00 33.43 LIG 0.18  C 
BRANCH 61 62
ATOM     62  CB  LEU D 690      14.344 -12.954  37.869  1.00 31.34 LIG 0.04  C 
BRANCH 62 63
ATOM     63  CG  LEU D 690      13.609 -12.502  36.612  1.00 30.93 LIG-0.02  C 
ATOM     64  CD1 LEU D 690      12.679 -13.604  36.130  1.00 30.90 LIG 0.01  C 
ATOM     65  CD2 LEU D 690      12.803 -11.252  36.913  1.00 28.62 LIG 0.01  C 
ENDBRANCH 62 63
ENDBRANCH 61 62
BRANCH 61 66
ATOM     66  N   LEU D 690      14.934 -12.441  40.192  1.00 35.22 LIG-0.35  N 
ATOM     67 H    LEU D 690      14.988 -13.204  40.586  1.00 35.22 LIG 0.16  HD
ATOM     68  C   ILE D 689      15.738 -11.417  40.450  1.00 41.04 LIG 0.26  C 
ATOM     69 O    ILE D 689      15.678 -10.346  39.828  1.00 39.56 LIG-0.27  OA
BRANCH 68 70
ATOM     70  CA  ILE D 689      16.801 -11.656  41.544  1.00 40.35 LIG 0.40  C 
ATOM     71  N   ILE D 689      18.158 -11.095  41.169  1.00 40.45 LIG 0.61  N 
BRANCH 70 72
ATOM     72  CB  ILE D 689      16.258 -11.049  42.861  1.00 42.26 LIG 0.03  C 
ATOM     73  CG2 ILE D 689      17.307 -10.127  43.510  1.00 38.55 LIG 0.01  C 
BRANCH 72 74
ATOM     74  CG1 ILE D 689      14.929 -10.322  42.639  1.00 45.91 LIG 0.00  C 
ATOM     75  CD1 ILE D 689      14.947  -8.841  43.019  1.00 45.96 LIG 0.01  C 
ENDBRANCH 72 74
ENDBRANCH 70 72
ENDBRANCH 68 70
ENDBRANCH 61 66
ENDBRANCH 59 61
ENDBRANCH 50 57
ENDBRANCH 47 50
ENDBRANCH 1 46
TORSDOF 30
ENDMDL
MODEL 80
USER: ADFR SOLUTION from run 41
USER: SCORE 20.715597 LL:  -7.377 LR: -14.686 RR:   0.000 FEB:  -5.737
USER: RMSD 6.885074
USER: SEED 40
USER: STATUS no improvement in best in 31 clusters for 5 generations
USER: GENES 32
USER: genes 0 Translation |==|  0.54830 0.70089 0.34085
USER: genes 1 Rotation |==|  0.98463 0.39292 0.44611 0.52765
USER: genes 2 Torsion [N]-CA--C-[N] |==|  0.88506
USER: genes 3 Torsion [C]-N--CA-[C] |==|  0.65869
USER: genes 4 Torsion [N]-CA--C-[N] |==|  0.04659
USER: genes 5 Torsion [C]-N--CA-[C] |==|  0.79740
USER: genes 6 Torsion [N]-CA--C-[N] |==|  0.30739
USER: genes 7 Torsion [C]-N--CA-[CB] |==|  0.46433
USER: genes 8 Torsion [N]-CA--CB-[CG] |==|  0.75086
USER: genes 9 Torsion [CA]-CB--CG-[CD] |==|  0.03807
USER: genes 10 Torsion [CB]-CG--CD-[NE2] |==|  0.23438
USER: genes 11 Torsion [N]-CA--C-[O] |==|  0.33330
USER: genes 12 Torsion [N]-CA--CB-[CG] |==|  0.75864
USER: genes 13 Torsion [CA]-CB--CG-[CD2] |==|  0.11692
USER: genes 14 Torsion [N]-CA--CB-[CG] |==|  0.72121
USER: genes 15 Torsion [CA]-CB--CG-[CD1] |==|  0.83841
USER: genes 16 Torsion [C]-CA--CB-[CG] |==|  0.40734
USER: genes 17 Torsion [CA]-CB--CG-[CD] |==|  0.18764
USER: genes 18 Torsion [CB]-CG--CD-[NE] |==|  0.31239
USER: genes 19 Torsion [CG]-CD--NE-[CZ] |==|  0.55615
USER: genes 20 Torsion [C]-CA--N-[C] |==|  0.90929
USER: genes 21 Torsion [N]-C--CA-[N] |==|  0.97704
USER: genes 22 Torsion [C]-CA--CB-[CG] |==|  0.22116
USER: genes 23 Torsion [CA]-CB--CG-[ND1] |==|  0.21864
USER: genes 24 Torsion [C]-CA--N-[C] |==|  0.81400
USER: genes 25 Torsion [N]-C--CA-[N] |==|  0.13190
USER: genes 26 Torsion [C]-CA--CB-[CG] |==|  0.28235
USER: genes 27 Torsion [CA]-CB--CG-[CD2] |==|  0.23103
USER: genes 28 Torsion [C]-CA--N-[C] |==|  0.16509
USER: genes 29 Torsion [N]-C--CA-[N] |==|  0.91439
USER: genes 30 Torsion [C]-CA--CB-[CG1] |==|  0.82475
USER: genes 31 Torsion [CA]-CB--CG1-[CD1] |==|  0.44380
ROOT
ATOM      1  CA  ARG D 692      10.690 -11.235  35.816  1.00 48.73 LIG 0.18  C 
ENDROOT
BRANCH 1 2
ATOM      2  C   ARG D 692       9.210 -11.572  35.904  1.00 46.10 LIG 0.24  C 
ATOM      3  N   LEU D 693       8.872 -12.751  36.420  1.00 50.64 LIG-0.35  N 
ATOM      4 H    LEU D 693       9.424 -13.335  36.726  1.00 50.64 LIG 0.16  HD
ATOM      5 O    ARG D 692       8.371 -10.810  35.427  1.00 52.04 LIG-0.27  OA
BRANCH 3 6
ATOM      6  CA  LEU D 693       7.455 -13.121  36.489  1.00 43.34 LIG 0.18  C 
BRANCH 6 7
ATOM      7  C   LEU D 693       7.015 -13.443  37.911  1.00 37.95 LIG 0.24  C 
ATOM      8  N   LEU D 694       7.810 -13.029  38.876  1.00 39.22 LIG-0.35  N 
ATOM      9 H    LEU D 694       8.564 -12.640  38.737  1.00 39.22 LIG 0.16  HD
ATOM     10 O    LEU D 693       5.978 -14.085  38.114  1.00 43.86 LIG-0.27  OA
BRANCH 8 11
ATOM     11  CA  LEU D 694       7.483 -13.192  40.268  1.00 38.59 LIG 0.18  C 
BRANCH 11 12
ATOM     12  C   LEU D 694       6.396 -12.230  40.623  1.00 46.22 LIG 0.24  C 
ATOM     13  N   GLN D 695       5.225 -12.782  40.882  1.00 66.87 LIG-0.35  N 
ATOM     14 H    GLN D 695       5.095 -13.624  40.763  1.00 66.87 LIG 0.16  HD
ATOM     15 O    LEU D 694       6.614 -11.047  40.599  1.00 54.70 LIG-0.27  OA
BRANCH 13 16
ATOM     16  CA  GLN D 695       4.019 -12.109  41.382  1.00 62.86 LIG 0.16  C 
BRANCH 16 17
ATOM     17  CB  GLN D 695       2.816 -13.003  41.255  1.00 63.26 LIG 0.04  C 
BRANCH 17 18
ATOM     18  CG  GLN D 695       2.135 -12.821  39.925  1.00 77.24 LIG 0.10  C 
BRANCH 18 19
ATOM     19  CD  GLN D 695       2.964 -12.079  38.958  1.00 84.08 LIG 0.21  C 
ATOM     20 OE1  GLN D 695       2.833 -10.877  38.832  1.00 83.40 LIG-0.27  OA
ATOM     21  NE2 GLN D 695       3.847 -12.779  38.272  1.00 79.17 LIG-0.37  N 
ATOM     22 22HE GLN D 695       4.361 -12.386  37.706  1.00 79.17 LIG 0.16  HD
ATOM     23 21HE GLN D 695       3.908 -13.629  38.391  1.00 79.17 LIG 0.16  HD
ENDBRANCH 18 19
ENDBRANCH 17 18
ENDBRANCH 16 17
BRANCH 16 24
ATOM     24  C   GLN D 695       4.108 -11.493  42.777  1.00 61.14 LIG 0.22  C 
ATOM     25 O    GLN D 695       3.931 -10.283  42.947  1.00 66.66 LIG-0.29  OA
ENDBRANCH 16 24
ENDBRANCH 13 16
ENDBRANCH 11 12
BRANCH 11 26
ATOM     26  CB  LEU D 694       8.672 -12.890  41.155  1.00 34.51 LIG 0.04  C 
BRANCH 26 27
ATOM     27  CG  LEU D 694       9.671 -13.972  41.481  1.00 27.71 LIG-0.02  C 
ATOM     28  CD2 LEU D 694      10.023 -14.827  40.301  1.00 26.48 LIG 0.01  C 
ATOM     29  CD1 LEU D 694       9.286 -14.796  42.676  1.00 27.00 LIG 0.01  C 
ENDBRANCH 26 27
ENDBRANCH 11 26
ENDBRANCH 8 11
ENDBRANCH 6 7
BRANCH 6 30
ATOM     30  CB  LEU D 693       7.109 -14.279  35.536  1.00 45.67 LIG 0.04  C 
BRANCH 30 31
ATOM     31  CG  LEU D 693       6.440 -13.881  34.211  1.00 55.29 LIG-0.02  C 
ATOM     32  CD1 LEU D 693       5.145 -13.121  34.463  1.00 47.80 LIG 0.01  C 
ATOM     33  CD2 LEU D 693       7.387 -13.093  33.294  1.00 51.02 LIG 0.01  C 
ENDBRANCH 30 31
ENDBRANCH 6 30
ENDBRANCH 3 6
ENDBRANCH 1 2
BRANCH 1 34
ATOM     34  CB  ARG D 692      11.246 -11.812  34.497  1.00 49.09 LIG 0.04  C 
BRANCH 34 35
ATOM     35  CG  ARG D 692      12.359 -10.917  33.917  1.00 50.62 LIG 0.02  C 
BRANCH 35 36
ATOM     36  CD  ARG D 692      13.636 -10.877  34.744  1.00 57.04 LIG 0.14  C 
BRANCH 36 37
ATOM     37  NE  ARG D 692      14.708 -11.520  34.009  1.00 60.90 LIG-0.23  N 
ATOM     38 HE   ARG D 692      14.617 -11.598  33.158  1.00 60.90 LIG 0.18  HD
ATOM     39  CZ  ARG D 692      15.818 -11.996  34.554  1.00 61.50 LIG 0.67  C 
ATOM     40  NH1 ARG D 692      15.978 -11.988  35.876  1.00 46.48 LIG-0.23  N 
ATOM     41  NH2 ARG D 692      16.749 -12.525  33.770  1.00 64.68 LIG-0.23  N 
ATOM     42 1HH1 ARG D 692      15.358 -11.672  36.381  1.00 46.48 LIG 0.17  HD
ATOM     43 2HH1 ARG D 692      16.701 -12.299  36.223  1.00 46.48 LIG 0.17  HD
ATOM     44 1HH2 ARG D 692      16.629 -12.556  32.919  1.00 64.68 LIG 0.17  HD
ATOM     45 2HH2 ARG D 692      17.473 -12.837  34.113  1.00 64.68 LIG 0.17  HD
ENDBRANCH 36 37
ENDBRANCH 35 36
ENDBRANCH 34 35
ENDBRANCH 1 34
BRANCH 1 46
ATOM     46  N   ARG D 692      11.507 -11.618  36.991  1.00 43.06 LIG-0.35  N 
ATOM     47  C   HIS D 691      11.014 -11.608  38.218  1.00 44.11 LIG 0.24  C 
ATOM     48 O    HIS D 691       9.874 -11.252  38.481  1.00 43.39 LIG-0.27  OA
ATOM     49 H    ARG D 692      12.316 -11.843  36.802  1.00 43.06 LIG 0.16  HD
BRANCH 47 50
ATOM     50  CA  HIS D 691      11.941 -12.067  39.277  1.00 41.80 LIG 0.18  C 
BRANCH 50 51
ATOM     51  CB  HIS D 691      12.281 -10.854  40.074  1.00 51.00 LIG 0.10  C 
BRANCH 51 52
ATOM     52  CG  HIS D 691      11.251 -10.461  41.051  1.00 57.86 LIG 0.06  A 
ATOM     53 ND1  HIS D 691      11.110 -11.072  42.215  1.00 60.60 LIG-0.24  NA
ATOM     54  CE1 HIS D 691      10.105 -10.513  42.884  1.00 72.50 LIG 0.23  A 
ATOM     55 NE2  HIS D 691       9.588  -9.548  42.129  1.00 67.35 LIG-0.25  NA
ATOM     56  CD2 HIS D 691      10.267  -9.493  40.991  1.00 66.29 LIG 0.14  A 
ENDBRANCH 51 52
ENDBRANCH 50 51
BRANCH 50 57
ATOM     57  N   HIS D 691      13.150 -12.618  38.709  1.00 39.94 LIG-0.35  N 
ATOM     58 H    HIS D 691      13.855 -12.152  38.871  1.00 39.94 LIG 0.16  HD
ATOM     59  C   LEU D 690      13.167 -13.737  38.004  1.00 35.88 LIG 0.24  C 
ATOM     60 O    LEU D 690      12.145 -14.425  37.788  1.00 34.66 LIG-0.27  OA
BRANCH 59 61
ATOM     61  CA  LEU D 690      14.494 -14.136  37.400  1.00 33.43 LIG 0.18  C 
BRANCH 61 62
ATOM     62  CB  LEU D 690      14.404 -15.562  36.853  1.00 31.34 LIG 0.04  C 
BRANCH 62 63
ATOM     63  CG  LEU D 690      14.234 -15.701  35.344  1.00 30.93 LIG-0.02  C 
ATOM     64  CD1 LEU D 690      13.322 -14.601  34.821  1.00 30.90 LIG 0.01  C 
ATOM     65  CD2 LEU D 690      15.587 -15.607  34.665  1.00 28.62 LIG 0.01  C 
ENDBRANCH 62 63
ENDBRANCH 61 62
BRANCH 61 66
ATOM     66  N   LEU D 690      15.574 -14.047  38.384  1.00 35.22 LIG-0.35  N 
ATOM     67 H    LEU D 690      16.207 -13.507  38.168  1.00 35.22 LIG 0.16  HD
ATOM     68  C   ILE D 689      15.555 -14.751  39.510  1.00 41.04 LIG 0.26  C 
ATOM     69 O    ILE D 689      14.604 -15.481  39.826  1.00 39.56 LIG-0.27  OA
BRANCH 68 70
ATOM     70  CA  ILE D 689      16.774 -14.565  40.438  1.00 40.35 LIG 0.40  C 
ATOM     71  N   ILE D 689      18.046 -14.258  39.673  1.00 40.45 LIG 0.61  N 
BRANCH 70 72
ATOM     72  CB  ILE D 689      16.419 -13.454  41.457  1.00 42.26 LIG 0.03  C 
ATOM     73  CG2 ILE D 689      17.503 -13.344  42.545  1.00 38.55 LIG 0.01  C 
BRANCH 72 74
ATOM     74  CG1 ILE D 689      16.179 -12.110  40.762  1.00 45.91 LIG 0.00  C 
ATOM     75  CD1 ILE D 689      15.373 -11.108  41.587  1.00 45.96 LIG 0.01  C 
ENDBRANCH 72 74
ENDBRANCH 70 72
ENDBRANCH 68 70
ENDBRANCH 61 66
ENDBRANCH 59 61
ENDBRANCH 50 57
ENDBRANCH 47 50
ENDBRANCH 1 46
TORSDOF 30
ENDMDL
MODEL 81
USER: ADFR SOLUTION from run 164
USER: SCORE 20.902102 LL:  -7.212 LR: -14.695 RR:   0.000 FEB:  -5.746
USER: RMSD 7.189077
USER: SEED 163
USER: STATUS no improvement in best in 40 clusters for 5 generations
USER: GENES 32
USER: genes 0 Translation |==|  0.53072 0.68461 0.32001
USER: genes 1 Rotation |==|  0.97550 0.37143 0.41434 0.50516
USER: genes 2 Torsion [N]-CA--C-[N] |==|  0.91003
USER: genes 3 Torsion [C]-N--CA-[C] |==|  0.67754
USER: genes 4 Torsion [N]-CA--C-[N] |==|  0.96426
USER: genes 5 Torsion [C]-N--CA-[C] |==|  0.78204
USER: genes 6 Torsion [N]-CA--C-[N] |==|  0.35954
USER: genes 7 Torsion [C]-N--CA-[CB] |==|  0.75295
USER: genes 8 Torsion [N]-CA--CB-[CG] |==|  0.66316
USER: genes 9 Torsion [CA]-CB--CG-[CD] |==|  0.95078
USER: genes 10 Torsion [CB]-CG--CD-[NE2] |==|  0.72038
USER: genes 11 Torsion [N]-CA--C-[O] |==|  0.23114
USER: genes 12 Torsion [N]-CA--CB-[CG] |==|  0.14710
USER: genes 13 Torsion [CA]-CB--CG-[CD2] |==|  0.60498
USER: genes 14 Torsion [N]-CA--CB-[CG] |==|  0.76803
USER: genes 15 Torsion [CA]-CB--CG-[CD1] |==|  0.89987
USER: genes 16 Torsion [C]-CA--CB-[CG] |==|  0.40950
USER: genes 17 Torsion [CA]-CB--CG-[CD] |==|  0.11331
USER: genes 18 Torsion [CB]-CG--CD-[NE] |==|  0.33235
USER: genes 19 Torsion [CG]-CD--NE-[CZ] |==|  0.54067
USER: genes 20 Torsion [C]-CA--N-[C] |==|  0.75979
USER: genes 21 Torsion [N]-C--CA-[N] |==|  0.13928
USER: genes 22 Torsion [C]-CA--CB-[CG] |==|  0.58473
USER: genes 23 Torsion [CA]-CB--CG-[ND1] |==|  0.33474
USER: genes 24 Torsion [C]-CA--N-[C] |==|  0.77092
USER: genes 25 Torsion [N]-C--CA-[N] |==|  0.13207
USER: genes 26 Torsion [C]-CA--CB-[CG] |==|  0.35794
USER: genes 27 Torsion [CA]-CB--CG-[CD2] |==|  0.12712
USER: genes 28 Torsion [C]-CA--N-[C] |==|  0.15979
USER: genes 29 Torsion [N]-C--CA-[N] |==|  0.46718
USER: genes 30 Torsion [C]-CA--CB-[CG1] |==|  0.88884
USER: genes 31 Torsion [CA]-CB--CG1-[CD1] |==|  0.37577
ROOT
ATOM      1  CA  ARG D 692      10.294 -11.540  35.409  1.00 48.73 LIG 0.18  C 
ENDROOT
BRANCH 1 2
ATOM      2  C   ARG D 692       8.802 -11.732  35.624  1.00 46.10 LIG 0.24  C 
ATOM      3  N   LEU D 693       8.400 -12.849  36.226  1.00 50.64 LIG-0.35  N 
ATOM      4 H    LEU D 693       8.919 -13.467  36.522  1.00 50.64 LIG 0.16  HD
ATOM      5 O    ARG D 692       8.000 -10.918  35.169  1.00 52.04 LIG-0.27  OA
BRANCH 3 6
ATOM      6  CA  LEU D 693       6.965 -13.080  36.419  1.00 43.34 LIG 0.18  C 
BRANCH 6 7
ATOM      7  C   LEU D 693       6.584 -13.127  37.893  1.00 37.95 LIG 0.24  C 
ATOM      8  N   LEU D 694       7.580 -13.223  38.750  1.00 39.22 LIG-0.35  N 
ATOM      9 H    LEU D 694       8.403 -13.306  38.516  1.00 39.22 LIG 0.16  HD
ATOM     10 O    LEU D 693       5.396 -13.104  38.233  1.00 43.86 LIG-0.27  OA
BRANCH 8 11
ATOM     11  CA  LEU D 694       7.376 -13.199  40.175  1.00 38.59 LIG 0.18  C 
BRANCH 11 12
ATOM     12  C   LEU D 694       7.166 -11.784  40.606  1.00 46.22 LIG 0.24  C 
ATOM     13  N   GLN D 695       6.100 -11.583  41.359  1.00 66.87 LIG-0.35  N 
ATOM     14 H    GLN D 695       5.534 -12.214  41.504  1.00 66.87 LIG 0.16  HD
ATOM     15 O    LEU D 694       7.911 -10.923  40.216  1.00 54.70 LIG-0.27  OA
BRANCH 13 16
ATOM     16  CA  GLN D 695       5.714 -10.337  42.034  1.00 62.86 LIG 0.16  C 
BRANCH 16 17
ATOM     17  CB  GLN D 695       6.323 -10.263  43.408  1.00 63.26 LIG 0.04  C 
BRANCH 17 18
ATOM     18  CG  GLN D 695       5.267 -10.135  44.472  1.00 77.24 LIG 0.10  C 
BRANCH 18 19
ATOM     19  CD  GLN D 695       3.966  -9.701  43.933  1.00 84.08 LIG 0.21  C 
ATOM     20 OE1  GLN D 695       3.224 -10.502  43.397  1.00 83.40 LIG-0.27  OA
ATOM     21  NE2 GLN D 695       3.657  -8.427  44.082  1.00 79.17 LIG-0.37  N 
ATOM     22 22HE GLN D 695       2.902  -8.131  43.794  1.00 79.17 LIG 0.16  HD
ATOM     23 21HE GLN D 695       4.209  -7.892  44.466  1.00 79.17 LIG 0.16  HD
ENDBRANCH 18 19
ENDBRANCH 17 18
ENDBRANCH 16 17
BRANCH 16 24
ATOM     24  C   GLN D 695       5.934  -9.040  41.258  1.00 61.14 LIG 0.22  C 
ATOM     25 O    GLN D 695       5.103  -8.647  40.434  1.00 66.66 LIG-0.29  OA
ENDBRANCH 16 24
ENDBRANCH 13 16
ENDBRANCH 11 12
BRANCH 11 26
ATOM     26  CB  LEU D 694       8.585 -13.730  40.916  1.00 34.51 LIG 0.04  C 
BRANCH 26 27
ATOM     27  CG  LEU D 694       9.954 -13.158  40.644  1.00 27.71 LIG-0.02  C 
ATOM     28  CD2 LEU D 694      11.040 -14.191  40.661  1.00 26.48 LIG 0.01  C 
ATOM     29  CD1 LEU D 694      10.289 -11.978  41.509  1.00 27.00 LIG 0.01  C 
ENDBRANCH 26 27
ENDBRANCH 11 26
ENDBRANCH 8 11
ENDBRANCH 6 7
BRANCH 6 30
ATOM     30  CB  LEU D 693       6.477 -14.343  35.689  1.00 45.67 LIG 0.04  C 
BRANCH 30 31
ATOM     31  CG  LEU D 693       6.137 -14.170  34.200  1.00 55.29 LIG-0.02  C 
ATOM     32  CD1 LEU D 693       5.509 -12.807  33.941  1.00 47.80 LIG 0.01  C 
ATOM     33  CD2 LEU D 693       7.353 -14.412  33.294  1.00 51.02 LIG 0.01  C 
ENDBRANCH 30 31
ENDBRANCH 6 30
ENDBRANCH 3 6
ENDBRANCH 1 2
BRANCH 1 34
ATOM     34  CB  ARG D 692      10.651 -12.025  33.988  1.00 49.09 LIG 0.04  C 
BRANCH 34 35
ATOM     35  CG  ARG D 692      11.809 -11.203  33.389  1.00 50.62 LIG 0.02  C 
BRANCH 35 36
ATOM     36  CD  ARG D 692      12.928 -10.877  34.367  1.00 57.04 LIG 0.14  C 
BRANCH 36 37
ATOM     37  NE  ARG D 692      14.173 -11.448  33.888  1.00 60.90 LIG-0.23  N 
ATOM     38 HE   ARG D 692      14.200 -11.713  33.070  1.00 60.90 LIG 0.18  HD
ATOM     39  CZ  ARG D 692      15.269 -11.591  34.616  1.00 61.50 LIG 0.67  C 
ATOM     40  NH1 ARG D 692      15.262 -11.285  35.912  1.00 46.48 LIG-0.23  N 
ATOM     41  NH2 ARG D 692      16.362 -12.088  34.051  1.00 64.68 LIG-0.23  N 
ATOM     42 1HH1 ARG D 692      14.542 -10.992  36.281  1.00 46.48 LIG 0.17  HD
ATOM     43 2HH1 ARG D 692      15.977 -11.381  36.380  1.00 46.48 LIG 0.17  HD
ATOM     44 1HH2 ARG D 692      16.353 -12.313  33.221  1.00 64.68 LIG 0.17  HD
ATOM     45 2HH2 ARG D 692      17.080 -12.186  34.515  1.00 64.68 LIG 0.17  HD
ENDBRANCH 36 37
ENDBRANCH 35 36
ENDBRANCH 34 35
ENDBRANCH 1 34
BRANCH 1 46
ATOM     46  N   ARG D 692      11.173 -12.130  36.447  1.00 43.06 LIG-0.35  N 
ATOM     47  C   HIS D 691      11.493 -11.471  37.548  1.00 44.11 LIG 0.24  C 
ATOM     48 O    HIS D 691      11.124 -10.329  37.779  1.00 43.39 LIG-0.27  OA
ATOM     49 H    ARG D 692      11.450 -12.925  36.267  1.00 43.06 LIG 0.16  HD
BRANCH 47 50
ATOM     50  CA  HIS D 691      12.336 -12.216  38.510  1.00 41.80 LIG 0.18  C 
BRANCH 50 51
ATOM     51  CB  HIS D 691      12.796 -11.212  39.511  1.00 51.00 LIG 0.10  C 
BRANCH 51 52
ATOM     52  CG  HIS D 691      14.116 -11.500  40.097  1.00 57.86 LIG 0.06  A 
ATOM     53 ND1  HIS D 691      15.134 -10.665  39.994  1.00 60.60 LIG-0.24  NA
ATOM     54  CE1 HIS D 691      16.192 -11.185  40.610  1.00 72.50 LIG 0.23  A 
ATOM     55 NE2  HIS D 691      15.848 -12.375  41.094  1.00 67.35 LIG-0.25  NA
ATOM     56  CD2 HIS D 691      14.578 -12.602  40.791  1.00 66.29 LIG 0.14  A 
ENDBRANCH 51 52
ENDBRANCH 50 51
BRANCH 50 57
ATOM     57  N   HIS D 691      13.486 -12.797  37.854  1.00 39.94 LIG-0.35  N 
ATOM     58 H    HIS D 691      14.203 -12.328  37.929  1.00 39.94 LIG 0.16  HD
ATOM     59  C   LEU D 690      13.435 -13.945  37.199  1.00 35.88 LIG 0.24  C 
ATOM     60 O    LEU D 690      12.397 -14.636  37.109  1.00 34.66 LIG-0.27  OA
BRANCH 59 61
ATOM     61  CA  LEU D 690      14.699 -14.376  36.491  1.00 33.43 LIG 0.18  C 
BRANCH 61 62
ATOM     62  CB  LEU D 690      14.556 -15.822  36.013  1.00 31.34 LIG 0.04  C 
BRANCH 62 63
ATOM     63  CG  LEU D 690      14.883 -16.090  34.548  1.00 30.93 LIG-0.02  C 
ATOM     64  CD1 LEU D 690      13.756 -15.578  33.664  1.00 30.90 LIG 0.01  C 
ATOM     65  CD2 LEU D 690      16.178 -15.393  34.178  1.00 28.62 LIG 0.01  C 
ENDBRANCH 62 63
ENDBRANCH 61 62
BRANCH 61 66
ATOM     66  N   LEU D 690      15.867 -14.252  37.365  1.00 35.22 LIG-0.35  N 
ATOM     67 H    LEU D 690      16.489 -13.745  37.056  1.00 35.22 LIG 0.16  HD
ATOM     68  C   ILE D 689      15.936 -14.879  38.533  1.00 41.04 LIG 0.26  C 
ATOM     69 O    ILE D 689      15.003 -15.560  38.982  1.00 39.56 LIG-0.27  OA
BRANCH 68 70
ATOM     70  CA  ILE D 689      17.239 -14.667  39.332  1.00 40.35 LIG 0.40  C 
ATOM     71  N   ILE D 689      17.135 -15.169  40.758  1.00 40.45 LIG 0.61  N 
BRANCH 70 72
ATOM     72  CB  ILE D 689      18.384 -15.357  38.550  1.00 42.26 LIG 0.03  C 
ATOM     73  CG2 ILE D 689      19.631 -15.521  39.437  1.00 38.55 LIG 0.01  C 
BRANCH 72 74
ATOM     74  CG1 ILE D 689      17.933 -16.696  37.958  1.00 45.91 LIG 0.00  C 
ATOM     75  CD1 ILE D 689      18.364 -16.923  36.509  1.00 45.96 LIG 0.01  C 
ENDBRANCH 72 74
ENDBRANCH 70 72
ENDBRANCH 68 70
ENDBRANCH 61 66
ENDBRANCH 59 61
ENDBRANCH 50 57
ENDBRANCH 47 50
ENDBRANCH 1 46
TORSDOF 30
ENDMDL
MODEL 82
USER: ADFR SOLUTION from run 52
USER: SCORE 21.311693 LL:  -7.168 LR: -14.676 RR:   0.000 FEB:  -5.727
USER: RMSD 6.678544
USER: SEED 51
USER: STATUS no improvement in best in 30 clusters for 5 generations
USER: GENES 32
USER: genes 0 Translation |==|  0.53308 0.65685 0.30041
USER: genes 1 Rotation |==|  0.11613 0.67425 0.68244 0.69748
USER: genes 2 Torsion [N]-CA--C-[N] |==|  0.02054
USER: genes 3 Torsion [C]-N--CA-[C] |==|  0.66227
USER: genes 4 Torsion [N]-CA--C-[N] |==|  0.47778
USER: genes 5 Torsion [C]-N--CA-[C] |==|  0.81324
USER: genes 6 Torsion [N]-CA--C-[N] |==|  0.92032
USER: genes 7 Torsion [C]-N--CA-[CB] |==|  0.14434
USER: genes 8 Torsion [N]-CA--CB-[CG] |==|  0.26130
USER: genes 9 Torsion [CA]-CB--CG-[CD] |==|  0.79449
USER: genes 10 Torsion [CB]-CG--CD-[NE2] |==|  0.73976
USER: genes 11 Torsion [N]-CA--C-[O] |==|  0.06168
USER: genes 12 Torsion [N]-CA--CB-[CG] |==|  0.08060
USER: genes 13 Torsion [CA]-CB--CG-[CD2] |==|  0.74476
USER: genes 14 Torsion [N]-CA--CB-[CG] |==|  0.77139
USER: genes 15 Torsion [CA]-CB--CG-[CD1] |==|  0.84190
USER: genes 16 Torsion [C]-CA--CB-[CG] |==|  0.39349
USER: genes 17 Torsion [CA]-CB--CG-[CD] |==|  0.02122
USER: genes 18 Torsion [CB]-CG--CD-[NE] |==|  0.36954
USER: genes 19 Torsion [CG]-CD--NE-[CZ] |==|  0.47218
USER: genes 20 Torsion [C]-CA--N-[C] |==|  0.67468
USER: genes 21 Torsion [N]-C--CA-[N] |==|  0.36694
USER: genes 22 Torsion [C]-CA--CB-[CG] |==|  0.24434
USER: genes 23 Torsion [CA]-CB--CG-[ND1] |==|  0.80928
USER: genes 24 Torsion [C]-CA--N-[C] |==|  0.83499
USER: genes 25 Torsion [N]-C--CA-[N] |==|  0.47535
USER: genes 26 Torsion [C]-CA--CB-[CG] |==|  0.33949
USER: genes 27 Torsion [CA]-CB--CG-[CD2] |==|  0.68300
USER: genes 28 Torsion [C]-CA--N-[C] |==|  0.57538
USER: genes 29 Torsion [N]-C--CA-[N] |==|  0.93505
USER: genes 30 Torsion [C]-CA--CB-[CG1] |==|  0.85049
USER: genes 31 Torsion [CA]-CB--CG1-[CD1] |==|  0.31382
ROOT
ATOM      1  CA  ARG D 692      10.347 -12.061  35.027  1.00 48.73 LIG 0.18  C 
ENDROOT
BRANCH 1 2
ATOM      2  C   ARG D 692       8.935 -11.936  35.575  1.00 46.10 LIG 0.24  C 
ATOM      3  N   LEU D 693       8.364 -13.029  36.075  1.00 50.64 LIG-0.35  N 
ATOM      4 H    LEU D 693       8.737 -13.802  36.130  1.00 50.64 LIG 0.16  HD
ATOM      5 O    ARG D 692       8.320 -10.876  35.469  1.00 52.04 LIG-0.27  OA
BRANCH 3 6
ATOM      6  CA  LEU D 693       6.991 -12.951  36.581  1.00 43.34 LIG 0.18  C 
BRANCH 6 7
ATOM      7  C   LEU D 693       6.895 -13.357  38.046  1.00 37.95 LIG 0.24  C 
ATOM      8  N   LEU D 694       5.731 -13.162  38.631  1.00 39.22 LIG-0.35  N 
ATOM      9 H    LEU D 694       5.062 -12.784  38.245  1.00 39.22 LIG 0.16  HD
ATOM     10 O    LEU D 693       7.882 -13.815  38.633  1.00 43.86 LIG-0.27  OA
BRANCH 8 11
ATOM     11  CA  LEU D 694       5.471 -13.570  39.987  1.00 38.59 LIG 0.18  C 
BRANCH 11 12
ATOM     12  C   LEU D 694       5.485 -15.063  40.050  1.00 46.22 LIG 0.24  C 
ATOM     13  N   GLN D 695       5.130 -15.671  38.933  1.00 66.87 LIG-0.35  N 
ATOM     14 H    GLN D 695       4.831 -15.227  38.261  1.00 66.87 LIG 0.16  HD
ATOM     15 O    LEU D 694       5.748 -15.615  41.086  1.00 54.70 LIG-0.27  OA
BRANCH 13 16
ATOM     16  CA  GLN D 695       5.176 -17.113  38.656  1.00 62.86 LIG 0.16  C 
BRANCH 16 17
ATOM     17  CB  GLN D 695       4.473 -17.889  39.737  1.00 63.26 LIG 0.04  C 
BRANCH 17 18
ATOM     18  CG  GLN D 695       3.037 -18.159  39.375  1.00 77.24 LIG 0.10  C 
BRANCH 18 19
ATOM     19  CD  GLN D 695       2.187 -16.960  39.486  1.00 84.08 LIG 0.21  C 
ATOM     20 OE1  GLN D 695       2.079 -16.195  38.548  1.00 83.40 LIG-0.27  OA
ATOM     21  NE2 GLN D 695       1.553 -16.786  40.630  1.00 79.17 LIG-0.37  N 
ATOM     22 22HE GLN D 695       1.036 -16.107  40.735  1.00 79.17 LIG 0.16  HD
ATOM     23 21HE GLN D 695       1.657 -17.350  41.269  1.00 79.17 LIG 0.16  HD
ENDBRANCH 18 19
ENDBRANCH 17 18
ENDBRANCH 16 17
BRANCH 16 24
ATOM     24  C   GLN D 695       4.722 -17.559  37.268  1.00 61.14 LIG 0.22  C 
ATOM     25 O    GLN D 695       4.728 -16.773  36.317  1.00 66.66 LIG-0.29  OA
ENDBRANCH 16 24
ENDBRANCH 13 16
ENDBRANCH 11 12
BRANCH 11 26
ATOM     26  CB  LEU D 694       4.109 -13.104  40.453  1.00 34.51 LIG 0.04  C 
BRANCH 26 27
ATOM     27  CG  LEU D 694       2.987 -12.922  39.461  1.00 27.71 LIG-0.02  C 
ATOM     28  CD2 LEU D 694       2.902 -11.529  38.913  1.00 26.48 LIG 0.01  C 
ATOM     29  CD1 LEU D 694       1.659 -13.407  39.968  1.00 27.00 LIG 0.01  C 
ENDBRANCH 26 27
ENDBRANCH 11 26
ENDBRANCH 8 11
ENDBRANCH 6 7
BRANCH 6 30
ATOM     30  CB  LEU D 693       6.008 -13.766  35.724  1.00 45.67 LIG 0.04  C 
BRANCH 30 31
ATOM     31  CG  LEU D 693       5.491 -13.074  34.453  1.00 55.29 LIG-0.02  C 
ATOM     32  CD1 LEU D 693       4.819 -11.750  34.790  1.00 47.80 LIG 0.01  C 
ATOM     33  CD2 LEU D 693       6.593 -12.895  33.398  1.00 51.02 LIG 0.01  C 
ENDBRANCH 30 31
ENDBRANCH 6 30
ENDBRANCH 3 6
ENDBRANCH 1 2
BRANCH 1 34
ATOM     34  CB  ARG D 692      10.414 -11.325  33.672  1.00 49.09 LIG 0.04  C 
BRANCH 34 35
ATOM     35  CG  ARG D 692      11.755 -10.583  33.502  1.00 50.62 LIG 0.02  C 
BRANCH 35 36
ATOM     36  CD  ARG D 692      12.782 -10.873  34.587  1.00 57.04 LIG 0.14  C 
BRANCH 36 37
ATOM     37  NE  ARG D 692      14.067 -11.153  33.976  1.00 60.90 LIG-0.23  N 
ATOM     38 HE   ARG D 692      14.087 -11.260  33.123  1.00 60.90 LIG 0.18  HD
ATOM     39  CZ  ARG D 692      15.211 -11.258  34.635  1.00 61.50 LIG 0.67  C 
ATOM     40  NH1 ARG D 692      15.232 -11.195  35.965  1.00 46.48 LIG-0.23  N 
ATOM     41  NH2 ARG D 692      16.331 -11.475  33.958  1.00 64.68 LIG-0.23  N 
ATOM     42 1HH1 ARG D 692      14.498 -11.085  36.401  1.00 46.48 LIG 0.17  HD
ATOM     43 2HH1 ARG D 692      15.978 -11.264  36.387  1.00 46.48 LIG 0.17  HD
ATOM     44 1HH2 ARG D 692      16.309 -11.545  33.101  1.00 64.68 LIG 0.17  HD
ATOM     45 2HH2 ARG D 692      17.080 -11.544  34.375  1.00 64.68 LIG 0.17  HD
ENDBRANCH 36 37
ENDBRANCH 35 36
ENDBRANCH 34 35
ENDBRANCH 1 34
BRANCH 1 46
ATOM     46  N   ARG D 692      10.887 -13.439  34.951  1.00 43.06 LIG-0.35  N 
ATOM     47  C   HIS D 691      11.946 -13.814  35.647  1.00 44.11 LIG 0.24  C 
ATOM     48 O    HIS D 691      12.578 -13.057  36.370  1.00 43.39 LIG-0.27  OA
ATOM     49 H    ARG D 692      10.453 -13.960  34.421  1.00 43.06 LIG 0.16  HD
BRANCH 47 50
ATOM     50  CA  HIS D 691      12.329 -15.237  35.502  1.00 41.80 LIG 0.18  C 
BRANCH 50 51
ATOM     51  CB  HIS D 691      11.999 -15.882  36.805  1.00 51.00 LIG 0.10  C 
BRANCH 51 52
ATOM     52  CG  HIS D 691      10.619 -16.388  36.900  1.00 57.86 LIG 0.06  A 
ATOM     53 ND1  HIS D 691       9.572 -15.584  36.943  1.00 60.60 LIG-0.24  NA
ATOM     54  CE1 HIS D 691       8.463 -16.313  37.032  1.00 72.50 LIG 0.23  A 
ATOM     55 NE2  HIS D 691       8.810 -17.596  37.066  1.00 67.35 LIG-0.25  NA
ATOM     56  CD2 HIS D 691      10.131 -17.677  36.992  1.00 66.29 LIG 0.14  A 
ENDBRANCH 51 52
ENDBRANCH 50 51
BRANCH 50 57
ATOM     57  N   HIS D 691      13.746 -15.372  35.249  1.00 39.94 LIG-0.35  N 
ATOM     58 H    HIS D 691      14.162 -15.839  35.840  1.00 39.94 LIG 0.16  HD
ATOM     59  C   LEU D 690      14.344 -14.825  34.203  1.00 35.88 LIG 0.24  C 
ATOM     60 O    LEU D 690      13.734 -14.165  33.334  1.00 34.66 LIG-0.27  OA
BRANCH 59 61
ATOM     61  CA  LEU D 690      15.845 -14.981  34.125  1.00 33.43 LIG 0.18  C 
BRANCH 61 62
ATOM     62  CB  LEU D 690      16.506 -14.195  35.259  1.00 31.34 LIG 0.04  C 
BRANCH 62 63
ATOM     63  CG  LEU D 690      17.393 -14.990  36.210  1.00 30.93 LIG-0.02  C 
ATOM     64  CD1 LEU D 690      18.776 -14.361  36.277  1.00 30.90 LIG 0.01  C 
ATOM     65  CD2 LEU D 690      16.774 -15.007  37.594  1.00 28.62 LIG 0.01  C 
ENDBRANCH 62 63
ENDBRANCH 61 62
BRANCH 61 66
ATOM     66  N   LEU D 690      16.361 -14.522  32.834  1.00 35.22 LIG-0.35  N 
ATOM     67 H    LEU D 690      15.880 -13.919  32.453  1.00 35.22 LIG 0.16  HD
ATOM     68  C   ILE D 689      17.481 -15.011  32.315  1.00 41.04 LIG 0.26  C 
ATOM     69 O    ILE D 689      18.187 -15.839  32.909  1.00 39.56 LIG-0.27  OA
BRANCH 68 70
ATOM     70  CA  ILE D 689      17.886 -14.443  30.938  1.00 40.35 LIG 0.40  C 
ATOM     71  N   ILE D 689      16.707 -13.877  30.172  1.00 40.45 LIG 0.61  N 
BRANCH 70 72
ATOM     72  CB  ILE D 689      18.993 -13.387  31.177  1.00 42.26 LIG 0.03  C 
ATOM     73  CG2 ILE D 689      19.434 -12.747  29.848  1.00 38.55 LIG 0.01  C 
BRANCH 72 74
ATOM     74  CG1 ILE D 689      18.550 -12.329  32.192  1.00 45.91 LIG 0.00  C 
ATOM     75  CD1 ILE D 689      19.323 -12.355  33.510  1.00 45.96 LIG 0.01  C 
ENDBRANCH 72 74
ENDBRANCH 70 72
ENDBRANCH 68 70
ENDBRANCH 61 66
ENDBRANCH 59 61
ENDBRANCH 50 57
ENDBRANCH 47 50
ENDBRANCH 1 46
TORSDOF 30
ENDMDL
MODEL 83
USER: ADFR SOLUTION from run 71
USER: SCORE 22.621199 LL:  -8.455 LR: -14.669 RR:   0.000 FEB:  -5.720
USER: RMSD 7.744866
USER: SEED 70
USER: STATUS no improvement in best in 4 clusters for 5 generations
USER: GENES 32
USER: genes 0 Translation |==|  0.63016 0.68817 0.49662
USER: genes 1 Rotation |==|  0.97009 0.48710 0.63657 0.60097
USER: genes 2 Torsion [N]-CA--C-[N] |==|  0.17322
USER: genes 3 Torsion [C]-N--CA-[C] |==|  0.76222
USER: genes 4 Torsion [N]-CA--C-[N] |==|  0.90556
USER: genes 5 Torsion [C]-N--CA-[C] |==|  0.14447
USER: genes 6 Torsion [N]-CA--C-[N] |==|  0.12286
USER: genes 7 Torsion [C]-N--CA-[CB] |==|  0.25442
USER: genes 8 Torsion [N]-CA--CB-[CG] |==|  0.12515
USER: genes 9 Torsion [CA]-CB--CG-[CD] |==|  0.56093
USER: genes 10 Torsion [CB]-CG--CD-[NE2] |==|  0.30487
USER: genes 11 Torsion [N]-CA--C-[O] |==|  0.07276
USER: genes 12 Torsion [N]-CA--CB-[CG] |==|  0.77943
USER: genes 13 Torsion [CA]-CB--CG-[CD2] |==|  0.18103
USER: genes 14 Torsion [N]-CA--CB-[CG] |==|  0.88252
USER: genes 15 Torsion [CA]-CB--CG-[CD1] |==|  0.88192
USER: genes 16 Torsion [C]-CA--CB-[CG] |==|  0.39237
USER: genes 17 Torsion [CA]-CB--CG-[CD] |==|  0.75132
USER: genes 18 Torsion [CB]-CG--CD-[NE] |==|  0.79550
USER: genes 19 Torsion [CG]-CD--NE-[CZ] |==|  0.47607
USER: genes 20 Torsion [C]-CA--N-[C] |==|  0.76179
USER: genes 21 Torsion [N]-C--CA-[N] |==|  0.00059
USER: genes 22 Torsion [C]-CA--CB-[CG] |==|  0.50360
USER: genes 23 Torsion [CA]-CB--CG-[ND1] |==|  0.90305
USER: genes 24 Torsion [C]-CA--N-[C] |==|  0.75657
USER: genes 25 Torsion [N]-C--CA-[N] |==|  0.92543
USER: genes 26 Torsion [C]-CA--CB-[CG] |==|  0.87639
USER: genes 27 Torsion [CA]-CB--CG-[CD2] |==|  0.74202
USER: genes 28 Torsion [C]-CA--N-[C] |==|  0.82116
USER: genes 29 Torsion [N]-C--CA-[N] |==|  0.45225
USER: genes 30 Torsion [C]-CA--CB-[CG1] |==|  0.23839
USER: genes 31 Torsion [CA]-CB--CG1-[CD1] |==|  0.62820
ROOT
ATOM      1  CA  ARG D 692      12.532 -11.474  38.853  1.00 48.73 LIG 0.18  C 
ENDROOT
BRANCH 1 2
ATOM      2  C   ARG D 692      11.523 -12.495  38.353  1.00 46.10 LIG 0.24  C 
ATOM      3  N   LEU D 693      10.235 -12.163  38.388  1.00 50.64 LIG-0.35  N 
ATOM      4 H    LEU D 693       9.925 -11.407  38.655  1.00 50.64 LIG 0.16  HD
ATOM      5 O    ARG D 692      11.892 -13.619  38.018  1.00 52.04 LIG-0.27  OA
BRANCH 3 6
ATOM      6  CA  LEU D 693       9.233 -13.137  37.945  1.00 43.34 LIG 0.18  C 
BRANCH 6 7
ATOM      7  C   LEU D 693       9.013 -13.089  36.438  1.00 37.95 LIG 0.24  C 
ATOM      8  N   LEU D 694       9.118 -11.905  35.870  1.00 39.22 LIG-0.35  N 
ATOM      9 H    LEU D 694       9.253 -11.178  36.309  1.00 39.22 LIG 0.16  HD
ATOM     10 O    LEU D 693       8.725 -14.117  35.815  1.00 43.86 LIG-0.27  OA
BRANCH 8 11
ATOM     11  CA  LEU D 694       9.014 -11.720  34.447  1.00 38.59 LIG 0.18  C 
BRANCH 11 12
ATOM     12  C   LEU D 694       7.756 -12.369  33.969  1.00 46.22 LIG 0.24  C 
ATOM     13  N   GLN D 695       6.692 -12.140  34.717  1.00 66.87 LIG-0.35  N 
ATOM     14 H    GLN D 695       6.756 -11.722  35.465  1.00 66.87 LIG 0.16  HD
ATOM     15 O    LEU D 694       7.783 -13.086  33.003  1.00 54.70 LIG-0.27  OA
BRANCH 13 16
ATOM     16  CA  GLN D 695       5.305 -12.530  34.428  1.00 62.86 LIG 0.16  C 
BRANCH 16 17
ATOM     17  CB  GLN D 695       4.994 -13.877  35.022  1.00 63.26 LIG 0.04  C 
BRANCH 17 18
ATOM     18  CG  GLN D 695       5.503 -13.987  36.434  1.00 77.24 LIG 0.10  C 
BRANCH 18 19
ATOM     19  CD  GLN D 695       5.690 -15.385  36.864  1.00 84.08 LIG 0.21  C 
ATOM     20 OE1  GLN D 695       4.728 -16.106  37.043  1.00 83.40 LIG-0.27  OA
ATOM     21  NE2 GLN D 695       6.933 -15.797  37.019  1.00 79.17 LIG-0.37  N 
ATOM     22 22HE GLN D 695       7.091 -16.609  37.256  1.00 79.17 LIG 0.16  HD
ATOM     23 21HE GLN D 695       7.586 -15.255  36.883  1.00 79.17 LIG 0.16  HD
ENDBRANCH 18 19
ENDBRANCH 17 18
ENDBRANCH 16 17
BRANCH 16 24
ATOM     24  C   GLN D 695       4.221 -11.509  34.767  1.00 61.14 LIG 0.22  C 
ATOM     25 O    GLN D 695       4.475 -10.302  34.794  1.00 66.66 LIG-0.29  OA
ENDBRANCH 16 24
ENDBRANCH 13 16
ENDBRANCH 11 12
BRANCH 11 26
ATOM     26  CB  LEU D 694      10.171 -12.369  33.719  1.00 34.51 LIG 0.04  C 
BRANCH 26 27
ATOM     27  CG  LEU D 694      11.511 -11.680  33.655  1.00 27.71 LIG-0.02  C 
ATOM     28  CD2 LEU D 694      12.168 -11.540  34.995  1.00 26.48 LIG 0.01  C 
ATOM     29  CD1 LEU D 694      11.475 -10.377  32.909  1.00 27.00 LIG 0.01  C 
ENDBRANCH 26 27
ENDBRANCH 11 26
ENDBRANCH 8 11
ENDBRANCH 6 7
BRANCH 6 30
ATOM     30  CB  LEU D 693       7.899 -12.983  38.695  1.00 45.67 LIG 0.04  C 
BRANCH 30 31
ATOM     31  CG  LEU D 693       8.004 -12.738  40.209  1.00 55.29 LIG-0.02  C 
ATOM     32  CD1 LEU D 693       9.065 -13.635  40.832  1.00 47.80 LIG 0.01  C 
ATOM     33  CD2 LEU D 693       8.250 -11.259  40.543  1.00 51.02 LIG 0.01  C 
ENDBRANCH 30 31
ENDBRANCH 6 30
ENDBRANCH 3 6
ENDBRANCH 1 2
BRANCH 1 34
ATOM     34  CB  ARG D 692      13.948 -11.966  38.490  1.00 49.09 LIG 0.04  C 
BRANCH 34 35
ATOM     35  CG  ARG D 692      14.853 -10.799  38.050  1.00 50.62 LIG 0.02  C 
BRANCH 35 36
ATOM     36  CD  ARG D 692      14.816 -10.496  36.559  1.00 57.04 LIG 0.14  C 
BRANCH 36 37
ATOM     37  NE  ARG D 692      15.541 -11.525  35.837  1.00 60.90 LIG-0.23  N 
ATOM     38 HE   ARG D 692      15.988 -12.095  36.300  1.00 60.90 LIG 0.18  HD
ATOM     39  CZ  ARG D 692      15.563 -11.650  34.519  1.00 61.50 LIG 0.67  C 
ATOM     40  NH1 ARG D 692      14.966 -10.746  33.745  1.00 46.48 LIG-0.23  N 
ATOM     41  NH2 ARG D 692      16.228 -12.662  33.976  1.00 64.68 LIG-0.23  N 
ATOM     42 1HH1 ARG D 692      14.562 -10.075  34.102  1.00 46.48 LIG 0.17  HD
ATOM     43 2HH1 ARG D 692      14.985 -10.833  32.890  1.00 46.48 LIG 0.17  HD
ATOM     44 1HH2 ARG D 692      16.638 -13.227  34.478  1.00 64.68 LIG 0.17  HD
ATOM     45 2HH2 ARG D 692      16.250 -12.753  33.121  1.00 64.68 LIG 0.17  HD
ENDBRANCH 36 37
ENDBRANCH 35 36
ENDBRANCH 34 35
ENDBRANCH 1 34
BRANCH 1 46
ATOM     46  N   ARG D 692      12.410 -11.097  40.281  1.00 43.06 LIG-0.35  N 
ATOM     47  C   HIS D 691      11.589 -10.143  40.685  1.00 44.11 LIG 0.24  C 
ATOM     48 O    HIS D 691      10.901  -9.481  39.922  1.00 43.39 LIG-0.27  OA
ATOM     49 H    ARG D 692      12.916 -11.550  40.811  1.00 43.06 LIG 0.16  HD
BRANCH 47 50
ATOM     50  CA  HIS D 691      11.544  -9.922  42.148  1.00 41.80 LIG 0.18  C 
BRANCH 50 51
ATOM     51  CB  HIS D 691      11.997  -8.518  42.362  1.00 51.00 LIG 0.10  C 
BRANCH 51 52
ATOM     52  CG  HIS D 691      12.052  -8.107  43.775  1.00 57.86 LIG 0.06  A 
ATOM     53 ND1  HIS D 691      11.184  -8.539  44.673  1.00 60.60 LIG-0.24  NA
ATOM     54  CE1 HIS D 691      11.473  -8.002  45.855  1.00 72.50 LIG 0.23  A 
ATOM     55 NE2  HIS D 691      12.525  -7.202  45.703  1.00 67.35 LIG-0.25  NA
ATOM     56  CD2 HIS D 691      12.903  -7.240  44.433  1.00 66.29 LIG 0.14  A 
ENDBRANCH 51 52
ENDBRANCH 50 51
BRANCH 50 57
ATOM     57  N   HIS D 691      12.441 -10.822  42.839  1.00 39.94 LIG-0.35  N 
ATOM     58 H    HIS D 691      13.226 -10.497  42.971  1.00 39.94 LIG 0.16  HD
ATOM     59  C   LEU D 690      12.081 -12.034  43.229  1.00 35.88 LIG 0.24  C 
ATOM     60 O    LEU D 690      10.933 -12.496  43.056  1.00 34.66 LIG-0.27  OA
BRANCH 59 61
ATOM     61  CA  LEU D 690      13.157 -12.888  43.859  1.00 33.43 LIG 0.18  C 
BRANCH 61 62
ATOM     62  CB  LEU D 690      13.097 -12.756  45.381  1.00 31.34 LIG 0.04  C 
BRANCH 62 63
ATOM     63  CG  LEU D 690      12.929 -11.345  45.935  1.00 30.93 LIG-0.02  C 
ATOM     64  CD1 LEU D 690      12.101 -11.385  47.211  1.00 30.90 LIG 0.01  C 
ATOM     65  CD2 LEU D 690      14.290 -10.746  46.231  1.00 28.62 LIG 0.01  C 
ENDBRANCH 62 63
ENDBRANCH 61 62
BRANCH 61 66
ATOM     66  N   LEU D 690      14.487 -12.509  43.377  1.00 35.22 LIG-0.35  N 
ATOM     67 H    LEU D 690      15.008 -12.193  43.985  1.00 35.22 LIG 0.16  HD
ATOM     68  C   ILE D 689      14.837 -12.652  42.105  1.00 41.04 LIG 0.26  C 
ATOM     69 O    ILE D 689      14.088 -13.163  41.259  1.00 39.56 LIG-0.27  OA
BRANCH 68 70
ATOM     70  CA  ILE D 689      16.265 -12.190  41.746  1.00 40.35 LIG 0.40  C 
ATOM     71  N   ILE D 689      16.741 -12.748  40.419  1.00 40.45 LIG 0.61  N 
BRANCH 70 72
ATOM     72  CB  ILE D 689      16.273 -10.641  41.767  1.00 42.26 LIG 0.03  C 
ATOM     73  CG2 ILE D 689      14.968 -10.080  41.172  1.00 38.55 LIG 0.01  C 
BRANCH 72 74
ATOM     74  CG1 ILE D 689      16.528 -10.100  43.176  1.00 45.91 LIG 0.00  C 
ATOM     75  CD1 ILE D 689      15.588  -8.972  43.600  1.00 45.96 LIG 0.01  C 
ENDBRANCH 72 74
ENDBRANCH 70 72
ENDBRANCH 68 70
ENDBRANCH 61 66
ENDBRANCH 59 61
ENDBRANCH 50 57
ENDBRANCH 47 50
ENDBRANCH 1 46
TORSDOF 30
ENDMDL
MODEL 84
USER: ADFR SOLUTION from run 183
USER: SCORE 21.177949 LL:  -7.475 LR: -14.671 RR:   0.000 FEB:  -5.722
USER: RMSD 7.089598
USER: SEED 182
USER: STATUS no improvement in best in 17 clusters for 5 generations
USER: GENES 32
USER: genes 0 Translation |==|  0.58384 0.72048 0.36559
USER: genes 1 Rotation |==|  0.01871 0.49165 0.61408 0.57261
USER: genes 2 Torsion [N]-CA--C-[N] |==|  0.43373
USER: genes 3 Torsion [C]-N--CA-[C] |==|  0.17817
USER: genes 4 Torsion [N]-CA--C-[N] |==|  0.05070
USER: genes 5 Torsion [C]-N--CA-[C] |==|  0.75921
USER: genes 6 Torsion [N]-CA--C-[N] |==|  0.26190
USER: genes 7 Torsion [C]-N--CA-[CB] |==|  0.52346
USER: genes 8 Torsion [N]-CA--CB-[CG] |==|  0.74984
USER: genes 9 Torsion [CA]-CB--CG-[CD] |==|  0.84333
USER: genes 10 Torsion [CB]-CG--CD-[NE2] |==|  0.77624
USER: genes 11 Torsion [N]-CA--C-[O] |==|  0.28350
USER: genes 12 Torsion [N]-CA--CB-[CG] |==|  0.72249
USER: genes 13 Torsion [CA]-CB--CG-[CD2] |==|  0.44752
USER: genes 14 Torsion [N]-CA--CB-[CG] |==|  0.63499
USER: genes 15 Torsion [CA]-CB--CG-[CD1] |==|  0.65849
USER: genes 16 Torsion [C]-CA--CB-[CG] |==|  0.84908
USER: genes 17 Torsion [CA]-CB--CG-[CD] |==|  0.81811
USER: genes 18 Torsion [CB]-CG--CD-[NE] |==|  0.76744
USER: genes 19 Torsion [CG]-CD--NE-[CZ] |==|  0.33927
USER: genes 20 Torsion [C]-CA--N-[C] |==|  0.79662
USER: genes 21 Torsion [N]-C--CA-[N] |==|  0.91163
USER: genes 22 Torsion [C]-CA--CB-[CG] |==|  0.34665
USER: genes 23 Torsion [CA]-CB--CG-[ND1] |==|  0.81369
USER: genes 24 Torsion [C]-CA--N-[C] |==|  0.85450
USER: genes 25 Torsion [N]-C--CA-[N] |==|  0.14922
USER: genes 26 Torsion [C]-CA--CB-[CG] |==|  0.22475
USER: genes 27 Torsion [CA]-CB--CG-[CD2] |==|  0.66799
USER: genes 28 Torsion [C]-CA--N-[C] |==|  0.72962
USER: genes 29 Torsion [N]-C--CA-[N] |==|  0.53920
USER: genes 30 Torsion [C]-CA--CB-[CG1] |==|  0.84304
USER: genes 31 Torsion [CA]-CB--CG1-[CD1] |==|  0.36687
ROOT
ATOM      1  CA  ARG D 692      11.489 -10.868  36.298  1.00 48.73 LIG 0.18  C 
ENDROOT
BRANCH 1 2
ATOM      2  C   ARG D 692      10.276 -11.783  36.311  1.00 46.10 LIG 0.24  C 
ATOM      3  N   LEU D 693       9.085 -11.238  36.079  1.00 50.64 LIG-0.35  N 
ATOM      4 H    LEU D 693       8.945 -10.408  35.903  1.00 50.64 LIG 0.16  HD
ATOM      5 O    ARG D 692      10.396 -12.968  36.617  1.00 52.04 LIG-0.27  OA
BRANCH 3 6
ATOM      6  CA  LEU D 693       7.890 -12.087  36.117  1.00 43.34 LIG 0.18  C 
BRANCH 6 7
ATOM      7  C   LEU D 693       7.642 -12.667  37.503  1.00 37.95 LIG 0.24  C 
ATOM      8  N   LEU D 694       8.253 -12.067  38.505  1.00 39.22 LIG-0.35  N 
ATOM      9 H    LEU D 694       8.804 -11.415  38.404  1.00 39.22 LIG 0.16  HD
ATOM     10 O    LEU D 693       6.925 -13.664  37.644  1.00 43.86 LIG-0.27  OA
BRANCH 8 11
ATOM     11  CA  LEU D 694       8.050 -12.456  39.876  1.00 38.59 LIG 0.18  C 
BRANCH 11 12
ATOM     12  C   LEU D 694       6.862 -11.726  40.412  1.00 46.22 LIG 0.24  C 
ATOM     13  N   GLN D 695       5.721 -12.386  40.333  1.00 66.87 LIG-0.35  N 
ATOM     14 H    GLN D 695       5.671 -13.139  39.921  1.00 66.87 LIG 0.16  HD
ATOM     15 O    LEU D 694       6.985 -10.600  40.816  1.00 54.70 LIG-0.27  OA
BRANCH 13 16
ATOM     16  CA  GLN D 695       4.424 -11.983  40.893  1.00 62.86 LIG 0.16  C 
BRANCH 16 17
ATOM     17  CB  GLN D 695       3.418 -13.095  40.767  1.00 63.26 LIG 0.04  C 
BRANCH 17 18
ATOM     18  CG  GLN D 695       2.661 -13.008  39.469  1.00 77.24 LIG 0.10  C 
BRANCH 18 19
ATOM     19  CD  GLN D 695       1.986 -11.710  39.291  1.00 84.08 LIG 0.21  C 
ATOM     20 OE1  GLN D 695       2.478 -10.853  38.583  1.00 83.40 LIG-0.27  OA
ATOM     21  NE2 GLN D 695       0.834 -11.549  39.914  1.00 79.17 LIG-0.37  N 
ATOM     22 22HE GLN D 695       0.398 -10.813  39.829  1.00 79.17 LIG 0.16  HD
ATOM     23 21HE GLN D 695       0.520 -12.181  40.406  1.00 79.17 LIG 0.16  HD
ENDBRANCH 18 19
ENDBRANCH 17 18
ENDBRANCH 16 17
BRANCH 16 24
ATOM     24  C   GLN D 695       4.438 -11.404  42.306  1.00 61.14 LIG 0.22  C 
ATOM     25 O    GLN D 695       4.351 -10.187  42.492  1.00 66.66 LIG-0.29  OA
ENDBRANCH 16 24
ENDBRANCH 13 16
ENDBRANCH 11 12
BRANCH 11 26
ATOM     26  CB  LEU D 694       9.240 -12.090  40.736  1.00 34.51 LIG 0.04  C 
BRANCH 26 27
ATOM     27  CG  LEU D 694      10.265 -13.136  41.102  1.00 27.71 LIG-0.02  C 
ATOM     28  CD2 LEU D 694      11.570 -12.552  41.552  1.00 26.48 LIG 0.01  C 
ATOM     29  CD1 LEU D 694      10.453 -14.180  40.039  1.00 27.00 LIG 0.01  C 
ENDBRANCH 26 27
ENDBRANCH 11 26
ENDBRANCH 8 11
ENDBRANCH 6 7
BRANCH 6 30
ATOM     30  CB  LEU D 693       7.936 -13.203  35.059  1.00 45.67 LIG 0.04  C 
BRANCH 30 31
ATOM     31  CG  LEU D 693       6.674 -13.365  34.198  1.00 55.29 LIG-0.02  C 
ATOM     32  CD1 LEU D 693       6.119 -14.779  34.308  1.00 47.80 LIG 0.01  C 
ATOM     33  CD2 LEU D 693       5.605 -12.313  34.527  1.00 51.02 LIG 0.01  C 
ENDBRANCH 30 31
ENDBRANCH 6 30
ENDBRANCH 3 6
ENDBRANCH 1 2
BRANCH 1 34
ATOM     34  CB  ARG D 692      11.840 -10.539  34.832  1.00 49.09 LIG 0.04  C 
BRANCH 34 35
ATOM     35  CG  ARG D 692      12.028 -11.821  33.998  1.00 50.62 LIG 0.02  C 
BRANCH 35 36
ATOM     36  CD  ARG D 692      13.217 -12.677  34.409  1.00 57.04 LIG 0.14  C 
BRANCH 36 37
ATOM     37  NE  ARG D 692      14.420 -12.169  33.778  1.00 60.90 LIG-0.23  N 
ATOM     38 HE   ARG D 692      14.431 -12.125  32.919  1.00 60.90 LIG 0.18  HD
ATOM     39  CZ  ARG D 692      15.504 -11.770  34.426  1.00 61.50 LIG 0.67  C 
ATOM     40  NH1 ARG D 692      15.584 -11.900  35.749  1.00 46.48 LIG-0.23  N 
ATOM     41  NH2 ARG D 692      16.528 -11.283  33.738  1.00 64.68 LIG-0.23  N 
ATOM     42 1HH1 ARG D 692      14.929 -12.245  36.188  1.00 46.48 LIG 0.17  HD
ATOM     43 2HH1 ARG D 692      16.290 -11.639  36.165  1.00 46.48 LIG 0.17  HD
ATOM     44 1HH2 ARG D 692      16.484 -11.229  32.881  1.00 64.68 LIG 0.17  HD
ATOM     45 2HH2 ARG D 692      17.237 -11.021  34.149  1.00 64.68 LIG 0.17  HD
ENDBRANCH 36 37
ENDBRANCH 35 36
ENDBRANCH 34 35
ENDBRANCH 1 34
BRANCH 1 46
ATOM     46  N   ARG D 692      12.663 -11.345  37.068  1.00 43.06 LIG-0.35  N 
ATOM     47  C   HIS D 691      12.682 -11.335  38.390  1.00 44.11 LIG 0.24  C 
ATOM     48 O    HIS D 691      11.764 -10.904  39.072  1.00 43.39 LIG-0.27  OA
ATOM     49 H    ARG D 692      13.315 -11.624  36.581  1.00 43.06 LIG 0.16  HD
BRANCH 47 50
ATOM     50  CA  HIS D 691      13.905 -11.893  39.010  1.00 41.80 LIG 0.18  C 
BRANCH 50 51
ATOM     51  CB  HIS D 691      14.875 -10.764  39.086  1.00 51.00 LIG 0.10  C 
BRANCH 51 52
ATOM     52  CG  HIS D 691      15.400 -10.505  40.437  1.00 57.86 LIG 0.06  A 
ATOM     53 ND1  HIS D 691      14.638 -10.054  41.419  1.00 60.60 LIG-0.24  NA
ATOM     54  CE1 HIS D 691      15.377  -9.911  42.515  1.00 72.50 LIG 0.23  A 
ATOM     55 NE2  HIS D 691      16.628 -10.254  42.223  1.00 67.35 LIG-0.25  NA
ATOM     56  CD2 HIS D 691      16.678 -10.620  40.950  1.00 66.29 LIG 0.14  A 
ENDBRANCH 51 52
ENDBRANCH 50 51
BRANCH 50 57
ATOM     57  N   HIS D 691      14.466 -12.950  38.197  1.00 39.94 LIG-0.35  N 
ATOM     58 H    HIS D 691      15.300 -12.843  38.016  1.00 39.94 LIG 0.16  HD
ATOM     59  C   LEU D 690      13.756 -13.983  37.773  1.00 35.88 LIG 0.24  C 
ATOM     60 O    LEU D 690      12.550 -14.146  38.056  1.00 34.66 LIG-0.27  OA
BRANCH 59 61
ATOM     61  CA  LEU D 690      14.462 -14.957  36.859  1.00 33.43 LIG 0.18  C 
BRANCH 61 62
ATOM     62  CB  LEU D 690      13.540 -16.138  36.553  1.00 31.34 LIG 0.04  C 
BRANCH 62 63
ATOM     63  CG  LEU D 690      12.492 -15.920  35.467  1.00 30.93 LIG-0.02  C 
ATOM     64  CD1 LEU D 690      12.702 -16.915  34.336  1.00 30.90 LIG 0.01  C 
ATOM     65  CD2 LEU D 690      11.105 -16.100  36.053  1.00 28.62 LIG 0.01  C 
ENDBRANCH 62 63
ENDBRANCH 61 62
BRANCH 61 66
ATOM     66  N   LEU D 690      15.709 -15.439  37.455  1.00 35.22 LIG-0.35  N 
ATOM     67 H    LEU D 690      15.610 -16.088  38.010  1.00 35.22 LIG 0.16  HD
ATOM     68  C   ILE D 689      16.884 -14.902  37.148  1.00 41.04 LIG 0.26  C 
ATOM     69 O    ILE D 689      17.008 -14.004  36.302  1.00 39.56 LIG-0.27  OA
BRANCH 68 70
ATOM     70  CA  ILE D 689      18.107 -15.503  37.872  1.00 40.35 LIG 0.40  C 
ATOM     71  N   ILE D 689      19.344 -14.638  37.741  1.00 40.45 LIG 0.61  N 
BRANCH 70 72
ATOM     72  CB  ILE D 689      17.706 -15.733  39.350  1.00 42.26 LIG 0.03  C 
ATOM     73  CG2 ILE D 689      18.866 -16.369  40.139  1.00 38.55 LIG 0.01  C 
BRANCH 72 74
ATOM     74  CG1 ILE D 689      17.220 -14.439  40.009  1.00 45.91 LIG 0.00  C 
ATOM     75  CD1 ILE D 689      15.910 -14.577  40.784  1.00 45.96 LIG 0.01  C 
ENDBRANCH 72 74
ENDBRANCH 70 72
ENDBRANCH 68 70
ENDBRANCH 61 66
ENDBRANCH 59 61
ENDBRANCH 50 57
ENDBRANCH 47 50
ENDBRANCH 1 46
TORSDOF 30
ENDMDL
MODEL 85
USER: ADFR SOLUTION from run 65
USER: SCORE 21.191260 LL:  -7.705 LR: -14.662 RR:   0.000 FEB:  -5.713
USER: RMSD 7.471610
USER: SEED 64
USER: STATUS searching
USER: GENES 32
USER: genes 0 Translation |==|  0.55706 0.69037 0.45234
USER: genes 1 Rotation |==|  0.95925 0.37872 0.65400 0.52570
USER: genes 2 Torsion [N]-CA--C-[N] |==|  0.51564
USER: genes 3 Torsion [C]-N--CA-[C] |==|  0.79950
USER: genes 4 Torsion [N]-CA--C-[N] |==|  0.99240
USER: genes 5 Torsion [C]-N--CA-[C] |==|  0.77791
USER: genes 6 Torsion [N]-CA--C-[N] |==|  0.00482
USER: genes 7 Torsion [C]-N--CA-[CB] |==|  0.55918
USER: genes 8 Torsion [N]-CA--CB-[CG] |==|  0.24432
USER: genes 9 Torsion [CA]-CB--CG-[CD] |==|  0.74745
USER: genes 10 Torsion [CB]-CG--CD-[NE2] |==|  0.35094
USER: genes 11 Torsion [N]-CA--C-[O] |==|  0.88764
USER: genes 12 Torsion [N]-CA--CB-[CG] |==|  0.80647
USER: genes 13 Torsion [CA]-CB--CG-[CD2] |==|  0.17868
USER: genes 14 Torsion [N]-CA--CB-[CG] |==|  0.92509
USER: genes 15 Torsion [CA]-CB--CG-[CD1] |==|  0.88447
USER: genes 16 Torsion [C]-CA--CB-[CG] |==|  0.33395
USER: genes 17 Torsion [CA]-CB--CG-[CD] |==|  0.64795
USER: genes 18 Torsion [CB]-CG--CD-[NE] |==|  0.71528
USER: genes 19 Torsion [CG]-CD--NE-[CZ] |==|  0.46618
USER: genes 20 Torsion [C]-CA--N-[C] |==|  0.56321
USER: genes 21 Torsion [N]-C--CA-[N] |==|  0.33174
USER: genes 22 Torsion [C]-CA--CB-[CG] |==|  0.75178
USER: genes 23 Torsion [CA]-CB--CG-[ND1] |==|  0.72349
USER: genes 24 Torsion [C]-CA--N-[C] |==|  0.79484
USER: genes 25 Torsion [N]-C--CA-[N] |==|  0.82332
USER: genes 26 Torsion [C]-CA--CB-[CG] |==|  0.78561
USER: genes 27 Torsion [CA]-CB--CG-[CD2] |==|  0.73459
USER: genes 28 Torsion [C]-CA--N-[C] |==|  0.78889
USER: genes 29 Torsion [N]-C--CA-[N] |==|  0.44592
USER: genes 30 Torsion [C]-CA--CB-[CG1] |==|  0.21758
USER: genes 31 Torsion [CA]-CB--CG1-[CD1] |==|  0.11356
ROOT
ATOM      1  CA  ARG D 692      10.887 -11.433  37.990  1.00 48.73 LIG 0.18  C 
ENDROOT
BRANCH 1 2
ATOM      2  C   ARG D 692       9.783 -11.813  37.017  1.00 46.10 LIG 0.24  C 
ATOM      3  N   LEU D 693      10.076 -11.822  35.719  1.00 50.64 LIG-0.35  N 
ATOM      4 H    LEU D 693      10.848 -11.647  35.384  1.00 50.64 LIG 0.16  HD
ATOM      5 O    ARG D 692       8.639 -12.013  37.423  1.00 52.04 LIG-0.27  OA
BRANCH 3 6
ATOM      6  CA  LEU D 693       9.025 -12.152  34.751  1.00 43.34 LIG 0.18  C 
BRANCH 6 7
ATOM      7  C   LEU D 693       8.663 -13.631  34.779  1.00 37.95 LIG 0.24  C 
ATOM      8  N   LEU D 694       9.362 -14.388  35.601  1.00 39.22 LIG-0.35  N 
ATOM      9 H    LEU D 694      10.022 -14.098  36.068  1.00 39.22 LIG 0.16  HD
ATOM     10 O    LEU D 693       7.777 -14.072  34.039  1.00 43.86 LIG-0.27  OA
BRANCH 8 11
ATOM     11  CA  LEU D 694       9.079 -15.786  35.791  1.00 38.59 LIG 0.18  C 
BRANCH 11 12
ATOM     12  C   LEU D 694       7.924 -15.920  36.729  1.00 46.22 LIG 0.24  C 
ATOM     13  N   GLN D 695       7.405 -14.777  37.140  1.00 66.87 LIG-0.35  N 
ATOM     14 H    GLN D 695       7.773 -14.026  36.942  1.00 66.87 LIG 0.16  HD
ATOM     15 O    LEU D 694       7.576 -17.011  37.097  1.00 54.70 LIG-0.27  OA
BRANCH 13 16
ATOM     16  CA  GLN D 695       6.194 -14.595  37.950  1.00 62.86 LIG 0.16  C 
BRANCH 16 17
ATOM     17  CB  GLN D 695       5.642 -13.205  37.784  1.00 63.26 LIG 0.04  C 
BRANCH 17 18
ATOM     18  CG  GLN D 695       4.694 -13.125  36.617  1.00 77.24 LIG 0.10  C 
BRANCH 18 19
ATOM     19  CD  GLN D 695       5.370 -12.761  35.359  1.00 84.08 LIG 0.21  C 
ATOM     20 OE1  GLN D 695       6.075 -11.772  35.304  1.00 83.40 LIG-0.27  OA
ATOM     21  NE2 GLN D 695       5.181 -13.565  34.330  1.00 79.17 LIG-0.37  N 
ATOM     22 22HE GLN D 695       5.566 -13.399  33.579  1.00 79.17 LIG 0.16  HD
ATOM     23 21HE GLN D 695       4.674 -14.254  34.410  1.00 79.17 LIG 0.16  HD
ENDBRANCH 18 19
ENDBRANCH 17 18
ENDBRANCH 16 17
BRANCH 16 24
ATOM     24  C   GLN D 695       5.099 -15.649  37.793  1.00 61.14 LIG 0.22  C 
ATOM     25 O    GLN D 695       4.817 -16.108  36.683  1.00 66.66 LIG-0.29  OA
ENDBRANCH 16 24
ENDBRANCH 13 16
ENDBRANCH 11 12
BRANCH 11 26
ATOM     26  CB  LEU D 694      10.257 -16.511  36.406  1.00 34.51 LIG 0.04  C 
BRANCH 26 27
ATOM     27  CG  LEU D 694      11.518 -16.726  35.607  1.00 27.71 LIG-0.02  C 
ATOM     28  CD2 LEU D 694      12.213 -15.449  35.243  1.00 26.48 LIG 0.01  C 
ATOM     29  CD1 LEU D 694      11.321 -17.617  34.414  1.00 27.00 LIG 0.01  C 
ENDBRANCH 26 27
ENDBRANCH 11 26
ENDBRANCH 8 11
ENDBRANCH 6 7
BRANCH 6 30
ATOM     30  CB  LEU D 693       9.389 -11.707  33.324  1.00 45.67 LIG 0.04  C 
BRANCH 30 31
ATOM     31  CG  LEU D 693      10.349 -10.512  33.217  1.00 55.29 LIG-0.02  C 
ATOM     32  CD1 LEU D 693       9.997  -9.439  34.237  1.00 47.80 LIG 0.01  C 
ATOM     33  CD2 LEU D 693      11.821 -10.937  33.330  1.00 51.02 LIG 0.01  C 
ENDBRANCH 30 31
ENDBRANCH 6 30
ENDBRANCH 3 6
ENDBRANCH 1 2
BRANCH 1 34
ATOM     34  CB  ARG D 692      12.164 -12.211  37.610  1.00 49.09 LIG 0.04  C 
BRANCH 34 35
ATOM     35  CG  ARG D 692      13.324 -11.255  37.270  1.00 50.62 LIG 0.02  C 
BRANCH 35 36
ATOM     36  CD  ARG D 692      13.979 -11.508  35.920  1.00 57.04 LIG 0.14  C 
BRANCH 36 37
ATOM     37  NE  ARG D 692      15.237 -12.205  36.114  1.00 60.90 LIG-0.23  N 
ATOM     38 HE   ARG D 692      15.547 -12.250  36.915  1.00 60.90 LIG 0.18  HD
ATOM     39  CZ  ARG D 692      15.942 -12.776  35.149  1.00 61.50 LIG 0.67  C 
ATOM     40  NH1 ARG D 692      15.562 -12.661  33.878  1.00 46.48 LIG-0.23  N 
ATOM     41  NH2 ARG D 692      17.058 -13.423  35.459  1.00 64.68 LIG-0.23  N 
ATOM     42 1HH1 ARG D 692      14.854 -12.214  33.680  1.00 46.48 LIG 0.17  HD
ATOM     43 2HH1 ARG D 692      16.024 -13.034  33.256  1.00 46.48 LIG 0.17  HD
ATOM     44 1HH2 ARG D 692      17.316 -13.469  36.278  1.00 64.68 LIG 0.17  HD
ATOM     45 2HH2 ARG D 692      17.523 -13.797  34.840  1.00 64.68 LIG 0.17  HD
ENDBRANCH 36 37
ENDBRANCH 35 36
ENDBRANCH 34 35
ENDBRANCH 1 34
BRANCH 1 46
ATOM     46  N   ARG D 692      10.549 -11.562  39.427  1.00 43.06 LIG-0.35  N 
ATOM     47  C   HIS D 691      11.194 -10.883  40.360  1.00 44.11 LIG 0.24  C 
ATOM     48 O    HIS D 691      12.129 -10.133  40.120  1.00 43.39 LIG-0.27  OA
ATOM     49 H    ARG D 692       9.907 -12.111  39.591  1.00 43.06 LIG 0.16  HD
BRANCH 47 50
ATOM     50  CA  HIS D 691      10.703 -11.083  41.743  1.00 41.80 LIG 0.18  C 
BRANCH 50 51
ATOM     51  CB  HIS D 691      10.325  -9.729  42.240  1.00 51.00 LIG 0.10  C 
BRANCH 51 52
ATOM     52  CG  HIS D 691      11.421  -8.997  42.897  1.00 57.86 LIG 0.06  A 
ATOM     53 ND1  HIS D 691      11.546  -8.938  44.211  1.00 60.60 LIG-0.24  NA
ATOM     54  CE1 HIS D 691      12.615  -8.210  44.518  1.00 72.50 LIG 0.23  A 
ATOM     55 NE2  HIS D 691      13.167  -7.782  43.385  1.00 67.35 LIG-0.25  NA
ATOM     56  CD2 HIS D 691      12.452  -8.245  42.368  1.00 66.29 LIG 0.14  A 
ENDBRANCH 51 52
ENDBRANCH 50 51
BRANCH 50 57
ATOM     57  N   HIS D 691      11.740 -11.630  42.589  1.00 39.94 LIG-0.35  N 
ATOM     58 H    HIS D 691      12.073 -11.061  43.142  1.00 39.94 LIG 0.16  HD
ATOM     59  C   LEU D 690      12.136 -12.890  42.516  1.00 35.88 LIG 0.24  C 
ATOM     60 O    LEU D 690      11.634 -13.720  41.727  1.00 34.66 LIG-0.27  OA
BRANCH 59 61
ATOM     61  CA  LEU D 690      13.290 -13.288  43.406  1.00 33.43 LIG 0.18  C 
BRANCH 61 62
ATOM     62  CB  LEU D 690      12.933 -13.017  44.868  1.00 31.34 LIG 0.04  C 
BRANCH 62 63
ATOM     63  CG  LEU D 690      13.006 -11.566  45.329  1.00 30.93 LIG-0.02  C 
ATOM     64  CD1 LEU D 690      11.894 -11.282  46.327  1.00 30.90 LIG 0.01  C 
ATOM     65  CD2 LEU D 690      14.352 -11.302  45.977  1.00 28.62 LIG 0.01  C 
ENDBRANCH 62 63
ENDBRANCH 61 62
BRANCH 61 66
ATOM     66  N   LEU D 690      14.512 -12.564  43.049  1.00 35.22 LIG-0.35  N 
ATOM     67 H    LEU D 690      14.716 -11.926  43.588  1.00 35.22 LIG 0.16  HD
ATOM     68  C   ILE D 689      15.227 -12.884  41.977  1.00 41.04 LIG 0.26  C 
ATOM     69 O    ILE D 689      14.942 -13.845  41.246  1.00 39.56 LIG-0.27  OA
BRANCH 68 70
ATOM     70  CA  ILE D 689      16.477 -12.017  41.721  1.00 40.35 LIG 0.40  C 
ATOM     71  N   ILE D 689      17.477 -12.695  40.806  1.00 40.45 LIG 0.61  N 
BRANCH 70 72
ATOM     72  CB  ILE D 689      15.994 -10.658  41.158  1.00 42.26 LIG 0.03  C 
ATOM     73  CG2 ILE D 689      14.950 -10.867  40.045  1.00 38.55 LIG 0.01  C 
BRANCH 72 74
ATOM     74  CG1 ILE D 689      15.460  -9.747  42.267  1.00 45.91 LIG 0.00  C 
ATOM     75  CD1 ILE D 689      16.282  -9.772  43.556  1.00 45.96 LIG 0.01  C 
ENDBRANCH 72 74
ENDBRANCH 70 72
ENDBRANCH 68 70
ENDBRANCH 61 66
ENDBRANCH 59 61
ENDBRANCH 50 57
ENDBRANCH 47 50
ENDBRANCH 1 46
TORSDOF 30
ENDMDL
MODEL 86
USER: ADFR SOLUTION from run 20
USER: SCORE 20.785150 LL:  -7.355 LR: -14.649 RR:   0.000 FEB:  -5.700
USER: RMSD 6.517005
USER: SEED 19
USER: STATUS no improvement in best in 35 clusters for 5 generations
USER: GENES 32
USER: genes 0 Translation |==|  0.53661 0.68882 0.32579
USER: genes 1 Rotation |==|  0.99791 0.54323 0.51461 0.50168
USER: genes 2 Torsion [N]-CA--C-[N] |==|  0.92183
USER: genes 3 Torsion [C]-N--CA-[C] |==|  0.81533
USER: genes 4 Torsion [N]-CA--C-[N] |==|  0.96424
USER: genes 5 Torsion [C]-N--CA-[C] |==|  0.18840
USER: genes 6 Torsion [N]-CA--C-[N] |==|  0.49439
USER: genes 7 Torsion [C]-N--CA-[CB] |==|  0.51144
USER: genes 8 Torsion [N]-CA--CB-[CG] |==|  0.86295
USER: genes 9 Torsion [CA]-CB--CG-[CD] |==|  0.31186
USER: genes 10 Torsion [CB]-CG--CD-[NE2] |==|  0.19445
USER: genes 11 Torsion [N]-CA--C-[O] |==|  0.99867
USER: genes 12 Torsion [N]-CA--CB-[CG] |==|  0.85349
USER: genes 13 Torsion [CA]-CB--CG-[CD2] |==|  0.65330
USER: genes 14 Torsion [N]-CA--CB-[CG] |==|  0.95595
USER: genes 15 Torsion [CA]-CB--CG-[CD1] |==|  0.37956
USER: genes 16 Torsion [C]-CA--CB-[CG] |==|  0.85735
USER: genes 17 Torsion [CA]-CB--CG-[CD] |==|  0.73301
USER: genes 18 Torsion [CB]-CG--CD-[NE] |==|  0.77052
USER: genes 19 Torsion [CG]-CD--NE-[CZ] |==|  0.38211
USER: genes 20 Torsion [C]-CA--N-[C] |==|  0.85556
USER: genes 21 Torsion [N]-C--CA-[N] |==|  0.42839
USER: genes 22 Torsion [C]-CA--CB-[CG] |==|  0.78331
USER: genes 23 Torsion [CA]-CB--CG-[ND1] |==|  0.22321
USER: genes 24 Torsion [C]-CA--N-[C] |==|  0.67942
USER: genes 25 Torsion [N]-C--CA-[N] |==|  0.44513
USER: genes 26 Torsion [C]-CA--CB-[CG] |==|  0.30854
USER: genes 27 Torsion [CA]-CB--CG-[CD2] |==|  0.12270
USER: genes 28 Torsion [C]-CA--N-[C] |==|  0.81021
USER: genes 29 Torsion [N]-C--CA-[N] |==|  0.40481
USER: genes 30 Torsion [C]-CA--CB-[CG1] |==|  0.29221
USER: genes 31 Torsion [CA]-CB--CG1-[CD1] |==|  0.50727
ROOT
ATOM      1  CA  ARG D 692      10.427 -11.462  35.522  1.00 48.73 LIG 0.18  C 
ENDROOT
BRANCH 1 2
ATOM      2  C   ARG D 692       9.438 -12.566  35.186  1.00 46.10 LIG 0.24  C 
ATOM      3  N   LEU D 693       9.601 -13.746  35.779  1.00 50.64 LIG-0.35  N 
ATOM      4 H    LEU D 693      10.213 -13.932  36.354  1.00 50.64 LIG 0.16  HD
ATOM      5 O    ARG D 692       8.578 -12.388  34.325  1.00 52.04 LIG-0.27  OA
BRANCH 3 6
ATOM      6  CA  LEU D 693       8.685 -14.843  35.452  1.00 43.34 LIG 0.18  C 
BRANCH 6 7
ATOM      7  C   LEU D 693       7.264 -14.564  35.924  1.00 37.95 LIG 0.24  C 
ATOM      8  N   LEU D 694       7.113 -13.555  36.758  1.00 39.22 LIG-0.35  N 
ATOM      9 H    LEU D 694       7.769 -13.096  37.071  1.00 39.22 LIG 0.16  HD
ATOM     10 O    LEU D 693       6.329 -15.280  35.550  1.00 43.86 LIG-0.27  OA
BRANCH 8 11
ATOM     11  CA  LEU D 694       5.821 -13.126  37.224  1.00 38.59 LIG 0.18  C 
BRANCH 11 12
ATOM     12  C   LEU D 694       5.250 -14.191  38.103  1.00 46.22 LIG 0.24  C 
ATOM     13  N   GLN D 695       4.076 -13.904  38.635  1.00 66.87 LIG-0.35  N 
ATOM     14 H    GLN D 695       3.725 -13.125  38.543  1.00 66.87 LIG 0.16  HD
ATOM     15 O    LEU D 694       5.885 -15.189  38.323  1.00 54.70 LIG-0.27  OA
BRANCH 13 16
ATOM     16  CA  GLN D 695       3.218 -14.798  39.424  1.00 62.86 LIG 0.16  C 
BRANCH 16 17
ATOM     17  CB  GLN D 695       1.916 -14.127  39.765  1.00 63.26 LIG 0.04  C 
BRANCH 17 18
ATOM     18  CG  GLN D 695       2.138 -12.754  40.340  1.00 77.24 LIG 0.10  C 
BRANCH 18 19
ATOM     19  CD  GLN D 695       1.663 -11.680  39.448  1.00 84.08 LIG 0.21  C 
ATOM     20 OE1  GLN D 695       2.458 -10.963  38.873  1.00 83.40 LIG-0.27  OA
ATOM     21  NE2 GLN D 695       0.357 -11.564  39.302  1.00 79.17 LIG-0.37  N 
ATOM     22 22HE GLN D 695       0.035 -10.961  38.781  1.00 79.17 LIG 0.16  HD
ATOM     23 21HE GLN D 695      -0.171 -12.092  39.728  1.00 79.17 LIG 0.16  HD
ENDBRANCH 18 19
ENDBRANCH 17 18
ENDBRANCH 16 17
BRANCH 16 24
ATOM     24  C   GLN D 695       2.991 -16.200  38.863  1.00 61.14 LIG 0.22  C 
ATOM     25 O    GLN D 695       3.502 -16.545  37.794  1.00 66.66 LIG-0.29  OA
ENDBRANCH 16 24
ENDBRANCH 13 16
ENDBRANCH 11 12
BRANCH 11 26
ATOM     26  CB  LEU D 694       4.859 -12.916  36.074  1.00 34.51 LIG 0.04  C 
BRANCH 26 27
ATOM     27  CG  LEU D 694       5.244 -12.031  34.914  1.00 27.71 LIG-0.02  C 
ATOM     28  CD2 LEU D 694       4.255 -10.934  34.655  1.00 26.48 LIG 0.01  C 
ATOM     29  CD1 LEU D 694       5.574 -12.796  33.665  1.00 27.00 LIG 0.01  C 
ENDBRANCH 26 27
ENDBRANCH 11 26
ENDBRANCH 8 11
ENDBRANCH 6 7
BRANCH 6 30
ATOM     30  CB  LEU D 693       9.182 -16.196  35.991  1.00 45.67 LIG 0.04  C 
BRANCH 30 31
ATOM     31  CG  LEU D 693      10.659 -16.249  36.413  1.00 55.29 LIG-0.02  C 
ATOM     32  CD1 LEU D 693      10.820 -16.993  37.732  1.00 47.80 LIG 0.01  C 
ATOM     33  CD2 LEU D 693      11.556 -16.843  35.318  1.00 51.02 LIG 0.01  C 
ENDBRANCH 30 31
ENDBRANCH 6 30
ENDBRANCH 3 6
ENDBRANCH 1 2
BRANCH 1 34
ATOM     34  CB  ARG D 692      11.479 -11.387  34.396  1.00 49.09 LIG 0.04  C 
BRANCH 34 35
ATOM     35  CG  ARG D 692      12.092 -12.771  34.107  1.00 50.62 LIG 0.02  C 
BRANCH 35 36
ATOM     36  CD  ARG D 692      13.410 -13.042  34.816  1.00 57.04 LIG 0.14  C 
BRANCH 36 37
ATOM     37  NE  ARG D 692      14.498 -12.451  34.061  1.00 60.90 LIG-0.23  N 
ATOM     38 HE   ARG D 692      14.482 -12.538  33.205  1.00 60.90 LIG 0.18  HD
ATOM     39  CZ  ARG D 692      15.514 -11.786  34.591  1.00 61.50 LIG 0.67  C 
ATOM     40  NH1 ARG D 692      15.643 -11.696  35.913  1.00 46.48 LIG-0.23  N 
ATOM     41  NH2 ARG D 692      16.427 -11.252  33.791  1.00 64.68 LIG-0.23  N 
ATOM     42 1HH1 ARG D 692      15.064 -12.070  36.428  1.00 46.48 LIG 0.17  HD
ATOM     43 2HH1 ARG D 692      16.305 -11.264  36.251  1.00 46.48 LIG 0.17  HD
ATOM     44 1HH2 ARG D 692      16.355 -11.338  32.938  1.00 64.68 LIG 0.17  HD
ATOM     45 2HH2 ARG D 692      17.090 -10.818  34.124  1.00 64.68 LIG 0.17  HD
ENDBRANCH 36 37
ENDBRANCH 35 36
ENDBRANCH 34 35
ENDBRANCH 1 34
BRANCH 1 46
ATOM     46  N   ARG D 692      11.042 -11.537  36.868  1.00 43.06 LIG-0.35  N 
ATOM     47  C   HIS D 691      10.311 -11.657  37.964  1.00 44.11 LIG 0.24  C 
ATOM     48 O    HIS D 691       9.089 -11.677  37.958  1.00 43.39 LIG-0.27  OA
ATOM     49 H    ARG D 692      11.901 -11.497  36.868  1.00 43.06 LIG 0.16  HD
BRANCH 47 50
ATOM     50  CA  HIS D 691      11.076 -11.773  39.226  1.00 41.80 LIG 0.18  C 
BRANCH 50 51
ATOM     51  CB  HIS D 691      11.364 -13.225  39.396  1.00 51.00 LIG 0.10  C 
BRANCH 51 52
ATOM     52  CG  HIS D 691      10.226 -14.016  39.893  1.00 57.86 LIG 0.06  A 
ATOM     53 ND1  HIS D 691       9.250 -14.427  39.103  1.00 60.60 LIG-0.24  NA
ATOM     54  CE1 HIS D 691       8.363 -15.110  39.821  1.00 72.50 LIG 0.23  A 
ATOM     55 NE2  HIS D 691       8.768 -15.116  41.087  1.00 67.35 LIG-0.25  NA
ATOM     56  CD2 HIS D 691       9.910 -14.446  41.167  1.00 66.29 LIG 0.14  A 
ENDBRANCH 51 52
ENDBRANCH 50 51
BRANCH 50 57
ATOM     57  N   HIS D 691      10.298 -11.306  40.352  1.00 39.94 LIG-0.35  N 
ATOM     58 H    HIS D 691       9.597 -11.780  40.510  1.00 39.94 LIG 0.16  HD
ATOM     59  C   LEU D 690      10.636 -10.247  41.069  1.00 35.88 LIG 0.24  C 
ATOM     60 O    LEU D 690      11.666  -9.574  40.851  1.00 34.66 LIG-0.27  OA
BRANCH 59 61
ATOM     61  CA  LEU D 690       9.673  -9.833  42.158  1.00 33.43 LIG 0.18  C 
BRANCH 61 62
ATOM     62  CB  LEU D 690       8.487  -9.089  41.543  1.00 31.34 LIG 0.04  C 
BRANCH 62 63
ATOM     63  CG  LEU D 690       7.140  -9.802  41.583  1.00 30.93 LIG-0.02  C 
ATOM     64  CD1 LEU D 690       7.097 -10.889  40.520  1.00 30.90 LIG 0.01  C 
ATOM     65  CD2 LEU D 690       6.930 -10.420  42.952  1.00 28.62 LIG 0.01  C 
ENDBRANCH 62 63
ENDBRANCH 61 62
BRANCH 61 66
ATOM     66  N   LEU D 690      10.330  -8.988  43.156  1.00 35.22 LIG-0.35  N 
ATOM     67 H    LEU D 690      10.061  -8.171  43.161  1.00 35.22 LIG 0.16  HD
ATOM     68  C   ILE D 689      11.260  -9.465  43.974  1.00 41.04 LIG 0.26  C 
ATOM     69 O    ILE D 689      11.591 -10.660  43.986  1.00 39.56 LIG-0.27  OA
BRANCH 68 70
ATOM     70  CA  ILE D 689      11.874  -8.447  44.959  1.00 40.35 LIG 0.40  C 
ATOM     71  N   ILE D 689      12.227  -9.070  46.295  1.00 40.45 LIG 0.61  N 
BRANCH 70 72
ATOM     72  CB  ILE D 689      13.104  -7.812  44.265  1.00 42.26 LIG 0.03  C 
ATOM     73  CG2 ILE D 689      13.597  -8.699  43.106  1.00 38.55 LIG 0.01  C 
BRANCH 72 74
ATOM     74  CG1 ILE D 689      12.811  -6.385  43.795  1.00 45.91 LIG 0.00  C 
ATOM     75  CD1 ILE D 689      13.962  -5.717  43.044  1.00 45.96 LIG 0.01  C 
ENDBRANCH 72 74
ENDBRANCH 70 72
ENDBRANCH 68 70
ENDBRANCH 61 66
ENDBRANCH 59 61
ENDBRANCH 50 57
ENDBRANCH 47 50
ENDBRANCH 1 46
TORSDOF 30
ENDMDL
MODEL 87
USER: ADFR SOLUTION from run 34
USER: SCORE 21.006035 LL:  -7.668 LR: -14.649 RR:   0.000 FEB:  -5.700
USER: RMSD 7.007515
USER: SEED 33
USER: STATUS searching
USER: GENES 32
USER: genes 0 Translation |==|  0.70791 0.73377 0.38030
USER: genes 1 Rotation |==|  0.01974 0.61113 0.49708 0.58362
USER: genes 2 Torsion [N]-CA--C-[N] |==|  0.88128
USER: genes 3 Torsion [C]-N--CA-[C] |==|  0.58105
USER: genes 4 Torsion [N]-CA--C-[N] |==|  0.25098
USER: genes 5 Torsion [C]-N--CA-[C] |==|  0.82554
USER: genes 6 Torsion [N]-CA--C-[N] |==|  0.90594
USER: genes 7 Torsion [C]-N--CA-[CB] |==|  0.29886
USER: genes 8 Torsion [N]-CA--CB-[CG] |==|  0.96042
USER: genes 9 Torsion [CA]-CB--CG-[CD] |==|  0.77443
USER: genes 10 Torsion [CB]-CG--CD-[NE2] |==|  0.51088
USER: genes 11 Torsion [N]-CA--C-[O] |==|  0.08477
USER: genes 12 Torsion [N]-CA--CB-[CG] |==|  0.04990
USER: genes 13 Torsion [CA]-CB--CG-[CD2] |==|  0.76511
USER: genes 14 Torsion [N]-CA--CB-[CG] |==|  0.70686
USER: genes 15 Torsion [CA]-CB--CG-[CD1] |==|  0.95747
USER: genes 16 Torsion [C]-CA--CB-[CG] |==|  0.88644
USER: genes 17 Torsion [CA]-CB--CG-[CD] |==|  0.70063
USER: genes 18 Torsion [CB]-CG--CD-[NE] |==|  0.10741
USER: genes 19 Torsion [CG]-CD--NE-[CZ] |==|  0.46333
USER: genes 20 Torsion [C]-CA--N-[C] |==|  0.85260
USER: genes 21 Torsion [N]-C--CA-[N] |==|  0.33343
USER: genes 22 Torsion [C]-CA--CB-[CG] |==|  0.19473
USER: genes 23 Torsion [CA]-CB--CG-[ND1] |==|  0.01518
USER: genes 24 Torsion [C]-CA--N-[C] |==|  0.84993
USER: genes 25 Torsion [N]-C--CA-[N] |==|  0.82861
USER: genes 26 Torsion [C]-CA--CB-[CG] |==|  0.28591
USER: genes 27 Torsion [CA]-CB--CG-[CD2] |==|  0.18758
USER: genes 28 Torsion [C]-CA--N-[C] |==|  0.67340
USER: genes 29 Torsion [N]-C--CA-[N] |==|  0.60137
USER: genes 30 Torsion [C]-CA--CB-[CG1] |==|  0.80763
USER: genes 31 Torsion [CA]-CB--CG1-[CD1] |==|  0.65038
ROOT
ATOM      1  CA  ARG D 692      14.281 -10.619  36.585  1.00 48.73 LIG 0.18  C 
ENDROOT
BRANCH 1 2
ATOM      2  C   ARG D 692      12.851 -10.795  36.100  1.00 46.10 LIG 0.24  C 
ATOM      3  N   LEU D 693      12.385 -12.036  35.983  1.00 50.64 LIG-0.35  N 
ATOM      4 H    LEU D 693      12.822 -12.750  36.177  1.00 50.64 LIG 0.16  HD
ATOM      5 O    ARG D 692      12.192  -9.820  35.744  1.00 52.04 LIG-0.27  OA
BRANCH 3 6
ATOM      6  CA  LEU D 693      11.021 -12.243  35.486  1.00 43.34 LIG 0.18  C 
BRANCH 6 7
ATOM      7  C   LEU D 693      10.393 -13.513  36.045  1.00 37.95 LIG 0.24  C 
ATOM      8  N   LEU D 694       9.720 -13.386  37.170  1.00 39.22 LIG-0.35  N 
ATOM      9 H    LEU D 694       9.665 -12.649  37.610  1.00 39.22 LIG 0.16  HD
ATOM     10 O    LEU D 693      10.549 -14.594  35.466  1.00 43.86 LIG-0.27  OA
BRANCH 8 11
ATOM     11  CA  LEU D 694       9.009 -14.483  37.772  1.00 38.59 LIG 0.18  C 
BRANCH 11 12
ATOM     12  C   LEU D 694       7.929 -14.925  36.839  1.00 46.22 LIG 0.24  C 
ATOM     13  N   GLN D 695       7.379 -13.959  36.126  1.00 66.87 LIG-0.35  N 
ATOM     14 H    GLN D 695       7.578 -13.135  36.267  1.00 66.87 LIG 0.16  HD
ATOM     15 O    LEU D 694       7.586 -16.078  36.825  1.00 54.70 LIG-0.27  OA
BRANCH 13 16
ATOM     16  CA  GLN D 695       6.398 -14.106  35.043  1.00 62.86 LIG 0.16  C 
BRANCH 16 17
ATOM     17  CB  GLN D 695       5.036 -13.649  35.488  1.00 63.26 LIG 0.04  C 
BRANCH 17 18
ATOM     18  CG  GLN D 695       4.968 -13.498  36.984  1.00 77.24 LIG 0.10  C 
BRANCH 18 19
ATOM     19  CD  GLN D 695       4.747 -14.782  37.676  1.00 84.08 LIG 0.21  C 
ATOM     20 OE1  GLN D 695       4.729 -15.823  37.048  1.00 83.40 LIG-0.27  OA
ATOM     21  NE2 GLN D 695       4.595 -14.732  38.985  1.00 79.17 LIG-0.37  N 
ATOM     22 22HE GLN D 695       4.477 -15.457  39.432  1.00 79.17 LIG 0.16  HD
ATOM     23 21HE GLN D 695       4.614 -13.975  39.392  1.00 79.17 LIG 0.16  HD
ENDBRANCH 18 19
ENDBRANCH 17 18
ENDBRANCH 16 17
BRANCH 16 24
ATOM     24  C   GLN D 695       6.773 -13.501  33.692  1.00 61.14 LIG 0.22  C 
ATOM     25 O    GLN D 695       7.953 -13.430  33.335  1.00 66.66 LIG-0.29  OA
ENDBRANCH 16 24
ENDBRANCH 13 16
ENDBRANCH 11 12
BRANCH 11 26
ATOM     26  CB  LEU D 694       8.352 -14.070  39.072  1.00 34.51 LIG 0.04  C 
BRANCH 26 27
ATOM     27  CG  LEU D 694       8.137 -12.609  39.384  1.00 27.71 LIG-0.02  C 
ATOM     28  CD2 LEU D 694       9.338 -11.953  39.997  1.00 26.48 LIG 0.01  C 
ATOM     29  CD1 LEU D 694       6.889 -12.347  40.175  1.00 27.00 LIG 0.01  C 
ENDBRANCH 26 27
ENDBRANCH 11 26
ENDBRANCH 8 11
ENDBRANCH 6 7
BRANCH 6 30
ATOM     30  CB  LEU D 693      10.954 -12.232  33.949  1.00 45.67 LIG 0.04  C 
BRANCH 30 31
ATOM     31  CG  LEU D 693      10.353 -10.969  33.312  1.00 55.29 LIG-0.02  C 
ATOM     32  CD1 LEU D 693       9.605 -10.141  34.347  1.00 47.80 LIG 0.01  C 
ATOM     33  CD2 LEU D 693      11.409 -10.131  32.575  1.00 51.02 LIG 0.01  C 
ENDBRANCH 30 31
ENDBRANCH 6 30
ENDBRANCH 3 6
ENDBRANCH 1 2
BRANCH 1 34
ATOM     34  CB  ARG D 692      15.228 -10.742  35.373  1.00 49.09 LIG 0.04  C 
BRANCH 34 35
ATOM     35  CG  ARG D 692      14.785 -11.875  34.426  1.00 50.62 LIG 0.02  C 
BRANCH 35 36
ATOM     36  CD  ARG D 692      15.675 -13.108  34.453  1.00 57.04 LIG 0.14  C 
BRANCH 36 37
ATOM     37  NE  ARG D 692      16.103 -13.368  35.814  1.00 60.90 LIG-0.23  N 
ATOM     38 HE   ARG D 692      15.978 -12.748  36.396  1.00 60.90 LIG 0.18  HD
ATOM     39  CZ  ARG D 692      16.673 -14.491  36.227  1.00 61.50 LIG 0.67  C 
ATOM     40  NH1 ARG D 692      16.977 -15.452  35.356  1.00 46.48 LIG-0.23  N 
ATOM     41  NH2 ARG D 692      16.981 -14.627  37.510  1.00 64.68 LIG-0.23  N 
ATOM     42 1HH1 ARG D 692      16.802 -15.345  34.521  1.00 46.48 LIG 0.17  HD
ATOM     43 2HH1 ARG D 692      17.347 -16.178  35.630  1.00 46.48 LIG 0.17  HD
ATOM     44 1HH2 ARG D 692      16.811 -13.992  38.063  1.00 64.68 LIG 0.17  HD
ATOM     45 2HH2 ARG D 692      17.351 -15.352  37.788  1.00 64.68 LIG 0.17  HD
ENDBRANCH 36 37
ENDBRANCH 35 36
ENDBRANCH 34 35
ENDBRANCH 1 34
BRANCH 1 46
ATOM     46  N   ARG D 692      14.689 -11.488  37.714  1.00 43.06 LIG-0.35  N 
ATOM     47  C   HIS D 691      13.992 -11.549  38.836  1.00 44.11 LIG 0.24  C 
ATOM     48 O    HIS D 691      12.992 -10.877  39.043  1.00 43.39 LIG-0.27  OA
ATOM     49 H    ARG D 692      15.407 -11.940  37.571  1.00 43.06 LIG 0.16  HD
BRANCH 47 50
ATOM     50  CA  HIS D 691      14.500 -12.504  39.847  1.00 41.80 LIG 0.18  C 
BRANCH 50 51
ATOM     51  CB  HIS D 691      13.383 -13.457  40.104  1.00 51.00 LIG 0.10  C 
BRANCH 51 52
ATOM     52  CG  HIS D 691      13.096 -14.371  38.985  1.00 57.86 LIG 0.06  A 
ATOM     53 ND1  HIS D 691      13.841 -14.413  37.895  1.00 60.60 LIG-0.24  NA
ATOM     54  CE1 HIS D 691      13.346 -15.321  37.059  1.00 72.50 LIG 0.23  A 
ATOM     55 NE2  HIS D 691      12.259 -15.849  37.615  1.00 67.35 LIG-0.25  NA
ATOM     56  CD2 HIS D 691      12.074 -15.282  38.800  1.00 66.29 LIG 0.14  A 
ENDBRANCH 51 52
ENDBRANCH 50 51
BRANCH 50 57
ATOM     57  N   HIS D 691      14.841 -11.827  41.078  1.00 39.94 LIG-0.35  N 
ATOM     58 H    HIS D 691      14.458 -12.156  41.774  1.00 39.94 LIG 0.16  HD
ATOM     59  C   LEU D 690      15.668 -10.794  41.124  1.00 35.88 LIG 0.24  C 
ATOM     60 O    LEU D 690      16.240 -10.331  40.114  1.00 34.66 LIG-0.27  OA
BRANCH 59 61
ATOM     61  CA  LEU D 690      15.854 -10.138  42.472  1.00 33.43 LIG 0.18  C 
BRANCH 61 62
ATOM     62  CB  LEU D 690      16.414 -11.155  43.468  1.00 31.34 LIG 0.04  C 
BRANCH 62 63
ATOM     63  CG  LEU D 690      17.901 -11.046  43.788  1.00 30.93 LIG-0.02  C 
ATOM     64  CD1 LEU D 690      18.711 -11.053  42.501  1.00 30.90 LIG 0.01  C 
ATOM     65  CD2 LEU D 690      18.167  -9.762  44.550  1.00 28.62 LIG 0.01  C 
ENDBRANCH 62 63
ENDBRANCH 61 62
BRANCH 61 66
ATOM     66  N   LEU D 690      14.595  -9.588  42.976  1.00 35.22 LIG-0.35  N 
ATOM     67 H    LEU D 690      13.981 -10.175  43.113  1.00 35.22 LIG 0.16  HD
ATOM     68  C   ILE D 689      14.437  -8.289  43.196  1.00 41.04 LIG 0.26  C 
ATOM     69 O    ILE D 689      15.355  -7.469  43.044  1.00 39.56 LIG-0.27  OA
BRANCH 68 70
ATOM     70  CA  ILE D 689      13.046  -7.858  43.708  1.00 40.35 LIG 0.40  C 
ATOM     71  N   ILE D 689      12.606  -6.523  43.142  1.00 40.45 LIG 0.61  N 
BRANCH 70 72
ATOM     72  CB  ILE D 689      12.052  -8.996  43.367  1.00 42.26 LIG 0.03  C 
ATOM     73  CG2 ILE D 689      10.732  -8.818  44.141  1.00 38.55 LIG 0.01  C 
BRANCH 72 74
ATOM     74  CG1 ILE D 689      11.811  -9.099  41.859  1.00 45.91 LIG 0.00  C 
ATOM     75  CD1 ILE D 689      10.340  -9.039  41.448  1.00 45.96 LIG 0.01  C 
ENDBRANCH 72 74
ENDBRANCH 70 72
ENDBRANCH 68 70
ENDBRANCH 61 66
ENDBRANCH 59 61
ENDBRANCH 50 57
ENDBRANCH 47 50
ENDBRANCH 1 46
TORSDOF 30
ENDMDL
MODEL 88
USER: ADFR SOLUTION from run 146
USER: SCORE 21.050542 LL:  -7.365 LR: -14.646 RR:   0.000 FEB:  -5.697
USER: RMSD 7.391934
USER: SEED 145
USER: STATUS no improvement in best in 14 clusters for 5 generations
USER: GENES 32
USER: genes 0 Translation |==|  0.52132 0.64137 0.32057
USER: genes 1 Rotation |==|  0.11861 0.64947 0.67473 0.72731
USER: genes 2 Torsion [N]-CA--C-[N] |==|  0.95906
USER: genes 3 Torsion [C]-N--CA-[C] |==|  0.68887
USER: genes 4 Torsion [N]-CA--C-[N] |==|  0.11476
USER: genes 5 Torsion [C]-N--CA-[C] |==|  0.81153
USER: genes 6 Torsion [N]-CA--C-[N] |==|  0.93321
USER: genes 7 Torsion [C]-N--CA-[CB] |==|  0.36917
USER: genes 8 Torsion [N]-CA--CB-[CG] |==|  0.89036
USER: genes 9 Torsion [CA]-CB--CG-[CD] |==|  0.38429
USER: genes 10 Torsion [CB]-CG--CD-[NE2] |==|  0.09286
USER: genes 11 Torsion [N]-CA--C-[O] |==|  0.66578
USER: genes 12 Torsion [N]-CA--CB-[CG] |==|  0.13339
USER: genes 13 Torsion [CA]-CB--CG-[CD2] |==|  0.77583
USER: genes 14 Torsion [N]-CA--CB-[CG] |==|  0.77647
USER: genes 15 Torsion [CA]-CB--CG-[CD1] |==|  0.84793
USER: genes 16 Torsion [C]-CA--CB-[CG] |==|  0.51646
USER: genes 17 Torsion [CA]-CB--CG-[CD] |==|  0.81088
USER: genes 18 Torsion [CB]-CG--CD-[NE] |==|  0.49481
USER: genes 19 Torsion [CG]-CD--NE-[CZ] |==|  0.57529
USER: genes 20 Torsion [C]-CA--N-[C] |==|  0.66454
USER: genes 21 Torsion [N]-C--CA-[N] |==|  0.34609
USER: genes 22 Torsion [C]-CA--CB-[CG] |==|  0.21727
USER: genes 23 Torsion [CA]-CB--CG-[ND1] |==|  0.49091
USER: genes 24 Torsion [C]-CA--N-[C] |==|  0.86423
USER: genes 25 Torsion [N]-C--CA-[N] |==|  0.45018
USER: genes 26 Torsion [C]-CA--CB-[CG] |==|  0.22231
USER: genes 27 Torsion [CA]-CB--CG-[CD2] |==|  0.07937
USER: genes 28 Torsion [C]-CA--N-[C] |==|  0.61434
USER: genes 29 Torsion [N]-C--CA-[N] |==|  0.36427
USER: genes 30 Torsion [C]-CA--CB-[CG1] |==|  0.15615
USER: genes 31 Torsion [CA]-CB--CG1-[CD1] |==|  0.69357
ROOT
ATOM      1  CA  ARG D 692      10.083 -12.351  35.420  1.00 48.73 LIG 0.18  C 
ENDROOT
BRANCH 1 2
ATOM      2  C   ARG D 692       8.621 -12.309  35.833  1.00 46.10 LIG 0.24  C 
ATOM      3  N   LEU D 693       7.907 -13.424  35.704  1.00 50.64 LIG-0.35  N 
ATOM      4 H    LEU D 693       8.210 -14.177  35.422  1.00 50.64 LIG 0.16  HD
ATOM      5 O    ARG D 692       8.106 -11.249  36.185  1.00 52.04 LIG-0.27  OA
BRANCH 3 6
ATOM      6  CA  LEU D 693       6.485 -13.409  36.062  1.00 43.34 LIG 0.18  C 
BRANCH 6 7
ATOM      7  C   LEU D 693       6.195 -14.250  37.297  1.00 37.95 LIG 0.24  C 
ATOM      8  N   LEU D 694       7.065 -14.160  38.283  1.00 39.22 LIG-0.35  N 
ATOM      9 H    LEU D 694       7.788 -13.697  38.238  1.00 39.22 LIG 0.16  HD
ATOM     10 O    LEU D 693       5.206 -14.990  37.332  1.00 43.86 LIG-0.27  OA
BRANCH 8 11
ATOM     11  CA  LEU D 694       6.879 -14.836  39.540  1.00 38.59 LIG 0.18  C 
BRANCH 11 12
ATOM     12  C   LEU D 694       5.718 -14.219  40.250  1.00 46.22 LIG 0.24  C 
ATOM     13  N   GLN D 695       5.446 -12.976  39.898  1.00 66.87 LIG-0.35  N 
ATOM     14 H    GLN D 695       5.963 -12.542  39.366  1.00 66.87 LIG 0.16  HD
ATOM     15 O    LEU D 694       5.149 -14.836  41.113  1.00 54.70 LIG-0.27  OA
BRANCH 13 16
ATOM     16  CA  GLN D 695       4.295 -12.167  40.322  1.00 62.86 LIG 0.16  C 
BRANCH 16 17
ATOM     17  CB  GLN D 695       4.735 -10.795  40.754  1.00 63.26 LIG 0.04  C 
BRANCH 17 18
ATOM     18  CG  GLN D 695       6.023 -10.849  41.531  1.00 77.24 LIG 0.10  C 
BRANCH 18 19
ATOM     19  CD  GLN D 695       6.955  -9.768  41.163  1.00 84.08 LIG 0.21  C 
ATOM     20 OE1  GLN D 695       8.155  -9.963  41.166  1.00 83.40 LIG-0.27  OA
ATOM     21  NE2 GLN D 695       6.418  -8.613  40.820  1.00 79.17 LIG-0.37  N 
ATOM     22 22HE GLN D 695       6.922  -7.957  40.585  1.00 79.17 LIG 0.16  HD
ATOM     23 21HE GLN D 695       5.564  -8.515  40.831  1.00 79.17 LIG 0.16  HD
ENDBRANCH 18 19
ENDBRANCH 17 18
ENDBRANCH 16 17
BRANCH 16 24
ATOM     24  C   GLN D 695       3.116 -12.094  39.354  1.00 61.14 LIG 0.22  C 
ATOM     25 O    GLN D 695       2.737 -11.011  38.899  1.00 66.66 LIG-0.29  OA
ENDBRANCH 16 24
ENDBRANCH 13 16
ENDBRANCH 11 12
BRANCH 11 26
ATOM     26  CB  LEU D 694       8.093 -14.688  40.432  1.00 34.51 LIG 0.04  C 
BRANCH 26 27
ATOM     27  CG  LEU D 694       8.721 -13.333  40.642  1.00 27.71 LIG-0.02  C 
ATOM     28  CD2 LEU D 694       9.626 -12.920  39.520  1.00 26.48 LIG 0.01  C 
ATOM     29  CD1 LEU D 694       9.385 -13.185  41.981  1.00 27.00 LIG 0.01  C 
ENDBRANCH 26 27
ENDBRANCH 11 26
ENDBRANCH 8 11
ENDBRANCH 6 7
BRANCH 6 30
ATOM     30  CB  LEU D 693       5.586 -13.835  34.889  1.00 45.67 LIG 0.04  C 
BRANCH 30 31
ATOM     31  CG  LEU D 693       5.290 -12.751  33.840  1.00 55.29 LIG-0.02  C 
ATOM     32  CD1 LEU D 693       4.704 -11.507  34.495  1.00 47.80 LIG 0.01  C 
ATOM     33  CD2 LEU D 693       6.523 -12.412  32.990  1.00 51.02 LIG 0.01  C 
ENDBRANCH 30 31
ENDBRANCH 6 30
ENDBRANCH 3 6
ENDBRANCH 1 2
BRANCH 1 34
ATOM     34  CB  ARG D 692      10.267 -11.455  34.177  1.00 49.09 LIG 0.04  C 
BRANCH 34 35
ATOM     35  CG  ARG D 692      11.698 -11.565  33.613  1.00 50.62 LIG 0.02  C 
BRANCH 35 36
ATOM     36  CD  ARG D 692      12.779 -10.977  34.508  1.00 57.04 LIG 0.14  C 
BRANCH 36 37
ATOM     37  NE  ARG D 692      14.078 -11.179  33.895  1.00 60.90 LIG-0.23  N 
ATOM     38 HE   ARG D 692      14.108 -11.241  33.037  1.00 60.90 LIG 0.18  HD
ATOM     39  CZ  ARG D 692      15.221 -11.274  34.557  1.00 61.50 LIG 0.67  C 
ATOM     40  NH1 ARG D 692      15.230 -11.277  35.889  1.00 46.48 LIG-0.23  N 
ATOM     41  NH2 ARG D 692      16.353 -11.414  33.880  1.00 64.68 LIG-0.23  N 
ATOM     42 1HH1 ARG D 692      14.489 -11.216  36.324  1.00 46.48 LIG 0.17  HD
ATOM     43 2HH1 ARG D 692      15.975 -11.340  36.314  1.00 46.48 LIG 0.17  HD
ATOM     44 1HH2 ARG D 692      16.340 -11.442  33.021  1.00 64.68 LIG 0.17  HD
ATOM     45 2HH2 ARG D 692      17.101 -11.477  34.300  1.00 64.68 LIG 0.17  HD
ENDBRANCH 36 37
ENDBRANCH 35 36
ENDBRANCH 34 35
ENDBRANCH 1 34
BRANCH 1 46
ATOM     46  N   ARG D 692      10.659 -13.704  35.234  1.00 43.06 LIG-0.35  N 
ATOM     47  C   HIS D 691      11.698 -14.123  35.937  1.00 44.11 LIG 0.24  C 
ATOM     48 O    HIS D 691      12.280 -13.428  36.756  1.00 43.39 LIG-0.27  OA
ATOM     49 H    ARG D 692      10.260 -14.180  34.638  1.00 43.06 LIG 0.16  HD
BRANCH 47 50
ATOM     50  CA  HIS D 691      12.121 -15.517  35.672  1.00 41.80 LIG 0.18  C 
BRANCH 50 51
ATOM     51  CB  HIS D 691      11.926 -16.252  36.954  1.00 51.00 LIG 0.10  C 
BRANCH 51 52
ATOM     52  CG  HIS D 691      10.529 -16.626  37.233  1.00 57.86 LIG 0.06  A 
ATOM     53 ND1  HIS D 691      10.184 -17.336  38.293  1.00 60.60 LIG-0.24  NA
ATOM     54  CE1 HIS D 691       8.868 -17.524  38.285  1.00 72.50 LIG 0.23  A 
ATOM     55 NE2  HIS D 691       8.371 -16.945  37.195  1.00 67.35 LIG-0.25  NA
ATOM     56  CD2 HIS D 691       9.369 -16.387  36.523  1.00 66.29 LIG 0.14  A 
ENDBRANCH 51 52
ENDBRANCH 50 51
BRANCH 50 57
ATOM     57  N   HIS D 691      13.516 -15.575  35.296  1.00 39.94 LIG-0.35  N 
ATOM     58 H    HIS D 691      13.968 -16.166  35.728  1.00 39.94 LIG 0.16  HD
ATOM     59  C   LEU D 690      14.044 -14.790  34.371  1.00 35.88 LIG 0.24  C 
ATOM     60 O    LEU D 690      13.380 -13.948  33.729  1.00 34.66 LIG-0.27  OA
BRANCH 59 61
ATOM     61  CA  LEU D 690      15.535 -14.909  34.154  1.00 33.43 LIG 0.18  C 
BRANCH 61 62
ATOM     62  CB  LEU D 690      16.280 -14.208  35.291  1.00 31.34 LIG 0.04  C 
BRANCH 62 63
ATOM     63  CG  LEU D 690      16.415 -14.983  36.596  1.00 30.93 LIG-0.02  C 
ATOM     64  CD1 LEU D 690      15.256 -14.647  37.522  1.00 30.90 LIG 0.01  C 
ATOM     65  CD2 LEU D 690      16.422 -16.472  36.308  1.00 28.62 LIG 0.01  C 
ENDBRANCH 62 63
ENDBRANCH 61 62
BRANCH 61 66
ATOM     66  N   LEU D 690      15.933 -14.336  32.868  1.00 35.22 LIG-0.35  N 
ATOM     67 H    LEU D 690      15.537 -13.598  32.671  1.00 35.22 LIG 0.16  HD
ATOM     68  C   ILE D 689      16.832 -14.924  32.088  1.00 41.04 LIG 0.26  C 
ATOM     69 O    ILE D 689      17.430 -15.958  32.420  1.00 39.56 LIG-0.27  OA
BRANCH 68 70
ATOM     70  CA  ILE D 689      17.133 -14.209  30.754  1.00 40.35 LIG 0.40  C 
ATOM     71  N   ILE D 689      18.620 -14.047  30.503  1.00 40.45 LIG 0.61  N 
BRANCH 70 72
ATOM     72  CB  ILE D 689      16.433 -15.009  29.628  1.00 42.26 LIG 0.03  C 
ATOM     73  CG2 ILE D 689      17.106 -16.380  29.432  1.00 38.55 LIG 0.01  C 
BRANCH 72 74
ATOM     74  CG1 ILE D 689      14.931 -15.152  29.891  1.00 45.91 LIG 0.00  C 
ATOM     75  CD1 ILE D 689      14.482 -16.571  30.241  1.00 45.96 LIG 0.01  C 
ENDBRANCH 72 74
ENDBRANCH 70 72
ENDBRANCH 68 70
ENDBRANCH 61 66
ENDBRANCH 59 61
ENDBRANCH 50 57
ENDBRANCH 47 50
ENDBRANCH 1 46
TORSDOF 30
ENDMDL
MODEL 89
USER: ADFR SOLUTION from run 22
USER: SCORE 21.873301 LL:  -8.021 LR: -14.651 RR:   0.000 FEB:  -5.702
USER: RMSD 6.670777
USER: SEED 21
USER: STATUS 1 or 2 clusters left
USER: GENES 32
USER: genes 0 Translation |==|  0.50203 0.65650 0.37658
USER: genes 1 Rotation |==|  0.04217 0.61340 0.56001 0.65470
USER: genes 2 Torsion [N]-CA--C-[N] |==|  0.04042
USER: genes 3 Torsion [C]-N--CA-[C] |==|  0.61777
USER: genes 4 Torsion [N]-CA--C-[N] |==|  0.13137
USER: genes 5 Torsion [C]-N--CA-[C] |==|  0.80831
USER: genes 6 Torsion [N]-CA--C-[N] |==|  0.39444
USER: genes 7 Torsion [C]-N--CA-[CB] |==|  0.72767
USER: genes 8 Torsion [N]-CA--CB-[CG] |==|  0.95397
USER: genes 9 Torsion [CA]-CB--CG-[CD] |==|  0.34780
USER: genes 10 Torsion [CB]-CG--CD-[NE2] |==|  0.13488
USER: genes 11 Torsion [N]-CA--C-[O] |==|  0.77598
USER: genes 12 Torsion [N]-CA--CB-[CG] |==|  0.08567
USER: genes 13 Torsion [CA]-CB--CG-[CD2] |==|  0.66287
USER: genes 14 Torsion [N]-CA--CB-[CG] |==|  0.77498
USER: genes 15 Torsion [CA]-CB--CG-[CD1] |==|  0.88896
USER: genes 16 Torsion [C]-CA--CB-[CG] |==|  0.54352
USER: genes 17 Torsion [CA]-CB--CG-[CD] |==|  0.63248
USER: genes 18 Torsion [CB]-CG--CD-[NE] |==|  0.59591
USER: genes 19 Torsion [CG]-CD--NE-[CZ] |==|  0.74232
USER: genes 20 Torsion [C]-CA--N-[C] |==|  0.16151
USER: genes 21 Torsion [N]-C--CA-[N] |==|  0.93756
USER: genes 22 Torsion [C]-CA--CB-[CG] |==|  0.83662
USER: genes 23 Torsion [CA]-CB--CG-[ND1] |==|  0.84941
USER: genes 24 Torsion [C]-CA--N-[C] |==|  0.81548
USER: genes 25 Torsion [N]-C--CA-[N] |==|  0.41096
USER: genes 26 Torsion [C]-CA--CB-[CG] |==|  0.17386
USER: genes 27 Torsion [CA]-CB--CG-[CD2] |==|  0.61628
USER: genes 28 Torsion [C]-CA--N-[C] |==|  0.81376
USER: genes 29 Torsion [N]-C--CA-[N] |==|  0.46511
USER: genes 30 Torsion [C]-CA--CB-[CG1] |==|  0.91292
USER: genes 31 Torsion [CA]-CB--CG1-[CD1] |==|  0.61268
ROOT
ATOM      1  CA  ARG D 692       9.649 -12.068  36.512  1.00 48.73 LIG 0.18  C 
ENDROOT
BRANCH 1 2
ATOM      2  C   ARG D 692       8.153 -12.136  36.252  1.00 46.10 LIG 0.24  C 
ATOM      3  N   LEU D 693       7.454 -13.069  36.894  1.00 50.64 LIG-0.35  N 
ATOM      4 H    LEU D 693       7.777 -13.628  37.461  1.00 50.64 LIG 0.16  HD
ATOM      5 O    ARG D 692       7.636 -11.408  35.406  1.00 52.04 LIG-0.27  OA
BRANCH 3 6
ATOM      6  CA  LEU D 693       6.014 -13.184  36.641  1.00 43.34 LIG 0.18  C 
BRANCH 6 7
ATOM      7  C   LEU D 693       5.222 -13.405  37.923  1.00 37.95 LIG 0.24  C 
ATOM      8  N   LEU D 694       5.512 -12.611  38.933  1.00 39.22 LIG-0.35  N 
ATOM      9 H    LEU D 694       6.142 -12.026  38.912  1.00 39.22 LIG 0.16  HD
ATOM     10 O    LEU D 693       4.380 -14.307  37.989  1.00 43.86 LIG-0.27  OA
BRANCH 8 11
ATOM     11  CA  LEU D 694       4.792 -12.652  40.178  1.00 38.59 LIG 0.18  C 
BRANCH 11 12
ATOM     12  C   LEU D 694       3.408 -12.137  39.950  1.00 46.22 LIG 0.24  C 
ATOM     13  N   GLN D 695       2.461 -12.768  40.621  1.00 66.87 LIG-0.35  N 
ATOM     14 H    GLN D 695       2.637 -13.474  41.079  1.00 66.87 LIG 0.16  HD
ATOM     15 O    LEU D 694       3.222 -11.253  39.156  1.00 54.70 LIG-0.27  OA
BRANCH 13 16
ATOM     16  CA  GLN D 695       1.040 -12.405  40.701  1.00 62.86 LIG 0.16  C 
BRANCH 16 17
ATOM     17  CB  GLN D 695       0.754 -11.637  41.962  1.00 63.26 LIG 0.04  C 
BRANCH 17 18
ATOM     18  CG  GLN D 695       1.866 -11.792  42.966  1.00 77.24 LIG 0.10  C 
BRANCH 18 19
ATOM     19  CD  GLN D 695       2.407 -10.498  43.419  1.00 84.08 LIG 0.21  C 
ATOM     20 OE1  GLN D 695       3.606 -10.300  43.419  1.00 83.40 LIG-0.27  OA
ATOM     21  NE2 GLN D 695       1.530  -9.587  43.795  1.00 79.17 LIG-0.37  N 
ATOM     22 22HE GLN D 695       1.800  -8.813  44.055  1.00 79.17 LIG 0.16  HD
ATOM     23 21HE GLN D 695       0.690  -9.767  43.781  1.00 79.17 LIG 0.16  HD
ENDBRANCH 18 19
ENDBRANCH 17 18
ENDBRANCH 16 17
BRANCH 16 24
ATOM     24  C   GLN D 695       0.441 -11.711  39.480  1.00 61.14 LIG 0.22  C 
ATOM     25 O    GLN D 695       0.604 -10.502  39.294  1.00 66.66 LIG-0.29  OA
ENDBRANCH 16 24
ENDBRANCH 13 16
ENDBRANCH 11 12
BRANCH 11 26
ATOM     26  CB  LEU D 694       5.442 -11.770  41.223  1.00 34.51 LIG 0.04  C 
BRANCH 26 27
ATOM     27  CG  LEU D 694       6.184 -10.523  40.810  1.00 27.71 LIG-0.02  C 
ATOM     28  CD2 LEU D 694       7.620 -10.519  41.241  1.00 26.48 LIG 0.01  C 
ATOM     29  CD1 LEU D 694       5.478  -9.256  41.197  1.00 27.00 LIG 0.01  C 
ENDBRANCH 26 27
ENDBRANCH 11 26
ENDBRANCH 8 11
ENDBRANCH 6 7
BRANCH 6 30
ATOM     30  CB  LEU D 693       5.691 -14.275  35.606  1.00 45.67 LIG 0.04  C 
BRANCH 30 31
ATOM     31  CG  LEU D 693       5.864 -13.875  34.132  1.00 55.29 LIG-0.02  C 
ATOM     32  CD1 LEU D 693       5.369 -12.455  33.893  1.00 47.80 LIG 0.01  C 
ATOM     33  CD2 LEU D 693       7.308 -14.059  33.644  1.00 51.02 LIG 0.01  C 
ENDBRANCH 30 31
ENDBRANCH 6 30
ENDBRANCH 3 6
ENDBRANCH 1 2
BRANCH 1 34
ATOM     34  CB  ARG D 692      10.362 -11.733  35.185  1.00 49.09 LIG 0.04  C 
BRANCH 34 35
ATOM     35  CG  ARG D 692      11.873 -12.024  35.271  1.00 50.62 LIG 0.02  C 
BRANCH 35 36
ATOM     36  CD  ARG D 692      12.765 -10.904  34.756  1.00 57.04 LIG 0.14  C 
BRANCH 36 37
ATOM     37  NE  ARG D 692      13.942 -11.472  34.127  1.00 60.90 LIG-0.23  N 
ATOM     38 HE   ARG D 692      13.887 -11.678  33.294  1.00 60.90 LIG 0.18  HD
ATOM     39  CZ  ARG D 692      15.094 -11.697  34.740  1.00 61.50 LIG 0.67  C 
ATOM     40  NH1 ARG D 692      15.213 -11.485  36.049  1.00 46.48 LIG-0.23  N 
ATOM     41  NH2 ARG D 692      16.115 -12.181  34.045  1.00 64.68 LIG-0.23  N 
ATOM     42 1HH1 ARG D 692      14.539 -11.200  36.502  1.00 46.48 LIG 0.17  HD
ATOM     43 2HH1 ARG D 692      15.964 -11.633  36.442  1.00 46.48 LIG 0.17  HD
ATOM     44 1HH2 ARG D 692      16.024 -12.345  33.205  1.00 64.68 LIG 0.17  HD
ATOM     45 2HH2 ARG D 692      16.867 -12.331  34.433  1.00 64.68 LIG 0.17  HD
ENDBRANCH 36 37
ENDBRANCH 35 36
ENDBRANCH 34 35
ENDBRANCH 1 34
BRANCH 1 46
ATOM     46  N   ARG D 692      10.238 -13.246  37.191  1.00 43.06 LIG-0.35  N 
ATOM     47  C   HIS D 691      10.147 -14.463  36.682  1.00 44.11 LIG 0.24  C 
ATOM     48 O    HIS D 691       9.549 -14.715  35.646  1.00 43.39 LIG-0.27  OA
ATOM     49 H    ARG D 692      10.636 -13.066  37.932  1.00 43.06 LIG 0.16  HD
BRANCH 47 50
ATOM     50  CA  HIS D 691      10.832 -15.525  37.452  1.00 41.80 LIG 0.18  C 
BRANCH 50 51
ATOM     51  CB  HIS D 691       9.784 -16.144  38.313  1.00 51.00 LIG 0.10  C 
BRANCH 51 52
ATOM     52  CG  HIS D 691       9.121 -15.205  39.232  1.00 57.86 LIG 0.06  A 
ATOM     53 ND1  HIS D 691       9.796 -14.445  40.077  1.00 60.60 LIG-0.24  NA
ATOM     54  CE1 HIS D 691       8.942 -13.706  40.780  1.00 72.50 LIG 0.23  A 
ATOM     55 NE2  HIS D 691       7.708 -14.014  40.393  1.00 67.35 LIG-0.25  NA
ATOM     56  CD2 HIS D 691       7.782 -14.938  39.444  1.00 66.29 LIG 0.14  A 
ENDBRANCH 51 52
ENDBRANCH 50 51
BRANCH 50 57
ATOM     57  N   HIS D 691      11.872 -14.972  38.291  1.00 39.94 LIG-0.35  N 
ATOM     58 H    HIS D 691      11.715 -15.046  39.134  1.00 39.94 LIG 0.16  HD
ATOM     59  C   LEU D 690      12.963 -14.406  37.802  1.00 35.88 LIG 0.24  C 
ATOM     60 O    LEU D 690      13.200 -14.320  36.578  1.00 34.66 LIG-0.27  OA
BRANCH 59 61
ATOM     61  CA  LEU D 690      13.915 -13.796  38.805  1.00 33.43 LIG 0.18  C 
BRANCH 61 62
ATOM     62  CB  LEU D 690      13.544 -12.331  39.043  1.00 31.34 LIG 0.04  C 
BRANCH 62 63
ATOM     63  CG  LEU D 690      12.168 -12.066  39.642  1.00 30.93 LIG-0.02  C 
ATOM     64  CD1 LEU D 690      12.298 -11.772  41.129  1.00 30.90 LIG 0.01  C 
ATOM     65  CD2 LEU D 690      11.525 -10.883  38.944  1.00 28.62 LIG 0.01  C 
ENDBRANCH 62 63
ENDBRANCH 61 62
BRANCH 61 66
ATOM     66  N   LEU D 690      15.302 -13.892  38.349  1.00 35.22 LIG-0.35  N 
ATOM     67 H    LEU D 690      15.669 -13.135  38.165  1.00 35.22 LIG 0.16  HD
ATOM     68  C   ILE D 689      15.923 -15.060  38.238  1.00 41.04 LIG 0.26  C 
ATOM     69 O    ILE D 689      15.392 -16.133  38.562  1.00 39.56 LIG-0.27  OA
BRANCH 68 70
ATOM     70  CA  ILE D 689      17.377 -15.002  37.725  1.00 40.35 LIG 0.40  C 
ATOM     71  N   ILE D 689      18.112 -16.314  37.910  1.00 40.45 LIG 0.61  N 
BRANCH 70 72
ATOM     72  CB  ILE D 689      17.332 -14.559  36.242  1.00 42.26 LIG 0.03  C 
ATOM     73  CG2 ILE D 689      18.595 -15.023  35.494  1.00 38.55 LIG 0.01  C 
BRANCH 72 74
ATOM     74  CG1 ILE D 689      16.056 -15.046  35.549  1.00 45.91 LIG 0.00  C 
ATOM     75  CD1 ILE D 689      16.266 -15.552  34.122  1.00 45.96 LIG 0.01  C 
ENDBRANCH 72 74
ENDBRANCH 70 72
ENDBRANCH 68 70
ENDBRANCH 61 66
ENDBRANCH 59 61
ENDBRANCH 50 57
ENDBRANCH 47 50
ENDBRANCH 1 46
TORSDOF 30
ENDMDL
MODEL 90
USER: ADFR SOLUTION from run 129
USER: SCORE 21.825653 LL:  -7.423 LR: -14.654 RR:   0.000 FEB:  -5.705
USER: RMSD 6.474575
USER: SEED 128
USER: STATUS searching
USER: GENES 32
USER: genes 0 Translation |==|  0.58723 0.68422 0.38837
USER: genes 1 Rotation |==|  0.97850 0.61757 0.48994 0.58435
USER: genes 2 Torsion [N]-CA--C-[N] |==|  0.08655
USER: genes 3 Torsion [C]-N--CA-[C] |==|  0.81362
USER: genes 4 Torsion [N]-CA--C-[N] |==|  0.93642
USER: genes 5 Torsion [C]-N--CA-[C] |==|  0.15926
USER: genes 6 Torsion [N]-CA--C-[N] |==|  0.10640
USER: genes 7 Torsion [C]-N--CA-[CB] |==|  0.75302
USER: genes 8 Torsion [N]-CA--CB-[CG] |==|  0.94512
USER: genes 9 Torsion [CA]-CB--CG-[CD] |==|  0.52468
USER: genes 10 Torsion [CB]-CG--CD-[NE2] |==|  0.09579
USER: genes 11 Torsion [N]-CA--C-[O] |==|  0.80895
USER: genes 12 Torsion [N]-CA--CB-[CG] |==|  0.71279
USER: genes 13 Torsion [CA]-CB--CG-[CD2] |==|  0.17329
USER: genes 14 Torsion [N]-CA--CB-[CG] |==|  0.76527
USER: genes 15 Torsion [CA]-CB--CG-[CD1] |==|  0.04592
USER: genes 16 Torsion [C]-CA--CB-[CG] |==|  0.56889
USER: genes 17 Torsion [CA]-CB--CG-[CD] |==|  0.42609
USER: genes 18 Torsion [CB]-CG--CD-[NE] |==|  0.79750
USER: genes 19 Torsion [CG]-CD--NE-[CZ] |==|  0.35362
USER: genes 20 Torsion [C]-CA--N-[C] |==|  0.16221
USER: genes 21 Torsion [N]-C--CA-[N] |==|  0.12330
USER: genes 22 Torsion [C]-CA--CB-[CG] |==|  0.48637
USER: genes 23 Torsion [CA]-CB--CG-[ND1] |==|  0.81426
USER: genes 24 Torsion [C]-CA--N-[C] |==|  0.14554
USER: genes 25 Torsion [N]-C--CA-[N] |==|  0.92645
USER: genes 26 Torsion [C]-CA--CB-[CG] |==|  0.28007
USER: genes 27 Torsion [CA]-CB--CG-[CD2] |==|  0.73829
USER: genes 28 Torsion [C]-CA--N-[C] |==|  0.78718
USER: genes 29 Torsion [N]-C--CA-[N] |==|  0.49810
USER: genes 30 Torsion [C]-CA--CB-[CG1] |==|  0.68692
USER: genes 31 Torsion [CA]-CB--CG1-[CD1] |==|  0.69397
ROOT
ATOM      1  CA  ARG D 692      11.566 -11.548  36.742  1.00 48.73 LIG 0.18  C 
ENDROOT
BRANCH 1 2
ATOM      2  C   ARG D 692      10.944 -12.925  36.905  1.00 46.10 LIG 0.24  C 
ATOM      3  N   LEU D 693      10.438 -13.241  38.095  1.00 50.64 LIG-0.35  N 
ATOM      4 H    LEU D 693      10.417 -12.720  38.778  1.00 50.64 LIG 0.16  HD
ATOM      5 O    ARG D 692      10.997 -13.742  35.987  1.00 52.04 LIG-0.27  OA
BRANCH 3 6
ATOM      6  CA  LEU D 693       9.861 -14.574  38.295  1.00 43.34 LIG 0.18  C 
BRANCH 6 7
ATOM      7  C   LEU D 693       8.593 -14.779  37.478  1.00 37.95 LIG 0.24  C 
ATOM      8  N   LEU D 694       7.949 -13.688  37.116  1.00 39.22 LIG-0.35  N 
ATOM      9 H    LEU D 694       8.183 -12.896  37.355  1.00 39.22 LIG 0.16  HD
ATOM     10 O    LEU D 693       8.199 -15.920  37.210  1.00 43.86 LIG-0.27  OA
BRANCH 8 11
ATOM     11  CA  LEU D 694       6.780 -13.725  36.276  1.00 38.59 LIG 0.18  C 
BRANCH 11 12
ATOM     12  C   LEU D 694       5.747 -14.586  36.927  1.00 46.22 LIG 0.24  C 
ATOM     13  N   GLN D 695       5.675 -14.472  38.240  1.00 66.87 LIG-0.35  N 
ATOM     14 H    GLN D 695       6.246 -14.001  38.678  1.00 66.87 LIG 0.16  HD
ATOM     15 O    LEU D 694       5.101 -15.352  36.261  1.00 54.70 LIG-0.27  OA
BRANCH 13 16
ATOM     16  CA  GLN D 695       4.679 -15.085  39.129  1.00 62.86 LIG 0.16  C 
BRANCH 16 17
ATOM     17  CB  GLN D 695       3.481 -14.190  39.288  1.00 63.26 LIG 0.04  C 
BRANCH 17 18
ATOM     18  CG  GLN D 695       3.804 -12.766  38.919  1.00 77.24 LIG 0.10  C 
BRANCH 18 19
ATOM     19  CD  GLN D 695       2.718 -11.830  39.261  1.00 84.08 LIG 0.21  C 
ATOM     20 OE1  GLN D 695       2.481 -10.877  38.544  1.00 83.40 LIG-0.27  OA
ATOM     21  NE2 GLN D 695       2.027 -12.095  40.353  1.00 79.17 LIG-0.37  N 
ATOM     22 22HE GLN D 695       1.376 -11.583  40.584  1.00 79.17 LIG 0.16  HD
ATOM     23 21HE GLN D 695       2.227 -12.779  40.833  1.00 79.17 LIG 0.16  HD
ENDBRANCH 18 19
ENDBRANCH 17 18
ENDBRANCH 16 17
BRANCH 16 24
ATOM     24  C   GLN D 695       4.262 -16.519  38.806  1.00 61.14 LIG 0.22  C 
ATOM     25 O    GLN D 695       3.603 -16.774  37.794  1.00 66.66 LIG-0.29  OA
ENDBRANCH 16 24
ENDBRANCH 13 16
ENDBRANCH 11 12
BRANCH 11 26
ATOM     26  CB  LEU D 694       7.092 -14.326  34.921  1.00 34.51 LIG 0.04  C 
BRANCH 26 27
ATOM     27  CG  LEU D 694       7.244 -13.436  33.713  1.00 27.71 LIG-0.02  C 
ATOM     28  CD2 LEU D 694       8.384 -12.469  33.831  1.00 26.48 LIG 0.01  C 
ATOM     29  CD1 LEU D 694       5.968 -12.752  33.313  1.00 27.00 LIG 0.01  C 
ENDBRANCH 26 27
ENDBRANCH 11 26
ENDBRANCH 8 11
ENDBRANCH 6 7
BRANCH 6 30
ATOM     30  CB  LEU D 693       9.608 -14.880  39.781  1.00 45.67 LIG 0.04  C 
BRANCH 30 31
ATOM     31  CG  LEU D 693      10.809 -15.426  40.570  1.00 55.29 LIG-0.02  C 
ATOM     32  CD1 LEU D 693      12.110 -15.175  39.820  1.00 47.80 LIG 0.01  C 
ATOM     33  CD2 LEU D 693      10.866 -14.871  42.000  1.00 51.02 LIG 0.01  C 
ENDBRANCH 30 31
ENDBRANCH 6 30
ENDBRANCH 3 6
ENDBRANCH 1 2
BRANCH 1 34
ATOM     34  CB  ARG D 692      12.530 -11.585  35.538  1.00 49.09 LIG 0.04  C 
BRANCH 34 35
ATOM     35  CG  ARG D 692      13.621 -10.502  35.660  1.00 50.62 LIG 0.02  C 
BRANCH 35 36
ATOM     36  CD  ARG D 692      14.921 -10.828  34.939  1.00 57.04 LIG 0.14  C 
BRANCH 36 37
ATOM     37  NE  ARG D 692      15.634 -11.860  35.667  1.00 60.90 LIG-0.23  N 
ATOM     38 HE   ARG D 692      15.777 -11.729  36.505  1.00 60.90 LIG 0.18  HD
ATOM     39  CZ  ARG D 692      16.080 -12.989  35.137  1.00 61.50 LIG 0.67  C 
ATOM     40  NH1 ARG D 692      15.970 -13.209  33.829  1.00 46.48 LIG-0.23  N 
ATOM     41  NH2 ARG D 692      16.681 -13.878  35.917  1.00 64.68 LIG-0.23  N 
ATOM     42 1HH1 ARG D 692      15.607 -12.615  33.322  1.00 46.48 LIG 0.17  HD
ATOM     43 2HH1 ARG D 692      16.262 -13.943  33.490  1.00 46.48 LIG 0.17  HD
ATOM     44 1HH2 ARG D 692      16.776 -13.718  36.757  1.00 64.68 LIG 0.17  HD
ATOM     45 2HH2 ARG D 692      16.974 -14.614  35.584  1.00 64.68 LIG 0.17  HD
ENDBRANCH 36 37
ENDBRANCH 35 36
ENDBRANCH 34 35
ENDBRANCH 1 34
BRANCH 1 46
ATOM     46  N   ARG D 692      12.196 -10.980  37.957  1.00 43.06 LIG-0.35  N 
ATOM     47  C   HIS D 691      13.179 -11.599  38.589  1.00 44.11 LIG 0.24  C 
ATOM     48 O    HIS D 691      13.614 -12.690  38.249  1.00 43.39 LIG-0.27  OA
ATOM     49 H    ARG D 692      11.868 -10.224  38.206  1.00 43.06 LIG 0.16  HD
BRANCH 47 50
ATOM     50  CA  HIS D 691      13.737 -10.877  39.755  1.00 41.80 LIG 0.18  C 
BRANCH 50 51
ATOM     51  CB  HIS D 691      14.492 -11.894  40.540  1.00 51.00 LIG 0.10  C 
BRANCH 51 52
ATOM     52  CG  HIS D 691      15.226 -11.348  41.694  1.00 57.86 LIG 0.06  A 
ATOM     53 ND1  HIS D 691      16.257 -10.533  41.556  1.00 60.60 LIG-0.24  NA
ATOM     54  CE1 HIS D 691      16.721 -10.207  42.759  1.00 72.50 LIG 0.23  A 
ATOM     55 NE2  HIS D 691      15.991 -10.838  43.673  1.00 67.35 LIG-0.25  NA
ATOM     56  CD2 HIS D 691      15.064 -11.554  43.051  1.00 66.29 LIG 0.14  A 
ENDBRANCH 51 52
ENDBRANCH 50 51
BRANCH 50 57
ATOM     57  N   HIS D 691      12.685 -10.323  40.578  1.00 39.94 LIG-0.35  N 
ATOM     58 H    HIS D 691      12.778  -9.484  40.742  1.00 39.94 LIG 0.16  HD
ATOM     59  C   LEU D 690      11.675 -11.046  41.034  1.00 35.88 LIG 0.24  C 
ATOM     60 O    LEU D 690      11.532 -12.260  40.776  1.00 34.66 LIG-0.27  OA
BRANCH 59 61
ATOM     61  CA  LEU D 690      10.704 -10.344  41.955  1.00 33.43 LIG 0.18  C 
BRANCH 61 62
ATOM     62  CB  LEU D 690       9.510  -9.829  41.150  1.00 31.34 LIG 0.04  C 
BRANCH 62 63
ATOM     63  CG  LEU D 690       8.235 -10.663  41.215  1.00 30.93 LIG-0.02  C 
ATOM     64  CD1 LEU D 690       7.017  -9.754  41.169  1.00 30.90 LIG 0.01  C 
ATOM     65  CD2 LEU D 690       8.196 -11.628  40.045  1.00 28.62 LIG 0.01  C 
ENDBRANCH 62 63
ENDBRANCH 61 62
BRANCH 61 66
ATOM     66  N   LEU D 690      11.347  -9.233  42.659  1.00 35.22 LIG-0.35  N 
ATOM     67 H    LEU D 690      11.151  -8.455  42.349  1.00 35.22 LIG 0.16  HD
ATOM     68  C   ILE D 689      12.160  -9.435  43.689  1.00 41.04 LIG 0.26  C 
ATOM     69 O    ILE D 689      12.383 -10.563  44.154  1.00 39.56 LIG-0.27  OA
BRANCH 68 70
ATOM     70  CA  ILE D 689      12.777  -8.167  44.316  1.00 40.35 LIG 0.40  C 
ATOM     71  N   ILE D 689      13.678  -8.480  45.494  1.00 40.45 LIG 0.61  N 
BRANCH 70 72
ATOM     72  CB  ILE D 689      13.523  -7.407  43.192  1.00 42.26 LIG 0.03  C 
ATOM     73  CG2 ILE D 689      12.978  -5.975  43.044  1.00 38.55 LIG 0.01  C 
BRANCH 72 74
ATOM     74  CG1 ILE D 689      15.038  -7.412  43.419  1.00 45.91 LIG 0.00  C 
ATOM     75  CD1 ILE D 689      15.625  -6.052  43.794  1.00 45.96 LIG 0.01  C 
ENDBRANCH 72 74
ENDBRANCH 70 72
ENDBRANCH 68 70
ENDBRANCH 61 66
ENDBRANCH 59 61
ENDBRANCH 50 57
ENDBRANCH 47 50
ENDBRANCH 1 46
TORSDOF 30
ENDMDL
MODEL 91
USER: ADFR SOLUTION from run 64
USER: SCORE 20.375929 LL:  -6.017 LR: -14.634 RR:   0.000 FEB:  -5.685
USER: RMSD 6.954437
USER: SEED 63
USER: STATUS no improvement in best in 8 clusters for 5 generations
USER: GENES 32
USER: genes 0 Translation |==|  0.50300 0.66156 0.43651
USER: genes 1 Rotation |==|  0.99508 0.50077 0.46446 0.56027
USER: genes 2 Torsion [N]-CA--C-[N] |==|  0.42526
USER: genes 3 Torsion [C]-N--CA-[C] |==|  0.83823
USER: genes 4 Torsion [N]-CA--C-[N] |==|  0.39105
USER: genes 5 Torsion [C]-N--CA-[C] |==|  0.70108
USER: genes 6 Torsion [N]-CA--C-[N] |==|  0.42577
USER: genes 7 Torsion [C]-N--CA-[CB] |==|  0.19681
USER: genes 8 Torsion [N]-CA--CB-[CG] |==|  0.57720
USER: genes 9 Torsion [CA]-CB--CG-[CD] |==|  0.34705
USER: genes 10 Torsion [CB]-CG--CD-[NE2] |==|  0.34418
USER: genes 11 Torsion [N]-CA--C-[O] |==|  0.67828
USER: genes 12 Torsion [N]-CA--CB-[CG] |==|  0.82076
USER: genes 13 Torsion [CA]-CB--CG-[CD2] |==|  0.20950
USER: genes 14 Torsion [N]-CA--CB-[CG] |==|  0.06749
USER: genes 15 Torsion [CA]-CB--CG-[CD1] |==|  0.22656
USER: genes 16 Torsion [C]-CA--CB-[CG] |==|  0.37799
USER: genes 17 Torsion [CA]-CB--CG-[CD] |==|  0.42665
USER: genes 18 Torsion [CB]-CG--CD-[NE] |==|  0.80388
USER: genes 19 Torsion [CG]-CD--NE-[CZ] |==|  0.48069
USER: genes 20 Torsion [C]-CA--N-[C] |==|  0.82418
USER: genes 21 Torsion [N]-C--CA-[N] |==|  0.91049
USER: genes 22 Torsion [C]-CA--CB-[CG] |==|  0.40326
USER: genes 23 Torsion [CA]-CB--CG-[ND1] |==|  0.54363
USER: genes 24 Torsion [C]-CA--N-[C] |==|  0.82823
USER: genes 25 Torsion [N]-C--CA-[N] |==|  0.05156
USER: genes 26 Torsion [C]-CA--CB-[CG] |==|  0.25426
USER: genes 27 Torsion [CA]-CB--CG-[CD2] |==|  0.65914
USER: genes 28 Torsion [C]-CA--N-[C] |==|  0.72196
USER: genes 29 Torsion [N]-C--CA-[N] |==|  0.38485
USER: genes 30 Torsion [C]-CA--CB-[CG1] |==|  0.30441
USER: genes 31 Torsion [CA]-CB--CG1-[CD1] |==|  0.53905
ROOT
ATOM      1  CA  ARG D 692       9.670 -11.973  37.681  1.00 48.73 LIG 0.18  C 
ENDROOT
BRANCH 1 2
ATOM      2  C   ARG D 692       8.480 -12.910  37.798  1.00 46.10 LIG 0.24  C 
ATOM      3  N   LEU D 693       7.420 -12.666  37.030  1.00 50.64 LIG-0.35  N 
ATOM      4 H    LEU D 693       7.360 -12.029  36.456  1.00 50.64 LIG 0.16  HD
ATOM      5 O    ARG D 692       8.474 -13.804  38.643  1.00 52.04 LIG-0.27  OA
BRANCH 3 6
ATOM      6  CA  LEU D 693       6.242 -13.532  37.142  1.00 43.34 LIG 0.18  C 
BRANCH 6 7
ATOM      7  C   LEU D 693       6.573 -14.991  36.860  1.00 37.95 LIG 0.24  C 
ATOM      8  N   LEU D 694       5.972 -15.884  37.621  1.00 39.22 LIG-0.35  N 
ATOM      9 H    LEU D 694       5.457 -15.678  38.277  1.00 39.22 LIG 0.16  HD
ATOM     10 O    LEU D 693       7.387 -15.289  35.979  1.00 43.86 LIG-0.27  OA
BRANCH 8 11
ATOM     11  CA  LEU D 694       6.128 -17.300  37.418  1.00 38.59 LIG 0.18  C 
BRANCH 11 12
ATOM     12  C   LEU D 694       4.860 -17.846  36.848  1.00 46.22 LIG 0.24  C 
ATOM     13  N   GLN D 695       5.002 -18.937  36.117  1.00 66.87 LIG-0.35  N 
ATOM     14 H    GLN D 695       5.781 -19.243  35.923  1.00 66.87 LIG 0.16  HD
ATOM     15 O    LEU D 694       3.824 -17.259  37.023  1.00 54.70 LIG-0.27  OA
BRANCH 13 16
ATOM     16  CA  GLN D 695       3.932 -19.766  35.546  1.00 62.86 LIG 0.16  C 
BRANCH 16 17
ATOM     17  CB  GLN D 695       3.242 -19.046  34.419  1.00 63.26 LIG 0.04  C 
BRANCH 17 18
ATOM     18  CG  GLN D 695       1.815 -19.501  34.268  1.00 77.24 LIG 0.10  C 
BRANCH 18 19
ATOM     19  CD  GLN D 695       0.854 -18.384  34.323  1.00 84.08 LIG 0.21  C 
ATOM     20 OE1  GLN D 695       0.847 -17.627  35.274  1.00 83.40 LIG-0.27  OA
ATOM     21  NE2 GLN D 695       0.040 -18.250  33.294  1.00 79.17 LIG-0.37  N 
ATOM     22 22HE GLN D 695      -0.529 -17.605  33.277  1.00 79.17 LIG 0.16  HD
ATOM     23 21HE GLN D 695       0.077 -18.808  32.641  1.00 79.17 LIG 0.16  HD
ENDBRANCH 18 19
ENDBRANCH 17 18
ENDBRANCH 16 17
BRANCH 16 24
ATOM     24  C   GLN D 695       4.309 -21.191  35.147  1.00 61.14 LIG 0.22  C 
ATOM     25 O    GLN D 695       4.263 -21.552  33.968  1.00 66.66 LIG-0.29  OA
ENDBRANCH 16 24
ENDBRANCH 13 16
ENDBRANCH 11 12
BRANCH 11 26
ATOM     26  CB  LEU D 694       6.392 -18.020  38.724  1.00 34.51 LIG 0.04  C 
BRANCH 26 27
ATOM     27  CG  LEU D 694       7.654 -17.744  39.502  1.00 27.71 LIG-0.02  C 
ATOM     28  CD2 LEU D 694       7.627 -16.432  40.228  1.00 26.48 LIG 0.01  C 
ATOM     29  CD1 LEU D 694       8.904 -17.907  38.685  1.00 27.00 LIG 0.01  C 
ENDBRANCH 26 27
ENDBRANCH 11 26
ENDBRANCH 8 11
ENDBRANCH 6 7
BRANCH 6 30
ATOM     30  CB  LEU D 693       5.083 -13.054  36.250  1.00 45.67 LIG 0.04  C 
BRANCH 30 31
ATOM     31  CG  LEU D 693       5.479 -12.203  35.032  1.00 55.29 LIG-0.02  C 
ATOM     32  CD1 LEU D 693       5.936 -13.086  33.879  1.00 47.80 LIG 0.01  C 
ATOM     33  CD2 LEU D 693       4.357 -11.248  34.601  1.00 51.02 LIG 0.01  C 
ENDBRANCH 30 31
ENDBRANCH 6 30
ENDBRANCH 3 6
ENDBRANCH 1 2
BRANCH 1 34
ATOM     34  CB  ARG D 692      10.479 -12.361  36.425  1.00 49.09 LIG 0.04  C 
BRANCH 34 35
ATOM     35  CG  ARG D 692      10.898 -11.116  35.620  1.00 50.62 LIG 0.02  C 
BRANCH 35 36
ATOM     36  CD  ARG D 692      12.157 -11.295  34.784  1.00 57.04 LIG 0.14  C 
BRANCH 36 37
ATOM     37  NE  ARG D 692      13.312 -11.379  35.658  1.00 60.90 LIG-0.23  N 
ATOM     38 HE   ARG D 692      13.188 -11.231  36.496  1.00 60.90 LIG 0.18  HD
ATOM     39  CZ  ARG D 692      14.542 -11.666  35.261  1.00 61.50 LIG 0.67  C 
ATOM     40  NH1 ARG D 692      14.815 -11.815  33.966  1.00 46.48 LIG-0.23  N 
ATOM     41  NH2 ARG D 692      15.510 -11.758  36.163  1.00 64.68 LIG-0.23  N 
ATOM     42 1HH1 ARG D 692      14.189 -11.725  33.382  1.00 46.48 LIG 0.17  HD
ATOM     43 2HH1 ARG D 692      15.616 -12.001  33.714  1.00 46.48 LIG 0.17  HD
ATOM     44 1HH2 ARG D 692      15.335 -11.632  36.996  1.00 64.68 LIG 0.17  HD
ATOM     45 2HH2 ARG D 692      16.312 -11.944  35.916  1.00 64.68 LIG 0.17  HD
ENDBRANCH 36 37
ENDBRANCH 35 36
ENDBRANCH 34 35
ENDBRANCH 1 34
BRANCH 1 46
ATOM     46  N   ARG D 692      10.520 -11.860  38.890  1.00 43.06 LIG-0.35  N 
ATOM     47  C   HIS D 691      10.055 -11.374  40.028  1.00 44.11 LIG 0.24  C 
ATOM     48 O    HIS D 691       8.916 -10.950  40.162  1.00 43.39 LIG-0.27  OA
ATOM     49 H    ARG D 692      11.328 -12.136  38.782  1.00 43.06 LIG 0.16  HD
BRANCH 47 50
ATOM     50  CA  HIS D 691      11.013 -11.376  41.157  1.00 41.80 LIG 0.18  C 
BRANCH 50 51
ATOM     51  CB  HIS D 691      11.788 -10.108  41.036  1.00 51.00 LIG 0.10  C 
BRANCH 51 52
ATOM     52  CG  HIS D 691      12.165  -9.502  42.324  1.00 57.86 LIG 0.06  A 
ATOM     53 ND1  HIS D 691      12.577  -8.251  42.425  1.00 60.60 LIG-0.24  NA
ATOM     54  CE1 HIS D 691      12.850  -7.980  43.697  1.00 72.50 LIG 0.23  A 
ATOM     55 NE2  HIS D 691      12.630  -9.079  44.414  1.00 67.35 LIG-0.25  NA
ATOM     56  CD2 HIS D 691      12.211 -10.037  43.597  1.00 66.29 LIG 0.14  A 
ENDBRANCH 51 52
ENDBRANCH 50 51
BRANCH 50 57
ATOM     57  N   HIS D 691      11.919 -12.499  41.069  1.00 39.94 LIG-0.35  N 
ATOM     58 H    HIS D 691      12.745 -12.273  40.987  1.00 39.94 LIG 0.16  HD
ATOM     59  C   LEU D 690      11.511 -13.756  41.110  1.00 35.88 LIG 0.24  C 
ATOM     60 O    LEU D 690      10.312 -14.082  41.252  1.00 34.66 LIG-0.27  OA
BRANCH 59 61
ATOM     61  CA  LEU D 690      12.569 -14.818  40.916  1.00 33.43 LIG 0.18  C 
BRANCH 61 62
ATOM     62  CB  LEU D 690      12.306 -15.989  41.864  1.00 31.34 LIG 0.04  C 
BRANCH 62 63
ATOM     63  CG  LEU D 690      11.445 -17.124  41.321  1.00 30.93 LIG-0.02  C 
ATOM     64  CD1 LEU D 690      12.258 -18.408  41.261  1.00 30.90 LIG 0.01  C 
ATOM     65  CD2 LEU D 690      10.240 -17.326  42.219  1.00 28.62 LIG 0.01  C 
ENDBRANCH 62 63
ENDBRANCH 61 62
BRANCH 61 66
ATOM     66  N   LEU D 690      13.911 -14.280  41.148  1.00 35.22 LIG-0.35  N 
ATOM     67 H    LEU D 690      14.129 -14.216  41.977  1.00 35.22 LIG 0.16  HD
ATOM     68  C   ILE D 689      14.706 -13.928  40.145  1.00 41.04 LIG 0.26  C 
ATOM     69 O    ILE D 689      14.390 -14.082  38.955  1.00 39.56 LIG-0.27  OA
BRANCH 68 70
ATOM     70  CA  ILE D 689      16.083 -13.359  40.547  1.00 40.35 LIG 0.40  C 
ATOM     71  N   ILE D 689      17.205 -13.877  39.670  1.00 40.45 LIG 0.61  N 
BRANCH 70 72
ATOM     72  CB  ILE D 689      15.977 -11.814  40.513  1.00 42.26 LIG 0.03  C 
ATOM     73  CG2 ILE D 689      14.718 -11.370  39.745  1.00 38.55 LIG 0.01  C 
BRANCH 72 74
ATOM     74  CG1 ILE D 689      16.018 -11.216  41.922  1.00 45.91 LIG 0.00  C 
ATOM     75  CD1 ILE D 689      15.584  -9.753  42.001  1.00 45.96 LIG 0.01  C 
ENDBRANCH 72 74
ENDBRANCH 70 72
ENDBRANCH 68 70
ENDBRANCH 61 66
ENDBRANCH 59 61
ENDBRANCH 50 57
ENDBRANCH 47 50
ENDBRANCH 1 46
TORSDOF 30
ENDMDL
