MODEL 1
USER: ADFR SOLUTION from run 108
USER: SCORE 19.324293 LL:  -2.331 LR: -18.552 RR:   0.000 FEB: -14.375
USER: RMSD 0.941126
USER: SEED 107
USER: STATUS no improvement in best in 4 clusters for 5 generations
USER: GENES 16
USER: genes 0 Translation |==|  0.48641 0.55978 0.57969
USER: genes 1 Rotation |==|  0.48489 0.51764 0.53031 0.99854
USER: genes 2 Torsion [C]-CA--N-[C] |==|  0.63588
USER: genes 3 Torsion [N]-C--CA-[N] |==|  0.41706
USER: genes 4 Torsion [C]-CA--CB-[CG2] |==|  0.17535
USER: genes 5 Torsion [CA]-CB--OG1-[HG1] |==|  0.46737
USER: genes 6 Torsion [C]-CA--N-[C] |==|  0.56425
USER: genes 7 Torsion [N]-CA--C-[N] |==|  0.42256
USER: genes 8 Torsion [C]-N--CA-[CB] |==|  0.25375
USER: genes 9 Torsion [N]-CA--C-[N] |==|  0.41667
USER: genes 10 Torsion [C]-N--CA-[C] |==|  0.61705
USER: genes 11 Torsion [N]-CA--C-[N] |==|  0.42885
USER: genes 12 Torsion [N]-CA--CB-[CG2] |==|  0.32318
USER: genes 13 Torsion [CA]-CB--CG1-[CD1] |==|  0.99084
USER: genes 14 Torsion [N]-CA--CB-[OG1] |==|  0.62950
USER: genes 15 Torsion [CA]-CB--OG1-[HG1] |==|  0.94156
ROOT
ATOM      1  CA  THR B   3      26.224 -11.468 -10.036  1.00 36.32 LIG 0.20  C 
ENDROOT
BRANCH 1 2
ATOM      2  N   THR B   3      24.956 -11.346  -9.347  1.00 33.83 LIG-0.34  N 
ATOM      3 H    THR B   3      24.623 -12.093  -9.079  1.00 33.83 LIG 0.16  HD
ATOM      4  C   THR B   2      24.374 -10.159  -9.158  1.00 34.16 LIG 0.24  C 
ATOM      5 O    THR B   2      24.953  -9.079  -9.297  1.00 38.62 LIG-0.27  OA
BRANCH 4 6
ATOM      6  CA  THR B   2      22.891 -10.215  -8.768  1.00 35.31 LIG 0.20  C 
BRANCH 6 7
ATOM      7  CB  THR B   2      22.037 -10.319 -10.067  1.00 32.90 LIG 0.15  C 
ATOM      8  CG2 THR B   2      22.346 -11.577 -10.775  1.00 39.05 LIG 0.04  C 
BRANCH 7 9
ATOM      9 OG1  THR B   2      20.644 -10.311  -9.713  1.00 34.26 LIG-0.39  OA
ATOM     10 HG1  THR B   2      20.179 -10.205 -10.404  1.00 34.26 LIG 0.21  HD
ENDBRANCH 7 9
ENDBRANCH 6 7
BRANCH 6 11
ATOM     11  N   THR B   2      22.448  -9.088  -7.922  1.00 34.82 LIG-0.35  N 
ATOM     12 H    THR B   2      22.927  -8.377  -7.977  1.00 34.82 LIG 0.16  HD
ATOM     13  C   ACE B   1      21.337  -9.231  -7.120  1.00 34.45 LIG 0.21  C 
ATOM     14 O    ACE B   1      21.072 -10.361  -6.690  1.00 39.85 LIG-0.27  OA
ATOM     15  CH3 ACE B   1      21.289  -8.103  -6.147  1.00 40.13 LIG 0.12  C 
ENDBRANCH 6 11
ENDBRANCH 4 6
ENDBRANCH 1 2
BRANCH 1 16
ATOM     16  C   THR B   3      26.067 -12.560 -11.085  1.00 34.35 LIG 0.24  C 
ATOM     17  N   ALA B   4      26.856 -12.419 -12.137  1.00 33.34 LIG-0.35  N 
ATOM     18 H    ALA B   4      27.351 -11.730 -12.274  1.00 33.34 LIG 0.16  HD
ATOM     19 O    THR B   3      25.217 -13.469 -10.982  1.00 38.59 LIG-0.27  OA
BRANCH 17 20
ATOM     20  CA  ALA B   4      26.952 -13.427 -13.159  1.00 37.88 LIG 0.17  C 
ATOM     21  CB  ALA B   4      25.941 -13.168 -14.286  1.00 37.12 LIG 0.04  C 
BRANCH 20 22
ATOM     22  C   ALA B   4      28.384 -13.436 -13.697  1.00 28.06 LIG 0.24  C 
ATOM     23 O    ALA B   4      29.091 -12.411 -13.730  1.00 34.91 LIG-0.27  OA
ATOM     24  N   ILE B   5      28.781 -14.620 -14.127  1.00 35.61 LIG-0.35  N 
ATOM     25 H    ILE B   5      28.263 -15.305 -14.164  1.00 35.61 LIG 0.16  HD
BRANCH 24 26
ATOM     26  CA  ILE B   5      30.131 -14.886 -14.579  1.00 42.31 LIG 0.18  C 
BRANCH 26 27
ATOM     27  C   ILE B   5      30.037 -15.754 -15.836  1.00 33.28 LIG 0.25  C 
ATOM     28 N    NH2 B   6      31.211 -15.618 -16.735  1.00 40.53 LIG-0.06  NA
ATOM     29 O    ILE B   5      29.116 -16.578 -15.990  1.00 43.48 LIG-0.28  OA
ENDBRANCH 26 27
BRANCH 26 30
ATOM     30  CB  ILE B   5      30.931 -15.633 -13.498  1.00 45.91 LIG 0.01  C 
ATOM     31  CG2 ILE B   5      31.317 -16.997 -14.004  1.00 53.83 LIG 0.01  C 
BRANCH 30 32
ATOM     32  CG1 ILE B   5      32.185 -14.866 -13.053  1.00 44.58 LIG 0.00  C 
ATOM     33  CD1 ILE B   5      32.466 -13.580 -13.780  1.00 48.12 LIG 0.01  C 
ENDBRANCH 30 32
ENDBRANCH 26 30
ENDBRANCH 24 26
ENDBRANCH 20 22
ENDBRANCH 17 20
ENDBRANCH 1 16
BRANCH 1 34
ATOM     34  CB  THR B   3      27.348 -11.793  -9.040  1.00 43.32 LIG 0.15  C 
ATOM     35  CG2 THR B   3      27.799 -13.194  -9.205  1.00 50.01 LIG 0.04  C 
BRANCH 34 36
ATOM     36 OG1  THR B   3      28.463 -10.933  -9.316  1.00 43.78 LIG-0.39  OA
ATOM     37 HG1  THR B   3      28.407 -10.644 -10.103  1.00 43.78 LIG 0.21  HD
ENDBRANCH 34 36
ENDBRANCH 1 34
TORSDOF 14
ENDMDL
MODEL 2
USER: ADFR SOLUTION from run 108
USER: SCORE 19.131865 LL:  -2.604 LR: -17.911 RR:   0.000 FEB: -13.734
USER: RMSD 2.183598
USER: SEED 107
USER: STATUS no improvement in best in 4 clusters for 5 generations
USER: GENES 16
USER: genes 0 Translation |==|  0.48546 0.56320 0.57886
USER: genes 1 Rotation |==|  0.48393 0.52851 0.53859 0.99743
USER: genes 2 Torsion [C]-CA--N-[C] |==|  0.60621
USER: genes 3 Torsion [N]-C--CA-[N] |==|  0.90099
USER: genes 4 Torsion [C]-CA--CB-[CG2] |==|  0.12851
USER: genes 5 Torsion [CA]-CB--OG1-[HG1] |==|  0.56264
USER: genes 6 Torsion [C]-CA--N-[C] |==|  0.81142
USER: genes 7 Torsion [N]-CA--C-[N] |==|  0.42975
USER: genes 8 Torsion [C]-N--CA-[CB] |==|  0.25460
USER: genes 9 Torsion [N]-CA--C-[N] |==|  0.41716
USER: genes 10 Torsion [C]-N--CA-[C] |==|  0.61722
USER: genes 11 Torsion [N]-CA--C-[N] |==|  0.42888
USER: genes 12 Torsion [N]-CA--CB-[CG2] |==|  0.32313
USER: genes 13 Torsion [CA]-CB--CG1-[CD1] |==|  0.99140
USER: genes 14 Torsion [N]-CA--CB-[OG1] |==|  0.62839
USER: genes 15 Torsion [CA]-CB--OG1-[HG1] |==|  0.94102
ROOT
ATOM      1  CA  THR B   3      26.205 -11.411 -10.051  1.00 36.32 LIG 0.20  C 
ENDROOT
BRANCH 1 2
ATOM      2  N   THR B   3      24.965 -11.326  -9.308  1.00 33.83 LIG-0.34  N 
ATOM      3 H    THR B   3      24.594 -12.085  -9.147  1.00 33.83 LIG 0.16  HD
ATOM      4  C   THR B   2      24.463 -10.152  -8.917  1.00 34.16 LIG 0.24  C 
ATOM      5 O    THR B   2      25.104  -9.098  -8.908  1.00 38.62 LIG-0.27  OA
BRANCH 4 6
ATOM      6  CA  THR B   2      22.991 -10.183  -8.488  1.00 35.31 LIG 0.20  C 
BRANCH 6 7
ATOM      7  CB  THR B   2      22.922 -10.500  -6.963  1.00 32.90 LIG 0.15  C 
ATOM      8  CG2 THR B   2      23.895  -9.668  -6.230  1.00 39.05 LIG 0.04  C 
BRANCH 7 9
ATOM      9 OG1  THR B   2      21.599 -10.204  -6.484  1.00 34.26 LIG-0.39  OA
ATOM     10 HG1  THR B   2      21.624 -10.071  -5.656  1.00 34.26 LIG 0.21  HD
ENDBRANCH 7 9
ENDBRANCH 6 7
BRANCH 6 11
ATOM     11  N   THR B   2      22.156 -11.117  -9.270  1.00 34.82 LIG-0.35  N 
ATOM     12 H    THR B   2      21.862 -11.799  -8.837  1.00 34.82 LIG 0.16  HD
ATOM     13  C   ACE B   1      21.902 -10.858 -10.599  1.00 34.45 LIG 0.21  C 
ATOM     14 O    ACE B   1      22.755 -10.233 -11.243  1.00 39.85 LIG-0.27  OA
ATOM     15  CH3 ACE B   1      21.328 -12.079 -11.234  1.00 40.13 LIG 0.12  C 
ENDBRANCH 6 11
ENDBRANCH 4 6
ENDBRANCH 1 2
BRANCH 1 16
ATOM     16  C   THR B   3      26.037 -12.514 -11.088  1.00 34.35 LIG 0.24  C 
ATOM     17  N   ALA B   4      26.813 -12.384 -12.150  1.00 33.34 LIG-0.35  N 
ATOM     18 H    ALA B   4      27.306 -11.695 -12.300  1.00 33.34 LIG 0.16  HD
ATOM     19 O    THR B   3      25.189 -13.423 -10.965  1.00 38.59 LIG-0.27  OA
BRANCH 17 20
ATOM     20  CA  ALA B   4      26.899 -13.402 -13.163  1.00 37.88 LIG 0.17  C 
ATOM     21  CB  ALA B   4      25.880 -13.151 -14.284  1.00 37.12 LIG 0.04  C 
BRANCH 20 22
ATOM     22  C   ALA B   4      28.326 -13.420 -13.712  1.00 28.06 LIG 0.24  C 
ATOM     23 O    ALA B   4      29.037 -12.398 -13.757  1.00 34.91 LIG-0.27  OA
ATOM     24  N   ILE B   5      28.715 -14.608 -14.136  1.00 35.61 LIG-0.35  N 
ATOM     25 H    ILE B   5      28.194 -15.292 -14.165  1.00 35.61 LIG 0.16  HD
BRANCH 24 26
ATOM     26  CA  ILE B   5      30.061 -14.882 -14.598  1.00 42.31 LIG 0.18  C 
BRANCH 26 27
ATOM     27  C   ILE B   5      29.954 -15.758 -15.849  1.00 33.28 LIG 0.25  C 
ATOM     28 N    NH2 B   6      31.121 -15.632 -16.758  1.00 40.53 LIG-0.06  NA
ATOM     29 O    ILE B   5      29.028 -16.579 -15.990  1.00 43.48 LIG-0.28  OA
ENDBRANCH 26 27
BRANCH 26 30
ATOM     30  CB  ILE B   5      30.867 -15.626 -13.518  1.00 45.91 LIG 0.01  C 
ATOM     31  CG2 ILE B   5      31.242 -16.995 -14.019  1.00 53.83 LIG 0.01  C 
BRANCH 30 32
ATOM     32  CG1 ILE B   5      32.127 -14.862 -13.088  1.00 44.58 LIG 0.00  C 
ATOM     33  CD1 ILE B   5      32.405 -13.579 -13.822  1.00 48.12 LIG 0.01  C 
ENDBRANCH 30 32
ENDBRANCH 26 30
ENDBRANCH 24 26
ENDBRANCH 20 22
ENDBRANCH 17 20
ENDBRANCH 1 16
BRANCH 1 34
ATOM     34  CB  THR B   3      27.382 -11.695  -9.105  1.00 43.32 LIG 0.15  C 
ATOM     35  CG2 THR B   3      27.864 -13.085  -9.276  1.00 50.01 LIG 0.04  C 
BRANCH 34 36
ATOM     36 OG1  THR B   3      28.459 -10.807  -9.440  1.00 43.78 LIG-0.39  OA
ATOM     37 HG1  THR B   3      28.360 -10.531 -10.227  1.00 43.78 LIG 0.21  HD
ENDBRANCH 34 36
ENDBRANCH 1 34
TORSDOF 14
ENDMDL
MODEL 3
USER: ADFR SOLUTION from run 53
USER: SCORE 18.203542 LL:  -2.350 LR: -17.881 RR:   0.000 FEB: -13.704
USER: RMSD 2.107953
USER: SEED 52
USER: STATUS searching
USER: GENES 16
USER: genes 0 Translation |==|  0.48947 0.55532 0.57833
USER: genes 1 Rotation |==|  0.48862 0.50563 0.52938 0.99897
USER: genes 2 Torsion [C]-CA--N-[C] |==|  0.63700
USER: genes 3 Torsion [N]-C--CA-[N] |==|  0.42719
USER: genes 4 Torsion [C]-CA--CB-[CG2] |==|  0.17954
USER: genes 5 Torsion [CA]-CB--OG1-[HG1] |==|  0.35625
USER: genes 6 Torsion [C]-CA--N-[C] |==|  0.58567
USER: genes 7 Torsion [N]-CA--C-[N] |==|  0.41121
USER: genes 8 Torsion [C]-N--CA-[CB] |==|  0.27036
USER: genes 9 Torsion [N]-CA--C-[N] |==|  0.32089
USER: genes 10 Torsion [C]-N--CA-[C] |==|  0.15210
USER: genes 11 Torsion [N]-CA--C-[N] |==|  0.11912
USER: genes 12 Torsion [N]-CA--CB-[CG2] |==|  0.53553
USER: genes 13 Torsion [CA]-CB--CG1-[CD1] |==|  0.71539
USER: genes 14 Torsion [N]-CA--CB-[OG1] |==|  0.60669
USER: genes 15 Torsion [CA]-CB--OG1-[HG1] |==|  0.98937
ROOT
ATOM      1  CA  THR B   3      26.286 -11.541 -10.061  1.00 36.32 LIG 0.20  C 
ENDROOT
BRANCH 1 2
ATOM      2  N   THR B   3      24.987 -11.428  -9.431  1.00 33.83 LIG-0.34  N 
ATOM      3 H    THR B   3      24.643 -12.177  -9.188  1.00 33.83 LIG 0.16  HD
ATOM      4  C   THR B   2      24.396 -10.243  -9.255  1.00 34.16 LIG 0.24  C 
ATOM      5 O    THR B   2      24.980  -9.161  -9.355  1.00 38.62 LIG-0.27  OA
BRANCH 4 6
ATOM      6  CA  THR B   2      22.897 -10.304  -8.935  1.00 35.31 LIG 0.20  C 
BRANCH 6 7
ATOM      7  CB  THR B   2      22.110 -10.486 -10.268  1.00 32.90 LIG 0.15  C 
ATOM      8  CG2 THR B   2      22.443 -11.789 -10.877  1.00 39.05 LIG 0.04  C 
BRANCH 7 9
ATOM      9 OG1  THR B   2      20.700 -10.448  -9.987  1.00 34.26 LIG-0.39  OA
ATOM     10 HG1  THR B   2      20.329  -9.890 -10.493  1.00 34.26 LIG 0.21  HD
ENDBRANCH 7 9
ENDBRANCH 6 7
BRANCH 6 11
ATOM     11  N   THR B   2      22.398  -9.143  -8.170  1.00 34.82 LIG-0.35  N 
ATOM     12 H    THR B   2      22.806  -8.402  -8.318  1.00 34.82 LIG 0.16  HD
ATOM     13  C   ACE B   1      21.346  -9.304  -7.295  1.00 34.45 LIG 0.21  C 
ATOM     14 O    ACE B   1      21.207 -10.406  -6.749  1.00 39.85 LIG-0.27  OA
ATOM     15  CH3 ACE B   1      21.245  -8.096  -6.426  1.00 40.13 LIG 0.12  C 
ENDBRANCH 6 11
ENDBRANCH 4 6
ENDBRANCH 1 2
BRANCH 1 16
ATOM     16  C   THR B   3      26.176 -12.614 -11.136  1.00 34.35 LIG 0.24  C 
ATOM     17  N   ALA B   4      26.953 -12.412 -12.187  1.00 33.34 LIG-0.35  N 
ATOM     18 H    ALA B   4      27.415 -11.697 -12.309  1.00 33.34 LIG 0.16  HD
ATOM     19 O    THR B   3      25.369 -13.564 -11.053  1.00 38.59 LIG-0.27  OA
BRANCH 17 20
ATOM     20  CA  ALA B   4      27.092 -13.389 -13.233  1.00 37.88 LIG 0.17  C 
ATOM     21  CB  ALA B   4      26.169 -13.065 -14.416  1.00 37.12 LIG 0.04  C 
BRANCH 20 22
ATOM     22  C   ALA B   4      28.557 -13.424 -13.672  1.00 28.06 LIG 0.24  C 
ATOM     23 O    ALA B   4      29.113 -12.452 -14.219  1.00 34.91 LIG-0.27  OA
ATOM     24  N   ILE B   5      29.156 -14.574 -13.427  1.00 35.61 LIG-0.35  N 
ATOM     25 H    ILE B   5      28.746 -15.262 -13.114  1.00 35.61 LIG 0.16  HD
BRANCH 24 26
ATOM     26  CA  ILE B   5      30.569 -14.796 -13.662  1.00 42.31 LIG 0.18  C 
BRANCH 26 27
ATOM     27  C   ILE B   5      31.341 -13.714 -12.903  1.00 33.28 LIG 0.25  C 
ATOM     28 N    NH2 B   6      30.814 -13.463 -11.538  1.00 40.53 LIG-0.06  NA
ATOM     29 O    ILE B   5      32.382 -13.212 -13.367  1.00 43.48 LIG-0.28  OA
ENDBRANCH 26 27
BRANCH 26 30
ATOM     30  CB  ILE B   5      30.893 -14.701 -15.163  1.00 45.91 LIG 0.01  C 
ATOM     31  CG2 ILE B   5      32.277 -15.236 -15.418  1.00 53.83 LIG 0.01  C 
BRANCH 30 32
ATOM     32  CG1 ILE B   5      29.875 -15.447 -16.038  1.00 44.58 LIG 0.00  C 
ATOM     33  CD1 ILE B   5      30.310 -16.786 -16.565  1.00 48.12 LIG 0.01  C 
ENDBRANCH 30 32
ENDBRANCH 26 30
ENDBRANCH 24 26
ENDBRANCH 20 22
ENDBRANCH 17 20
ENDBRANCH 1 16
BRANCH 1 34
ATOM     34  CB  THR B   3      27.361 -11.888  -9.020  1.00 43.32 LIG 0.15  C 
ATOM     35  CG2 THR B   3      27.674 -13.335  -9.057  1.00 50.01 LIG 0.04  C 
BRANCH 34 36
ATOM     36 OG1  THR B   3      28.559 -11.167  -9.344  1.00 43.78 LIG-0.39  OA
ATOM     37 HG1  THR B   3      28.446 -10.745 -10.062  1.00 43.78 LIG 0.21  HD
ENDBRANCH 34 36
ENDBRANCH 1 34
TORSDOF 14
ENDMDL
MODEL 4
USER: ADFR SOLUTION from run 111
USER: SCORE 17.751683 LL:  -2.702 LR: -17.581 RR:   0.000 FEB: -13.405
USER: RMSD 9.235666
USER: SEED 110
USER: STATUS no improvement in best in 4 clusters for 5 generations
USER: GENES 16
USER: genes 0 Translation |==|  0.50997 0.48195 0.44485
USER: genes 1 Rotation |==|  0.36366 0.04755 0.66337 0.50348
USER: genes 2 Torsion [C]-CA--N-[C] |==|  0.64890
USER: genes 3 Torsion [N]-C--CA-[N] |==|  0.32844
USER: genes 4 Torsion [C]-CA--CB-[CG2] |==|  0.32132
USER: genes 5 Torsion [CA]-CB--OG1-[HG1] |==|  0.12750
USER: genes 6 Torsion [C]-CA--N-[C] |==|  0.73889
USER: genes 7 Torsion [N]-CA--C-[N] |==|  0.33938
USER: genes 8 Torsion [C]-N--CA-[CB] |==|  0.30702
USER: genes 9 Torsion [N]-CA--C-[N] |==|  0.29147
USER: genes 10 Torsion [C]-N--CA-[C] |==|  0.59484
USER: genes 11 Torsion [N]-CA--C-[N] |==|  0.05696
USER: genes 12 Torsion [N]-CA--CB-[CG2] |==|  0.84189
USER: genes 13 Torsion [CA]-CB--CG1-[CD1] |==|  0.63281
USER: genes 14 Torsion [N]-CA--CB-[OG1] |==|  0.09199
USER: genes 15 Torsion [CA]-CB--OG1-[HG1] |==|  0.02144
ROOT
ATOM      1  CA  THR B   3      26.701 -12.752 -12.564  1.00 36.32 LIG 0.20  C 
ENDROOT
BRANCH 1 2
ATOM      2  N   THR B   3      27.801 -13.601 -12.971  1.00 33.83 LIG-0.34  N 
ATOM      3 H    THR B   3      27.754 -14.409 -12.679  1.00 33.83 LIG 0.16  HD
ATOM      4  C   THR B   2      28.794 -13.142 -13.736  1.00 34.16 LIG 0.24  C 
ATOM      5 O    THR B   2      28.742 -12.084 -14.369  1.00 38.62 LIG-0.27  OA
BRANCH 4 6
ATOM      6  CA  THR B   2      30.052 -14.018 -13.767  1.00 35.31 LIG 0.20  C 
BRANCH 6 7
ATOM      7  CB  THR B   2      31.240 -13.208 -13.165  1.00 32.90 LIG 0.15  C 
ATOM      8  CG2 THR B   2      31.713 -13.852 -11.924  1.00 39.05 LIG 0.04  C 
BRANCH 7 9
ATOM      9 OG1  THR B   2      32.316 -13.179 -14.118  1.00 34.26 LIG-0.39  OA
ATOM     10 HG1  THR B   2      32.012 -12.996 -14.878  1.00 34.26 LIG 0.21  HD
ENDBRANCH 7 9
ENDBRANCH 6 7
BRANCH 6 11
ATOM     11  N   THR B   2      30.385 -14.546 -15.106  1.00 34.82 LIG-0.35  N 
ATOM     12 H    THR B   2      30.858 -14.025 -15.600  1.00 34.82 LIG 0.16  HD
ATOM     13  C   ACE B   1      29.938 -15.795 -15.478  1.00 34.45 LIG 0.21  C 
ATOM     14 O    ACE B   1      28.875 -16.202 -14.991  1.00 39.85 LIG-0.27  OA
ATOM     15  CH3 ACE B   1      30.120 -15.960 -16.949  1.00 40.13 LIG 0.12  C 
ENDBRANCH 6 11
ENDBRANCH 4 6
ENDBRANCH 1 2
BRANCH 1 16
ATOM     16  C   THR B   3      26.601 -12.834 -11.047  1.00 34.35 LIG 0.24  C 
ATOM     17  N   ALA B   4      26.709 -11.669 -10.432  1.00 33.34 LIG-0.35  N 
ATOM     18 H    ALA B   4      26.909 -10.934 -10.831  1.00 33.34 LIG 0.16  HD
ATOM     19 O    THR B   3      26.493 -13.922 -10.442  1.00 38.59 LIG-0.27  OA
BRANCH 17 20
ATOM     20  CA  ALA B   4      26.495 -11.530  -9.016  1.00 37.88 LIG 0.17  C 
ATOM     21  CB  ALA B   4      27.811 -11.221  -8.288  1.00 37.12 LIG 0.04  C 
BRANCH 20 22
ATOM     22  C   ALA B   4      25.467 -10.421  -8.788  1.00 28.06 LIG 0.24  C 
ATOM     23 O    ALA B   4      25.752  -9.213  -8.899  1.00 34.91 LIG-0.27  OA
ATOM     24  N   ILE B   5      24.270 -10.869  -8.454  1.00 35.61 LIG-0.35  N 
ATOM     25 H    ILE B   5      24.101 -11.700  -8.311  1.00 35.61 LIG 0.16  HD
BRANCH 24 26
ATOM     26  CA  ILE B   5      23.119 -10.004  -8.293  1.00 42.31 LIG 0.18  C 
BRANCH 26 27
ATOM     27  C   ILE B   5      22.254 -10.587  -7.172  1.00 33.28 LIG 0.25  C 
ATOM     28 N    NH2 B   6      22.997 -11.506  -6.272  1.00 40.53 LIG-0.06  NA
ATOM     29 O    ILE B   5      21.084 -10.204  -6.987  1.00 43.48 LIG-0.28  OA
ENDBRANCH 26 27
BRANCH 26 30
ATOM     30  CB  ILE B   5      22.299  -9.940  -9.593  1.00 45.91 LIG 0.01  C 
ATOM     31  CG2 ILE B   5      23.176  -9.472 -10.723  1.00 53.83 LIG 0.01  C 
BRANCH 30 32
ATOM     32  CG1 ILE B   5      21.654 -11.286  -9.954  1.00 44.58 LIG 0.00  C 
ATOM     33  CD1 ILE B   5      21.826 -11.742 -11.376  1.00 48.12 LIG 0.01  C 
ENDBRANCH 30 32
ENDBRANCH 26 30
ENDBRANCH 24 26
ENDBRANCH 20 22
ENDBRANCH 17 20
ENDBRANCH 1 16
BRANCH 1 34
ATOM     34  CB  THR B   3      25.397 -13.197 -13.244  1.00 43.32 LIG 0.15  C 
ATOM     35  CG2 THR B   3      25.275 -12.587 -14.588  1.00 50.01 LIG 0.04  C 
BRANCH 34 36
ATOM     36 OG1  THR B   3      25.431 -14.623 -13.406  1.00 43.78 LIG-0.39  OA
ATOM     37 HG1  THR B   3      26.101 -14.934 -13.006  1.00 43.78 LIG 0.21  HD
ENDBRANCH 34 36
ENDBRANCH 1 34
TORSDOF 14
ENDMDL
MODEL 5
USER: ADFR SOLUTION from run 57
USER: SCORE 17.718562 LL:  -3.017 LR: -17.136 RR:   0.000 FEB: -12.960
USER: RMSD 8.818377
USER: SEED 56
USER: STATUS no improvement in best in 7 clusters for 5 generations
USER: GENES 16
USER: genes 0 Translation |==|  0.51251 0.48026 0.44815
USER: genes 1 Rotation |==|  0.33810 0.05574 0.66224 0.50996
USER: genes 2 Torsion [C]-CA--N-[C] |==|  0.68086
USER: genes 3 Torsion [N]-C--CA-[N] |==|  0.92950
USER: genes 4 Torsion [C]-CA--CB-[CG2] |==|  0.42278
USER: genes 5 Torsion [CA]-CB--OG1-[HG1] |==|  0.00464
USER: genes 6 Torsion [C]-CA--N-[C] |==|  0.76509
USER: genes 7 Torsion [N]-CA--C-[N] |==|  0.35532
USER: genes 8 Torsion [C]-N--CA-[CB] |==|  0.30933
USER: genes 9 Torsion [N]-CA--C-[N] |==|  0.28673
USER: genes 10 Torsion [C]-N--CA-[C] |==|  0.60184
USER: genes 11 Torsion [N]-CA--C-[N] |==|  0.05999
USER: genes 12 Torsion [N]-CA--CB-[CG2] |==|  0.83205
USER: genes 13 Torsion [CA]-CB--CG1-[CD1] |==|  0.65697
USER: genes 14 Torsion [N]-CA--CB-[OG1] |==|  0.08882
USER: genes 15 Torsion [CA]-CB--OG1-[HG1] |==|  0.05637
ROOT
ATOM      1  CA  THR B   3      26.752 -12.780 -12.502  1.00 36.32 LIG 0.20  C 
ENDROOT
BRANCH 1 2
ATOM      2  N   THR B   3      27.757 -13.745 -12.897  1.00 33.83 LIG-0.34  N 
ATOM      3 H    THR B   3      27.543 -14.564 -12.742  1.00 33.83 LIG 0.16  HD
ATOM      4  C   THR B   2      28.910 -13.367 -13.453  1.00 34.16 LIG 0.24  C 
ATOM      5 O    THR B   2      29.115 -12.242 -13.915  1.00 38.62 LIG-0.27  OA
BRANCH 4 6
ATOM      6  CA  THR B   2      30.010 -14.436 -13.464  1.00 35.31 LIG 0.20  C 
BRANCH 6 7
ATOM      7  CB  THR B   2      30.048 -15.098 -14.875  1.00 32.90 LIG 0.15  C 
ATOM      8  CG2 THR B   2      31.407 -15.597 -15.163  1.00 39.05 LIG 0.04  C 
BRANCH 7 9
ATOM      9 OG1  THR B   2      29.129 -16.204 -14.897  1.00 34.26 LIG-0.39  OA
ATOM     10 HG1  THR B   2      28.739 -16.259 -14.155  1.00 34.26 LIG 0.21  HD
ENDBRANCH 7 9
ENDBRANCH 6 7
BRANCH 6 11
ATOM     11  N   THR B   2      29.875 -15.449 -12.398  1.00 34.82 LIG-0.35  N 
ATOM     12 H    THR B   2      29.471 -16.173 -12.627  1.00 34.82 LIG 0.16  HD
ATOM     13  C   ACE B   1      30.382 -15.192 -11.143  1.00 34.45 LIG 0.21  C 
ATOM     14 O    ACE B   1      30.423 -14.015 -10.763  1.00 39.85 LIG-0.27  OA
ATOM     15  CH3 ACE B   1      29.847 -16.200 -10.184  1.00 40.13 LIG 0.12  C 
ENDBRANCH 6 11
ENDBRANCH 4 6
ENDBRANCH 1 2
BRANCH 1 16
ATOM     16  C   THR B   3      26.628 -12.849 -10.986  1.00 34.35 LIG 0.24  C 
ATOM     17  N   ALA B   4      26.737 -11.680 -10.378  1.00 33.34 LIG-0.35  N 
ATOM     18 H    ALA B   4      26.952 -10.951 -10.780  1.00 33.34 LIG 0.16  HD
ATOM     19 O    THR B   3      26.499 -13.931 -10.375  1.00 38.59 LIG-0.27  OA
BRANCH 17 20
ATOM     20  CA  ALA B   4      26.503 -11.528  -8.967  1.00 37.88 LIG 0.17  C 
ATOM     21  CB  ALA B   4      27.807 -11.207  -8.223  1.00 37.12 LIG 0.04  C 
BRANCH 20 22
ATOM     22  C   ALA B   4      25.467 -10.421  -8.765  1.00 28.06 LIG 0.24  C 
ATOM     23 O    ALA B   4      25.756  -9.212  -8.853  1.00 34.91 LIG-0.27  OA
ATOM     24  N   ILE B   5      24.259 -10.872  -8.479  1.00 35.61 LIG-0.35  N 
ATOM     25 H    ILE B   5      24.085 -11.704  -8.351  1.00 35.61 LIG 0.16  HD
BRANCH 24 26
ATOM     26  CA  ILE B   5      23.103 -10.008  -8.350  1.00 42.31 LIG 0.18  C 
BRANCH 26 27
ATOM     27  C   ILE B   5      22.229 -10.567  -7.225  1.00 33.28 LIG 0.25  C 
ATOM     28 N    NH2 B   6      22.972 -11.439  -6.280  1.00 40.53 LIG-0.06  NA
ATOM     29 O    ILE B   5      21.049 -10.199  -7.073  1.00 43.48 LIG-0.28  OA
ENDBRANCH 26 27
BRANCH 26 30
ATOM     30  CB  ILE B   5      22.295  -9.980  -9.660  1.00 45.91 LIG 0.01  C 
ATOM     31  CG2 ILE B   5      23.158  -9.454 -10.776  1.00 53.83 LIG 0.01  C 
BRANCH 30 32
ATOM     32  CG1 ILE B   5      21.732 -11.358 -10.039  1.00 44.58 LIG 0.00  C 
ATOM     33  CD1 ILE B   5      22.118 -11.880 -11.395  1.00 48.12 LIG 0.01  C 
ENDBRANCH 30 32
ENDBRANCH 26 30
ENDBRANCH 24 26
ENDBRANCH 20 22
ENDBRANCH 17 20
ENDBRANCH 1 16
BRANCH 1 34
ATOM     34  CB  THR B   3      25.415 -13.080 -13.196  1.00 43.32 LIG 0.15  C 
ATOM     35  CG2 THR B   3      25.365 -12.438 -14.530  1.00 50.01 LIG 0.04  C 
BRANCH 34 36
ATOM     36 OG1  THR B   3      25.306 -14.498 -13.383  1.00 43.78 LIG-0.39  OA
ATOM     37 HG1  THR B   3      25.826 -14.891 -12.852  1.00 43.78 LIG 0.21  HD
ENDBRANCH 34 36
ENDBRANCH 1 34
TORSDOF 14
ENDMDL
MODEL 6
USER: ADFR SOLUTION from run 53
USER: SCORE 17.513212 LL:  -2.686 LR: -16.748 RR:   0.000 FEB: -12.572
USER: RMSD 2.879264
USER: SEED 52
USER: STATUS searching
USER: GENES 16
USER: genes 0 Translation |==|  0.49006 0.54883 0.59221
USER: genes 1 Rotation |==|  0.51060 0.47472 0.48566 0.99904
USER: genes 2 Torsion [C]-CA--N-[C] |==|  0.62958
USER: genes 3 Torsion [N]-C--CA-[N] |==|  0.93456
USER: genes 4 Torsion [C]-CA--CB-[CG2] |==|  0.36635
USER: genes 5 Torsion [CA]-CB--OG1-[HG1] |==|  0.11459
USER: genes 6 Torsion [C]-CA--N-[C] |==|  0.77226
USER: genes 7 Torsion [N]-CA--C-[N] |==|  0.41111
USER: genes 8 Torsion [C]-N--CA-[CB] |==|  0.24771
USER: genes 9 Torsion [N]-CA--C-[N] |==|  0.32893
USER: genes 10 Torsion [C]-N--CA-[C] |==|  0.14544
USER: genes 11 Torsion [N]-CA--C-[N] |==|  0.11270
USER: genes 12 Torsion [N]-CA--CB-[CG2] |==|  0.53809
USER: genes 13 Torsion [CA]-CB--CG1-[CD1] |==|  0.69437
USER: genes 14 Torsion [N]-CA--CB-[OG1] |==|  0.06061
USER: genes 15 Torsion [CA]-CB--OG1-[HG1] |==|  0.05478
ROOT
ATOM      1  CA  THR B   3      26.298 -11.648  -9.801  1.00 36.32 LIG 0.20  C 
ENDROOT
BRANCH 1 2
ATOM      2  N   THR B   3      24.965 -11.358  -9.314  1.00 33.83 LIG-0.34  N 
ATOM      3 H    THR B   3      24.461 -12.049  -9.224  1.00 33.83 LIG 0.16  HD
ATOM      4  C   THR B   2      24.579 -10.111  -9.035  1.00 34.16 LIG 0.24  C 
ATOM      5 O    THR B   2      25.356  -9.162  -8.908  1.00 38.62 LIG-0.27  OA
BRANCH 4 6
ATOM      6  CA  THR B   2      23.063  -9.913  -8.901  1.00 35.31 LIG 0.20  C 
BRANCH 6 7
ATOM      7  CB  THR B   2      22.699  -9.856  -7.387  1.00 32.90 LIG 0.15  C 
ATOM      8  CG2 THR B   2      21.822  -8.700  -7.121  1.00 39.05 LIG 0.04  C 
BRANCH 7 9
ATOM      9 OG1  THR B   2      22.005 -11.063  -7.028  1.00 34.26 LIG-0.39  OA
ATOM     10 HG1  THR B   2      22.373 -11.719  -7.401  1.00 34.26 LIG 0.21  HD
ENDBRANCH 7 9
ENDBRANCH 6 7
BRANCH 6 11
ATOM     11  N   THR B   2      22.259 -10.928  -9.611  1.00 34.82 LIG-0.35  N 
ATOM     12 H    THR B   2      21.966 -11.572  -9.122  1.00 34.82 LIG 0.16  HD
ATOM     13  C   ACE B   1      22.030 -10.796 -10.963  1.00 34.45 LIG 0.21  C 
ATOM     14 O    ACE B   1      22.887 -10.219 -11.644  1.00 39.85 LIG-0.27  OA
ATOM     15  CH3 ACE B   1      21.487 -12.079 -11.494  1.00 40.13 LIG 0.12  C 
ENDBRANCH 6 11
ENDBRANCH 4 6
ENDBRANCH 1 2
BRANCH 1 16
ATOM     16  C   THR B   3      26.152 -12.593 -10.986  1.00 34.35 LIG 0.24  C 
ATOM     17  N   ALA B   4      27.080 -12.446 -11.916  1.00 33.34 LIG-0.35  N 
ATOM     18 H    ALA B   4      27.666 -11.817 -11.911  1.00 33.34 LIG 0.16  HD
ATOM     19 O    THR B   3      25.195 -13.389 -11.093  1.00 38.59 LIG-0.27  OA
BRANCH 17 20
ATOM     20  CA  ALA B   4      27.190 -13.343 -13.035  1.00 37.88 LIG 0.17  C 
ATOM     21  CB  ALA B   4      26.327 -12.865 -14.211  1.00 37.12 LIG 0.04  C 
BRANCH 20 22
ATOM     22  C   ALA B   4      28.662 -13.440 -13.436  1.00 28.06 LIG 0.24  C 
ATOM     23 O    ALA B   4      29.311 -12.454 -13.837  1.00 34.91 LIG-0.27  OA
ATOM     24  N   ILE B   5      29.162 -14.657 -13.328  1.00 35.61 LIG-0.35  N 
ATOM     25 H    ILE B   5      28.689 -15.344 -13.118  1.00 35.61 LIG 0.16  HD
BRANCH 24 26
ATOM     26  CA  ILE B   5      30.561 -14.961 -13.553  1.00 42.31 LIG 0.18  C 
BRANCH 26 27
ATOM     27  C   ILE B   5      31.388 -14.010 -12.685  1.00 33.28 LIG 0.25  C 
ATOM     28 N    NH2 B   6      30.814 -13.799 -11.331  1.00 40.53 LIG-0.06  NA
ATOM     29 O    ILE B   5      32.494 -13.579 -13.062  1.00 43.48 LIG-0.28  OA
ENDBRANCH 26 27
BRANCH 26 30
ATOM     30  CB  ILE B   5      30.932 -14.758 -15.033  1.00 45.91 LIG 0.01  C 
ATOM     31  CG2 ILE B   5      32.269 -15.389 -15.311  1.00 53.83 LIG 0.01  C 
BRANCH 30 32
ATOM     32  CG1 ILE B   5      29.875 -15.327 -15.991  1.00 44.58 LIG 0.00  C 
ATOM     33  CD1 ILE B   5      30.276 -16.551 -16.767  1.00 48.12 LIG 0.01  C 
ENDBRANCH 30 32
ENDBRANCH 26 30
ENDBRANCH 24 26
ENDBRANCH 20 22
ENDBRANCH 17 20
ENDBRANCH 1 16
BRANCH 1 34
ATOM     34  CB  THR B   3      27.157 -12.265  -8.686  1.00 43.32 LIG 0.15  C 
ATOM     35  CG2 THR B   3      27.981 -11.225  -8.028  1.00 50.01 LIG 0.04  C 
BRANCH 34 36
ATOM     36 OG1  THR B   3      26.283 -12.829  -7.697  1.00 43.78 LIG-0.39  OA
ATOM     37 HG1  THR B   3      25.523 -12.955  -8.034  1.00 43.78 LIG 0.21  HD
ENDBRANCH 34 36
ENDBRANCH 1 34
TORSDOF 14
ENDMDL
MODEL 7
USER: ADFR SOLUTION from run 177
USER: SCORE 16.279577 LL:  -2.731 LR: -16.569 RR:   0.000 FEB: -12.393
USER: RMSD 9.104496
USER: SEED 176
USER: STATUS 1 or 2 clusters left
USER: GENES 16
USER: genes 0 Translation |==|  0.51876 0.48431 0.44121
USER: genes 1 Rotation |==|  0.64917 0.94954 0.34034 0.51308
USER: genes 2 Torsion [C]-CA--N-[C] |==|  0.63608
USER: genes 3 Torsion [N]-C--CA-[N] |==|  0.34253
USER: genes 4 Torsion [C]-CA--CB-[CG2] |==|  0.32819
USER: genes 5 Torsion [CA]-CB--OG1-[HG1] |==|  0.16491
USER: genes 6 Torsion [C]-CA--N-[C] |==|  0.69513
USER: genes 7 Torsion [N]-CA--C-[N] |==|  0.28384
USER: genes 8 Torsion [C]-N--CA-[CB] |==|  0.39366
USER: genes 9 Torsion [N]-CA--C-[N] |==|  0.22812
USER: genes 10 Torsion [C]-N--CA-[C] |==|  0.17204
USER: genes 11 Torsion [N]-CA--C-[N] |==|  0.22751
USER: genes 12 Torsion [N]-CA--CB-[CG2] |==|  0.52204
USER: genes 13 Torsion [CA]-CB--CG1-[CD1] |==|  0.28551
USER: genes 14 Torsion [N]-CA--CB-[OG1] |==|  0.02501
USER: genes 15 Torsion [CA]-CB--OG1-[HG1] |==|  0.11652
ROOT
ATOM      1  CA  THR B   3      26.879 -12.713 -12.632  1.00 36.32 LIG 0.20  C 
ENDROOT
BRANCH 1 2
ATOM      2  N   THR B   3      27.983 -13.597 -12.942  1.00 33.83 LIG-0.34  N 
ATOM      3 H    THR B   3      27.919 -14.381 -12.596  1.00 33.83 LIG 0.16  HD
ATOM      4  C   THR B   2      29.005 -13.199 -13.705  1.00 34.16 LIG 0.24  C 
ATOM      5 O    THR B   2      28.983 -12.188 -14.412  1.00 38.62 LIG-0.27  OA
BRANCH 4 6
ATOM      6  CA  THR B   2      30.255 -14.084 -13.634  1.00 35.31 LIG 0.20  C 
BRANCH 6 7
ATOM      7  CB  THR B   2      31.394 -13.283 -12.933  1.00 32.90 LIG 0.15  C 
ATOM      8  CG2 THR B   2      31.798 -13.965 -11.688  1.00 39.05 LIG 0.04  C 
BRANCH 7 9
ATOM      9 OG1  THR B   2      32.526 -13.211 -13.816  1.00 34.26 LIG-0.39  OA
ATOM     10 HG1  THR B   2      32.300 -12.830 -14.530  1.00 34.26 LIG 0.21  HD
ENDBRANCH 7 9
ENDBRANCH 6 7
BRANCH 6 11
ATOM     11  N   THR B   2      30.695 -14.612 -14.941  1.00 34.82 LIG-0.35  N 
ATOM     12 H    THR B   2      31.027 -14.030 -15.480  1.00 34.82 LIG 0.16  HD
ATOM     13  C   ACE B   1      30.554 -15.954 -15.219  1.00 34.45 LIG 0.21  C 
ATOM     14 O    ACE B   1      29.622 -16.565 -14.680  1.00 39.85 LIG-0.27  OA
ATOM     15  CH3 ACE B   1      30.760 -16.175 -16.679  1.00 40.13 LIG 0.12  C 
ENDBRANCH 6 11
ENDBRANCH 4 6
ENDBRANCH 1 2
BRANCH 1 16
ATOM     16  C   THR B   3      26.655 -12.777 -11.127  1.00 34.35 LIG 0.24  C 
ATOM     17  N   ALA B   4      27.139 -11.743 -10.462  1.00 33.34 LIG-0.35  N 
ATOM     18 H    ALA B   4      27.620 -11.126 -10.820  1.00 33.34 LIG 0.16  HD
ATOM     19 O    THR B   3      26.118 -13.759 -10.573  1.00 38.59 LIG-0.27  OA
BRANCH 17 20
ATOM     20  CA  ALA B   4      26.896 -11.558  -9.056  1.00 37.88 LIG 0.17  C 
ATOM     21  CB  ALA B   4      28.142 -11.003  -8.350  1.00 37.12 LIG 0.04  C 
BRANCH 20 22
ATOM     22  C   ALA B   4      25.704 -10.615  -8.890  1.00 28.06 LIG 0.24  C 
ATOM     23 O    ALA B   4      25.842  -9.398  -8.658  1.00 34.91 LIG-0.27  OA
ATOM     24  N   ILE B   5      24.533 -11.216  -9.002  1.00 35.61 LIG-0.35  N 
ATOM     25 H    ILE B   5      24.448 -12.066  -9.092  1.00 35.61 LIG 0.16  HD
BRANCH 24 26
ATOM     26  CA  ILE B   5      23.273 -10.502  -8.985  1.00 42.31 LIG 0.18  C 
BRANCH 26 27
ATOM     27  C   ILE B   5      23.262  -9.551 -10.184  1.00 33.28 LIG 0.25  C 
ATOM     28 N    NH2 B   6      22.876 -10.211 -11.456  1.00 40.53 LIG-0.06  NA
ATOM     29 O    ILE B   5      23.437  -8.325 -10.044  1.00 43.48 LIG-0.28  OA
ENDBRANCH 26 27
BRANCH 26 30
ATOM     30  CB  ILE B   5      23.123  -9.691  -7.685  1.00 45.91 LIG 0.01  C 
ATOM     31  CG2 ILE B   5      21.733  -9.119  -7.603  1.00 53.83 LIG 0.01  C 
BRANCH 30 32
ATOM     32  CG1 ILE B   5      23.421 -10.524  -6.430  1.00 44.58 LIG 0.00  C 
ATOM     33  CD1 ILE B   5      24.762 -10.297  -5.789  1.00 48.12 LIG 0.01  C 
ENDBRANCH 30 32
ENDBRANCH 26 30
ENDBRANCH 24 26
ENDBRANCH 20 22
ENDBRANCH 17 20
ENDBRANCH 1 16
BRANCH 1 34
ATOM     34  CB  THR B   3      25.622 -13.129 -13.412  1.00 43.32 LIG 0.15  C 
ATOM     35  CG2 THR B   3      25.314 -12.140 -14.470  1.00 50.01 LIG 0.04  C 
BRANCH 34 36
ATOM     36 OG1  THR B   3      25.875 -14.391 -14.045  1.00 43.78 LIG-0.39  OA
ATOM     37 HG1  THR B   3      26.285 -14.895 -13.512  1.00 43.78 LIG 0.21  HD
ENDBRANCH 34 36
ENDBRANCH 1 34
TORSDOF 14
ENDMDL
