MODEL 1
USER: ADFR SOLUTION from run 197
USER: SCORE 19.460344 LL:  -1.538 LR: -18.415 RR:   0.000 FEB: -12.747
USER: RMSD 2.638473
USER: SEED 196
USER: STATUS no improvement in best in 8 clusters for 5 generations
USER: GENES 21
USER: genes 0 Translation |==|  0.48510 0.39312 0.59553
USER: genes 1 Rotation |==|  0.53962 0.57298 0.46402 0.99174
USER: genes 2 Torsion [N]-C--CA-[N] |==|  0.51097
USER: genes 3 Torsion [C]-CA--CB-[CG] |==|  0.56502
USER: genes 4 Torsion [CA]-CB--CG-[CD] |==|  0.84152
USER: genes 5 Torsion [CB]-CG--CD-[NE] |==|  0.42318
USER: genes 6 Torsion [CG]-CD--NE-[CZ] |==|  0.59822
USER: genes 7 Torsion [C]-CA--N-[C] |==|  0.70353
USER: genes 8 Torsion [N]-C--CA-[N] |==|  0.25967
USER: genes 9 Torsion [C]-CA--N-[H2] |==|  0.68739
USER: genes 10 Torsion [C]-N--CA-[C] |==|  0.61384
USER: genes 11 Torsion [N]-CA--C-[N] |==|  0.41910
USER: genes 12 Torsion [C]-N--CA-[CB] |==|  0.40225
USER: genes 13 Torsion [N]-CA--C-[O] |==|  0.03293
USER: genes 14 Torsion [N]-CA--CB-[CG] |==|  0.20293
USER: genes 15 Torsion [CA]-CB--CG-[CD] |==|  0.47169
USER: genes 16 Torsion [CB]-CG--CD-[CE] |==|  0.77096
USER: genes 17 Torsion [CG]-CD--CE-[NZ] |==|  0.71678
USER: genes 18 Torsion [CD]-CE--NZ-[HZ1] |==|  0.44097
USER: genes 19 Torsion [N]-CA--CB-[OG1] |==|  0.53239
USER: genes 20 Torsion [CA]-CB--OG1-[HG1] |==|  0.78934
ROOT
ATOM      1  C   ARG H   2     -15.582   1.546 -50.994  1.00 59.87 LIG 0.24  C 
ATOM      2 O    ARG H   2     -14.827   1.460 -50.012  1.00 53.61 LIG-0.27  OA
ATOM      3  N   THR H   3     -15.148   1.689 -52.251  1.00 55.49 LIG-0.34  N 
ATOM      4 H    THR H   3     -15.670   1.653 -52.934  1.00 55.49 LIG 0.16  HD
ENDROOT
BRANCH 1 5
ATOM      5  CA  ARG H   2     -17.109   1.483 -50.819  1.00 59.74 LIG 0.18  C 
BRANCH 5 6
ATOM      6  CB  ARG H   2     -17.732   2.717 -51.492  1.00 62.34 LIG 0.04  C 
BRANCH 6 7
ATOM      7  CG  ARG H   2     -19.105   3.128 -50.975  1.00 66.72 LIG 0.02  C 
BRANCH 7 8
ATOM      8  CD  ARG H   2     -20.135   2.014 -51.082  1.00 71.24 LIG 0.14  C 
BRANCH 8 9
ATOM      9  NE  ARG H   2     -21.172   2.160 -50.053  1.00 73.29 LIG-0.23  N 
ATOM     10  CZ  ARG H   2     -21.784   1.158 -49.418  1.00 77.12 LIG 0.67  C 
ATOM     11  NH1 ARG H   2     -21.494  -0.110 -49.687  1.00 77.82 LIG-0.23  N 
ATOM     12  NH2 ARG H   2     -22.708   1.430 -48.503  1.00 76.44 LIG-0.23  N 
ATOM     13 1HH1 ARG H   2     -20.901  -0.299 -50.281  1.00 77.82 LIG 0.17  HD
ATOM     14 2HH1 ARG H   2     -21.899  -0.742 -49.267  1.00 77.82 LIG 0.17  HD
ATOM     15 2HH2 ARG H   2     -23.106   0.789 -48.091  1.00 76.44 LIG 0.17  HD
ATOM     16 1HH2 ARG H   2     -22.909   2.247 -48.323  1.00 76.44 LIG 0.17  HD
ATOM     17 HE   ARG H   2     -21.405   2.960 -49.841  1.00 73.29 LIG 0.18  HD
ENDBRANCH 8 9
ENDBRANCH 7 8
ENDBRANCH 6 7
ENDBRANCH 5 6
BRANCH 5 18
ATOM     18  N   ARG H   2     -17.473   1.420 -49.395  1.00 53.58 LIG-0.35  N 
ATOM     19  C   ALA H   1     -17.923   0.307 -48.820  1.00 57.33 LIG 0.25  C 
ATOM     20 O    ALA H   1     -18.133  -0.735 -49.445  1.00 53.10 LIG-0.27  OA
ATOM     21 H    ARG H   2     -17.369   2.162 -48.973  1.00 53.58 LIG 0.16  HD
BRANCH 19 22
ATOM     22  CA  ALA H   1     -18.207   0.374 -47.314  1.00 57.31 LIG 0.27  C 
ATOM     23  CB  ALA H   1     -17.849  -0.946 -46.629  1.00 59.00 LIG 0.05  C 
BRANCH 22 24
ATOM     24  N   ALA H   1     -19.645   0.710 -47.068  1.00 52.22 LIG-0.07  N 
ATOM     25 H2   ALA H   1     -19.702   1.519 -46.702  1.00 52.22 LIG 0.28  HD
ATOM     26 H3   ALA H   1     -20.088   0.703 -47.841  1.00 52.22 LIG 0.28  HD
ATOM     27 H1   ALA H   1     -20.000   0.109 -46.517  1.00 52.22 LIG 0.28  HD
ENDBRANCH 22 24
ENDBRANCH 19 22
ENDBRANCH 5 18
ENDBRANCH 1 5
BRANCH 3 28
ATOM     28  CA  THR H   3     -13.748   1.920 -52.597  1.00 54.46 LIG 0.20  C 
BRANCH 28 29
ATOM     29  C   THR H   3     -13.654   2.968 -53.724  1.00 57.92 LIG 0.24  C 
ATOM     30  N   LYS H   4     -12.549   3.712 -53.744  1.00 54.07 LIG-0.35  N 
ATOM     31 H    LYS H   4     -11.897   3.609 -53.192  1.00 54.07 LIG 0.16  HD
ATOM     32 O    THR H   3     -14.569   3.112 -54.535  1.00 54.85 LIG-0.27  OA
BRANCH 30 33
ATOM     33  CA  LYS H   4     -12.339   4.791 -54.727  1.00 57.41 LIG 0.16  C 
BRANCH 33 34
ATOM     34  C   LYS H   4     -11.587   4.347 -55.983  1.00 56.46 LIG 0.22  C 
ATOM     35 O    LYS H   4     -11.407   3.148 -56.209  1.00 60.38 LIG-0.29  OA
ENDBRANCH 33 34
BRANCH 33 36
ATOM     36  CB  LYS H   4     -11.572   5.924 -54.057  1.00 56.01 LIG 0.03  C 
BRANCH 36 37
ATOM     37  CG  LYS H   4     -10.109   5.644 -53.796  1.00 58.87 LIG 0.00  C 
BRANCH 37 38
ATOM     38  CD  LYS H   4      -9.400   6.919 -53.364  1.00 59.29 LIG 0.03  C 
BRANCH 38 39
ATOM     39  CE  LYS H   4      -9.015   7.755 -54.574  1.00 63.77 LIG 0.23  C 
BRANCH 39 40
ATOM     40  NZ  LYS H   4      -7.573   7.608 -54.892  1.00 66.19 LIG-0.08  N 
ATOM     41 HZ1  LYS H   4      -7.430   7.835 -55.741  1.00 66.19 LIG 0.27  HD
ATOM     42 HZ2  LYS H   4      -7.096   8.138 -54.360  1.00 66.19 LIG 0.27  HD
ATOM     43 HZ3  LYS H   4      -7.326   6.762 -54.767  1.00 66.19 LIG 0.27  HD
ENDBRANCH 39 40
ENDBRANCH 38 39
ENDBRANCH 37 38
ENDBRANCH 36 37
ENDBRANCH 33 36
ENDBRANCH 30 33
ENDBRANCH 28 29
BRANCH 28 44
ATOM     44  CB  THR H   3     -13.024   0.610 -52.991  1.00 52.58 LIG 0.15  C 
ATOM     45  CG2 THR H   3     -13.513   0.146 -54.342  1.00 50.21 LIG 0.04  C 
BRANCH 44 46
ATOM     46 OG1  THR H   3     -11.606   0.820 -53.061  1.00 49.67 LIG-0.39  OA
ATOM     47 HG1  THR H   3     -11.418   1.235 -53.767  1.00 49.67 LIG 0.21  HD
ENDBRANCH 44 46
ENDBRANCH 28 44
ENDBRANCH 3 28
TORSDOF 19
ENDMDL
MODEL 2
USER: ADFR SOLUTION from run 197
USER: SCORE 19.059696 LL:  -1.450 LR: -18.212 RR:   0.000 FEB: -12.544
USER: RMSD 3.295786
USER: SEED 196
USER: STATUS no improvement in best in 8 clusters for 5 generations
USER: GENES 21
USER: genes 0 Translation |==|  0.48604 0.40718 0.58639
USER: genes 1 Rotation |==|  0.58589 0.55927 0.43498 0.98465
USER: genes 2 Torsion [N]-C--CA-[N] |==|  0.52008
USER: genes 3 Torsion [C]-CA--CB-[CG] |==|  0.51749
USER: genes 4 Torsion [CA]-CB--CG-[CD] |==|  0.37553
USER: genes 5 Torsion [CB]-CG--CD-[NE] |==|  0.55912
USER: genes 6 Torsion [CG]-CD--NE-[CZ] |==|  0.46721
USER: genes 7 Torsion [C]-CA--N-[C] |==|  0.74714
USER: genes 8 Torsion [N]-C--CA-[N] |==|  0.22354
USER: genes 9 Torsion [C]-CA--N-[H2] |==|  0.53739
USER: genes 10 Torsion [C]-N--CA-[C] |==|  0.58537
USER: genes 11 Torsion [N]-CA--C-[N] |==|  0.37792
USER: genes 12 Torsion [C]-N--CA-[CB] |==|  0.43793
USER: genes 13 Torsion [N]-CA--C-[O] |==|  0.49053
USER: genes 14 Torsion [N]-CA--CB-[CG] |==|  0.25505
USER: genes 15 Torsion [CA]-CB--CG-[CD] |==|  0.44120
USER: genes 16 Torsion [CB]-CG--CD-[CE] |==|  0.75513
USER: genes 17 Torsion [CG]-CD--CE-[NZ] |==|  0.72953
USER: genes 18 Torsion [CD]-CE--NZ-[HZ1] |==|  0.09263
USER: genes 19 Torsion [N]-CA--CB-[OG1] |==|  0.55266
USER: genes 20 Torsion [CA]-CB--OG1-[HG1] |==|  0.78539
ROOT
ATOM      1  C   ARG H   2     -15.558   1.830 -51.152  1.00 59.87 LIG 0.24  C 
ATOM      2 O    ARG H   2     -14.889   1.477 -50.167  1.00 53.61 LIG-0.27  OA
ATOM      3  N   THR H   3     -15.027   2.104 -52.348  1.00 55.49 LIG-0.34  N 
ATOM      4 H    THR H   3     -15.502   2.256 -53.049  1.00 55.49 LIG 0.16  HD
ENDROOT
BRANCH 1 5
ATOM      5  CA  ARG H   2     -17.087   1.973 -51.054  1.00 59.74 LIG 0.18  C 
BRANCH 5 6
ATOM      6  CB  ARG H   2     -17.490   3.346 -51.614  1.00 62.34 LIG 0.04  C 
BRANCH 6 7
ATOM      7  CG  ARG H   2     -18.959   3.717 -51.457  1.00 66.72 LIG 0.02  C 
BRANCH 7 8
ATOM      8  CD  ARG H   2     -19.160   5.146 -50.973  1.00 71.24 LIG 0.14  C 
BRANCH 8 9
ATOM      9  NE  ARG H   2     -20.485   5.310 -50.364  1.00 73.29 LIG-0.23  N 
ATOM     10  CZ  ARG H   2     -20.887   6.363 -49.650  1.00 77.12 LIG 0.67  C 
ATOM     11  NH1 ARG H   2     -20.078   7.391 -49.418  1.00 77.82 LIG-0.23  N 
ATOM     12  NH2 ARG H   2     -22.120   6.386 -49.153  1.00 76.44 LIG-0.23  N 
ATOM     13 1HH1 ARG H   2     -19.276   7.385 -49.730  1.00 77.82 LIG 0.17  HD
ATOM     14 2HH1 ARG H   2     -20.356   8.061 -48.955  1.00 77.82 LIG 0.17  HD
ATOM     15 2HH2 ARG H   2     -22.385   7.062 -48.692  1.00 76.44 LIG 0.17  HD
ATOM     16 1HH2 ARG H   2     -22.652   5.725 -49.292  1.00 76.44 LIG 0.17  HD
ATOM     17 HE   ARG H   2     -21.051   4.673 -50.476  1.00 73.29 LIG 0.18  HD
ENDBRANCH 8 9
ENDBRANCH 7 8
ENDBRANCH 6 7
ENDBRANCH 5 6
BRANCH 5 18
ATOM     18  N   ARG H   2     -17.541   1.817 -49.662  1.00 53.58 LIG-0.35  N 
ATOM     19  C   ALA H   1     -17.893   0.640 -49.152  1.00 57.33 LIG 0.25  C 
ATOM     20 O    ALA H   1     -17.931  -0.398 -49.817  1.00 53.10 LIG-0.27  OA
ATOM     21 H    ARG H   2     -17.556   2.552 -49.215  1.00 53.58 LIG 0.16  HD
BRANCH 19 22
ATOM     22  CA  ALA H   1     -18.290   0.620 -47.670  1.00 57.31 LIG 0.27  C 
ATOM     23  CB  ALA H   1     -18.119  -0.778 -47.075  1.00 59.00 LIG 0.05  C 
BRANCH 22 24
ATOM     24  N   ALA H   1     -19.702   1.085 -47.501  1.00 52.22 LIG-0.07  N 
ATOM     25 H2   ALA H   1     -19.858   1.256 -46.641  1.00 52.22 LIG 0.28  HD
ATOM     26 H3   ALA H   1     -19.830   1.826 -47.977  1.00 52.22 LIG 0.28  HD
ATOM     27 H1   ALA H   1     -20.259   0.452 -47.784  1.00 52.22 LIG 0.28  HD
ENDBRANCH 22 24
ENDBRANCH 19 22
ENDBRANCH 5 18
ENDBRANCH 1 5
BRANCH 3 28
ATOM     28  CA  THR H   3     -13.588   2.173 -52.592  1.00 54.46 LIG 0.20  C 
BRANCH 28 29
ATOM     29  C   THR H   3     -13.296   3.187 -53.716  1.00 57.92 LIG 0.24  C 
ATOM     30  N   LYS H   4     -12.277   4.017 -53.508  1.00 54.07 LIG-0.35  N 
ATOM     31 H    LYS H   4     -11.774   3.987 -52.810  1.00 54.07 LIG 0.16  HD
ATOM     32 O    THR H   3     -13.993   3.228 -54.731  1.00 54.85 LIG-0.27  OA
BRANCH 30 33
ATOM     33  CA  LYS H   4     -11.910   5.077 -54.466  1.00 57.41 LIG 0.16  C 
BRANCH 33 34
ATOM     34  C   LYS H   4     -11.089   4.579 -55.657  1.00 56.46 LIG 0.22  C 
ATOM     35 O    LYS H   4     -10.773   5.356 -56.562  1.00 60.38 LIG-0.29  OA
ENDBRANCH 33 34
BRANCH 33 36
ATOM     36  CB  LYS H   4     -11.124   6.155 -53.731  1.00 56.01 LIG 0.03  C 
BRANCH 36 37
ATOM     37  CG  LYS H   4      -9.622   5.975 -53.739  1.00 58.87 LIG 0.00  C 
BRANCH 37 38
ATOM     38  CD  LYS H   4      -8.933   7.303 -53.464  1.00 59.29 LIG 0.03  C 
BRANCH 38 39
ATOM     39  CE  LYS H   4      -8.706   8.067 -54.758  1.00 63.77 LIG 0.23  C 
BRANCH 39 40
ATOM     40  NZ  LYS H   4      -7.326   7.864 -55.267  1.00 66.19 LIG-0.08  N 
ATOM     41 HZ1  LYS H   4      -7.052   7.042 -55.064  1.00 66.19 LIG 0.27  HD
ATOM     42 HZ2  LYS H   4      -7.318   7.969 -56.151  1.00 66.19 LIG 0.27  HD
ATOM     43 HZ3  LYS H   4      -6.781   8.459 -54.892  1.00 66.19 LIG 0.27  HD
ENDBRANCH 39 40
ENDBRANCH 38 39
ENDBRANCH 37 38
ENDBRANCH 36 37
ENDBRANCH 33 36
ENDBRANCH 30 33
ENDBRANCH 28 29
BRANCH 28 44
ATOM     44  CB  THR H   3     -12.989   0.785 -52.924  1.00 52.58 LIG 0.15  C 
ATOM     45  CG2 THR H   3     -13.278   0.437 -54.365  1.00 50.21 LIG 0.04  C 
BRANCH 44 46
ATOM     46 OG1  THR H   3     -11.568   0.790 -52.727  1.00 49.67 LIG-0.39  OA
ATOM     47 HG1  THR H   3     -11.196   1.177 -53.373  1.00 49.67 LIG 0.21  HD
ENDBRANCH 44 46
ENDBRANCH 28 44
ENDBRANCH 3 28
TORSDOF 19
ENDMDL
MODEL 3
USER: ADFR SOLUTION from run 197
USER: SCORE 18.728418 LL:  -1.902 LR: -17.261 RR:   0.000 FEB: -11.594
USER: RMSD 4.232991
USER: SEED 196
USER: STATUS no improvement in best in 8 clusters for 5 generations
USER: GENES 21
USER: genes 0 Translation |==|  0.48510 0.39660 0.59323
USER: genes 1 Rotation |==|  0.55118 0.56000 0.45181 0.99138
USER: genes 2 Torsion [N]-C--CA-[N] |==|  0.51623
USER: genes 3 Torsion [C]-CA--CB-[CG] |==|  0.55179
USER: genes 4 Torsion [CA]-CB--CG-[CD] |==|  0.86416
USER: genes 5 Torsion [CB]-CG--CD-[NE] |==|  0.41816
USER: genes 6 Torsion [CG]-CD--NE-[CZ] |==|  0.60972
USER: genes 7 Torsion [C]-CA--N-[C] |==|  0.74597
USER: genes 8 Torsion [N]-C--CA-[N] |==|  0.21024
USER: genes 9 Torsion [C]-CA--N-[H2] |==|  0.49712
USER: genes 10 Torsion [C]-N--CA-[C] |==|  0.55702
USER: genes 11 Torsion [N]-CA--C-[N] |==|  0.46041
USER: genes 12 Torsion [C]-N--CA-[CB] |==|  0.84102
USER: genes 13 Torsion [N]-CA--C-[O] |==|  0.12605
USER: genes 14 Torsion [N]-CA--CB-[CG] |==|  0.89127
USER: genes 15 Torsion [CA]-CB--CG-[CD] |==|  0.37399
USER: genes 16 Torsion [CB]-CG--CD-[CE] |==|  0.59612
USER: genes 17 Torsion [CG]-CD--CE-[NZ] |==|  0.88623
USER: genes 18 Torsion [CD]-CE--NZ-[HZ1] |==|  0.28322
USER: genes 19 Torsion [N]-CA--CB-[OG1] |==|  0.40273
USER: genes 20 Torsion [CA]-CB--OG1-[HG1] |==|  0.12217
ROOT
ATOM      1  C   ARG H   2     -15.582   1.616 -51.034  1.00 59.87 LIG 0.24  C 
ATOM      2 O    ARG H   2     -14.885   1.453 -50.020  1.00 53.61 LIG-0.27  OA
ATOM      3  N   THR H   3     -15.077   1.775 -52.261  1.00 55.49 LIG-0.34  N 
ATOM      4 H    THR H   3     -15.564   1.793 -52.970  1.00 55.49 LIG 0.16  HD
ENDROOT
BRANCH 1 5
ATOM      5  CA  ARG H   2     -17.117   1.639 -50.937  1.00 59.74 LIG 0.18  C 
BRANCH 5 6
ATOM      6  CB  ARG H   2     -17.635   2.906 -51.636  1.00 62.34 LIG 0.04  C 
BRANCH 6 7
ATOM      7  CG  ARG H   2     -19.052   3.330 -51.271  1.00 66.72 LIG 0.02  C 
BRANCH 7 8
ATOM      8  CD  ARG H   2     -20.050   2.184 -51.348  1.00 71.24 LIG 0.14  C 
BRANCH 8 9
ATOM      9  NE  ARG H   2     -21.147   2.381 -50.392  1.00 73.29 LIG-0.23  N 
ATOM     10  CZ  ARG H   2     -21.719   1.424 -49.658  1.00 77.12 LIG 0.67  C 
ATOM     11  NH1 ARG H   2     -21.328   0.157 -49.747  1.00 77.82 LIG-0.23  N 
ATOM     12  NH2 ARG H   2     -22.707   1.739 -48.826  1.00 76.44 LIG-0.23  N 
ATOM     13 1HH1 ARG H   2     -20.693  -0.060 -50.285  1.00 77.82 LIG 0.17  HD
ATOM     14 2HH1 ARG H   2     -21.709  -0.445 -49.265  1.00 77.82 LIG 0.17  HD
ATOM     15 2HH2 ARG H   2     -23.080   1.127 -48.351  1.00 76.44 LIG 0.17  HD
ATOM     16 1HH2 ARG H   2     -22.973   2.554 -48.763  1.00 76.44 LIG 0.17  HD
ATOM     17 HE   ARG H   2     -21.446   3.181 -50.296  1.00 73.29 LIG 0.18  HD
ENDBRANCH 8 9
ENDBRANCH 7 8
ENDBRANCH 6 7
ENDBRANCH 5 6
BRANCH 5 18
ATOM     18  N   ARG H   2     -17.556   1.596 -49.533  1.00 53.58 LIG-0.35  N 
ATOM     19  C   ALA H   1     -17.816   0.455 -48.899  1.00 57.33 LIG 0.25  C 
ATOM     20 O    ALA H   1     -17.774  -0.646 -49.453  1.00 53.10 LIG-0.27  OA
ATOM     21 H    ARG H   2     -17.628   2.370 -49.164  1.00 53.58 LIG 0.16  HD
BRANCH 19 22
ATOM     22  CA  ALA H   1     -18.207   0.560 -47.420  1.00 57.31 LIG 0.27  C 
ATOM     23  CB  ALA H   1     -18.039  -0.785 -46.711  1.00 59.00 LIG 0.05  C 
BRANCH 22 24
ATOM     24  N   ALA H   1     -19.618   1.042 -47.286  1.00 52.22 LIG-0.07  N 
ATOM     25 H2   ALA H   1     -19.837   1.084 -46.424  1.00 52.22 LIG 0.28  HD
ATOM     26 H3   ALA H   1     -19.691   1.852 -47.649  1.00 52.22 LIG 0.28  HD
ATOM     27 H1   ALA H   1     -20.165   0.480 -47.704  1.00 52.22 LIG 0.28  HD
ENDBRANCH 22 24
ENDBRANCH 19 22
ENDBRANCH 5 18
ENDBRANCH 1 5
BRANCH 3 28
ATOM     28  CA  THR H   3     -13.649   1.934 -52.530  1.00 54.46 LIG 0.20  C 
BRANCH 28 29
ATOM     29  C   THR H   3     -13.446   2.590 -53.909  1.00 57.92 LIG 0.24  C 
ATOM     30  N   LYS H   4     -12.227   3.062 -54.162  1.00 54.07 LIG-0.35  N 
ATOM     31 H    LYS H   4     -11.566   2.987 -53.616  1.00 54.07 LIG 0.16  HD
ATOM     32 O    THR H   3     -14.376   2.686 -54.710  1.00 54.85 LIG-0.27  OA
BRANCH 30 33
ATOM     33  CA  LYS H   4     -11.893   3.765 -55.414  1.00 57.41 LIG 0.16  C 
BRANCH 33 34
ATOM     34  C   LYS H   4     -12.627   5.095 -55.594  1.00 56.46 LIG 0.22  C 
ATOM     35 O    LYS H   4     -12.704   5.894 -54.656  1.00 60.38 LIG-0.29  OA
ENDBRANCH 33 34
BRANCH 33 36
ATOM     36  CB  LYS H   4     -12.213   2.853 -56.592  1.00 56.01 LIG 0.03  C 
BRANCH 36 37
ATOM     37  CG  LYS H   4     -11.877   1.393 -56.383  1.00 58.87 LIG 0.00  C 
BRANCH 37 38
ATOM     38  CD  LYS H   4     -13.029   0.518 -56.856  1.00 59.29 LIG 0.03  C 
BRANCH 38 39
ATOM     39  CE  LYS H   4     -13.159  -0.717 -55.978  1.00 63.77 LIG 0.23  C 
BRANCH 39 40
ATOM     40  NZ  LYS H   4     -11.827  -1.280 -55.642  1.00 66.19 LIG-0.08  N 
ATOM     41 HZ1  LYS H   4     -11.606  -1.046 -54.812  1.00 66.19 LIG 0.27  HD
ATOM     42 HZ2  LYS H   4     -11.857  -2.167 -55.701  1.00 66.19 LIG 0.27  HD
ATOM     43 HZ3  LYS H   4     -11.219  -0.965 -56.211  1.00 66.19 LIG 0.27  HD
ENDBRANCH 39 40
ENDBRANCH 38 39
ENDBRANCH 37 38
ENDBRANCH 36 37
ENDBRANCH 33 36
ENDBRANCH 30 33
ENDBRANCH 28 29
BRANCH 28 44
ATOM     44  CB  THR H   3     -12.889   0.589 -52.434  1.00 52.58 LIG 0.15  C 
ATOM     45  CG2 THR H   3     -13.839  -0.554 -52.702  1.00 50.21 LIG 0.04  C 
BRANCH 44 46
ATOM     46 OG1  THR H   3     -11.827   0.542 -53.399  1.00 49.67 LIG-0.39  OA
ATOM     47 HG1  THR H   3     -11.417   1.275 -53.400  1.00 49.67 LIG 0.21  HD
ENDBRANCH 44 46
ENDBRANCH 28 44
ENDBRANCH 3 28
TORSDOF 19
ENDMDL
MODEL 4
USER: ADFR SOLUTION from run 59
USER: SCORE 18.887385 LL:  -2.006 LR: -16.926 RR:   0.000 FEB: -11.258
USER: RMSD 5.770237
USER: SEED 58
USER: STATUS 1 or 2 clusters left
USER: GENES 21
USER: genes 0 Translation |==|  0.37415 0.30741 0.56938
USER: genes 1 Rotation |==|  0.85278 0.81098 0.45709 0.66431
USER: genes 2 Torsion [N]-C--CA-[N] |==|  0.92878
USER: genes 3 Torsion [C]-CA--CB-[CG] |==|  0.73132
USER: genes 4 Torsion [CA]-CB--CG-[CD] |==|  0.19621
USER: genes 5 Torsion [CB]-CG--CD-[NE] |==|  0.45207
USER: genes 6 Torsion [CG]-CD--NE-[CZ] |==|  0.21029
USER: genes 7 Torsion [C]-CA--N-[C] |==|  0.83271
USER: genes 8 Torsion [N]-C--CA-[N] |==|  0.85867
USER: genes 9 Torsion [C]-CA--N-[H2] |==|  0.55714
USER: genes 10 Torsion [C]-N--CA-[C] |==|  0.80700
USER: genes 11 Torsion [N]-CA--C-[N] |==|  0.36342
USER: genes 12 Torsion [C]-N--CA-[CB] |==|  0.18972
USER: genes 13 Torsion [N]-CA--C-[O] |==|  0.18106
USER: genes 14 Torsion [N]-CA--CB-[CG] |==|  0.37349
USER: genes 15 Torsion [CA]-CB--CG-[CD] |==|  0.63698
USER: genes 16 Torsion [CB]-CG--CD-[CE] |==|  0.31981
USER: genes 17 Torsion [CG]-CD--CE-[NZ] |==|  0.26952
USER: genes 18 Torsion [CD]-CE--NZ-[HZ1] |==|  0.34329
USER: genes 19 Torsion [N]-CA--CB-[OG1] |==|  0.04555
USER: genes 20 Torsion [CA]-CB--OG1-[HG1] |==|  0.64870
ROOT
ATOM      1  C   ARG H   2     -18.411  -0.190 -51.445  1.00 59.87 LIG 0.24  C 
ATOM      2 O    ARG H   2     -17.827  -0.493 -52.498  1.00 53.61 LIG-0.27  OA
ATOM      3  N   THR H   3     -18.524   1.065 -50.997  1.00 55.49 LIG-0.34  N 
ATOM      4 H    THR H   3     -19.008   1.279 -50.319  1.00 55.49 LIG 0.16  HD
ENDROOT
BRANCH 1 5
ATOM      5  CA  ARG H   2     -19.067  -1.272 -50.570  1.00 59.74 LIG 0.18  C 
BRANCH 5 6
ATOM      6  CB  ARG H   2     -20.462  -1.582 -51.135  1.00 62.34 LIG 0.04  C 
BRANCH 6 7
ATOM      7  CG  ARG H   2     -21.622  -0.855 -50.467  1.00 66.72 LIG 0.02  C 
BRANCH 7 8
ATOM      8  CD  ARG H   2     -21.647   0.633 -50.781  1.00 71.24 LIG 0.14  C 
BRANCH 8 9
ATOM      9  NE  ARG H   2     -22.963   1.209 -50.477  1.00 73.29 LIG-0.23  N 
ATOM     10  CZ  ARG H   2     -23.427   1.486 -49.257  1.00 77.12 LIG 0.67  C 
ATOM     11  NH1 ARG H   2     -22.702   1.243 -48.170  1.00 77.82 LIG-0.23  N 
ATOM     12  NH2 ARG H   2     -24.641   2.010 -49.120  1.00 76.44 LIG-0.23  N 
ATOM     13 1HH1 ARG H   2     -21.917   0.899 -48.246  1.00 77.82 LIG 0.17  HD
ATOM     14 2HH1 ARG H   2     -23.018   1.428 -47.392  1.00 77.82 LIG 0.17  HD
ATOM     15 2HH2 ARG H   2     -24.945   2.190 -48.337  1.00 76.44 LIG 0.17  HD
ATOM     16 1HH2 ARG H   2     -25.122   2.168 -49.815  1.00 76.44 LIG 0.17  HD
ATOM     17 HE   ARG H   2     -23.479   1.384 -51.142  1.00 73.29 LIG 0.18  HD
ENDBRANCH 8 9
ENDBRANCH 7 8
ENDBRANCH 6 7
ENDBRANCH 5 6
BRANCH 5 18
ATOM     18  N   ARG H   2     -19.153  -0.832 -49.167  1.00 53.58 LIG-0.35  N 
ATOM     19  C   ALA H   1     -18.077  -0.525 -48.447  1.00 57.33 LIG 0.25  C 
ATOM     20 O    ALA H   1     -16.926  -0.645 -48.872  1.00 53.10 LIG-0.27  OA
ATOM     21 H    ARG H   2     -19.956  -0.794 -48.861  1.00 53.58 LIG 0.16  HD
BRANCH 19 22
ATOM     22  CA  ALA H   1     -18.323  -0.026 -47.018  1.00 57.31 LIG 0.27  C 
ATOM     23  CB  ALA H   1     -18.793  -1.165 -46.112  1.00 59.00 LIG 0.05  C 
BRANCH 22 24
ATOM     24  N   ALA H   1     -19.327   1.084 -47.017  1.00 52.22 LIG-0.07  N 
ATOM     25 H2   ALA H   1     -19.247   1.556 -46.267  1.00 52.22 LIG 0.28  HD
ATOM     26 H3   ALA H   1     -19.184   1.614 -47.718  1.00 52.22 LIG 0.28  HD
ATOM     27 H1   ALA H   1     -20.147   0.742 -47.067  1.00 52.22 LIG 0.28  HD
ENDBRANCH 22 24
ENDBRANCH 19 22
ENDBRANCH 5 18
ENDBRANCH 1 5
BRANCH 3 28
ATOM     28  CA  THR H   3     -17.839   2.202 -51.607  1.00 54.46 LIG 0.20  C 
BRANCH 28 29
ATOM     29  C   THR H   3     -16.323   2.100 -51.348  1.00 57.92 LIG 0.24  C 
ATOM     30  N   LYS H   4     -15.533   2.256 -52.409  1.00 54.07 LIG-0.35  N 
ATOM     31 H    LYS H   4     -15.827   2.436 -53.197  1.00 54.07 LIG 0.16  HD
ATOM     32 O    THR H   3     -15.885   1.864 -50.221  1.00 54.85 LIG-0.27  OA
BRANCH 30 33
ATOM     33  CA  LYS H   4     -14.066   2.131 -52.330  1.00 57.41 LIG 0.16  C 
BRANCH 33 34
ATOM     34  C   LYS H   4     -13.336   2.591 -53.593  1.00 56.46 LIG 0.22  C 
ATOM     35 O    LYS H   4     -13.375   3.776 -53.937  1.00 60.38 LIG-0.29  OA
ENDBRANCH 33 34
BRANCH 33 36
ATOM     36  CB  LYS H   4     -13.709   0.678 -52.045  1.00 56.01 LIG 0.03  C 
BRANCH 36 37
ATOM     37  CG  LYS H   4     -12.590   0.113 -52.892  1.00 58.87 LIG 0.00  C 
BRANCH 37 38
ATOM     38  CD  LYS H   4     -13.008  -1.223 -53.488  1.00 59.29 LIG 0.03  C 
BRANCH 38 39
ATOM     39  CE  LYS H   4     -13.092  -1.131 -55.003  1.00 63.77 LIG 0.23  C 
BRANCH 39 40
ATOM     40  NZ  LYS H   4     -11.848  -1.631 -55.642  1.00 66.19 LIG-0.08  N 
ATOM     41 HZ1  LYS H   4     -12.048  -2.284 -56.213  1.00 66.19 LIG 0.27  HD
ATOM     42 HZ2  LYS H   4     -11.452  -0.965 -56.080  1.00 66.19 LIG 0.27  HD
ATOM     43 HZ3  LYS H   4     -11.298  -1.943 -55.016  1.00 66.19 LIG 0.27  HD
ENDBRANCH 39 40
ENDBRANCH 38 39
ENDBRANCH 37 38
ENDBRANCH 36 37
ENDBRANCH 33 36
ENDBRANCH 30 33
ENDBRANCH 28 29
BRANCH 28 44
ATOM     44  CB  THR H   3     -18.401   3.554 -51.107  1.00 52.58 LIG 0.15  C 
ATOM     45  CG2 THR H   3     -19.290   4.159 -52.168  1.00 50.21 LIG 0.04  C 
BRANCH 44 46
ATOM     46 OG1  THR H   3     -19.173   3.366 -49.911  1.00 49.67 LIG-0.39  OA
ATOM     47 HG1  THR H   3     -19.935   3.704 -50.013  1.00 49.67 LIG 0.21  HD
ENDBRANCH 44 46
ENDBRANCH 28 44
ENDBRANCH 3 28
TORSDOF 19
ENDMDL
MODEL 5
USER: ADFR SOLUTION from run 100
USER: SCORE 17.950303 LL:  -1.704 LR: -16.629 RR:   0.000 FEB: -10.962
USER: RMSD 9.793558
USER: SEED 99
USER: STATUS no improvement in best in 4 clusters for 5 generations
USER: GENES 21
USER: genes 0 Translation |==|  0.50465 0.38905 0.54874
USER: genes 1 Rotation |==|  0.30105 0.39685 0.05904 0.57303
USER: genes 2 Torsion [N]-C--CA-[N] |==|  0.43510
USER: genes 3 Torsion [C]-CA--CB-[CG] |==|  0.01535
USER: genes 4 Torsion [CA]-CB--CG-[CD] |==|  0.39641
USER: genes 5 Torsion [CB]-CG--CD-[NE] |==|  0.22867
USER: genes 6 Torsion [CG]-CD--NE-[CZ] |==|  0.66516
USER: genes 7 Torsion [C]-CA--N-[C] |==|  0.53889
USER: genes 8 Torsion [N]-C--CA-[N] |==|  0.20835
USER: genes 9 Torsion [C]-CA--N-[H2] |==|  0.98000
USER: genes 10 Torsion [C]-N--CA-[C] |==|  0.55162
USER: genes 11 Torsion [N]-CA--C-[N] |==|  0.43627
USER: genes 12 Torsion [C]-N--CA-[CB] |==|  0.84665
USER: genes 13 Torsion [N]-CA--C-[O] |==|  0.30644
USER: genes 14 Torsion [N]-CA--CB-[CG] |==|  0.79390
USER: genes 15 Torsion [CA]-CB--CG-[CD] |==|  0.32437
USER: genes 16 Torsion [CB]-CG--CD-[CE] |==|  0.45834
USER: genes 17 Torsion [CG]-CD--CE-[NZ] |==|  0.26113
USER: genes 18 Torsion [CD]-CE--NZ-[HZ1] |==|  0.21457
USER: genes 19 Torsion [N]-CA--CB-[OG1] |==|  0.86977
USER: genes 20 Torsion [CA]-CB--OG1-[HG1] |==|  0.65811
ROOT
ATOM      1  C   ARG H   2     -15.083   1.463 -51.801  1.00 59.87 LIG 0.24  C 
ATOM      2 O    ARG H   2     -14.549   1.825 -50.741  1.00 53.61 LIG-0.27  OA
ATOM      3  N   THR H   3     -16.260   0.830 -51.859  1.00 55.49 LIG-0.34  N 
ATOM      4 H    THR H   3     -16.668   0.667 -52.598  1.00 55.49 LIG 0.16  HD
ENDROOT
BRANCH 1 5
ATOM      5  CA  ARG H   2     -14.407   1.737 -53.156  1.00 59.74 LIG 0.18  C 
BRANCH 5 6
ATOM      6  CB  ARG H   2     -13.685   0.459 -53.612  1.00 62.34 LIG 0.04  C 
BRANCH 6 7
ATOM      7  CG  ARG H   2     -13.902  -0.769 -52.738  1.00 66.72 LIG 0.02  C 
BRANCH 7 8
ATOM      8  CD  ARG H   2     -14.004  -2.057 -53.541  1.00 71.24 LIG 0.14  C 
BRANCH 8 9
ATOM      9  NE  ARG H   2     -12.671  -2.572 -53.875  1.00 73.29 LIG-0.23  N 
ATOM     10  CZ  ARG H   2     -12.202  -2.776 -55.108  1.00 77.12 LIG 0.67  C 
ATOM     11  NH1 ARG H   2     -12.944  -2.523 -56.180  1.00 77.82 LIG-0.23  N 
ATOM     12  NH2 ARG H   2     -10.970  -3.248 -55.271  1.00 76.44 LIG-0.23  N 
ATOM     13 1HH1 ARG H   2     -13.745  -2.222 -56.087  1.00 77.82 LIG 0.17  HD
ATOM     14 2HH1 ARG H   2     -12.624  -2.660 -56.967  1.00 77.82 LIG 0.17  HD
ATOM     15 2HH2 ARG H   2     -10.662  -3.381 -56.062  1.00 76.44 LIG 0.17  HD
ATOM     16 1HH2 ARG H   2     -10.481  -3.420 -54.585  1.00 76.44 LIG 0.17  HD
ATOM     17 HE   ARG H   2     -12.146  -2.759 -53.219  1.00 73.29 LIG 0.18  HD
ENDBRANCH 8 9
ENDBRANCH 7 8
ENDBRANCH 6 7
ENDBRANCH 5 6
BRANCH 5 18
ATOM     18  N   ARG H   2     -13.468   2.866 -53.055  1.00 53.58 LIG-0.35  N 
ATOM     19  C   ALA H   1     -12.964   3.475 -54.126  1.00 57.33 LIG 0.25  C 
ATOM     20 O    ALA H   1     -13.190   3.103 -55.280  1.00 53.10 LIG-0.27  OA
ATOM     21 H    ARG H   2     -13.277   3.092 -52.248  1.00 53.58 LIG 0.16  HD
BRANCH 19 22
ATOM     22  CA  ALA H   1     -12.043   4.674 -53.869  1.00 57.31 LIG 0.27  C 
ATOM     23  CB  ALA H   1     -11.889   5.528 -55.129  1.00 59.00 LIG 0.05  C 
BRANCH 22 24
ATOM     24  N   ALA H   1     -10.703   4.210 -53.392  1.00 52.22 LIG-0.07  N 
ATOM     25 H2   ALA H   1     -10.726   3.332 -53.248  1.00 52.22 LIG 0.28  HD
ATOM     26 H3   ALA H   1     -10.088   4.392 -54.010  1.00 52.22 LIG 0.28  HD
ATOM     27 H1   ALA H   1     -10.495   4.629 -52.636  1.00 52.22 LIG 0.28  HD
ENDBRANCH 22 24
ENDBRANCH 19 22
ENDBRANCH 5 18
ENDBRANCH 1 5
BRANCH 3 28
ATOM     28  CA  THR H   3     -16.973   0.350 -50.678  1.00 54.46 LIG 0.20  C 
BRANCH 28 29
ATOM     29  C   THR H   3     -18.015  -0.709 -51.090  1.00 57.92 LIG 0.24  C 
ATOM     30  N   LYS H   4     -18.397  -1.560 -50.140  1.00 54.07 LIG-0.35  N 
ATOM     31 H    LYS H   4     -18.118  -1.519 -49.327  1.00 54.07 LIG 0.16  HD
ATOM     32 O    THR H   3     -18.440  -0.766 -52.245  1.00 54.85 LIG-0.27  OA
BRANCH 30 33
ATOM     33  CA  LYS H   4     -19.344  -2.661 -50.396  1.00 57.41 LIG 0.16  C 
BRANCH 33 34
ATOM     34  C   LYS H   4     -18.797  -3.745 -51.326  1.00 56.46 LIG 0.22  C 
ATOM     35 O    LYS H   4     -18.531  -4.866 -50.886  1.00 60.38 LIG-0.29  OA
ENDBRANCH 33 34
BRANCH 33 36
ATOM     36  CB  LYS H   4     -20.621  -2.084 -50.993  1.00 56.01 LIG 0.03  C 
BRANCH 36 37
ATOM     37  CG  LYS H   4     -21.512  -1.349 -50.017  1.00 58.87 LIG 0.00  C 
BRANCH 37 38
ATOM     38  CD  LYS H   4     -21.626   0.116 -50.411  1.00 59.29 LIG 0.03  C 
BRANCH 38 39
ATOM     39  CE  LYS H   4     -22.784   0.778 -49.683  1.00 63.77 LIG 0.23  C 
BRANCH 39 40
ATOM     40  NZ  LYS H   4     -22.327   1.440 -48.436  1.00 66.19 LIG-0.08  N 
ATOM     41 HZ1  LYS H   4     -21.928   2.210 -48.636  1.00 66.19 LIG 0.27  HD
ATOM     42 HZ2  LYS H   4     -23.027   1.598 -47.910  1.00 66.19 LIG 0.27  HD
ATOM     43 HZ3  LYS H   4     -21.751   0.910 -48.012  1.00 66.19 LIG 0.27  HD
ENDBRANCH 39 40
ENDBRANCH 38 39
ENDBRANCH 37 38
ENDBRANCH 36 37
ENDBRANCH 33 36
ENDBRANCH 30 33
ENDBRANCH 28 29
BRANCH 28 44
ATOM     44  CB  THR H   3     -17.635   1.507 -49.891  1.00 52.58 LIG 0.15  C 
ATOM     45  CG2 THR H   3     -18.072   1.012 -48.532  1.00 50.21 LIG 0.04  C 
BRANCH 44 46
ATOM     46 OG1  THR H   3     -16.709   2.588 -49.712  1.00 49.67 LIG-0.39  OA
ATOM     47 HG1  THR H   3     -16.624   2.752 -48.893  1.00 49.67 LIG 0.21  HD
ENDBRANCH 44 46
ENDBRANCH 28 44
ENDBRANCH 3 28
TORSDOF 19
ENDMDL
MODEL 6
USER: ADFR SOLUTION from run 197
USER: SCORE 18.093474 LL:  -2.232 LR: -16.510 RR:   0.000 FEB: -10.842
USER: RMSD 3.962231
USER: SEED 196
USER: STATUS no improvement in best in 8 clusters for 5 generations
USER: GENES 21
USER: genes 0 Translation |==|  0.48449 0.38124 0.59817
USER: genes 1 Rotation |==|  0.55138 0.56647 0.48751 0.99273
USER: genes 2 Torsion [N]-C--CA-[N] |==|  0.82196
USER: genes 3 Torsion [C]-CA--CB-[CG] |==|  0.41812
USER: genes 4 Torsion [CA]-CB--CG-[CD] |==|  0.01007
USER: genes 5 Torsion [CB]-CG--CD-[NE] |==|  0.76117
USER: genes 6 Torsion [CG]-CD--NE-[CZ] |==|  0.42996
USER: genes 7 Torsion [C]-CA--N-[C] |==|  0.68148
USER: genes 8 Torsion [N]-C--CA-[N] |==|  0.32372
USER: genes 9 Torsion [C]-CA--N-[H2] |==|  0.67233
USER: genes 10 Torsion [C]-N--CA-[C] |==|  0.59789
USER: genes 11 Torsion [N]-CA--C-[N] |==|  0.41957
USER: genes 12 Torsion [C]-N--CA-[CB] |==|  0.43624
USER: genes 13 Torsion [N]-CA--C-[O] |==|  0.97843
USER: genes 14 Torsion [N]-CA--CB-[CG] |==|  0.20385
USER: genes 15 Torsion [CA]-CB--CG-[CD] |==|  0.49644
USER: genes 16 Torsion [CB]-CG--CD-[CE] |==|  0.76429
USER: genes 17 Torsion [CG]-CD--CE-[NZ] |==|  0.71835
USER: genes 18 Torsion [CD]-CE--NZ-[HZ1] |==|  0.41452
USER: genes 19 Torsion [N]-CA--CB-[OG1] |==|  0.51332
USER: genes 20 Torsion [CA]-CB--OG1-[HG1] |==|  0.79573
ROOT
ATOM      1  C   ARG H   2     -15.598   1.305 -50.948  1.00 59.87 LIG 0.24  C 
ATOM      2 O    ARG H   2     -14.873   1.224 -49.944  1.00 53.61 LIG-0.27  OA
ATOM      3  N   THR H   3     -15.134   1.558 -52.177  1.00 55.49 LIG-0.34  N 
ATOM      4 H    THR H   3     -15.627   1.520 -52.881  1.00 55.49 LIG 0.16  HD
ENDROOT
BRANCH 1 5
ATOM      5  CA  ARG H   2     -17.119   1.106 -50.838  1.00 59.74 LIG 0.18  C 
BRANCH 5 6
ATOM      6  CB  ARG H   2     -17.531  -0.056 -51.755  1.00 62.34 LIG 0.04  C 
BRANCH 6 7
ATOM      7  CG  ARG H   2     -18.754  -0.848 -51.308  1.00 66.72 LIG 0.02  C 
BRANCH 7 8
ATOM      8  CD  ARG H   2     -19.405  -0.276 -50.058  1.00 71.24 LIG 0.14  C 
BRANCH 8 9
ATOM      9  NE  ARG H   2     -18.765  -0.803 -48.847  1.00 73.29 LIG-0.23  N 
ATOM     10  CZ  ARG H   2     -18.739  -0.201 -47.656  1.00 77.12 LIG 0.67  C 
ATOM     11  NH1 ARG H   2     -19.312   0.983 -47.468  1.00 77.82 LIG-0.23  N 
ATOM     12  NH2 ARG H   2     -18.123  -0.790 -46.637  1.00 76.44 LIG-0.23  N 
ATOM     13 1HH1 ARG H   2     -19.710   1.377 -48.121  1.00 77.82 LIG 0.17  HD
ATOM     14 2HH1 ARG H   2     -19.285   1.356 -46.693  1.00 77.82 LIG 0.17  HD
ATOM     15 2HH2 ARG H   2     -18.103  -0.407 -45.867  1.00 76.44 LIG 0.17  HD
ATOM     16 1HH2 ARG H   2     -17.744  -1.554 -46.746  1.00 76.44 LIG 0.17  HD
ATOM     17 HE   ARG H   2     -18.372  -1.565 -48.910  1.00 73.29 LIG 0.18  HD
ENDBRANCH 8 9
ENDBRANCH 7 8
ENDBRANCH 6 7
ENDBRANCH 5 6
BRANCH 5 18
ATOM     18  N   ARG H   2     -17.838   2.340 -51.197  1.00 53.58 LIG-0.35  N 
ATOM     19  C   ALA H   1     -18.564   3.026 -50.318  1.00 57.33 LIG 0.25  C 
ATOM     20 O    ALA H   1     -18.746   2.651 -49.157  1.00 53.10 LIG-0.27  OA
ATOM     21 H    ARG H   2     -17.745   2.572 -52.019  1.00 53.58 LIG 0.16  HD
BRANCH 19 22
ATOM     22  CA  ALA H   1     -19.209   4.324 -50.819  1.00 57.31 LIG 0.27  C 
ATOM     23  CB  ALA H   1     -18.735   5.525 -49.999  1.00 59.00 LIG 0.05  C 
BRANCH 22 24
ATOM     24  N   ALA H   1     -20.701   4.220 -50.767  1.00 52.22 LIG-0.07  N 
ATOM     25 H2   ALA H   1     -21.033   4.296 -51.590  1.00 52.22 LIG 0.28  HD
ATOM     26 H3   ALA H   1     -20.932   3.430 -50.427  1.00 52.22 LIG 0.28  HD
ATOM     27 H1   ALA H   1     -21.027   4.870 -50.255  1.00 52.22 LIG 0.28  HD
ENDBRANCH 22 24
ENDBRANCH 19 22
ENDBRANCH 5 18
ENDBRANCH 1 5
BRANCH 3 28
ATOM     28  CA  THR H   3     -13.748   1.924 -52.454  1.00 54.46 LIG 0.20  C 
BRANCH 28 29
ATOM     29  C   THR H   3     -13.696   2.936 -53.616  1.00 57.92 LIG 0.24  C 
ATOM     30  N   LYS H   4     -12.673   3.789 -53.608  1.00 54.07 LIG-0.35  N 
ATOM     31 H    LYS H   4     -12.047   3.774 -53.017  1.00 54.07 LIG 0.16  HD
ATOM     32 O    THR H   3     -14.573   2.956 -54.481  1.00 54.85 LIG-0.27  OA
BRANCH 30 33
ATOM     33  CA  LYS H   4     -12.518   4.849 -54.621  1.00 57.41 LIG 0.16  C 
BRANCH 33 34
ATOM     34  C   LYS H   4     -11.913   4.363 -55.939  1.00 56.46 LIG 0.22  C 
ATOM     35 O    LYS H   4     -11.472   3.215 -56.035  1.00 60.38 LIG-0.29  OA
ENDBRANCH 33 34
BRANCH 33 36
ATOM     36  CB  LYS H   4     -11.643   5.956 -54.045  1.00 56.01 LIG 0.03  C 
BRANCH 36 37
ATOM     37  CG  LYS H   4     -10.172   5.620 -53.934  1.00 58.87 LIG 0.00  C 
BRANCH 37 38
ATOM     38  CD  LYS H   4      -9.403   6.809 -53.378  1.00 59.29 LIG 0.03  C 
BRANCH 38 39
ATOM     39  CE  LYS H   4      -9.032   7.775 -54.492  1.00 63.77 LIG 0.23  C 
BRANCH 39 40
ATOM     40  NZ  LYS H   4      -7.611   7.614 -54.892  1.00 66.19 LIG-0.08  N 
ATOM     41 HZ1  LYS H   4      -7.521   7.810 -55.755  1.00 66.19 LIG 0.27  HD
ATOM     42 HZ2  LYS H   4      -7.103   8.161 -54.409  1.00 66.19 LIG 0.27  HD
ATOM     43 HZ3  LYS H   4      -7.357   6.772 -54.752  1.00 66.19 LIG 0.27  HD
ENDBRANCH 39 40
ENDBRANCH 38 39
ENDBRANCH 37 38
ENDBRANCH 36 37
ENDBRANCH 33 36
ENDBRANCH 30 33
ENDBRANCH 28 29
BRANCH 28 44
ATOM     44  CB  THR H   3     -12.870   0.685 -52.754  1.00 52.58 LIG 0.15  C 
ATOM     45  CG2 THR H   3     -13.338   0.026 -54.029  1.00 50.21 LIG 0.04  C 
BRANCH 44 46
ATOM     46 OG1  THR H   3     -11.496   1.069 -52.911  1.00 49.67 LIG-0.39  OA
ATOM     47 HG1  THR H   3     -11.396   1.458 -53.649  1.00 49.67 LIG 0.21  HD
ENDBRANCH 44 46
ENDBRANCH 28 44
ENDBRANCH 3 28
TORSDOF 19
ENDMDL
