MODEL 1
USER: ADFR SOLUTION from run 12
USER: SCORE 25.819419 LL:  -3.479 LR: -23.268 RR:   0.000 FEB: -14.319
USER: RMSD 1.613717
USER: SEED 643051
USER: STATUS no improvement in best in 5 clusters for 5 generations
USER: GENES 32
USER: genes 0 Translation |==|  0.51323 0.40096 0.49758
USER: genes 1 Rotation |==|  0.47867 0.43851 0.49533 0.99572
USER: genes 2 Torsion [N]-CA--C-[N] |==|  0.51646
USER: genes 3 Torsion [C]-N--CA-[C] |==|  0.71664
USER: genes 4 Torsion [N]-CA--C-[N] |==|  0.05715
USER: genes 5 Torsion [C]-N--CA-[CB] |==|  0.82754
USER: genes 6 Torsion [N]-CA--C-[N] |==|  0.42865
USER: genes 7 Torsion [C]-N--CA-[CB] |==|  0.52042
USER: genes 8 Torsion [N]-CA--C-[O] |==|  0.77323
USER: genes 9 Torsion [N]-CA--CB-[OG1] |==|  0.68221
USER: genes 10 Torsion [CA]-CB--OG1-[HG1] |==|  0.71896
USER: genes 11 Torsion [N]-CA--CB-[CG] |==|  0.51560
USER: genes 12 Torsion [CA]-CB--CG-[CD] |==|  0.25079
USER: genes 13 Torsion [CB]-CG--CD-[NE2] |==|  0.86134
USER: genes 14 Torsion [C]-CA--CB-[CG] |==|  0.78288
USER: genes 15 Torsion [CA]-CB--CG-[CD] |==|  0.41878
USER: genes 16 Torsion [CB]-CG--CD-[CE] |==|  0.32698
USER: genes 17 Torsion [CG]-CD--CE-[NZ] |==|  0.62858
USER: genes 18 Torsion [CD]-CE--NZ-[HZ3] |==|  0.67498
USER: genes 19 Torsion [C]-CA--N-[C] |==|  0.65766
USER: genes 20 Torsion [N]-C--CA-[N] |==|  0.39854
USER: genes 21 Torsion [C]-CA--CB-[CG2] |==|  0.02881
USER: genes 22 Torsion [CA]-CB--OG1-[HG1] |==|  0.93317
USER: genes 23 Torsion [C]-CA--N-[C] |==|  0.59701
USER: genes 24 Torsion [N]-C--CA-[N] |==|  0.46648
USER: genes 25 Torsion [C]-CA--CB-[CG] |==|  0.42839
USER: genes 26 Torsion [CA]-CB--CG-[CD] |==|  0.39816
USER: genes 27 Torsion [CB]-CG--CD-[NE] |==|  0.87911
USER: genes 28 Torsion [CG]-CD--NE-[HE] |==|  0.75296
USER: genes 29 Torsion [C]-CA--N-[C] |==|  0.57561
USER: genes 30 Torsion [N]-C--CA-[N] |==|  0.44832
USER: genes 31 Torsion [C]-CA--N-[H2] |==|  0.52291
ROOT
ATOM      1  CA  LYS P   4      26.047 -33.637   9.414  1.00 25.22 LIG 0.18  C 
ENDROOT
BRANCH 1 2
ATOM      2  C   LYS P   4      24.649 -33.589   8.812  1.00 27.71 LIG 0.24  C 
ATOM      3  N   GLN P   5      23.850 -34.618   9.078  1.00 26.60 LIG-0.35  N 
ATOM      4 H    GLN P   5      24.099 -35.321   9.507  1.00 26.60 LIG 0.16  HD
ATOM      5 O    LYS P   4      24.297 -32.633   8.123  1.00 22.94 LIG-0.27  OA
BRANCH 3 6
ATOM      6  CA  GLN P   5      22.454 -34.633   8.653  1.00 30.64 LIG 0.18  C 
BRANCH 6 7
ATOM      7  C   GLN P   5      21.566 -34.302   9.845  1.00 34.53 LIG 0.24  C 
ATOM      8 O    GLN P   5      20.376 -34.620   9.836  1.00 31.76 LIG-0.27  OA
ATOM      9  N   THR P   6      22.127 -33.670  10.872  1.00 31.32 LIG-0.34  N 
ATOM     10 H    THR P   6      22.935 -33.377  10.888  1.00 31.32 LIG 0.16  HD
BRANCH 9 11
ATOM     11  CA  THR P   6      21.352 -33.433  12.090  1.00 35.73 LIG 0.20  C 
BRANCH 11 12
ATOM     12  C   THR P   6      20.850 -34.709  12.739  1.00 36.89 LIG 0.24  C 
ATOM     13 O    THR P   6      20.650 -35.721  12.069  1.00 31.31 LIG-0.27  OA
ATOM     14  N   ALA P   7      20.628 -34.632  14.049  1.00 39.63 LIG-0.35  N 
ATOM     15 H    ALA P   7      20.764 -33.920  14.512  1.00 39.63 LIG 0.16  HD
BRANCH 14 16
ATOM     16  CA  ALA P   7      20.131 -35.759  14.829  1.00 40.80 LIG 0.16  C 
ATOM     17  CB  ALA P   7      19.810 -35.309  16.244  1.00 41.57 LIG 0.04  C 
BRANCH 16 18
ATOM     18  C   ALA P   7      18.903 -36.388  14.180  1.00 41.43 LIG 0.22  C 
ATOM     19 O    ALA P   7      17.783 -35.895  14.341  1.00 42.77 LIG-0.29  OA
ENDBRANCH 16 18
ENDBRANCH 14 16
ENDBRANCH 11 12
BRANCH 11 20
ATOM     20  CB  THR P   6      20.140 -32.548  11.836  1.00 30.67 LIG 0.15  C 
ATOM     21  CG2 THR P   6      18.890 -33.247  12.304  1.00 25.27 LIG 0.04  C 
BRANCH 20 22
ATOM     22 OG1  THR P   6      20.301 -31.307  12.533  1.00 31.72 LIG-0.39  OA
ATOM     23 HG1  THR P   6      19.845 -31.320  13.238  1.00 31.72 LIG 0.21  HD
ENDBRANCH 20 22
ENDBRANCH 11 20
ENDBRANCH 9 11
ENDBRANCH 6 7
BRANCH 6 24
ATOM     24  CB  GLN P   5      22.070 -35.995   8.060  1.00 38.94 LIG 0.04  C 
BRANCH 24 25
ATOM     25  CG  GLN P   5      20.662 -36.057   7.464  1.00 42.79 LIG 0.10  C 
BRANCH 25 26
ATOM     26  CD  GLN P   5      20.612 -35.691   5.986  1.00 45.14 LIG 0.21  C 
ATOM     27  NE2 GLN P   5      21.221 -34.558   5.635  1.00 40.57 LIG-0.37  N 
ATOM     28 21HE GLN P   5      21.612 -34.078   6.232  1.00 40.57 LIG 0.16  HD
ATOM     29 22HE GLN P   5      21.223 -34.308   4.813  1.00 40.57 LIG 0.16  HD
ATOM     30 OE1  GLN P   5      20.038 -36.415   5.171  1.00 46.24 LIG-0.27  OA
ENDBRANCH 25 26
ENDBRANCH 24 25
ENDBRANCH 6 24
ENDBRANCH 3 6
ENDBRANCH 1 2
BRANCH 1 31
ATOM     31  CB  LYS P   4      25.962 -33.907  10.913  1.00 18.02 LIG 0.04  C 
BRANCH 31 32
ATOM     32  CG  LYS P   4      25.589 -32.692  11.730  1.00 21.69 LIG 0.00  C 
BRANCH 32 33
ATOM     33  CD  LYS P   4      24.838 -33.096  13.000  1.00 22.86 LIG 0.03  C 
BRANCH 33 34
ATOM     34  CE  LYS P   4      25.624 -32.679  14.240  1.00 21.56 LIG 0.23  C 
BRANCH 34 35
ATOM     35  NZ  LYS P   4      25.700 -33.776  15.254  1.00 19.01 LIG-0.08  N 
ATOM     36 HZ2  LYS P   4      26.552 -33.957  15.433  1.00 19.01 LIG 0.27  HD
ATOM     37 HZ1  LYS P   4      25.303 -34.506  14.933  1.00 19.01 LIG 0.27  HD
ATOM     38 HZ3  LYS P   4      25.289 -33.519  16.001  1.00 19.01 LIG 0.27  HD
ENDBRANCH 34 35
ENDBRANCH 33 34
ENDBRANCH 32 33
ENDBRANCH 31 32
ENDBRANCH 1 31
BRANCH 1 39
ATOM     39  N   LYS P   4      26.744 -32.386   9.151  1.00 21.49 LIG-0.35  N 
ATOM     40 H    LYS P   4      26.333 -31.688   9.440  1.00 21.49 LIG 0.16  HD
ATOM     41  C   THR P   3      27.908 -32.344   8.521  1.00 20.06 LIG 0.24  C 
ATOM     42 O    THR P   3      28.577 -33.342   8.279  1.00 20.20 LIG-0.27  OA
BRANCH 41 43
ATOM     43  CA  THR P   3      28.405 -30.955   8.129  1.00 21.79 LIG 0.20  C 
BRANCH 43 44
ATOM     44  CB  THR P   3      27.932 -30.620   6.693  1.00 23.67 LIG 0.15  C 
ATOM     45  CG2 THR P   3      26.911 -31.657   6.210  1.00 27.17 LIG 0.04  C 
BRANCH 44 46
ATOM     46 OG1  THR P   3      27.358 -29.307   6.655  1.00 23.16 LIG-0.39  OA
ATOM     47 HG1  THR P   3      27.084 -29.098   7.422  1.00 23.16 LIG 0.21  HD
ENDBRANCH 44 46
ENDBRANCH 43 44
BRANCH 43 48
ATOM     48  N   THR P   3      29.852 -30.863   8.265  1.00 19.24 LIG-0.34  N 
ATOM     49 H    THR P   3      30.277 -31.586   8.074  1.00 19.24 LIG 0.16  HD
ATOM     50  C   ARG P   2      30.437 -29.732   8.657  1.00 23.72 LIG 0.24  C 
ATOM     51 O    ARG P   2      29.825 -28.672   8.841  1.00 20.72 LIG-0.27  OA
BRANCH 50 52
ATOM     52  CA  ARG P   2      31.931 -29.777   8.871  1.00 19.94 LIG 0.18  C 
BRANCH 52 53
ATOM     53  CB  ARG P   2      32.259 -30.610  10.111  1.00 20.09 LIG 0.04  C 
BRANCH 53 54
ATOM     54  CG  ARG P   2      33.653 -31.235  10.082  1.00 23.61 LIG 0.02  C 
BRANCH 54 55
ATOM     55  CD  ARG P   2      34.305 -31.255  11.470  1.00 28.00 LIG 0.14  C 
BRANCH 55 56
ATOM     56  NE  ARG P   2      34.108 -29.990  12.177  1.00 23.66 LIG-0.23  N 
ATOM     57  CZ  ARG P   2      33.083 -29.734  12.990  1.00 25.68 LIG 0.67  C 
ATOM     58  NH1 ARG P   2      32.159 -30.664  13.221  1.00 22.73 LIG-0.23  N 
ATOM     59  NH2 ARG P   2      32.979 -28.546  13.574  1.00 20.68 LIG-0.23  N 
ATOM     60 2HH1 ARG P   2      31.500 -30.495  13.747  1.00 22.73 LIG 0.17  HD
ATOM     61 1HH1 ARG P   2      32.222 -31.435  12.845  1.00 22.73 LIG 0.17  HD
ATOM     62 2HH2 ARG P   2      32.317 -28.381  14.098  1.00 20.68 LIG 0.17  HD
ATOM     63 1HH2 ARG P   2      33.573 -27.942  13.428  1.00 20.68 LIG 0.17  HD
ATOM     64 HE   ARG P   2      34.692 -29.369  12.060  1.00 23.66 LIG 0.18  HD
ENDBRANCH 55 56
ENDBRANCH 54 55
ENDBRANCH 53 54
ENDBRANCH 52 53
BRANCH 52 65
ATOM     65  N   ARG P   2      32.415 -28.407   9.009  1.00 18.68 LIG-0.35  N 
ATOM     66  C   ALA P   1      33.665 -28.095   8.674  1.00 22.59 LIG 0.25  C 
ATOM     67 O    ALA P   1      34.509 -28.947   8.384  1.00 23.11 LIG-0.27  OA
ATOM     68 H    ARG P   2      31.838 -27.847   9.314  1.00 18.68 LIG 0.16  HD
BRANCH 66 69
ATOM     69  CA  ALA P   1      34.027 -26.616   8.658  1.00 20.73 LIG 0.27  C 
ATOM     70  CB  ALA P   1      33.452 -25.947   7.409  1.00 22.81 LIG 0.05  C 
BRANCH 69 71
ATOM     71  N   ALA P   1      35.474 -26.433   8.713  1.00 20.88 LIG-0.07  N 
ATOM     72 H1   ALA P   1      35.839 -26.721   7.954  1.00 20.88 LIG 0.28  HD
ATOM     73 H2   ALA P   1      35.660 -25.570   8.823  1.00 20.88 LIG 0.28  HD
ATOM     74 H3   ALA P   1      35.807 -26.897   9.396  1.00 20.88 LIG 0.28  HD
ENDBRANCH 69 71
ENDBRANCH 66 69
ENDBRANCH 52 65
ENDBRANCH 50 52
ENDBRANCH 43 48
ENDBRANCH 41 43
ENDBRANCH 1 39
TORSDOF 30
ENDMDL
MODEL 2
USER: ADFR SOLUTION from run 1
USER: SCORE 24.477197 LL:  -3.336 LR: -23.255 RR:   0.000 FEB: -14.306
USER: RMSD 11.711419
USER: SEED 56532
USER: STATUS no improvement in best in 10 clusters for 5 generations
USER: GENES 32
USER: genes 0 Translation |==|  0.49313 0.44517 0.53875
USER: genes 1 Rotation |==|  0.58187 0.39953 0.98065 0.54666
USER: genes 2 Torsion [N]-CA--C-[N] |==|  0.34166
USER: genes 3 Torsion [C]-N--CA-[C] |==|  0.62456
USER: genes 4 Torsion [N]-CA--C-[N] |==|  0.35803
USER: genes 5 Torsion [C]-N--CA-[CB] |==|  0.48875
USER: genes 6 Torsion [N]-CA--C-[N] |==|  0.41476
USER: genes 7 Torsion [C]-N--CA-[CB] |==|  0.85489
USER: genes 8 Torsion [N]-CA--C-[O] |==|  0.81570
USER: genes 9 Torsion [N]-CA--CB-[OG1] |==|  0.65325
USER: genes 10 Torsion [CA]-CB--OG1-[HG1] |==|  0.59860
USER: genes 11 Torsion [N]-CA--CB-[CG] |==|  0.35391
USER: genes 12 Torsion [CA]-CB--CG-[CD] |==|  0.70271
USER: genes 13 Torsion [CB]-CG--CD-[NE2] |==|  0.84714
USER: genes 14 Torsion [C]-CA--CB-[CG] |==|  0.58249
USER: genes 15 Torsion [CA]-CB--CG-[CD] |==|  0.59933
USER: genes 16 Torsion [CB]-CG--CD-[CE] |==|  0.90268
USER: genes 17 Torsion [CG]-CD--CE-[NZ] |==|  0.67518
USER: genes 18 Torsion [CD]-CE--NZ-[HZ3] |==|  0.90236
USER: genes 19 Torsion [C]-CA--N-[C] |==|  0.82552
USER: genes 20 Torsion [N]-C--CA-[N] |==|  0.17251
USER: genes 21 Torsion [C]-CA--CB-[CG2] |==|  0.30754
USER: genes 22 Torsion [CA]-CB--OG1-[HG1] |==|  0.18026
USER: genes 23 Torsion [C]-CA--N-[C] |==|  0.79981
USER: genes 24 Torsion [N]-C--CA-[N] |==|  0.54817
USER: genes 25 Torsion [C]-CA--CB-[CG] |==|  0.45204
USER: genes 26 Torsion [CA]-CB--CG-[CD] |==|  0.26674
USER: genes 27 Torsion [CB]-CG--CD-[NE] |==|  0.03110
USER: genes 28 Torsion [CG]-CD--NE-[HE] |==|  0.72343
USER: genes 29 Torsion [C]-CA--N-[C] |==|  0.57650
USER: genes 30 Torsion [N]-C--CA-[N] |==|  0.15179
USER: genes 31 Torsion [C]-CA--N-[H2] |==|  0.43516
ROOT
ATOM      1  CA  LYS P   4      25.520 -32.708  10.279  1.00 25.22 LIG 0.18  C 
ENDROOT
BRANCH 1 2
ATOM      2  C   LYS P   4      26.837 -32.831   9.523  1.00 27.71 LIG 0.24  C 
ATOM      3  N   GLN P   5      27.286 -31.730   8.927  1.00 26.60 LIG-0.35  N 
ATOM      4 H    GLN P   5      26.849 -30.990   8.893  1.00 26.60 LIG 0.16  HD
ATOM      5 O    LYS P   4      27.439 -33.902   9.485  1.00 22.94 LIG-0.27  OA
BRANCH 3 6
ATOM      6  CA  GLN P   5      28.589 -31.695   8.270  1.00 30.64 LIG 0.18  C 
BRANCH 6 7
ATOM      7  C   GLN P   5      29.310 -30.411   8.661  1.00 34.53 LIG 0.24  C 
ATOM      8 O    GLN P   5      28.741 -29.324   8.551  1.00 31.76 LIG-0.27  OA
ATOM      9  N   THR P   6      30.553 -30.521   9.119  1.00 31.32 LIG-0.34  N 
ATOM     10 H    THR P   6      31.004 -31.253   9.150  1.00 31.32 LIG 0.16  HD
BRANCH 9 11
ATOM     11  CA  THR P   6      31.250 -29.337   9.620  1.00 35.73 LIG 0.20  C 
BRANCH 11 12
ATOM     12  C   THR P   6      31.455 -28.269   8.562  1.00 36.89 LIG 0.24  C 
ATOM     13 O    THR P   6      31.617 -28.574   7.382  1.00 31.31 LIG-0.27  OA
ATOM     14  N   ALA P   7      31.469 -27.017   9.012  1.00 39.63 LIG-0.35  N 
ATOM     15 H    ALA P   7      31.363 -26.810   9.840  1.00 39.63 LIG 0.16  HD
BRANCH 14 16
ATOM     16  CA  ALA P   7      31.669 -25.870   8.135  1.00 40.80 LIG 0.16  C 
ATOM     17  CB  ALA P   7      32.921 -26.069   7.297  1.00 41.57 LIG 0.04  C 
BRANCH 16 18
ATOM     18  C   ALA P   7      30.459 -25.636   7.237  1.00 41.43 LIG 0.22  C 
ATOM     19 O    ALA P   7      30.152 -26.457   6.368  1.00 42.77 LIG-0.29  OA
ENDBRANCH 16 18
ENDBRANCH 14 16
ENDBRANCH 11 12
BRANCH 11 20
ATOM     20  CB  THR P   6      32.620 -29.676  10.191  1.00 30.67 LIG 0.15  C 
ATOM     21  CG2 THR P   6      33.696 -29.048   9.344  1.00 25.27 LIG 0.04  C 
BRANCH 20 22
ATOM     22 OG1  THR P   6      32.709 -29.193  11.537  1.00 31.72 LIG-0.39  OA
ATOM     23 HG1  THR P   6      33.491 -28.926  11.688  1.00 31.72 LIG 0.21  HD
ENDBRANCH 20 22
ENDBRANCH 11 20
ENDBRANCH 9 11
ENDBRANCH 6 7
BRANCH 6 24
ATOM     24  CB  GLN P   5      28.442 -31.784   6.745  1.00 38.94 LIG 0.04  C 
BRANCH 24 25
ATOM     25  CG  GLN P   5      29.161 -30.678   5.969  1.00 42.79 LIG 0.10  C 
BRANCH 25 26
ATOM     26  CD  GLN P   5      28.216 -29.644   5.371  1.00 45.14 LIG 0.21  C 
ATOM     27  NE2 GLN P   5      27.250 -30.112   4.581  1.00 40.57 LIG-0.37  N 
ATOM     28 21HE GLN P   5      27.186 -30.957   4.433  1.00 40.57 LIG 0.16  HD
ATOM     29 22HE GLN P   5      26.689 -29.569   4.220  1.00 40.57 LIG 0.16  HD
ATOM     30 OE1  GLN P   5      28.350 -28.444   5.615  1.00 46.24 LIG-0.27  OA
ENDBRANCH 25 26
ENDBRANCH 24 25
ENDBRANCH 6 24
ENDBRANCH 3 6
ENDBRANCH 1 2
BRANCH 1 31
ATOM     31  CB  LYS P   4      25.752 -32.922  11.771  1.00 18.02 LIG 0.04  C 
BRANCH 31 32
ATOM     32  CG  LYS P   4      24.564 -33.514  12.493  1.00 21.69 LIG 0.00  C 
BRANCH 32 33
ATOM     33  CD  LYS P   4      24.438 -32.939  13.905  1.00 22.86 LIG 0.03  C 
BRANCH 33 34
ATOM     34  CE  LYS P   4      25.820 -32.681  14.501  1.00 21.56 LIG 0.23  C 
BRANCH 34 35
ATOM     35  NZ  LYS P   4      26.075 -33.517  15.714  1.00 19.01 LIG-0.08  N 
ATOM     36 HZ2  LYS P   4      26.681 -33.118  16.228  1.00 19.01 LIG 0.27  HD
ATOM     37 HZ1  LYS P   4      26.377 -34.317  15.466  1.00 19.01 LIG 0.27  HD
ATOM     38 HZ3  LYS P   4      25.317 -33.615  16.171  1.00 19.01 LIG 0.27  HD
ENDBRANCH 34 35
ENDBRANCH 33 34
ENDBRANCH 32 33
ENDBRANCH 31 32
ENDBRANCH 1 31
BRANCH 1 39
ATOM     39  N   LYS P   4      24.558 -33.670   9.760  1.00 21.49 LIG-0.35  N 
ATOM     40 H    LYS P   4      24.305 -34.258  10.334  1.00 21.49 LIG 0.16  HD
ATOM     41  C   THR P   3      24.122 -33.630   8.509  1.00 20.06 LIG 0.24  C 
ATOM     42 O    THR P   3      24.338 -32.690   7.753  1.00 20.20 LIG-0.27  OA
BRANCH 41 43
ATOM     43  CA  THR P   3      23.290 -34.826   8.055  1.00 21.79 LIG 0.20  C 
BRANCH 43 44
ATOM     44  CB  THR P   3      22.994 -34.706   6.539  1.00 23.67 LIG 0.15  C 
ATOM     45  CG2 THR P   3      23.759 -35.782   5.758  1.00 27.17 LIG 0.04  C 
BRANCH 44 46
ATOM     46 OG1  THR P   3      21.586 -34.829   6.300  1.00 23.16 LIG-0.39  OA
ATOM     47 HG1  THR P   3      21.183 -34.182   6.653  1.00 23.16 LIG 0.21  HD
ENDBRANCH 44 46
ENDBRANCH 43 44
BRANCH 43 48
ATOM     48  N   THR P   3      22.070 -34.939   8.843  1.00 19.24 LIG-0.34  N 
ATOM     49 H    THR P   3      21.350 -34.728   8.422  1.00 19.24 LIG 0.16  HD
ATOM     50  C   ARG P   2      22.106 -35.342  10.113  1.00 23.72 LIG 0.24  C 
ATOM     51 O    ARG P   2      23.134 -35.730  10.680  1.00 20.72 LIG-0.27  OA
BRANCH 50 52
ATOM     52  CA  ARG P   2      20.800 -35.319  10.871  1.00 19.94 LIG 0.18  C 
BRANCH 52 53
ATOM     53  CB  ARG P   2      20.013 -34.054  10.522  1.00 20.09 LIG 0.04  C 
BRANCH 53 54
ATOM     54  CG  ARG P   2      18.533 -34.128  10.894  1.00 23.61 LIG 0.02  C 
BRANCH 54 55
ATOM     55  CD  ARG P   2      18.248 -33.484  12.256  1.00 28.00 LIG 0.14  C 
BRANCH 55 56
ATOM     56  NE  ARG P   2      19.399 -32.728  12.747  1.00 23.66 LIG-0.23  N 
ATOM     57  CZ  ARG P   2      19.713 -31.494  12.350  1.00 25.68 LIG 0.67  C 
ATOM     58  NH1 ARG P   2      18.952 -30.858  11.463  1.00 22.73 LIG-0.23  N 
ATOM     59  NH2 ARG P   2      20.792 -30.894  12.840  1.00 20.68 LIG-0.23  N 
ATOM     60 2HH1 ARG P   2      19.159 -30.062  11.211  1.00 22.73 LIG 0.17  HD
ATOM     61 1HH1 ARG P   2      18.252 -31.242  11.143  1.00 22.73 LIG 0.17  HD
ATOM     62 2HH2 ARG P   2      20.995 -30.098  12.584  1.00 20.68 LIG 0.17  HD
ATOM     63 1HH2 ARG P   2      21.287 -31.300  13.413  1.00 20.68 LIG 0.17  HD
ATOM     64 HE   ARG P   2      19.907 -33.104  13.330  1.00 23.66 LIG 0.18  HD
ENDBRANCH 55 56
ENDBRANCH 54 55
ENDBRANCH 53 54
ENDBRANCH 52 53
BRANCH 52 65
ATOM     65  N   ARG P   2      21.098 -35.381  12.298  1.00 18.68 LIG-0.35  N 
ATOM     66  C   ALA P   1      20.221 -35.909  13.149  1.00 22.59 LIG 0.25  C 
ATOM     67 O    ALA P   1      19.076 -36.226  12.815  1.00 23.11 LIG-0.27  OA
ATOM     68 H    ARG P   2      21.862 -35.058  12.524  1.00 18.68 LIG 0.16  HD
BRANCH 66 69
ATOM     69  CA  ALA P   1      20.689 -36.119  14.582  1.00 20.73 LIG 0.27  C 
ATOM     70  CB  ALA P   1      19.544 -36.664  15.437  1.00 22.81 LIG 0.05  C 
BRANCH 69 71
ATOM     71  N   ALA P   1      21.200 -34.875  15.151  1.00 20.88 LIG-0.07  N 
ATOM     72 H1   ALA P   1      20.714 -34.191  14.855  1.00 20.88 LIG 0.28  HD
ATOM     73 H2   ALA P   1      21.150 -34.912  16.038  1.00 20.88 LIG 0.28  HD
ATOM     74 H3   ALA P   1      22.048 -34.763  14.906  1.00 20.88 LIG 0.28  HD
ENDBRANCH 69 71
ENDBRANCH 66 69
ENDBRANCH 52 65
ENDBRANCH 50 52
ENDBRANCH 43 48
ENDBRANCH 41 43
ENDBRANCH 1 39
TORSDOF 30
ENDMDL
MODEL 3
USER: ADFR SOLUTION from run 188
USER: SCORE 25.489312 LL:  -4.203 LR: -23.213 RR:   0.000 FEB: -14.264
USER: RMSD 2.492772
USER: SEED 187
USER: STATUS no improvement in best in 8 clusters for 5 generations
USER: GENES 32
USER: genes 0 Translation |==|  0.52071 0.41751 0.49906
USER: genes 1 Rotation |==|  0.42565 0.43664 0.51818 0.99003
USER: genes 2 Torsion [N]-CA--C-[N] |==|  0.42424
USER: genes 3 Torsion [C]-N--CA-[C] |==|  0.75203
USER: genes 4 Torsion [N]-CA--C-[N] |==|  0.24893
USER: genes 5 Torsion [C]-N--CA-[CB] |==|  0.47214
USER: genes 6 Torsion [N]-CA--C-[N] |==|  0.91974
USER: genes 7 Torsion [C]-N--CA-[CB] |==|  0.20380
USER: genes 8 Torsion [N]-CA--C-[O] |==|  0.05401
USER: genes 9 Torsion [N]-CA--CB-[OG1] |==|  0.72271
USER: genes 10 Torsion [CA]-CB--OG1-[HG1] |==|  0.68603
USER: genes 11 Torsion [N]-CA--CB-[CG] |==|  0.58142
USER: genes 12 Torsion [CA]-CB--CG-[CD] |==|  0.15821
USER: genes 13 Torsion [CB]-CG--CD-[NE2] |==|  0.30143
USER: genes 14 Torsion [C]-CA--CB-[CG] |==|  0.06285
USER: genes 15 Torsion [CA]-CB--CG-[CD] |==|  0.43499
USER: genes 16 Torsion [CB]-CG--CD-[CE] |==|  0.14394
USER: genes 17 Torsion [CG]-CD--CE-[NZ] |==|  0.47553
USER: genes 18 Torsion [CD]-CE--NZ-[HZ3] |==|  0.24895
USER: genes 19 Torsion [C]-CA--N-[C] |==|  0.77222
USER: genes 20 Torsion [N]-C--CA-[N] |==|  0.31604
USER: genes 21 Torsion [C]-CA--CB-[CG2] |==|  0.47040
USER: genes 22 Torsion [CA]-CB--OG1-[HG1] |==|  0.42051
USER: genes 23 Torsion [C]-CA--N-[C] |==|  0.68549
USER: genes 24 Torsion [N]-C--CA-[N] |==|  0.36969
USER: genes 25 Torsion [C]-CA--CB-[CG] |==|  0.65161
USER: genes 26 Torsion [CA]-CB--CG-[CD] |==|  0.76261
USER: genes 27 Torsion [CB]-CG--CD-[NE] |==|  0.46629
USER: genes 28 Torsion [CG]-CD--NE-[HE] |==|  0.05785
USER: genes 29 Torsion [C]-CA--N-[C] |==|  0.83227
USER: genes 30 Torsion [N]-C--CA-[N] |==|  0.33636
USER: genes 31 Torsion [C]-CA--N-[H2] |==|  0.02282
ROOT
ATOM      1  CA  LYS P   4      26.244 -33.289   9.445  1.00 25.22 LIG 0.18  C 
ENDROOT
BRANCH 1 2
ATOM      2  C   LYS P   4      24.852 -33.466   8.851  1.00 27.71 LIG 0.24  C 
ATOM      3  N   GLN P   5      24.392 -34.712   8.772  1.00 26.60 LIG-0.35  N 
ATOM      4 H    GLN P   5      24.855 -35.408   8.973  1.00 26.60 LIG 0.16  HD
ATOM      5 O    LYS P   4      24.203 -32.492   8.477  1.00 22.94 LIG-0.27  OA
BRANCH 3 6
ATOM      6  CA  GLN P   5      23.032 -34.997   8.328  1.00 30.64 LIG 0.18  C 
BRANCH 6 7
ATOM      7  C   GLN P   5      22.102 -34.992   9.533  1.00 34.53 LIG 0.24  C 
ATOM      8 O    GLN P   5      21.894 -36.033  10.159  1.00 31.76 LIG-0.27  OA
ATOM      9  N   THR P   6      21.540 -33.834   9.871  1.00 31.32 LIG-0.34  N 
ATOM     10 H    THR P   6      21.610 -33.105   9.423  1.00 31.32 LIG 0.16  HD
BRANCH 9 11
ATOM     11  CA  THR P   6      20.734 -33.746  11.088  1.00 35.73 LIG 0.20  C 
BRANCH 11 12
ATOM     12  C   THR P   6      19.432 -34.521  11.002  1.00 36.89 LIG 0.24  C 
ATOM     13 O    THR P   6      18.923 -35.012  12.008  1.00 31.31 LIG-0.27  OA
ATOM     14  N   ALA P   7      18.921 -34.640   9.779  1.00 39.63 LIG-0.35  N 
ATOM     15 H    ALA P   7      19.285 -34.301   9.078  1.00 39.63 LIG 0.16  HD
BRANCH 14 16
ATOM     16  CA  ALA P   7      17.684 -35.365   9.513  1.00 40.80 LIG 0.16  C 
ATOM     17  CB  ALA P   7      16.494 -34.557  10.002  1.00 41.57 LIG 0.04  C 
BRANCH 16 18
ATOM     18  C   ALA P   7      17.534 -35.688   8.030  1.00 41.43 LIG 0.22  C 
ATOM     19 O    ALA P   7      18.515 -35.677   7.281  1.00 42.77 LIG-0.29  OA
ENDBRANCH 16 18
ENDBRANCH 14 16
ENDBRANCH 11 12
BRANCH 11 20
ATOM     20  CB  THR P   6      20.381 -32.307  11.439  1.00 30.67 LIG 0.15  C 
ATOM     21  CG2 THR P   6      18.953 -32.232  11.913  1.00 25.27 LIG 0.04  C 
BRANCH 20 22
ATOM     22 OG1  THR P   6      21.265 -31.836  12.463  1.00 31.72 LIG-0.39  OA
ATOM     23 HG1  THR P   6      20.831 -31.707  13.170  1.00 31.72 LIG 0.21  HD
ENDBRANCH 20 22
ENDBRANCH 11 20
ENDBRANCH 9 11
ENDBRANCH 6 7
BRANCH 6 24
ATOM     24  CB  GLN P   5      22.959 -36.346   7.600  1.00 38.94 LIG 0.04  C 
BRANCH 24 25
ATOM     25  CG  GLN P   5      21.867 -36.436   6.532  1.00 42.79 LIG 0.10  C 
BRANCH 25 26
ATOM     26  CD  GLN P   5      21.978 -35.362   5.458  1.00 45.14 LIG 0.21  C 
ATOM     27  NE2 GLN P   5      22.373 -35.769   4.252  1.00 40.57 LIG-0.37  N 
ATOM     28 21HE GLN P   5      22.550 -36.600   4.115  1.00 40.57 LIG 0.16  HD
ATOM     29 22HE GLN P   5      22.450 -35.202   3.610  1.00 40.57 LIG 0.16  HD
ATOM     30 OE1  GLN P   5      21.711 -34.185   5.706  1.00 46.24 LIG-0.27  OA
ENDBRANCH 25 26
ENDBRANCH 24 25
ENDBRANCH 6 24
ENDBRANCH 3 6
ENDBRANCH 1 2
BRANCH 1 31
ATOM     31  CB  LYS P   4      26.158 -33.227  10.967  1.00 18.02 LIG 0.04  C 
BRANCH 31 32
ATOM     32  CG  LYS P   4      24.914 -33.869  11.534  1.00 21.69 LIG 0.00  C 
BRANCH 32 33
ATOM     33  CD  LYS P   4      25.130 -34.294  12.987  1.00 22.86 LIG 0.03  C 
BRANCH 33 34
ATOM     34  CE  LYS P   4      25.673 -33.127  13.809  1.00 21.56 LIG 0.23  C 
BRANCH 34 35
ATOM     35  NZ  LYS P   4      25.700 -33.435  15.272  1.00 19.01 LIG-0.08  N 
ATOM     36 HZ2  LYS P   4      25.040 -33.997  15.470  1.00 19.01 LIG 0.27  HD
ATOM     37 HZ1  LYS P   4      25.596 -32.681  15.736  1.00 19.01 LIG 0.27  HD
ATOM     38 HZ3  LYS P   4      26.480 -33.807  15.483  1.00 19.01 LIG 0.27  HD
ENDBRANCH 34 35
ENDBRANCH 33 34
ENDBRANCH 32 33
ENDBRANCH 31 32
ENDBRANCH 1 31
BRANCH 1 39
ATOM     39  N   LYS P   4      26.862 -32.085   8.910  1.00 21.49 LIG-0.35  N 
ATOM     40 H    LYS P   4      26.799 -31.400   9.425  1.00 21.49 LIG 0.16  HD
ATOM     41  C   THR P   3      27.466 -32.064   7.731  1.00 20.06 LIG 0.24  C 
ATOM     42 O    THR P   3      27.719 -33.077   7.088  1.00 20.20 LIG-0.27  OA
BRANCH 41 43
ATOM     43  CA  THR P   3      27.872 -30.687   7.214  1.00 21.79 LIG 0.20  C 
BRANCH 43 44
ATOM     44  CB  THR P   3      27.204 -30.431   5.840  1.00 23.67 LIG 0.15  C 
ATOM     45  CG2 THR P   3      27.378 -28.965   5.425  1.00 27.17 LIG 0.04  C 
BRANCH 44 46
ATOM     46 OG1  THR P   3      27.771 -31.297   4.847  1.00 23.16 LIG-0.39  OA
ATOM     47 HG1  THR P   3      27.200 -31.452   4.251  1.00 23.16 LIG 0.21  HD
ENDBRANCH 44 46
ENDBRANCH 43 44
BRANCH 43 48
ATOM     48  N   THR P   3      29.322 -30.563   7.149  1.00 19.24 LIG-0.34  N 
ATOM     49 H    THR P   3      29.700 -31.071   6.567  1.00 19.24 LIG 0.16  HD
ATOM     50  C   ARG P   2      29.977 -29.719   7.946  1.00 23.72 LIG 0.24  C 
ATOM     51 O    ARG P   2      29.417 -28.928   8.715  1.00 20.72 LIG-0.27  OA
BRANCH 50 52
ATOM     52  CA  ARG P   2      31.485 -29.749   7.875  1.00 19.94 LIG 0.18  C 
BRANCH 52 53
ATOM     53  CB  ARG P   2      32.055 -30.455   9.107  1.00 20.09 LIG 0.04  C 
BRANCH 53 54
ATOM     54  CG  ARG P   2      33.081 -29.623   9.874  1.00 23.61 LIG 0.02  C 
BRANCH 54 55
ATOM     55  CD  ARG P   2      34.493 -29.773   9.295  1.00 28.00 LIG 0.14  C 
BRANCH 55 56
ATOM     56  NE  ARG P   2      35.408 -28.771   9.840  1.00 23.66 LIG-0.23  N 
ATOM     57  CZ  ARG P   2      36.549 -28.399   9.259  1.00 25.68 LIG 0.67  C 
ATOM     58  NH1 ARG P   2      36.917 -28.932   8.096  1.00 22.73 LIG-0.23  N 
ATOM     59  NH2 ARG P   2      37.326 -27.492   9.840  1.00 20.68 LIG-0.23  N 
ATOM     60 2HH1 ARG P   2      37.654 -28.689   7.725  1.00 22.73 LIG 0.17  HD
ATOM     61 1HH1 ARG P   2      36.418 -29.520   7.715  1.00 22.73 LIG 0.17  HD
ATOM     62 2HH2 ARG P   2      38.062 -27.253   9.466  1.00 20.68 LIG 0.17  HD
ATOM     63 1HH2 ARG P   2      37.092 -27.144  10.591  1.00 20.68 LIG 0.17  HD
ATOM     64 HE   ARG P   2      35.196 -28.396  10.585  1.00 23.66 LIG 0.18  HD
ENDBRANCH 55 56
ENDBRANCH 54 55
ENDBRANCH 53 54
ENDBRANCH 52 53
BRANCH 52 65
ATOM     65  N   ARG P   2      31.966 -28.374   7.783  1.00 18.68 LIG-0.35  N 
ATOM     66  C   ALA P   1      31.606 -27.599   6.761  1.00 22.59 LIG 0.25  C 
ATOM     67 O    ALA P   1      30.991 -28.031   5.783  1.00 23.11 LIG-0.27  OA
ATOM     68 H    ARG P   2      32.481 -28.125   8.424  1.00 18.68 LIG 0.16  HD
BRANCH 66 69
ATOM     69  CA  ALA P   1      31.985 -26.127   6.844  1.00 20.73 LIG 0.27  C 
ATOM     70  CB  ALA P   1      30.725 -25.261   6.892  1.00 22.81 LIG 0.05  C 
BRANCH 69 71
ATOM     71  N   ALA P   1      32.825 -25.741   5.715  1.00 20.88 LIG-0.07  N 
ATOM     72 H1   ALA P   1      33.646 -25.557   6.005  1.00 20.88 LIG 0.28  HD
ATOM     73 H2   ALA P   1      32.859 -26.409   5.129  1.00 20.88 LIG 0.28  HD
ATOM     74 H3   ALA P   1      32.482 -25.020   5.322  1.00 20.88 LIG 0.28  HD
ENDBRANCH 69 71
ENDBRANCH 66 69
ENDBRANCH 52 65
ENDBRANCH 50 52
ENDBRANCH 43 48
ENDBRANCH 41 43
ENDBRANCH 1 39
TORSDOF 30
ENDMDL
MODEL 4
USER: ADFR SOLUTION from run 29
USER: SCORE 25.222863 LL:  -3.665 LR: -23.014 RR:   0.000 FEB: -14.065
USER: RMSD 11.411591
USER: SEED 28
USER: STATUS searching
USER: GENES 32
USER: genes 0 Translation |==|  0.49978 0.44110 0.52698
USER: genes 1 Rotation |==|  0.58106 0.47796 0.99272 0.51303
USER: genes 2 Torsion [N]-CA--C-[N] |==|  0.41015
USER: genes 3 Torsion [C]-N--CA-[C] |==|  0.60611
USER: genes 4 Torsion [N]-CA--C-[N] |==|  0.35657
USER: genes 5 Torsion [C]-N--CA-[CB] |==|  0.49119
USER: genes 6 Torsion [N]-CA--C-[N] |==|  0.41625
USER: genes 7 Torsion [C]-N--CA-[CB] |==|  0.85827
USER: genes 8 Torsion [N]-CA--C-[O] |==|  0.83317
USER: genes 9 Torsion [N]-CA--CB-[OG1] |==|  0.63284
USER: genes 10 Torsion [CA]-CB--OG1-[HG1] |==|  0.62629
USER: genes 11 Torsion [N]-CA--CB-[CG] |==|  0.29541
USER: genes 12 Torsion [CA]-CB--CG-[CD] |==|  0.75069
USER: genes 13 Torsion [CB]-CG--CD-[NE2] |==|  0.82989
USER: genes 14 Torsion [C]-CA--CB-[CG] |==|  0.61368
USER: genes 15 Torsion [CA]-CB--CG-[CD] |==|  0.57209
USER: genes 16 Torsion [CB]-CG--CD-[CE] |==|  0.81272
USER: genes 17 Torsion [CG]-CD--CE-[NZ] |==|  0.65138
USER: genes 18 Torsion [CD]-CE--NZ-[HZ3] |==|  0.42716
USER: genes 19 Torsion [C]-CA--N-[C] |==|  0.68847
USER: genes 20 Torsion [N]-C--CA-[N] |==|  0.13889
USER: genes 21 Torsion [C]-CA--CB-[CG2] |==|  0.40856
USER: genes 22 Torsion [CA]-CB--OG1-[HG1] |==|  0.42847
USER: genes 23 Torsion [C]-CA--N-[C] |==|  0.13352
USER: genes 24 Torsion [N]-C--CA-[N] |==|  0.26222
USER: genes 25 Torsion [C]-CA--CB-[CG] |==|  0.80694
USER: genes 26 Torsion [CA]-CB--CG-[CD] |==|  0.35263
USER: genes 27 Torsion [CB]-CG--CD-[NE] |==|  0.82542
USER: genes 28 Torsion [CG]-CD--NE-[HE] |==|  0.11593
USER: genes 29 Torsion [C]-CA--N-[C] |==|  0.75588
USER: genes 30 Torsion [N]-C--CA-[N] |==|  0.98516
USER: genes 31 Torsion [C]-CA--N-[H2] |==|  0.63922
ROOT
ATOM      1  CA  LYS P   4      25.694 -32.794  10.032  1.00 25.22 LIG 0.18  C 
ENDROOT
BRANCH 1 2
ATOM      2  C   LYS P   4      27.038 -32.884   9.319  1.00 27.71 LIG 0.24  C 
ATOM      3  N   GLN P   5      27.533 -31.747   8.836  1.00 26.60 LIG-0.35  N 
ATOM      4 H    GLN P   5      27.113 -30.997   8.849  1.00 26.60 LIG 0.16  HD
ATOM      5 O    LYS P   4      27.619 -33.961   9.213  1.00 22.94 LIG-0.27  OA
BRANCH 3 6
ATOM      6  CA  GLN P   5      28.861 -31.687   8.235  1.00 30.64 LIG 0.18  C 
BRANCH 6 7
ATOM      7  C   GLN P   5      29.528 -30.376   8.631  1.00 34.53 LIG 0.24  C 
ATOM      8 O    GLN P   5      28.939 -29.308   8.466  1.00 31.76 LIG-0.27  OA
ATOM      9  N   THR P   6      30.750 -30.443   9.154  1.00 31.32 LIG-0.34  N 
ATOM     10 H    THR P   6      31.216 -31.161   9.225  1.00 31.32 LIG 0.16  HD
BRANCH 9 11
ATOM     11  CA  THR P   6      31.390 -29.229   9.660  1.00 35.73 LIG 0.20  C 
BRANCH 11 12
ATOM     12  C   THR P   6      31.602 -28.173   8.592  1.00 36.89 LIG 0.24  C 
ATOM     13 O    THR P   6      31.810 -28.492   7.422  1.00 31.31 LIG-0.27  OA
ATOM     14  N   ALA P   7      31.572 -26.914   9.023  1.00 39.63 LIG-0.35  N 
ATOM     15 H    ALA P   7      31.434 -26.697   9.843  1.00 39.63 LIG 0.16  HD
BRANCH 14 16
ATOM     16  CA  ALA P   7      31.772 -25.776   8.134  1.00 40.80 LIG 0.16  C 
ATOM     17  CB  ALA P   7      33.038 -25.971   7.318  1.00 41.57 LIG 0.04  C 
BRANCH 16 18
ATOM     18  C   ALA P   7      30.573 -25.567   7.215  1.00 41.43 LIG 0.22  C 
ATOM     19 O    ALA P   7      30.220 -26.453   6.431  1.00 42.77 LIG-0.29  OA
ENDBRANCH 16 18
ENDBRANCH 14 16
ENDBRANCH 11 12
BRANCH 11 20
ATOM     20  CB  THR P   6      32.747 -29.516  10.288  1.00 30.67 LIG 0.15  C 
ATOM     21  CG2 THR P   6      33.844 -29.025   9.381  1.00 25.27 LIG 0.04  C 
BRANCH 20 22
ATOM     22 OG1  THR P   6      32.831 -28.862  11.561  1.00 31.72 LIG-0.39  OA
ATOM     23 HG1  THR P   6      33.573 -28.475  11.628  1.00 31.72 LIG 0.21  HD
ENDBRANCH 20 22
ENDBRANCH 11 20
ENDBRANCH 9 11
ENDBRANCH 6 7
BRANCH 6 24
ATOM     24  CB  GLN P   5      28.783 -31.809   6.707  1.00 38.94 LIG 0.04  C 
BRANCH 24 25
ATOM     25  CG  GLN P   5      29.034 -30.504   5.949  1.00 42.79 LIG 0.10  C 
BRANCH 25 26
ATOM     26  CD  GLN P   5      27.769 -29.694   5.700  1.00 45.14 LIG 0.21  C 
ATOM     27  NE2 GLN P   5      26.825 -30.280   4.965  1.00 40.57 LIG-0.37  N 
ATOM     28 21HE GLN P   5      26.950 -31.074   4.658  1.00 40.57 LIG 0.16  HD
ATOM     29 22HE GLN P   5      26.091 -29.866   4.797  1.00 40.57 LIG 0.16  HD
ATOM     30 OE1  GLN P   5      27.639 -28.559   6.163  1.00 46.24 LIG-0.27  OA
ENDBRANCH 25 26
ENDBRANCH 24 25
ENDBRANCH 6 24
ENDBRANCH 3 6
ENDBRANCH 1 2
BRANCH 1 31
ATOM     31  CB  LYS P   4      25.908 -32.528  11.518  1.00 18.02 LIG 0.04  C 
BRANCH 31 32
ATOM     32  CG  LYS P   4      24.982 -33.315  12.416  1.00 21.69 LIG 0.00  C 
BRANCH 32 33
ATOM     33  CD  LYS P   4      24.772 -32.597  13.751  1.00 22.86 LIG 0.03  C 
BRANCH 33 34
ATOM     34  CE  LYS P   4      26.068 -32.581  14.558  1.00 21.56 LIG 0.23  C 
BRANCH 34 35
ATOM     35  NZ  LYS P   4      25.885 -33.154  15.927  1.00 19.01 LIG-0.08  N 
ATOM     36 HZ2  LYS P   4      25.282 -33.807  15.898  1.00 19.01 LIG 0.27  HD
ATOM     37 HZ1  LYS P   4      25.605 -32.516  16.481  1.00 19.01 LIG 0.27  HD
ATOM     38 HZ3  LYS P   4      26.661 -33.479  16.219  1.00 19.01 LIG 0.27  HD
ENDBRANCH 34 35
ENDBRANCH 33 34
ENDBRANCH 32 33
ENDBRANCH 31 32
ENDBRANCH 1 31
BRANCH 1 39
ATOM     39  N   LYS P   4      24.941 -34.023   9.827  1.00 21.49 LIG-0.35  N 
ATOM     40 H    LYS P   4      25.281 -34.711  10.214  1.00 21.49 LIG 0.16  HD
ATOM     41  C   THR P   3      23.832 -34.060   9.104  1.00 20.06 LIG 0.24  C 
ATOM     42 O    THR P   3      23.251 -33.054   8.712  1.00 20.20 LIG-0.27  OA
BRANCH 41 43
ATOM     43  CA  THR P   3      23.279 -35.451   8.803  1.00 21.79 LIG 0.20  C 
BRANCH 43 44
ATOM     44  CB  THR P   3      21.914 -35.321   8.081  1.00 23.67 LIG 0.15  C 
ATOM     45  CG2 THR P   3      21.722 -36.474   7.089  1.00 27.17 LIG 0.04  C 
BRANCH 44 46
ATOM     46 OG1  THR P   3      20.848 -35.312   9.041  1.00 23.16 LIG-0.39  OA
ATOM     47 HG1  THR P   3      20.186 -34.905   8.721  1.00 23.16 LIG 0.21  HD
ENDBRANCH 44 46
ENDBRANCH 43 44
BRANCH 43 48
ATOM     48  N   THR P   3      23.182 -36.246  10.019  1.00 19.24 LIG-0.34  N 
ATOM     49 H    THR P   3      23.509 -37.039   9.956  1.00 19.24 LIG 0.16  HD
ATOM     50  C   ARG P   2      22.623 -35.750  11.123  1.00 23.72 LIG 0.24  C 
ATOM     51 O    ARG P   2      22.239 -34.579  11.230  1.00 20.72 LIG-0.27  OA
BRANCH 50 52
ATOM     52  CA  ARG P   2      22.474 -36.694  12.293  1.00 19.94 LIG 0.18  C 
BRANCH 52 53
ATOM     53  CB  ARG P   2      21.168 -36.406  13.036  1.00 20.09 LIG 0.04  C 
BRANCH 53 54
ATOM     54  CG  ARG P   2      21.170 -35.076  13.788  1.00 23.61 LIG 0.02  C 
BRANCH 54 55
ATOM     55  CD  ARG P   2      19.963 -34.204  13.418  1.00 28.00 LIG 0.14  C 
BRANCH 55 56
ATOM     56  NE  ARG P   2      19.979 -33.832  12.004  1.00 23.66 LIG-0.23  N 
ATOM     57  CZ  ARG P   2      19.674 -32.619  11.542  1.00 25.68 LIG 0.67  C 
ATOM     58  NH1 ARG P   2      19.343 -31.642  12.383  1.00 22.73 LIG-0.23  N 
ATOM     59  NH2 ARG P   2      19.700 -32.381  10.236  1.00 20.68 LIG-0.23  N 
ATOM     60 2HH1 ARG P   2      19.147 -30.862  12.080  1.00 22.73 LIG 0.17  HD
ATOM     61 1HH1 ARG P   2      19.325 -31.792  13.230  1.00 22.73 LIG 0.17  HD
ATOM     62 2HH2 ARG P   2      19.502 -31.599   9.938  1.00 20.68 LIG 0.17  HD
ATOM     63 1HH2 ARG P   2      19.913 -33.009   9.689  1.00 20.68 LIG 0.17  HD
ATOM     64 HE   ARG P   2      20.200 -34.436  11.433  1.00 23.66 LIG 0.18  HD
ENDBRANCH 55 56
ENDBRANCH 54 55
ENDBRANCH 53 54
ENDBRANCH 52 53
BRANCH 52 65
ATOM     65  N   ARG P   2      23.631 -36.526  13.166  1.00 18.68 LIG-0.35  N 
ATOM     66  C   ALA P   1      24.741 -37.231  12.961  1.00 22.59 LIG 0.25  C 
ATOM     67 O    ALA P   1      24.803 -38.151  12.141  1.00 23.11 LIG-0.27  OA
ATOM     68 H    ARG P   2      23.528 -35.952  13.798  1.00 18.68 LIG 0.16  HD
BRANCH 66 69
ATOM     69  CA  ALA P   1      25.962 -36.852  13.787  1.00 20.73 LIG 0.27  C 
ATOM     70  CB  ALA P   1      26.374 -38.021  14.684  1.00 22.81 LIG 0.05  C 
BRANCH 69 71
ATOM     71  N   ALA P   1      25.700 -35.663  14.590  1.00 20.88 LIG-0.07  N 
ATOM     72 H1   ALA P   1      25.656 -35.888  15.450  1.00 20.88 LIG 0.28  HD
ATOM     73 H2   ALA P   1      26.356 -35.074  14.471  1.00 20.88 LIG 0.28  HD
ATOM     74 H3   ALA P   1      24.927 -35.299  14.340  1.00 20.88 LIG 0.28  HD
ENDBRANCH 69 71
ENDBRANCH 66 69
ENDBRANCH 52 65
ENDBRANCH 50 52
ENDBRANCH 43 48
ENDBRANCH 41 43
ENDBRANCH 1 39
TORSDOF 30
ENDMDL
MODEL 5
USER: ADFR SOLUTION from run 110
USER: SCORE 25.670602 LL:  -4.147 LR: -22.713 RR:   0.000 FEB: -13.764
USER: RMSD 2.051325
USER: SEED 109
USER: STATUS no improvement in best in 1 clusters for 5 generations
USER: GENES 32
USER: genes 0 Translation |==|  0.51804 0.40359 0.47489
USER: genes 1 Rotation |==|  0.46115 0.49844 0.50014 0.99849
USER: genes 2 Torsion [N]-CA--C-[N] |==|  0.49399
USER: genes 3 Torsion [C]-N--CA-[C] |==|  0.70859
USER: genes 4 Torsion [N]-CA--C-[N] |==|  0.39446
USER: genes 5 Torsion [C]-N--CA-[CB] |==|  0.49903
USER: genes 6 Torsion [N]-CA--C-[N] |==|  0.43495
USER: genes 7 Torsion [C]-N--CA-[CB] |==|  0.49838
USER: genes 8 Torsion [N]-CA--C-[O] |==|  0.89974
USER: genes 9 Torsion [N]-CA--CB-[OG1] |==|  0.62007
USER: genes 10 Torsion [CA]-CB--OG1-[HG1] |==|  0.87365
USER: genes 11 Torsion [N]-CA--CB-[CG] |==|  0.48337
USER: genes 12 Torsion [CA]-CB--CG-[CD] |==|  0.33286
USER: genes 13 Torsion [CB]-CG--CD-[NE2] |==|  0.85685
USER: genes 14 Torsion [C]-CA--CB-[CG] |==|  0.83166
USER: genes 15 Torsion [CA]-CB--CG-[CD] |==|  0.36490
USER: genes 16 Torsion [CB]-CG--CD-[CE] |==|  0.09723
USER: genes 17 Torsion [CG]-CD--CE-[NZ] |==|  0.39797
USER: genes 18 Torsion [CD]-CE--NZ-[HZ3] |==|  0.73615
USER: genes 19 Torsion [C]-CA--N-[C] |==|  0.57825
USER: genes 20 Torsion [N]-C--CA-[N] |==|  0.38325
USER: genes 21 Torsion [C]-CA--CB-[CG2] |==|  0.37085
USER: genes 22 Torsion [CA]-CB--OG1-[HG1] |==|  0.93499
USER: genes 23 Torsion [C]-CA--N-[C] |==|  0.66695
USER: genes 24 Torsion [N]-C--CA-[N] |==|  0.38767
USER: genes 25 Torsion [C]-CA--CB-[CG] |==|  0.44444
USER: genes 26 Torsion [CA]-CB--CG-[CD] |==|  0.98006
USER: genes 27 Torsion [CB]-CG--CD-[NE] |==|  0.30088
USER: genes 28 Torsion [CG]-CD--NE-[HE] |==|  0.04381
USER: genes 29 Torsion [C]-CA--N-[C] |==|  0.80947
USER: genes 30 Torsion [N]-C--CA-[N] |==|  0.43647
USER: genes 31 Torsion [C]-CA--N-[H2] |==|  0.05016
ROOT
ATOM      1  CA  LYS P   4      26.174 -33.582   8.938  1.00 25.22 LIG 0.18  C 
ENDROOT
BRANCH 1 2
ATOM      2  C   LYS P   4      24.671 -33.564   8.684  1.00 27.71 LIG 0.24  C 
ATOM      3  N   GLN P   5      23.992 -34.645   9.058  1.00 26.60 LIG-0.35  N 
ATOM      4 H    GLN P   5      24.358 -35.359   9.365  1.00 26.60 LIG 0.16  HD
ATOM      5 O    LYS P   4      24.136 -32.586   8.167  1.00 22.94 LIG-0.27  OA
BRANCH 3 6
ATOM      6  CA  GLN P   5      22.536 -34.700   8.971  1.00 30.64 LIG 0.18  C 
BRANCH 6 7
ATOM      7  C   GLN P   5      21.948 -34.557  10.368  1.00 34.53 LIG 0.24  C 
ATOM      8 O    GLN P   5      22.504 -35.087  11.331  1.00 31.76 LIG-0.27  OA
ATOM      9  N   THR P   6      20.831 -33.845  10.494  1.00 31.32 LIG-0.34  N 
ATOM     10 H    THR P   6      20.381 -33.516   9.840  1.00 31.32 LIG 0.16  HD
BRANCH 9 11
ATOM     11  CA  THR P   6      20.287 -33.576  11.825  1.00 35.73 LIG 0.20  C 
BRANCH 11 12
ATOM     12  C   THR P   6      19.966 -34.836  12.608  1.00 36.89 LIG 0.24  C 
ATOM     13 O    THR P   6      19.725 -35.894  12.028  1.00 31.31 LIG-0.27  OA
ATOM     14  N   ALA P   7      19.942 -34.694  13.930  1.00 39.63 LIG-0.35  N 
ATOM     15 H    ALA P   7      20.104 -33.950  14.330  1.00 39.63 LIG 0.16  HD
BRANCH 14 16
ATOM     16  CA  ALA P   7      19.636 -35.797  14.833  1.00 40.80 LIG 0.16  C 
ATOM     17  CB  ALA P   7      19.702 -35.321  16.274  1.00 41.57 LIG 0.04  C 
BRANCH 16 18
ATOM     18  C   ALA P   7      18.267 -36.400  14.534  1.00 41.43 LIG 0.22  C 
ATOM     19 O    ALA P   7      17.329 -35.684  14.175  1.00 42.77 LIG-0.29  OA
ENDBRANCH 16 18
ENDBRANCH 14 16
ENDBRANCH 11 12
BRANCH 11 20
ATOM     20  CB  THR P   6      19.014 -32.743  11.767  1.00 30.67 LIG 0.15  C 
ATOM     21  CG2 THR P   6      17.814 -33.629  11.974  1.00 25.27 LIG 0.04  C 
BRANCH 20 22
ATOM     22 OG1  THR P   6      19.060 -31.732  12.781  1.00 31.72 LIG-0.39  OA
ATOM     23 HG1  THR P   6      19.319 -32.071  13.504  1.00 31.72 LIG 0.21  HD
ENDBRANCH 20 22
ENDBRANCH 11 20
ENDBRANCH 9 11
ENDBRANCH 6 7
BRANCH 6 24
ATOM     24  CB  GLN P   5      22.069 -36.010   8.323  1.00 38.94 LIG 0.04  C 
BRANCH 24 25
ATOM     25  CG  GLN P   5      20.553 -36.217   8.323  1.00 42.79 LIG 0.10  C 
BRANCH 25 26
ATOM     26  CD  GLN P   5      19.960 -36.351   6.926  1.00 45.14 LIG 0.21  C 
ATOM     27  NE2 GLN P   5      20.280 -35.397   6.052  1.00 40.57 LIG-0.37  N 
ATOM     28 21HE GLN P   5      20.795 -34.751   6.291  1.00 40.57 LIG 0.16  HD
ATOM     29 22HE GLN P   5      19.972 -35.428   5.250  1.00 40.57 LIG 0.16  HD
ATOM     30 OE1  GLN P   5      19.227 -37.298   6.636  1.00 46.24 LIG-0.27  OA
ENDBRANCH 25 26
ENDBRANCH 24 25
ENDBRANCH 6 24
ENDBRANCH 3 6
ENDBRANCH 1 2
BRANCH 1 31
ATOM     31  CB  LYS P   4      26.450 -33.748  10.428  1.00 18.02 LIG 0.04  C 
BRANCH 31 32
ATOM     32  CG  LYS P   4      25.885 -32.635  11.280  1.00 21.69 LIG 0.00  C 
BRANCH 32 33
ATOM     33  CD  LYS P   4      25.108 -33.198  12.471  1.00 22.86 LIG 0.03  C 
BRANCH 33 34
ATOM     34  CE  LYS P   4      25.765 -34.480  12.979  1.00 21.56 LIG 0.23  C 
BRANCH 34 35
ATOM     35  NZ  LYS P   4      25.697 -34.595  14.469  1.00 19.01 LIG-0.08  N 
ATOM     36 HZ2  LYS P   4      25.595 -35.449  14.696  1.00 19.01 LIG 0.27  HD
ATOM     37 HZ1  LYS P   4      25.006 -34.123  14.772  1.00 19.01 LIG 0.27  HD
ATOM     38 HZ3  LYS P   4      26.450 -34.282  14.825  1.00 19.01 LIG 0.27  HD
ENDBRANCH 34 35
ENDBRANCH 33 34
ENDBRANCH 32 33
ENDBRANCH 31 32
ENDBRANCH 1 31
BRANCH 1 39
ATOM     39  N   LYS P   4      26.776 -32.357   8.431  1.00 21.49 LIG-0.35  N 
ATOM     40 H    LYS P   4      26.246 -31.680   8.428  1.00 21.49 LIG 0.16  HD
ATOM     41  C   THR P   3      28.033 -32.307   8.014  1.00 20.06 LIG 0.24  C 
ATOM     42 O    THR P   3      28.836 -33.216   8.193  1.00 20.20 LIG-0.27  OA
BRANCH 41 43
ATOM     43  CA  THR P   3      28.452 -31.018   7.313  1.00 21.79 LIG 0.20  C 
BRANCH 43 44
ATOM     44  CB  THR P   3      28.378 -31.214   5.779  1.00 23.67 LIG 0.15  C 
ATOM     45  CG2 THR P   3      27.668 -30.026   5.120  1.00 27.17 LIG 0.04  C 
BRANCH 44 46
ATOM     46 OG1  THR P   3      29.697 -31.364   5.236  1.00 23.16 LIG-0.39  OA
ATOM     47 HG1  THR P   3      30.256 -31.012   5.755  1.00 23.16 LIG 0.21  HD
ENDBRANCH 44 46
ENDBRANCH 43 44
BRANCH 43 48
ATOM     48  N   THR P   3      29.778 -30.598   7.748  1.00 19.24 LIG-0.34  N 
ATOM     49 H    THR P   3      30.403 -31.167   7.592  1.00 19.24 LIG 0.16  HD
ATOM     50  C   ARG P   2      29.966 -29.418   8.339  1.00 23.72 LIG 0.24  C 
ATOM     51 O    ARG P   2      29.076 -28.571   8.476  1.00 20.72 LIG-0.27  OA
BRANCH 50 52
ATOM     52  CA  ARG P   2      31.358 -29.128   8.849  1.00 19.94 LIG 0.18  C 
BRANCH 52 53
ATOM     53  CB  ARG P   2      31.436 -29.410  10.351  1.00 20.09 LIG 0.04  C 
BRANCH 53 54
ATOM     54  CG  ARG P   2      32.859 -29.618  10.864  1.00 23.61 LIG 0.02  C 
BRANCH 54 55
ATOM     55  CD  ARG P   2      33.882 -29.671   9.723  1.00 28.00 LIG 0.14  C 
BRANCH 55 56
ATOM     56  NE  ARG P   2      34.713 -28.468   9.687  1.00 23.66 LIG-0.23  N 
ATOM     57  CZ  ARG P   2      35.464 -28.104   8.647  1.00 25.68 LIG 0.67  C 
ATOM     58  NH1 ARG P   2      35.481 -28.840   7.538  1.00 22.73 LIG-0.23  N 
ATOM     59  NH2 ARG P   2      36.201 -27.002   8.715  1.00 20.68 LIG-0.23  N 
ATOM     60 2HH1 ARG P   2      35.967 -28.600   6.870  1.00 22.73 LIG 0.17  HD
ATOM     61 1HH1 ARG P   2      35.005 -29.555   7.489  1.00 22.73 LIG 0.17  HD
ATOM     62 2HH2 ARG P   2      36.687 -26.767   8.045  1.00 20.68 LIG 0.17  HD
ATOM     63 1HH2 ARG P   2      36.194 -26.523   9.429  1.00 20.68 LIG 0.17  HD
ATOM     64 HE   ARG P   2      34.717 -27.963  10.383  1.00 23.66 LIG 0.18  HD
ENDBRANCH 55 56
ENDBRANCH 54 55
ENDBRANCH 53 54
ENDBRANCH 52 53
BRANCH 52 65
ATOM     65  N   ARG P   2      31.672 -27.734   8.554  1.00 18.68 LIG-0.35  N 
ATOM     66  C   ALA P   1      31.847 -27.332   7.297  1.00 22.59 LIG 0.25  C 
ATOM     67 O    ALA P   1      31.907 -28.118   6.349  1.00 23.11 LIG-0.27  OA
ATOM     68 H    ARG P   2      31.729 -27.221   9.242  1.00 18.68 LIG 0.16  HD
BRANCH 66 69
ATOM     69  CA  ALA P   1      31.971 -25.833   7.063  1.00 20.73 LIG 0.27  C 
ATOM     70  CB  ALA P   1      30.586 -25.185   7.051  1.00 22.81 LIG 0.05  C 
BRANCH 69 71
ATOM     71  N   ALA P   1      32.672 -25.557   5.813  1.00 20.88 LIG-0.07  N 
ATOM     72 H1   ALA P   1      33.514 -25.326   5.989  1.00 20.88 LIG 0.28  HD
ATOM     73 H2   ALA P   1      32.665 -26.285   5.302  1.00 20.88 LIG 0.28  HD
ATOM     74 H3   ALA P   1      32.266 -24.891   5.385  1.00 20.88 LIG 0.28  HD
ENDBRANCH 69 71
ENDBRANCH 66 69
ENDBRANCH 52 65
ENDBRANCH 50 52
ENDBRANCH 43 48
ENDBRANCH 41 43
ENDBRANCH 1 39
TORSDOF 30
ENDMDL
MODEL 6
USER: ADFR SOLUTION from run 188
USER: SCORE 25.233536 LL:  -4.022 LR: -22.326 RR:   0.000 FEB: -13.377
USER: RMSD 2.936191
USER: SEED 187
USER: STATUS no improvement in best in 8 clusters for 5 generations
USER: GENES 32
USER: genes 0 Translation |==|  0.50178 0.40011 0.45861
USER: genes 1 Rotation |==|  0.49322 0.44019 0.50438 0.99634
USER: genes 2 Torsion [N]-CA--C-[N] |==|  0.29263
USER: genes 3 Torsion [C]-N--CA-[C] |==|  0.77765
USER: genes 4 Torsion [N]-CA--C-[N] |==|  0.21439
USER: genes 5 Torsion [C]-N--CA-[CB] |==|  0.20755
USER: genes 6 Torsion [N]-CA--C-[N] |==|  0.98986
USER: genes 7 Torsion [C]-N--CA-[CB] |==|  0.16254
USER: genes 8 Torsion [N]-CA--C-[O] |==|  0.01182
USER: genes 9 Torsion [N]-CA--CB-[OG1] |==|  0.04381
USER: genes 10 Torsion [CA]-CB--OG1-[HG1] |==|  0.75136
USER: genes 11 Torsion [N]-CA--CB-[CG] |==|  0.48702
USER: genes 12 Torsion [CA]-CB--CG-[CD] |==|  0.28131
USER: genes 13 Torsion [CB]-CG--CD-[NE2] |==|  0.13293
USER: genes 14 Torsion [C]-CA--CB-[CG] |==|  0.69459
USER: genes 15 Torsion [CA]-CB--CG-[CD] |==|  0.42485
USER: genes 16 Torsion [CB]-CG--CD-[CE] |==|  0.14386
USER: genes 17 Torsion [CG]-CD--CE-[NZ] |==|  0.41032
USER: genes 18 Torsion [CD]-CE--NZ-[HZ3] |==|  0.15109
USER: genes 19 Torsion [C]-CA--N-[C] |==|  0.67501
USER: genes 20 Torsion [N]-C--CA-[N] |==|  0.40563
USER: genes 21 Torsion [C]-CA--CB-[CG2] |==|  0.51132
USER: genes 22 Torsion [CA]-CB--OG1-[HG1] |==|  0.39857
USER: genes 23 Torsion [C]-CA--N-[C] |==|  0.64435
USER: genes 24 Torsion [N]-C--CA-[N] |==|  0.38283
USER: genes 25 Torsion [C]-CA--CB-[CG] |==|  0.65033
USER: genes 26 Torsion [CA]-CB--CG-[CD] |==|  0.75841
USER: genes 27 Torsion [CB]-CG--CD-[NE] |==|  0.45816
USER: genes 28 Torsion [CG]-CD--NE-[HE] |==|  0.05760
USER: genes 29 Torsion [C]-CA--N-[C] |==|  0.83274
USER: genes 30 Torsion [N]-C--CA-[N] |==|  0.34944
USER: genes 31 Torsion [C]-CA--N-[H2] |==|  0.01883
ROOT
ATOM      1  CA  LYS P   4      25.747 -33.655   8.596  1.00 25.22 LIG 0.18  C 
ENDROOT
BRANCH 1 2
ATOM      2  C   LYS P   4      24.342 -33.635   8.006  1.00 27.71 LIG 0.24  C 
ATOM      3  N   GLN P   5      24.168 -34.288   6.861  1.00 26.60 LIG-0.35  N 
ATOM      4 H    GLN P   5      24.806 -34.655   6.416  1.00 26.60 LIG 0.16  HD
ATOM      5 O    LYS P   4      23.430 -33.044   8.581  1.00 22.94 LIG-0.27  OA
BRANCH 3 6
ATOM      6  CA  GLN P   5      22.847 -34.436   6.259  1.00 30.64 LIG 0.18  C 
BRANCH 6 7
ATOM      7  C   GLN P   5      22.103 -35.565   6.959  1.00 34.53 LIG 0.24  C 
ATOM      8 O    GLN P   5      22.004 -36.668   6.420  1.00 31.76 LIG-0.27  OA
ATOM      9  N   THR P   6      21.580 -35.307   8.155  1.00 31.32 LIG-0.34  N 
ATOM     10 H    THR P   6      21.573 -34.535   8.533  1.00 31.32 LIG 0.16  HD
BRANCH 9 11
ATOM     11  CA  THR P   6      20.958 -36.385   8.924  1.00 35.73 LIG 0.20  C 
BRANCH 11 12
ATOM     12  C   THR P   6      20.078 -35.885  10.054  1.00 36.89 LIG 0.24  C 
ATOM     13 O    THR P   6      19.417 -36.669  10.733  1.00 31.31 LIG-0.27  OA
ATOM     14  N   ALA P   7      20.065 -34.565  10.223  1.00 39.63 LIG-0.35  N 
ATOM     15 H    ALA P   7      20.523 -34.021   9.741  1.00 39.63 LIG 0.16  HD
BRANCH 14 16
ATOM     16  CA  ALA P   7      19.263 -33.913  11.252  1.00 40.80 LIG 0.16  C 
ATOM     17  CB  ALA P   7      19.655 -34.437  12.623  1.00 41.57 LIG 0.04  C 
BRANCH 16 18
ATOM     18  C   ALA P   7      19.412 -32.397  11.199  1.00 41.43 LIG 0.22  C 
ATOM     19 O    ALA P   7      20.079 -31.860  10.310  1.00 42.77 LIG-0.29  OA
ENDBRANCH 16 18
ENDBRANCH 14 16
ENDBRANCH 11 12
BRANCH 11 20
ATOM     20  CB  THR P   6      21.990 -37.322   9.535  1.00 30.67 LIG 0.15  C 
ATOM     21  CG2 THR P   6      22.023 -38.617   8.767  1.00 25.27 LIG 0.04  C 
BRANCH 20 22
ATOM     22 OG1  THR P   6      23.280 -36.698   9.503  1.00 31.72 LIG-0.39  OA
ATOM     23 HG1  THR P   6      23.664 -36.887   8.781  1.00 31.72 LIG 0.21  HD
ENDBRANCH 20 22
ENDBRANCH 11 20
ENDBRANCH 9 11
ENDBRANCH 6 7
BRANCH 6 24
ATOM     24  CB  GLN P   5      22.953 -34.715   4.754  1.00 38.94 LIG 0.04  C 
BRANCH 24 25
ATOM     25  CG  GLN P   5      21.617 -34.995   4.062  1.00 42.79 LIG 0.10  C 
BRANCH 25 26
ATOM     26  CD  GLN P   5      21.071 -33.801   3.291  1.00 45.14 LIG 0.21  C 
ATOM     27  NE2 GLN P   5      21.928 -33.173   2.486  1.00 40.57 LIG-0.37  N 
ATOM     28 21HE GLN P   5      22.741 -33.448   2.425  1.00 40.57 LIG 0.16  HD
ATOM     29 22HE GLN P   5      21.669 -32.494   2.027  1.00 40.57 LIG 0.16  HD
ATOM     30 OE1  GLN P   5      19.897 -33.447   3.414  1.00 46.24 LIG-0.27  OA
ENDBRANCH 25 26
ENDBRANCH 24 25
ENDBRANCH 6 24
ENDBRANCH 3 6
ENDBRANCH 1 2
BRANCH 1 31
ATOM     31  CB  LYS P   4      25.687 -34.008  10.078  1.00 18.02 LIG 0.04  C 
BRANCH 31 32
ATOM     32  CG  LYS P   4      26.026 -32.854  10.993  1.00 21.69 LIG 0.00  C 
BRANCH 32 33
ATOM     33  CD  LYS P   4      25.342 -33.013  12.352  1.00 22.86 LIG 0.03  C 
BRANCH 33 34
ATOM     34  CE  LYS P   4      25.632 -34.394  12.937  1.00 21.56 LIG 0.23  C 
BRANCH 34 35
ATOM     35  NZ  LYS P   4      25.700 -34.370  14.430  1.00 19.01 LIG-0.08  N 
ATOM     36 HZ2  LYS P   4      26.399 -33.883  14.688  1.00 19.01 LIG 0.27  HD
ATOM     37 HZ1  LYS P   4      25.788 -35.201  14.738  1.00 19.01 LIG 0.27  HD
ATOM     38 HZ3  LYS P   4      24.953 -34.011  14.756  1.00 19.01 LIG 0.27  HD
ENDBRANCH 34 35
ENDBRANCH 33 34
ENDBRANCH 32 33
ENDBRANCH 31 32
ENDBRANCH 1 31
BRANCH 1 39
ATOM     39  N   LYS P   4      26.387 -32.363   8.395  1.00 21.49 LIG-0.35  N 
ATOM     40 H    LYS P   4      25.995 -31.711   8.796  1.00 21.49 LIG 0.16  HD
ATOM     41  C   THR P   3      27.478 -32.221   7.658  1.00 20.06 LIG 0.24  C 
ATOM     42 O    THR P   3      28.138 -33.169   7.246  1.00 20.20 LIG-0.27  OA
BRANCH 41 43
ATOM     43  CA  THR P   3      27.904 -30.785   7.365  1.00 21.79 LIG 0.20  C 
BRANCH 43 44
ATOM     44  CB  THR P   3      27.226 -30.299   6.060  1.00 23.67 LIG 0.15  C 
ATOM     45  CG2 THR P   3      27.718 -28.894   5.693  1.00 27.17 LIG 0.04  C 
BRANCH 44 46
ATOM     46 OG1  THR P   3      27.502 -31.214   4.991  1.00 23.16 LIG-0.39  OA
ATOM     47 HG1  THR P   3      26.827 -31.276   4.494  1.00 23.16 LIG 0.21  HD
ENDBRANCH 44 46
ENDBRANCH 43 44
BRANCH 43 48
ATOM     48  N   THR P   3      29.355 -30.675   7.303  1.00 19.24 LIG-0.34  N 
ATOM     49 H    THR P   3      29.734 -31.238   6.774  1.00 19.24 LIG 0.16  HD
ATOM     50  C   ARG P   2      30.008 -29.764   8.022  1.00 23.72 LIG 0.24  C 
ATOM     51 O    ARG P   2      29.447 -28.901   8.708  1.00 20.72 LIG-0.27  OA
BRANCH 50 52
ATOM     52  CA  ARG P   2      31.517 -29.808   7.968  1.00 19.94 LIG 0.18  C 
BRANCH 52 53
ATOM     53  CB  ARG P   2      32.067 -30.505   9.214  1.00 20.09 LIG 0.04  C 
BRANCH 53 54
ATOM     54  CG  ARG P   2      33.100 -29.678   9.975  1.00 23.61 LIG 0.02  C 
BRANCH 54 55
ATOM     55  CD  ARG P   2      34.520 -29.887   9.433  1.00 28.00 LIG 0.14  C 
BRANCH 55 56
ATOM     56  NE  ARG P   2      35.438 -28.853   9.911  1.00 23.66 LIG-0.23  N 
ATOM     57  CZ  ARG P   2      36.592 -28.541   9.321  1.00 25.68 LIG 0.67  C 
ATOM     58  NH1 ARG P   2      36.972 -29.171   8.212  1.00 22.73 LIG-0.23  N 
ATOM     59  NH2 ARG P   2      37.369 -27.598   9.840  1.00 20.68 LIG-0.23  N 
ATOM     60 2HH1 ARG P   2      37.718 -28.966   7.835  1.00 22.73 LIG 0.17  HD
ATOM     61 1HH1 ARG P   2      36.473 -29.783   7.871  1.00 22.73 LIG 0.17  HD
ATOM     62 2HH2 ARG P   2      38.114 -27.398   9.460  1.00 20.68 LIG 0.17  HD
ATOM     63 1HH2 ARG P   2      37.128 -27.189  10.556  1.00 20.68 LIG 0.17  HD
ATOM     64 HE   ARG P   2      35.218 -28.418  10.619  1.00 23.66 LIG 0.18  HD
ENDBRANCH 55 56
ENDBRANCH 54 55
ENDBRANCH 53 54
ENDBRANCH 52 53
BRANCH 52 65
ATOM     65  N   ARG P   2      32.012 -28.439   7.864  1.00 18.68 LIG-0.35  N 
ATOM     66  C   ALA P   1      31.667 -27.673   6.831  1.00 22.59 LIG 0.25  C 
ATOM     67 O    ALA P   1      31.056 -28.109   5.853  1.00 23.11 LIG-0.27  OA
ATOM     68 H    ARG P   2      32.524 -28.188   8.507  1.00 18.68 LIG 0.16  HD
BRANCH 66 69
ATOM     69  CA  ALA P   1      32.059 -26.203   6.901  1.00 20.73 LIG 0.27  C 
ATOM     70  CB  ALA P   1      30.811 -25.332   7.047  1.00 22.81 LIG 0.05  C 
BRANCH 69 71
ATOM     71  N   ALA P   1      32.819 -25.810   5.718  1.00 20.88 LIG-0.07  N 
ATOM     72 H1   ALA P   1      33.655 -25.613   5.954  1.00 20.88 LIG 0.28  HD
ATOM     73 H2   ALA P   1      32.825 -26.480   5.133  1.00 20.88 LIG 0.28  HD
ATOM     74 H3   ALA P   1      32.441 -25.095   5.346  1.00 20.88 LIG 0.28  HD
ENDBRANCH 69 71
ENDBRANCH 66 69
ENDBRANCH 52 65
ENDBRANCH 50 52
ENDBRANCH 43 48
ENDBRANCH 41 43
ENDBRANCH 1 39
TORSDOF 30
ENDMDL
MODEL 7
USER: ADFR SOLUTION from run 40
USER: SCORE 24.260737 LL:  -4.750 LR: -22.166 RR:   0.000 FEB: -13.217
USER: RMSD 10.653168
USER: SEED 39
USER: STATUS 1 or 2 clusters left
USER: GENES 32
USER: genes 0 Translation |==|  0.74698 0.54516 0.58401
USER: genes 1 Rotation |==|  0.12114 0.52928 0.20544 0.63727
USER: genes 2 Torsion [N]-CA--C-[N] |==|  0.48131
USER: genes 3 Torsion [C]-N--CA-[C] |==|  0.14476
USER: genes 4 Torsion [N]-CA--C-[N] |==|  0.61114
USER: genes 5 Torsion [C]-N--CA-[CB] |==|  0.51447
USER: genes 6 Torsion [N]-CA--C-[N] |==|  0.37429
USER: genes 7 Torsion [C]-N--CA-[CB] |==|  0.21990
USER: genes 8 Torsion [N]-CA--C-[O] |==|  0.76343
USER: genes 9 Torsion [N]-CA--CB-[OG1] |==|  0.41885
USER: genes 10 Torsion [CA]-CB--OG1-[HG1] |==|  0.31718
USER: genes 11 Torsion [N]-CA--CB-[CG] |==|  0.71863
USER: genes 12 Torsion [CA]-CB--CG-[CD] |==|  0.21593
USER: genes 13 Torsion [CB]-CG--CD-[NE2] |==|  0.82006
USER: genes 14 Torsion [C]-CA--CB-[CG] |==|  0.92052
USER: genes 15 Torsion [CA]-CB--CG-[CD] |==|  0.59726
USER: genes 16 Torsion [CB]-CG--CD-[CE] |==|  0.53058
USER: genes 17 Torsion [CG]-CD--CE-[NZ] |==|  0.24945
USER: genes 18 Torsion [CD]-CE--NZ-[HZ3] |==|  0.78437
USER: genes 19 Torsion [C]-CA--N-[C] |==|  0.63530
USER: genes 20 Torsion [N]-C--CA-[N] |==|  0.71793
USER: genes 21 Torsion [C]-CA--CB-[CG2] |==|  0.41010
USER: genes 22 Torsion [CA]-CB--OG1-[HG1] |==|  0.78570
USER: genes 23 Torsion [C]-CA--N-[C] |==|  0.67435
USER: genes 24 Torsion [N]-C--CA-[N] |==|  0.54444
USER: genes 25 Torsion [C]-CA--CB-[CG] |==|  0.50490
USER: genes 26 Torsion [CA]-CB--CG-[CD] |==|  0.35879
USER: genes 27 Torsion [CB]-CG--CD-[NE] |==|  0.90495
USER: genes 28 Torsion [CG]-CD--NE-[HE] |==|  0.98873
USER: genes 29 Torsion [C]-CA--N-[C] |==|  0.71768
USER: genes 30 Torsion [N]-C--CA-[N] |==|  0.74932
USER: genes 31 Torsion [C]-CA--N-[H2] |==|  0.21188
ROOT
ATOM      1  CA  LYS P   4      32.183 -30.609  11.229  1.00 25.22 LIG 0.18  C 
ENDROOT
BRANCH 1 2
ATOM      2  C   LYS P   4      31.527 -30.119   9.944  1.00 27.71 LIG 0.24  C 
ATOM      3  N   GLN P   5      31.164 -28.840   9.911  1.00 26.60 LIG-0.35  N 
ATOM      4 H    GLN P   5      31.221 -28.307  10.584  1.00 26.60 LIG 0.16  HD
ATOM      5 O    LYS P   4      31.358 -30.885   8.997  1.00 22.94 LIG-0.27  OA
BRANCH 3 6
ATOM      6  CA  GLN P   5      30.631 -28.228   8.698  1.00 30.64 LIG 0.18  C 
BRANCH 6 7
ATOM      7  C   GLN P   5      29.481 -29.079   8.175  1.00 34.53 LIG 0.24  C 
ATOM      8 O    GLN P   5      28.674 -29.578   8.960  1.00 31.76 LIG-0.27  OA
ATOM      9  N   THR P   6      29.393 -29.249   6.858  1.00 31.32 LIG-0.34  N 
ATOM     10 H    THR P   6      29.971 -28.971   6.286  1.00 31.32 LIG 0.16  HD
BRANCH 9 11
ATOM     11  CA  THR P   6      28.244 -29.956   6.293  1.00 35.73 LIG 0.20  C 
BRANCH 11 12
ATOM     12  C   THR P   6      28.013 -31.320   6.916  1.00 36.89 LIG 0.24  C 
ATOM     13 O    THR P   6      28.947 -32.104   7.082  1.00 31.31 LIG-0.27  OA
ATOM     14  N   ALA P   7      26.750 -31.595   7.232  1.00 39.63 LIG-0.35  N 
ATOM     15 H    ALA P   7      26.100 -31.046   7.107  1.00 39.63 LIG 0.16  HD
BRANCH 14 16
ATOM     16  CA  ALA P   7      26.348 -32.865   7.825  1.00 40.80 LIG 0.16  C 
ATOM     17  CB  ALA P   7      26.664 -32.866   9.311  1.00 41.57 LIG 0.04  C 
BRANCH 16 18
ATOM     18  C   ALA P   7      24.866 -33.143   7.596  1.00 41.43 LIG 0.22  C 
ATOM     19 O    ALA P   7      24.014 -32.685   8.362  1.00 42.77 LIG-0.29  OA
ENDBRANCH 16 18
ENDBRANCH 14 16
ENDBRANCH 11 12
BRANCH 11 20
ATOM     20  CB  THR P   6      28.380 -30.163   4.791  1.00 30.67 LIG 0.15  C 
ATOM     21  CG2 THR P   6      29.836 -30.274   4.420  1.00 25.27 LIG 0.04  C 
BRANCH 20 22
ATOM     22 OG1  THR P   6      27.682 -31.354   4.408  1.00 31.72 LIG-0.39  OA
ATOM     23 HG1  THR P   6      27.032 -31.152   3.917  1.00 31.72 LIG 0.21  HD
ENDBRANCH 20 22
ENDBRANCH 11 20
ENDBRANCH 9 11
ENDBRANCH 6 7
BRANCH 6 24
ATOM     24  CB  GLN P   5      31.720 -28.081   7.627  1.00 38.94 LIG 0.04  C 
BRANCH 24 25
ATOM     25  CG  GLN P   5      32.302 -26.672   7.499  1.00 42.79 LIG 0.10  C 
BRANCH 25 26
ATOM     26  CD  GLN P   5      33.306 -26.329   8.592  1.00 45.14 LIG 0.21  C 
ATOM     27  NE2 GLN P   5      32.832 -26.270   9.836  1.00 40.57 LIG-0.37  N 
ATOM     28 21HE GLN P   5      31.998 -26.421   9.985  1.00 40.57 LIG 0.16  HD
ATOM     29 22HE GLN P   5      33.358 -26.082  10.489  1.00 40.57 LIG 0.16  HD
ATOM     30 OE1  GLN P   5      34.491 -26.122   8.324  1.00 46.24 LIG-0.27  OA
ENDBRANCH 25 26
ENDBRANCH 24 25
ENDBRANCH 6 24
ENDBRANCH 3 6
ENDBRANCH 1 2
BRANCH 1 31
ATOM     31  CB  LYS P   4      33.512 -29.892  11.443  1.00 18.02 LIG 0.04  C 
BRANCH 31 32
ATOM     32  CG  LYS P   4      34.183 -29.459  10.160  1.00 21.69 LIG 0.00  C 
BRANCH 32 33
ATOM     33  CD  LYS P   4      35.705 -29.567  10.274  1.00 22.86 LIG 0.03  C 
BRANCH 33 34
ATOM     34  CE  LYS P   4      36.379 -28.879   9.090  1.00 21.56 LIG 0.23  C 
BRANCH 34 35
ATOM     35  NZ  LYS P   4      36.655 -27.434   9.361  1.00 19.01 LIG-0.08  N 
ATOM     36 HZ2  LYS P   4      37.258 -27.133   8.781  1.00 19.01 LIG 0.27  HD
ATOM     37 HZ1  LYS P   4      36.968 -27.341  10.189  1.00 19.01 LIG 0.27  HD
ATOM     38 HZ3  LYS P   4      35.902 -26.967   9.275  1.00 19.01 LIG 0.27  HD
ENDBRANCH 34 35
ENDBRANCH 33 34
ENDBRANCH 32 33
ENDBRANCH 31 32
ENDBRANCH 1 31
BRANCH 1 39
ATOM     39  N   LYS P   4      32.374 -32.051  11.170  1.00 21.49 LIG-0.35  N 
ATOM     40 H    LYS P   4      32.739 -32.327  10.443  1.00 21.49 LIG 0.16  HD
ATOM     41  C   THR P   3      32.011 -32.853  12.160  1.00 20.06 LIG 0.24  C 
ATOM     42 O    THR P   3      31.666 -32.445  13.264  1.00 20.20 LIG-0.27  OA
BRANCH 41 43
ATOM     43  CA  THR P   3      32.075 -34.349  11.863  1.00 21.79 LIG 0.20  C 
BRANCH 43 44
ATOM     44  CB  THR P   3      33.067 -34.605  10.702  1.00 23.67 LIG 0.15  C 
ATOM     45  CG2 THR P   3      33.762 -35.960  10.879  1.00 27.17 LIG 0.04  C 
BRANCH 44 46
ATOM     46 OG1  THR P   3      32.376 -34.565   9.445  1.00 23.16 LIG-0.39  OA
ATOM     47 HG1  THR P   3      31.954 -35.283   9.335  1.00 23.16 LIG 0.21  HD
ENDBRANCH 44 46
ENDBRANCH 43 44
BRANCH 43 48
ATOM     48  N   THR P   3      30.749 -34.879  11.578  1.00 19.24 LIG-0.34  N 
ATOM     49 H    THR P   3      30.372 -34.546  10.881  1.00 19.24 LIG 0.16  HD
ATOM     50  C   ARG P   2      30.196 -35.806  12.360  1.00 23.72 LIG 0.24  C 
ATOM     51 O    ARG P   2      30.783 -36.344  13.306  1.00 20.72 LIG-0.27  OA
BRANCH 50 52
ATOM     52  CA  ARG P   2      28.775 -36.207  12.039  1.00 19.94 LIG 0.18  C 
BRANCH 52 53
ATOM     53  CB  ARG P   2      27.944 -34.968  11.700  1.00 20.09 LIG 0.04  C 
BRANCH 53 54
ATOM     54  CG  ARG P   2      26.478 -35.274  11.402  1.00 23.61 LIG 0.02  C 
BRANCH 54 55
ATOM     55  CD  ARG P   2      25.527 -34.388  12.216  1.00 28.00 LIG 0.14  C 
BRANCH 55 56
ATOM     56  NE  ARG P   2      26.069 -34.090  13.541  1.00 23.66 LIG-0.23  N 
ATOM     57  CZ  ARG P   2      25.489 -33.280  14.427  1.00 25.68 LIG 0.67  C 
ATOM     58  NH1 ARG P   2      24.330 -32.691  14.141  1.00 22.73 LIG-0.23  N 
ATOM     59  NH2 ARG P   2      26.067 -33.056  15.600  1.00 20.68 LIG-0.23  N 
ATOM     60 2HH1 ARG P   2      23.959 -32.169  14.716  1.00 22.73 LIG 0.17  HD
ATOM     61 1HH1 ARG P   2      23.950 -32.833  13.382  1.00 22.73 LIG 0.17  HD
ATOM     62 2HH2 ARG P   2      25.693 -32.533  16.171  1.00 20.68 LIG 0.17  HD
ATOM     63 1HH2 ARG P   2      26.816 -33.434  15.790  1.00 20.68 LIG 0.17  HD
ATOM     64 HE   ARG P   2      26.812 -34.463  13.764  1.00 23.66 LIG 0.18  HD
ENDBRANCH 55 56
ENDBRANCH 54 55
ENDBRANCH 53 54
ENDBRANCH 52 53
BRANCH 52 65
ATOM     65  N   ARG P   2      28.228 -36.915  13.192  1.00 18.68 LIG-0.35  N 
ATOM     66  C   ALA P   1      28.144 -38.243  13.192  1.00 22.59 LIG 0.25  C 
ATOM     67 O    ALA P   1      28.372 -38.925  12.190  1.00 23.11 LIG-0.27  OA
ATOM     68 H    ARG P   2      27.977 -36.410  13.841  1.00 18.68 LIG 0.16  HD
BRANCH 66 69
ATOM     69  CA  ALA P   1      27.751 -38.910  14.504  1.00 20.73 LIG 0.27  C 
ATOM     70  CB  ALA P   1      26.802 -38.005  15.291  1.00 22.81 LIG 0.05  C 
BRANCH 69 71
ATOM     71  N   ALA P   1      28.931 -39.226  15.302  1.00 20.88 LIG-0.07  N 
ATOM     72 H1   ALA P   1      29.559 -39.577  14.777  1.00 20.88 LIG 0.28  HD
ATOM     73 H2   ALA P   1      29.242 -38.483  15.679  1.00 20.88 LIG 0.28  HD
ATOM     74 H3   ALA P   1      28.714 -39.812  15.935  1.00 20.88 LIG 0.28  HD
ENDBRANCH 69 71
ENDBRANCH 66 69
ENDBRANCH 52 65
ENDBRANCH 50 52
ENDBRANCH 43 48
ENDBRANCH 41 43
ENDBRANCH 1 39
TORSDOF 30
ENDMDL
MODEL 8
USER: ADFR SOLUTION from run 26
USER: SCORE 24.900123 LL:  -4.189 LR: -22.102 RR:   0.000 FEB: -13.153
USER: RMSD 12.011465
USER: SEED 25
USER: STATUS no improvement in best in 7 clusters for 5 generations
USER: GENES 32
USER: genes 0 Translation |==|  0.49639 0.43651 0.53491
USER: genes 1 Rotation |==|  0.61825 0.40162 0.97299 0.55114
USER: genes 2 Torsion [N]-CA--C-[N] |==|  0.36059
USER: genes 3 Torsion [C]-N--CA-[C] |==|  0.56272
USER: genes 4 Torsion [N]-CA--C-[N] |==|  0.52694
USER: genes 5 Torsion [C]-N--CA-[CB] |==|  0.82648
USER: genes 6 Torsion [N]-CA--C-[N] |==|  0.35453
USER: genes 7 Torsion [C]-N--CA-[CB] |==|  0.40742
USER: genes 8 Torsion [N]-CA--C-[O] |==|  0.04082
USER: genes 9 Torsion [N]-CA--CB-[OG1] |==|  0.84175
USER: genes 10 Torsion [CA]-CB--OG1-[HG1] |==|  0.95161
USER: genes 11 Torsion [N]-CA--CB-[CG] |==|  0.23501
USER: genes 12 Torsion [CA]-CB--CG-[CD] |==|  0.33832
USER: genes 13 Torsion [CB]-CG--CD-[NE2] |==|  0.29378
USER: genes 14 Torsion [C]-CA--CB-[CG] |==|  0.55274
USER: genes 15 Torsion [CA]-CB--CG-[CD] |==|  0.66263
USER: genes 16 Torsion [CB]-CG--CD-[CE] |==|  0.81350
USER: genes 17 Torsion [CG]-CD--CE-[NZ] |==|  0.79258
USER: genes 18 Torsion [CD]-CE--NZ-[HZ3] |==|  0.58776
USER: genes 19 Torsion [C]-CA--N-[C] |==|  0.81004
USER: genes 20 Torsion [N]-C--CA-[N] |==|  0.21950
USER: genes 21 Torsion [C]-CA--CB-[CG2] |==|  0.28403
USER: genes 22 Torsion [CA]-CB--OG1-[HG1] |==|  0.26478
USER: genes 23 Torsion [C]-CA--N-[C] |==|  0.76653
USER: genes 24 Torsion [N]-C--CA-[N] |==|  0.57220
USER: genes 25 Torsion [C]-CA--CB-[CG] |==|  0.69473
USER: genes 26 Torsion [CA]-CB--CG-[CD] |==|  0.68070
USER: genes 27 Torsion [CB]-CG--CD-[NE] |==|  0.09536
USER: genes 28 Torsion [CG]-CD--NE-[HE] |==|  0.09144
USER: genes 29 Torsion [C]-CA--N-[C] |==|  0.58711
USER: genes 30 Torsion [N]-C--CA-[N] |==|  0.10172
USER: genes 31 Torsion [C]-CA--N-[H2] |==|  0.47300
ROOT
ATOM      1  CA  LYS P   4      25.605 -32.890  10.198  1.00 25.22 LIG 0.18  C 
ENDROOT
BRANCH 1 2
ATOM      2  C   LYS P   4      26.796 -32.993   9.253  1.00 27.71 LIG 0.24  C 
ATOM      3  N   GLN P   5      27.228 -31.856   8.716  1.00 26.60 LIG-0.35  N 
ATOM      4 H    GLN P   5      26.839 -31.096   8.820  1.00 26.60 LIG 0.16  HD
ATOM      5 O    LYS P   4      27.318 -34.081   9.021  1.00 22.94 LIG-0.27  OA
BRANCH 3 6
ATOM      6  CA  GLN P   5      28.429 -31.810   7.886  1.00 30.64 LIG 0.18  C 
BRANCH 6 7
ATOM      7  C   GLN P   5      28.981 -30.391   7.886  1.00 34.53 LIG 0.24  C 
ATOM      8 O    GLN P   5      28.526 -29.550   8.662  1.00 31.76 LIG-0.27  OA
ATOM      9  N   THR P   6      29.959 -30.113   7.027  1.00 31.32 LIG-0.34  N 
ATOM     10 H    THR P   6      30.257 -30.654   6.429  1.00 31.32 LIG 0.16  HD
BRANCH 9 11
ATOM     11  CA  THR P   6      30.607 -28.803   7.064  1.00 35.73 LIG 0.20  C 
BRANCH 11 12
ATOM     12  C   THR P   6      31.253 -28.491   8.402  1.00 36.89 LIG 0.24  C 
ATOM     13 O    THR P   6      30.607 -28.565   9.446  1.00 31.31 LIG-0.27  OA
ATOM     14  N   ALA P   7      32.528 -28.116   8.344  1.00 39.63 LIG-0.35  N 
ATOM     15 H    ALA P   7      32.973 -28.059   7.610  1.00 39.63 LIG 0.16  HD
BRANCH 14 16
ATOM     16  CA  ALA P   7      33.298 -27.766   9.531  1.00 40.80 LIG 0.16  C 
ATOM     17  CB  ALA P   7      34.750 -28.174   9.348  1.00 41.57 LIG 0.04  C 
BRANCH 16 18
ATOM     18  C   ALA P   7      33.200 -26.276   9.840  1.00 41.43 LIG 0.22  C 
ATOM     19 O    ALA P   7      32.335 -25.577   9.305  1.00 42.77 LIG-0.29  OA
ENDBRANCH 16 18
ENDBRANCH 14 16
ENDBRANCH 11 12
BRANCH 11 20
ATOM     20  CB  THR P   6      29.635 -27.673   6.758  1.00 30.67 LIG 0.15  C 
ATOM     21  CG2 THR P   6      30.365 -26.355   6.760  1.00 25.27 LIG 0.04  C 
BRANCH 20 22
ATOM     22 OG1  THR P   6      29.030 -27.898   5.478  1.00 31.72 LIG-0.39  OA
ATOM     23 HG1  THR P   6      29.485 -28.457   5.048  1.00 31.72 LIG 0.21  HD
ENDBRANCH 20 22
ENDBRANCH 11 20
ENDBRANCH 9 11
ENDBRANCH 6 7
BRANCH 6 24
ATOM     24  CB  GLN P   5      28.129 -32.270   6.453  1.00 38.94 LIG 0.04  C 
BRANCH 24 25
ATOM     25  CG  GLN P   5      27.584 -31.176   5.533  1.00 42.79 LIG 0.10  C 
BRANCH 25 26
ATOM     26  CD  GLN P   5      28.438 -30.945   4.293  1.00 45.14 LIG 0.21  C 
ATOM     27  NE2 GLN P   5      27.950 -31.409   3.144  1.00 40.57 LIG-0.37  N 
ATOM     28 21HE GLN P   5      27.192 -31.815   3.131  1.00 40.57 LIG 0.16  HD
ATOM     29 22HE GLN P   5      28.393 -31.302   2.414  1.00 40.57 LIG 0.16  HD
ATOM     30 OE1  GLN P   5      29.518 -30.356   4.366  1.00 46.24 LIG-0.27  OA
ENDBRANCH 25 26
ENDBRANCH 24 25
ENDBRANCH 6 24
ENDBRANCH 3 6
ENDBRANCH 1 2
BRANCH 1 31
ATOM     31  CB  LYS P   4      26.059 -33.113  11.637  1.00 18.02 LIG 0.04  C 
BRANCH 31 32
ATOM     32  CG  LYS P   4      24.936 -33.481  12.579  1.00 21.69 LIG 0.00  C 
BRANCH 32 33
ATOM     33  CD  LYS P   4      24.831 -32.473  13.725  1.00 22.86 LIG 0.03  C 
BRANCH 33 34
ATOM     34  CE  LYS P   4      26.059 -32.562  14.628  1.00 21.56 LIG 0.23  C 
BRANCH 34 35
ATOM     35  NZ  LYS P   4      26.031 -33.778  15.499  1.00 19.01 LIG-0.08  N 
ATOM     36 HZ2  LYS P   4      26.450 -34.447  15.088  1.00 19.01 LIG 0.27  HD
ATOM     37 HZ1  LYS P   4      25.186 -34.010  15.658  1.00 19.01 LIG 0.27  HD
ATOM     38 HZ3  LYS P   4      26.440 -33.600  16.269  1.00 19.01 LIG 0.27  HD
ENDBRANCH 34 35
ENDBRANCH 33 34
ENDBRANCH 32 33
ENDBRANCH 31 32
ENDBRANCH 1 31
BRANCH 1 39
ATOM     39  N   LYS P   4      24.587 -33.859   9.819  1.00 21.49 LIG-0.35  N 
ATOM     40 H    LYS P   4      24.480 -34.497  10.385  1.00 21.49 LIG 0.16  HD
ATOM     41  C   THR P   3      23.893 -33.752   8.695  1.00 20.06 LIG 0.24  C 
ATOM     42 O    THR P   3      23.911 -32.752   7.987  1.00 20.20 LIG-0.27  OA
BRANCH 41 43
ATOM     43  CA  THR P   3      23.021 -34.952   8.333  1.00 21.79 LIG 0.20  C 
BRANCH 43 44
ATOM     44  CB  THR P   3      22.755 -34.958   6.807  1.00 23.67 LIG 0.15  C 
ATOM     45  CG2 THR P   3      23.650 -35.991   6.112  1.00 27.17 LIG 0.04  C 
BRANCH 44 46
ATOM     46 OG1  THR P   3      21.374 -35.246   6.548  1.00 23.16 LIG-0.39  OA
ATOM     47 HG1  THR P   3      20.951 -34.527   6.451  1.00 23.16 LIG 0.21  HD
ENDBRANCH 44 46
ENDBRANCH 43 44
BRANCH 43 48
ATOM     48  N   THR P   3      21.786 -34.948   9.104  1.00 19.24 LIG-0.34  N 
ATOM     49 H    THR P   3      21.113 -34.596   8.701  1.00 19.24 LIG 0.16  HD
ATOM     50  C   ARG P   2      21.740 -35.458  10.335  1.00 23.72 LIG 0.24  C 
ATOM     51 O    ARG P   2      22.690 -36.043  10.869  1.00 20.72 LIG-0.27  OA
BRANCH 50 52
ATOM     52  CA  ARG P   2      20.440 -35.304  11.087  1.00 19.94 LIG 0.18  C 
BRANCH 52 53
ATOM     53  CB  ARG P   2      19.749 -34.001  10.681  1.00 20.09 LIG 0.04  C 
BRANCH 53 54
ATOM     54  CG  ARG P   2      19.746 -32.939  11.779  1.00 23.61 LIG 0.02  C 
BRANCH 54 55
ATOM     55  CD  ARG P   2      18.328 -32.620  12.269  1.00 28.00 LIG 0.14  C 
BRANCH 55 56
ATOM     56  NE  ARG P   2      17.471 -33.805  12.248  1.00 23.66 LIG-0.23  N 
ATOM     57  CZ  ARG P   2      16.161 -33.782  11.999  1.00 25.68 LIG 0.67  C 
ATOM     58  NH1 ARG P   2      15.548 -32.632  11.730  1.00 22.73 LIG-0.23  N 
ATOM     59  NH2 ARG P   2      15.462 -34.910  12.020  1.00 20.68 LIG-0.23  N 
ATOM     60 2HH1 ARG P   2      14.703 -32.622  11.570  1.00 22.73 LIG 0.17  HD
ATOM     61 1HH1 ARG P   2      15.997 -31.898  11.715  1.00 22.73 LIG 0.17  HD
ATOM     62 2HH2 ARG P   2      14.617 -34.895  11.860  1.00 20.68 LIG 0.17  HD
ATOM     63 1HH2 ARG P   2      15.853 -35.656  12.193  1.00 20.68 LIG 0.17  HD
ATOM     64 HE   ARG P   2      17.837 -34.567  12.406  1.00 23.66 LIG 0.18  HD
ENDBRANCH 55 56
ENDBRANCH 54 55
ENDBRANCH 53 54
ENDBRANCH 52 53
BRANCH 52 65
ATOM     65  N   ARG P   2      20.733 -35.326  12.517  1.00 18.68 LIG-0.35  N 
ATOM     66  C   ALA P   1      19.848 -35.820  13.381  1.00 22.59 LIG 0.25  C 
ATOM     67 O    ALA P   1      18.702 -36.135  13.052  1.00 23.11 LIG-0.27  OA
ATOM     68 H    ARG P   2      21.499 -35.004  12.735  1.00 18.68 LIG 0.16  HD
BRANCH 66 69
ATOM     69  CA  ALA P   1      20.311 -35.990  14.821  1.00 20.73 LIG 0.27  C 
ATOM     70  CB  ALA P   1      19.103 -36.057  15.757  1.00 22.81 LIG 0.05  C 
BRANCH 69 71
ATOM     71  N   ALA P   1      21.200 -34.902  15.215  1.00 20.88 LIG-0.07  N 
ATOM     72 H1   ALA P   1      20.824 -34.122  15.011  1.00 20.88 LIG 0.28  HD
ATOM     73 H2   ALA P   1      21.345 -34.941  16.092  1.00 20.88 LIG 0.28  HD
ATOM     74 H3   ALA P   1      21.974 -34.980  14.783  1.00 20.88 LIG 0.28  HD
ENDBRANCH 69 71
ENDBRANCH 66 69
ENDBRANCH 52 65
ENDBRANCH 50 52
ENDBRANCH 43 48
ENDBRANCH 41 43
ENDBRANCH 1 39
TORSDOF 30
ENDMDL
MODEL 9
USER: ADFR SOLUTION from run 119
USER: SCORE 24.262801 LL:  -4.342 LR: -22.020 RR:   0.000 FEB: -13.071
USER: RMSD 11.323439
USER: SEED 118
USER: STATUS no improvement in best in 2 clusters for 5 generations
USER: GENES 32
USER: genes 0 Translation |==|  0.50634 0.44961 0.50594
USER: genes 1 Rotation |==|  0.58184 0.47642 0.99269 0.50111
USER: genes 2 Torsion [N]-CA--C-[N] |==|  0.45641
USER: genes 3 Torsion [C]-N--CA-[C] |==|  0.58109
USER: genes 4 Torsion [N]-CA--C-[N] |==|  0.32941
USER: genes 5 Torsion [C]-N--CA-[CB] |==|  0.45674
USER: genes 6 Torsion [N]-CA--C-[N] |==|  0.38763
USER: genes 7 Torsion [C]-N--CA-[CB] |==|  0.85764
USER: genes 8 Torsion [N]-CA--C-[O] |==|  0.13066
USER: genes 9 Torsion [N]-CA--CB-[OG1] |==|  0.28796
USER: genes 10 Torsion [CA]-CB--OG1-[HG1] |==|  0.30304
USER: genes 11 Torsion [N]-CA--CB-[CG] |==|  0.03869
USER: genes 12 Torsion [CA]-CB--CG-[CD] |==|  0.26766
USER: genes 13 Torsion [CB]-CG--CD-[NE2] |==|  0.45009
USER: genes 14 Torsion [C]-CA--CB-[CG] |==|  0.65309
USER: genes 15 Torsion [CA]-CB--CG-[CD] |==|  0.64305
USER: genes 16 Torsion [CB]-CG--CD-[CE] |==|  0.74982
USER: genes 17 Torsion [CG]-CD--CE-[NZ] |==|  0.79461
USER: genes 18 Torsion [CD]-CE--NZ-[HZ3] |==|  0.99880
USER: genes 19 Torsion [C]-CA--N-[C] |==|  0.67716
USER: genes 20 Torsion [N]-C--CA-[N] |==|  0.18313
USER: genes 21 Torsion [C]-CA--CB-[CG2] |==|  0.37170
USER: genes 22 Torsion [CA]-CB--OG1-[HG1] |==|  0.18396
USER: genes 23 Torsion [C]-CA--N-[C] |==|  0.74460
USER: genes 24 Torsion [N]-C--CA-[N] |==|  0.94527
USER: genes 25 Torsion [C]-CA--CB-[CG] |==|  0.35017
USER: genes 26 Torsion [CA]-CB--CG-[CD] |==|  0.09581
USER: genes 27 Torsion [CB]-CG--CD-[NE] |==|  0.66769
USER: genes 28 Torsion [CG]-CD--NE-[HE] |==|  0.16916
USER: genes 29 Torsion [C]-CA--N-[C] |==|  0.72646
USER: genes 30 Torsion [N]-C--CA-[N] |==|  0.41423
USER: genes 31 Torsion [C]-CA--N-[H2] |==|  0.52607
ROOT
ATOM      1  CA  LYS P   4      25.866 -32.615   9.590  1.00 25.22 LIG 0.18  C 
ENDROOT
BRANCH 1 2
ATOM      2  C   LYS P   4      27.212 -32.633   8.875  1.00 27.71 LIG 0.24  C 
ATOM      3  N   GLN P   5      27.815 -31.459   8.712  1.00 26.60 LIG-0.35  N 
ATOM      4 H    GLN P   5      27.462 -30.704   8.926  1.00 26.60 LIG 0.16  HD
ATOM      5 O    LYS P   4      27.698 -33.692   8.484  1.00 22.94 LIG-0.27  OA
BRANCH 3 6
ATOM      6  CA  GLN P   5      29.156 -31.361   8.145  1.00 30.64 LIG 0.18  C 
BRANCH 6 7
ATOM      7  C   GLN P   5      29.849 -30.130   8.714  1.00 34.53 LIG 0.24  C 
ATOM      8 O    GLN P   5      29.378 -29.009   8.519  1.00 31.76 LIG-0.27  OA
ATOM      9  N   THR P   6      30.961 -30.322   9.419  1.00 31.32 LIG-0.34  N 
ATOM     10 H    THR P   6      31.353 -31.080   9.522  1.00 31.32 LIG 0.16  HD
BRANCH 9 11
ATOM     11  CA  THR P   6      31.602 -29.190  10.088  1.00 35.73 LIG 0.20  C 
BRANCH 11 12
ATOM     12  C   THR P   6      32.326 -28.261   9.131  1.00 36.89 LIG 0.24  C 
ATOM     13 O    THR P   6      33.000 -28.710   8.205  1.00 31.31 LIG-0.27  OA
ATOM     14  N   ALA P   7      32.195 -26.963   9.391  1.00 39.63 LIG-0.35  N 
ATOM     15 H    ALA P   7      31.728 -26.655  10.044  1.00 39.63 LIG 0.16  HD
BRANCH 14 16
ATOM     16  CA  ALA P   7      32.835 -25.932   8.583  1.00 40.80 LIG 0.16  C 
ATOM     17  CB  ALA P   7      34.315 -26.237   8.431  1.00 41.57 LIG 0.04  C 
BRANCH 16 18
ATOM     18  C   ALA P   7      32.174 -25.805   7.214  1.00 41.43 LIG 0.22  C 
ATOM     19 O    ALA P   7      30.946 -25.749   7.111  1.00 42.77 LIG-0.29  OA
ENDBRANCH 16 18
ENDBRANCH 14 16
ENDBRANCH 11 12
BRANCH 11 20
ATOM     20  CB  THR P   6      32.613 -29.640  11.133  1.00 30.67 LIG 0.15  C 
ATOM     21  CG2 THR P   6      32.374 -31.084  11.488  1.00 25.27 LIG 0.04  C 
BRANCH 20 22
ATOM     22 OG1  THR P   6      33.939 -29.472  10.618  1.00 31.72 LIG-0.39  OA
ATOM     23 HG1  THR P   6      34.317 -28.837  11.017  1.00 31.72 LIG 0.21  HD
ENDBRANCH 20 22
ENDBRANCH 11 20
ENDBRANCH 9 11
ENDBRANCH 6 7
BRANCH 6 24
ATOM     24  CB  GLN P   5      29.105 -31.287   6.613  1.00 38.94 LIG 0.04  C 
BRANCH 24 25
ATOM     25  CG  GLN P   5      27.719 -30.995   6.035  1.00 42.79 LIG 0.10  C 
BRANCH 25 26
ATOM     26  CD  GLN P   5      27.491 -29.523   5.718  1.00 45.14 LIG 0.21  C 
ATOM     27  NE2 GLN P   5      26.486 -29.243   4.889  1.00 40.57 LIG-0.37  N 
ATOM     28 21HE GLN P   5      26.008 -29.880   4.563  1.00 40.57 LIG 0.16  HD
ATOM     29 22HE GLN P   5      26.315 -28.427   4.680  1.00 40.57 LIG 0.16  HD
ATOM     30 OE1  GLN P   5      28.206 -28.649   6.213  1.00 46.24 LIG-0.27  OA
ENDBRANCH 25 26
ENDBRANCH 24 25
ENDBRANCH 6 24
ENDBRANCH 3 6
ENDBRANCH 1 2
BRANCH 1 31
ATOM     31  CB  LYS P   4      26.069 -32.360  11.080  1.00 18.02 LIG 0.04  C 
BRANCH 31 32
ATOM     32  CG  LYS P   4      25.449 -33.414  11.968  1.00 21.69 LIG 0.00  C 
BRANCH 32 33
ATOM     33  CD  LYS P   4      24.563 -32.776  13.038  1.00 22.86 LIG 0.03  C 
BRANCH 33 34
ATOM     34  CE  LYS P   4      25.377 -32.473  14.294  1.00 21.56 LIG 0.23  C 
BRANCH 34 35
ATOM     35  NZ  LYS P   4      25.700 -33.711  15.068  1.00 19.01 LIG-0.08  N 
ATOM     36 HZ2  LYS P   4      25.360 -33.647  15.887  1.00 19.01 LIG 0.27  HD
ATOM     37 HZ1  LYS P   4      26.584 -33.807  15.120  1.00 19.01 LIG 0.27  HD
ATOM     38 HZ3  LYS P   4      25.350 -34.418  14.656  1.00 19.01 LIG 0.27  HD
ENDBRANCH 34 35
ENDBRANCH 33 34
ENDBRANCH 32 33
ENDBRANCH 31 32
ENDBRANCH 1 31
BRANCH 1 39
ATOM     39  N   LYS P   4      25.170 -33.875   9.368  1.00 21.49 LIG-0.35  N 
ATOM     40 H    LYS P   4      25.571 -34.560   9.699  1.00 21.49 LIG 0.16  HD
ATOM     41  C   THR P   3      24.022 -33.942   8.713  1.00 20.06 LIG 0.24  C 
ATOM     42 O    THR P   3      23.363 -32.954   8.408  1.00 20.20 LIG-0.27  OA
BRANCH 41 43
ATOM     43  CA  THR P   3      23.528 -35.346   8.375  1.00 21.79 LIG 0.20  C 
BRANCH 43 44
ATOM     44  CB  THR P   3      22.328 -35.254   7.400  1.00 23.67 LIG 0.15  C 
ATOM     45  CG2 THR P   3      22.497 -36.249   6.246  1.00 27.17 LIG 0.04  C 
BRANCH 44 46
ATOM     46 OG1  THR P   3      21.103 -35.512   8.100  1.00 23.16 LIG-0.39  OA
ATOM     47 HG1  THR P   3      20.962 -34.898   8.655  1.00 23.16 LIG 0.21  HD
ENDBRANCH 44 46
ENDBRANCH 43 44
BRANCH 43 48
ATOM     48  N   THR P   3      23.195 -36.085   9.585  1.00 19.24 LIG-0.34  N 
ATOM     49 H    THR P   3      22.387 -35.978   9.859  1.00 19.24 LIG 0.16  HD
ATOM     50  C   ARG P   2      24.097 -36.854  10.192  1.00 23.72 LIG 0.24  C 
ATOM     51 O    ARG P   2      25.228 -37.072   9.740  1.00 20.72 LIG-0.27  OA
BRANCH 50 52
ATOM     52  CA  ARG P   2      23.682 -37.488  11.499  1.00 19.94 LIG 0.18  C 
BRANCH 52 53
ATOM     53  CB  ARG P   2      23.325 -38.960  11.278  1.00 20.09 LIG 0.04  C 
BRANCH 53 54
ATOM     54  CG  ARG P   2      24.084 -39.920  12.191  1.00 23.61 LIG 0.02  C 
BRANCH 54 55
ATOM     55  CD  ARG P   2      24.341 -39.317  13.578  1.00 28.00 LIG 0.14  C 
BRANCH 55 56
ATOM     56  NE  ARG P   2      25.771 -39.222  13.869  1.00 23.66 LIG-0.23  N 
ATOM     57  CZ  ARG P   2      26.374 -39.841  14.884  1.00 25.68 LIG 0.67  C 
ATOM     58  NH1 ARG P   2      25.677 -40.622  15.706  1.00 22.73 LIG-0.23  N 
ATOM     59  NH2 ARG P   2      27.677 -39.680  15.080  1.00 20.68 LIG-0.23  N 
ATOM     60 2HH1 ARG P   2      26.071 -41.020  16.360  1.00 22.73 LIG 0.17  HD
ATOM     61 1HH1 ARG P   2      24.832 -40.730  15.584  1.00 22.73 LIG 0.17  HD
ATOM     62 2HH2 ARG P   2      28.066 -40.079  15.735  1.00 20.68 LIG 0.17  HD
ATOM     63 1HH2 ARG P   2      28.132 -39.177  14.552  1.00 20.68 LIG 0.17  HD
ATOM     64 HE   ARG P   2      26.254 -38.735  13.351  1.00 23.66 LIG 0.18  HD
ENDBRANCH 55 56
ENDBRANCH 54 55
ENDBRANCH 53 54
ENDBRANCH 52 53
BRANCH 52 65
ATOM     65  N   ARG P   2      22.547 -36.740  12.030  1.00 18.68 LIG-0.35  N 
ATOM     66  C   ALA P   1      22.727 -35.813  12.968  1.00 22.59 LIG 0.25  C 
ATOM     67 O    ALA P   1      23.808 -35.644  13.537  1.00 23.11 LIG-0.27  OA
ATOM     68 H    ARG P   2      21.784 -36.949  11.691  1.00 18.68 LIG 0.16  HD
BRANCH 66 69
ATOM     69  CA  ALA P   1      21.528 -34.944  13.320  1.00 20.73 LIG 0.27  C 
ATOM     70  CB  ALA P   1      21.478 -33.720  12.405  1.00 22.81 LIG 0.05  C 
BRANCH 69 71
ATOM     71  N   ALA P   1      21.575 -34.532  14.719  1.00 20.88 LIG-0.07  N 
ATOM     72 H1   ALA P   1      22.243 -33.956  14.836  1.00 20.88 LIG 0.28  HD
ATOM     73 H2   ALA P   1      20.806 -34.144  14.940  1.00 20.88 LIG 0.28  HD
ATOM     74 H3   ALA P   1      21.706 -35.246  15.234  1.00 20.88 LIG 0.28  HD
ENDBRANCH 69 71
ENDBRANCH 66 69
ENDBRANCH 52 65
ENDBRANCH 50 52
ENDBRANCH 43 48
ENDBRANCH 41 43
ENDBRANCH 1 39
TORSDOF 30
ENDMDL
MODEL 10
USER: ADFR SOLUTION from run 12
USER: SCORE 24.271987 LL:  -4.409 LR: -21.922 RR:   0.000 FEB: -12.973
USER: RMSD 2.324164
USER: SEED 643051
USER: STATUS no improvement in best in 5 clusters for 5 generations
USER: GENES 32
USER: genes 0 Translation |==|  0.51799 0.40454 0.49043
USER: genes 1 Rotation |==|  0.49571 0.44842 0.49481 0.99729
USER: genes 2 Torsion [N]-CA--C-[N] |==|  0.44249
USER: genes 3 Torsion [C]-N--CA-[C] |==|  0.72356
USER: genes 4 Torsion [N]-CA--C-[N] |==|  0.28056
USER: genes 5 Torsion [C]-N--CA-[CB] |==|  0.43804
USER: genes 6 Torsion [N]-CA--C-[N] |==|  0.93466
USER: genes 7 Torsion [C]-N--CA-[CB] |==|  0.27564
USER: genes 8 Torsion [N]-CA--C-[O] |==|  0.02894
USER: genes 9 Torsion [N]-CA--CB-[OG1] |==|  0.47709
USER: genes 10 Torsion [CA]-CB--OG1-[HG1] |==|  0.30975
USER: genes 11 Torsion [N]-CA--CB-[CG] |==|  0.53074
USER: genes 12 Torsion [CA]-CB--CG-[CD] |==|  0.25950
USER: genes 13 Torsion [CB]-CG--CD-[NE2] |==|  0.05880
USER: genes 14 Torsion [C]-CA--CB-[CG] |==|  0.81167
USER: genes 15 Torsion [CA]-CB--CG-[CD] |==|  0.41930
USER: genes 16 Torsion [CB]-CG--CD-[CE] |==|  0.35395
USER: genes 17 Torsion [CG]-CD--CE-[NZ] |==|  0.61369
USER: genes 18 Torsion [CD]-CE--NZ-[HZ3] |==|  0.66047
USER: genes 19 Torsion [C]-CA--N-[C] |==|  0.64634
USER: genes 20 Torsion [N]-C--CA-[N] |==|  0.36369
USER: genes 21 Torsion [C]-CA--CB-[CG2] |==|  0.12834
USER: genes 22 Torsion [CA]-CB--OG1-[HG1] |==|  0.02258
USER: genes 23 Torsion [C]-CA--N-[C] |==|  0.56707
USER: genes 24 Torsion [N]-C--CA-[N] |==|  0.46001
USER: genes 25 Torsion [C]-CA--CB-[CG] |==|  0.27352
USER: genes 26 Torsion [CA]-CB--CG-[CD] |==|  0.46289
USER: genes 27 Torsion [CB]-CG--CD-[NE] |==|  0.76614
USER: genes 28 Torsion [CG]-CD--NE-[HE] |==|  0.73078
USER: genes 29 Torsion [C]-CA--N-[C] |==|  0.64443
USER: genes 30 Torsion [N]-C--CA-[N] |==|  0.44264
USER: genes 31 Torsion [C]-CA--N-[H2] |==|  0.71566
ROOT
ATOM      1  CA  LYS P   4      26.172 -33.562   9.264  1.00 25.22 LIG 0.18  C 
ENDROOT
BRANCH 1 2
ATOM      2  C   LYS P   4      24.751 -33.481   8.721  1.00 27.71 LIG 0.24  C 
ATOM      3  N   GLN P   5      24.153 -34.636   8.444  1.00 26.60 LIG-0.35  N 
ATOM      4 H    GLN P   5      24.542 -35.402   8.492  1.00 26.60 LIG 0.16  HD
ATOM      5 O    LYS P   4      24.202 -32.392   8.563  1.00 22.94 LIG-0.27  OA
BRANCH 3 6
ATOM      6  CA  GLN P   5      22.756 -34.693   8.027  1.00 30.64 LIG 0.18  C 
BRANCH 6 7
ATOM      7  C   GLN P   5      21.893 -35.068   9.224  1.00 34.53 LIG 0.24  C 
ATOM      8 O    GLN P   5      21.823 -36.242   9.592  1.00 31.76 LIG-0.27  OA
ATOM      9  N   THR P   6      21.237 -34.088   9.840  1.00 31.32 LIG-0.34  N 
ATOM     10 H    THR P   6      21.211 -33.271   9.575  1.00 31.32 LIG 0.16  HD
BRANCH 9 11
ATOM     11  CA  THR P   6      20.489 -34.372  11.065  1.00 35.73 LIG 0.20  C 
BRANCH 11 12
ATOM     12  C   THR P   6      19.125 -34.983  10.806  1.00 36.89 LIG 0.24  C 
ATOM     13 O    THR P   6      18.573 -35.678  11.658  1.00 31.31 LIG-0.27  OA
ATOM     14  N   ALA P   7      18.607 -34.731   9.606  1.00 39.63 LIG-0.35  N 
ATOM     15 H    ALA P   7      19.000 -34.251   9.012  1.00 39.63 LIG 0.16  HD
BRANCH 14 16
ATOM     16  CA  ALA P   7      17.312 -35.252   9.185  1.00 40.80 LIG 0.16  C 
ATOM     17  CB  ALA P   7      16.246 -34.182   9.346  1.00 41.57 LIG 0.04  C 
BRANCH 16 18
ATOM     18  C   ALA P   7      17.352 -35.751   7.744  1.00 41.43 LIG 0.22  C 
ATOM     19 O    ALA P   7      18.426 -35.864   7.147  1.00 42.77 LIG-0.29  OA
ENDBRANCH 16 18
ENDBRANCH 14 16
ENDBRANCH 11 12
BRANCH 11 20
ATOM     20  CB  THR P   6      20.273 -33.123  11.907  1.00 30.67 LIG 0.15  C 
ATOM     21  CG2 THR P   6      19.701 -32.023  11.052  1.00 25.27 LIG 0.04  C 
BRANCH 20 22
ATOM     22 OG1  THR P   6      19.378 -33.424  12.985  1.00 31.72 LIG-0.39  OA
ATOM     23 HG1  THR P   6      19.796 -33.394  13.712  1.00 31.72 LIG 0.21  HD
ENDBRANCH 20 22
ENDBRANCH 11 20
ENDBRANCH 9 11
ENDBRANCH 6 7
BRANCH 6 24
ATOM     24  CB  GLN P   5      22.559 -35.701   6.887  1.00 38.94 LIG 0.04  C 
BRANCH 24 25
ATOM     25  CG  GLN P   5      21.189 -35.636   6.208  1.00 42.79 LIG 0.10  C 
BRANCH 25 26
ATOM     26  CD  GLN P   5      21.163 -34.739   4.978  1.00 45.14 LIG 0.21  C 
ATOM     27  NE2 GLN P   5      22.337 -34.493   4.399  1.00 40.57 LIG-0.37  N 
ATOM     28 21HE GLN P   5      23.057 -34.834   4.725  1.00 40.57 LIG 0.16  HD
ATOM     29 22HE GLN P   5      22.376 -33.993   3.700  1.00 40.57 LIG 0.16  HD
ATOM     30 OE1  GLN P   5      20.103 -34.276   4.552  1.00 46.24 LIG-0.27  OA
ENDBRANCH 25 26
ENDBRANCH 24 25
ENDBRANCH 6 24
ENDBRANCH 3 6
ENDBRANCH 1 2
BRANCH 1 31
ATOM     31  CB  LYS P   4      26.147 -33.934  10.743  1.00 18.02 LIG 0.04  C 
BRANCH 31 32
ATOM     32  CG  LYS P   4      25.566 -32.859  11.631  1.00 21.69 LIG 0.00  C 
BRANCH 32 33
ATOM     33  CD  LYS P   4      24.913 -33.469  12.873  1.00 22.86 LIG 0.03  C 
BRANCH 33 34
ATOM     34  CE  LYS P   4      25.458 -32.812  14.139  1.00 21.56 LIG 0.23  C 
BRANCH 34 35
ATOM     35  NZ  LYS P   4      25.700 -33.806  15.230  1.00 19.01 LIG-0.08  N 
ATOM     36 HZ2  LYS P   4      26.566 -33.818  15.434  1.00 19.01 LIG 0.27  HD
ATOM     37 HZ1  LYS P   4      25.449 -34.616  14.955  1.00 19.01 LIG 0.27  HD
ATOM     38 HZ3  LYS P   4      25.228 -33.579  15.949  1.00 19.01 LIG 0.27  HD
ENDBRANCH 34 35
ENDBRANCH 33 34
ENDBRANCH 32 33
ENDBRANCH 31 32
ENDBRANCH 1 31
BRANCH 1 39
ATOM     39  N   LYS P   4      26.854 -32.292   9.060  1.00 21.49 LIG-0.35  N 
ATOM     40 H    LYS P   4      26.425 -31.611   9.363  1.00 21.49 LIG 0.16  HD
ATOM     41  C   THR P   3      28.031 -32.209   8.458  1.00 20.06 LIG 0.24  C 
ATOM     42 O    THR P   3      28.722 -33.188   8.197  1.00 20.20 LIG-0.27  OA
BRANCH 41 43
ATOM     43  CA  THR P   3      28.513 -30.799   8.126  1.00 21.79 LIG 0.20  C 
BRANCH 43 44
ATOM     44  CB  THR P   3      28.351 -30.540   6.608  1.00 23.67 LIG 0.15  C 
ATOM     45  CG2 THR P   3      26.969 -31.000   6.130  1.00 27.17 LIG 0.04  C 
BRANCH 44 46
ATOM     46 OG1  THR P   3      28.534 -29.146   6.324  1.00 23.16 LIG-0.39  OA
ATOM     47 HG1  THR P   3      28.803 -28.751   7.015  1.00 23.16 LIG 0.21  HD
ENDBRANCH 44 46
ENDBRANCH 43 44
BRANCH 43 48
ATOM     48  N   THR P   3      29.885 -30.601   8.573  1.00 19.24 LIG-0.34  N 
ATOM     49 H    THR P   3      30.345 -31.324   8.649  1.00 19.24 LIG 0.16  HD
ATOM     50  C   ARG P   2      30.355 -29.382   8.833  1.00 23.72 LIG 0.24  C 
ATOM     51 O    ARG P   2      29.714 -28.343   8.632  1.00 20.72 LIG-0.27  OA
BRANCH 50 52
ATOM     52  CA  ARG P   2      31.755 -29.298   9.394  1.00 19.94 LIG 0.18  C 
BRANCH 52 53
ATOM     53  CB  ARG P   2      31.767 -29.776  10.847  1.00 20.09 LIG 0.04  C 
BRANCH 53 54
ATOM     54  CG  ARG P   2      32.223 -31.224  11.014  1.00 23.61 LIG 0.02  C 
BRANCH 54 55
ATOM     55  CD  ARG P   2      32.536 -31.565  12.477  1.00 28.00 LIG 0.14  C 
BRANCH 55 56
ATOM     56  NE  ARG P   2      33.897 -31.174  12.842  1.00 23.66 LIG-0.23  N 
ATOM     57  CZ  ARG P   2      34.252 -29.944  13.215  1.00 25.68 LIG 0.67  C 
ATOM     58  NH1 ARG P   2      33.342 -28.976  13.292  1.00 22.73 LIG-0.23  N 
ATOM     59  NH2 ARG P   2      35.519 -29.680  13.511  1.00 20.68 LIG-0.23  N 
ATOM     60 2HH1 ARG P   2      33.575 -28.184  13.533  1.00 22.73 LIG 0.17  HD
ATOM     61 1HH1 ARG P   2      32.520 -29.142  13.102  1.00 22.73 LIG 0.17  HD
ATOM     62 2HH2 ARG P   2      35.748 -28.886  13.751  1.00 20.68 LIG 0.17  HD
ATOM     63 1HH2 ARG P   2      36.110 -30.301  13.463  1.00 20.68 LIG 0.17  HD
ATOM     64 HE   ARG P   2      34.509 -31.778  12.815  1.00 23.66 LIG 0.18  HD
ENDBRANCH 55 56
ENDBRANCH 54 55
ENDBRANCH 53 54
ENDBRANCH 52 53
BRANCH 52 65
ATOM     65  N   ARG P   2      32.209 -27.915   9.287  1.00 18.68 LIG-0.35  N 
ATOM     66  C   ALA P   1      33.375 -27.629   8.711  1.00 22.59 LIG 0.25  C 
ATOM     67 O    ALA P   1      34.186 -28.499   8.384  1.00 23.11 LIG-0.27  OA
ATOM     68 H    ARG P   2      31.672 -27.330   9.617  1.00 18.68 LIG 0.16  HD
BRANCH 66 69
ATOM     69  CA  ALA P   1      33.679 -26.159   8.460  1.00 20.73 LIG 0.27  C 
ATOM     70  CB  ALA P   1      32.921 -25.668   7.226  1.00 22.81 LIG 0.05  C 
BRANCH 69 71
ATOM     71  N   ALA P   1      35.113 -25.944   8.296  1.00 20.88 LIG-0.07  N 
ATOM     72 H1   ALA P   1      35.253 -25.378   7.623  1.00 20.88 LIG 0.28  HD
ATOM     73 H2   ALA P   1      35.450 -25.602   9.045  1.00 20.88 LIG 0.28  HD
ATOM     74 H3   ALA P   1      35.511 -26.720   8.119  1.00 20.88 LIG 0.28  HD
ENDBRANCH 69 71
ENDBRANCH 66 69
ENDBRANCH 52 65
ENDBRANCH 50 52
ENDBRANCH 43 48
ENDBRANCH 41 43
ENDBRANCH 1 39
TORSDOF 30
ENDMDL
MODEL 11
USER: ADFR SOLUTION from run 1
USER: SCORE 24.293103 LL:  -4.446 LR: -21.915 RR:   0.000 FEB: -12.966
USER: RMSD 11.461002
USER: SEED 56532
USER: STATUS no improvement in best in 10 clusters for 5 generations
USER: GENES 32
USER: genes 0 Translation |==|  0.49401 0.44371 0.53714
USER: genes 1 Rotation |==|  0.58042 0.39377 0.97980 0.54518
USER: genes 2 Torsion [N]-CA--C-[N] |==|  0.34059
USER: genes 3 Torsion [C]-N--CA-[C] |==|  0.62067
USER: genes 4 Torsion [N]-CA--C-[N] |==|  0.36711
USER: genes 5 Torsion [C]-N--CA-[CB] |==|  0.48555
USER: genes 6 Torsion [N]-CA--C-[N] |==|  0.42914
USER: genes 7 Torsion [C]-N--CA-[CB] |==|  0.84564
USER: genes 8 Torsion [N]-CA--C-[O] |==|  0.81711
USER: genes 9 Torsion [N]-CA--CB-[OG1] |==|  0.62748
USER: genes 10 Torsion [CA]-CB--OG1-[HG1] |==|  0.63303
USER: genes 11 Torsion [N]-CA--CB-[CG] |==|  0.32451
USER: genes 12 Torsion [CA]-CB--CG-[CD] |==|  0.73720
USER: genes 13 Torsion [CB]-CG--CD-[NE2] |==|  0.84162
USER: genes 14 Torsion [C]-CA--CB-[CG] |==|  0.56971
USER: genes 15 Torsion [CA]-CB--CG-[CD] |==|  0.62024
USER: genes 16 Torsion [CB]-CG--CD-[CE] |==|  0.88934
USER: genes 17 Torsion [CG]-CD--CE-[NZ] |==|  0.74156
USER: genes 18 Torsion [CD]-CE--NZ-[HZ3] |==|  0.90403
USER: genes 19 Torsion [C]-CA--N-[C] |==|  0.82509
USER: genes 20 Torsion [N]-C--CA-[N] |==|  0.16844
USER: genes 21 Torsion [C]-CA--CB-[CG2] |==|  0.30158
USER: genes 22 Torsion [CA]-CB--OG1-[HG1] |==|  0.17903
USER: genes 23 Torsion [C]-CA--N-[C] |==|  0.79082
USER: genes 24 Torsion [N]-C--CA-[N] |==|  0.86342
USER: genes 25 Torsion [C]-CA--CB-[CG] |==|  0.33595
USER: genes 26 Torsion [CA]-CB--CG-[CD] |==|  0.92269
USER: genes 27 Torsion [CB]-CG--CD-[NE] |==|  0.25502
USER: genes 28 Torsion [CG]-CD--NE-[HE] |==|  0.13229
USER: genes 29 Torsion [C]-CA--N-[C] |==|  0.62439
USER: genes 30 Torsion [N]-C--CA-[N] |==|  0.35119
USER: genes 31 Torsion [C]-CA--N-[H2] |==|  0.42436
ROOT
ATOM      1  CA  LYS P   4      25.543 -32.739  10.245  1.00 25.22 LIG 0.18  C 
ENDROOT
BRANCH 1 2
ATOM      2  C   LYS P   4      26.866 -32.844   9.497  1.00 27.71 LIG 0.24  C 
ATOM      3  N   GLN P   5      27.316 -31.731   8.924  1.00 26.60 LIG-0.35  N 
ATOM      4 H    GLN P   5      26.877 -30.992   8.900  1.00 26.60 LIG 0.16  HD
ATOM      5 O    LYS P   4      27.473 -33.912   9.446  1.00 22.94 LIG-0.27  OA
BRANCH 3 6
ATOM      6  CA  GLN P   5      28.623 -31.679   8.278  1.00 30.64 LIG 0.18  C 
BRANCH 6 7
ATOM      7  C   GLN P   5      29.322 -30.384   8.670  1.00 34.53 LIG 0.24  C 
ATOM      8 O    GLN P   5      28.718 -29.312   8.608  1.00 31.76 LIG-0.27  OA
ATOM      9  N   THR P   6      30.586 -30.466   9.077  1.00 31.32 LIG-0.34  N 
ATOM     10 H    THR P   6      31.058 -31.185   9.072  1.00 31.32 LIG 0.16  HD
BRANCH 9 11
ATOM     11  CA  THR P   6      31.268 -29.273   9.577  1.00 35.73 LIG 0.20  C 
BRANCH 11 12
ATOM     12  C   THR P   6      31.424 -28.188   8.528  1.00 36.89 LIG 0.24  C 
ATOM     13 O    THR P   6      31.470 -28.469   7.331  1.00 31.31 LIG-0.27  OA
ATOM     14  N   ALA P   7      31.529 -26.949   9.002  1.00 39.63 LIG-0.35  N 
ATOM     15 H    ALA P   7      31.503 -26.759   9.840  1.00 39.63 LIG 0.16  HD
BRANCH 14 16
ATOM     16  CA  ALA P   7      31.699 -25.789   8.136  1.00 40.80 LIG 0.16  C 
ATOM     17  CB  ALA P   7      32.914 -25.981   7.244  1.00 41.57 LIG 0.04  C 
BRANCH 16 18
ATOM     18  C   ALA P   7      30.455 -25.534   7.292  1.00 41.43 LIG 0.22  C 
ATOM     19 O    ALA P   7      30.102 -26.344   6.430  1.00 42.77 LIG-0.29  OA
ENDBRANCH 16 18
ENDBRANCH 14 16
ENDBRANCH 11 12
BRANCH 11 20
ATOM     20  CB  THR P   6      32.658 -29.588  10.111  1.00 30.67 LIG 0.15  C 
ATOM     21  CG2 THR P   6      33.701 -29.122   9.129  1.00 25.27 LIG 0.04  C 
BRANCH 20 22
ATOM     22 OG1  THR P   6      32.843 -28.935  11.373  1.00 31.72 LIG-0.39  OA
ATOM     23 HG1  THR P   6      33.583 -28.536  11.376  1.00 31.72 LIG 0.21  HD
ENDBRANCH 20 22
ENDBRANCH 11 20
ENDBRANCH 9 11
ENDBRANCH 6 7
BRANCH 6 24
ATOM     24  CB  GLN P   5      28.491 -31.777   6.753  1.00 38.94 LIG 0.04  C 
BRANCH 24 25
ATOM     25  CG  GLN P   5      28.975 -30.542   5.990  1.00 42.79 LIG 0.10  C 
BRANCH 25 26
ATOM     26  CD  GLN P   5      27.862 -29.554   5.666  1.00 45.14 LIG 0.21  C 
ATOM     27  NE2 GLN P   5      26.833 -30.030   4.965  1.00 40.57 LIG-0.37  N 
ATOM     28 21HE GLN P   5      26.825 -30.855   4.720  1.00 40.57 LIG 0.16  HD
ATOM     29 22HE GLN P   5      26.178 -29.513   4.758  1.00 40.57 LIG 0.16  HD
ATOM     30 OE1  GLN P   5      27.923 -28.382   6.041  1.00 46.24 LIG-0.27  OA
ENDBRANCH 25 26
ENDBRANCH 24 25
ENDBRANCH 6 24
ENDBRANCH 3 6
ENDBRANCH 1 2
BRANCH 1 31
ATOM     31  CB  LYS P   4      25.762 -32.987  11.734  1.00 18.02 LIG 0.04  C 
BRANCH 31 32
ATOM     32  CG  LYS P   4      24.535 -33.493  12.454  1.00 21.69 LIG 0.00  C 
BRANCH 32 33
ATOM     33  CD  LYS P   4      24.358 -32.787  13.799  1.00 22.86 LIG 0.03  C 
BRANCH 33 34
ATOM     34  CE  LYS P   4      25.709 -32.598  14.484  1.00 21.56 LIG 0.23  C 
BRANCH 34 35
ATOM     35  NZ  LYS P   4      26.028 -33.722  15.419  1.00 19.01 LIG-0.08  N 
ATOM     36 HZ2  LYS P   4      26.588 -33.435  16.048  1.00 19.01 LIG 0.27  HD
ATOM     37 HZ1  LYS P   4      26.407 -34.387  14.965  1.00 19.01 LIG 0.27  HD
ATOM     38 HZ3  LYS P   4      25.278 -34.012  15.800  1.00 19.01 LIG 0.27  HD
ENDBRANCH 34 35
ENDBRANCH 33 34
ENDBRANCH 32 33
ENDBRANCH 31 32
ENDBRANCH 1 31
BRANCH 1 39
ATOM     39  N   LYS P   4      24.586 -33.689   9.696  1.00 21.49 LIG-0.35  N 
ATOM     40 H    LYS P   4      24.330 -34.291  10.253  1.00 21.49 LIG 0.16  HD
ATOM     41  C   THR P   3      24.158 -33.618   8.444  1.00 20.06 LIG 0.24  C 
ATOM     42 O    THR P   3      24.377 -32.659   7.713  1.00 20.20 LIG-0.27  OA
BRANCH 41 43
ATOM     43  CA  THR P   3      23.331 -34.803   7.954  1.00 21.79 LIG 0.20  C 
BRANCH 43 44
ATOM     44  CB  THR P   3      23.014 -34.627   6.448  1.00 23.67 LIG 0.15  C 
ATOM     45  CG2 THR P   3      23.818 -35.629   5.611  1.00 27.17 LIG 0.04  C 
BRANCH 44 46
ATOM     46 OG1  THR P   3      21.610 -34.804   6.216  1.00 23.16 LIG-0.39  OA
ATOM     47 HG1  THR P   3      21.182 -34.197   6.607  1.00 23.16 LIG 0.21  HD
ENDBRANCH 44 46
ENDBRANCH 43 44
BRANCH 43 48
ATOM     48  N   THR P   3      22.123 -34.959   8.753  1.00 19.24 LIG-0.34  N 
ATOM     49 H    THR P   3      21.401 -34.697   8.366  1.00 19.24 LIG 0.16  HD
ATOM     50  C   ARG P   2      22.172 -35.469   9.983  1.00 23.72 LIG 0.24  C 
ATOM     51 O    ARG P   2      23.201 -35.927  10.494  1.00 20.72 LIG-0.27  OA
BRANCH 50 52
ATOM     52  CA  ARG P   2      20.880 -35.485  10.766  1.00 19.94 LIG 0.18  C 
BRANCH 52 53
ATOM     53  CB  ARG P   2      19.939 -36.552  10.203  1.00 20.09 LIG 0.04  C 
BRANCH 53 54
ATOM     54  CG  ARG P   2      19.533 -37.614  11.223  1.00 23.61 LIG 0.02  C 
BRANCH 54 55
ATOM     55  CD  ARG P   2      20.601 -37.810  12.307  1.00 28.00 LIG 0.14  C 
BRANCH 55 56
ATOM     56  NE  ARG P   2      20.358 -36.952  13.466  1.00 23.66 LIG-0.23  N 
ATOM     57  CZ  ARG P   2      21.289 -36.199  14.054  1.00 25.68 LIG 0.67  C 
ATOM     58  NH1 ARG P   2      22.533 -36.179  13.583  1.00 22.73 LIG-0.23  N 
ATOM     59  NH2 ARG P   2      20.976 -35.466  15.115  1.00 20.68 LIG-0.23  N 
ATOM     60 2HH1 ARG P   2      23.130 -35.692  13.965  1.00 22.73 LIG 0.17  HD
ATOM     61 1HH1 ARG P   2      22.741 -36.653  12.895  1.00 22.73 LIG 0.17  HD
ATOM     62 2HH2 ARG P   2      21.576 -34.981  15.495  1.00 20.68 LIG 0.17  HD
ATOM     63 1HH2 ARG P   2      20.173 -35.475  15.423  1.00 20.68 LIG 0.17  HD
ATOM     64 HE   ARG P   2      19.561 -36.931  13.790  1.00 23.66 LIG 0.18  HD
ENDBRANCH 55 56
ENDBRANCH 54 55
ENDBRANCH 53 54
ENDBRANCH 52 53
BRANCH 52 65
ATOM     65  N   ARG P   2      20.282 -34.156  10.688  1.00 18.68 LIG-0.35  N 
ATOM     66  C   ALA P   1      19.783 -33.575  11.776  1.00 22.59 LIG 0.25  C 
ATOM     67 O    ALA P   1      19.659 -34.168  12.851  1.00 23.11 LIG-0.27  OA
ATOM     68 H    ARG P   2      20.285 -33.802   9.904  1.00 18.68 LIG 0.16  HD
BRANCH 66 69
ATOM     69  CA  ALA P   1      19.363 -32.117  11.650  1.00 20.73 LIG 0.27  C 
ATOM     70  CB  ALA P   1      20.306 -31.225  12.460  1.00 22.81 LIG 0.05  C 
BRANCH 69 71
ATOM     71  N   ALA P   1      17.984 -31.931  12.090  1.00 20.88 LIG-0.07  N 
ATOM     72 H1   ALA P   1      17.802 -32.504  12.747  1.00 20.88 LIG 0.28  HD
ATOM     73 H2   ALA P   1      17.876 -31.099  12.385  1.00 20.88 LIG 0.28  HD
ATOM     74 H3   ALA P   1      17.432 -32.078  11.407  1.00 20.88 LIG 0.28  HD
ENDBRANCH 69 71
ENDBRANCH 66 69
ENDBRANCH 52 65
ENDBRANCH 50 52
ENDBRANCH 43 48
ENDBRANCH 41 43
ENDBRANCH 1 39
TORSDOF 30
ENDMDL
MODEL 12
USER: ADFR SOLUTION from run 102
USER: SCORE 25.148012 LL:  -4.242 LR: -21.892 RR:   0.000 FEB: -12.943
USER: RMSD 2.164944
USER: SEED 101
USER: STATUS no improvement in best in 4 clusters for 5 generations
USER: GENES 32
USER: genes 0 Translation |==|  0.50351 0.41241 0.51787
USER: genes 1 Rotation |==|  0.41608 0.47022 0.49382 0.99197
USER: genes 2 Torsion [N]-CA--C-[N] |==|  0.42420
USER: genes 3 Torsion [C]-N--CA-[C] |==|  0.75017
USER: genes 4 Torsion [N]-CA--C-[N] |==|  0.45518
USER: genes 5 Torsion [C]-N--CA-[CB] |==|  0.53788
USER: genes 6 Torsion [N]-CA--C-[N] |==|  0.29779
USER: genes 7 Torsion [C]-N--CA-[CB] |==|  0.80997
USER: genes 8 Torsion [N]-CA--C-[O] |==|  0.09494
USER: genes 9 Torsion [N]-CA--CB-[OG1] |==|  0.95339
USER: genes 10 Torsion [CA]-CB--OG1-[HG1] |==|  0.80603
USER: genes 11 Torsion [N]-CA--CB-[CG] |==|  0.32519
USER: genes 12 Torsion [CA]-CB--CG-[CD] |==|  0.26612
USER: genes 13 Torsion [CB]-CG--CD-[NE2] |==|  0.96115
USER: genes 14 Torsion [C]-CA--CB-[CG] |==|  0.04563
USER: genes 15 Torsion [CA]-CB--CG-[CD] |==|  0.60995
USER: genes 16 Torsion [CB]-CG--CD-[CE] |==|  0.83524
USER: genes 17 Torsion [CG]-CD--CE-[NZ] |==|  0.83343
USER: genes 18 Torsion [CD]-CE--NZ-[HZ3] |==|  0.61766
USER: genes 19 Torsion [C]-CA--N-[C] |==|  0.62947
USER: genes 20 Torsion [N]-C--CA-[N] |==|  0.36136
USER: genes 21 Torsion [C]-CA--CB-[CG2] |==|  0.00697
USER: genes 22 Torsion [CA]-CB--OG1-[HG1] |==|  0.59239
USER: genes 23 Torsion [C]-CA--N-[C] |==|  0.63787
USER: genes 24 Torsion [N]-C--CA-[N] |==|  0.42812
USER: genes 25 Torsion [C]-CA--CB-[CG] |==|  0.32671
USER: genes 26 Torsion [CA]-CB--CG-[CD] |==|  0.44432
USER: genes 27 Torsion [CB]-CG--CD-[NE] |==|  0.74752
USER: genes 28 Torsion [CG]-CD--NE-[HE] |==|  0.16347
USER: genes 29 Torsion [C]-CA--N-[C] |==|  0.81987
USER: genes 30 Torsion [N]-C--CA-[N] |==|  0.41193
USER: genes 31 Torsion [C]-CA--N-[H2] |==|  0.39389
ROOT
ATOM      1  CA  LYS P   4      25.792 -33.396   9.840  1.00 25.22 LIG 0.18  C 
ENDROOT
BRANCH 1 2
ATOM      2  C   LYS P   4      24.329 -33.415   9.416  1.00 27.71 LIG 0.24  C 
ATOM      3  N   GLN P   5      23.719 -34.597   9.435  1.00 26.60 LIG-0.35  N 
ATOM      4 H    GLN P   5      24.117 -35.340   9.607  1.00 26.60 LIG 0.16  HD
ATOM      5 O    LYS P   4      23.761 -32.377   9.084  1.00 22.94 LIG-0.27  OA
BRANCH 3 6
ATOM      6  CA  GLN P   5      22.292 -34.724   9.160  1.00 30.64 LIG 0.18  C 
BRANCH 6 7
ATOM      7  C   GLN P   5      21.518 -34.597  10.466  1.00 34.53 LIG 0.24  C 
ATOM      8 O    GLN P   5      22.103 -34.710  11.544  1.00 31.76 LIG-0.27  OA
ATOM      9  N   THR P   6      20.212 -34.358  10.385  1.00 31.32 LIG-0.34  N 
ATOM     10 H    THR P   6      19.760 -34.337   9.654  1.00 31.32 LIG 0.16  HD
BRANCH 9 11
ATOM     11  CA  THR P   6      19.442 -34.109  11.604  1.00 35.73 LIG 0.20  C 
BRANCH 11 12
ATOM     12  C   THR P   6      19.768 -35.076  12.727  1.00 36.89 LIG 0.24  C 
ATOM     13 O    THR P   6      19.371 -36.240  12.692  1.00 31.31 LIG-0.27  OA
ATOM     14  N   ALA P   7      20.476 -34.564  13.731  1.00 39.63 LIG-0.35  N 
ATOM     15 H    ALA P   7      20.745 -33.748  13.753  1.00 39.63 LIG 0.16  HD
BRANCH 14 16
ATOM     16  CA  ALA P   7      20.864 -35.348  14.897  1.00 40.80 LIG 0.16  C 
ATOM     17  CB  ALA P   7      19.635 -35.693  15.722  1.00 41.57 LIG 0.04  C 
BRANCH 16 18
ATOM     18  C   ALA P   7      21.608 -36.617  14.495  1.00 41.43 LIG 0.22  C 
ATOM     19 O    ALA P   7      22.351 -36.625  13.509  1.00 42.77 LIG-0.29  OA
ENDBRANCH 16 18
ENDBRANCH 14 16
ENDBRANCH 11 12
BRANCH 11 20
ATOM     20  CB  THR P   6      17.942 -34.188  11.361  1.00 30.67 LIG 0.15  C 
ATOM     21  CG2 THR P   6      17.246 -33.069  12.090  1.00 25.27 LIG 0.04  C 
BRANCH 20 22
ATOM     22 OG1  THR P   6      17.681 -34.097   9.955  1.00 31.72 LIG-0.39  OA
ATOM     23 HG1  THR P   6      17.849 -33.319   9.689  1.00 31.72 LIG 0.21  HD
ENDBRANCH 20 22
ENDBRANCH 11 20
ENDBRANCH 9 11
ENDBRANCH 6 7
BRANCH 6 24
ATOM     24  CB  GLN P   5      21.976 -36.062   8.478  1.00 38.94 LIG 0.04  C 
BRANCH 24 25
ATOM     25  CG  GLN P   5      21.065 -36.990   9.285  1.00 42.79 LIG 0.10  C 
BRANCH 25 26
ATOM     26  CD  GLN P   5      19.596 -36.884   8.897  1.00 45.14 LIG 0.21  C 
ATOM     27  NE2 GLN P   5      19.254 -35.835   8.150  1.00 40.57 LIG-0.37  N 
ATOM     28 21HE GLN P   5      19.852 -35.262   7.914  1.00 40.57 LIG 0.16  HD
ATOM     29 22HE GLN P   5      18.438 -35.730   7.903  1.00 40.57 LIG 0.16  HD
ATOM     30 OE1  GLN P   5      18.780 -37.732   9.261  1.00 46.24 LIG-0.27  OA
ENDBRANCH 25 26
ENDBRANCH 24 25
ENDBRANCH 6 24
ENDBRANCH 3 6
ENDBRANCH 1 2
BRANCH 1 31
ATOM     31  CB  LYS P   4      25.895 -33.291  11.358  1.00 18.02 LIG 0.04  C 
BRANCH 31 32
ATOM     32  CG  LYS P   4      24.610 -33.623  12.080  1.00 21.69 LIG 0.00  C 
BRANCH 32 33
ATOM     33  CD  LYS P   4      24.387 -32.679  13.264  1.00 22.86 LIG 0.03  C 
BRANCH 33 34
ATOM     34  CE  LYS P   4      25.546 -32.782  14.253  1.00 21.56 LIG 0.23  C 
BRANCH 34 35
ATOM     35  NZ  LYS P   4      25.700 -34.165  14.799  1.00 19.01 LIG-0.08  N 
ATOM     36 HZ2  LYS P   4      26.378 -34.572  14.391  1.00 19.01 LIG 0.27  HD
ATOM     37 HZ1  LYS P   4      24.951 -34.625  14.658  1.00 19.01 LIG 0.27  HD
ATOM     38 HZ3  LYS P   4      25.862 -34.123  15.673  1.00 19.01 LIG 0.27  HD
ENDBRANCH 34 35
ENDBRANCH 33 34
ENDBRANCH 32 33
ENDBRANCH 31 32
ENDBRANCH 1 31
BRANCH 1 39
ATOM     39  N   LYS P   4      26.482 -32.288   9.195  1.00 21.49 LIG-0.35  N 
ATOM     40 H    LYS P   4      26.058 -31.541   9.233  1.00 21.49 LIG 0.16  HD
ATOM     41  C   THR P   3      27.658 -32.435   8.605  1.00 20.06 LIG 0.24  C 
ATOM     42 O    THR P   3      28.343 -33.446   8.713  1.00 20.20 LIG-0.27  OA
BRANCH 41 43
ATOM     43  CA  THR P   3      28.149 -31.241   7.790  1.00 21.79 LIG 0.20  C 
BRANCH 43 44
ATOM     44  CB  THR P   3      28.007 -31.551   6.279  1.00 23.67 LIG 0.15  C 
ATOM     45  CG2 THR P   3      27.364 -32.928   6.073  1.00 27.17 LIG 0.04  C 
BRANCH 44 46
ATOM     46 OG1  THR P   3      27.220 -30.537   5.639  1.00 23.16 LIG-0.39  OA
ATOM     47 HG1  THR P   3      26.775 -30.880   5.015  1.00 23.16 LIG 0.21  HD
ENDBRANCH 44 46
ENDBRANCH 43 44
BRANCH 43 48
ATOM     48  N   THR P   3      29.516 -30.892   8.151  1.00 19.24 LIG-0.34  N 
ATOM     49 H    THR P   3      30.065 -31.554   8.159  1.00 19.24 LIG 0.16  HD
ATOM     50  C   ARG P   2      29.852 -29.636   8.441  1.00 23.72 LIG 0.24  C 
ATOM     51 O    ARG P   2      29.077 -28.678   8.338  1.00 20.72 LIG-0.27  OA
BRANCH 50 52
ATOM     52  CA  ARG P   2      31.269 -29.401   8.909  1.00 19.94 LIG 0.18  C 
BRANCH 52 53
ATOM     53  CB  ARG P   2      31.376 -29.669  10.412  1.00 20.09 LIG 0.04  C 
BRANCH 53 54
ATOM     54  CG  ARG P   2      32.322 -30.814  10.767  1.00 23.61 LIG 0.02  C 
BRANCH 54 55
ATOM     55  CD  ARG P   2      32.788 -30.746  12.227  1.00 28.00 LIG 0.14  C 
BRANCH 55 56
ATOM     56  NE  ARG P   2      34.025 -29.978  12.363  1.00 23.66 LIG-0.23  N 
ATOM     57  CZ  ARG P   2      35.159 -30.463  12.871  1.00 25.68 LIG 0.67  C 
ATOM     58  NH1 ARG P   2      35.226 -31.727  13.281  1.00 22.73 LIG-0.23  N 
ATOM     59  NH2 ARG P   2      36.228 -29.682  12.971  1.00 20.68 LIG-0.23  N 
ATOM     60 2HH1 ARG P   2      35.959 -32.035  13.608  1.00 22.73 LIG 0.17  HD
ATOM     61 1HH1 ARG P   2      34.536 -32.237  13.218  1.00 22.73 LIG 0.17  HD
ATOM     62 2HH2 ARG P   2      36.959 -29.994  13.300  1.00 20.68 LIG 0.17  HD
ATOM     63 1HH2 ARG P   2      36.190 -28.865  12.708  1.00 20.68 LIG 0.17  HD
ATOM     64 HE   ARG P   2      34.021 -29.160  12.097  1.00 23.66 LIG 0.18  HD
ENDBRANCH 55 56
ENDBRANCH 54 55
ENDBRANCH 53 54
ENDBRANCH 52 53
BRANCH 52 65
ATOM     65  N   ARG P   2      31.636 -28.026   8.587  1.00 18.68 LIG-0.35  N 
ATOM     66  C   ALA P   1      31.721 -27.628   7.320  1.00 22.59 LIG 0.25  C 
ATOM     67 O    ALA P   1      31.650 -28.412   6.370  1.00 23.11 LIG-0.27  OA
ATOM     68 H    ARG P   2      31.784 -27.521   9.267  1.00 18.68 LIG 0.16  HD
BRANCH 66 69
ATOM     69  CA  ALA P   1      31.910 -26.138   7.075  1.00 20.73 LIG 0.27  C 
ATOM     70  CB  ALA P   1      30.551 -25.445   6.969  1.00 22.81 LIG 0.05  C 
BRANCH 69 71
ATOM     71  N   ALA P   1      32.696 -25.903   5.868  1.00 20.88 LIG-0.07  N 
ATOM     72 H1   ALA P   1      32.651 -26.619   5.340  1.00 20.88 LIG 0.28  HD
ATOM     73 H2   ALA P   1      32.372 -25.196   5.436  1.00 20.88 LIG 0.28  HD
ATOM     74 H3   ALA P   1      33.544 -25.752   6.090  1.00 20.88 LIG 0.28  HD
ENDBRANCH 69 71
ENDBRANCH 66 69
ENDBRANCH 52 65
ENDBRANCH 50 52
ENDBRANCH 43 48
ENDBRANCH 41 43
ENDBRANCH 1 39
TORSDOF 30
ENDMDL
MODEL 13
USER: ADFR SOLUTION from run 54
USER: SCORE 24.754548 LL:  -4.429 LR: -21.864 RR:   0.000 FEB: -12.915
USER: RMSD 1.595878
USER: SEED 53
USER: STATUS no improvement in best in 4 clusters for 5 generations
USER: GENES 32
USER: genes 0 Translation |==|  0.50470 0.39821 0.48801
USER: genes 1 Rotation |==|  0.47209 0.47119 0.50237 0.99838
USER: genes 2 Torsion [N]-CA--C-[N] |==|  0.48755
USER: genes 3 Torsion [C]-N--CA-[C] |==|  0.70551
USER: genes 4 Torsion [N]-CA--C-[N] |==|  0.41129
USER: genes 5 Torsion [C]-N--CA-[CB] |==|  0.25671
USER: genes 6 Torsion [N]-CA--C-[N] |==|  0.45760
USER: genes 7 Torsion [C]-N--CA-[CB] |==|  0.42747
USER: genes 8 Torsion [N]-CA--C-[O] |==|  0.00904
USER: genes 9 Torsion [N]-CA--CB-[OG1] |==|  0.23896
USER: genes 10 Torsion [CA]-CB--OG1-[HG1] |==|  0.14980
USER: genes 11 Torsion [N]-CA--CB-[CG] |==|  0.88171
USER: genes 12 Torsion [CA]-CB--CG-[CD] |==|  0.81334
USER: genes 13 Torsion [CB]-CG--CD-[NE2] |==|  0.98420
USER: genes 14 Torsion [C]-CA--CB-[CG] |==|  0.82222
USER: genes 15 Torsion [CA]-CB--CG-[CD] |==|  0.41576
USER: genes 16 Torsion [CB]-CG--CD-[CE] |==|  0.32175
USER: genes 17 Torsion [CG]-CD--CE-[NZ] |==|  0.58999
USER: genes 18 Torsion [CD]-CE--NZ-[HZ3] |==|  0.68278
USER: genes 19 Torsion [C]-CA--N-[C] |==|  0.63870
USER: genes 20 Torsion [N]-C--CA-[N] |==|  0.40247
USER: genes 21 Torsion [C]-CA--CB-[CG2] |==|  0.37124
USER: genes 22 Torsion [CA]-CB--OG1-[HG1] |==|  0.91557
USER: genes 23 Torsion [C]-CA--N-[C] |==|  0.63708
USER: genes 24 Torsion [N]-C--CA-[N] |==|  0.41021
USER: genes 25 Torsion [C]-CA--CB-[CG] |==|  0.46432
USER: genes 26 Torsion [CA]-CB--CG-[CD] |==|  0.46044
USER: genes 27 Torsion [CB]-CG--CD-[NE] |==|  0.81127
USER: genes 28 Torsion [CG]-CD--NE-[HE] |==|  0.79159
USER: genes 29 Torsion [C]-CA--N-[C] |==|  0.82001
USER: genes 30 Torsion [N]-C--CA-[N] |==|  0.40152
USER: genes 31 Torsion [C]-CA--N-[H2] |==|  0.34473
ROOT
ATOM      1  CA  LYS P   4      25.823 -33.694   9.213  1.00 25.22 LIG 0.18  C 
ENDROOT
BRANCH 1 2
ATOM      2  C   LYS P   4      24.357 -33.688   8.800  1.00 27.71 LIG 0.24  C 
ATOM      3  N   GLN P   5      23.675 -34.811   9.008  1.00 26.60 LIG-0.35  N 
ATOM      4 H    GLN P   5      24.028 -35.541   9.294  1.00 26.60 LIG 0.16  HD
ATOM      5 O    LYS P   4      23.850 -32.682   8.308  1.00 22.94 LIG-0.27  OA
BRANCH 3 6
ATOM      6  CA  GLN P   5      22.240 -34.891   8.758  1.00 30.64 LIG 0.18  C 
BRANCH 6 7
ATOM      7  C   GLN P   5      21.502 -34.907  10.091  1.00 34.53 LIG 0.24  C 
ATOM      8 O    GLN P   5      22.023 -35.424  11.080  1.00 31.76 LIG-0.27  OA
ATOM      9  N   THR P   6      20.298 -34.344  10.133  1.00 31.32 LIG-0.34  N 
ATOM     10 H    THR P   6      19.877 -34.031   9.452  1.00 31.32 LIG 0.16  HD
BRANCH 9 11
ATOM     11  CA  THR P   6      19.596 -34.225  11.411  1.00 35.73 LIG 0.20  C 
BRANCH 11 12
ATOM     12  C   THR P   6      18.090 -34.364  11.283  1.00 36.89 LIG 0.24  C 
ATOM     13 O    THR P   6      17.538 -34.254  10.189  1.00 31.31 LIG-0.27  OA
ATOM     14  N   ALA P   7      17.440 -34.581  12.423  1.00 39.63 LIG-0.35  N 
ATOM     15 H    ALA P   7      17.830 -34.649  13.186  1.00 39.63 LIG 0.16  HD
BRANCH 14 16
ATOM     16  CA  ALA P   7      15.990 -34.723  12.485  1.00 40.80 LIG 0.16  C 
ATOM     17  CB  ALA P   7      15.602 -35.562  13.691  1.00 41.57 LIG 0.04  C 
BRANCH 16 18
ATOM     18  C   ALA P   7      15.297 -33.366  12.536  1.00 41.43 LIG 0.22  C 
ATOM     19 O    ALA P   7      15.951 -32.322  12.462  1.00 42.77 LIG-0.29  OA
ENDBRANCH 16 18
ENDBRANCH 14 16
ENDBRANCH 11 12
BRANCH 11 20
ATOM     20  CB  THR P   6      19.870 -32.893  12.095  1.00 30.67 LIG 0.15  C 
ATOM     21  CG2 THR P   6      21.287 -32.461  11.822  1.00 25.27 LIG 0.04  C 
BRANCH 20 22
ATOM     22 OG1  THR P   6      18.952 -31.908  11.605  1.00 31.72 LIG-0.39  OA
ATOM     23 HG1  THR P   6      18.166 -32.188  11.696  1.00 31.72 LIG 0.21  HD
ENDBRANCH 20 22
ENDBRANCH 11 20
ENDBRANCH 9 11
ENDBRANCH 6 7
BRANCH 6 24
ATOM     24  CB  GLN P   5      21.889 -36.138   7.936  1.00 38.94 LIG 0.04  C 
BRANCH 24 25
ATOM     25  CG  GLN P   5      22.843 -36.425   6.775  1.00 42.79 LIG 0.10  C 
BRANCH 25 26
ATOM     26  CD  GLN P   5      22.781 -35.382   5.667  1.00 45.14 LIG 0.21  C 
ATOM     27  NE2 GLN P   5      21.844 -34.443   5.789  1.00 40.57 LIG-0.37  N 
ATOM     28 21HE GLN P   5      21.315 -34.449   6.467  1.00 40.57 LIG 0.16  HD
ATOM     29 22HE GLN P   5      21.769 -33.830   5.190  1.00 40.57 LIG 0.16  HD
ATOM     30 OE1  GLN P   5      23.565 -35.418   4.716  1.00 46.24 LIG-0.27  OA
ENDBRANCH 25 26
ENDBRANCH 24 25
ENDBRANCH 6 24
ENDBRANCH 3 6
ENDBRANCH 1 2
BRANCH 1 31
ATOM     31  CB  LYS P   4      25.942 -33.922  10.716  1.00 18.02 LIG 0.04  C 
BRANCH 31 32
ATOM     32  CG  LYS P   4      25.337 -32.817  11.550  1.00 21.69 LIG 0.00  C 
BRANCH 32 33
ATOM     33  CD  LYS P   4      24.807 -33.359  12.878  1.00 22.86 LIG 0.03  C 
BRANCH 33 34
ATOM     34  CE  LYS P   4      25.583 -32.759  14.047  1.00 21.56 LIG 0.23  C 
BRANCH 34 35
ATOM     35  NZ  LYS P   4      25.700 -33.712  15.194  1.00 19.01 LIG-0.08  N 
ATOM     36 HZ2  LYS P   4      26.556 -33.809  15.414  1.00 19.01 LIG 0.27  HD
ATOM     37 HZ1  LYS P   4      25.363 -34.502  14.959  1.00 19.01 LIG 0.27  HD
ATOM     38 HZ3  LYS P   4      25.249 -33.394  15.892  1.00 19.01 LIG 0.27  HD
ENDBRANCH 34 35
ENDBRANCH 33 34
ENDBRANCH 32 33
ENDBRANCH 31 32
ENDBRANCH 1 31
BRANCH 1 39
ATOM     39  N   LYS P   4      26.453 -32.440   8.827  1.00 21.49 LIG-0.35  N 
ATOM     40 H    LYS P   4      26.018 -31.740   9.071  1.00 21.49 LIG 0.16  HD
ATOM     41  C   THR P   3      27.596 -32.398   8.159  1.00 20.06 LIG 0.24  C 
ATOM     42 O    THR P   3      28.304 -33.382   7.978  1.00 20.20 LIG-0.27  OA
BRANCH 41 43
ATOM     43  CA  THR P   3      28.016 -31.025   7.640  1.00 21.79 LIG 0.20  C 
BRANCH 43 44
ATOM     44  CB  THR P   3      27.458 -30.819   6.210  1.00 23.67 LIG 0.15  C 
ATOM     45  CG2 THR P   3      26.815 -29.432   6.082  1.00 27.17 LIG 0.04  C 
BRANCH 44 46
ATOM     46 OG1  THR P   3      28.507 -30.968   5.245  1.00 23.16 LIG-0.39  OA
ATOM     47 HG1  THR P   3      29.237 -30.728   5.584  1.00 23.16 LIG 0.21  HD
ENDBRANCH 44 46
ENDBRANCH 43 44
BRANCH 43 48
ATOM     48  N   THR P   3      29.463 -30.871   7.691  1.00 19.24 LIG-0.34  N 
ATOM     49 H    THR P   3      29.905 -31.524   7.347  1.00 19.24 LIG 0.16  HD
ATOM     50  C   ARG P   2      30.021 -29.791   8.236  1.00 23.72 LIG 0.24  C 
ATOM     51 O    ARG P   2      29.376 -28.819   8.645  1.00 20.72 LIG-0.27  OA
BRANCH 50 52
ATOM     52  CA  ARG P   2      31.529 -29.782   8.336  1.00 19.94 LIG 0.18  C 
BRANCH 52 53
ATOM     53  CB  ARG P   2      31.969 -30.381   9.673  1.00 20.09 LIG 0.04  C 
BRANCH 53 54
ATOM     54  CG  ARG P   2      33.461 -30.700   9.742  1.00 23.61 LIG 0.02  C 
BRANCH 54 55
ATOM     55  CD  ARG P   2      33.930 -30.962  11.179  1.00 28.00 LIG 0.14  C 
BRANCH 55 56
ATOM     56  NE  ARG P   2      33.875 -29.749  11.993  1.00 23.66 LIG-0.23  N 
ATOM     57  CZ  ARG P   2      32.946 -29.506  12.919  1.00 25.68 LIG 0.67  C 
ATOM     58  NH1 ARG P   2      31.994 -30.401  13.168  1.00 22.73 LIG-0.23  N 
ATOM     59  NH2 ARG P   2      32.969 -28.365  13.597  1.00 20.68 LIG-0.23  N 
ATOM     60 2HH1 ARG P   2      31.397 -30.239  13.766  1.00 22.73 LIG 0.17  HD
ATOM     61 1HH1 ARG P   2      31.975 -31.142  12.731  1.00 22.73 LIG 0.17  HD
ATOM     62 2HH2 ARG P   2      32.369 -28.207  14.193  1.00 20.68 LIG 0.17  HD
ATOM     63 1HH2 ARG P   2      33.582 -27.783  13.440  1.00 20.68 LIG 0.17  HD
ATOM     64 HE   ARG P   2      34.482 -29.154  11.867  1.00 23.66 LIG 0.18  HD
ENDBRANCH 55 56
ENDBRANCH 54 55
ENDBRANCH 53 54
ENDBRANCH 52 53
BRANCH 52 65
ATOM     65  N   ARG P   2      31.988 -28.404   8.194  1.00 18.68 LIG-0.35  N 
ATOM     66  C   ALA P   1      31.808 -27.745   7.052  1.00 22.59 LIG 0.25  C 
ATOM     67 O    ALA P   1      31.394 -28.292   6.026  1.00 23.11 LIG-0.27  OA
ATOM     68 H    ARG P   2      32.370 -28.075   8.891  1.00 18.68 LIG 0.16  HD
BRANCH 66 69
ATOM     69  CA  ALA P   1      32.132 -26.258   7.054  1.00 20.73 LIG 0.27  C 
ATOM     70  CB  ALA P   1      30.875 -25.445   7.367  1.00 22.81 LIG 0.05  C 
BRANCH 69 71
ATOM     71  N   ALA P   1      32.698 -25.846   5.773  1.00 20.88 LIG-0.07  N 
ATOM     72 H1   ALA P   1      32.692 -26.536   5.210  1.00 20.88 LIG 0.28  HD
ATOM     73 H2   ALA P   1      32.213 -25.182   5.434  1.00 20.88 LIG 0.28  HD
ATOM     74 H3   ALA P   1      33.536 -25.570   5.893  1.00 20.88 LIG 0.28  HD
ENDBRANCH 69 71
ENDBRANCH 66 69
ENDBRANCH 52 65
ENDBRANCH 50 52
ENDBRANCH 43 48
ENDBRANCH 41 43
ENDBRANCH 1 39
TORSDOF 30
ENDMDL
MODEL 14
USER: ADFR SOLUTION from run 83
USER: SCORE 24.586201 LL:  -3.987 LR: -21.859 RR:   0.000 FEB: -12.910
USER: RMSD 12.097593
USER: SEED 82
USER: STATUS no improvement in best in 4 clusters for 5 generations
USER: GENES 32
USER: genes 0 Translation |==|  0.49939 0.43352 0.53015
USER: genes 1 Rotation |==|  0.59168 0.41799 0.98386 0.52727
USER: genes 2 Torsion [N]-CA--C-[N] |==|  0.35864
USER: genes 3 Torsion [C]-N--CA-[C] |==|  0.62313
USER: genes 4 Torsion [N]-CA--C-[N] |==|  0.33533
USER: genes 5 Torsion [C]-N--CA-[CB] |==|  0.50556
USER: genes 6 Torsion [N]-CA--C-[N] |==|  0.44463
USER: genes 7 Torsion [C]-N--CA-[CB] |==|  0.83881
USER: genes 8 Torsion [N]-CA--C-[O] |==|  0.75382
USER: genes 9 Torsion [N]-CA--CB-[OG1] |==|  0.59544
USER: genes 10 Torsion [CA]-CB--OG1-[HG1] |==|  0.59232
USER: genes 11 Torsion [N]-CA--CB-[CG] |==|  0.12453
USER: genes 12 Torsion [CA]-CB--CG-[CD] |==|  0.32183
USER: genes 13 Torsion [CB]-CG--CD-[NE2] |==|  0.29458
USER: genes 14 Torsion [C]-CA--CB-[CG] |==|  0.56571
USER: genes 15 Torsion [CA]-CB--CG-[CD] |==|  0.62333
USER: genes 16 Torsion [CB]-CG--CD-[CE] |==|  0.85248
USER: genes 17 Torsion [CG]-CD--CE-[NZ] |==|  0.74195
USER: genes 18 Torsion [CD]-CE--NZ-[HZ3] |==|  0.90705
USER: genes 19 Torsion [C]-CA--N-[C] |==|  0.70086
USER: genes 20 Torsion [N]-C--CA-[N] |==|  0.35163
USER: genes 21 Torsion [C]-CA--CB-[CG2] |==|  0.41495
USER: genes 22 Torsion [CA]-CB--OG1-[HG1] |==|  0.07954
USER: genes 23 Torsion [C]-CA--N-[C] |==|  0.63652
USER: genes 24 Torsion [N]-C--CA-[N] |==|  0.92782
USER: genes 25 Torsion [C]-CA--CB-[CG] |==|  0.68751
USER: genes 26 Torsion [CA]-CB--CG-[CD] |==|  0.73951
USER: genes 27 Torsion [CB]-CG--CD-[NE] |==|  0.27148
USER: genes 28 Torsion [CG]-CD--NE-[HE] |==|  0.14412
USER: genes 29 Torsion [C]-CA--N-[C] |==|  0.72655
USER: genes 30 Torsion [N]-C--CA-[N] |==|  0.54894
USER: genes 31 Torsion [C]-CA--N-[H2] |==|  0.94008
ROOT
ATOM      1  CA  LYS P   4      25.684 -32.953  10.098  1.00 25.22 LIG 0.18  C 
ENDROOT
BRANCH 1 2
ATOM      2  C   LYS P   4      26.988 -32.995   9.311  1.00 27.71 LIG 0.24  C 
ATOM      3  N   GLN P   5      27.378 -31.856   8.746  1.00 26.60 LIG-0.35  N 
ATOM      4 H    GLN P   5      26.910 -31.134   8.746  1.00 26.60 LIG 0.16  HD
ATOM      5 O    LYS P   4      27.633 -34.037   9.224  1.00 22.94 LIG-0.27  OA
BRANCH 3 6
ATOM      6  CA  GLN P   5      28.663 -31.743   8.063  1.00 30.64 LIG 0.18  C 
BRANCH 6 7
ATOM      7  C   GLN P   5      29.333 -30.438   8.475  1.00 34.53 LIG 0.24  C 
ATOM      8 O    GLN P   5      28.771 -29.362   8.267  1.00 31.76 LIG-0.27  OA
ATOM      9  N   THR P   6      30.526 -30.518   9.059  1.00 31.32 LIG-0.34  N 
ATOM     10 H    THR P   6      30.975 -31.243   9.163  1.00 31.32 LIG 0.16  HD
BRANCH 9 11
ATOM     11  CA  THR P   6      31.161 -29.308   9.581  1.00 35.73 LIG 0.20  C 
BRANCH 11 12
ATOM     12  C   THR P   6      31.332 -28.222   8.536  1.00 36.89 LIG 0.24  C 
ATOM     13 O    THR P   6      31.327 -28.495   7.336  1.00 31.31 LIG-0.27  OA
ATOM     14  N   ALA P   7      31.507 -26.993   9.016  1.00 39.63 LIG-0.35  N 
ATOM     15 H    ALA P   7      31.517 -26.809   9.855  1.00 39.63 LIG 0.16  HD
BRANCH 14 16
ATOM     16  CA  ALA P   7      31.701 -25.834   8.153  1.00 40.80 LIG 0.16  C 
ATOM     17  CB  ALA P   7      32.914 -26.048   7.263  1.00 41.57 LIG 0.04  C 
BRANCH 16 18
ATOM     18  C   ALA P   7      30.464 -25.554   7.308  1.00 41.43 LIG 0.22  C 
ATOM     19 O    ALA P   7      30.319 -26.090   6.205  1.00 42.77 LIG-0.29  OA
ENDBRANCH 16 18
ENDBRANCH 14 16
ENDBRANCH 11 12
BRANCH 11 20
ATOM     20  CB  THR P   6      32.537 -29.591  10.168  1.00 30.67 LIG 0.15  C 
ATOM     21  CG2 THR P   6      33.595 -29.368   9.120  1.00 25.27 LIG 0.04  C 
BRANCH 20 22
ATOM     22 OG1  THR P   6      32.764 -28.727  11.288  1.00 31.72 LIG-0.39  OA
ATOM     23 HG1  THR P   6      33.580 -28.532  11.331  1.00 31.72 LIG 0.21  HD
ENDBRANCH 20 22
ENDBRANCH 11 20
ENDBRANCH 9 11
ENDBRANCH 6 7
BRANCH 6 24
ATOM     24  CB  GLN P   5      28.489 -31.799   6.540  1.00 38.94 LIG 0.04  C 
BRANCH 24 25
ATOM     25  CG  GLN P   5      27.342 -30.943   5.998  1.00 42.79 LIG 0.10  C 
BRANCH 25 26
ATOM     26  CD  GLN P   5      27.807 -29.811   5.090  1.00 45.14 LIG 0.21  C 
ATOM     27  NE2 GLN P   5      27.587 -29.970   3.786  1.00 40.57 LIG-0.37  N 
ATOM     28 21HE GLN P   5      27.202 -30.684   3.498  1.00 40.57 LIG 0.16  HD
ATOM     29 22HE GLN P   5      27.828 -29.359   3.231  1.00 40.57 LIG 0.16  HD
ATOM     30 OE1  GLN P   5      28.353 -28.809   5.553  1.00 46.24 LIG-0.27  OA
ENDBRANCH 25 26
ENDBRANCH 24 25
ENDBRANCH 6 24
ENDBRANCH 3 6
ENDBRANCH 1 2
BRANCH 1 31
ATOM     31  CB  LYS P   4      25.971 -33.056  11.592  1.00 18.02 LIG 0.04  C 
BRANCH 31 32
ATOM     32  CG  LYS P   4      24.808 -33.582  12.401  1.00 21.69 LIG 0.00  C 
BRANCH 32 33
ATOM     33  CD  LYS P   4      24.610 -32.759  13.675  1.00 22.86 LIG 0.03  C 
BRANCH 33 34
ATOM     34  CE  LYS P   4      25.914 -32.674  14.464  1.00 21.56 LIG 0.23  C 
BRANCH 34 35
ATOM     35  NZ  LYS P   4      26.020 -33.754  15.494  1.00 19.01 LIG-0.08  N 
ATOM     36 HZ2  LYS P   4      26.545 -33.480  16.158  1.00 19.01 LIG 0.27  HD
ATOM     37 HZ1  LYS P   4      26.367 -34.485  15.123  1.00 19.01 LIG 0.27  HD
ATOM     38 HZ3  LYS P   4      25.210 -33.940  15.813  1.00 19.01 LIG 0.27  HD
ENDBRANCH 34 35
ENDBRANCH 33 34
ENDBRANCH 32 33
ENDBRANCH 31 32
ENDBRANCH 1 31
BRANCH 1 39
ATOM     39  N   LYS P   4      24.807 -34.030   9.662  1.00 21.49 LIG-0.35  N 
ATOM     40 H    LYS P   4      25.058 -34.812   9.917  1.00 21.49 LIG 0.16  HD
ATOM     41  C   THR P   3      23.721 -33.809   8.937  1.00 20.06 LIG 0.24  C 
ATOM     42 O    THR P   3      23.265 -32.689   8.735  1.00 20.20 LIG-0.27  OA
BRANCH 41 43
ATOM     43  CA  THR P   3      23.029 -35.049   8.377  1.00 21.79 LIG 0.20  C 
BRANCH 43 44
ATOM     44  CB  THR P   3      23.238 -35.113   6.844  1.00 23.67 LIG 0.15  C 
ATOM     45  CG2 THR P   3      23.269 -36.570   6.368  1.00 27.17 LIG 0.04  C 
BRANCH 44 46
ATOM     46 OG1  THR P   3      22.193 -34.395   6.173  1.00 23.16 LIG-0.39  OA
ATOM     47 HG1  THR P   3      21.911 -33.780   6.671  1.00 23.16 LIG 0.21  HD
ENDBRANCH 44 46
ENDBRANCH 43 44
BRANCH 43 48
ATOM     48  N   THR P   3      21.618 -35.063   8.739  1.00 19.24 LIG-0.34  N 
ATOM     49 H    THR P   3      21.200 -34.328   8.582  1.00 19.24 LIG 0.16  HD
ATOM     50  C   ARG P   2      21.054 -36.148   9.269  1.00 23.72 LIG 0.24  C 
ATOM     51 O    ARG P   2      21.641 -37.228   9.405  1.00 20.72 LIG-0.27  OA
BRANCH 50 52
ATOM     52  CA  ARG P   2      19.614 -36.020   9.708  1.00 19.94 LIG 0.18  C 
BRANCH 52 53
ATOM     53  CB  ARG P   2      18.683 -36.527   8.605  1.00 20.09 LIG 0.04  C 
BRANCH 53 54
ATOM     54  CG  ARG P   2      17.836 -35.430   7.964  1.00 23.61 LIG 0.02  C 
BRANCH 54 55
ATOM     55  CD  ARG P   2      16.459 -35.302   8.628  1.00 28.00 LIG 0.14  C 
BRANCH 55 56
ATOM     56  NE  ARG P   2      16.434 -34.225   9.616  1.00 23.66 LIG-0.23  N 
ATOM     57  CZ  ARG P   2      16.015 -34.367  10.874  1.00 25.68 LIG 0.67  C 
ATOM     58  NH1 ARG P   2      15.596 -35.551  11.313  1.00 22.73 LIG-0.23  N 
ATOM     59  NH2 ARG P   2      16.013 -33.323  11.694  1.00 20.68 LIG-0.23  N 
ATOM     60 2HH1 ARG P   2      15.327 -35.638  12.126  1.00 22.73 LIG 0.17  HD
ATOM     61 1HH1 ARG P   2      15.596 -36.231  10.785  1.00 22.73 LIG 0.17  HD
ATOM     62 2HH2 ARG P   2      15.741 -33.415  12.505  1.00 20.68 LIG 0.17  HD
ATOM     63 1HH2 ARG P   2      16.282 -32.556  11.415  1.00 20.68 LIG 0.17  HD
ATOM     64 HE   ARG P   2      16.709 -33.448   9.369  1.00 23.66 LIG 0.18  HD
ENDBRANCH 55 56
ENDBRANCH 54 55
ENDBRANCH 53 54
ENDBRANCH 52 53
BRANCH 52 65
ATOM     65  N   ARG P   2      19.354 -34.619  10.020  1.00 18.68 LIG-0.35  N 
ATOM     66  C   ALA P   1      19.386 -34.190  11.280  1.00 22.59 LIG 0.25  C 
ATOM     67 O    ALA P   1      19.482 -34.956  12.242  1.00 23.11 LIG-0.27  OA
ATOM     68 H    ARG P   2      19.185 -34.121   9.340  1.00 18.68 LIG 0.16  HD
BRANCH 66 69
ATOM     69  CA  ALA P   1      19.303 -32.686  11.500  1.00 20.73 LIG 0.27  C 
ATOM     70  CB  ALA P   1      20.131 -31.953  10.443  1.00 22.81 LIG 0.05  C 
BRANCH 69 71
ATOM     71  N   ALA P   1      19.758 -32.329  12.840  1.00 20.88 LIG-0.07  N 
ATOM     72 H1   ALA P   1      19.247 -31.675  13.163  1.00 20.88 LIG 0.28  HD
ATOM     73 H2   ALA P   1      19.700 -33.040  13.372  1.00 20.88 LIG 0.28  HD
ATOM     74 H3   ALA P   1      20.603 -32.053  12.804  1.00 20.88 LIG 0.28  HD
ENDBRANCH 69 71
ENDBRANCH 66 69
ENDBRANCH 52 65
ENDBRANCH 50 52
ENDBRANCH 43 48
ENDBRANCH 41 43
ENDBRANCH 1 39
TORSDOF 30
ENDMDL
MODEL 15
USER: ADFR SOLUTION from run 12
USER: SCORE 24.735592 LL:  -3.884 LR: -21.712 RR:   0.000 FEB: -12.763
USER: RMSD 2.480583
USER: SEED 643051
USER: STATUS no improvement in best in 5 clusters for 5 generations
USER: GENES 32
USER: genes 0 Translation |==|  0.51474 0.40126 0.47995
USER: genes 1 Rotation |==|  0.49186 0.42689 0.49417 0.99453
USER: genes 2 Torsion [N]-CA--C-[N] |==|  0.33750
USER: genes 3 Torsion [C]-N--CA-[C] |==|  0.76520
USER: genes 4 Torsion [N]-CA--C-[N] |==|  0.22184
USER: genes 5 Torsion [C]-N--CA-[CB] |==|  0.17763
USER: genes 6 Torsion [N]-CA--C-[N] |==|  0.11048
USER: genes 7 Torsion [C]-N--CA-[CB] |==|  0.86627
USER: genes 8 Torsion [N]-CA--C-[O] |==|  0.00884
USER: genes 9 Torsion [N]-CA--CB-[OG1] |==|  0.50060
USER: genes 10 Torsion [CA]-CB--OG1-[HG1] |==|  0.73684
USER: genes 11 Torsion [N]-CA--CB-[CG] |==|  0.47468
USER: genes 12 Torsion [CA]-CB--CG-[CD] |==|  0.24276
USER: genes 13 Torsion [CB]-CG--CD-[NE2] |==|  0.17611
USER: genes 14 Torsion [C]-CA--CB-[CG] |==|  0.76009
USER: genes 15 Torsion [CA]-CB--CG-[CD] |==|  0.40586
USER: genes 16 Torsion [CB]-CG--CD-[CE] |==|  0.35908
USER: genes 17 Torsion [CG]-CD--CE-[NZ] |==|  0.67748
USER: genes 18 Torsion [CD]-CE--NZ-[HZ3] |==|  0.80282
USER: genes 19 Torsion [C]-CA--N-[C] |==|  0.65797
USER: genes 20 Torsion [N]-C--CA-[N] |==|  0.40364
USER: genes 21 Torsion [C]-CA--CB-[CG2] |==|  0.01872
USER: genes 22 Torsion [CA]-CB--OG1-[HG1] |==|  0.92015
USER: genes 23 Torsion [C]-CA--N-[C] |==|  0.60556
USER: genes 24 Torsion [N]-C--CA-[N] |==|  0.44909
USER: genes 25 Torsion [C]-CA--CB-[CG] |==|  0.43022
USER: genes 26 Torsion [CA]-CB--CG-[CD] |==|  0.38620
USER: genes 27 Torsion [CB]-CG--CD-[NE] |==|  0.88729
USER: genes 28 Torsion [CG]-CD--NE-[HE] |==|  0.74573
USER: genes 29 Torsion [C]-CA--N-[C] |==|  0.58485
USER: genes 30 Torsion [N]-C--CA-[N] |==|  0.44832
USER: genes 31 Torsion [C]-CA--N-[H2] |==|  0.52291
ROOT
ATOM      1  CA  LYS P   4      26.087 -33.631   9.044  1.00 25.22 LIG 0.18  C 
ENDROOT
BRANCH 1 2
ATOM      2  C   LYS P   4      24.718 -33.555   8.379  1.00 27.71 LIG 0.24  C 
ATOM      3  N   GLN P   5      24.470 -34.447   7.425  1.00 26.60 LIG-0.35  N 
ATOM      4 H    GLN P   5      25.051 -35.006   7.127  1.00 26.60 LIG 0.16  HD
ATOM      5 O    LYS P   4      23.899 -32.708   8.729  1.00 22.94 LIG-0.27  OA
BRANCH 3 6
ATOM      6  CA  GLN P   5      23.157 -34.547   6.795  1.00 30.64 LIG 0.18  C 
BRANCH 6 7
ATOM      7  C   GLN P   5      22.258 -35.428   7.652  1.00 34.53 LIG 0.24  C 
ATOM      8 O    GLN P   5      22.076 -36.607   7.346  1.00 31.76 LIG-0.27  OA
ATOM      9  N   THR P   6      21.697 -34.875   8.723  1.00 31.32 LIG-0.34  N 
ATOM     10 H    THR P   6      21.749 -34.043   8.932  1.00 31.32 LIG 0.16  HD
BRANCH 9 11
ATOM     11  CA  THR P   6      20.921 -35.703   9.646  1.00 35.73 LIG 0.20  C 
BRANCH 11 12
ATOM     12  C   THR P   6      20.238 -34.904  10.740  1.00 36.89 LIG 0.24  C 
ATOM     13 O    THR P   6      20.168 -35.339  11.888  1.00 31.31 LIG-0.27  OA
ATOM     14  N   ALA P   7      19.716 -33.742  10.354  1.00 39.63 LIG-0.35  N 
ATOM     15 H    ALA P   7      19.762 -33.447   9.548  1.00 39.63 LIG 0.16  HD
BRANCH 14 16
ATOM     16  CA  ALA P   7      19.012 -32.855  11.271  1.00 40.80 LIG 0.16  C 
ATOM     17  CB  ALA P   7      17.994 -33.644  12.077  1.00 41.57 LIG 0.04  C 
BRANCH 16 18
ATOM     18  C   ALA P   7      19.979 -32.129  12.200  1.00 41.43 LIG 0.22  C 
ATOM     19 O    ALA P   7      21.199 -32.281  12.082  1.00 42.77 LIG-0.29  OA
ENDBRANCH 16 18
ENDBRANCH 14 16
ENDBRANCH 11 12
BRANCH 11 20
ATOM     20  CB  THR P   6      21.779 -36.760  10.327  1.00 30.67 LIG 0.15  C 
ATOM     21  CG2 THR P   6      22.890 -36.098  11.098  1.00 25.27 LIG 0.04  C 
BRANCH 20 22
ATOM     22 OG1  THR P   6      20.963 -37.539  11.212  1.00 31.72 LIG-0.39  OA
ATOM     23 HG1  THR P   6      21.011 -37.223  11.988  1.00 31.72 LIG 0.21  HD
ENDBRANCH 20 22
ENDBRANCH 11 20
ENDBRANCH 9 11
ENDBRANCH 6 7
BRANCH 6 24
ATOM     24  CB  GLN P   5      23.267 -35.113   5.373  1.00 38.94 LIG 0.04  C 
BRANCH 24 25
ATOM     25  CG  GLN P   5      21.927 -35.457   4.719  1.00 42.79 LIG 0.10  C 
BRANCH 25 26
ATOM     26  CD  GLN P   5      21.288 -34.282   3.990  1.00 45.14 LIG 0.21  C 
ATOM     27  NE2 GLN P   5      21.962 -33.793   2.949  1.00 40.57 LIG-0.37  N 
ATOM     28 21HE GLN P   5      22.716 -34.141   2.723  1.00 40.57 LIG 0.16  HD
ATOM     29 22HE GLN P   5      21.643 -33.131   2.503  1.00 40.57 LIG 0.16  HD
ATOM     30 OE1  GLN P   5      20.205 -33.821   4.355  1.00 46.24 LIG-0.27  OA
ENDBRANCH 25 26
ENDBRANCH 24 25
ENDBRANCH 6 24
ENDBRANCH 3 6
ENDBRANCH 1 2
BRANCH 1 31
ATOM     31  CB  LYS P   4      25.932 -33.979  10.521  1.00 18.02 LIG 0.04  C 
BRANCH 31 32
ATOM     32  CG  LYS P   4      25.708 -32.778  11.409  1.00 21.69 LIG 0.00  C 
BRANCH 32 33
ATOM     33  CD  LYS P   4      24.786 -33.126  12.579  1.00 22.86 LIG 0.03  C 
BRANCH 33 34
ATOM     34  CE  LYS P   4      25.410 -32.684  13.901  1.00 21.56 LIG 0.23  C 
BRANCH 34 35
ATOM     35  NZ  LYS P   4      25.711 -33.842  14.797  1.00 19.01 LIG-0.08  N 
ATOM     36 HZ2  LYS P   4      26.213 -33.568  15.479  1.00 19.01 LIG 0.27  HD
ATOM     37 HZ1  LYS P   4      26.150 -34.467  14.339  1.00 19.01 LIG 0.27  HD
ATOM     38 HZ3  LYS P   4      24.950 -34.183  15.107  1.00 19.01 LIG 0.27  HD
ENDBRANCH 34 35
ENDBRANCH 33 34
ENDBRANCH 32 33
ENDBRANCH 31 32
ENDBRANCH 1 31
BRANCH 1 39
ATOM     39  N   LYS P   4      26.789 -32.366   8.880  1.00 21.49 LIG-0.35  N 
ATOM     40 H    LYS P   4      26.362 -31.685   9.186  1.00 21.49 LIG 0.16  HD
ATOM     41  C   THR P   3      27.980 -32.288   8.306  1.00 20.06 LIG 0.24  C 
ATOM     42 O    THR P   3      28.665 -33.270   8.043  1.00 20.20 LIG-0.27  OA
BRANCH 41 43
ATOM     43  CA  THR P   3      28.488 -30.878   8.013  1.00 21.79 LIG 0.20  C 
BRANCH 43 44
ATOM     44  CB  THR P   3      28.040 -30.451   6.593  1.00 23.67 LIG 0.15  C 
ATOM     45  CG2 THR P   3      27.093 -31.498   5.993  1.00 27.17 LIG 0.04  C 
BRANCH 44 46
ATOM     46 OG1  THR P   3      27.394 -29.172   6.643  1.00 23.16 LIG-0.39  OA
ATOM     47 HG1  THR P   3      27.031 -29.070   7.394  1.00 23.16 LIG 0.21  HD
ENDBRANCH 44 46
ENDBRANCH 43 44
BRANCH 43 48
ATOM     48  N   THR P   3      29.933 -30.802   8.177  1.00 19.24 LIG-0.34  N 
ATOM     49 H    THR P   3      30.362 -31.497   7.909  1.00 19.24 LIG 0.16  HD
ATOM     50  C   ARG P   2      30.509 -29.723   8.707  1.00 23.72 LIG 0.24  C 
ATOM     51 O    ARG P   2      29.892 -28.693   9.005  1.00 20.72 LIG-0.27  OA
BRANCH 50 52
ATOM     52  CA  ARG P   2      32.001 -29.791   8.933  1.00 19.94 LIG 0.18  C 
BRANCH 52 53
ATOM     53  CB  ARG P   2      32.306 -30.641  10.169  1.00 20.09 LIG 0.04  C 
BRANCH 53 54
ATOM     54  CG  ARG P   2      33.697 -31.271  10.154  1.00 23.61 LIG 0.02  C 
BRANCH 54 55
ATOM     55  CD  ARG P   2      34.371 -31.215  11.531  1.00 28.00 LIG 0.14  C 
BRANCH 55 56
ATOM     56  NE  ARG P   2      34.130 -29.935  12.196  1.00 23.66 LIG-0.23  N 
ATOM     57  CZ  ARG P   2      33.081 -29.679  12.978  1.00 25.68 LIG 0.67  C 
ATOM     58  NH1 ARG P   2      32.172 -30.623  13.214  1.00 22.73 LIG-0.23  N 
ATOM     59  NH2 ARG P   2      32.938 -28.479  13.526  1.00 20.68 LIG-0.23  N 
ATOM     60 2HH1 ARG P   2      31.497 -30.453  13.719  1.00 22.73 LIG 0.17  HD
ATOM     61 1HH1 ARG P   2      32.260 -31.402  12.862  1.00 22.73 LIG 0.17  HD
ATOM     62 2HH2 ARG P   2      32.261 -28.313  14.030  1.00 20.68 LIG 0.17  HD
ATOM     63 1HH2 ARG P   2      33.523 -27.866  13.377  1.00 20.68 LIG 0.17  HD
ATOM     64 HE   ARG P   2      34.704 -29.306  12.076  1.00 23.66 LIG 0.18  HD
ENDBRANCH 55 56
ENDBRANCH 54 55
ENDBRANCH 53 54
ENDBRANCH 52 53
BRANCH 52 65
ATOM     65  N   ARG P   2      32.503 -28.430   9.088  1.00 18.68 LIG-0.35  N 
ATOM     66  C   ALA P   1      33.739 -28.118   8.706  1.00 22.59 LIG 0.25  C 
ATOM     67 O    ALA P   1      34.562 -28.967   8.354  1.00 23.11 LIG-0.27  OA
ATOM     68 H    ARG P   2      31.945 -27.875   9.435  1.00 18.68 LIG 0.16  HD
BRANCH 66 69
ATOM     69  CA  ALA P   1      34.113 -26.642   8.716  1.00 20.73 LIG 0.27  C 
ATOM     70  CB  ALA P   1      33.489 -25.933   7.513  1.00 22.81 LIG 0.05  C 
BRANCH 69 71
ATOM     71  N   ALA P   1      35.563 -26.471   8.710  1.00 20.88 LIG-0.07  N 
ATOM     72 H1   ALA P   1      35.891 -26.740   7.927  1.00 20.88 LIG 0.28  HD
ATOM     73 H2   ALA P   1      35.761 -25.613   8.836  1.00 20.88 LIG 0.28  HD
ATOM     74 H3   ALA P   1      35.922 -26.957   9.364  1.00 20.88 LIG 0.28  HD
ENDBRANCH 69 71
ENDBRANCH 66 69
ENDBRANCH 52 65
ENDBRANCH 50 52
ENDBRANCH 43 48
ENDBRANCH 41 43
ENDBRANCH 1 39
TORSDOF 30
ENDMDL
MODEL 16
USER: ADFR SOLUTION from run 54
USER: SCORE 23.330547 LL:  -3.667 LR: -21.574 RR:   0.000 FEB: -12.625
USER: RMSD 3.340836
USER: SEED 53
USER: STATUS no improvement in best in 4 clusters for 5 generations
USER: GENES 32
USER: genes 0 Translation |==|  0.52566 0.43555 0.51976
USER: genes 1 Rotation |==|  0.33811 0.40530 0.51895 0.96311
USER: genes 2 Torsion [N]-CA--C-[N] |==|  0.43017
USER: genes 3 Torsion [C]-N--CA-[C] |==|  0.68061
USER: genes 4 Torsion [N]-CA--C-[N] |==|  0.39107
USER: genes 5 Torsion [C]-N--CA-[CB] |==|  0.19059
USER: genes 6 Torsion [N]-CA--C-[N] |==|  0.48803
USER: genes 7 Torsion [C]-N--CA-[CB] |==|  0.32230
USER: genes 8 Torsion [N]-CA--C-[O] |==|  0.53371
USER: genes 9 Torsion [N]-CA--CB-[OG1] |==|  0.58685
USER: genes 10 Torsion [CA]-CB--OG1-[HG1] |==|  0.40072
USER: genes 11 Torsion [N]-CA--CB-[CG] |==|  0.56346
USER: genes 12 Torsion [CA]-CB--CG-[CD] |==|  0.18613
USER: genes 13 Torsion [CB]-CG--CD-[NE2] |==|  0.82046
USER: genes 14 Torsion [C]-CA--CB-[CG] |==|  0.19174
USER: genes 15 Torsion [CA]-CB--CG-[CD] |==|  0.54944
USER: genes 16 Torsion [CB]-CG--CD-[CE] |==|  0.72820
USER: genes 17 Torsion [CG]-CD--CE-[NZ] |==|  0.77724
USER: genes 18 Torsion [CD]-CE--NZ-[HZ3] |==|  0.55473
USER: genes 19 Torsion [C]-CA--N-[C] |==|  0.71421
USER: genes 20 Torsion [N]-C--CA-[N] |==|  0.23983
USER: genes 21 Torsion [C]-CA--CB-[CG2] |==|  0.30004
USER: genes 22 Torsion [CA]-CB--OG1-[HG1] |==|  0.22799
USER: genes 23 Torsion [C]-CA--N-[C] |==|  0.63246
USER: genes 24 Torsion [N]-C--CA-[N] |==|  0.07486
USER: genes 25 Torsion [C]-CA--CB-[CG] |==|  0.84510
USER: genes 26 Torsion [CA]-CB--CG-[CD] |==|  0.79838
USER: genes 27 Torsion [CB]-CG--CD-[NE] |==|  0.77655
USER: genes 28 Torsion [CG]-CD--NE-[HE] |==|  0.82142
USER: genes 29 Torsion [C]-CA--N-[C] |==|  0.64445
USER: genes 30 Torsion [N]-C--CA-[N] |==|  0.38483
USER: genes 31 Torsion [C]-CA--N-[H2] |==|  0.13383
ROOT
ATOM      1  CA  LYS P   4      26.374 -32.911   9.880  1.00 25.22 LIG 0.18  C 
ENDROOT
BRANCH 1 2
ATOM      2  C   LYS P   4      25.074 -33.295   9.183  1.00 27.71 LIG 0.24  C 
ATOM      3  N   GLN P   5      24.552 -34.475   9.507  1.00 26.60 LIG-0.35  N 
ATOM      4 H    GLN P   5      24.935 -35.044  10.026  1.00 26.60 LIG 0.16  HD
ATOM      5 O    LYS P   4      24.550 -32.534   8.372  1.00 22.94 LIG-0.27  OA
BRANCH 3 6
ATOM      6  CA  GLN P   5      23.255 -34.903   8.993  1.00 30.64 LIG 0.18  C 
BRANCH 6 7
ATOM      7  C   GLN P   5      22.276 -35.029  10.152  1.00 34.53 LIG 0.24  C 
ATOM      8 O    GLN P   5      22.651 -35.489  11.232  1.00 31.76 LIG-0.27  OA
ATOM      9  N   THR P   6      21.025 -34.625   9.947  1.00 31.32 LIG-0.34  N 
ATOM     10 H    THR P   6      20.712 -34.359   9.192  1.00 31.32 LIG 0.16  HD
BRANCH 9 11
ATOM     11  CA  THR P   6      20.074 -34.612  11.058  1.00 35.73 LIG 0.20  C 
BRANCH 11 12
ATOM     12  C   THR P   6      18.643 -34.365  10.619  1.00 36.89 LIG 0.24  C 
ATOM     13 O    THR P   6      18.380 -34.097   9.447  1.00 31.31 LIG-0.27  OA
ATOM     14  N   ALA P   7      17.731 -34.434  11.586  1.00 39.63 LIG-0.35  N 
ATOM     15 H    ALA P   7      17.921 -34.615  12.404  1.00 39.63 LIG 0.16  HD
BRANCH 14 16
ATOM     16  CA  ALA P   7      16.311 -34.209  11.343  1.00 40.80 LIG 0.16  C 
ATOM     17  CB  ALA P   7      15.529 -35.480  11.625  1.00 41.57 LIG 0.04  C 
BRANCH 16 18
ATOM     18  C   ALA P   7      15.776 -33.057  12.187  1.00 41.43 LIG 0.22  C 
ATOM     19 O    ALA P   7      14.562 -32.861  12.288  1.00 42.77 LIG-0.29  OA
ENDBRANCH 16 18
ENDBRANCH 14 16
ENDBRANCH 11 12
BRANCH 11 20
ATOM     20  CB  THR P   6      20.418 -33.553  12.096  1.00 30.67 LIG 0.15  C 
ATOM     21  CG2 THR P   6      19.728 -32.259  11.753  1.00 25.27 LIG 0.04  C 
BRANCH 20 22
ATOM     22 OG1  THR P   6      20.004 -34.003  13.392  1.00 31.72 LIG-0.39  OA
ATOM     23 HG1  THR P   6      20.556 -33.742  13.968  1.00 31.72 LIG 0.21  HD
ENDBRANCH 20 22
ENDBRANCH 11 20
ENDBRANCH 9 11
ENDBRANCH 6 7
BRANCH 6 24
ATOM     24  CB  GLN P   5      23.370 -36.235   8.240  1.00 38.94 LIG 0.04  C 
BRANCH 24 25
ATOM     25  CG  GLN P   5      22.253 -36.494   7.227  1.00 42.79 LIG 0.10  C 
BRANCH 25 26
ATOM     26  CD  GLN P   5      22.279 -35.540   6.039  1.00 45.14 LIG 0.21  C 
ATOM     27  NE2 GLN P   5      22.057 -34.254   6.307  1.00 40.57 LIG-0.37  N 
ATOM     28 21HE GLN P   5      21.909 -34.003   7.117  1.00 40.57 LIG 0.16  HD
ATOM     29 22HE GLN P   5      22.063 -33.675   5.672  1.00 40.57 LIG 0.16  HD
ATOM     30 OE1  GLN P   5      22.497 -35.952   4.899  1.00 46.24 LIG-0.27  OA
ENDBRANCH 25 26
ENDBRANCH 24 25
ENDBRANCH 6 24
ENDBRANCH 3 6
ENDBRANCH 1 2
BRANCH 1 31
ATOM     31  CB  LYS P   4      26.075 -32.321  11.254  1.00 18.02 LIG 0.04  C 
BRANCH 31 32
ATOM     32  CG  LYS P   4      25.541 -33.327  12.246  1.00 21.69 LIG 0.00  C 
BRANCH 32 33
ATOM     33  CD  LYS P   4      24.860 -32.628  13.424  1.00 22.86 LIG 0.03  C 
BRANCH 33 34
ATOM     34  CE  LYS P   4      25.817 -32.528  14.610  1.00 21.56 LIG 0.23  C 
BRANCH 34 35
ATOM     35  NZ  LYS P   4      25.893 -33.807  15.381  1.00 19.01 LIG-0.08  N 
ATOM     36 HZ2  LYS P   4      26.431 -34.377  14.960  1.00 19.01 LIG 0.27  HD
ATOM     37 HZ1  LYS P   4      25.079 -34.162  15.449  1.00 19.01 LIG 0.27  HD
ATOM     38 HZ3  LYS P   4      26.213 -33.644  16.196  1.00 19.01 LIG 0.27  HD
ENDBRANCH 34 35
ENDBRANCH 33 34
ENDBRANCH 32 33
ENDBRANCH 31 32
ENDBRANCH 1 31
BRANCH 1 39
ATOM     39  N   LYS P   4      27.115 -31.965   9.059  1.00 21.49 LIG-0.35  N 
ATOM     40 H    LYS P   4      26.810 -31.162   9.086  1.00 21.49 LIG 0.16  HD
ATOM     41  C   THR P   3      28.167 -32.326   8.338  1.00 20.06 LIG 0.24  C 
ATOM     42 O    THR P   3      28.710 -33.420   8.445  1.00 20.20 LIG-0.27  OA
BRANCH 41 43
ATOM     43  CA  THR P   3      28.702 -31.277   7.368  1.00 21.79 LIG 0.20  C 
BRANCH 43 44
ATOM     44  CB  THR P   3      29.327 -31.980   6.137  1.00 23.67 LIG 0.15  C 
ATOM     45  CG2 THR P   3      28.434 -31.795   4.904  1.00 27.17 LIG 0.04  C 
BRANCH 44 46
ATOM     46 OG1  THR P   3      30.637 -31.456   5.881  1.00 23.16 LIG-0.39  OA
ATOM     47 HG1  THR P   3      31.193 -31.832   6.386  1.00 23.16 LIG 0.21  HD
ENDBRANCH 44 46
ENDBRANCH 43 44
BRANCH 43 48
ATOM     48  N   THR P   3      29.649 -30.391   8.031  1.00 19.24 LIG-0.34  N 
ATOM     49 H    THR P   3      30.248 -30.793   8.500  1.00 19.24 LIG 0.16  HD
ATOM     50  C   ARG P   2      29.563 -29.068   7.899  1.00 23.72 LIG 0.24  C 
ATOM     51 O    ARG P   2      28.755 -28.506   7.150  1.00 20.72 LIG-0.27  OA
BRANCH 50 52
ATOM     52  CA  ARG P   2      30.525 -28.239   8.716  1.00 19.94 LIG 0.18  C 
BRANCH 52 53
ATOM     53  CB  ARG P   2      30.868 -26.947   7.971  1.00 20.09 LIG 0.04  C 
BRANCH 53 54
ATOM     54  CG  ARG P   2      31.427 -27.176   6.568  1.00 23.61 LIG 0.02  C 
BRANCH 54 55
ATOM     55  CD  ARG P   2      32.859 -27.723   6.601  1.00 28.00 LIG 0.14  C 
BRANCH 55 56
ATOM     56  NE  ARG P   2      33.838 -26.660   6.824  1.00 23.66 LIG-0.23  N 
ATOM     57  CZ  ARG P   2      34.620 -26.572   7.901  1.00 25.68 LIG 0.67  C 
ATOM     58  NH1 ARG P   2      34.557 -27.496   8.856  1.00 22.73 LIG-0.23  N 
ATOM     59  NH2 ARG P   2      35.467 -25.557   8.024  1.00 20.68 LIG-0.23  N 
ATOM     60 2HH1 ARG P   2      35.063 -27.435   9.549  1.00 22.73 LIG 0.17  HD
ATOM     61 1HH1 ARG P   2      34.009 -28.155   8.781  1.00 22.73 LIG 0.17  HD
ATOM     62 2HH2 ARG P   2      35.971 -25.499   8.719  1.00 20.68 LIG 0.17  HD
ATOM     63 1HH2 ARG P   2      35.512 -24.957   7.410  1.00 20.68 LIG 0.17  HD
ATOM     64 HE   ARG P   2      33.914 -26.051   6.221  1.00 23.66 LIG 0.18  HD
ENDBRANCH 55 56
ENDBRANCH 54 55
ENDBRANCH 53 54
ENDBRANCH 52 53
BRANCH 52 65
ATOM     65  N   ARG P   2      31.719 -29.039   8.967  1.00 18.68 LIG-0.35  N 
ATOM     66  C   ALA P   1      32.183 -29.190  10.206  1.00 22.59 LIG 0.25  C 
ATOM     67 O    ALA P   1      31.737 -28.557  11.166  1.00 23.11 LIG-0.27  OA
ATOM     68 H    ARG P   2      32.077 -29.387   8.267  1.00 18.68 LIG 0.16  HD
BRANCH 66 69
ATOM     69  CA  ALA P   1      33.307 -30.197  10.404  1.00 20.73 LIG 0.27  C 
ATOM     70  CB  ALA P   1      32.743 -31.521  10.924  1.00 22.81 LIG 0.05  C 
BRANCH 69 71
ATOM     71  N   ALA P   1      34.316 -29.679  11.322  1.00 20.88 LIG-0.07  N 
ATOM     72 H1   ALA P   1      34.779 -29.033  10.921  1.00 20.88 LIG 0.28  HD
ATOM     73 H2   ALA P   1      33.917 -29.352  12.047  1.00 20.88 LIG 0.28  HD
ATOM     74 H3   ALA P   1      34.868 -30.335  11.559  1.00 20.88 LIG 0.28  HD
ENDBRANCH 69 71
ENDBRANCH 66 69
ENDBRANCH 52 65
ENDBRANCH 50 52
ENDBRANCH 43 48
ENDBRANCH 41 43
ENDBRANCH 1 39
TORSDOF 30
ENDMDL
MODEL 17
USER: ADFR SOLUTION from run 188
USER: SCORE 23.718603 LL:  -4.199 LR: -21.512 RR:   0.000 FEB: -12.563
USER: RMSD 2.516741
USER: SEED 187
USER: STATUS no improvement in best in 8 clusters for 5 generations
USER: GENES 32
USER: genes 0 Translation |==|  0.51712 0.41549 0.50006
USER: genes 1 Rotation |==|  0.41845 0.42232 0.51707 0.98685
USER: genes 2 Torsion [N]-CA--C-[N] |==|  0.42413
USER: genes 3 Torsion [C]-N--CA-[C] |==|  0.73759
USER: genes 4 Torsion [N]-CA--C-[N] |==|  0.24078
USER: genes 5 Torsion [C]-N--CA-[CB] |==|  0.47429
USER: genes 6 Torsion [N]-CA--C-[N] |==|  0.91891
USER: genes 7 Torsion [C]-N--CA-[CB] |==|  0.20629
USER: genes 8 Torsion [N]-CA--C-[O] |==|  0.05344
USER: genes 9 Torsion [N]-CA--CB-[OG1] |==|  0.72898
USER: genes 10 Torsion [CA]-CB--OG1-[HG1] |==|  0.68651
USER: genes 11 Torsion [N]-CA--CB-[CG] |==|  0.04708
USER: genes 12 Torsion [CA]-CB--CG-[CD] |==|  0.17158
USER: genes 13 Torsion [CB]-CG--CD-[NE2] |==|  0.17470
USER: genes 14 Torsion [C]-CA--CB-[CG] |==|  0.18916
USER: genes 15 Torsion [CA]-CB--CG-[CD] |==|  0.42191
USER: genes 16 Torsion [CB]-CG--CD-[CE] |==|  0.14675
USER: genes 17 Torsion [CG]-CD--CE-[NZ] |==|  0.45993
USER: genes 18 Torsion [CD]-CE--NZ-[HZ3] |==|  0.24154
USER: genes 19 Torsion [C]-CA--N-[C] |==|  0.78850
USER: genes 20 Torsion [N]-C--CA-[N] |==|  0.30844
USER: genes 21 Torsion [C]-CA--CB-[CG2] |==|  0.47034
USER: genes 22 Torsion [CA]-CB--OG1-[HG1] |==|  0.42864
USER: genes 23 Torsion [C]-CA--N-[C] |==|  0.67905
USER: genes 24 Torsion [N]-C--CA-[N] |==|  0.37641
USER: genes 25 Torsion [C]-CA--CB-[CG] |==|  0.55233
USER: genes 26 Torsion [CA]-CB--CG-[CD] |==|  0.46542
USER: genes 27 Torsion [CB]-CG--CD-[NE] |==|  0.72252
USER: genes 28 Torsion [CG]-CD--NE-[HE] |==|  0.80624
USER: genes 29 Torsion [C]-CA--N-[C] |==|  0.82952
USER: genes 30 Torsion [N]-C--CA-[N] |==|  0.35281
USER: genes 31 Torsion [C]-CA--N-[H2] |==|  0.03044
ROOT
ATOM      1  CA  LYS P   4      26.150 -33.332   9.466  1.00 25.22 LIG 0.18  C 
ENDROOT
BRANCH 1 2
ATOM      2  C   LYS P   4      24.795 -33.527   8.795  1.00 27.71 LIG 0.24  C 
ATOM      3  N   GLN P   5      24.342 -34.775   8.723  1.00 26.60 LIG-0.35  N 
ATOM      4 H    GLN P   5      24.792 -35.465   8.970  1.00 26.60 LIG 0.16  HD
ATOM      5 O    LYS P   4      24.170 -32.564   8.357  1.00 22.94 LIG-0.27  OA
BRANCH 3 6
ATOM      6  CA  GLN P   5      23.011 -35.076   8.207  1.00 30.64 LIG 0.18  C 
BRANCH 6 7
ATOM      7  C   GLN P   5      22.033 -35.168   9.371  1.00 34.53 LIG 0.24  C 
ATOM      8 O    GLN P   5      21.793 -36.257   9.892  1.00 31.76 LIG-0.27  OA
ATOM      9  N   THR P   6      21.466 -34.038   9.788  1.00 31.32 LIG-0.34  N 
ATOM     10 H    THR P   6      21.560 -33.272   9.409  1.00 31.32 LIG 0.16  HD
BRANCH 9 11
ATOM     11  CA  THR P   6      20.612 -34.049  10.975  1.00 35.73 LIG 0.20  C 
BRANCH 11 12
ATOM     12  C   THR P   6      19.318 -34.816  10.775  1.00 36.89 LIG 0.24  C 
ATOM     13 O    THR P   6      18.775 -35.392  11.717  1.00 31.31 LIG-0.27  OA
ATOM     14  N   ALA P   7      18.853 -34.831   9.529  1.00 39.63 LIG-0.35  N 
ATOM     15 H    ALA P   7      19.240 -34.432   8.873  1.00 39.63 LIG 0.16  HD
BRANCH 14 16
ATOM     16  CA  ALA P   7      17.630 -35.532   9.156  1.00 40.80 LIG 0.16  C 
ATOM     17  CB  ALA P   7      16.418 -34.759   9.649  1.00 41.57 LIG 0.04  C 
BRANCH 16 18
ATOM     18  C   ALA P   7      17.546 -35.746   7.649  1.00 41.43 LIG 0.22  C 
ATOM     19 O    ALA P   7      18.559 -35.679   6.946  1.00 42.77 LIG-0.29  OA
ENDBRANCH 16 18
ENDBRANCH 14 16
ENDBRANCH 11 12
BRANCH 11 20
ATOM     20  CB  THR P   6      20.241 -32.644  11.427  1.00 30.67 LIG 0.15  C 
ATOM     21  CG2 THR P   6      18.811 -32.621  11.901  1.00 25.27 LIG 0.04  C 
BRANCH 20 22
ATOM     22 OG1  THR P   6      21.116 -32.236  12.486  1.00 31.72 LIG-0.39  OA
ATOM     23 HG1  THR P   6      20.680 -32.167  13.199  1.00 31.72 LIG 0.21  HD
ENDBRANCH 20 22
ENDBRANCH 11 20
ENDBRANCH 9 11
ENDBRANCH 6 7
BRANCH 6 24
ATOM     24  CB  GLN P   5      23.011 -36.382   7.402  1.00 38.94 LIG 0.04  C 
BRANCH 24 25
ATOM     25  CG  GLN P   5      24.228 -37.278   7.640  1.00 42.79 LIG 0.10  C 
BRANCH 25 26
ATOM     26  CD  GLN P   5      24.357 -37.756   9.080  1.00 45.14 LIG 0.21  C 
ATOM     27  NE2 GLN P   5      23.370 -38.526   9.539  1.00 40.57 LIG-0.37  N 
ATOM     28 21HE GLN P   5      22.707 -38.725   9.028  1.00 40.57 LIG 0.16  HD
ATOM     29 22HE GLN P   5      23.396 -38.824  10.345  1.00 40.57 LIG 0.16  HD
ATOM     30 OE1  GLN P   5      25.328 -37.442   9.770  1.00 46.24 LIG-0.27  OA
ENDBRANCH 25 26
ENDBRANCH 24 25
ENDBRANCH 6 24
ENDBRANCH 3 6
ENDBRANCH 1 2
BRANCH 1 31
ATOM     31  CB  LYS P   4      25.974 -33.228  10.978  1.00 18.02 LIG 0.04  C 
BRANCH 31 32
ATOM     32  CG  LYS P   4      25.527 -34.516  11.629  1.00 21.69 LIG 0.00  C 
BRANCH 32 33
ATOM     33  CD  LYS P   4      26.013 -34.595  13.077  1.00 22.86 LIG 0.03  C 
BRANCH 33 34
ATOM     34  CE  LYS P   4      25.604 -33.341  13.847  1.00 21.56 LIG 0.23  C 
BRANCH 34 35
ATOM     35  NZ  LYS P   4      25.747 -33.517  15.325  1.00 19.01 LIG-0.08  N 
ATOM     36 HZ2  LYS P   4      25.576 -34.363  15.542  1.00 19.01 LIG 0.27  HD
ATOM     37 HZ1  LYS P   4      25.173 -32.981  15.745  1.00 19.01 LIG 0.27  HD
ATOM     38 HZ3  LYS P   4      26.577 -33.310  15.569  1.00 19.01 LIG 0.27  HD
ENDBRANCH 34 35
ENDBRANCH 33 34
ENDBRANCH 32 33
ENDBRANCH 31 32
ENDBRANCH 1 31
BRANCH 1 39
ATOM     39  N   LYS P   4      26.799 -32.142   8.936  1.00 21.49 LIG-0.35  N 
ATOM     40 H    LYS P   4      26.773 -31.463   9.463  1.00 21.49 LIG 0.16  HD
ATOM     41  C   THR P   3      27.374 -32.122   7.743  1.00 20.06 LIG 0.24  C 
ATOM     42 O    THR P   3      27.574 -33.132   7.077  1.00 20.20 LIG-0.27  OA
BRANCH 41 43
ATOM     43  CA  THR P   3      27.818 -30.751   7.239  1.00 21.79 LIG 0.20  C 
BRANCH 43 44
ATOM     44  CB  THR P   3      27.180 -30.477   5.854  1.00 23.67 LIG 0.15  C 
ATOM     45  CG2 THR P   3      27.392 -29.014   5.448  1.00 27.17 LIG 0.04  C 
BRANCH 44 46
ATOM     46 OG1  THR P   3      27.748 -31.350   4.868  1.00 23.16 LIG-0.39  OA
ATOM     47 HG1  THR P   3      27.200 -31.460   4.241  1.00 23.16 LIG 0.21  HD
ENDBRANCH 44 46
ENDBRANCH 43 44
BRANCH 43 48
ATOM     48  N   THR P   3      29.271 -30.657   7.201  1.00 19.24 LIG-0.34  N 
ATOM     49 H    THR P   3      29.650 -31.193   6.646  1.00 19.24 LIG 0.16  HD
ATOM     50  C   ARG P   2      29.925 -29.797   7.981  1.00 23.72 LIG 0.24  C 
ATOM     51 O    ARG P   2      29.364 -28.968   8.708  1.00 20.72 LIG-0.27  OA
BRANCH 50 52
ATOM     52  CA  ARG P   2      31.434 -29.857   7.943  1.00 19.94 LIG 0.18  C 
BRANCH 52 53
ATOM     53  CB  ARG P   2      31.961 -30.582   9.183  1.00 20.09 LIG 0.04  C 
BRANCH 53 54
ATOM     54  CG  ARG P   2      33.435 -30.308   9.476  1.00 23.61 LIG 0.02  C 
BRANCH 54 55
ATOM     55  CD  ARG P   2      33.845 -30.793  10.872  1.00 28.00 LIG 0.14  C 
BRANCH 55 56
ATOM     56  NE  ARG P   2      33.883 -29.693  11.836  1.00 23.66 LIG-0.23  N 
ATOM     57  CZ  ARG P   2      33.017 -29.541  12.838  1.00 25.68 LIG 0.67  C 
ATOM     58  NH1 ARG P   2      32.044 -30.429  13.027  1.00 22.73 LIG-0.23  N 
ATOM     59  NH2 ARG P   2      33.121 -28.497  13.652  1.00 20.68 LIG-0.23  N 
ATOM     60 2HH1 ARG P   2      31.488 -30.326  13.675  1.00 22.73 LIG 0.17  HD
ATOM     61 1HH1 ARG P   2      31.972 -31.107  12.502  1.00 22.73 LIG 0.17  HD
ATOM     62 2HH2 ARG P   2      32.562 -28.398  14.298  1.00 20.68 LIG 0.17  HD
ATOM     63 1HH2 ARG P   2      33.748 -27.921  13.534  1.00 20.68 LIG 0.17  HD
ATOM     64 HE   ARG P   2      34.506 -29.106  11.750  1.00 23.66 LIG 0.18  HD
ENDBRANCH 55 56
ENDBRANCH 54 55
ENDBRANCH 53 54
ENDBRANCH 52 53
BRANCH 52 65
ATOM     65  N   ARG P   2      31.945 -28.492   7.870  1.00 18.68 LIG-0.35  N 
ATOM     66  C   ALA P   1      31.640 -27.711   6.835  1.00 22.59 LIG 0.25  C 
ATOM     67 O    ALA P   1      31.055 -28.132   5.834  1.00 23.11 LIG-0.27  OA
ATOM     68 H    ARG P   2      32.439 -28.253   8.531  1.00 18.68 LIG 0.16  HD
BRANCH 66 69
ATOM     69  CA  ALA P   1      32.044 -26.247   6.933  1.00 20.73 LIG 0.27  C 
ATOM     70  CB  ALA P   1      30.802 -25.367   7.080  1.00 22.81 LIG 0.05  C 
BRANCH 69 71
ATOM     71  N   ALA P   1      32.819 -25.841   5.765  1.00 20.88 LIG-0.07  N 
ATOM     72 H1   ALA P   1      33.668 -25.715   6.002  1.00 20.88 LIG 0.28  HD
ATOM     73 H2   ALA P   1      32.776 -26.477   5.145  1.00 20.88 LIG 0.28  HD
ATOM     74 H3   ALA P   1      32.487 -25.084   5.437  1.00 20.88 LIG 0.28  HD
ENDBRANCH 69 71
ENDBRANCH 66 69
ENDBRANCH 52 65
ENDBRANCH 50 52
ENDBRANCH 43 48
ENDBRANCH 41 43
ENDBRANCH 1 39
TORSDOF 30
ENDMDL
MODEL 18
USER: ADFR SOLUTION from run 49
USER: SCORE 24.251084 LL:  -4.655 LR: -21.282 RR:   0.000 FEB: -12.333
USER: RMSD 3.463648
USER: SEED 48
USER: STATUS searching
USER: GENES 32
USER: genes 0 Translation |==|  0.54284 0.44044 0.50831
USER: genes 1 Rotation |==|  0.38075 0.33014 0.59089 0.94572
USER: genes 2 Torsion [N]-CA--C-[N] |==|  0.90868
USER: genes 3 Torsion [C]-N--CA-[C] |==|  0.20232
USER: genes 4 Torsion [N]-CA--C-[N] |==|  0.02784
USER: genes 5 Torsion [C]-N--CA-[CB] |==|  0.24841
USER: genes 6 Torsion [N]-CA--C-[N] |==|  0.31587
USER: genes 7 Torsion [C]-N--CA-[CB] |==|  0.81178
USER: genes 8 Torsion [N]-CA--C-[O] |==|  0.52399
USER: genes 9 Torsion [N]-CA--CB-[OG1] |==|  0.04462
USER: genes 10 Torsion [CA]-CB--OG1-[HG1] |==|  0.41907
USER: genes 11 Torsion [N]-CA--CB-[CG] |==|  0.72897
USER: genes 12 Torsion [CA]-CB--CG-[CD] |==|  0.29142
USER: genes 13 Torsion [CB]-CG--CD-[NE2] |==|  0.58491
USER: genes 14 Torsion [C]-CA--CB-[CG] |==|  0.13277
USER: genes 15 Torsion [CA]-CB--CG-[CD] |==|  0.33748
USER: genes 16 Torsion [CB]-CG--CD-[CE] |==|  0.18118
USER: genes 17 Torsion [CG]-CD--CE-[NZ] |==|  0.45862
USER: genes 18 Torsion [CD]-CE--NZ-[HZ3] |==|  0.12907
USER: genes 19 Torsion [C]-CA--N-[C] |==|  0.78185
USER: genes 20 Torsion [N]-C--CA-[N] |==|  0.35556
USER: genes 21 Torsion [C]-CA--CB-[CG2] |==|  0.26931
USER: genes 22 Torsion [CA]-CB--OG1-[HG1] |==|  0.29487
USER: genes 23 Torsion [C]-CA--N-[C] |==|  0.83716
USER: genes 24 Torsion [N]-C--CA-[N] |==|  0.14839
USER: genes 25 Torsion [C]-CA--CB-[CG] |==|  0.27423
USER: genes 26 Torsion [CA]-CB--CG-[CD] |==|  0.20610
USER: genes 27 Torsion [CB]-CG--CD-[NE] |==|  0.14763
USER: genes 28 Torsion [CG]-CD--NE-[HE] |==|  0.08541
USER: genes 29 Torsion [C]-CA--N-[C] |==|  0.14742
USER: genes 30 Torsion [N]-C--CA-[N] |==|  0.06169
USER: genes 31 Torsion [C]-CA--N-[H2] |==|  0.36578
ROOT
ATOM      1  CA  LYS P   4      26.825 -32.808   9.640  1.00 25.22 LIG 0.18  C 
ENDROOT
BRANCH 1 2
ATOM      2  C   LYS P   4      25.923 -33.564   8.672  1.00 27.71 LIG 0.24  C 
ATOM      3  N   GLN P   5      25.155 -32.827   7.874  1.00 26.60 LIG-0.35  N 
ATOM      4 H    GLN P   5      25.096 -31.970   7.922  1.00 26.60 LIG 0.16  HD
ATOM      5 O    LYS P   4      25.927 -34.793   8.643  1.00 22.94 LIG-0.27  OA
BRANCH 3 6
ATOM      6  CA  GLN P   5      24.335 -33.432   6.830  1.00 30.64 LIG 0.18  C 
BRANCH 6 7
ATOM      7  C   GLN P   5      23.154 -34.146   7.474  1.00 34.53 LIG 0.24  C 
ATOM      8 O    GLN P   5      22.435 -34.884   6.799  1.00 31.76 LIG-0.27  OA
ATOM      9  N   THR P   6      22.946 -33.940   8.772  1.00 31.32 LIG-0.34  N 
ATOM     10 H    THR P   6      23.386 -33.385   9.258  1.00 31.32 LIG 0.16  HD
BRANCH 9 11
ATOM     11  CA  THR P   6      21.900 -34.690   9.467  1.00 35.73 LIG 0.20  C 
BRANCH 11 12
ATOM     12  C   THR P   6      21.270 -33.919  10.612  1.00 36.89 LIG 0.24  C 
ATOM     13 O    THR P   6      21.917 -33.647  11.622  1.00 31.31 LIG-0.27  OA
ATOM     14  N   ALA P   7      19.990 -33.596  10.443  1.00 39.63 LIG-0.35  N 
ATOM     15 H    ALA P   7      19.540 -33.795   9.738  1.00 39.63 LIG 0.16  HD
BRANCH 14 16
ATOM     16  CA  ALA P   7      19.225 -32.869  11.449  1.00 40.80 LIG 0.16  C 
ATOM     17  CB  ALA P   7      19.027 -33.737  12.679  1.00 41.57 LIG 0.04  C 
BRANCH 16 18
ATOM     18  C   ALA P   7      19.905 -31.557  11.827  1.00 41.43 LIG 0.22  C 
ATOM     19 O    ALA P   7      19.491 -30.883  12.774  1.00 42.77 LIG-0.29  OA
ENDBRANCH 16 18
ENDBRANCH 14 16
ENDBRANCH 11 12
BRANCH 11 20
ATOM     20  CB  THR P   6      22.419 -36.002  10.038  1.00 30.67 LIG 0.15  C 
ATOM     21  CG2 THR P   6      21.940 -37.153   9.193  1.00 25.27 LIG 0.04  C 
BRANCH 20 22
ATOM     22 OG1  THR P   6      23.852 -35.976  10.068  1.00 31.72 LIG-0.39  OA
ATOM     23 HG1  THR P   6      24.128 -36.457  10.699  1.00 31.72 LIG 0.21  HD
ENDBRANCH 20 22
ENDBRANCH 11 20
ENDBRANCH 9 11
ENDBRANCH 6 7
BRANCH 6 24
ATOM     24  CB  GLN P   5      25.156 -34.412   5.980  1.00 38.94 LIG 0.04  C 
BRANCH 24 25
ATOM     25  CG  GLN P   5      25.684 -33.829   4.667  1.00 42.79 LIG 0.10  C 
BRANCH 25 26
ATOM     26  CD  GLN P   5      27.174 -33.516   4.699  1.00 45.14 LIG 0.21  C 
ATOM     27  NE2 GLN P   5      27.582 -32.500   3.940  1.00 40.57 LIG-0.37  N 
ATOM     28 21HE GLN P   5      27.013 -32.061   3.466  1.00 40.57 LIG 0.16  HD
ATOM     29 22HE GLN P   5      28.414 -32.282   3.924  1.00 40.57 LIG 0.16  HD
ATOM     30 OE1  GLN P   5      27.947 -34.176   5.395  1.00 46.24 LIG-0.27  OA
ENDBRANCH 25 26
ENDBRANCH 24 25
ENDBRANCH 6 24
ENDBRANCH 3 6
ENDBRANCH 1 2
BRANCH 1 31
ATOM     31  CB  LYS P   4      26.089 -32.557  10.952  1.00 18.02 LIG 0.04  C 
BRANCH 31 32
ATOM     32  CG  LYS P   4      25.398 -33.781  11.507  1.00 21.69 LIG 0.00  C 
BRANCH 32 33
ATOM     33  CD  LYS P   4      25.913 -34.112  12.908  1.00 22.86 LIG 0.03  C 
BRANCH 33 34
ATOM     34  CE  LYS P   4      25.541 -33.003  13.889  1.00 21.56 LIG 0.23  C 
BRANCH 34 35
ATOM     35  NZ  LYS P   4      25.700 -33.433  15.313  1.00 19.01 LIG-0.08  N 
ATOM     36 HZ2  LYS P   4      25.044 -33.993  15.529  1.00 19.01 LIG 0.27  HD
ATOM     37 HZ1  LYS P   4      25.668 -32.720  15.845  1.00 19.01 LIG 0.27  HD
ATOM     38 HZ3  LYS P   4      26.484 -33.842  15.413  1.00 19.01 LIG 0.27  HD
ENDBRANCH 34 35
ENDBRANCH 33 34
ENDBRANCH 32 33
ENDBRANCH 31 32
ENDBRANCH 1 31
BRANCH 1 39
ATOM     39  N   LYS P   4      27.257 -31.554   9.038  1.00 21.49 LIG-0.35  N 
ATOM     40 H    LYS P   4      26.827 -30.864   9.319  1.00 21.49 LIG 0.16  HD
ATOM     41  C   THR P   3      28.228 -31.499   8.139  1.00 20.06 LIG 0.24  C 
ATOM     42 O    THR P   3      28.960 -32.448   7.882  1.00 20.20 LIG-0.27  OA
BRANCH 41 43
ATOM     43  CA  THR P   3      28.418 -30.153   7.446  1.00 21.79 LIG 0.20  C 
BRANCH 43 44
ATOM     44  CB  THR P   3      27.924 -30.249   5.981  1.00 23.67 LIG 0.15  C 
ATOM     45  CG2 THR P   3      26.490 -29.718   5.864  1.00 27.17 LIG 0.04  C 
BRANCH 44 46
ATOM     46 OG1  THR P   3      28.797 -29.511   5.116  1.00 23.16 LIG-0.39  OA
ATOM     47 HG1  THR P   3      29.268 -30.044   4.671  1.00 23.16 LIG 0.21  HD
ENDBRANCH 44 46
ENDBRANCH 43 44
BRANCH 43 48
ATOM     48  N   THR P   3      29.806 -29.718   7.527  1.00 19.24 LIG-0.34  N 
ATOM     49 H    THR P   3      30.186 -29.588   6.767  1.00 19.24 LIG 0.16  HD
ATOM     50  C   ARG P   2      30.406 -29.547   8.705  1.00 23.72 LIG 0.24  C 
ATOM     51 O    ARG P   2      29.823 -29.648   9.792  1.00 20.72 LIG-0.27  OA
BRANCH 50 52
ATOM     52  CA  ARG P   2      31.876 -29.201   8.676  1.00 19.94 LIG 0.18  C 
BRANCH 52 53
ATOM     53  CB  ARG P   2      32.378 -28.926  10.095  1.00 20.09 LIG 0.04  C 
BRANCH 53 54
ATOM     54  CG  ARG P   2      33.092 -30.115  10.736  1.00 23.61 LIG 0.02  C 
BRANCH 54 55
ATOM     55  CD  ARG P   2      34.493 -30.331  10.149  1.00 28.00 LIG 0.14  C 
BRANCH 55 56
ATOM     56  NE  ARG P   2      35.295 -29.110  10.205  1.00 23.66 LIG-0.23  N 
ATOM     57  CZ  ARG P   2      36.241 -28.791   9.321  1.00 25.68 LIG 0.67  C 
ATOM     58  NH1 ARG P   2      36.500 -29.595   8.292  1.00 22.73 LIG-0.23  N 
ATOM     59  NH2 ARG P   2      36.931 -27.666   9.465  1.00 20.68 LIG-0.23  N 
ATOM     60 2HH1 ARG P   2      37.111 -29.385   7.725  1.00 22.73 LIG 0.17  HD
ATOM     61 1HH1 ARG P   2      36.055 -30.325   8.195  1.00 22.73 LIG 0.17  HD
ATOM     62 2HH2 ARG P   2      37.542 -27.460   8.895  1.00 20.68 LIG 0.17  HD
ATOM     63 1HH2 ARG P   2      36.768 -27.143  10.127  1.00 20.68 LIG 0.17  HD
ATOM     64 HE   ARG P   2      35.146 -28.561  10.850  1.00 23.66 LIG 0.18  HD
ENDBRANCH 55 56
ENDBRANCH 54 55
ENDBRANCH 53 54
ENDBRANCH 52 53
BRANCH 52 65
ATOM     65  N   ARG P   2      32.055 -28.037   7.814  1.00 18.68 LIG-0.35  N 
ATOM     66  C   ALA P   1      31.345 -26.930   8.017  1.00 22.59 LIG 0.25  C 
ATOM     67 O    ALA P   1      30.411 -26.877   8.822  1.00 23.11 LIG-0.27  OA
ATOM     68 H    ARG P   2      32.640 -28.134   7.191  1.00 18.68 LIG 0.16  HD
BRANCH 66 69
ATOM     69  CA  ALA P   1      31.733 -25.702   7.207  1.00 20.73 LIG 0.27  C 
ATOM     70  CB  ALA P   1      30.487 -24.892   6.846  1.00 22.81 LIG 0.05  C 
BRANCH 69 71
ATOM     71  N   ALA P   1      32.459 -26.082   5.999  1.00 20.88 LIG-0.07  N 
ATOM     72 H1   ALA P   1      32.392 -26.961   5.877  1.00 20.88 LIG 0.28  HD
ATOM     73 H2   ALA P   1      32.112 -25.658   5.299  1.00 20.88 LIG 0.28  HD
ATOM     74 H3   ALA P   1      33.317 -25.860   6.085  1.00 20.88 LIG 0.28  HD
ENDBRANCH 69 71
ENDBRANCH 66 69
ENDBRANCH 52 65
ENDBRANCH 50 52
ENDBRANCH 43 48
ENDBRANCH 41 43
ENDBRANCH 1 39
TORSDOF 30
ENDMDL
