MODEL 1
USER: ADFR SOLUTION from run 124
USER: SCORE 11.851059 LL:  -1.966 LR: -13.077 RR:   0.000 FEB:  -7.409
USER: RMSD 4.911517
USER: SEED 123
USER: STATUS no improvement in best in 30 clusters for 5 generations
USER: GENES 21
USER: genes 0 Translation |==|  0.50187 0.58197 0.58735
USER: genes 1 Rotation |==|  0.81387 0.25269 0.20227 0.54104
USER: genes 2 Torsion [C]-CA--CB-[CG] |==|  0.48255
USER: genes 3 Torsion [CA]-CB--CG-[OD1] |==|  0.35579
USER: genes 4 Torsion [N]-CA--C-[N] |==|  0.53780
USER: genes 5 Torsion [C]-N--CA-[CB] |==|  0.50272
USER: genes 6 Torsion [N]-CA--C-[N] |==|  0.78079
USER: genes 7 Torsion [C]-N--CA-[CB] |==|  0.22886
USER: genes 8 Torsion [N]-CA--CB-[CG] |==|  0.60642
USER: genes 9 Torsion [CA]-CB--CG-[SD] |==|  0.13130
USER: genes 10 Torsion [CB]-CG--SD-[CE] |==|  0.62472
USER: genes 11 Torsion [N]-CA--C-[O] |==|  0.78500
USER: genes 12 Torsion [N]-CA--CB-[CG] |==|  0.12302
USER: genes 13 Torsion [CA]-CB--CG-[OD1] |==|  0.30743
USER: genes 14 Torsion [CB]-CA--N-[C] |==|  0.42321
USER: genes 15 Torsion [N]-C--CA-[N] |==|  0.31045
USER: genes 16 Torsion [C]-CA--N-[C] |==|  0.64314
USER: genes 17 Torsion [N]-C--CA-[N] |==|  0.38149
USER: genes 18 Torsion [C]-CA--CB-[CG2] |==|  0.05929
USER: genes 19 Torsion [C]-CA--CB-[CG] |==|  0.22709
USER: genes 20 Torsion [CA]-CB--CG-[OD2] |==|  0.79999
ROOT
ATOM      1  CA  ASP E 180       2.583 -26.183  28.300  1.00 46.29 LIG 0.19  C 
ENDROOT
BRANCH 1 2
ATOM      2  CB  ASP E 180       3.630 -25.133  28.654  1.00 53.57 LIG 0.15  C 
BRANCH 2 3
ATOM      3  CG  ASP E 180       5.032 -25.696  28.675  1.00 52.91 LIG 0.17  C 
ATOM      4 OD1  ASP E 180       5.917 -25.113  28.011  1.00 53.16 LIG-0.65  OA
ATOM      5 OD2  ASP E 180       5.252 -26.716  29.361  1.00 39.91 LIG-0.65  OA
ENDBRANCH 2 3
ENDBRANCH 1 2
BRANCH 1 6
ATOM      6  C   ASP E 180       1.176 -25.588  28.449  1.00 46.16 LIG 0.24  C 
ATOM      7 O    ASP E 180       0.312 -25.803  27.597  1.00 47.92 LIG-0.27  OA
ATOM      8  N   ASP E 181       0.938 -24.842  29.523  1.00 48.75 LIG-0.34  N 
ATOM      9 H    ASP E 181       1.528 -24.631  30.112  1.00 48.75 LIG 0.16  HD
BRANCH 8 10
ATOM     10  CA  ASP E 181      -0.401 -24.318  29.771  1.00 45.01 LIG 0.19  C 
BRANCH 10 11
ATOM     11  C   ASP E 181      -0.945 -23.498  28.604  1.00 47.33 LIG 0.24  C 
ATOM     12 O    ASP E 181      -1.745 -23.981  27.794  1.00 41.27 LIG-0.27  OA
ATOM     13  N   MET E 182      -0.478 -22.254  28.526  1.00 63.00 LIG-0.35  N 
ATOM     14 H    MET E 182       0.125 -21.942  29.052  1.00 63.00 LIG 0.16  HD
BRANCH 13 15
ATOM     15  CA  MET E 182      -0.950 -21.298  27.535  1.00 43.88 LIG 0.16  C 
BRANCH 15 16
ATOM     16  CB  MET E 182      -2.249 -20.649  28.012  1.00 44.38 LIG 0.04  C 
BRANCH 16 17
ATOM     17  CG  MET E 182      -3.259 -20.418  26.905  1.00 63.17 LIG 0.08  C 
BRANCH 17 18
ATOM     18 SD   MET E 182      -3.479 -21.867  25.857  1.00101.17 LIG-0.17  SA
ATOM     19  CE  MET E 182      -3.447 -21.112  24.233  1.00 68.91 LIG 0.09  C 
ENDBRANCH 17 18
ENDBRANCH 16 17
ENDBRANCH 15 16
BRANCH 15 20
ATOM     20  C   MET E 182       0.102 -20.225  27.249  1.00 60.82 LIG 0.22  C 
ATOM     21 O    MET E 182       0.292 -19.289  28.033  1.00 58.83 LIG-0.29  OA
ENDBRANCH 15 20
ENDBRANCH 13 15
ENDBRANCH 10 11
BRANCH 10 22
ATOM     22  CB  ASP E 181      -0.404 -23.479  31.048  1.00 40.72 LIG 0.15  C 
BRANCH 22 23
ATOM     23  CG  ASP E 181       0.789 -22.549  31.127  1.00 40.82 LIG 0.17  C 
ATOM     24 OD1  ASP E 181       0.606 -21.315  31.019  1.00 47.44 LIG-0.65  OA
ATOM     25 OD2  ASP E 181       1.911 -23.061  31.309  1.00 24.37 LIG-0.65  OA
ENDBRANCH 22 23
ENDBRANCH 10 22
ENDBRANCH 8 10
ENDBRANCH 1 6
BRANCH 1 26
ATOM     26  N   ASP E 180       2.759 -26.687  26.934  1.00 48.48 LIG-0.34  N 
ATOM     27  C   ASP E 179       2.400 -27.897  26.500  1.00 52.76 LIG 0.24  C 
ATOM     28 O    ASP E 179       1.889 -28.770  27.204  1.00 54.54 LIG-0.27  OA
ATOM     29 H    ASP E 180       3.129 -26.110  26.416  1.00 48.48 LIG 0.16  HD
BRANCH 27 30
ATOM     30  CA  ASP E 179       2.669 -28.148  25.018  1.00 62.98 LIG 0.19  C 
BRANCH 30 31
ATOM     31  N   ASP E 179       3.713 -29.134  24.726  1.00 68.60 LIG-0.34  N 
ATOM     32  C   VAL E 178       4.731 -28.889  23.902  1.00 59.78 LIG 0.26  C 
ATOM     33 O    VAL E 178       4.771 -27.911  23.152  1.00 49.42 LIG-0.27  OA
ATOM     34 H    ASP E 179       3.607 -29.883  25.135  1.00 68.60 LIG 0.16  HD
BRANCH 32 35
ATOM     35  CA  VAL E 178       5.862 -29.921  23.907  1.00 59.92 LIG 0.40  C 
ATOM     36  N   VAL E 178       6.327 -30.226  22.558  1.00 55.12 LIG 0.61  N 
BRANCH 35 37
ATOM     37  CB  VAL E 178       7.019 -29.398  24.798  1.00 50.97 LIG 0.03  C 
ATOM     38  CG2 VAL E 178       6.524 -28.348  25.781  1.00 47.22 LIG 0.01  C 
ATOM     39  CG1 VAL E 178       8.128 -28.835  23.935  1.00 50.59 LIG 0.01  C 
ENDBRANCH 35 37
ENDBRANCH 32 35
ENDBRANCH 30 31
BRANCH 30 40
ATOM     40  CB  ASP E 179       1.361 -28.578  24.355  1.00 47.75 LIG 0.15  C 
BRANCH 40 41
ATOM     41  CG  ASP E 179       0.479 -27.405  24.006  1.00 48.80 LIG 0.17  C 
ATOM     42 OD2  ASP E 179      -0.095 -26.786  24.933  1.00 55.56 LIG-0.65  OA
ATOM     43 OD1  ASP E 179       0.366 -27.104  22.801  1.00 40.87 LIG-0.65  OA
ENDBRANCH 40 41
ENDBRANCH 30 40
ENDBRANCH 27 30
ENDBRANCH 1 26
TORSDOF 19
ENDMDL
MODEL 2
USER: ADFR SOLUTION from run 139
USER: SCORE 12.877464 LL:  -1.894 LR: -12.923 RR:   0.000 FEB:  -7.255
USER: RMSD 4.392128
USER: SEED 138
USER: STATUS no improvement in best in 12 clusters for 5 generations
USER: GENES 21
USER: genes 0 Translation |==|  0.47726 0.47754 0.41055
USER: genes 1 Rotation |==|  0.53376 0.46639 0.45690 0.99586
USER: genes 2 Torsion [C]-CA--CB-[CG] |==|  0.17503
USER: genes 3 Torsion [CA]-CB--CG-[OD1] |==|  0.27354
USER: genes 4 Torsion [N]-CA--C-[N] |==|  0.40732
USER: genes 5 Torsion [C]-N--CA-[CB] |==|  0.81568
USER: genes 6 Torsion [N]-CA--C-[N] |==|  0.30428
USER: genes 7 Torsion [C]-N--CA-[CB] |==|  0.82142
USER: genes 8 Torsion [N]-CA--CB-[CG] |==|  0.60411
USER: genes 9 Torsion [CA]-CB--CG-[SD] |==|  0.04751
USER: genes 10 Torsion [CB]-CG--SD-[CE] |==|  0.32218
USER: genes 11 Torsion [N]-CA--C-[O] |==|  0.15270
USER: genes 12 Torsion [N]-CA--CB-[CG] |==|  0.73248
USER: genes 13 Torsion [CA]-CB--CG-[OD1] |==|  0.95891
USER: genes 14 Torsion [CB]-CA--N-[C] |==|  0.30000
USER: genes 15 Torsion [N]-C--CA-[N] |==|  0.45334
USER: genes 16 Torsion [C]-CA--N-[C] |==|  0.83822
USER: genes 17 Torsion [N]-C--CA-[N] |==|  0.48513
USER: genes 18 Torsion [C]-CA--CB-[CG2] |==|  0.23465
USER: genes 19 Torsion [C]-CA--CB-[CG] |==|  0.85526
USER: genes 20 Torsion [CA]-CB--CG-[OD2] |==|  0.80245
ROOT
ATOM      1  CA  ASP E 180       2.047 -27.907  24.720  1.00 46.29 LIG 0.19  C 
ENDROOT
BRANCH 1 2
ATOM      2  CB  ASP E 180       0.810 -28.440  24.006  1.00 53.57 LIG 0.15  C 
BRANCH 2 3
ATOM      3  CG  ASP E 180      -0.275 -27.398  23.869  1.00 52.91 LIG 0.17  C 
ATOM      4 OD1  ASP E 180      -0.378 -26.786  22.782  1.00 53.16 LIG-0.65  OA
ATOM      5 OD2  ASP E 180      -1.029 -27.195  24.843  1.00 39.91 LIG-0.65  OA
ENDBRANCH 2 3
ENDBRANCH 1 2
BRANCH 1 6
ATOM      6  C   ASP E 180       1.688 -27.505  26.157  1.00 46.16 LIG 0.24  C 
ATOM      7 O    ASP E 180       1.769 -28.324  27.075  1.00 47.92 LIG-0.27  OA
ATOM      8  N   ASP E 181       1.293 -26.252  26.361  1.00 48.75 LIG-0.34  N 
ATOM      9 H    ASP E 181       1.179 -25.668  25.740  1.00 48.75 LIG 0.16  HD
BRANCH 8 10
ATOM     10  CA  ASP E 181       1.020 -25.780  27.715  1.00 45.01 LIG 0.19  C 
BRANCH 10 11
ATOM     11  C   ASP E 181       2.213 -25.941  28.653  1.00 47.33 LIG 0.24  C 
ATOM     12 O    ASP E 181       2.575 -27.055  29.052  1.00 41.27 LIG-0.27  OA
ATOM     13  N   MET E 182       2.803 -24.804  29.012  1.00 63.00 LIG-0.35  N 
ATOM     14 H    MET E 182       2.511 -24.028  28.786  1.00 63.00 LIG 0.16  HD
BRANCH 13 15
ATOM     15  CA  MET E 182       4.007 -24.765  29.828  1.00 43.88 LIG 0.16  C 
BRANCH 15 16
ATOM     16  CB  MET E 182       3.716 -25.335  31.216  1.00 44.38 LIG 0.04  C 
BRANCH 16 17
ATOM     17  CG  MET E 182       4.436 -24.612  32.337  1.00 63.17 LIG 0.08  C 
BRANCH 17 18
ATOM     18 SD   MET E 182       5.048 -22.994  31.835  1.00101.17 LIG-0.17  SA
ATOM     19  CE  MET E 182       4.083 -21.926  32.902  1.00 68.91 LIG 0.09  C 
ENDBRANCH 17 18
ENDBRANCH 16 17
ENDBRANCH 15 16
BRANCH 15 20
ATOM     20  C   MET E 182       5.154 -25.536  29.171  1.00 60.82 LIG 0.22  C 
ATOM     21 O    MET E 182       5.525 -25.275  28.022  1.00 58.83 LIG-0.29  OA
ENDBRANCH 15 20
ENDBRANCH 13 15
ENDBRANCH 10 11
BRANCH 10 22
ATOM     22  CB  ASP E 181      -0.197 -26.506  28.285  1.00 40.72 LIG 0.15  C 
BRANCH 22 23
ATOM     23  CG  ASP E 181      -1.473 -25.708  28.116  1.00 40.82 LIG 0.17  C 
ATOM     24 OD1  ASP E 181      -1.395 -24.494  27.821  1.00 47.44 LIG-0.65  OA
ATOM     25 OD2  ASP E 181      -2.555 -26.307  28.270  1.00 24.37 LIG-0.65  OA
ENDBRANCH 22 23
ENDBRANCH 10 22
ENDBRANCH 8 10
ENDBRANCH 1 6
BRANCH 1 26
ATOM     26  N   ASP E 180       3.129 -28.896  24.744  1.00 48.48 LIG-0.34  N 
ATOM     27  C   ASP E 179       4.254 -28.834  24.028  1.00 52.76 LIG 0.24  C 
ATOM     28 O    ASP E 179       4.524 -27.941  23.224  1.00 54.54 LIG-0.27  OA
ATOM     29 H    ASP E 180       2.968 -29.546  25.283  1.00 48.48 LIG 0.16  HD
BRANCH 27 30
ATOM     30  CA  ASP E 179       5.229 -29.984  24.273  1.00 62.98 LIG 0.19  C 
BRANCH 30 31
ATOM     31  N   ASP E 179       6.267 -30.157  23.253  1.00 68.60 LIG-0.34  N 
ATOM     32  C   VAL E 178       5.990 -30.372  21.968  1.00 59.78 LIG 0.26  C 
ATOM     33 O    VAL E 178       4.864 -30.660  21.559  1.00 49.42 LIG-0.27  OA
ATOM     34 H    ASP E 179       7.068 -30.107  23.562  1.00 68.60 LIG 0.16  HD
BRANCH 32 35
ATOM     35  CA  VAL E 178       7.175 -30.274  21.001  1.00 59.92 LIG 0.40  C 
ATOM     36  N   VAL E 178       6.799 -30.646  19.641  1.00 55.12 LIG 0.61  N 
BRANCH 35 37
ATOM     37  CB  VAL E 178       7.751 -28.835  21.054  1.00 50.97 LIG 0.03  C 
ATOM     38  CG2 VAL E 178       8.739 -28.680  22.201  1.00 47.22 LIG 0.01  C 
ATOM     39  CG1 VAL E 178       6.627 -27.828  21.182  1.00 50.59 LIG 0.01  C 
ENDBRANCH 35 37
ENDBRANCH 32 35
ENDBRANCH 30 31
BRANCH 30 40
ATOM     40  CB  ASP E 179       5.884 -29.779  25.639  1.00 47.75 LIG 0.15  C 
BRANCH 40 41
ATOM     41  CG  ASP E 179       6.482 -28.403  25.789  1.00 48.80 LIG 0.17  C 
ATOM     42 OD2  ASP E 179       7.518 -28.122  25.139  1.00 55.56 LIG-0.65  OA
ATOM     43 OD1  ASP E 179       5.911 -27.603  26.558  1.00 40.87 LIG-0.65  OA
ENDBRANCH 40 41
ENDBRANCH 30 40
ENDBRANCH 27 30
ENDBRANCH 1 26
TORSDOF 19
ENDMDL
MODEL 3
USER: ADFR SOLUTION from run 58
USER: SCORE 12.309940 LL:  -2.199 LR: -12.908 RR:   0.000 FEB:  -7.240
USER: RMSD 2.840021
USER: SEED 57
USER: STATUS searching
USER: GENES 21
USER: genes 0 Translation |==|  0.50450 0.46677 0.41891
USER: genes 1 Rotation |==|  0.56779 0.50006 0.44049 0.99180
USER: genes 2 Torsion [C]-CA--CB-[CG] |==|  0.23628
USER: genes 3 Torsion [CA]-CB--CG-[OD1] |==|  0.35223
USER: genes 4 Torsion [N]-CA--C-[N] |==|  0.29897
USER: genes 5 Torsion [C]-N--CA-[CB] |==|  0.47965
USER: genes 6 Torsion [N]-CA--C-[N] |==|  0.86310
USER: genes 7 Torsion [C]-N--CA-[CB] |==|  0.40531
USER: genes 8 Torsion [N]-CA--CB-[CG] |==|  0.91015
USER: genes 9 Torsion [CA]-CB--CG-[SD] |==|  0.75149
USER: genes 10 Torsion [CB]-CG--SD-[CE] |==|  0.26491
USER: genes 11 Torsion [N]-CA--C-[O] |==|  0.91882
USER: genes 12 Torsion [N]-CA--CB-[CG] |==|  0.77320
USER: genes 13 Torsion [CA]-CB--CG-[OD1] |==|  0.82876
USER: genes 14 Torsion [CB]-CA--N-[C] |==|  0.30556
USER: genes 15 Torsion [N]-C--CA-[N] |==|  0.42289
USER: genes 16 Torsion [C]-CA--N-[C] |==|  0.83209
USER: genes 17 Torsion [N]-C--CA-[N] |==|  0.51308
USER: genes 18 Torsion [C]-CA--CB-[CG2] |==|  0.23323
USER: genes 19 Torsion [C]-CA--CB-[CG] |==|  0.86535
USER: genes 20 Torsion [CA]-CB--CG-[OD2] |==|  0.76059
ROOT
ATOM      1  CA  ASP E 180       2.640 -28.084  24.889  1.00 46.29 LIG 0.19  C 
ENDROOT
BRANCH 1 2
ATOM      2  CB  ASP E 180       1.296 -28.453  24.269  1.00 53.57 LIG 0.15  C 
BRANCH 2 3
ATOM      3  CG  ASP E 180       0.455 -27.241  23.944  1.00 52.91 LIG 0.17  C 
ATOM      4 OD1  ASP E 180       0.008 -27.121  22.782  1.00 53.16 LIG-0.65  OA
ATOM      5 OD2  ASP E 180       0.234 -26.412  24.851  1.00 39.91 LIG-0.65  OA
ENDBRANCH 2 3
ENDBRANCH 1 2
BRANCH 1 6
ATOM      6  C   ASP E 180       2.481 -27.896  26.404  1.00 46.16 LIG 0.24  C 
ATOM      7 O    ASP E 180       1.926 -28.759  27.088  1.00 47.92 LIG-0.27  OA
ATOM      8  N   ASP E 181       2.962 -26.776  26.934  1.00 48.75 LIG-0.34  N 
ATOM      9 H    ASP E 181       3.310 -26.132  26.484  1.00 48.75 LIG 0.16  HD
BRANCH 8 10
ATOM     10  CA  ASP E 181       2.922 -26.572  28.379  1.00 45.01 LIG 0.19  C 
BRANCH 10 11
ATOM     11  C   ASP E 181       1.501 -26.500  28.931  1.00 47.33 LIG 0.24  C 
ATOM     12 O    ASP E 181       1.151 -27.184  29.901  1.00 41.27 LIG-0.27  OA
ATOM     13  N   MET E 182       0.687 -25.673  28.282  1.00 63.00 LIG-0.35  N 
ATOM     14 H    MET E 182       0.914 -25.248  27.570  1.00 63.00 LIG 0.16  HD
BRANCH 13 15
ATOM     15  CA  MET E 182      -0.676 -25.407  28.717  1.00 43.88 LIG 0.16  C 
BRANCH 15 16
ATOM     16  CB  MET E 182      -1.051 -23.959  28.405  1.00 44.38 LIG 0.04  C 
BRANCH 16 17
ATOM     17  CG  MET E 182       0.115 -22.994  28.484  1.00 63.17 LIG 0.08  C 
BRANCH 17 18
ATOM     18 SD   MET E 182       0.328 -22.303  30.134  1.00101.17 LIG-0.17  SA
ATOM     19  CE  MET E 182       1.566 -23.413  30.803  1.00 68.91 LIG 0.09  C 
ENDBRANCH 17 18
ENDBRANCH 16 17
ENDBRANCH 15 16
BRANCH 15 20
ATOM     20  C   MET E 182      -1.671 -26.364  28.058  1.00 60.82 LIG 0.22  C 
ATOM     21 O    MET E 182      -1.455 -26.841  26.939  1.00 58.83 LIG-0.29  OA
ENDBRANCH 15 20
ENDBRANCH 13 15
ENDBRANCH 10 11
BRANCH 10 22
ATOM     22  CB  ASP E 181       3.692 -25.305  28.748  1.00 40.72 LIG 0.15  C 
BRANCH 22 23
ATOM     23  CG  ASP E 181       5.186 -25.543  28.828  1.00 40.82 LIG 0.17  C 
ATOM     24 OD1  ASP E 181       5.627 -26.359  29.669  1.00 47.44 LIG-0.65  OA
ATOM     25 OD2  ASP E 181       5.916 -24.917  28.034  1.00 24.37 LIG-0.65  OA
ENDBRANCH 22 23
ENDBRANCH 10 22
ENDBRANCH 8 10
ENDBRANCH 1 6
BRANCH 1 26
ATOM     26  N   ASP E 180       3.658 -29.106  24.627  1.00 48.48 LIG-0.34  N 
ATOM     27  C   ASP E 179       4.711 -28.965  23.818  1.00 52.76 LIG 0.24  C 
ATOM     28 O    ASP E 179       4.955 -27.954  23.159  1.00 54.54 LIG-0.27  OA
ATOM     29 H    ASP E 180       3.511 -29.835  25.059  1.00 48.48 LIG 0.16  HD
BRANCH 27 30
ATOM     30  CA  ASP E 179       5.634 -30.180  23.757  1.00 62.98 LIG 0.19  C 
BRANCH 30 31
ATOM     31  N   ASP E 179       6.376 -30.344  22.503  1.00 68.60 LIG-0.34  N 
ATOM     32  C   VAL E 178       5.777 -30.502  21.323  1.00 59.78 LIG 0.26  C 
ATOM     33 O    VAL E 178       4.574 -30.743  21.204  1.00 49.42 LIG-0.27  OA
ATOM     34 H    ASP E 179       7.229 -30.327  22.601  1.00 68.60 LIG 0.16  HD
BRANCH 32 35
ATOM     35  CA  VAL E 178       6.683 -30.400  20.092  1.00 59.92 LIG 0.40  C 
ATOM     36  N   VAL E 178       5.922 -30.477  18.849  1.00 55.12 LIG 0.61  N 
BRANCH 35 37
ATOM     37  CB  VAL E 178       7.499 -29.085  20.174  1.00 50.97 LIG 0.03  C 
ATOM     38  CG2 VAL E 178       8.746 -29.263  21.029  1.00 47.22 LIG 0.01  C 
ATOM     39  CG1 VAL E 178       6.636 -27.969  20.723  1.00 50.59 LIG 0.01  C 
ENDBRANCH 35 37
ENDBRANCH 32 35
ENDBRANCH 30 31
BRANCH 30 40
ATOM     40  CB  ASP E 179       6.616 -30.100  24.925  1.00 47.75 LIG 0.15  C 
BRANCH 40 41
ATOM     41  CG  ASP E 179       7.262 -28.742  25.041  1.00 48.80 LIG 0.17  C 
ATOM     42 OD2  ASP E 179       8.295 -28.506  24.368  1.00 55.56 LIG-0.65  OA
ATOM     43 OD1  ASP E 179       6.732 -27.911  25.805  1.00 40.87 LIG-0.65  OA
ENDBRANCH 40 41
ENDBRANCH 30 40
ENDBRANCH 27 30
ENDBRANCH 1 26
TORSDOF 19
ENDMDL
MODEL 4
USER: ADFR SOLUTION from run 38
USER: SCORE 12.333800 LL:  -1.962 LR: -12.813 RR:   0.000 FEB:  -7.145
USER: RMSD 8.840741
USER: SEED 37
USER: STATUS no improvement in best in 10 clusters for 5 generations
USER: GENES 21
USER: genes 0 Translation |==|  0.53456 0.54735 0.53522
USER: genes 1 Rotation |==|  0.40309 0.14173 0.79967 0.64982
USER: genes 2 Torsion [C]-CA--CB-[CG] |==|  0.51517
USER: genes 3 Torsion [CA]-CB--CG-[OD1] |==|  0.34294
USER: genes 4 Torsion [N]-CA--C-[N] |==|  0.24540
USER: genes 5 Torsion [C]-N--CA-[CB] |==|  0.17456
USER: genes 6 Torsion [N]-CA--C-[N] |==|  0.51125
USER: genes 7 Torsion [C]-N--CA-[CB] |==|  0.48391
USER: genes 8 Torsion [N]-CA--CB-[CG] |==|  0.53037
USER: genes 9 Torsion [CA]-CB--CG-[SD] |==|  0.74260
USER: genes 10 Torsion [CB]-CG--SD-[CE] |==|  0.48923
USER: genes 11 Torsion [N]-CA--C-[O] |==|  0.20625
USER: genes 12 Torsion [N]-CA--CB-[CG] |==|  0.16052
USER: genes 13 Torsion [CA]-CB--CG-[OD1] |==|  0.67716
USER: genes 14 Torsion [CB]-CA--N-[C] |==|  0.48334
USER: genes 15 Torsion [N]-C--CA-[N] |==|  0.05420
USER: genes 16 Torsion [C]-CA--N-[C] |==|  0.15084
USER: genes 17 Torsion [N]-C--CA-[N] |==|  0.30794
USER: genes 18 Torsion [C]-CA--CB-[CG2] |==|  0.63959
USER: genes 19 Torsion [C]-CA--CB-[CG] |==|  0.20225
USER: genes 20 Torsion [CA]-CB--CG-[OD2] |==|  0.08130
ROOT
ATOM      1  CA  ASP E 180       3.294 -26.755  27.244  1.00 46.29 LIG 0.19  C 
ENDROOT
BRANCH 1 2
ATOM      2  CB  ASP E 180       4.556 -27.350  27.859  1.00 53.57 LIG 0.15  C 
BRANCH 2 3
ATOM      3  CG  ASP E 180       5.319 -26.352  28.697  1.00 52.91 LIG 0.17  C 
ATOM      4 OD1  ASP E 180       5.556 -26.637  29.892  1.00 53.16 LIG-0.65  OA
ATOM      5 OD2  ASP E 180       5.689 -25.286  28.162  1.00 39.91 LIG-0.65  OA
ENDBRANCH 2 3
ENDBRANCH 1 2
BRANCH 1 6
ATOM      6  C   ASP E 180       2.499 -27.851  26.522  1.00 46.16 LIG 0.24  C 
ATOM      7 O    ASP E 180       2.524 -29.014  26.928  1.00 47.92 LIG-0.27  OA
ATOM      8  N   ASP E 181       1.792 -27.491  25.455  1.00 48.75 LIG-0.34  N 
ATOM      9 H    ASP E 181       1.789 -26.702  25.114  1.00 48.75 LIG 0.16  HD
BRANCH 8 10
ATOM     10  CA  ASP E 181       0.945 -28.465  24.772  1.00 45.01 LIG 0.19  C 
BRANCH 10 11
ATOM     11  C   ASP E 181       0.330 -27.920  23.487  1.00 47.33 LIG 0.24  C 
ATOM     12 O    ASP E 181       0.599 -26.786  23.072  1.00 41.27 LIG-0.27  OA
ATOM     13  N   MET E 182      -0.517 -28.745  22.876  1.00 63.00 LIG-0.35  N 
ATOM     14 H    MET E 182      -0.751 -29.506  23.199  1.00 63.00 LIG 0.16  HD
BRANCH 13 15
ATOM     15  CA  MET E 182      -1.131 -28.435  21.593  1.00 43.88 LIG 0.16  C 
BRANCH 15 16
ATOM     16  CB  MET E 182      -1.934 -29.636  21.094  1.00 44.38 LIG 0.04  C 
BRANCH 16 17
ATOM     17  CG  MET E 182      -2.393 -29.509  19.656  1.00 63.17 LIG 0.08  C 
BRANCH 17 18
ATOM     18 SD   MET E 182      -4.041 -28.795  19.517  1.00101.17 LIG-0.17  SA
ATOM     19  CE  MET E 182      -4.208 -28.685  17.736  1.00 68.91 LIG 0.09  C 
ENDBRANCH 17 18
ENDBRANCH 16 17
ENDBRANCH 15 16
BRANCH 15 20
ATOM     20  C   MET E 182      -2.031 -27.201  21.688  1.00 60.82 LIG 0.22  C 
ATOM     21 O    MET E 182      -1.552 -26.065  21.770  1.00 58.83 LIG-0.29  OA
ENDBRANCH 15 20
ENDBRANCH 13 15
ENDBRANCH 10 11
BRANCH 10 22
ATOM     22  CB  ASP E 181      -0.154 -28.950  25.715  1.00 40.72 LIG 0.15  C 
BRANCH 22 23
ATOM     23  CG  ASP E 181      -1.008 -27.813  26.236  1.00 40.82 LIG 0.17  C 
ATOM     24 OD1  ASP E 181      -1.007 -27.565  27.463  1.00 47.44 LIG-0.65  OA
ATOM     25 OD2  ASP E 181      -1.673 -27.161  25.406  1.00 24.37 LIG-0.65  OA
ENDBRANCH 22 23
ENDBRANCH 10 22
ENDBRANCH 8 10
ENDBRANCH 1 6
BRANCH 1 26
ATOM     26  N   ASP E 180       2.444 -26.120  28.257  1.00 48.48 LIG-0.34  N 
ATOM     27  C   ASP E 179       1.335 -25.418  28.011  1.00 52.76 LIG 0.24  C 
ATOM     28 O    ASP E 179       0.888 -25.188  26.887  1.00 54.54 LIG-0.27  OA
ATOM     29 H    ASP E 180       2.734 -26.246  29.056  1.00 48.48 LIG 0.16  HD
BRANCH 27 30
ATOM     30  CA  ASP E 179       0.622 -24.897  29.257  1.00 62.98 LIG 0.19  C 
BRANCH 30 31
ATOM     31  N   ASP E 179       1.442 -24.838  30.471  1.00 68.60 LIG-0.34  N 
ATOM     32  C   VAL E 178       2.608 -24.195  30.526  1.00 59.78 LIG 0.26  C 
ATOM     33 O    VAL E 178       3.201 -23.786  29.526  1.00 49.42 LIG-0.27  OA
ATOM     34 H    ASP E 179       1.101 -25.255  31.141  1.00 68.60 LIG 0.16  HD
BRANCH 32 35
ATOM     35  CA  VAL E 178       3.207 -24.011  31.924  1.00 59.92 LIG 0.40  C 
ATOM     36  N   VAL E 178       4.410 -24.816  32.111  1.00 55.12 LIG 0.61  N 
BRANCH 35 37
ATOM     37  CB  VAL E 178       3.494 -22.505  32.157  1.00 50.97 LIG 0.03  C 
ATOM     38  CG2 VAL E 178       4.915 -22.287  32.655  1.00 47.22 LIG 0.01  C 
ATOM     39  CG1 VAL E 178       2.494 -21.930  33.137  1.00 50.59 LIG 0.01  C 
ENDBRANCH 35 37
ENDBRANCH 32 35
ENDBRANCH 30 31
BRANCH 30 40
ATOM     40  CB  ASP E 179       0.065 -23.508  28.949  1.00 47.75 LIG 0.15  C 
BRANCH 40 41
ATOM     41  CG  ASP E 179      -1.131 -23.558  28.031  1.00 48.80 LIG 0.17  C 
ATOM     42 OD2  ASP E 179      -1.869 -24.572  28.059  1.00 55.56 LIG-0.65  OA
ATOM     43 OD1  ASP E 179      -1.329 -22.580  27.284  1.00 40.87 LIG-0.65  OA
ENDBRANCH 40 41
ENDBRANCH 30 40
ENDBRANCH 27 30
ENDBRANCH 1 26
TORSDOF 19
ENDMDL
MODEL 5
USER: ADFR SOLUTION from run 121
USER: SCORE 11.609812 LL:  -1.842 LR: -12.777 RR:   0.000 FEB:  -7.109
USER: RMSD 9.983214
USER: SEED 120
USER: STATUS no improvement in best in 13 clusters for 5 generations
USER: GENES 21
USER: genes 0 Translation |==|  0.51005 0.64392 0.59899
USER: genes 1 Rotation |==|  0.45464 0.15377 0.85680 0.52759
USER: genes 2 Torsion [C]-CA--CB-[CG] |==|  0.11832
USER: genes 3 Torsion [CA]-CB--CG-[OD1] |==|  0.64590
USER: genes 4 Torsion [N]-CA--C-[N] |==|  0.26873
USER: genes 5 Torsion [C]-N--CA-[CB] |==|  0.43557
USER: genes 6 Torsion [N]-CA--C-[N] |==|  0.87966
USER: genes 7 Torsion [C]-N--CA-[CB] |==|  0.80787
USER: genes 8 Torsion [N]-CA--CB-[CG] |==|  0.48728
USER: genes 9 Torsion [CA]-CB--CG-[SD] |==|  0.12145
USER: genes 10 Torsion [CB]-CG--SD-[CE] |==|  0.54345
USER: genes 11 Torsion [N]-CA--C-[O] |==|  0.17310
USER: genes 12 Torsion [N]-CA--CB-[CG] |==|  0.93188
USER: genes 13 Torsion [CA]-CB--CG-[OD1] |==|  0.86976
USER: genes 14 Torsion [CB]-CA--N-[C] |==|  0.39020
USER: genes 15 Torsion [N]-C--CA-[N] |==|  0.39955
USER: genes 16 Torsion [C]-CA--N-[C] |==|  0.79955
USER: genes 17 Torsion [N]-C--CA-[N] |==|  0.44234
USER: genes 18 Torsion [C]-CA--CB-[CG2] |==|  0.23904
USER: genes 19 Torsion [C]-CA--CB-[CG] |==|  0.80202
USER: genes 20 Torsion [CA]-CB--CG-[OD2] |==|  0.44155
ROOT
ATOM      1  CA  ASP E 180       2.761 -25.161  28.536  1.00 46.29 LIG 0.19  C 
ENDROOT
BRANCH 1 2
ATOM      2  CB  ASP E 180       3.988 -24.932  29.412  1.00 53.57 LIG 0.15  C 
BRANCH 2 3
ATOM      3  CG  ASP E 180       5.233 -25.571  28.844  1.00 52.91 LIG 0.17  C 
ATOM      4 OD1  ASP E 180       5.901 -26.329  29.582  1.00 53.16 LIG-0.65  OA
ATOM      5 OD2  ASP E 180       5.541 -25.321  27.660  1.00 39.91 LIG-0.65  OA
ENDBRANCH 2 3
ENDBRANCH 1 2
BRANCH 1 6
ATOM      6  C   ASP E 180       2.737 -26.614  28.041  1.00 46.16 LIG 0.24  C 
ATOM      7 O    ASP E 180       3.062 -27.536  28.792  1.00 47.92 LIG-0.27  OA
ATOM      8  N   ASP E 181       2.355 -26.827  26.786  1.00 48.75 LIG-0.34  N 
ATOM      9 H    ASP E 181       2.169 -26.207  26.220  1.00 48.75 LIG 0.16  HD
BRANCH 8 10
ATOM     10  CA  ASP E 181       2.227 -28.190  26.279  1.00 45.01 LIG 0.19  C 
BRANCH 10 11
ATOM     11  C   ASP E 181       3.566 -28.807  25.886  1.00 47.33 LIG 0.24  C 
ATOM     12 O    ASP E 181       3.859 -29.968  26.200  1.00 41.27 LIG-0.27  OA
ATOM     13  N   MET E 182       4.380 -28.001  25.209  1.00 63.00 LIG-0.35  N 
ATOM     14 H    MET E 182       4.201 -27.176  25.048  1.00 63.00 LIG 0.16  HD
BRANCH 13 15
ATOM     15  CA  MET E 182       5.659 -28.443  24.674  1.00 43.88 LIG 0.16  C 
BRANCH 15 16
ATOM     16  CB  MET E 182       6.638 -28.714  25.816  1.00 44.38 LIG 0.04  C 
BRANCH 16 17
ATOM     17  CG  MET E 182       7.966 -29.285  25.361  1.00 63.17 LIG 0.08  C 
BRANCH 17 18
ATOM     18 SD   MET E 182       8.616 -28.447  23.905  1.00101.17 LIG-0.17  SA
ATOM     19  CE  MET E 182       9.863 -29.619  23.374  1.00 68.91 LIG 0.09  C 
ENDBRANCH 17 18
ENDBRANCH 16 17
ENDBRANCH 15 16
BRANCH 15 20
ATOM     20  C   MET E 182       5.502 -29.693  23.806  1.00 60.82 LIG 0.22  C 
ATOM     21 O    MET E 182       4.823 -29.674  22.774  1.00 58.83 LIG-0.29  OA
ENDBRANCH 15 20
ENDBRANCH 13 15
ENDBRANCH 10 11
BRANCH 10 22
ATOM     22  CB  ASP E 181       1.269 -28.214  25.088  1.00 40.72 LIG 0.15  C 
BRANCH 22 23
ATOM     23  CG  ASP E 181       0.292 -27.058  25.113  1.00 40.82 LIG 0.17  C 
ATOM     24 OD1  ASP E 181      -0.304 -26.790  26.181  1.00 47.44 LIG-0.65  OA
ATOM     25 OD2  ASP E 181       0.133 -26.411  24.059  1.00 24.37 LIG-0.65  OA
ENDBRANCH 22 23
ENDBRANCH 10 22
ENDBRANCH 8 10
ENDBRANCH 1 6
BRANCH 1 26
ATOM     26  N   ASP E 180       1.517 -24.869  29.255  1.00 48.48 LIG-0.34  N 
ATOM     27  C   ASP E 179       0.446 -24.261  28.740  1.00 52.76 LIG 0.24  C 
ATOM     28 O    ASP E 179       0.370 -23.837  27.586  1.00 54.54 LIG-0.27  OA
ATOM     29 H    ASP E 180       1.539 -25.136  30.072  1.00 48.48 LIG 0.16  HD
BRANCH 27 30
ATOM     30  CA  ASP E 179      -0.728 -24.115  29.706  1.00 62.98 LIG 0.19  C 
BRANCH 30 31
ATOM     31  N   ASP E 179      -1.499 -22.875  29.575  1.00 68.60 LIG-0.34  N 
ATOM     32  C   VAL E 178      -1.033 -21.689  29.964  1.00 59.78 LIG 0.26  C 
ATOM     33 O    VAL E 178      -0.022 -21.555  30.658  1.00 49.42 LIG-0.27  OA
ATOM     34 H    ASP E 179      -2.277 -22.984  29.225  1.00 68.60 LIG 0.16  HD
BRANCH 32 35
ATOM     35  CA  VAL E 178      -1.850 -20.470  29.526  1.00 59.92 LIG 0.40  C 
ATOM     36  N   VAL E 178      -1.579 -19.303  30.360  1.00 55.12 LIG 0.61  N 
BRANCH 35 37
ATOM     37  CB  VAL E 178      -1.556 -20.176  28.031  1.00 50.97 LIG 0.03  C 
ATOM     38  CG2 VAL E 178      -2.457 -20.998  27.122  1.00 47.22 LIG 0.01  C 
ATOM     39  CG1 VAL E 178      -0.100 -20.450  27.724  1.00 50.59 LIG 0.01  C 
ENDBRANCH 35 37
ENDBRANCH 32 35
ENDBRANCH 30 31
BRANCH 30 40
ATOM     40  CB  ASP E 179      -1.657 -25.314  29.521  1.00 47.75 LIG 0.15  C 
BRANCH 40 41
ATOM     41  CG  ASP E 179      -2.409 -25.265  28.215  1.00 48.80 LIG 0.17  C 
ATOM     42 OD2  ASP E 179      -2.881 -26.331  27.750  1.00 55.56 LIG-0.65  OA
ATOM     43 OD1  ASP E 179      -2.528 -24.156  27.656  1.00 40.87 LIG-0.65  OA
ENDBRANCH 40 41
ENDBRANCH 30 40
ENDBRANCH 27 30
ENDBRANCH 1 26
TORSDOF 19
ENDMDL
MODEL 6
USER: ADFR SOLUTION from run 160
USER: SCORE 12.061178 LL:  -1.818 LR: -12.650 RR:   0.000 FEB:  -6.982
USER: RMSD 8.860831
USER: SEED 159
USER: STATUS no improvement in best in 14 clusters for 5 generations
USER: GENES 21
USER: genes 0 Translation |==|  0.52150 0.55285 0.53550
USER: genes 1 Rotation |==|  0.44216 0.15018 0.80145 0.68278
USER: genes 2 Torsion [C]-CA--CB-[CG] |==|  0.53908
USER: genes 3 Torsion [CA]-CB--CG-[OD1] |==|  0.82127
USER: genes 4 Torsion [N]-CA--C-[N] |==|  0.29011
USER: genes 5 Torsion [C]-N--CA-[CB] |==|  0.16807
USER: genes 6 Torsion [N]-CA--C-[N] |==|  0.55793
USER: genes 7 Torsion [C]-N--CA-[CB] |==|  0.85388
USER: genes 8 Torsion [N]-CA--CB-[CG] |==|  0.77087
USER: genes 9 Torsion [CA]-CB--CG-[SD] |==|  0.76756
USER: genes 10 Torsion [CB]-CG--SD-[CE] |==|  0.91845
USER: genes 11 Torsion [N]-CA--C-[O] |==|  0.99812
USER: genes 12 Torsion [N]-CA--CB-[CG] |==|  0.18716
USER: genes 13 Torsion [CA]-CB--CG-[OD1] |==|  0.25620
USER: genes 14 Torsion [CB]-CA--N-[C] |==|  0.30478
USER: genes 15 Torsion [N]-C--CA-[N] |==|  0.38222
USER: genes 16 Torsion [C]-CA--N-[C] |==|  0.68426
USER: genes 17 Torsion [N]-C--CA-[N] |==|  0.38779
USER: genes 18 Torsion [C]-CA--CB-[CG2] |==|  0.99787
USER: genes 19 Torsion [C]-CA--CB-[CG] |==|  0.84750
USER: genes 20 Torsion [CA]-CB--CG-[OD2] |==|  0.35925
ROOT
ATOM      1  CA  ASP E 180       3.010 -26.664  27.250  1.00 46.29 LIG 0.19  C 
ENDROOT
BRANCH 1 2
ATOM      2  CB  ASP E 180       4.383 -27.244  27.572  1.00 53.57 LIG 0.15  C 
BRANCH 2 3
ATOM      3  CG  ASP E 180       5.198 -26.341  28.468  1.00 52.91 LIG 0.17  C 
ATOM      4 OD1  ASP E 180       5.538 -25.219  28.031  1.00 53.16 LIG-0.65  OA
ATOM      5 OD2  ASP E 180       5.492 -26.748  29.611  1.00 39.91 LIG-0.65  OA
ENDBRANCH 2 3
ENDBRANCH 1 2
BRANCH 1 6
ATOM      6  C   ASP E 180       2.113 -27.753  26.646  1.00 46.16 LIG 0.24  C 
ATOM      7 O    ASP E 180       2.032 -28.863  27.175  1.00 47.92 LIG-0.27  OA
ATOM      8  N   ASP E 181       1.438 -27.447  25.542  1.00 48.75 LIG-0.34  N 
ATOM      9 H    ASP E 181       1.506 -26.702  25.118  1.00 48.75 LIG 0.16  HD
BRANCH 8 10
ATOM     10  CA  ASP E 181       0.501 -28.405  24.965  1.00 45.01 LIG 0.19  C 
BRANCH 10 11
ATOM     11  C   ASP E 181      -0.111 -27.923  23.653  1.00 47.33 LIG 0.24  C 
ATOM     12 O    ASP E 181       0.423 -27.031  22.980  1.00 41.27 LIG-0.27  OA
ATOM     13  N   MET E 182      -1.252 -28.516  23.313  1.00 63.00 LIG-0.35  N 
ATOM     14 H    MET E 182      -1.654 -29.088  23.812  1.00 63.00 LIG 0.16  HD
BRANCH 13 15
ATOM     15  CA  MET E 182      -1.933 -28.251  22.054  1.00 43.88 LIG 0.16  C 
BRANCH 15 16
ATOM     16  CB  MET E 182      -2.137 -26.746  21.877  1.00 44.38 LIG 0.04  C 
BRANCH 16 17
ATOM     17  CG  MET E 182      -3.352 -26.204  22.604  1.00 63.17 LIG 0.08  C 
BRANCH 17 18
ATOM     18 SD   MET E 182      -4.871 -26.408  21.658  1.00101.17 LIG-0.17  SA
ATOM     19  CE  MET E 182      -4.234 -26.342  19.985  1.00 68.91 LIG 0.09  C 
ENDBRANCH 17 18
ENDBRANCH 16 17
ENDBRANCH 15 16
BRANCH 15 20
ATOM     20  C   MET E 182      -1.157 -28.821  20.866  1.00 60.82 LIG 0.22  C 
ATOM     21 O    MET E 182      -0.083 -29.411  21.027  1.00 58.83 LIG-0.29  OA
ENDBRANCH 15 20
ENDBRANCH 13 15
ENDBRANCH 10 11
BRANCH 10 22
ATOM     22  CB  ASP E 181      -0.603 -28.726  25.971  1.00 40.72 LIG 0.15  C 
BRANCH 22 23
ATOM     23  CG  ASP E 181      -1.501 -27.536  26.238  1.00 40.82 LIG 0.17  C 
ATOM     24 OD1  ASP E 181      -2.539 -27.393  25.554  1.00 47.44 LIG-0.65  OA
ATOM     25 OD2  ASP E 181      -1.166 -26.750  27.145  1.00 24.37 LIG-0.65  OA
ENDBRANCH 22 23
ENDBRANCH 10 22
ENDBRANCH 8 10
ENDBRANCH 1 6
BRANCH 1 26
ATOM     26  N   ASP E 180       2.364 -26.103  28.441  1.00 48.48 LIG-0.34  N 
ATOM     27  C   ASP E 179       2.159 -24.805  28.675  1.00 52.76 LIG 0.24  C 
ATOM     28 O    ASP E 179       2.512 -23.895  27.924  1.00 54.54 LIG-0.27  OA
ATOM     29 H    ASP E 180       2.118 -26.710  28.998  1.00 48.48 LIG 0.16  HD
BRANCH 27 30
ATOM     30  CA  ASP E 179       1.430 -24.501  29.982  1.00 62.98 LIG 0.19  C 
BRANCH 30 31
ATOM     31  N   ASP E 179       1.963 -23.372  30.751  1.00 68.60 LIG-0.34  N 
ATOM     32  C   VAL E 178       2.540 -23.517  31.943  1.00 59.78 LIG 0.26  C 
ATOM     33 O    VAL E 178       2.485 -24.560  32.597  1.00 49.42 LIG-0.27  OA
ATOM     34 H    ASP E 179       1.868 -22.612  30.362  1.00 68.60 LIG 0.16  HD
BRANCH 32 35
ATOM     35  CA  VAL E 178       3.268 -22.285  32.490  1.00 59.92 LIG 0.40  C 
ATOM     36  N   VAL E 178       3.044 -22.112  33.922  1.00 55.12 LIG 0.61  N 
BRANCH 35 37
ATOM     37  CB  VAL E 178       4.779 -22.405  32.165  1.00 50.97 LIG 0.03  C 
ATOM     38  CG2 VAL E 178       5.082 -23.701  31.428  1.00 47.22 LIG 0.01  C 
ATOM     39  CG1 VAL E 178       5.594 -22.316  33.438  1.00 50.59 LIG 0.01  C 
ENDBRANCH 35 37
ENDBRANCH 32 35
ENDBRANCH 30 31
BRANCH 30 40
ATOM     40  CB  ASP E 179      -0.044 -24.253  29.667  1.00 47.75 LIG 0.15  C 
BRANCH 40 41
ATOM     41  CG  ASP E 179      -0.238 -23.173  28.632  1.00 48.80 LIG 0.17  C 
ATOM     42 OD2  ASP E 179      -0.973 -23.411  27.643  1.00 55.56 LIG-0.65  OA
ATOM     43 OD1  ASP E 179       0.346 -22.086  28.812  1.00 40.87 LIG-0.65  OA
ENDBRANCH 40 41
ENDBRANCH 30 40
ENDBRANCH 27 30
ENDBRANCH 1 26
TORSDOF 19
ENDMDL
MODEL 7
USER: ADFR SOLUTION from run 162
USER: SCORE 13.109078 LL:  -1.959 LR: -12.438 RR:   0.000 FEB:  -6.770
USER: RMSD 9.989045
USER: SEED 161
USER: STATUS searching
USER: GENES 21
USER: genes 0 Translation |==|  0.54290 0.58124 0.55093
USER: genes 1 Rotation |==|  0.32440 0.13842 0.79696 0.51556
USER: genes 2 Torsion [C]-CA--CB-[CG] |==|  0.32749
USER: genes 3 Torsion [CA]-CB--CG-[OD1] |==|  0.00697
USER: genes 4 Torsion [N]-CA--C-[N] |==|  0.11008
USER: genes 5 Torsion [C]-N--CA-[CB] |==|  0.51475
USER: genes 6 Torsion [N]-CA--C-[N] |==|  0.90180
USER: genes 7 Torsion [C]-N--CA-[CB] |==|  0.39263
USER: genes 8 Torsion [N]-CA--CB-[CG] |==|  0.56766
USER: genes 9 Torsion [CA]-CB--CG-[SD] |==|  0.74733
USER: genes 10 Torsion [CB]-CG--SD-[CE] |==|  0.49172
USER: genes 11 Torsion [N]-CA--C-[O] |==|  0.74811
USER: genes 12 Torsion [N]-CA--CB-[CG] |==|  0.92810
USER: genes 13 Torsion [CA]-CB--CG-[OD1] |==|  0.90945
USER: genes 14 Torsion [CB]-CA--N-[C] |==|  0.15471
USER: genes 15 Torsion [N]-C--CA-[N] |==|  0.36168
USER: genes 16 Torsion [C]-CA--N-[C] |==|  0.86058
USER: genes 17 Torsion [N]-C--CA-[N] |==|  0.44641
USER: genes 18 Torsion [C]-CA--CB-[CG2] |==|  0.25226
USER: genes 19 Torsion [C]-CA--CB-[CG] |==|  0.49269
USER: genes 20 Torsion [CA]-CB--CG-[OD2] |==|  0.35050
ROOT
ATOM      1  CA  ASP E 180       3.475 -26.196  27.562  1.00 46.29 LIG 0.19  C 
ENDROOT
BRANCH 1 2
ATOM      2  CB  ASP E 180       4.198 -26.507  28.869  1.00 53.57 LIG 0.15  C 
BRANCH 2 3
ATOM      3  CG  ASP E 180       5.542 -25.823  28.965  1.00 52.91 LIG 0.17  C 
ATOM      4 OD1  ASP E 180       5.892 -25.066  28.032  1.00 53.16 LIG-0.65  OA
ATOM      5 OD2  ASP E 180       6.245 -26.036  29.974  1.00 39.91 LIG-0.65  OA
ENDBRANCH 2 3
ENDBRANCH 1 2
BRANCH 1 6
ATOM      6  C   ASP E 180       3.264 -27.488  26.763  1.00 46.16 LIG 0.24  C 
ATOM      7 O    ASP E 180       3.915 -28.501  27.026  1.00 47.92 LIG-0.27  OA
ATOM      8  N   ASP E 181       2.359 -27.464  25.789  1.00 48.75 LIG-0.34  N 
ATOM      9 H    ASP E 181       1.921 -26.765  25.546  1.00 48.75 LIG 0.16  HD
BRANCH 8 10
ATOM     10  CA  ASP E 181       2.046 -28.682  25.047  1.00 45.01 LIG 0.19  C 
BRANCH 10 11
ATOM     11  C   ASP E 181       3.287 -29.383  24.503  1.00 47.33 LIG 0.24  C 
ATOM     12 O    ASP E 181       3.363 -30.618  24.459  1.00 41.27 LIG-0.27  OA
ATOM     13  N   MET E 182       4.264 -28.571  24.109  1.00 63.00 LIG-0.35  N 
ATOM     14 H    MET E 182       4.234 -27.717  24.199  1.00 63.00 LIG 0.16  HD
BRANCH 13 15
ATOM     15  CA  MET E 182       5.484 -29.055  23.481  1.00 43.88 LIG 0.16  C 
BRANCH 15 16
ATOM     16  CB  MET E 182       5.911 -28.102  22.364  1.00 44.38 LIG 0.04  C 
BRANCH 16 17
ATOM     17  CG  MET E 182       6.769 -28.754  21.299  1.00 63.17 LIG 0.08  C 
BRANCH 17 18
ATOM     18 SD   MET E 182       8.530 -28.631  21.659  1.00101.17 LIG-0.17  SA
ATOM     19  CE  MET E 182       9.217 -29.556  20.286  1.00 68.91 LIG 0.09  C 
ENDBRANCH 17 18
ENDBRANCH 16 17
ENDBRANCH 15 16
BRANCH 15 20
ATOM     20  C   MET E 182       6.614 -29.213  24.500  1.00 60.82 LIG 0.22  C 
ATOM     21 O    MET E 182       7.396 -28.286  24.738  1.00 58.83 LIG-0.29  OA
ENDBRANCH 15 20
ENDBRANCH 13 15
ENDBRANCH 10 11
BRANCH 10 22
ATOM     22  CB  ASP E 181       1.081 -28.363  23.906  1.00 40.72 LIG 0.15  C 
BRANCH 22 23
ATOM     23  CG  ASP E 181       0.243 -27.134  24.189  1.00 40.82 LIG 0.17  C 
ATOM     24 OD1  ASP E 181      -0.084 -26.881  25.370  1.00 47.44 LIG-0.65  OA
ATOM     25 OD2  ASP E 181      -0.077 -26.416  23.221  1.00 24.37 LIG-0.65  OA
ENDBRANCH 22 23
ENDBRANCH 10 22
ENDBRANCH 8 10
ENDBRANCH 1 6
BRANCH 1 26
ATOM     26  N   ASP E 180       2.181 -25.549  27.799  1.00 48.48 LIG-0.34  N 
ATOM     27  C   ASP E 179       1.988 -24.429  28.500  1.00 52.76 LIG 0.24  C 
ATOM     28 O    ASP E 179       2.880 -23.798  29.067  1.00 54.54 LIG-0.27  OA
ATOM     29 H    ASP E 180       1.529 -25.973  27.430  1.00 48.48 LIG 0.16  HD
BRANCH 27 30
ATOM     30  CA  ASP E 179       0.537 -23.957  28.558  1.00 62.98 LIG 0.19  C 
BRANCH 30 31
ATOM     31  N   ASP E 179       0.031 -23.644  29.898  1.00 68.60 LIG-0.34  N 
ATOM     32  C   VAL E 178       0.156 -24.475  30.931  1.00 59.78 LIG 0.26  C 
ATOM     33 O    VAL E 178       0.504 -25.652  30.812  1.00 49.42 LIG-0.27  OA
ATOM     34 H    ASP E 179      -0.352 -22.876  29.953  1.00 68.60 LIG 0.16  HD
BRANCH 32 35
ATOM     35  CA  VAL E 178      -0.191 -23.895  32.306  1.00 59.92 LIG 0.40  C 
ATOM     36  N   VAL E 178      -0.465 -24.941  33.285  1.00 55.12 LIG 0.61  N 
BRANCH 35 37
ATOM     37  CB  VAL E 178       0.966 -22.974  32.772  1.00 50.97 LIG 0.03  C 
ATOM     38  CG2 VAL E 178       0.738 -21.536  32.328  1.00 47.22 LIG 0.01  C 
ATOM     39  CG1 VAL E 178       2.287 -23.489  32.242  1.00 50.59 LIG 0.01  C 
ENDBRANCH 35 37
ENDBRANCH 32 35
ENDBRANCH 30 31
BRANCH 30 40
ATOM     40  CB  ASP E 179       0.392 -22.730  27.658  1.00 47.75 LIG 0.15  C 
BRANCH 40 41
ATOM     41  CG  ASP E 179      -1.028 -22.224  27.599  1.00 48.80 LIG 0.17  C 
ATOM     42 OD2  ASP E 179      -1.249 -21.019  27.868  1.00 55.56 LIG-0.65  OA
ATOM     43 OD1  ASP E 179      -1.920 -23.036  27.281  1.00 40.87 LIG-0.65  OA
ENDBRANCH 40 41
ENDBRANCH 30 40
ENDBRANCH 27 30
ENDBRANCH 1 26
TORSDOF 19
ENDMDL
MODEL 8
USER: ADFR SOLUTION from run 160
USER: SCORE 11.914571 LL:  -1.759 LR: -12.444 RR:   0.000 FEB:  -6.777
USER: RMSD 8.306088
USER: SEED 159
USER: STATUS no improvement in best in 14 clusters for 5 generations
USER: GENES 21
USER: genes 0 Translation |==|  0.58705 0.48887 0.49754
USER: genes 1 Rotation |==|  0.41741 0.16457 0.77498 0.73464
USER: genes 2 Torsion [C]-CA--CB-[CG] |==|  0.26943
USER: genes 3 Torsion [CA]-CB--CG-[OD1] |==|  0.92112
USER: genes 4 Torsion [N]-CA--C-[N] |==|  0.24565
USER: genes 5 Torsion [C]-N--CA-[CB] |==|  0.20539
USER: genes 6 Torsion [N]-CA--C-[N] |==|  0.46457
USER: genes 7 Torsion [C]-N--CA-[CB] |==|  0.49139
USER: genes 8 Torsion [N]-CA--CB-[CG] |==|  0.49928
USER: genes 9 Torsion [CA]-CB--CG-[SD] |==|  0.72781
USER: genes 10 Torsion [CB]-CG--SD-[CE] |==|  0.34169
USER: genes 11 Torsion [N]-CA--C-[O] |==|  0.21122
USER: genes 12 Torsion [N]-CA--CB-[CG] |==|  0.23843
USER: genes 13 Torsion [CA]-CB--CG-[OD1] |==|  0.26624
USER: genes 14 Torsion [CB]-CA--N-[C] |==|  0.22778
USER: genes 15 Torsion [N]-C--CA-[N] |==|  0.49594
USER: genes 16 Torsion [C]-CA--N-[C] |==|  0.55735
USER: genes 17 Torsion [N]-C--CA-[N] |==|  0.38855
USER: genes 18 Torsion [C]-CA--CB-[CG2] |==|  0.43313
USER: genes 19 Torsion [C]-CA--CB-[CG] |==|  0.77822
USER: genes 20 Torsion [CA]-CB--CG-[OD2] |==|  0.20806
ROOT
ATOM      1  CA  ASP E 180       4.435 -27.720  26.481  1.00 46.29 LIG 0.19  C 
ENDROOT
BRANCH 1 2
ATOM      2  CB  ASP E 180       5.654 -28.619  26.660  1.00 53.57 LIG 0.15  C 
BRANCH 2 3
ATOM      3  CG  ASP E 180       6.601 -28.554  25.485  1.00 52.91 LIG 0.17  C 
ATOM      4 OD1  ASP E 180       6.130 -28.286  24.357  1.00 53.16 LIG-0.65  OA
ATOM      5 OD2  ASP E 180       7.814 -28.763  25.688  1.00 39.91 LIG-0.65  OA
ENDBRANCH 2 3
ENDBRANCH 1 2
BRANCH 1 6
ATOM      6  C   ASP E 180       3.254 -28.542  25.949  1.00 46.16 LIG 0.24  C 
ATOM      7 O    ASP E 180       3.130 -29.730  26.253  1.00 47.92 LIG-0.27  OA
ATOM      8  N   ASP E 181       2.383 -27.921  25.159  1.00 48.75 LIG-0.34  N 
ATOM      9 H    ASP E 181       2.462 -27.109  24.887  1.00 48.75 LIG 0.16  HD
BRANCH 8 10
ATOM     10  CA  ASP E 181       1.191 -28.619  24.689  1.00 45.01 LIG 0.19  C 
BRANCH 10 11
ATOM     11  C   ASP E 181       0.536 -27.939  23.490  1.00 47.33 LIG 0.24  C 
ATOM     12 O    ASP E 181       0.843 -26.788  23.155  1.00 41.27 LIG-0.27  OA
ATOM     13  N   MET E 182      -0.384 -28.667  22.864  1.00 63.00 LIG-0.35  N 
ATOM     14 H    MET E 182      -0.641 -29.440  23.137  1.00 63.00 LIG 0.16  HD
BRANCH 13 15
ATOM     15  CA  MET E 182      -1.050 -28.219  21.650  1.00 43.88 LIG 0.16  C 
BRANCH 15 16
ATOM     16  CB  MET E 182      -1.992 -29.309  21.138  1.00 44.38 LIG 0.04  C 
BRANCH 16 17
ATOM     17  CG  MET E 182      -2.737 -28.929  19.874  1.00 63.17 LIG 0.08  C 
BRANCH 17 18
ATOM     18 SD   MET E 182      -4.403 -28.332  20.207  1.00101.17 LIG-0.17  SA
ATOM     19  CE  MET E 182      -4.338 -26.715  19.439  1.00 68.91 LIG 0.09  C 
ENDBRANCH 17 18
ENDBRANCH 16 17
ENDBRANCH 15 16
BRANCH 15 20
ATOM     20  C   MET E 182      -1.822 -26.919  21.881  1.00 60.82 LIG 0.22  C 
ATOM     21 O    MET E 182      -1.238 -25.834  21.964  1.00 58.83 LIG-0.29  OA
ENDBRANCH 15 20
ENDBRANCH 13 15
ENDBRANCH 10 11
BRANCH 10 22
ATOM     22  CB  ASP E 181       0.183 -28.755  25.830  1.00 40.72 LIG 0.15  C 
BRANCH 22 23
ATOM     23  CG  ASP E 181      -0.705 -27.535  25.959  1.00 40.82 LIG 0.17  C 
ATOM     24 OD1  ASP E 181      -1.830 -27.541  25.411  1.00 47.44 LIG-0.65  OA
ATOM     25 OD2  ASP E 181      -0.274 -26.572  26.624  1.00 24.37 LIG-0.65  OA
ENDBRANCH 22 23
ENDBRANCH 10 22
ENDBRANCH 8 10
ENDBRANCH 1 6
BRANCH 1 26
ATOM     26  N   ASP E 180       4.052 -27.068  27.737  1.00 48.48 LIG-0.34  N 
ATOM     27  C   ASP E 179       4.609 -25.964  28.241  1.00 52.76 LIG 0.24  C 
ATOM     28 O    ASP E 179       5.545 -25.354  27.723  1.00 54.54 LIG-0.27  OA
ATOM     29 H    ASP E 180       3.410 -27.477  28.138  1.00 48.48 LIG 0.16  HD
BRANCH 27 30
ATOM     30  CA  ASP E 179       3.991 -25.480  29.551  1.00 62.98 LIG 0.19  C 
BRANCH 30 31
ATOM     31  N   ASP E 179       4.611 -24.288  30.137  1.00 68.60 LIG-0.34  N 
ATOM     32  C   VAL E 178       4.487 -23.966  31.424  1.00 59.78 LIG 0.26  C 
ATOM     33 O    VAL E 178       3.677 -24.506  32.180  1.00 49.42 LIG-0.27  OA
ATOM     34 H    ASP E 179       5.060 -23.819  29.574  1.00 68.60 LIG 0.16  HD
BRANCH 32 35
ATOM     35  CA  VAL E 178       5.401 -22.843  31.926  1.00 59.92 LIG 0.40  C 
ATOM     36  N   VAL E 178       4.707 -21.947  32.845  1.00 55.12 LIG 0.61  N 
BRANCH 35 37
ATOM     37  CB  VAL E 178       6.655 -23.471  32.587  1.00 50.97 LIG 0.03  C 
ATOM     38  CG2 VAL E 178       7.829 -22.502  32.569  1.00 47.22 LIG 0.01  C 
ATOM     39  CG1 VAL E 178       7.023 -24.761  31.887  1.00 50.59 LIG 0.01  C 
ENDBRANCH 35 37
ENDBRANCH 32 35
ENDBRANCH 30 31
BRANCH 30 40
ATOM     40  CB  ASP E 179       2.504 -25.218  29.316  1.00 47.75 LIG 0.15  C 
BRANCH 40 41
ATOM     41  CG  ASP E 179       2.252 -23.890  28.647  1.00 48.80 LIG 0.17  C 
ATOM     42 OD2  ASP E 179       2.502 -23.775  27.423  1.00 55.56 LIG-0.65  OA
ATOM     43 OD1  ASP E 179       1.802 -22.963  29.349  1.00 40.87 LIG-0.65  OA
ENDBRANCH 40 41
ENDBRANCH 30 40
ENDBRANCH 27 30
ENDBRANCH 1 26
TORSDOF 19
ENDMDL
MODEL 9
USER: ADFR SOLUTION from run 169
USER: SCORE 12.995368 LL:  -2.108 LR: -12.415 RR:   0.000 FEB:  -6.747
USER: RMSD 9.101246
USER: SEED 168
USER: STATUS no improvement in best in 18 clusters for 5 generations
USER: GENES 21
USER: genes 0 Translation |==|  0.41522 0.65102 0.63618
USER: genes 1 Rotation |==|  0.94342 0.35078 0.67453 0.52561
USER: genes 2 Torsion [C]-CA--CB-[CG] |==|  0.16389
USER: genes 3 Torsion [CA]-CB--CG-[OD1] |==|  0.57147
USER: genes 4 Torsion [N]-CA--C-[N] |==|  0.35000
USER: genes 5 Torsion [C]-N--CA-[CB] |==|  0.82833
USER: genes 6 Torsion [N]-CA--C-[N] |==|  0.76389
USER: genes 7 Torsion [C]-N--CA-[CB] |==|  0.29844
USER: genes 8 Torsion [N]-CA--CB-[CG] |==|  0.57017
USER: genes 9 Torsion [CA]-CB--CG-[SD] |==|  0.73584
USER: genes 10 Torsion [CB]-CG--SD-[CE] |==|  0.73962
USER: genes 11 Torsion [N]-CA--C-[O] |==|  0.94742
USER: genes 12 Torsion [N]-CA--CB-[CG] |==|  0.67748
USER: genes 13 Torsion [CA]-CB--CG-[OD1] |==|  0.10731
USER: genes 14 Torsion [CB]-CA--N-[C] |==|  0.83810
USER: genes 15 Torsion [N]-C--CA-[N] |==|  0.83350
USER: genes 16 Torsion [C]-CA--N-[C] |==|  0.74332
USER: genes 17 Torsion [N]-C--CA-[N] |==|  0.35738
USER: genes 18 Torsion [C]-CA--CB-[CG2] |==|  0.50943
USER: genes 19 Torsion [C]-CA--CB-[CG] |==|  0.23519
USER: genes 20 Torsion [CA]-CB--CG-[OD2] |==|  0.07214
ROOT
ATOM      1  CA  ASP E 180       0.698 -25.044  29.289  1.00 46.29 LIG 0.19  C 
ENDROOT
BRANCH 1 2
ATOM      2  CB  ASP E 180       0.203 -23.642  28.949  1.00 53.57 LIG 0.15  C 
BRANCH 2 3
ATOM      3  CG  ASP E 180      -0.997 -23.657  28.031  1.00 52.91 LIG 0.17  C 
ATOM      4 OD1  ASP E 180      -1.200 -22.661  27.302  1.00 53.16 LIG-0.65  OA
ATOM      5 OD2  ASP E 180      -1.732 -24.666  28.032  1.00 39.91 LIG-0.65  OA
ENDBRANCH 2 3
ENDBRANCH 1 2
BRANCH 1 6
ATOM      6  C   ASP E 180       1.080 -25.788  28.002  1.00 46.16 LIG 0.24  C 
ATOM      7 O    ASP E 180       2.066 -25.443  27.347  1.00 47.92 LIG-0.27  OA
ATOM      8  N   ASP E 181       0.310 -26.807  27.633  1.00 48.75 LIG-0.34  N 
ATOM      9 H    ASP E 181      -0.411 -27.046  28.036  1.00 48.75 LIG 0.16  HD
BRANCH 8 10
ATOM     10  CA  ASP E 181       0.665 -27.612  26.468  1.00 45.01 LIG 0.19  C 
BRANCH 10 11
ATOM     11  C   ASP E 181       2.008 -28.319  26.620  1.00 47.33 LIG 0.24  C 
ATOM     12 O    ASP E 181       2.083 -29.480  27.043  1.00 41.27 LIG-0.27  OA
ATOM     13  N   MET E 182       3.069 -27.590  26.286  1.00 63.00 LIG-0.35  N 
ATOM     14 H    MET E 182       3.020 -26.763  26.054  1.00 63.00 LIG 0.16  HD
BRANCH 13 15
ATOM     15  CA  MET E 182       4.423 -28.124  26.281  1.00 43.88 LIG 0.16  C 
BRANCH 15 16
ATOM     16  CB  MET E 182       4.906 -28.310  24.843  1.00 44.38 LIG 0.04  C 
BRANCH 16 17
ATOM     17  CG  MET E 182       5.979 -29.369  24.690  1.00 63.17 LIG 0.08  C 
BRANCH 17 18
ATOM     18 SD   MET E 182       7.642 -28.678  24.719  1.00101.17 LIG-0.17  SA
ATOM     19  CE  MET E 182       7.942 -28.456  22.966  1.00 68.91 LIG 0.09  C 
ENDBRANCH 17 18
ENDBRANCH 16 17
ENDBRANCH 15 16
BRANCH 15 20
ATOM     20  C   MET E 182       5.386 -27.216  27.048  1.00 60.82 LIG 0.22  C 
ATOM     21 O    MET E 182       5.105 -26.036  27.281  1.00 58.83 LIG-0.29  OA
ENDBRANCH 15 20
ENDBRANCH 13 15
ENDBRANCH 10 11
BRANCH 10 22
ATOM     22  CB  ASP E 181       0.671 -26.739  25.214  1.00 40.72 LIG 0.15  C 
BRANCH 22 23
ATOM     23  CG  ASP E 181      -0.384 -27.164  24.214  1.00 40.82 LIG 0.17  C 
ATOM     24 OD1  ASP E 181      -1.503 -27.536  24.633  1.00 47.44 LIG-0.65  OA
ATOM     25 OD2  ASP E 181      -0.089 -27.113  23.003  1.00 24.37 LIG-0.65  OA
ENDBRANCH 22 23
ENDBRANCH 10 22
ENDBRANCH 8 10
ENDBRANCH 1 6
BRANCH 1 26
ATOM     26  N   ASP E 180       1.851 -25.008  30.194  1.00 48.48 LIG-0.34  N 
ATOM     27  C   ASP E 179       3.011 -24.394  29.950  1.00 52.76 LIG 0.24  C 
ATOM     28 O    ASP E 179       3.277 -23.789  28.911  1.00 54.54 LIG-0.27  OA
ATOM     29 H    ASP E 180       1.708 -25.436  30.926  1.00 48.48 LIG 0.16  HD
BRANCH 27 30
ATOM     30  CA  ASP E 179       4.030 -24.487  31.084  1.00 62.98 LIG 0.19  C 
BRANCH 30 31
ATOM     31  N   ASP E 179       3.602 -23.913  32.363  1.00 68.60 LIG-0.34  N 
ATOM     32  C   VAL E 178       3.857 -22.653  32.712  1.00 59.78 LIG 0.26  C 
ATOM     33 O    VAL E 178       4.650 -21.931  32.104  1.00 49.42 LIG-0.27  OA
ATOM     34 H    ASP E 179       3.173 -24.464  32.864  1.00 68.60 LIG 0.16  HD
BRANCH 32 35
ATOM     35  CA  VAL E 178       3.124 -22.140  33.956  1.00 59.92 LIG 0.40  C 
ATOM     36  N   VAL E 178       4.041 -21.536  34.918  1.00 55.12 LIG 0.61  N 
BRANCH 35 37
ATOM     37  CB  VAL E 178       2.025 -21.138  33.517  1.00 50.97 LIG 0.03  C 
ATOM     38  CG2 VAL E 178       1.320 -20.533  34.723  1.00 47.22 LIG 0.01  C 
ATOM     39  CG1 VAL E 178       1.028 -21.824  32.609  1.00 50.59 LIG 0.01  C 
ENDBRANCH 35 37
ENDBRANCH 32 35
ENDBRANCH 30 31
BRANCH 30 40
ATOM     40  CB  ASP E 179       4.400 -25.956  31.281  1.00 47.75 LIG 0.15  C 
BRANCH 40 41
ATOM     41  CG  ASP E 179       5.491 -26.407  30.343  1.00 48.80 LIG 0.17  C 
ATOM     42 OD2  ASP E 179       6.296 -25.552  29.900  1.00 55.56 LIG-0.65  OA
ATOM     43 OD1  ASP E 179       5.542 -27.618  30.052  1.00 40.87 LIG-0.65  OA
ENDBRANCH 40 41
ENDBRANCH 30 40
ENDBRANCH 27 30
ENDBRANCH 1 26
TORSDOF 19
ENDMDL
MODEL 10
USER: ADFR SOLUTION from run 27
USER: SCORE 12.832874 LL:  -1.957 LR: -12.388 RR:   0.000 FEB:  -6.721
USER: RMSD 9.290871
USER: SEED 26
USER: STATUS no improvement in best in 8 clusters for 5 generations
USER: GENES 21
USER: genes 0 Translation |==|  0.47886 0.45039 0.43711
USER: genes 1 Rotation |==|  0.87259 0.57070 0.82215 0.54895
USER: genes 2 Torsion [C]-CA--CB-[CG] |==|  0.54281
USER: genes 3 Torsion [CA]-CB--CG-[OD1] |==|  0.93369
USER: genes 4 Torsion [N]-CA--C-[N] |==|  0.94396
USER: genes 5 Torsion [C]-N--CA-[CB] |==|  0.84444
USER: genes 6 Torsion [N]-CA--C-[N] |==|  0.40190
USER: genes 7 Torsion [C]-N--CA-[CB] |==|  0.78918
USER: genes 8 Torsion [N]-CA--CB-[CG] |==|  0.67659
USER: genes 9 Torsion [CA]-CB--CG-[SD] |==|  0.56299
USER: genes 10 Torsion [CB]-CG--SD-[CE] |==|  0.94934
USER: genes 11 Torsion [N]-CA--C-[O] |==|  0.16298
USER: genes 12 Torsion [N]-CA--CB-[CG] |==|  0.62488
USER: genes 13 Torsion [CA]-CB--CG-[OD1] |==|  0.35555
USER: genes 14 Torsion [CB]-CA--N-[C] |==|  0.44937
USER: genes 15 Torsion [N]-C--CA-[N] |==|  0.30678
USER: genes 16 Torsion [C]-CA--N-[C] |==|  0.75847
USER: genes 17 Torsion [N]-C--CA-[N] |==|  0.32397
USER: genes 18 Torsion [C]-CA--CB-[CG2] |==|  0.44223
USER: genes 19 Torsion [C]-CA--CB-[CG] |==|  0.20052
USER: genes 20 Torsion [CA]-CB--CG-[OD2] |==|  0.88743
ROOT
ATOM      1  CA  ASP E 180       2.082 -28.355  25.257  1.00 46.29 LIG 0.19  C 
ENDROOT
BRANCH 1 2
ATOM      2  CB  ASP E 180       1.406 -27.999  23.937  1.00 53.57 LIG 0.15  C 
BRANCH 2 3
ATOM      3  CG  ASP E 180       0.187 -27.127  24.126  1.00 52.91 LIG 0.17  C 
ATOM      4 OD1  ASP E 180      -0.402 -27.161  25.229  1.00 53.16 LIG-0.65  OA
ATOM      5 OD2  ASP E 180      -0.178 -26.404  23.177  1.00 39.91 LIG-0.65  OA
ENDBRANCH 2 3
ENDBRANCH 1 2
BRANCH 1 6
ATOM      6  C   ASP E 180       3.493 -28.898  24.991  1.00 46.16 LIG 0.24  C 
ATOM      7 O    ASP E 180       3.654 -30.051  24.586  1.00 47.92 LIG-0.27  OA
ATOM      8  N   ASP E 181       4.515 -28.079  25.215  1.00 48.75 LIG-0.34  N 
ATOM      9 H    ASP E 181       4.445 -27.287  25.543  1.00 48.75 LIG 0.16  HD
BRANCH 8 10
ATOM     10  CA  ASP E 181       5.877 -28.501  24.900  1.00 45.01 LIG 0.19  C 
BRANCH 10 11
ATOM     11  C   ASP E 181       6.118 -28.666  23.403  1.00 47.33 LIG 0.24  C 
ATOM     12 O    ASP E 181       5.238 -29.104  22.651  1.00 41.27 LIG-0.27  OA
ATOM     13  N   MET E 182       7.335 -28.323  22.988  1.00 63.00 LIG-0.35  N 
ATOM     14 H    MET E 182       7.964 -28.080  23.521  1.00 63.00 LIG 0.16  HD
BRANCH 13 15
ATOM     15  CA  MET E 182       7.719 -28.328  21.584  1.00 43.88 LIG 0.16  C 
BRANCH 15 16
ATOM     16  CB  MET E 182       7.949 -29.763  21.110  1.00 44.38 LIG 0.04  C 
BRANCH 16 17
ATOM     17  CG  MET E 182       9.375 -30.045  20.683  1.00 63.17 LIG 0.08  C 
BRANCH 17 18
ATOM     18 SD   MET E 182       9.495 -31.447  19.559  1.00101.17 LIG-0.17  SA
ATOM     19  CE  MET E 182       7.921 -32.250  19.857  1.00 68.91 LIG 0.09  C 
ENDBRANCH 17 18
ENDBRANCH 16 17
ENDBRANCH 15 16
BRANCH 15 20
ATOM     20  C   MET E 182       6.662 -27.646  20.713  1.00 60.82 LIG 0.22  C 
ATOM     21 O    MET E 182       6.334 -26.471  20.906  1.00 58.83 LIG-0.29  OA
ENDBRANCH 15 20
ENDBRANCH 13 15
ENDBRANCH 10 11
BRANCH 10 22
ATOM     22  CB  ASP E 181       6.200 -29.804  25.629  1.00 40.72 LIG 0.15  C 
BRANCH 22 23
ATOM     23  CG  ASP E 181       7.569 -29.775  26.278  1.00 40.82 LIG 0.17  C 
ATOM     24 OD1  ASP E 181       7.673 -30.072  27.489  1.00 47.44 LIG-0.65  OA
ATOM     25 OD2  ASP E 181       8.542 -29.463  25.564  1.00 24.37 LIG-0.65  OA
ENDBRANCH 22 23
ENDBRANCH 10 22
ENDBRANCH 8 10
ENDBRANCH 1 6
BRANCH 1 26
ATOM     26  N   ASP E 180       2.164 -27.198  26.155  1.00 48.48 LIG-0.34  N 
ATOM     27  C   ASP E 179       2.375 -27.250  27.472  1.00 52.76 LIG 0.24  C 
ATOM     28 O    ASP E 179       2.505 -28.290  28.119  1.00 54.54 LIG-0.27  OA
ATOM     29 H    ASP E 180       2.061 -26.452  25.740  1.00 48.48 LIG 0.16  HD
BRANCH 27 30
ATOM     30  CA  ASP E 179       2.449 -25.888  28.159  1.00 62.98 LIG 0.19  C 
BRANCH 30 31
ATOM     31  N   ASP E 179       1.325 -25.568  29.043  1.00 68.60 LIG-0.34  N 
ATOM     32  C   VAL E 178       0.201 -24.999  28.607  1.00 59.78 LIG 0.26  C 
ATOM     33 O    VAL E 178       0.089 -24.498  27.487  1.00 49.42 LIG-0.27  OA
ATOM     34 H    ASP E 179       1.458 -25.780  29.865  1.00 68.60 LIG 0.16  HD
BRANCH 32 35
ATOM     35  CA  VAL E 178      -0.964 -24.968  29.601  1.00 59.92 LIG 0.40  C 
ATOM     36  N   VAL E 178      -1.341 -23.604  29.957  1.00 55.12 LIG 0.61  N 
BRANCH 35 37
ATOM     37  CB  VAL E 178      -2.163 -25.746  28.998  1.00 50.97 LIG 0.03  C 
ATOM     38  CG2 VAL E 178      -3.132 -26.190  30.084  1.00 47.22 LIG 0.01  C 
ATOM     39  CG1 VAL E 178      -1.666 -26.940  28.212  1.00 50.59 LIG 0.01  C 
ENDBRANCH 35 37
ENDBRANCH 32 35
ENDBRANCH 30 31
BRANCH 30 40
ATOM     40  CB  ASP E 179       3.756 -25.816  28.948  1.00 47.75 LIG 0.15  C 
BRANCH 40 41
ATOM     41  CG  ASP E 179       4.962 -25.680  28.054  1.00 48.80 LIG 0.17  C 
ATOM     42 OD2  ASP E 179       5.004 -26.350  26.993  1.00 55.56 LIG-0.65  OA
ATOM     43 OD1  ASP E 179       5.866 -24.900  28.414  1.00 40.87 LIG-0.65  OA
ENDBRANCH 40 41
ENDBRANCH 30 40
ENDBRANCH 27 30
ENDBRANCH 1 26
TORSDOF 19
ENDMDL
MODEL 11
USER: ADFR SOLUTION from run 115
USER: SCORE 12.674087 LL:  -1.546 LR: -12.384 RR:   0.000 FEB:  -6.717
USER: RMSD 9.657672
USER: SEED 114
USER: STATUS no improvement in best in 3 clusters for 5 generations
USER: GENES 21
USER: genes 0 Translation |==|  0.52697 0.57485 0.55307
USER: genes 1 Rotation |==|  0.31252 0.15234 0.79606 0.57956
USER: genes 2 Torsion [C]-CA--CB-[CG] |==|  0.38099
USER: genes 3 Torsion [CA]-CB--CG-[OD1] |==|  0.96655
USER: genes 4 Torsion [N]-CA--C-[N] |==|  0.13679
USER: genes 5 Torsion [C]-N--CA-[CB] |==|  0.23166
USER: genes 6 Torsion [N]-CA--C-[N] |==|  0.55419
USER: genes 7 Torsion [C]-N--CA-[CB] |==|  0.46436
USER: genes 8 Torsion [N]-CA--CB-[CG] |==|  0.34876
USER: genes 9 Torsion [CA]-CB--CG-[SD] |==|  0.24109
USER: genes 10 Torsion [CB]-CG--SD-[CE] |==|  0.58378
USER: genes 11 Torsion [N]-CA--C-[O] |==|  0.15174
USER: genes 12 Torsion [N]-CA--CB-[CG] |==|  0.17487
USER: genes 13 Torsion [CA]-CB--CG-[OD1] |==|  0.74941
USER: genes 14 Torsion [CB]-CA--N-[C] |==|  0.15524
USER: genes 15 Torsion [N]-C--CA-[N] |==|  0.42222
USER: genes 16 Torsion [C]-CA--N-[C] |==|  0.63674
USER: genes 17 Torsion [N]-C--CA-[N] |==|  0.85486
USER: genes 18 Torsion [C]-CA--CB-[CG2] |==|  0.44796
USER: genes 19 Torsion [C]-CA--CB-[CG] |==|  0.40085
USER: genes 20 Torsion [CA]-CB--CG-[OD2] |==|  0.87129
ROOT
ATOM      1  CA  ASP E 180       3.129 -26.301  27.606  1.00 46.29 LIG 0.19  C 
ENDROOT
BRANCH 1 2
ATOM      2  CB  ASP E 180       3.958 -26.846  28.764  1.00 53.57 LIG 0.15  C 
BRANCH 2 3
ATOM      3  CG  ASP E 180       5.263 -26.105  28.941  1.00 52.91 LIG 0.17  C 
ATOM      4 OD1  ASP E 180       5.632 -25.325  28.035  1.00 53.16 LIG-0.65  OA
ATOM      5 OD2  ASP E 180       5.916 -26.296  29.987  1.00 39.91 LIG-0.65  OA
ENDBRANCH 2 3
ENDBRANCH 1 2
BRANCH 1 6
ATOM      6  C   ASP E 180       2.534 -27.463  26.798  1.00 46.16 LIG 0.24  C 
ATOM      7 O    ASP E 180       2.868 -28.626  27.036  1.00 47.92 LIG-0.27  OA
ATOM      8  N   ASP E 181       1.657 -27.161  25.847  1.00 48.75 LIG-0.34  N 
ATOM      9 H    ASP E 181       1.437 -26.361  25.621  1.00 48.75 LIG 0.16  HD
BRANCH 8 10
ATOM     10  CA  ASP E 181       0.988 -28.222  25.100  1.00 45.01 LIG 0.19  C 
BRANCH 10 11
ATOM     11  C   ASP E 181       0.558 -27.786  23.702  1.00 47.33 LIG 0.24  C 
ATOM     12 O    ASP E 181       1.051 -26.791  23.156  1.00 41.27 LIG-0.27  OA
ATOM     13  N   MET E 182      -0.385 -28.540  23.144  1.00 63.00 LIG-0.35  N 
ATOM     14 H    MET E 182      -0.771 -29.192  23.550  1.00 63.00 LIG 0.16  HD
BRANCH 13 15
ATOM     15  CA  MET E 182      -0.856 -28.332  21.783  1.00 43.88 LIG 0.16  C 
BRANCH 15 16
ATOM     16  CB  MET E 182      -1.690 -29.530  21.330  1.00 44.38 LIG 0.04  C 
BRANCH 16 17
ATOM     17  CG  MET E 182      -3.072 -29.159  20.831  1.00 63.17 LIG 0.08  C 
BRANCH 17 18
ATOM     18 SD   MET E 182      -3.084 -28.736  19.080  1.00101.17 LIG-0.17  SA
ATOM     19  CE  MET E 182      -4.432 -27.556  19.031  1.00 68.91 LIG 0.09  C 
ENDBRANCH 17 18
ENDBRANCH 16 17
ENDBRANCH 15 16
BRANCH 15 20
ATOM     20  C   MET E 182      -1.673 -27.045  21.664  1.00 60.82 LIG 0.22  C 
ATOM     21 O    MET E 182      -1.212 -25.958  22.029  1.00 58.83 LIG-0.29  OA
ENDBRANCH 15 20
ENDBRANCH 13 15
ENDBRANCH 10 11
BRANCH 10 22
ATOM     22  CB  ASP E 181      -0.220 -28.731  25.885  1.00 40.72 LIG 0.15  C 
BRANCH 22 23
ATOM     23  CG  ASP E 181      -1.268 -27.657  26.086  1.00 40.82 LIG 0.17  C 
ATOM     24 OD1  ASP E 181      -1.208 -26.931  27.104  1.00 47.44 LIG-0.65  OA
ATOM     25 OD2  ASP E 181      -2.148 -27.536  25.211  1.00 24.37 LIG-0.65  OA
ENDBRANCH 22 23
ENDBRANCH 10 22
ENDBRANCH 8 10
ENDBRANCH 1 6
BRANCH 1 26
ATOM     26  N   ASP E 180       2.048 -25.428  28.075  1.00 48.48 LIG-0.34  N 
ATOM     27  C   ASP E 179       2.201 -24.345  28.841  1.00 52.76 LIG 0.24  C 
ATOM     28 O    ASP E 179       3.281 -23.946  29.279  1.00 54.54 LIG-0.27  OA
ATOM     29 H    ASP E 180       1.274 -25.686  27.802  1.00 48.48 LIG 0.16  HD
BRANCH 27 30
ATOM     30  CA  ASP E 179       0.906 -23.599  29.153  1.00 62.98 LIG 0.19  C 
BRANCH 30 31
ATOM     31  N   ASP E 179       0.897 -22.858  30.419  1.00 68.60 LIG-0.34  N 
ATOM     32  C   VAL E 178      -0.090 -22.958  31.308  1.00 59.78 LIG 0.26  C 
ATOM     33 O    VAL E 178      -1.170 -23.498  31.060  1.00 49.42 LIG-0.27  OA
ATOM     34 H    ASP E 179       1.585 -22.356  30.532  1.00 68.60 LIG 0.16  HD
BRANCH 32 35
ATOM     35  CA  VAL E 178       0.175 -22.326  32.678  1.00 59.92 LIG 0.40  C 
ATOM     36  N   VAL E 178       1.430 -22.792  33.259  1.00 55.12 LIG 0.61  N 
BRANCH 35 37
ATOM     37  CB  VAL E 178       0.159 -20.782  32.533  1.00 50.97 LIG 0.03  C 
ATOM     38  CG2 VAL E 178      -0.044 -20.105  33.881  1.00 47.22 LIG 0.01  C 
ATOM     39  CG1 VAL E 178      -0.923 -20.361  31.561  1.00 50.59 LIG 0.01  C 
ENDBRANCH 35 37
ENDBRANCH 32 35
ENDBRANCH 30 31
BRANCH 30 40
ATOM     40  CB  ASP E 179       0.610 -22.641  28.000  1.00 47.75 LIG 0.15  C 
BRANCH 40 41
ATOM     41  CG  ASP E 179      -0.867 -22.516  27.720  1.00 48.80 LIG 0.17  C 
ATOM     42 OD2  ASP E 179      -1.558 -23.561  27.656  1.00 55.56 LIG-0.65  OA
ATOM     43 OD1  ASP E 179      -1.333 -21.369  27.567  1.00 40.87 LIG-0.65  OA
ENDBRANCH 40 41
ENDBRANCH 30 40
ENDBRANCH 27 30
ENDBRANCH 1 26
TORSDOF 19
ENDMDL
MODEL 12
USER: ADFR SOLUTION from run 9
USER: SCORE 12.604995 LL:  -2.161 LR: -12.369 RR:   0.000 FEB:  -6.701
USER: RMSD 9.784992
USER: SEED 515106
USER: STATUS no improvement in best in 23 clusters for 5 generations
USER: GENES 21
USER: genes 0 Translation |==|  0.52823 0.58393 0.55063
USER: genes 1 Rotation |==|  0.31061 0.14976 0.80243 0.50145
USER: genes 2 Torsion [C]-CA--CB-[CG] |==|  0.29761
USER: genes 3 Torsion [CA]-CB--CG-[OD1] |==|  0.53122
USER: genes 4 Torsion [N]-CA--C-[N] |==|  0.12404
USER: genes 5 Torsion [C]-N--CA-[CB] |==|  0.48969
USER: genes 6 Torsion [N]-CA--C-[N] |==|  0.94256
USER: genes 7 Torsion [C]-N--CA-[CB] |==|  0.31549
USER: genes 8 Torsion [N]-CA--CB-[CG] |==|  0.61806
USER: genes 9 Torsion [CA]-CB--CG-[SD] |==|  0.62136
USER: genes 10 Torsion [CB]-CG--SD-[CE] |==|  0.19049
USER: genes 11 Torsion [N]-CA--C-[O] |==|  0.94754
USER: genes 12 Torsion [N]-CA--CB-[CG] |==|  0.92428
USER: genes 13 Torsion [CA]-CB--CG-[OD1] |==|  0.37364
USER: genes 14 Torsion [CB]-CA--N-[C] |==|  0.15903
USER: genes 15 Torsion [N]-C--CA-[N] |==|  0.24848
USER: genes 16 Torsion [C]-CA--N-[C] |==|  0.65302
USER: genes 17 Torsion [N]-C--CA-[N] |==|  0.45057
USER: genes 18 Torsion [C]-CA--CB-[CG2] |==|  0.24106
USER: genes 19 Torsion [C]-CA--CB-[CG] |==|  0.43555
USER: genes 20 Torsion [CA]-CB--CG-[OD2] |==|  0.96166
ROOT
ATOM      1  CA  ASP E 180       3.156 -26.151  27.556  1.00 46.29 LIG 0.19  C 
ENDROOT
BRANCH 1 2
ATOM      2  CB  ASP E 180       3.787 -26.391  28.924  1.00 53.57 LIG 0.15  C 
BRANCH 2 3
ATOM      3  CG  ASP E 180       5.233 -25.957  28.980  1.00 52.91 LIG 0.17  C 
ATOM      4 OD1  ASP E 180       5.917 -26.295  29.971  1.00 53.16 LIG-0.65  OA
ATOM      5 OD2  ASP E 180       5.688 -25.286  28.031  1.00 39.91 LIG-0.65  OA
ENDBRANCH 2 3
ENDBRANCH 1 2
BRANCH 1 6
ATOM      6  C   ASP E 180       2.965 -27.489  26.828  1.00 46.16 LIG 0.24  C 
ATOM      7 O    ASP E 180       3.502 -28.515  27.252  1.00 47.92 LIG-0.27  OA
ATOM      8  N   ASP E 181       2.206 -27.488  25.738  1.00 48.75 LIG-0.34  N 
ATOM      9 H    ASP E 181       1.856 -26.786  25.386  1.00 48.75 LIG 0.16  HD
BRANCH 8 10
ATOM     10  CA  ASP E 181       1.912 -28.740  25.047  1.00 45.01 LIG 0.19  C 
BRANCH 10 11
ATOM     11  C   ASP E 181       3.165 -29.449  24.541  1.00 47.33 LIG 0.24  C 
ATOM     12 O    ASP E 181       3.166 -30.663  24.297  1.00 41.27 LIG-0.27  OA
ATOM     13  N   MET E 182       4.236 -28.672  24.408  1.00 63.00 LIG-0.35  N 
ATOM     14 H    MET E 182       4.250 -27.844  24.638  1.00 63.00 LIG 0.16  HD
BRANCH 13 15
ATOM     15  CA  MET E 182       5.494 -29.152  23.854  1.00 43.88 LIG 0.16  C 
BRANCH 15 16
ATOM     16  CB  MET E 182       5.776 -28.460  22.521  1.00 44.38 LIG 0.04  C 
BRANCH 16 17
ATOM     17  CG  MET E 182       6.302 -29.392  21.448  1.00 63.17 LIG 0.08  C 
BRANCH 17 18
ATOM     18 SD   MET E 182       7.677 -28.679  20.527  1.00101.17 LIG-0.17  SA
ATOM     19  CE  MET E 182       8.948 -28.658  21.790  1.00 68.91 LIG 0.09  C 
ENDBRANCH 17 18
ENDBRANCH 16 17
ENDBRANCH 15 16
BRANCH 15 20
ATOM     20  C   MET E 182       6.655 -28.923  24.824  1.00 60.82 LIG 0.22  C 
ATOM     21 O    MET E 182       6.566 -28.108  25.748  1.00 58.83 LIG-0.29  OA
ENDBRANCH 15 20
ENDBRANCH 13 15
ENDBRANCH 10 11
BRANCH 10 22
ATOM     22  CB  ASP E 181       0.951 -28.483  23.887  1.00 40.72 LIG 0.15  C 
BRANCH 22 23
ATOM     23  CG  ASP E 181       0.074 -27.272  24.126  1.00 40.82 LIG 0.17  C 
ATOM     24 OD1  ASP E 181      -0.083 -26.443  23.201  1.00 47.44 LIG-0.65  OA
ATOM     25 OD2  ASP E 181      -0.468 -27.161  25.244  1.00 24.37 LIG-0.65  OA
ENDBRANCH 22 23
ENDBRANCH 10 22
ENDBRANCH 8 10
ENDBRANCH 1 6
BRANCH 1 26
ATOM     26  N   ASP E 180       1.865 -25.466  27.666  1.00 48.48 LIG-0.34  N 
ATOM     27  C   ASP E 179       1.660 -24.285  28.255  1.00 52.76 LIG 0.24  C 
ATOM     28 O    ASP E 179       2.534 -23.620  28.812  1.00 54.54 LIG-0.27  OA
ATOM     29 H    ASP E 180       1.224 -25.909  27.303  1.00 48.48 LIG 0.16  HD
BRANCH 27 30
ATOM     30  CA  ASP E 179       0.218 -23.786  28.195  1.00 62.98 LIG 0.19  C 
BRANCH 30 31
ATOM     31  N   ASP E 179      -0.640 -24.206  29.307  1.00 68.60 LIG-0.34  N 
ATOM     32  C   VAL E 178      -1.795 -24.846  29.128  1.00 59.78 LIG 0.26  C 
ATOM     33 O    VAL E 178      -2.348 -24.947  28.031  1.00 49.42 LIG-0.27  OA
ATOM     34 H    ASP E 179      -0.329 -24.002  30.082  1.00 68.60 LIG 0.16  HD
BRANCH 32 35
ATOM     35  CA  VAL E 178      -2.437 -25.437  30.387  1.00 59.92 LIG 0.40  C 
ATOM     36  N   VAL E 178      -3.851 -25.740  30.188  1.00 55.12 LIG 0.61  N 
BRANCH 35 37
ATOM     37  CB  VAL E 178      -1.644 -26.701  30.812  1.00 50.97 LIG 0.03  C 
ATOM     38  CG2 VAL E 178      -0.469 -26.337  31.708  1.00 47.22 LIG 0.01  C 
ATOM     39  CG1 VAL E 178      -1.165 -27.451  29.587  1.00 50.59 LIG 0.01  C 
ENDBRANCH 35 37
ENDBRANCH 32 35
ENDBRANCH 30 31
BRANCH 30 40
ATOM     40  CB  ASP E 179       0.238 -22.260  28.115  1.00 47.75 LIG 0.15  C 
BRANCH 40 41
ATOM     41  CG  ASP E 179      -1.023 -21.699  27.506  1.00 48.80 LIG 0.17  C 
ATOM     42 OD2  ASP E 179      -1.801 -22.480  26.906  1.00 55.56 LIG-0.65  OA
ATOM     43 OD1  ASP E 179      -1.233 -20.476  27.631  1.00 40.87 LIG-0.65  OA
ENDBRANCH 40 41
ENDBRANCH 30 40
ENDBRANCH 27 30
ENDBRANCH 1 26
TORSDOF 19
ENDMDL
MODEL 13
USER: ADFR SOLUTION from run 102
USER: SCORE 12.184147 LL:  -1.174 LR: -12.318 RR:   0.000 FEB:  -6.651
USER: RMSD 9.919075
USER: SEED 101
USER: STATUS no improvement in best in 14 clusters for 5 generations
USER: GENES 21
USER: genes 0 Translation |==|  0.51592 0.67239 0.60660
USER: genes 1 Rotation |==|  0.45441 0.17081 0.86920 0.55694
USER: genes 2 Torsion [C]-CA--CB-[CG] |==|  0.10065
USER: genes 3 Torsion [CA]-CB--CG-[OD1] |==|  0.14634
USER: genes 4 Torsion [N]-CA--C-[N] |==|  0.37097
USER: genes 5 Torsion [C]-N--CA-[CB] |==|  0.21646
USER: genes 6 Torsion [N]-CA--C-[N] |==|  0.21014
USER: genes 7 Torsion [C]-N--CA-[CB] |==|  0.51456
USER: genes 8 Torsion [N]-CA--CB-[CG] |==|  0.64020
USER: genes 9 Torsion [CA]-CB--CG-[SD] |==|  0.82948
USER: genes 10 Torsion [CB]-CG--SD-[CE] |==|  0.72814
USER: genes 11 Torsion [N]-CA--C-[O] |==|  0.37927
USER: genes 12 Torsion [N]-CA--CB-[CG] |==|  0.12198
USER: genes 13 Torsion [CA]-CB--CG-[OD1] |==|  0.34829
USER: genes 14 Torsion [CB]-CA--N-[C] |==|  0.57451
USER: genes 15 Torsion [N]-C--CA-[N] |==|  0.93230
USER: genes 16 Torsion [C]-CA--N-[C] |==|  0.82383
USER: genes 17 Torsion [N]-C--CA-[N] |==|  0.55600
USER: genes 18 Torsion [C]-CA--CB-[CG2] |==|  0.78346
USER: genes 19 Torsion [C]-CA--CB-[CG] |==|  0.11294
USER: genes 20 Torsion [CA]-CB--CG-[OD2] |==|  0.67129
ROOT
ATOM      1  CA  ASP E 180       2.888 -24.692  28.690  1.00 46.29 LIG 0.19  C 
ENDROOT
BRANCH 1 2
ATOM      2  CB  ASP E 180       4.206 -24.515  29.438  1.00 53.57 LIG 0.15  C 
BRANCH 2 3
ATOM      3  CG  ASP E 180       5.297 -25.417  28.911  1.00 52.91 LIG 0.17  C 
ATOM      4 OD1  ASP E 180       5.542 -25.401  27.684  1.00 53.16 LIG-0.65  OA
ATOM      5 OD2  ASP E 180       5.914 -26.137  29.723  1.00 39.91 LIG-0.65  OA
ENDBRANCH 2 3
ENDBRANCH 1 2
BRANCH 1 6
ATOM      6  C   ASP E 180       2.697 -26.167  28.311  1.00 46.16 LIG 0.24  C 
ATOM      7 O    ASP E 180       2.347 -26.990  29.159  1.00 47.92 LIG-0.27  OA
ATOM      8  N   ASP E 181       2.923 -26.508  27.047  1.00 48.75 LIG-0.34  N 
ATOM      9 H    ASP E 181       3.215 -25.972  26.440  1.00 48.75 LIG 0.16  HD
BRANCH 8 10
ATOM     10  CA  ASP E 181       2.677 -27.875  26.600  1.00 45.01 LIG 0.19  C 
BRANCH 10 11
ATOM     11  C   ASP E 181       3.442 -28.233  25.329  1.00 47.33 LIG 0.24  C 
ATOM     12 O    ASP E 181       2.873 -28.314  24.233  1.00 41.27 LIG-0.27  OA
ATOM     13  N   MET E 182       4.741 -28.464  25.502  1.00 63.00 LIG-0.35  N 
ATOM     14 H    MET E 182       5.122 -28.470  26.272  1.00 63.00 LIG 0.16  HD
BRANCH 13 15
ATOM     15  CA  MET E 182       5.647 -28.731  24.394  1.00 43.88 LIG 0.16  C 
BRANCH 15 16
ATOM     16  CB  MET E 182       7.036 -29.081  24.928  1.00 44.38 LIG 0.04  C 
BRANCH 16 17
ATOM     17  CG  MET E 182       8.156 -28.286  24.288  1.00 63.17 LIG 0.08  C 
BRANCH 17 18
ATOM     18 SD   MET E 182       8.273 -28.563  22.512  1.00101.17 LIG-0.17  SA
ATOM     19  CE  MET E 182       9.582 -29.787  22.451  1.00 68.91 LIG 0.09  C 
ENDBRANCH 17 18
ENDBRANCH 16 17
ENDBRANCH 15 16
BRANCH 15 20
ATOM     20  C   MET E 182       5.124 -29.858  23.502  1.00 60.82 LIG 0.22  C 
ATOM     21 O    MET E 182       5.167 -29.772  22.271  1.00 58.83 LIG-0.29  OA
ENDBRANCH 15 20
ENDBRANCH 13 15
ENDBRANCH 10 11
BRANCH 10 22
ATOM     22  CB  ASP E 181       1.179 -28.093  26.388  1.00 40.72 LIG 0.15  C 
BRANCH 22 23
ATOM     23  CG  ASP E 181       0.528 -26.934  25.662  1.00 40.82 LIG 0.17  C 
ATOM     24 OD1  ASP E 181      -0.125 -27.161  24.618  1.00 47.44 LIG-0.65  OA
ATOM     25 OD2  ASP E 181       0.664 -25.795  26.149  1.00 24.37 LIG-0.65  OA
ENDBRANCH 22 23
ENDBRANCH 10 22
ENDBRANCH 8 10
ENDBRANCH 1 6
BRANCH 1 26
ATOM     26  N   ASP E 180       1.745 -24.239  29.489  1.00 48.48 LIG-0.34  N 
ATOM     27  C   ASP E 179       0.493 -24.690  29.378  1.00 52.76 LIG 0.24  C 
ATOM     28 O    ASP E 179       0.124 -25.537  28.564  1.00 54.54 LIG-0.27  OA
ATOM     29 H    ASP E 180       1.961 -23.633  30.059  1.00 48.48 LIG 0.16  HD
BRANCH 27 30
ATOM     30  CA  ASP E 179      -0.496 -24.068  30.362  1.00 62.98 LIG 0.19  C 
BRANCH 30 31
ATOM     31  N   ASP E 179       0.093 -23.535  31.594  1.00 68.60 LIG-0.34  N 
ATOM     32  C   VAL E 178       0.720 -24.301  32.487  1.00 59.78 LIG 0.26  C 
ATOM     33 O    VAL E 178       0.672 -25.532  32.472  1.00 49.42 LIG-0.27  OA
ATOM     34 H    ASP E 179      -0.003 -22.686  31.685  1.00 68.60 LIG 0.16  HD
BRANCH 32 35
ATOM     35  CA  VAL E 178       1.496 -23.559  33.579  1.00 59.92 LIG 0.40  C 
ATOM     36  N   VAL E 178       2.504 -24.409  34.204  1.00 55.12 LIG 0.61  N 
BRANCH 35 37
ATOM     37  CB  VAL E 178       2.133 -22.284  32.969  1.00 50.97 LIG 0.03  C 
ATOM     38  CG2 VAL E 178       3.383 -22.623  32.169  1.00 47.22 LIG 0.01  C 
ATOM     39  CG1 VAL E 178       2.457 -21.289  34.062  1.00 50.59 LIG 0.01  C 
ENDBRANCH 35 37
ENDBRANCH 32 35
ENDBRANCH 30 31
BRANCH 30 40
ATOM     40  CB  ASP E 179      -1.262 -22.960  29.641  1.00 47.75 LIG 0.15  C 
BRANCH 40 41
ATOM     41  CG  ASP E 179      -1.636 -23.342  28.231  1.00 48.80 LIG 0.17  C 
ATOM     42 OD2  ASP E 179      -1.179 -22.661  27.281  1.00 55.56 LIG-0.65  OA
ATOM     43 OD1  ASP E 179      -2.386 -24.326  28.076  1.00 40.87 LIG-0.65  OA
ENDBRANCH 40 41
ENDBRANCH 30 40
ENDBRANCH 27 30
ENDBRANCH 1 26
TORSDOF 19
ENDMDL
MODEL 14
USER: ADFR SOLUTION from run 98
USER: SCORE 12.298697 LL:  -1.685 LR: -12.209 RR:   0.000 FEB:  -6.541
USER: RMSD 8.939805
USER: SEED 97
USER: STATUS no improvement in best in 14 clusters for 5 generations
USER: GENES 21
USER: genes 0 Translation |==|  0.53103 0.63924 0.61298
USER: genes 1 Rotation |==|  0.94207 0.44517 0.72676 0.51230
USER: genes 2 Torsion [C]-CA--CB-[CG] |==|  0.24322
USER: genes 3 Torsion [CA]-CB--CG-[OD1] |==|  0.91253
USER: genes 4 Torsion [N]-CA--C-[N] |==|  0.44596
USER: genes 5 Torsion [C]-N--CA-[CB] |==|  0.22631
USER: genes 6 Torsion [N]-CA--C-[N] |==|  0.00899
USER: genes 7 Torsion [C]-N--CA-[CB] |==|  0.20861
USER: genes 8 Torsion [N]-CA--CB-[CG] |==|  0.60407
USER: genes 9 Torsion [CA]-CB--CG-[SD] |==|  0.80376
USER: genes 10 Torsion [CB]-CG--SD-[CE] |==|  0.43037
USER: genes 11 Torsion [N]-CA--C-[O] |==|  0.36808
USER: genes 12 Torsion [N]-CA--CB-[CG] |==|  0.61804
USER: genes 13 Torsion [CA]-CB--CG-[OD1] |==|  0.05555
USER: genes 14 Torsion [CB]-CA--N-[C] |==|  0.27222
USER: genes 15 Torsion [N]-C--CA-[N] |==|  0.42920
USER: genes 16 Torsion [C]-CA--N-[C] |==|  0.77383
USER: genes 17 Torsion [N]-C--CA-[N] |==|  0.29396
USER: genes 18 Torsion [C]-CA--CB-[CG2] |==|  0.07176
USER: genes 19 Torsion [C]-CA--CB-[CG] |==|  0.11406
USER: genes 20 Torsion [CA]-CB--CG-[OD2] |==|  0.67504
ROOT
ATOM      1  CA  ASP E 180       3.217 -25.239  28.819  1.00 46.29 LIG 0.19  C 
ENDROOT
BRANCH 1 2
ATOM      2  CB  ASP E 180       2.355 -24.163  28.165  1.00 53.57 LIG 0.15  C 
BRANCH 2 3
ATOM      3  CG  ASP E 180       1.044 -24.706  27.648  1.00 52.91 LIG 0.17  C 
ATOM      4 OD1  ASP E 180       1.009 -25.888  27.239  1.00 53.16 LIG-0.65  OA
ATOM      5 OD2  ASP E 180       0.046 -23.956  27.656  1.00 39.91 LIG-0.65  OA
ENDBRANCH 2 3
ENDBRANCH 1 2
BRANCH 1 6
ATOM      6  C   ASP E 180       4.086 -25.927  27.758  1.00 46.16 LIG 0.24  C 
ATOM      7 O    ASP E 180       5.286 -25.661  27.661  1.00 47.92 LIG-0.27  OA
ATOM      8  N   ASP E 181       3.493 -26.811  26.961  1.00 48.75 LIG-0.34  N 
ATOM      9 H    ASP E 181       2.651 -26.986  26.967  1.00 48.75 LIG 0.16  HD
BRANCH 8 10
ATOM     10  CA  ASP E 181       4.277 -27.566  25.989  1.00 45.01 LIG 0.19  C 
BRANCH 10 11
ATOM     11  C   ASP E 181       3.449 -28.048  24.801  1.00 47.33 LIG 0.24  C 
ATOM     12 O    ASP E 181       3.948 -28.739  23.904  1.00 41.27 LIG-0.27  OA
ATOM     13  N   MET E 182       2.179 -27.652  24.804  1.00 63.00 LIG-0.35  N 
ATOM     14 H    MET E 182       1.851 -27.120  25.394  1.00 63.00 LIG 0.16  HD
BRANCH 13 15
ATOM     15  CA  MET E 182       1.216 -28.087  23.803  1.00 43.88 LIG 0.16  C 
BRANCH 15 16
ATOM     16  CB  MET E 182       0.797 -29.531  24.073  1.00 44.38 LIG 0.04  C 
BRANCH 16 17
ATOM     17  CG  MET E 182       0.596 -30.355  22.817  1.00 63.17 LIG 0.08  C 
BRANCH 17 18
ATOM     18 SD   MET E 182      -0.872 -29.863  21.895  1.00101.17 LIG-0.17  SA
ATOM     19  CE  MET E 182      -0.425 -30.401  20.245  1.00 68.91 LIG 0.09  C 
ENDBRANCH 17 18
ENDBRANCH 16 17
ENDBRANCH 15 16
BRANCH 15 20
ATOM     20  C   MET E 182      -0.013 -27.176  23.776  1.00 60.82 LIG 0.22  C 
ATOM     21 O    MET E 182      -0.462 -26.738  22.711  1.00 58.83 LIG-0.29  OA
ENDBRANCH 15 20
ENDBRANCH 13 15
ENDBRANCH 10 11
BRANCH 10 22
ATOM     22  CB  ASP E 181       4.953 -28.753  26.673  1.00 40.72 LIG 0.15  C 
BRANCH 22 23
ATOM     23  CG  ASP E 181       6.386 -28.938  26.220  1.00 40.82 LIG 0.17  C 
ATOM     24 OD1  ASP E 181       6.984 -27.974  25.690  1.00 47.44 LIG-0.65  OA
ATOM     25 OD2  ASP E 181       6.914 -30.051  26.407  1.00 24.37 LIG-0.65  OA
ENDBRANCH 22 23
ENDBRANCH 10 22
ENDBRANCH 8 10
ENDBRANCH 1 6
BRANCH 1 26
ATOM     26  N   ASP E 180       4.076 -24.682  29.869  1.00 48.48 LIG-0.34  N 
ATOM     27  C   ASP E 179       3.815 -24.702  31.178  1.00 52.76 LIG 0.24  C 
ATOM     28 O    ASP E 179       2.795 -25.175  31.680  1.00 54.54 LIG-0.27  OA
ATOM     29 H    ASP E 180       4.793 -24.327  29.554  1.00 48.48 LIG 0.16  HD
BRANCH 27 30
ATOM     30  CA  ASP E 179       4.901 -24.080  32.053  1.00 62.98 LIG 0.19  C 
BRANCH 30 31
ATOM     31  N   ASP E 179       4.446 -23.560  33.345  1.00 68.60 LIG-0.34  N 
ATOM     32  C   VAL E 178       3.874 -22.364  33.483  1.00 59.78 LIG 0.26  C 
ATOM     33 O    VAL E 178       3.874 -21.510  32.595  1.00 49.42 LIG-0.27  OA
ATOM     34 H    ASP E 179       4.582 -24.097  34.003  1.00 68.60 LIG 0.16  HD
BRANCH 32 35
ATOM     35  CA  VAL E 178       3.228 -22.082  34.844  1.00 59.92 LIG 0.40  C 
ATOM     36  N   VAL E 178       4.025 -21.158  35.644  1.00 55.12 LIG 0.61  N 
BRANCH 35 37
ATOM     37  CB  VAL E 178       1.793 -21.540  34.618  1.00 50.97 LIG 0.03  C 
ATOM     38  CG2 VAL E 178       1.226 -22.021  33.290  1.00 47.22 LIG 0.01  C 
ATOM     39  CG1 VAL E 178       1.792 -20.028  34.679  1.00 50.59 LIG 0.01  C 
ENDBRANCH 35 37
ENDBRANCH 32 35
ENDBRANCH 30 31
BRANCH 30 40
ATOM     40  CB  ASP E 179       5.995 -25.123  32.279  1.00 47.75 LIG 0.15  C 
BRANCH 40 41
ATOM     41  CG  ASP E 179       6.305 -25.912  31.032  1.00 48.80 LIG 0.17  C 
ATOM     42 OD2  ASP E 179       6.092 -27.149  31.033  1.00 55.56 LIG-0.65  OA
ATOM     43 OD1  ASP E 179       6.760 -25.291  30.051  1.00 40.87 LIG-0.65  OA
ENDBRANCH 40 41
ENDBRANCH 30 40
ENDBRANCH 27 30
ENDBRANCH 1 26
TORSDOF 19
ENDMDL
MODEL 15
USER: ADFR SOLUTION from run 39
USER: SCORE 12.692917 LL:  -2.138 LR: -12.149 RR:   0.000 FEB:  -6.482
USER: RMSD 6.112082
USER: SEED 38
USER: STATUS no improvement in best in 10 clusters for 5 generations
USER: GENES 21
USER: genes 0 Translation |==|  0.46094 0.68326 0.58291
USER: genes 1 Rotation |==|  0.57890 0.73175 0.37870 0.91876
USER: genes 2 Torsion [C]-CA--CB-[CG] |==|  0.49604
USER: genes 3 Torsion [CA]-CB--CG-[OD1] |==|  0.31001
USER: genes 4 Torsion [N]-CA--C-[N] |==|  0.85558
USER: genes 5 Torsion [C]-N--CA-[CB] |==|  0.78753
USER: genes 6 Torsion [N]-CA--C-[N] |==|  0.69501
USER: genes 7 Torsion [C]-N--CA-[CB] |==|  0.43476
USER: genes 8 Torsion [N]-CA--CB-[CG] |==|  0.96059
USER: genes 9 Torsion [CA]-CB--CG-[SD] |==|  0.51228
USER: genes 10 Torsion [CB]-CG--SD-[CE] |==|  0.56034
USER: genes 11 Torsion [N]-CA--C-[O] |==|  0.72981
USER: genes 12 Torsion [N]-CA--CB-[CG] |==|  0.92719
USER: genes 13 Torsion [CA]-CB--CG-[OD1] |==|  0.78468
USER: genes 14 Torsion [CB]-CA--N-[C] |==|  0.84948
USER: genes 15 Torsion [N]-C--CA-[N] |==|  0.33333
USER: genes 16 Torsion [C]-CA--N-[C] |==|  0.65129
USER: genes 17 Torsion [N]-C--CA-[N] |==|  0.30096
USER: genes 18 Torsion [C]-CA--CB-[CG2] |==|  0.75586
USER: genes 19 Torsion [C]-CA--CB-[CG] |==|  0.25772
USER: genes 20 Torsion [CA]-CB--CG-[OD2] |==|  0.60632
ROOT
ATOM      1  CA  ASP E 180       1.692 -24.512  28.210  1.00 46.29 LIG 0.19  C 
ENDROOT
BRANCH 1 2
ATOM      2  CB  ASP E 180       0.375 -24.664  28.963  1.00 53.57 LIG 0.15  C 
BRANCH 2 3
ATOM      3  CG  ASP E 180      -0.829 -24.468  28.071  1.00 52.91 LIG 0.17  C 
ATOM      4 OD1  ASP E 180      -1.553 -25.458  27.824  1.00 53.16 LIG-0.65  OA
ATOM      5 OD2  ASP E 180      -1.055 -23.326  27.622  1.00 39.91 LIG-0.65  OA
ENDBRANCH 2 3
ENDBRANCH 1 2
BRANCH 1 6
ATOM      6  C   ASP E 180       2.870 -24.687  29.179  1.00 46.16 LIG 0.24  C 
ATOM      7 O    ASP E 180       3.563 -23.721  29.503  1.00 47.92 LIG-0.27  OA
ATOM      8  N   ASP E 181       3.101 -25.910  29.645  1.00 48.75 LIG-0.34  N 
ATOM      9 H    ASP E 181       2.670 -26.615  29.405  1.00 48.75 LIG 0.16  HD
BRANCH 8 10
ATOM     10  CA  ASP E 181       4.149 -26.132  30.636  1.00 45.01 LIG 0.19  C 
BRANCH 10 11
ATOM     11  C   ASP E 181       4.106 -25.127  31.783  1.00 47.33 LIG 0.24  C 
ATOM     12 O    ASP E 181       3.190 -25.135  32.615  1.00 41.27 LIG-0.27  OA
ATOM     13  N   MET E 182       5.106 -24.249  31.799  1.00 63.00 LIG-0.35  N 
ATOM     14 H    MET E 182       5.706 -24.205  31.185  1.00 63.00 LIG 0.16  HD
BRANCH 13 15
ATOM     15  CA  MET E 182       5.281 -23.274  32.865  1.00 43.88 LIG 0.16  C 
BRANCH 15 16
ATOM     16  CB  MET E 182       6.742 -22.832  32.935  1.00 44.38 LIG 0.04  C 
BRANCH 16 17
ATOM     17  CG  MET E 182       7.689 -23.724  32.157  1.00 63.17 LIG 0.08  C 
BRANCH 17 18
ATOM     18 SD   MET E 182       9.414 -23.249  32.365  1.00101.17 LIG-0.17  SA
ATOM     19  CE  MET E 182      10.141 -23.984  30.901  1.00 68.91 LIG 0.09  C 
ENDBRANCH 17 18
ENDBRANCH 16 17
ENDBRANCH 15 16
BRANCH 15 20
ATOM     20  C   MET E 182       4.371 -22.060  32.668  1.00 60.82 LIG 0.22  C 
ATOM     21 O    MET E 182       4.791 -21.024  32.141  1.00 58.83 LIG-0.29  OA
ENDBRANCH 15 20
ENDBRANCH 13 15
ENDBRANCH 10 11
BRANCH 10 22
ATOM     22  CB  ASP E 181       5.520 -26.100  29.962  1.00 40.72 LIG 0.15  C 
BRANCH 22 23
ATOM     23  CG  ASP E 181       5.449 -26.485  28.499  1.00 40.82 LIG 0.17  C 
ATOM     24 OD1  ASP E 181       5.340 -27.694  28.194  1.00 47.44 LIG-0.65  OA
ATOM     25 OD2  ASP E 181       5.493 -25.567  27.656  1.00 24.37 LIG-0.65  OA
ENDBRANCH 22 23
ENDBRANCH 10 22
ENDBRANCH 8 10
ENDBRANCH 1 6
BRANCH 1 26
ATOM     26  N   ASP E 180       1.809 -25.483  27.118  1.00 48.48 LIG-0.34  N 
ATOM     27  C   ASP E 179       1.680 -26.807  27.238  1.00 52.76 LIG 0.24  C 
ATOM     28 O    ASP E 179       1.468 -27.395  28.299  1.00 54.54 LIG-0.27  OA
ATOM     29 H    ASP E 180       1.974 -25.110  26.361  1.00 48.48 LIG 0.16  HD
BRANCH 27 30
ATOM     30  CA  ASP E 179       1.815 -27.581  25.928  1.00 62.98 LIG 0.19  C 
BRANCH 30 31
ATOM     31  N   ASP E 179       2.904 -28.562  25.887  1.00 68.60 LIG-0.34  N 
ATOM     32  C   VAL E 178       3.840 -28.565  24.939  1.00 59.78 LIG 0.26  C 
ATOM     33 O    VAL E 178       3.757 -27.897  23.906  1.00 49.42 LIG-0.27  OA
ATOM     34 H    ASP E 179       2.881 -29.132  26.530  1.00 68.60 LIG 0.16  HD
BRANCH 32 35
ATOM     35  CA  VAL E 178       5.040 -29.486  25.183  1.00 59.92 LIG 0.40  C 
ATOM     36  N   VAL E 178       5.025 -30.646  24.299  1.00 55.12 LIG 0.61  N 
BRANCH 35 37
ATOM     37  CB  VAL E 178       6.346 -28.667  25.018  1.00 50.97 LIG 0.03  C 
ATOM     38  CG2 VAL E 178       6.812 -28.661  23.569  1.00 47.22 LIG 0.01  C 
ATOM     39  CG1 VAL E 178       7.427 -29.223  25.920  1.00 50.59 LIG 0.01  C 
ENDBRANCH 35 37
ENDBRANCH 32 35
ENDBRANCH 30 31
BRANCH 30 40
ATOM     40  CB  ASP E 179       0.487 -28.280  25.641  1.00 47.75 LIG 0.15  C 
BRANCH 40 41
ATOM     41  CG  ASP E 179      -0.423 -27.450  24.770  1.00 48.80 LIG 0.17  C 
ATOM     42 OD2  ASP E 179      -1.655 -27.456  25.008  1.00 55.56 LIG-0.65  OA
ATOM     43 OD1  ASP E 179       0.098 -26.791  23.848  1.00 40.87 LIG-0.65  OA
ENDBRANCH 40 41
ENDBRANCH 30 40
ENDBRANCH 27 30
ENDBRANCH 1 26
TORSDOF 19
ENDMDL
MODEL 16
USER: ADFR SOLUTION from run 69
USER: SCORE 11.975945 LL:  -2.283 LR: -12.116 RR:   0.000 FEB:  -6.448
USER: RMSD 4.657796
USER: SEED 68
USER: STATUS no improvement in best in 21 clusters for 5 generations
USER: GENES 21
USER: genes 0 Translation |==|  0.50019 0.61907 0.58555
USER: genes 1 Rotation |==|  0.20646 0.81741 0.74939 0.52974
USER: genes 2 Torsion [C]-CA--CB-[CG] |==|  0.56782
USER: genes 3 Torsion [CA]-CB--CG-[OD1] |==|  0.71673
USER: genes 4 Torsion [N]-CA--C-[N] |==|  0.59978
USER: genes 5 Torsion [C]-N--CA-[CB] |==|  0.78270
USER: genes 6 Torsion [N]-CA--C-[N] |==|  0.21657
USER: genes 7 Torsion [C]-N--CA-[CB] |==|  0.34684
USER: genes 8 Torsion [N]-CA--CB-[CG] |==|  0.88326
USER: genes 9 Torsion [CA]-CB--CG-[SD] |==|  0.71338
USER: genes 10 Torsion [CB]-CG--SD-[CE] |==|  0.26683
USER: genes 11 Torsion [N]-CA--C-[O] |==|  0.70903
USER: genes 12 Torsion [N]-CA--CB-[CG] |==|  0.62262
USER: genes 13 Torsion [CA]-CB--CG-[OD1] |==|  0.93927
USER: genes 14 Torsion [CB]-CA--N-[C] |==|  0.40616
USER: genes 15 Torsion [N]-C--CA-[N] |==|  0.26357
USER: genes 16 Torsion [C]-CA--N-[C] |==|  0.61338
USER: genes 17 Torsion [N]-C--CA-[N] |==|  0.32616
USER: genes 18 Torsion [C]-CA--CB-[CG2] |==|  0.76604
USER: genes 19 Torsion [C]-CA--CB-[CG] |==|  0.17509
USER: genes 20 Torsion [CA]-CB--CG-[OD2] |==|  0.76182
ROOT
ATOM      1  CA  ASP E 180       2.546 -25.571  28.263  1.00 46.29 LIG 0.19  C 
ENDROOT
BRANCH 1 2
ATOM      2  CB  ASP E 180       3.807 -24.915  28.817  1.00 53.57 LIG 0.15  C 
BRANCH 2 3
ATOM      3  CG  ASP E 180       5.054 -25.717  28.527  1.00 52.91 LIG 0.17  C 
ATOM      4 OD1  ASP E 180       5.542 -26.411  29.447  1.00 53.16 LIG-0.65  OA
ATOM      5 OD2  ASP E 180       5.542 -25.661  27.379  1.00 39.91 LIG-0.65  OA
ENDBRANCH 2 3
ENDBRANCH 1 2
BRANCH 1 6
ATOM      6  C   ASP E 180       1.463 -24.508  28.033  1.00 46.16 LIG 0.24  C 
ATOM      7 O    ASP E 180       0.530 -24.723  27.256  1.00 47.92 LIG-0.27  OA
ATOM      8  N   ASP E 181       1.577 -23.365  28.701  1.00 48.75 LIG-0.34  N 
ATOM      9 H    ASP E 181       2.237 -23.161  29.212  1.00 48.75 LIG 0.16  HD
BRANCH 8 10
ATOM     10  CA  ASP E 181       0.537 -22.346  28.595  1.00 45.01 LIG 0.19  C 
BRANCH 10 11
ATOM     11  C   ASP E 181      -0.872 -22.920  28.709  1.00 47.33 LIG 0.24  C 
ATOM     12 O    ASP E 181      -1.587 -23.080  27.712  1.00 41.27 LIG-0.27  OA
ATOM     13  N   MET E 182      -1.263 -23.208  29.948  1.00 63.00 LIG-0.35  N 
ATOM     14 H    MET E 182      -0.790 -23.037  30.644  1.00 63.00 LIG 0.16  HD
BRANCH 13 15
ATOM     15  CA  MET E 182      -2.538 -23.845  30.243  1.00 43.88 LIG 0.16  C 
BRANCH 15 16
ATOM     16  CB  MET E 182      -2.311 -25.113  31.065  1.00 44.38 LIG 0.04  C 
BRANCH 16 17
ATOM     17  CG  MET E 182      -1.137 -25.947  30.591  1.00 63.17 LIG 0.08  C 
BRANCH 17 18
ATOM     18 SD   MET E 182      -1.654 -27.399  29.659  1.00101.17 LIG-0.17  SA
ATOM     19  CE  MET E 182      -1.509 -26.787  27.981  1.00 68.91 LIG 0.09  C 
ENDBRANCH 17 18
ENDBRANCH 16 17
ENDBRANCH 15 16
BRANCH 15 20
ATOM     20  C   MET E 182      -3.479 -22.895  30.987  1.00 60.82 LIG 0.22  C 
ATOM     21 O    MET E 182      -3.689 -23.021  32.198  1.00 58.83 LIG-0.29  OA
ENDBRANCH 15 20
ENDBRANCH 13 15
ENDBRANCH 10 11
BRANCH 10 22
ATOM     22  CB  ASP E 181       0.687 -21.583  27.280  1.00 40.72 LIG 0.15  C 
BRANCH 22 23
ATOM     23  CG  ASP E 181       0.531 -20.087  27.463  1.00 40.82 LIG 0.17  C 
ATOM     24 OD1  ASP E 181      -0.083 -19.659  28.466  1.00 47.44 LIG-0.65  OA
ATOM     25 OD2  ASP E 181       1.037 -19.342  26.601  1.00 24.37 LIG-0.65  OA
ENDBRANCH 22 23
ENDBRANCH 10 22
ENDBRANCH 8 10
ENDBRANCH 1 6
BRANCH 1 26
ATOM     26  N   ASP E 180       2.810 -26.281  27.008  1.00 48.48 LIG-0.34  N 
ATOM     27  C   ASP E 179       2.207 -27.404  26.609  1.00 52.76 LIG 0.24  C 
ATOM     28 O    ASP E 179       1.358 -28.011  27.261  1.00 54.54 LIG-0.27  OA
ATOM     29 H    ASP E 180       3.412 -25.895  26.532  1.00 48.48 LIG 0.16  HD
BRANCH 27 30
ATOM     30  CA  ASP E 179       2.650 -27.911  25.238  1.00 62.98 LIG 0.19  C 
BRANCH 30 31
ATOM     31  N   ASP E 179       3.712 -28.921  25.255  1.00 68.60 LIG-0.34  N 
ATOM     32  C   VAL E 178       4.721 -28.925  24.384  1.00 59.78 LIG 0.26  C 
ATOM     33 O    VAL E 178       4.739 -28.227  23.368  1.00 49.42 LIG-0.27  OA
ATOM     34 H    ASP E 179       3.624 -29.508  25.876  1.00 68.60 LIG 0.16  HD
BRANCH 32 35
ATOM     35  CA  VAL E 178       5.873 -29.885  24.696  1.00 59.92 LIG 0.40  C 
ATOM     36  N   VAL E 178       6.031 -30.901  23.660  1.00 55.12 LIG 0.61  N 
BRANCH 35 37
ATOM     37  CB  VAL E 178       7.176 -29.066  24.886  1.00 50.97 LIG 0.03  C 
ATOM     38  CG2 VAL E 178       7.841 -28.773  23.549  1.00 47.22 LIG 0.01  C 
ATOM     39  CG1 VAL E 178       8.128 -29.806  25.801  1.00 50.59 LIG 0.01  C 
ENDBRANCH 35 37
ENDBRANCH 32 35
ENDBRANCH 30 31
BRANCH 30 40
ATOM     40  CB  ASP E 179       1.427 -28.469  24.511  1.00 47.75 LIG 0.15  C 
BRANCH 40 41
ATOM     41  CG  ASP E 179       0.383 -27.413  24.248  1.00 48.80 LIG 0.17  C 
ATOM     42 OD2  ASP E 179      -0.458 -27.161  25.145  1.00 55.56 LIG-0.65  OA
ATOM     43 OD1  ASP E 179       0.408 -26.835  23.143  1.00 40.87 LIG-0.65  OA
ENDBRANCH 40 41
ENDBRANCH 30 40
ENDBRANCH 27 30
ENDBRANCH 1 26
TORSDOF 19
ENDMDL
MODEL 17
USER: ADFR SOLUTION from run 66
USER: SCORE 12.325350 LL:  -1.770 LR: -12.072 RR:   0.000 FEB:  -6.404
USER: RMSD 9.736579
USER: SEED 65
USER: STATUS no improvement in best in 25 clusters for 5 generations
USER: GENES 21
USER: genes 0 Translation |==|  0.50876 0.59497 0.55707
USER: genes 1 Rotation |==|  0.33788 0.13597 0.75625 0.65981
USER: genes 2 Torsion [C]-CA--CB-[CG] |==|  0.39247
USER: genes 3 Torsion [CA]-CB--CG-[OD1] |==|  0.39534
USER: genes 4 Torsion [N]-CA--C-[N] |==|  0.49470
USER: genes 5 Torsion [C]-N--CA-[CB] |==|  0.23291
USER: genes 6 Torsion [N]-CA--C-[N] |==|  0.99898
USER: genes 7 Torsion [C]-N--CA-[CB] |==|  0.18592
USER: genes 8 Torsion [N]-CA--CB-[CG] |==|  0.25498
USER: genes 9 Torsion [CA]-CB--CG-[SD] |==|  0.68530
USER: genes 10 Torsion [CB]-CG--SD-[CE] |==|  0.65941
USER: genes 11 Torsion [N]-CA--C-[O] |==|  0.94214
USER: genes 12 Torsion [N]-CA--CB-[CG] |==|  0.68173
USER: genes 13 Torsion [CA]-CB--CG-[OD1] |==|  0.06499
USER: genes 14 Torsion [CB]-CA--N-[C] |==|  0.19725
USER: genes 15 Torsion [N]-C--CA-[N] |==|  0.47008
USER: genes 16 Torsion [C]-CA--N-[C] |==|  0.79783
USER: genes 17 Torsion [N]-C--CA-[N] |==|  0.34213
USER: genes 18 Torsion [C]-CA--CB-[CG2] |==|  0.10396
USER: genes 19 Torsion [C]-CA--CB-[CG] |==|  0.22672
USER: genes 20 Torsion [CA]-CB--CG-[OD2] |==|  0.58297
ROOT
ATOM      1  CA  ASP E 180       2.733 -25.969  27.687  1.00 46.29 LIG 0.19  C 
ENDROOT
BRANCH 1 2
ATOM      2  CB  ASP E 180       3.679 -26.900  28.437  1.00 53.57 LIG 0.15  C 
BRANCH 2 3
ATOM      3  CG  ASP E 180       5.064 -26.317  28.593  1.00 52.91 LIG 0.17  C 
ATOM      4 OD1  ASP E 180       5.678 -26.522  29.663  1.00 53.16 LIG-0.65  OA
ATOM      5 OD2  ASP E 180       5.542 -25.662  27.644  1.00 39.91 LIG-0.65  OA
ENDBRANCH 2 3
ENDBRANCH 1 2
BRANCH 1 6
ATOM      6  C   ASP E 180       1.828 -26.786  26.754  1.00 46.16 LIG 0.24  C 
ATOM      7 O    ASP E 180       0.602 -26.741  26.872  1.00 47.92 LIG-0.27  OA
ATOM      8  N   ASP E 181       2.421 -27.532  25.827  1.00 48.75 LIG-0.34  N 
ATOM      9 H    ASP E 181       3.272 -27.626  25.745  1.00 48.75 LIG 0.16  HD
BRANCH 8 10
ATOM     10  CA  ASP E 181       1.619 -28.265  24.851  1.00 45.01 LIG 0.19  C 
BRANCH 10 11
ATOM     11  C   ASP E 181       2.318 -29.516  24.327  1.00 47.33 LIG 0.24  C 
ATOM     12 O    ASP E 181       1.770 -30.267  23.510  1.00 41.27 LIG-0.27  OA
ATOM     13  N   MET E 182       3.532 -29.733  24.827  1.00 63.00 LIG-0.35  N 
ATOM     14 H    MET E 182       3.884 -29.246  25.441  1.00 63.00 LIG 0.16  HD
BRANCH 13 15
ATOM     15  CA  MET E 182       4.384 -30.825  24.379  1.00 43.88 LIG 0.16  C 
BRANCH 15 16
ATOM     16  CB  MET E 182       4.813 -30.592  22.931  1.00 44.38 LIG 0.04  C 
BRANCH 16 17
ATOM     17  CG  MET E 182       6.125 -29.846  22.794  1.00 63.17 LIG 0.08  C 
BRANCH 17 18
ATOM     18 SD   MET E 182       5.917 -28.211  22.066  1.00101.17 LIG-0.17  SA
ATOM     19  CE  MET E 182       7.003 -28.338  20.645  1.00 68.91 LIG 0.09  C 
ENDBRANCH 17 18
ENDBRANCH 16 17
ENDBRANCH 15 16
BRANCH 15 20
ATOM     20  C   MET E 182       5.613 -30.980  25.276  1.00 60.82 LIG 0.22  C 
ATOM     21 O    MET E 182       6.008 -30.049  25.986  1.00 58.83 LIG-0.29  OA
ENDBRANCH 15 20
ENDBRANCH 13 15
ENDBRANCH 10 11
BRANCH 10 22
ATOM     22  CB  ASP E 181       1.245 -27.347  23.689  1.00 40.72 LIG 0.15  C 
BRANCH 22 23
ATOM     23  CG  ASP E 181      -0.247 -27.097  23.613  1.00 40.82 LIG 0.17  C 
ATOM     24 OD1  ASP E 181      -0.939 -27.234  24.646  1.00 47.44 LIG-0.65  OA
ATOM     25 OD2  ASP E 181      -0.721 -26.750  22.513  1.00 24.37 LIG-0.65  OA
ENDBRANCH 22 23
ENDBRANCH 10 22
ENDBRANCH 8 10
ENDBRANCH 1 6
BRANCH 1 26
ATOM     26  N   ASP E 180       1.904 -25.181  28.605  1.00 48.48 LIG-0.34  N 
ATOM     27  C   ASP E 179       2.337 -24.184  29.380  1.00 52.76 LIG 0.24  C 
ATOM     28 O    ASP E 179       3.507 -23.805  29.444  1.00 54.54 LIG-0.27  OA
ATOM     29 H    ASP E 180       1.081 -25.429  28.600  1.00 48.48 LIG 0.16  HD
BRANCH 27 30
ATOM     30  CA  ASP E 179       1.250 -23.510  30.215  1.00 62.98 LIG 0.19  C 
BRANCH 30 31
ATOM     31  N   ASP E 179       1.732 -22.587  31.247  1.00 68.60 LIG-0.34  N 
ATOM     32  C   VAL E 178       2.324 -23.000  32.368  1.00 59.78 LIG 0.26  C 
ATOM     33 O    VAL E 178       2.323 -24.176  32.738  1.00 49.42 LIG-0.27  OA
ATOM     34 H    ASP E 179       1.599 -21.759  31.062  1.00 68.60 LIG 0.16  HD
BRANCH 32 35
ATOM     35  CA  VAL E 178       2.994 -21.911  33.213  1.00 59.92 LIG 0.40  C 
ATOM     36  N   VAL E 178       2.471 -21.880  34.575  1.00 55.12 LIG 0.61  N 
BRANCH 35 37
ATOM     37  CB  VAL E 178       4.528 -22.137  33.202  1.00 50.97 LIG 0.03  C 
ATOM     38  CG2 VAL E 178       5.003 -22.620  31.839  1.00 47.22 LIG 0.01  C 
ATOM     39  CG1 VAL E 178       4.917 -23.126  34.279  1.00 50.59 LIG 0.01  C 
ENDBRANCH 35 37
ENDBRANCH 32 35
ENDBRANCH 30 31
BRANCH 30 40
ATOM     40  CB  ASP E 179       0.304 -22.771  29.271  1.00 47.75 LIG 0.15  C 
BRANCH 40 41
ATOM     41  CG  ASP E 179      -0.724 -23.686  28.653  1.00 48.80 LIG 0.17  C 
ATOM     42 OD2  ASP E 179      -1.166 -23.411  27.511  1.00 55.56 LIG-0.65  OA
ATOM     43 OD1  ASP E 179      -1.086 -24.680  29.312  1.00 40.87 LIG-0.65  OA
ENDBRANCH 40 41
ENDBRANCH 30 40
ENDBRANCH 27 30
ENDBRANCH 1 26
TORSDOF 19
ENDMDL
MODEL 18
USER: ADFR SOLUTION from run 30
USER: SCORE 12.774420 LL:  -2.430 LR: -12.057 RR:   0.000 FEB:  -6.389
USER: RMSD 4.591602
USER: SEED 29
USER: STATUS searching
USER: GENES 21
USER: genes 0 Translation |==|  0.40634 0.63699 0.53886
USER: genes 1 Rotation |==|  0.51475 0.74897 0.48462 0.93308
USER: genes 2 Torsion [C]-CA--CB-[CG] |==|  0.28495
USER: genes 3 Torsion [CA]-CB--CG-[OD1] |==|  0.55373
USER: genes 4 Torsion [N]-CA--C-[N] |==|  0.78336
USER: genes 5 Torsion [C]-N--CA-[CB] |==|  0.86097
USER: genes 6 Torsion [N]-CA--C-[N] |==|  0.81282
USER: genes 7 Torsion [C]-N--CA-[CB] |==|  0.81144
USER: genes 8 Torsion [N]-CA--CB-[CG] |==|  0.88038
USER: genes 9 Torsion [CA]-CB--CG-[SD] |==|  0.82633
USER: genes 10 Torsion [CB]-CG--SD-[CE] |==|  0.89029
USER: genes 11 Torsion [N]-CA--C-[O] |==|  0.24240
USER: genes 12 Torsion [N]-CA--CB-[CG] |==|  0.75714
USER: genes 13 Torsion [CA]-CB--CG-[OD1] |==|  0.83358
USER: genes 14 Torsion [CB]-CA--N-[C] |==|  0.85924
USER: genes 15 Torsion [N]-C--CA-[N] |==|  0.42968
USER: genes 16 Torsion [C]-CA--N-[C] |==|  0.64252
USER: genes 17 Torsion [N]-C--CA-[N] |==|  0.38666
USER: genes 18 Torsion [C]-CA--CB-[CG2] |==|  0.11764
USER: genes 19 Torsion [C]-CA--CB-[CG] |==|  0.17670
USER: genes 20 Torsion [CA]-CB--CG-[OD2] |==|  0.74004
ROOT
ATOM      1  CA  ASP E 180       0.505 -25.276  27.318  1.00 46.29 LIG 0.19  C 
ENDROOT
BRANCH 1 2
ATOM      2  CB  ASP E 180      -0.558 -26.032  28.108  1.00 53.57 LIG 0.15  C 
BRANCH 2 3
ATOM      3  CG  ASP E 180      -1.774 -25.185  28.403  1.00 52.91 LIG 0.17  C 
ATOM      4 OD1  ASP E 180      -2.535 -25.540  29.330  1.00 53.16 LIG-0.65  OA
ATOM      5 OD2  ASP E 180      -1.964 -24.161  27.715  1.00 39.91 LIG-0.65  OA
ENDBRANCH 2 3
ENDBRANCH 1 2
BRANCH 1 6
ATOM      6  C   ASP E 180       1.642 -24.844  28.254  1.00 46.16 LIG 0.24  C 
ATOM      7 O    ASP E 180       2.103 -23.702  28.195  1.00 47.92 LIG-0.27  OA
ATOM      8  N   ASP E 181       2.099 -25.746  29.117  1.00 48.75 LIG-0.34  N 
ATOM      9 H    ASP E 181       1.837 -26.564  29.154  1.00 48.75 LIG 0.16  HD
BRANCH 8 10
ATOM     10  CA  ASP E 181       3.119 -25.377  30.094  1.00 45.01 LIG 0.19  C 
BRANCH 10 11
ATOM     11  C   ASP E 181       2.576 -24.502  31.220  1.00 47.33 LIG 0.24  C 
ATOM     12 O    ASP E 181       2.491 -24.923  32.381  1.00 41.27 LIG-0.27  OA
ATOM     13  N   MET E 182       2.192 -23.283  30.850  1.00 63.00 LIG-0.35  N 
ATOM     14 H    MET E 182       2.192 -23.016  30.033  1.00 63.00 LIG 0.16  HD
BRANCH 13 15
ATOM     15  CA  MET E 182       1.733 -22.280  31.799  1.00 43.88 LIG 0.16  C 
BRANCH 15 16
ATOM     16  CB  MET E 182       0.395 -22.706  32.402  1.00 44.38 LIG 0.04  C 
BRANCH 16 17
ATOM     17  CG  MET E 182      -0.581 -23.272  31.390  1.00 63.17 LIG 0.08  C 
BRANCH 17 18
ATOM     18 SD   MET E 182      -1.047 -22.070  30.132  1.00101.17 LIG-0.17  SA
ATOM     19  CE  MET E 182      -1.190 -20.585  31.126  1.00 68.91 LIG 0.09  C 
ENDBRANCH 17 18
ENDBRANCH 16 17
ENDBRANCH 15 16
BRANCH 15 20
ATOM     20  C   MET E 182       2.761 -22.046  32.907  1.00 60.82 LIG 0.22  C 
ATOM     21 O    MET E 182       3.675 -21.226  32.769  1.00 58.83 LIG-0.29  OA
ENDBRANCH 15 20
ENDBRANCH 13 15
ENDBRANCH 10 11
BRANCH 10 22
ATOM     22  CB  ASP E 181       4.279 -24.670  29.394  1.00 40.72 LIG 0.15  C 
BRANCH 22 23
ATOM     23  CG  ASP E 181       5.319 -25.644  28.881  1.00 40.82 LIG 0.17  C 
ATOM     24 OD1  ASP E 181       5.902 -26.395  29.695  1.00 47.44 LIG-0.65  OA
ATOM     25 OD2  ASP E 181       5.542 -25.661  27.655  1.00 24.37 LIG-0.65  OA
ENDBRANCH 22 23
ENDBRANCH 10 22
ENDBRANCH 8 10
ENDBRANCH 1 6
BRANCH 1 26
ATOM     26  N   ASP E 180       1.051 -26.088  26.226  1.00 48.48 LIG-0.34  N 
ATOM     27  C   ASP E 179       1.519 -27.333  26.344  1.00 52.76 LIG 0.24  C 
ATOM     28 O    ASP E 179       1.578 -27.961  27.402  1.00 54.54 LIG-0.27  OA
ATOM     29 H    ASP E 180       1.042 -25.676  25.472  1.00 48.48 LIG 0.16  HD
BRANCH 27 30
ATOM     30  CA  ASP E 179       1.997 -27.960  25.036  1.00 62.98 LIG 0.19  C 
BRANCH 30 31
ATOM     31  N   ASP E 179       3.004 -29.015  25.175  1.00 68.60 LIG-0.34  N 
ATOM     32  C   VAL E 178       4.150 -29.017  24.495  1.00 59.78 LIG 0.26  C 
ATOM     33 O    VAL E 178       4.370 -28.267  23.542  1.00 49.42 LIG-0.27  OA
ATOM     34 H    ASP E 179       2.787 -29.630  25.735  1.00 68.60 LIG 0.16  HD
BRANCH 32 35
ATOM     35  CA  VAL E 178       5.195 -30.044  24.943  1.00 59.92 LIG 0.40  C 
ATOM     36  N   VAL E 178       5.869 -30.666  23.808  1.00 55.12 LIG 0.61  N 
BRANCH 35 37
ATOM     37  CB  VAL E 178       6.209 -29.351  25.891  1.00 50.97 LIG 0.03  C 
ATOM     38  CG2 VAL E 178       5.501 -28.429  26.873  1.00 47.22 LIG 0.01  C 
ATOM     39  CG1 VAL E 178       7.233 -28.581  25.085  1.00 50.59 LIG 0.01  C 
ENDBRANCH 35 37
ENDBRANCH 32 35
ENDBRANCH 30 31
BRANCH 30 40
ATOM     40  CB  ASP E 179       0.781 -28.509  24.291  1.00 47.75 LIG 0.15  C 
BRANCH 40 41
ATOM     41  CG  ASP E 179      -0.188 -27.425  23.892  1.00 48.80 LIG 0.17  C 
ATOM     42 OD2  ASP E 179      -1.146 -27.161  24.659  1.00 55.56 LIG-0.65  OA
ATOM     43 OD1  ASP E 179       0.013 -26.837  22.811  1.00 40.87 LIG-0.65  OA
ENDBRANCH 40 41
ENDBRANCH 30 40
ENDBRANCH 27 30
ENDBRANCH 1 26
TORSDOF 19
ENDMDL
MODEL 19
USER: ADFR SOLUTION from run 114
USER: SCORE 13.121468 LL:  -2.685 LR: -12.057 RR:   0.000 FEB:  -6.390
USER: RMSD 5.439917
USER: SEED 113
USER: STATUS no improvement in best in 20 clusters for 5 generations
USER: GENES 21
USER: genes 0 Translation |==|  0.59118 0.40852 0.47073
USER: genes 1 Rotation |==|  0.85031 0.24656 0.26601 0.59111
USER: genes 2 Torsion [C]-CA--CB-[CG] |==|  0.21454
USER: genes 3 Torsion [CA]-CB--CG-[OD1] |==|  0.08929
USER: genes 4 Torsion [N]-CA--C-[N] |==|  0.81189
USER: genes 5 Torsion [C]-N--CA-[CB] |==|  0.80496
USER: genes 6 Torsion [N]-CA--C-[N] |==|  0.10000
USER: genes 7 Torsion [C]-N--CA-[CB] |==|  0.40965
USER: genes 8 Torsion [N]-CA--CB-[CG] |==|  0.28164
USER: genes 9 Torsion [CA]-CB--CG-[SD] |==|  0.43856
USER: genes 10 Torsion [CB]-CG--SD-[CE] |==|  0.10650
USER: genes 11 Torsion [N]-CA--C-[O] |==|  0.25887
USER: genes 12 Torsion [N]-CA--CB-[CG] |==|  0.67788
USER: genes 13 Torsion [CA]-CB--CG-[OD1] |==|  0.89285
USER: genes 14 Torsion [CB]-CA--N-[C] |==|  0.84733
USER: genes 15 Torsion [N]-C--CA-[N] |==|  0.41684
USER: genes 16 Torsion [C]-CA--N-[C] |==|  0.61356
USER: genes 17 Torsion [N]-C--CA-[N] |==|  0.33054
USER: genes 18 Torsion [C]-CA--CB-[CG2] |==|  0.44473
USER: genes 19 Torsion [C]-CA--CB-[CG] |==|  0.91807
USER: genes 20 Torsion [CA]-CB--CG-[OD2] |==|  0.78011
ROOT
ATOM      1  CA  ASP E 180       4.525 -29.045  25.938  1.00 46.29 LIG 0.19  C 
ENDROOT
BRANCH 1 2
ATOM      2  CB  ASP E 180       5.296 -27.743  26.127  1.00 53.57 LIG 0.15  C 
BRANCH 2 3
ATOM      3  CG  ASP E 180       5.140 -27.173  27.517  1.00 52.91 LIG 0.17  C 
ATOM      4 OD1  ASP E 180       4.998 -27.968  28.473  1.00 53.16 LIG-0.65  OA
ATOM      5 OD2  ASP E 180       5.167 -25.933  27.657  1.00 39.91 LIG-0.65  OA
ENDBRANCH 2 3
ENDBRANCH 1 2
BRANCH 1 6
ATOM      6  C   ASP E 180       3.032 -28.745  25.751  1.00 46.16 LIG 0.24  C 
ATOM      7 O    ASP E 180       2.191 -29.267  26.485  1.00 47.92 LIG-0.27  OA
ATOM      8  N   ASP E 181       2.694 -27.908  24.775  1.00 48.75 LIG-0.34  N 
ATOM      9 H    ASP E 181       3.247 -27.564  24.213  1.00 48.75 LIG 0.16  HD
BRANCH 8 10
ATOM     10  CA  ASP E 181       1.301 -27.512  24.596  1.00 45.01 LIG 0.19  C 
BRANCH 10 11
ATOM     11  C   ASP E 181       0.672 -26.959  25.871  1.00 47.33 LIG 0.24  C 
ATOM     12 O    ASP E 181      -0.519 -27.162  26.144  1.00 41.27 LIG-0.27  OA
ATOM     13  N   MET E 182       1.489 -26.240  26.636  1.00 63.00 LIG-0.35  N 
ATOM     14 H    MET E 182       2.297 -26.047  26.413  1.00 63.00 LIG 0.16  HD
BRANCH 13 15
ATOM     15  CA  MET E 182       1.092 -25.709  27.931  1.00 43.88 LIG 0.16  C 
BRANCH 15 16
ATOM     16  CB  MET E 182       2.296 -25.671  28.872  1.00 44.38 LIG 0.04  C 
BRANCH 16 17
ATOM     17  CG  MET E 182       2.913 -24.295  29.021  1.00 63.17 LIG 0.08  C 
BRANCH 17 18
ATOM     18 SD   MET E 182       3.863 -24.125  30.542  1.00101.17 LIG-0.17  SA
ATOM     19  CE  MET E 182       4.628 -25.742  30.640  1.00 68.91 LIG 0.09  C 
ENDBRANCH 17 18
ENDBRANCH 16 17
ENDBRANCH 15 16
BRANCH 15 20
ATOM     20  C   MET E 182       0.481 -24.312  27.800  1.00 60.82 LIG 0.22  C 
ATOM     21 O    MET E 182      -0.739 -24.156  27.686  1.00 58.83 LIG-0.29  OA
ENDBRANCH 15 20
ENDBRANCH 13 15
ENDBRANCH 10 11
BRANCH 10 22
ATOM     22  CB  ASP E 181       0.484 -28.695  24.079  1.00 40.72 LIG 0.15  C 
BRANCH 22 23
ATOM     23  CG  ASP E 181      -0.077 -28.444  22.695  1.00 40.82 LIG 0.17  C 
ATOM     24 OD1  ASP E 181      -0.501 -27.302  22.409  1.00 47.44 LIG-0.65  OA
ATOM     25 OD2  ASP E 181      -0.081 -29.397  21.890  1.00 24.37 LIG-0.65  OA
ENDBRANCH 22 23
ENDBRANCH 10 22
ENDBRANCH 8 10
ENDBRANCH 1 6
BRANCH 1 26
ATOM     26  N   ASP E 180       5.020 -29.807  24.787  1.00 48.48 LIG-0.34  N 
ATOM     27  C   ASP E 179       5.124 -29.347  23.538  1.00 52.76 LIG 0.24  C 
ATOM     28 O    ASP E 179       4.792 -28.217  23.179  1.00 54.54 LIG-0.27  OA
ATOM     29 H    ASP E 180       5.246 -30.610  24.996  1.00 48.48 LIG 0.16  HD
BRANCH 27 30
ATOM     30  CA  ASP E 179       5.705 -30.346  22.539  1.00 62.98 LIG 0.19  C 
BRANCH 30 31
ATOM     31  N   ASP E 179       5.234 -30.199  21.158  1.00 68.60 LIG-0.34  N 
ATOM     32  C   VAL E 178       4.935 -31.240  20.382  1.00 59.78 LIG 0.26  C 
ATOM     33 O    VAL E 178       5.228 -32.402  20.668  1.00 49.42 LIG-0.27  OA
ATOM     34 H    ASP E 179       5.170 -29.382  20.898  1.00 68.60 LIG 0.16  HD
BRANCH 32 35
ATOM     35  CA  VAL E 178       4.218 -30.912  19.068  1.00 59.92 LIG 0.40  C 
ATOM     36  N   VAL E 178       4.996 -31.328  17.905  1.00 55.12 LIG 0.61  N 
BRANCH 35 37
ATOM     37  CB  VAL E 178       2.817 -31.576  19.077  1.00 50.97 LIG 0.03  C 
ATOM     38  CG2 VAL E 178       1.889 -30.915  18.069  1.00 47.22 LIG 0.01  C 
ATOM     39  CG1 VAL E 178       2.220 -31.512  20.467  1.00 50.59 LIG 0.01  C 
ENDBRANCH 35 37
ENDBRANCH 32 35
ENDBRANCH 30 31
BRANCH 30 40
ATOM     40  CB  ASP E 179       7.228 -30.233  22.573  1.00 47.75 LIG 0.15  C 
BRANCH 40 41
ATOM     41  CG  ASP E 179       7.695 -28.847  22.941  1.00 48.80 LIG 0.17  C 
ATOM     42 OD2  ASP E 179       7.688 -27.955  22.058  1.00 55.56 LIG-0.65  OA
ATOM     43 OD1  ASP E 179       8.066 -28.652  24.115  1.00 40.87 LIG-0.65  OA
ENDBRANCH 40 41
ENDBRANCH 30 40
ENDBRANCH 27 30
ENDBRANCH 1 26
TORSDOF 19
ENDMDL
MODEL 20
USER: ADFR SOLUTION from run 143
USER: SCORE 11.964265 LL:  -1.839 LR: -12.058 RR:   0.000 FEB:  -6.391
USER: RMSD 6.372908
USER: SEED 142
USER: STATUS no improvement in best in 5 clusters for 5 generations
USER: GENES 21
USER: genes 0 Translation |==|  0.52151 0.61728 0.55296
USER: genes 1 Rotation |==|  0.45237 0.68756 0.34229 0.93322
USER: genes 2 Torsion [C]-CA--CB-[CG] |==|  0.42961
USER: genes 3 Torsion [CA]-CB--CG-[OD1] |==|  0.11610
USER: genes 4 Torsion [N]-CA--C-[N] |==|  0.66803
USER: genes 5 Torsion [C]-N--CA-[CB] |==|  0.50000
USER: genes 6 Torsion [N]-CA--C-[N] |==|  0.43539
USER: genes 7 Torsion [C]-N--CA-[CB] |==|  0.32879
USER: genes 8 Torsion [N]-CA--CB-[CG] |==|  0.40225
USER: genes 9 Torsion [CA]-CB--CG-[SD] |==|  0.67162
USER: genes 10 Torsion [CB]-CG--SD-[CE] |==|  0.26301
USER: genes 11 Torsion [N]-CA--C-[O] |==|  0.38167
USER: genes 12 Torsion [N]-CA--CB-[CG] |==|  0.61422
USER: genes 13 Torsion [CA]-CB--CG-[OD1] |==|  0.26668
USER: genes 14 Torsion [CB]-CA--N-[C] |==|  0.52813
USER: genes 15 Torsion [N]-C--CA-[N] |==|  0.43677
USER: genes 16 Torsion [C]-CA--N-[C] |==|  0.81488
USER: genes 17 Torsion [N]-C--CA-[N] |==|  0.50813
USER: genes 18 Torsion [C]-CA--CB-[CG2] |==|  0.60069
USER: genes 19 Torsion [C]-CA--CB-[CG] |==|  0.82735
USER: genes 20 Torsion [CA]-CB--CG-[OD2] |==|  0.31571
ROOT
ATOM      1  CA  ASP E 180       3.010 -25.601  27.603  1.00 46.29 LIG 0.19  C 
ENDROOT
BRANCH 1 2
ATOM      2  CB  ASP E 180       1.671 -25.473  28.323  1.00 53.57 LIG 0.15  C 
BRANCH 2 3
ATOM      3  CG  ASP E 180       0.511 -25.325  27.367  1.00 52.91 LIG 0.17  C 
ATOM      4 OD1  ASP E 180       0.493 -26.037  26.338  1.00 53.16 LIG-0.65  OA
ATOM      5 OD2  ASP E 180      -0.387 -24.503  27.646  1.00 39.91 LIG-0.65  OA
ENDBRANCH 2 3
ENDBRANCH 1 2
BRANCH 1 6
ATOM      6  C   ASP E 180       4.143 -25.124  28.522  1.00 46.16 LIG 0.24  C 
ATOM      7 O    ASP E 180       5.305 -25.080  28.112  1.00 47.92 LIG-0.27  OA
ATOM      8  N   ASP E 181       3.817 -24.765  29.759  1.00 48.75 LIG-0.34  N 
ATOM      9 H    ASP E 181       3.028 -24.827  30.095  1.00 48.75 LIG 0.16  HD
BRANCH 8 10
ATOM     10  CA  ASP E 181       4.831 -24.219  30.657  1.00 45.01 LIG 0.19  C 
BRANCH 10 11
ATOM     11  C   ASP E 181       6.022 -25.153  30.847  1.00 47.33 LIG 0.24  C 
ATOM     12 O    ASP E 181       5.920 -26.374  30.671  1.00 41.27 LIG-0.27  OA
ATOM     13  N   MET E 182       7.149 -24.557  31.227  1.00 63.00 LIG-0.35  N 
ATOM     14 H    MET E 182       7.201 -23.719  31.411  1.00 63.00 LIG 0.16  HD
BRANCH 13 15
ATOM     15  CA  MET E 182       8.409 -25.272  31.371  1.00 43.88 LIG 0.16  C 
BRANCH 15 16
ATOM     16  CB  MET E 182       9.446 -24.702  30.403  1.00 44.38 LIG 0.04  C 
BRANCH 16 17
ATOM     17  CG  MET E 182      10.858 -24.697  30.953  1.00 63.17 LIG 0.08  C 
BRANCH 17 18
ATOM     18 SD   MET E 182      11.542 -23.036  31.087  1.00101.17 LIG-0.17  SA
ATOM     19  CE  MET E 182      11.155 -22.652  32.794  1.00 68.91 LIG 0.09  C 
ENDBRANCH 17 18
ENDBRANCH 16 17
ENDBRANCH 15 16
BRANCH 15 20
ATOM     20  C   MET E 182       8.932 -25.201  32.807  1.00 60.82 LIG 0.22  C 
ATOM     21 O    MET E 182       9.412 -26.195  33.363  1.00 58.83 LIG-0.29  OA
ENDBRANCH 15 20
ENDBRANCH 13 15
ENDBRANCH 10 11
BRANCH 10 22
ATOM     22  CB  ASP E 181       4.204 -23.888  32.011  1.00 40.72 LIG 0.15  C 
BRANCH 22 23
ATOM     23  CG  ASP E 181       4.712 -22.577  32.573  1.00 40.82 LIG 0.17  C 
ATOM     24 OD1  ASP E 181       4.042 -21.536  32.387  1.00 47.44 LIG-0.65  OA
ATOM     25 OD2  ASP E 181       5.783 -22.596  33.212  1.00 24.37 LIG-0.65  OA
ENDBRANCH 22 23
ENDBRANCH 10 22
ENDBRANCH 8 10
ENDBRANCH 1 6
BRANCH 1 26
ATOM     26  N   ASP E 180       3.270 -26.981  27.181  1.00 48.48 LIG-0.34  N 
ATOM     27  C   ASP E 179       4.429 -27.441  26.705  1.00 52.76 LIG 0.24  C 
ATOM     28 O    ASP E 179       5.436 -26.755  26.531  1.00 54.54 LIG-0.27  OA
ATOM     29 H    ASP E 180       2.582 -27.488  27.272  1.00 48.48 LIG 0.16  HD
BRANCH 27 30
ATOM     30  CA  ASP E 179       4.433 -28.933  26.374  1.00 62.98 LIG 0.19  C 
BRANCH 30 31
ATOM     31  N   ASP E 179       5.444 -29.358  25.402  1.00 68.60 LIG-0.34  N 
ATOM     32  C   VAL E 178       5.423 -28.982  24.124  1.00 59.78 LIG 0.26  C 
ATOM     33 O    VAL E 178       4.453 -28.434  23.597  1.00 49.42 LIG-0.27  OA
ATOM     34 H    ASP E 179       6.049 -29.871  25.733  1.00 68.60 LIG 0.16  HD
BRANCH 32 35
ATOM     35  CA  VAL E 178       6.682 -29.300  23.310  1.00 59.92 LIG 0.40  C 
ATOM     36  N   VAL E 178       6.591 -28.791  21.946  1.00 55.12 LIG 0.61  N 
BRANCH 35 37
ATOM     37  CB  VAL E 178       7.918 -28.723  24.047  1.00 50.97 LIG 0.03  C 
ATOM     38  CG2 VAL E 178       8.949 -28.194  23.060  1.00 47.22 LIG 0.01  C 
ATOM     39  CG1 VAL E 178       8.533 -29.780  24.939  1.00 50.59 LIG 0.01  C 
ENDBRANCH 35 37
ENDBRANCH 32 35
ENDBRANCH 30 31
BRANCH 30 40
ATOM     40  CB  ASP E 179       4.613 -29.715  27.674  1.00 47.75 LIG 0.15  C 
BRANCH 40 41
ATOM     41  CG  ASP E 179       5.928 -29.415  28.349  1.00 48.80 LIG 0.17  C 
ATOM     42 OD2  ASP E 179       5.916 -28.825  29.456  1.00 55.56 LIG-0.65  OA
ATOM     43 OD1  ASP E 179       6.972 -29.774  27.769  1.00 40.87 LIG-0.65  OA
ENDBRANCH 40 41
ENDBRANCH 30 40
ENDBRANCH 27 30
ENDBRANCH 1 26
TORSDOF 19
ENDMDL
MODEL 21
USER: ADFR SOLUTION from run 57
USER: SCORE 11.849953 LL:  -1.963 LR: -12.027 RR:   0.000 FEB:  -6.359
USER: RMSD 9.375298
USER: SEED 56
USER: STATUS no improvement in best in 16 clusters for 5 generations
USER: GENES 21
USER: genes 0 Translation |==|  0.52283 0.60550 0.57821
USER: genes 1 Rotation |==|  0.32149 0.16960 0.80309 0.63079
USER: genes 2 Torsion [C]-CA--CB-[CG] |==|  0.38407
USER: genes 3 Torsion [CA]-CB--CG-[OD1] |==|  0.94206
USER: genes 4 Torsion [N]-CA--C-[N] |==|  0.37091
USER: genes 5 Torsion [C]-N--CA-[CB] |==|  0.36748
USER: genes 6 Torsion [N]-CA--C-[N] |==|  0.66275
USER: genes 7 Torsion [C]-N--CA-[CB] |==|  0.30963
USER: genes 8 Torsion [N]-CA--CB-[CG] |==|  0.92983
USER: genes 9 Torsion [CA]-CB--CG-[SD] |==|  0.25515
USER: genes 10 Torsion [CB]-CG--SD-[CE] |==|  0.08223
USER: genes 11 Torsion [N]-CA--C-[O] |==|  0.05617
USER: genes 12 Torsion [N]-CA--CB-[CG] |==|  0.69849
USER: genes 13 Torsion [CA]-CB--CG-[OD1] |==|  0.51504
USER: genes 14 Torsion [CB]-CA--N-[C] |==|  0.55733
USER: genes 15 Torsion [N]-C--CA-[N] |==|  0.02729
USER: genes 16 Torsion [C]-CA--N-[C] |==|  0.76110
USER: genes 17 Torsion [N]-C--CA-[N] |==|  0.49658
USER: genes 18 Torsion [C]-CA--CB-[CG2] |==|  0.76248
USER: genes 19 Torsion [C]-CA--CB-[CG] |==|  0.22952
USER: genes 20 Torsion [CA]-CB--CG-[OD2] |==|  0.96587
ROOT
ATOM      1  CA  ASP E 180       3.039 -25.795  28.115  1.00 46.29 LIG 0.19  C 
ENDROOT
BRANCH 1 2
ATOM      2  CB  ASP E 180       3.995 -26.469  29.093  1.00 53.57 LIG 0.15  C 
BRANCH 2 3
ATOM      3  CG  ASP E 180       5.382 -25.872  29.052  1.00 52.91 LIG 0.17  C 
ATOM      4 OD1  ASP E 180       5.725 -25.233  28.033  1.00 53.16 LIG-0.65  OA
ATOM      5 OD2  ASP E 180       6.128 -26.035  30.040  1.00 39.91 LIG-0.65  OA
ENDBRANCH 2 3
ENDBRANCH 1 2
BRANCH 1 6
ATOM      6  C   ASP E 180       2.172 -26.854  27.419  1.00 46.16 LIG 0.24  C 
ATOM      7 O    ASP E 180       1.227 -27.378  28.011  1.00 47.92 LIG-0.27  OA
ATOM      8  N   ASP E 181       2.486 -27.174  26.167  1.00 48.75 LIG-0.34  N 
ATOM      9 H    ASP E 181       3.165 -26.866  25.739  1.00 48.75 LIG 0.16  HD
BRANCH 8 10
ATOM     10  CA  ASP E 181       1.652 -28.108  25.417  1.00 45.01 LIG 0.19  C 
BRANCH 10 11
ATOM     11  C   ASP E 181       2.278 -29.494  25.290  1.00 47.33 LIG 0.24  C 
ATOM     12 O    ASP E 181       2.590 -30.155  26.289  1.00 41.27 LIG-0.27  OA
ATOM     13  N   MET E 182       2.471 -29.911  24.042  1.00 63.00 LIG-0.35  N 
ATOM     14 H    MET E 182       2.313 -29.425  23.351  1.00 63.00 LIG 0.16  HD
BRANCH 13 15
ATOM     15  CA  MET E 182       2.973 -31.240  23.725  1.00 43.88 LIG 0.16  C 
BRANCH 15 16
ATOM     16  CB  MET E 182       1.875 -32.068  23.059  1.00 44.38 LIG 0.04  C 
BRANCH 16 17
ATOM     17  CG  MET E 182       0.471 -31.622  23.415  1.00 63.17 LIG 0.08  C 
BRANCH 17 18
ATOM     18 SD   MET E 182      -0.188 -30.417  22.250  1.00101.17 LIG-0.17  SA
ATOM     19  CE  MET E 182       0.665 -30.902  20.750  1.00 68.91 LIG 0.09  C 
ENDBRANCH 17 18
ENDBRANCH 16 17
ENDBRANCH 15 16
BRANCH 15 20
ATOM     20  C   MET E 182       4.205 -31.172  22.820  1.00 60.82 LIG 0.22  C 
ATOM     21 O    MET E 182       4.882 -30.142  22.738  1.00 58.83 LIG-0.29  OA
ENDBRANCH 15 20
ENDBRANCH 13 15
ENDBRANCH 10 11
BRANCH 10 22
ATOM     22  CB  ASP E 181       1.350 -27.541  24.031  1.00 40.72 LIG 0.15  C 
BRANCH 22 23
ATOM     23  CG  ASP E 181      -0.094 -27.103  23.892  1.00 40.82 LIG 0.17  C 
ATOM     24 OD1  ASP E 181      -0.505 -26.713  22.776  1.00 47.44 LIG-0.65  OA
ATOM     25 OD2  ASP E 181      -0.817 -27.161  24.906  1.00 24.37 LIG-0.65  OA
ENDBRANCH 22 23
ENDBRANCH 10 22
ENDBRANCH 8 10
ENDBRANCH 1 6
BRANCH 1 26
ATOM     26  N   ASP E 180       2.174 -24.820  28.786  1.00 48.48 LIG-0.34  N 
ATOM     27  C   ASP E 179       1.009 -24.363  28.319  1.00 52.76 LIG 0.24  C 
ATOM     28 O    ASP E 179       0.514 -24.687  27.239  1.00 54.54 LIG-0.27  OA
ATOM     29 H    ASP E 180       2.496 -24.557  29.539  1.00 48.48 LIG 0.16  HD
BRANCH 27 30
ATOM     30  CA  ASP E 179       0.297 -23.377  29.242  1.00 62.98 LIG 0.19  C 
BRANCH 30 31
ATOM     31  N   ASP E 179       1.084 -22.903  30.384  1.00 68.60 LIG-0.34  N 
ATOM     32  C   VAL E 178       1.151 -23.564  31.540  1.00 59.78 LIG 0.26  C 
ATOM     33 O    VAL E 178       0.400 -24.498  31.828  1.00 49.42 LIG-0.27  OA
ATOM     34 H    ASP E 179       1.496 -22.163  30.239  1.00 68.60 LIG 0.16  HD
BRANCH 32 35
ATOM     35  CA  VAL E 178       2.212 -23.074  32.531  1.00 59.92 LIG 0.40  C 
ATOM     36  N   VAL E 178       2.189 -23.838  33.774  1.00 55.12 LIG 0.61  N 
BRANCH 35 37
ATOM     37  CB  VAL E 178       3.605 -23.140  31.853  1.00 50.97 LIG 0.03  C 
ATOM     38  CG2 VAL E 178       4.220 -24.525  31.994  1.00 47.22 LIG 0.01  C 
ATOM     39  CG1 VAL E 178       4.522 -22.090  32.445  1.00 50.59 LIG 0.01  C 
ENDBRANCH 35 37
ENDBRANCH 32 35
ENDBRANCH 30 31
BRANCH 30 40
ATOM     40  CB  ASP E 179      -0.162 -22.181  28.408  1.00 47.75 LIG 0.15  C 
BRANCH 40 41
ATOM     41  CG  ASP E 179      -1.467 -22.441  27.698  1.00 48.80 LIG 0.17  C 
ATOM     42 OD2  ASP E 179      -1.906 -23.616  27.656  1.00 55.56 LIG-0.65  OA
ATOM     43 OD1  ASP E 179      -2.053 -21.467  27.185  1.00 40.87 LIG-0.65  OA
ENDBRANCH 40 41
ENDBRANCH 30 40
ENDBRANCH 27 30
ENDBRANCH 1 26
TORSDOF 19
ENDMDL
MODEL 22
USER: ADFR SOLUTION from run 85
USER: SCORE 12.664357 LL:  -1.920 LR: -12.029 RR:   0.000 FEB:  -6.361
USER: RMSD 6.243218
USER: SEED 84
USER: STATUS searching
USER: GENES 21
USER: genes 0 Translation |==|  0.51712 0.45928 0.50424
USER: genes 1 Rotation |==|  0.65155 0.22992 0.10885 0.53313
USER: genes 2 Torsion [C]-CA--CB-[CG] |==|  0.12597
USER: genes 3 Torsion [CA]-CB--CG-[OD1] |==|  0.16492
USER: genes 4 Torsion [N]-CA--C-[N] |==|  0.86662
USER: genes 5 Torsion [C]-N--CA-[CB] |==|  0.85503
USER: genes 6 Torsion [N]-CA--C-[N] |==|  0.90998
USER: genes 7 Torsion [C]-N--CA-[CB] |==|  0.13841
USER: genes 8 Torsion [N]-CA--CB-[CG] |==|  0.45404
USER: genes 9 Torsion [CA]-CB--CG-[SD] |==|  0.23055
USER: genes 10 Torsion [CB]-CG--SD-[CE] |==|  0.63378
USER: genes 11 Torsion [N]-CA--C-[O] |==|  0.33335
USER: genes 12 Torsion [N]-CA--CB-[CG] |==|  0.66505
USER: genes 13 Torsion [CA]-CB--CG-[OD1] |==|  0.93848
USER: genes 14 Torsion [CB]-CA--N-[C] |==|  0.24444
USER: genes 15 Torsion [N]-C--CA-[N] |==|  0.52217
USER: genes 16 Torsion [C]-CA--N-[C] |==|  0.58391
USER: genes 17 Torsion [N]-C--CA-[N] |==|  0.37925
USER: genes 18 Torsion [C]-CA--CB-[CG2] |==|  0.08050
USER: genes 19 Torsion [C]-CA--CB-[CG] |==|  0.25139
USER: genes 20 Torsion [CA]-CB--CG-[OD2] |==|  0.18957
ROOT
ATOM      1  CA  ASP E 180       2.914 -28.208  26.617  1.00 46.29 LIG 0.19  C 
ENDROOT
BRANCH 1 2
ATOM      2  CB  ASP E 180       4.316 -27.722  26.263  1.00 53.57 LIG 0.15  C 
BRANCH 2 3
ATOM      3  CG  ASP E 180       5.066 -27.193  27.463  1.00 52.91 LIG 0.17  C 
ATOM      4 OD1  ASP E 180       5.262 -27.964  28.429  1.00 53.16 LIG-0.65  OA
ATOM      5 OD2  ASP E 180       5.467 -26.011  27.439  1.00 39.91 LIG-0.65  OA
ENDBRANCH 2 3
ENDBRANCH 1 2
BRANCH 1 6
ATOM      6  C   ASP E 180       2.221 -27.184  27.526  1.00 46.16 LIG 0.24  C 
ATOM      7 O    ASP E 180       2.091 -27.405  28.732  1.00 47.92 LIG-0.27  OA
ATOM      8  N   ASP E 181       1.776 -26.067  26.961  1.00 48.75 LIG-0.34  N 
ATOM      9 H    ASP E 181       1.805 -25.900  26.118  1.00 48.75 LIG 0.16  HD
BRANCH 8 10
ATOM     10  CA  ASP E 181       1.186 -25.013  27.782  1.00 45.01 LIG 0.19  C 
BRANCH 10 11
ATOM     11  C   ASP E 181       2.213 -24.280  28.639  1.00 47.33 LIG 0.24  C 
ATOM     12 O    ASP E 181       2.094 -23.077  28.902  1.00 41.27 LIG-0.27  OA
ATOM     13  N   MET E 182       3.234 -25.025  29.053  1.00 63.00 LIG-0.35  N 
ATOM     14 H    MET E 182       3.348 -25.844  28.817  1.00 63.00 LIG 0.16  HD
BRANCH 13 15
ATOM     15  CA  MET E 182       4.263 -24.523  29.952  1.00 43.88 LIG 0.16  C 
BRANCH 15 16
ATOM     16  CB  MET E 182       3.615 -23.850  31.163  1.00 44.38 LIG 0.04  C 
BRANCH 16 17
ATOM     17  CG  MET E 182       4.561 -23.650  32.330  1.00 63.17 LIG 0.08  C 
BRANCH 17 18
ATOM     18 SD   MET E 182       5.565 -22.164  32.159  1.00101.17 LIG-0.17  SA
ATOM     19  CE  MET E 182       7.193 -22.817  32.526  1.00 68.91 LIG 0.09  C 
ENDBRANCH 17 18
ENDBRANCH 16 17
ENDBRANCH 15 16
BRANCH 15 20
ATOM     20  C   MET E 182       5.202 -25.640  30.409  1.00 60.82 LIG 0.22  C 
ATOM     21 O    MET E 182       6.414 -25.594  30.172  1.00 58.83 LIG-0.29  OA
ENDBRANCH 15 20
ENDBRANCH 13 15
ENDBRANCH 10 11
BRANCH 10 22
ATOM     22  CB  ASP E 181       0.086 -25.597  28.667  1.00 40.72 LIG 0.15  C 
BRANCH 22 23
ATOM     23  CG  ASP E 181      -1.260 -24.951  28.410  1.00 40.82 LIG 0.17  C 
ATOM     24 OD1  ASP E 181      -1.299 -23.813  27.891  1.00 47.44 LIG-0.65  OA
ATOM     25 OD2  ASP E 181      -2.281 -25.596  28.722  1.00 24.37 LIG-0.65  OA
ENDBRANCH 22 23
ENDBRANCH 10 22
ENDBRANCH 8 10
ENDBRANCH 1 6
BRANCH 1 26
ATOM     26  N   ASP E 180       2.098 -28.430  25.419  1.00 48.48 LIG-0.34  N 
ATOM     27  C   ASP E 179       2.040 -29.565  24.718  1.00 52.76 LIG 0.24  C 
ATOM     28 O    ASP E 179       2.691 -30.579  24.974  1.00 54.54 LIG-0.27  OA
ATOM     29 H    ASP E 180       1.641 -27.736  25.199  1.00 48.48 LIG 0.16  HD
BRANCH 27 30
ATOM     30  CA  ASP E 179       1.079 -29.531  23.532  1.00 62.98 LIG 0.19  C 
BRANCH 30 31
ATOM     31  N   ASP E 179       0.863 -30.817  22.862  1.00 68.60 LIG-0.34  N 
ATOM     32  C   VAL E 178       0.581 -30.917  21.563  1.00 59.78 LIG 0.26  C 
ATOM     33 O    VAL E 178       0.264 -29.953  20.865  1.00 49.42 LIG-0.27  OA
ATOM     34 H    ASP E 179       0.935 -31.497  23.383  1.00 68.60 LIG 0.16  HD
BRANCH 32 35
ATOM     35  CA  VAL E 178       0.640 -32.329  20.971  1.00 59.92 LIG 0.40  C 
ATOM     36  N   VAL E 178      -0.489 -32.596  20.086  1.00 55.12 LIG 0.61  N 
BRANCH 35 37
ATOM     37  CB  VAL E 178       1.992 -32.511  20.233  1.00 50.97 LIG 0.03  C 
ATOM     38  CG2 VAL E 178       3.079 -31.647  20.856  1.00 47.22 LIG 0.01  C 
ATOM     39  CG1 VAL E 178       1.831 -32.183  18.764  1.00 50.59 LIG 0.01  C 
ENDBRANCH 35 37
ENDBRANCH 32 35
ENDBRANCH 30 31
BRANCH 30 40
ATOM     40  CB  ASP E 179      -0.261 -28.975  24.012  1.00 47.75 LIG 0.15  C 
BRANCH 40 41
ATOM     41  CG  ASP E 179      -0.344 -27.475  23.872  1.00 48.80 LIG 0.17  C 
ATOM     42 OD2  ASP E 179      -0.382 -26.979  22.720  1.00 55.56 LIG-0.65  OA
ATOM     43 OD1  ASP E 179      -0.374 -26.796  24.918  1.00 40.87 LIG-0.65  OA
ENDBRANCH 40 41
ENDBRANCH 30 40
ENDBRANCH 27 30
ENDBRANCH 1 26
TORSDOF 19
ENDMDL
MODEL 23
USER: ADFR SOLUTION from run 120
USER: SCORE 13.913170 LL:  -2.192 LR: -12.020 RR:   0.000 FEB:  -6.352
USER: RMSD 9.237540
USER: SEED 119
USER: STATUS no improvement in best in 6 clusters for 5 generations
USER: GENES 21
USER: genes 0 Translation |==|  0.62021 0.51870 0.50203
USER: genes 1 Rotation |==|  0.66045 0.90379 0.28445 0.62146
USER: genes 2 Torsion [C]-CA--CB-[CG] |==|  0.39148
USER: genes 3 Torsion [CA]-CB--CG-[OD1] |==|  0.00010
USER: genes 4 Torsion [N]-CA--C-[N] |==|  0.40461
USER: genes 5 Torsion [C]-N--CA-[CB] |==|  0.84382
USER: genes 6 Torsion [N]-CA--C-[N] |==|  0.35556
USER: genes 7 Torsion [C]-N--CA-[CB] |==|  0.77435
USER: genes 8 Torsion [N]-CA--CB-[CG] |==|  0.34478
USER: genes 9 Torsion [CA]-CB--CG-[SD] |==|  0.62851
USER: genes 10 Torsion [CB]-CG--SD-[CE] |==|  0.25421
USER: genes 11 Torsion [N]-CA--C-[O] |==|  0.20084
USER: genes 12 Torsion [N]-CA--CB-[CG] |==|  0.83703
USER: genes 13 Torsion [CA]-CB--CG-[OD1] |==|  0.75634
USER: genes 14 Torsion [CB]-CA--N-[C] |==|  0.84194
USER: genes 15 Torsion [N]-C--CA-[N] |==|  0.86193
USER: genes 16 Torsion [C]-CA--N-[C] |==|  0.79979
USER: genes 17 Torsion [N]-C--CA-[N] |==|  0.50618
USER: genes 18 Torsion [C]-CA--CB-[CG2] |==|  0.78465
USER: genes 19 Torsion [C]-CA--CB-[CG] |==|  0.51250
USER: genes 20 Torsion [CA]-CB--CG-[OD2] |==|  0.48557
ROOT
ATOM      1  CA  ASP E 180       5.157 -27.228  26.572  1.00 46.29 LIG 0.19  C 
ENDROOT
BRANCH 1 2
ATOM      2  CB  ASP E 180       5.314 -27.558  28.053  1.00 53.57 LIG 0.15  C 
BRANCH 2 3
ATOM      3  CG  ASP E 180       5.523 -26.326  28.903  1.00 52.91 LIG 0.17  C 
ATOM      4 OD1  ASP E 180       5.544 -25.210  28.337  1.00 53.16 LIG-0.65  OA
ATOM      5 OD2  ASP E 180       5.658 -26.472  30.135  1.00 39.91 LIG-0.65  OA
ENDBRANCH 2 3
ENDBRANCH 1 2
BRANCH 1 6
ATOM      6  C   ASP E 180       5.883 -28.280  25.723  1.00 46.16 LIG 0.24  C 
ATOM      7 O    ASP E 180       5.299 -29.303  25.360  1.00 47.92 LIG-0.27  OA
ATOM      8  N   ASP E 181       7.150 -28.038  25.403  1.00 48.75 LIG-0.34  N 
ATOM      9 H    ASP E 181       7.604 -27.362  25.678  1.00 48.75 LIG 0.16  HD
BRANCH 8 10
ATOM     10  CA  ASP E 181       7.873 -28.954  24.526  1.00 45.01 LIG 0.19  C 
BRANCH 10 11
ATOM     11  C   ASP E 181       7.334 -28.963  23.099  1.00 47.33 LIG 0.24  C 
ATOM     12 O    ASP E 181       6.134 -29.152  22.863  1.00 41.27 LIG-0.27  OA
ATOM     13  N   MET E 182       8.248 -28.772  22.151  1.00 63.00 LIG-0.35  N 
ATOM     14 H    MET E 182       9.089 -28.705  22.313  1.00 63.00 LIG 0.16  HD
BRANCH 13 15
ATOM     15  CA  MET E 182       7.908 -28.660  20.741  1.00 43.88 LIG 0.16  C 
BRANCH 15 16
ATOM     16  CB  MET E 182       7.715 -30.050  20.137  1.00 44.38 LIG 0.04  C 
BRANCH 16 17
ATOM     17  CG  MET E 182       6.366 -30.248  19.476  1.00 63.17 LIG 0.08  C 
BRANCH 17 18
ATOM     18 SD   MET E 182       5.590 -31.806  19.942  1.00101.17 LIG-0.17  SA
ATOM     19  CE  MET E 182       4.627 -31.288  21.361  1.00 68.91 LIG 0.09  C 
ENDBRANCH 17 18
ENDBRANCH 16 17
ENDBRANCH 15 16
BRANCH 15 20
ATOM     20  C   MET E 182       6.650 -27.815  20.534  1.00 60.82 LIG 0.22  C 
ATOM     21 O    MET E 182       6.667 -26.590  20.694  1.00 58.83 LIG-0.29  OA
ENDBRANCH 15 20
ENDBRANCH 13 15
ENDBRANCH 10 11
BRANCH 10 22
ATOM     22  CB  ASP E 181       7.840 -30.367  25.107  1.00 40.72 LIG 0.15  C 
BRANCH 22 23
ATOM     23  CG  ASP E 181       8.449 -30.433  26.492  1.00 40.82 LIG 0.17  C 
ATOM     24 OD1  ASP E 181       9.682 -30.620  26.605  1.00 47.44 LIG-0.65  OA
ATOM     25 OD2  ASP E 181       7.687 -30.285  27.467  1.00 24.37 LIG-0.65  OA
ENDBRANCH 22 23
ENDBRANCH 10 22
ENDBRANCH 8 10
ENDBRANCH 1 6
BRANCH 1 26
ATOM     26  N   ASP E 180       3.746 -27.168  26.176  1.00 48.48 LIG-0.34  N 
ATOM     27  C   ASP E 179       2.856 -28.152  26.322  1.00 52.76 LIG 0.24  C 
ATOM     28 O    ASP E 179       3.111 -29.261  26.792  1.00 54.54 LIG-0.27  OA
ATOM     29 H    ASP E 180       3.534 -26.411  25.827  1.00 48.48 LIG 0.16  HD
BRANCH 27 30
ATOM     30  CA  ASP E 179       1.444 -27.807  25.854  1.00 62.98 LIG 0.19  C 
BRANCH 30 31
ATOM     31  N   ASP E 179       0.904 -26.542  26.363  1.00 68.60 LIG-0.34  N 
ATOM     32  C   VAL E 178       0.526 -26.374  27.629  1.00 59.78 LIG 0.26  C 
ATOM     33 O    VAL E 178       0.390 -27.308  28.423  1.00 49.42 LIG-0.27  OA
ATOM     34 H    ASP E 179       0.855 -25.923  25.769  1.00 68.60 LIG 0.16  HD
BRANCH 32 35
ATOM     35  CA  VAL E 178       0.231 -24.933  28.056  1.00 59.92 LIG 0.40  C 
ATOM     36  N   VAL E 178      -0.124 -24.844  29.469  1.00 55.12 LIG 0.61  N 
BRANCH 35 37
ATOM     37  CB  VAL E 178       1.460 -24.047  27.726  1.00 50.97 LIG 0.03  C 
ATOM     38  CG2 VAL E 178       2.569 -24.240  28.750  1.00 47.22 LIG 0.01  C 
ATOM     39  CG1 VAL E 178       1.050 -22.591  27.658  1.00 50.59 LIG 0.01  C 
ENDBRANCH 35 37
ENDBRANCH 32 35
ENDBRANCH 30 31
BRANCH 30 40
ATOM     40  CB  ASP E 179       1.432 -27.789  24.326  1.00 47.75 LIG 0.15  C 
BRANCH 40 41
ATOM     41  CG  ASP E 179       0.102 -27.350  23.766  1.00 48.80 LIG 0.17  C 
ATOM     42 OD2  ASP E 179      -0.008 -27.198  22.525  1.00 55.56 LIG-0.65  OA
ATOM     43 OD1  ASP E 179      -0.832 -27.161  24.570  1.00 40.87 LIG-0.65  OA
ENDBRANCH 40 41
ENDBRANCH 30 40
ENDBRANCH 27 30
ENDBRANCH 1 26
TORSDOF 19
ENDMDL
MODEL 24
USER: ADFR SOLUTION from run 29
USER: SCORE 12.997085 LL:  -2.201 LR: -12.017 RR:   0.000 FEB:  -6.349
USER: RMSD 8.356326
USER: SEED 28
USER: STATUS no improvement in best in 8 clusters for 5 generations
USER: GENES 21
USER: genes 0 Translation |==|  0.53424 0.64097 0.61215
USER: genes 1 Rotation |==|  0.94442 0.45014 0.72286 0.51839
USER: genes 2 Torsion [C]-CA--CB-[CG] |==|  0.23992
USER: genes 3 Torsion [CA]-CB--CG-[OD1] |==|  0.37937
USER: genes 4 Torsion [N]-CA--C-[N] |==|  0.44818
USER: genes 5 Torsion [C]-N--CA-[CB] |==|  0.22120
USER: genes 6 Torsion [N]-CA--C-[N] |==|  0.01959
USER: genes 7 Torsion [C]-N--CA-[CB] |==|  0.26792
USER: genes 8 Torsion [N]-CA--CB-[CG] |==|  0.29177
USER: genes 9 Torsion [CA]-CB--CG-[SD] |==|  0.78077
USER: genes 10 Torsion [CB]-CG--SD-[CE] |==|  0.91327
USER: genes 11 Torsion [N]-CA--C-[O] |==|  0.46070
USER: genes 12 Torsion [N]-CA--CB-[CG] |==|  0.65392
USER: genes 13 Torsion [CA]-CB--CG-[OD1] |==|  0.46967
USER: genes 14 Torsion [CB]-CA--N-[C] |==|  0.53333
USER: genes 15 Torsion [N]-C--CA-[N] |==|  0.17223
USER: genes 16 Torsion [C]-CA--N-[C] |==|  0.69062
USER: genes 17 Torsion [N]-C--CA-[N] |==|  0.30865
USER: genes 18 Torsion [C]-CA--CB-[CG2] |==|  0.51034
USER: genes 19 Torsion [C]-CA--CB-[CG] |==|  0.30875
USER: genes 20 Torsion [CA]-CB--CG-[OD2] |==|  0.19197
ROOT
ATOM      1  CA  ASP E 180       3.287 -25.210  28.802  1.00 46.29 LIG 0.19  C 
ENDROOT
BRANCH 1 2
ATOM      2  CB  ASP E 180       2.403 -24.160  28.136  1.00 53.57 LIG 0.15  C 
BRANCH 2 3
ATOM      3  CG  ASP E 180       1.097 -24.733  27.637  1.00 52.91 LIG 0.17  C 
ATOM      4 OD1  ASP E 180       0.047 -24.083  27.840  1.00 53.16 LIG-0.65  OA
ATOM      5 OD2  ASP E 180       1.120 -25.827  27.037  1.00 39.91 LIG-0.65  OA
ENDBRANCH 2 3
ENDBRANCH 1 2
BRANCH 1 6
ATOM      6  C   ASP E 180       4.138 -25.923  27.743  1.00 46.16 LIG 0.24  C 
ATOM      7 O    ASP E 180       5.337 -25.662  27.623  1.00 47.92 LIG-0.27  OA
ATOM      8  N   ASP E 181       3.531 -26.821  26.974  1.00 48.75 LIG-0.34  N 
ATOM      9 H    ASP E 181       2.689 -26.994  26.995  1.00 48.75 LIG 0.16  HD
BRANCH 8 10
ATOM     10  CA  ASP E 181       4.299 -27.598  26.006  1.00 45.01 LIG 0.19  C 
BRANCH 10 11
ATOM     11  C   ASP E 181       3.444 -28.140  24.864  1.00 47.33 LIG 0.24  C 
ATOM     12 O    ASP E 181       3.912 -28.912  24.017  1.00 41.27 LIG-0.27  OA
ATOM     13  N   MET E 182       2.187 -27.705  24.848  1.00 63.00 LIG-0.35  N 
ATOM     14 H    MET E 182       1.882 -27.120  25.399  1.00 63.00 LIG 0.16  HD
BRANCH 13 15
ATOM     15  CA  MET E 182       1.201 -28.182  23.890  1.00 43.88 LIG 0.16  C 
BRANCH 15 16
ATOM     16  CB  MET E 182       0.364 -29.298  24.512  1.00 44.38 LIG 0.04  C 
BRANCH 16 17
ATOM     17  CG  MET E 182      -1.035 -28.868  24.906  1.00 63.17 LIG 0.08  C 
BRANCH 17 18
ATOM     18 SD   MET E 182      -1.066 -27.959  26.461  1.00101.17 LIG-0.17  SA
ATOM     19  CE  MET E 182       0.309 -28.721  27.321  1.00 68.91 LIG 0.09  C 
ENDBRANCH 17 18
ENDBRANCH 16 17
ENDBRANCH 15 16
BRANCH 15 20
ATOM     20  C   MET E 182       0.294 -27.047  23.409  1.00 60.82 LIG 0.22  C 
ATOM     21 O    MET E 182      -0.428 -27.182  22.416  1.00 58.83 LIG-0.29  OA
ENDBRANCH 15 20
ENDBRANCH 13 15
ENDBRANCH 10 11
BRANCH 10 22
ATOM     22  CB  ASP E 181       5.019 -28.746  26.712  1.00 40.72 LIG 0.15  C 
BRANCH 22 23
ATOM     23  CG  ASP E 181       6.512 -28.729  26.460  1.00 40.82 LIG 0.17  C 
ATOM     24 OD1  ASP E 181       7.251 -29.480  27.136  1.00 47.44 LIG-0.65  OA
ATOM     25 OD2  ASP E 181       6.941 -27.966  25.572  1.00 24.37 LIG-0.65  OA
ENDBRANCH 22 23
ENDBRANCH 10 22
ENDBRANCH 8 10
ENDBRANCH 1 6
BRANCH 1 26
ATOM     26  N   ASP E 180       4.164 -24.618  29.817  1.00 48.48 LIG-0.34  N 
ATOM     27  C   ASP E 179       5.196 -25.228  30.404  1.00 52.76 LIG 0.24  C 
ATOM     28 O    ASP E 179       5.536 -26.391  30.185  1.00 54.54 LIG-0.27  OA
ATOM     29 H    ASP E 180       3.945 -23.808  30.009  1.00 48.48 LIG 0.16  HD
BRANCH 27 30
ATOM     30  CA  ASP E 179       5.962 -24.364  31.403  1.00 62.98 LIG 0.19  C 
BRANCH 30 31
ATOM     31  N   ASP E 179       5.187 -23.901  32.558  1.00 68.60 LIG-0.34  N 
ATOM     32  C   VAL E 178       4.858 -22.623  32.743  1.00 59.78 LIG 0.26  C 
ATOM     33 O    VAL E 178       5.349 -21.698  32.092  1.00 49.42 LIG-0.27  OA
ATOM     34 H    ASP E 179       4.967 -24.529  33.102  1.00 68.60 LIG 0.16  HD
BRANCH 32 35
ATOM     35  CA  VAL E 178       3.837 -22.347  33.851  1.00 59.92 LIG 0.40  C 
ATOM     36  N   VAL E 178       4.438 -21.650  34.984  1.00 55.12 LIG 0.61  N 
BRANCH 35 37
ATOM     37  CB  VAL E 178       2.652 -21.542  33.257  1.00 50.97 LIG 0.03  C 
ATOM     38  CG2 VAL E 178       1.649 -21.162  34.337  1.00 47.22 LIG 0.01  C 
ATOM     39  CG1 VAL E 178       1.975 -22.342  32.164  1.00 50.59 LIG 0.01  C 
ENDBRANCH 35 37
ENDBRANCH 32 35
ENDBRANCH 30 31
BRANCH 30 40
ATOM     40  CB  ASP E 179       7.180 -25.150  31.887  1.00 47.75 LIG 0.15  C 
BRANCH 40 41
ATOM     41  CG  ASP E 179       8.478 -24.563  31.391  1.00 48.80 LIG 0.17  C 
ATOM     42 OD2  ASP E 179       8.848 -23.453  31.843  1.00 55.56 LIG-0.65  OA
ATOM     43 OD1  ASP E 179       9.127 -25.218  30.551  1.00 40.87 LIG-0.65  OA
ENDBRANCH 40 41
ENDBRANCH 30 40
ENDBRANCH 27 30
ENDBRANCH 1 26
TORSDOF 19
ENDMDL
MODEL 25
USER: ADFR SOLUTION from run 30
USER: SCORE 13.119950 LL:  -2.036 LR: -12.010 RR:   0.000 FEB:  -6.342
USER: RMSD 5.291314
USER: SEED 29
USER: STATUS searching
USER: GENES 21
USER: genes 0 Translation |==|  0.40901 0.64824 0.54854
USER: genes 1 Rotation |==|  0.50270 0.75101 0.47633 0.93177
USER: genes 2 Torsion [C]-CA--CB-[CG] |==|  0.30979
USER: genes 3 Torsion [CA]-CB--CG-[OD1] |==|  0.53456
USER: genes 4 Torsion [N]-CA--C-[N] |==|  0.79664
USER: genes 5 Torsion [C]-N--CA-[CB] |==|  0.83562
USER: genes 6 Torsion [N]-CA--C-[N] |==|  0.38893
USER: genes 7 Torsion [C]-N--CA-[CB] |==|  0.80967
USER: genes 8 Torsion [N]-CA--CB-[CG] |==|  0.91573
USER: genes 9 Torsion [CA]-CB--CG-[SD] |==|  0.82487
USER: genes 10 Torsion [CB]-CG--SD-[CE] |==|  0.36092
USER: genes 11 Torsion [N]-CA--C-[O] |==|  0.14923
USER: genes 12 Torsion [N]-CA--CB-[CG] |==|  0.77758
USER: genes 13 Torsion [CA]-CB--CG-[OD1] |==|  0.83371
USER: genes 14 Torsion [CB]-CA--N-[C] |==|  0.85915
USER: genes 15 Torsion [N]-C--CA-[N] |==|  0.42934
USER: genes 16 Torsion [C]-CA--N-[C] |==|  0.64252
USER: genes 17 Torsion [N]-C--CA-[N] |==|  0.38680
USER: genes 18 Torsion [C]-CA--CB-[CG2] |==|  0.11778
USER: genes 19 Torsion [C]-CA--CB-[CG] |==|  0.17636
USER: genes 20 Torsion [CA]-CB--CG-[OD2] |==|  0.73297
ROOT
ATOM      1  CA  ASP E 180       0.563 -25.090  27.514  1.00 46.29 LIG 0.19  C 
ENDROOT
BRANCH 1 2
ATOM      2  CB  ASP E 180      -0.493 -25.794  28.359  1.00 53.57 LIG 0.15  C 
BRANCH 2 3
ATOM      3  CG  ASP E 180      -1.785 -25.015  28.440  1.00 52.91 LIG 0.17  C 
ATOM      4 OD1  ASP E 180      -2.638 -25.364  29.286  1.00 53.16 LIG-0.65  OA
ATOM      5 OD2  ASP E 180      -1.946 -24.051  27.664  1.00 39.91 LIG-0.65  OA
ENDBRANCH 2 3
ENDBRANCH 1 2
BRANCH 1 6
ATOM      6  C   ASP E 180       1.714 -24.611  28.410  1.00 46.16 LIG 0.24  C 
ATOM      7 O    ASP E 180       2.119 -23.449  28.340  1.00 47.92 LIG-0.27  OA
ATOM      8  N   ASP E 181       2.242 -25.494  29.250  1.00 48.75 LIG-0.34  N 
ATOM      9 H    ASP E 181       2.019 -26.323  29.293  1.00 48.75 LIG 0.16  HD
BRANCH 8 10
ATOM     10  CA  ASP E 181       3.280 -25.083  30.191  1.00 45.01 LIG 0.19  C 
BRANCH 10 11
ATOM     11  C   ASP E 181       2.787 -24.061  31.212  1.00 47.33 LIG 0.24  C 
ATOM     12 O    ASP E 181       2.035 -23.133  30.885  1.00 41.27 LIG-0.27  OA
ATOM     13  N   MET E 182       3.241 -24.239  32.449  1.00 63.00 LIG-0.35  N 
ATOM     14 H    MET E 182       3.812 -24.845  32.661  1.00 63.00 LIG 0.16  HD
BRANCH 13 15
ATOM     15  CA  MET E 182       2.809 -23.419  33.572  1.00 43.88 LIG 0.16  C 
BRANCH 15 16
ATOM     16  CB  MET E 182       3.338 -21.994  33.412  1.00 44.38 LIG 0.04  C 
BRANCH 16 17
ATOM     17  CG  MET E 182       4.657 -21.910  32.671  1.00 63.17 LIG 0.08  C 
BRANCH 17 18
ATOM     18 SD   MET E 182       5.993 -22.749  33.542  1.00101.17 LIG-0.17  SA
ATOM     19  CE  MET E 182       6.664 -23.764  32.226  1.00 68.91 LIG 0.09  C 
ENDBRANCH 17 18
ENDBRANCH 16 17
ENDBRANCH 15 16
BRANCH 15 20
ATOM     20  C   MET E 182       1.285 -23.405  33.701  1.00 60.82 LIG 0.22  C 
ATOM     21 O    MET E 182       0.639 -24.456  33.770  1.00 58.83 LIG-0.29  OA
ENDBRANCH 15 20
ENDBRANCH 13 15
ENDBRANCH 10 11
BRANCH 10 22
ATOM     22  CB  ASP E 181       4.482 -24.525  29.430  1.00 40.72 LIG 0.15  C 
BRANCH 22 23
ATOM     23  CG  ASP E 181       5.371 -25.621  28.880  1.00 40.82 LIG 0.17  C 
ATOM     24 OD1  ASP E 181       5.897 -26.432  29.674  1.00 47.44 LIG-0.65  OA
ATOM     25 OD2  ASP E 181       5.532 -25.670  27.644  1.00 24.37 LIG-0.65  OA
ENDBRANCH 22 23
ENDBRANCH 10 22
ENDBRANCH 8 10
ENDBRANCH 1 6
BRANCH 1 26
ATOM     26  N   ASP E 180       1.092 -25.967  26.465  1.00 48.48 LIG-0.34  N 
ATOM     27  C   ASP E 179       1.557 -27.205  26.649  1.00 52.76 LIG 0.24  C 
ATOM     28 O    ASP E 179       1.627 -27.771  27.741  1.00 54.54 LIG-0.27  OA
ATOM     29 H    ASP E 180       1.075 -25.599  25.688  1.00 48.48 LIG 0.16  HD
BRANCH 27 30
ATOM     30  CA  ASP E 179       2.016 -27.908  25.373  1.00 62.98 LIG 0.19  C 
BRANCH 30 31
ATOM     31  N   ASP E 179       3.023 -28.957  25.561  1.00 68.60 LIG-0.34  N 
ATOM     32  C   VAL E 178       4.159 -29.002  24.866  1.00 59.78 LIG 0.26  C 
ATOM     33 O    VAL E 178       4.368 -28.310  23.868  1.00 49.42 LIG-0.27  OA
ATOM     34 H    ASP E 179       2.812 -29.538  26.159  1.00 68.60 LIG 0.16  HD
BRANCH 32 35
ATOM     35  CA  VAL E 178       5.208 -30.004  25.360  1.00 59.92 LIG 0.40  C 
ATOM     36  N   VAL E 178       5.866 -30.693  24.255  1.00 55.12 LIG 0.61  N 
BRANCH 35 37
ATOM     37  CB  VAL E 178       6.235 -29.260  26.253  1.00 50.97 LIG 0.03  C 
ATOM     38  CG2 VAL E 178       5.542 -28.282  27.191  1.00 47.22 LIG 0.01  C 
ATOM     39  CG1 VAL E 178       7.249 -28.539  25.391  1.00 50.59 LIG 0.01  C 
ENDBRANCH 35 37
ENDBRANCH 32 35
ENDBRANCH 30 31
BRANCH 30 40
ATOM     40  CB  ASP E 179       0.789 -28.498  24.679  1.00 47.75 LIG 0.15  C 
BRANCH 40 41
ATOM     41  CG  ASP E 179      -0.185 -27.436  24.232  1.00 48.80 LIG 0.17  C 
ATOM     42 OD2  ASP E 179      -1.158 -27.161  24.974  1.00 55.56 LIG-0.65  OA
ATOM     43 OD1  ASP E 179       0.029 -26.876  23.138  1.00 40.87 LIG-0.65  OA
ENDBRANCH 40 41
ENDBRANCH 30 40
ENDBRANCH 27 30
ENDBRANCH 1 26
TORSDOF 19
ENDMDL
MODEL 26
USER: ADFR SOLUTION from run 118
USER: SCORE 12.353532 LL:  -2.118 LR: -11.998 RR:   0.000 FEB:  -6.331
USER: RMSD 9.499689
USER: SEED 117
USER: STATUS no improvement in best in 8 clusters for 5 generations
USER: GENES 21
USER: genes 0 Translation |==|  0.51204 0.58364 0.56272
USER: genes 1 Rotation |==|  0.35715 0.13213 0.80681 0.51149
USER: genes 2 Torsion [C]-CA--CB-[CG] |==|  0.25789
USER: genes 3 Torsion [CA]-CB--CG-[OD1] |==|  0.00281
USER: genes 4 Torsion [N]-CA--C-[N] |==|  0.18513
USER: genes 5 Torsion [C]-N--CA-[CB] |==|  0.45754
USER: genes 6 Torsion [N]-CA--C-[N] |==|  0.92016
USER: genes 7 Torsion [C]-N--CA-[CB] |==|  0.34334
USER: genes 8 Torsion [N]-CA--CB-[CG] |==|  0.48155
USER: genes 9 Torsion [CA]-CB--CG-[SD] |==|  0.35884
USER: genes 10 Torsion [CB]-CG--SD-[CE] |==|  0.55683
USER: genes 11 Torsion [N]-CA--C-[O] |==|  0.00779
USER: genes 12 Torsion [N]-CA--CB-[CG] |==|  0.94124
USER: genes 13 Torsion [CA]-CB--CG-[OD1] |==|  0.89056
USER: genes 14 Torsion [CB]-CA--N-[C] |==|  0.78207
USER: genes 15 Torsion [N]-C--CA-[N] |==|  0.07057
USER: genes 16 Torsion [C]-CA--N-[C] |==|  0.67226
USER: genes 17 Torsion [N]-C--CA-[N] |==|  0.39425
USER: genes 18 Torsion [C]-CA--CB-[CG2] |==|  0.47990
USER: genes 19 Torsion [C]-CA--CB-[CG] |==|  0.64084
USER: genes 20 Torsion [CA]-CB--CG-[OD2] |==|  0.82235
ROOT
ATOM      1  CA  ASP E 180       2.804 -26.156  27.801  1.00 46.29 LIG 0.19  C 
ENDROOT
BRANCH 1 2
ATOM      2  CB  ASP E 180       3.658 -26.357  29.049  1.00 53.57 LIG 0.15  C 
BRANCH 2 3
ATOM      3  CG  ASP E 180       5.117 -26.050  28.809  1.00 52.91 LIG 0.17  C 
ATOM      4 OD1  ASP E 180       5.463 -25.661  27.671  1.00 53.16 LIG-0.65  OA
ATOM      5 OD2  ASP E 180       5.917 -26.191  29.757  1.00 39.91 LIG-0.65  OA
ENDBRANCH 2 3
ENDBRANCH 1 2
BRANCH 1 6
ATOM      6  C   ASP E 180       2.681 -27.480  27.035  1.00 46.16 LIG 0.24  C 
ATOM      7 O    ASP E 180       3.075 -28.534  27.538  1.00 47.92 LIG-0.27  OA
ATOM      8  N   ASP E 181       2.136 -27.436  25.823  1.00 48.75 LIG-0.34  N 
ATOM      9 H    ASP E 181       1.895 -26.716  25.421  1.00 48.75 LIG 0.16  HD
BRANCH 8 10
ATOM     10  CA  ASP E 181       1.910 -28.669  25.075  1.00 45.01 LIG 0.19  C 
BRANCH 10 11
ATOM     11  C   ASP E 181       3.200 -29.298  24.558  1.00 47.33 LIG 0.24  C 
ATOM     12 O    ASP E 181       3.305 -30.521  24.402  1.00 41.27 LIG-0.27  OA
ATOM     13  N   MET E 182       4.186 -28.438  24.313  1.00 63.00 LIG-0.35  N 
ATOM     14 H    MET E 182       4.132 -27.597  24.483  1.00 63.00 LIG 0.16  HD
BRANCH 13 15
ATOM     15  CA  MET E 182       5.457 -28.843  23.732  1.00 43.88 LIG 0.16  C 
BRANCH 15 16
ATOM     16  CB  MET E 182       5.728 -28.042  22.459  1.00 44.38 LIG 0.04  C 
BRANCH 16 17
ATOM     17  CG  MET E 182       7.103 -28.279  21.868  1.00 63.17 LIG 0.08  C 
BRANCH 17 18
ATOM     18 SD   MET E 182       7.041 -28.682  20.113  1.00101.17 LIG-0.17  SA
ATOM     19  CE  MET E 182       8.631 -29.481  19.897  1.00 68.91 LIG 0.09  C 
ENDBRANCH 17 18
ENDBRANCH 16 17
ENDBRANCH 15 16
BRANCH 15 20
ATOM     20  C   MET E 182       6.608 -28.662  24.724  1.00 60.82 LIG 0.22  C 
ATOM     21 O    MET E 182       6.404 -28.270  25.877  1.00 58.83 LIG-0.29  OA
ENDBRANCH 15 20
ENDBRANCH 13 15
ENDBRANCH 10 11
BRANCH 10 22
ATOM     22  CB  ASP E 181       0.953 -28.406  23.913  1.00 40.72 LIG 0.15  C 
BRANCH 22 23
ATOM     23  CG  ASP E 181       0.119 -27.159  24.127  1.00 40.82 LIG 0.17  C 
ATOM     24 OD1  ASP E 181      -0.321 -26.913  25.272  1.00 47.44 LIG-0.65  OA
ATOM     25 OD2  ASP E 181      -0.083 -26.422  23.142  1.00 24.37 LIG-0.65  OA
ENDBRANCH 22 23
ENDBRANCH 10 22
ENDBRANCH 8 10
ENDBRANCH 1 6
BRANCH 1 26
ATOM     26  N   ASP E 180       1.466 -25.656  28.133  1.00 48.48 LIG-0.34  N 
ATOM     27  C   ASP E 179       0.456 -26.393  28.601  1.00 52.76 LIG 0.24  C 
ATOM     28 O    ASP E 179       0.507 -27.608  28.794  1.00 54.54 LIG-0.27  OA
ATOM     29 H    ASP E 180       1.387 -24.811  27.995  1.00 48.48 LIG 0.16  HD
BRANCH 27 30
ATOM     30  CA  ASP E 179      -0.821 -25.608  28.896  1.00 62.98 LIG 0.19  C 
BRANCH 30 31
ATOM     31  N   ASP E 179      -0.988 -24.369  28.131  1.00 68.60 LIG-0.34  N 
ATOM     32  C   VAL E 178      -1.056 -23.168  28.704  1.00 59.78 LIG 0.26  C 
ATOM     33 O    VAL E 178      -1.204 -23.007  29.917  1.00 49.42 LIG-0.27  OA
ATOM     34 H    ASP E 179      -1.037 -24.489  27.281  1.00 68.60 LIG 0.16  HD
BRANCH 32 35
ATOM     35  CA  VAL E 178      -0.971 -21.967  27.757  1.00 59.92 LIG 0.40  C 
ATOM     36  N   VAL E 178      -1.861 -20.885  28.169  1.00 55.12 LIG 0.61  N 
BRANCH 35 37
ATOM     37  CB  VAL E 178       0.502 -21.487  27.681  1.00 50.97 LIG 0.03  C 
ATOM     38  CG2 VAL E 178       0.675 -20.410  26.620  1.00 47.22 LIG 0.01  C 
ATOM     39  CG1 VAL E 178       1.417 -22.660  27.399  1.00 50.59 LIG 0.01  C 
ENDBRANCH 35 37
ENDBRANCH 32 35
ENDBRANCH 30 31
BRANCH 30 40
ATOM     40  CB  ASP E 179      -2.019 -26.525  28.650  1.00 47.75 LIG 0.15  C 
BRANCH 40 41
ATOM     41  CG  ASP E 179      -3.055 -25.890  27.756  1.00 48.80 LIG 0.17  C 
ATOM     42 OD2  ASP E 179      -3.648 -24.861  28.159  1.00 55.56 LIG-0.65  OA
ATOM     43 OD1  ASP E 179      -3.272 -26.424  26.650  1.00 40.87 LIG-0.65  OA
ENDBRANCH 40 41
ENDBRANCH 30 40
ENDBRANCH 27 30
ENDBRANCH 1 26
TORSDOF 19
ENDMDL
MODEL 27
USER: ADFR SOLUTION from run 114
USER: SCORE 12.626716 LL:  -2.808 LR: -11.993 RR:   0.000 FEB:  -6.325
USER: RMSD 4.749640
USER: SEED 113
USER: STATUS no improvement in best in 20 clusters for 5 generations
USER: GENES 21
USER: genes 0 Translation |==|  0.58595 0.41013 0.49332
USER: genes 1 Rotation |==|  0.83507 0.21110 0.29879 0.61740
USER: genes 2 Torsion [C]-CA--CB-[CG] |==|  0.22788
USER: genes 3 Torsion [CA]-CB--CG-[OD1] |==|  0.09848
USER: genes 4 Torsion [N]-CA--C-[N] |==|  0.78889
USER: genes 5 Torsion [C]-N--CA-[CB] |==|  0.79297
USER: genes 6 Torsion [N]-CA--C-[N] |==|  0.11224
USER: genes 7 Torsion [C]-N--CA-[CB] |==|  0.39604
USER: genes 8 Torsion [N]-CA--CB-[CG] |==|  0.26479
USER: genes 9 Torsion [CA]-CB--CG-[SD] |==|  0.52100
USER: genes 10 Torsion [CB]-CG--SD-[CE] |==|  0.91103
USER: genes 11 Torsion [N]-CA--C-[O] |==|  0.27808
USER: genes 12 Torsion [N]-CA--CB-[CG] |==|  0.65842
USER: genes 13 Torsion [CA]-CB--CG-[OD1] |==|  0.89623
USER: genes 14 Torsion [CB]-CA--N-[C] |==|  0.85351
USER: genes 15 Torsion [N]-C--CA-[N] |==|  0.55211
USER: genes 16 Torsion [C]-CA--N-[C] |==|  0.78324
USER: genes 17 Torsion [N]-C--CA-[N] |==|  0.50476
USER: genes 18 Torsion [C]-CA--CB-[CG2] |==|  0.24836
USER: genes 19 Torsion [C]-CA--CB-[CG] |==|  0.82201
USER: genes 20 Torsion [CA]-CB--CG-[OD2] |==|  0.79750
ROOT
ATOM      1  CA  ASP E 180       4.411 -29.019  26.396  1.00 46.29 LIG 0.19  C 
ENDROOT
BRANCH 1 2
ATOM      2  CB  ASP E 180       5.254 -27.749  26.332  1.00 53.57 LIG 0.15  C 
BRANCH 2 3
ATOM      3  CG  ASP E 180       5.183 -26.941  27.606  1.00 52.91 LIG 0.17  C 
ATOM      4 OD1  ASP E 180       5.102 -27.553  28.694  1.00 53.16 LIG-0.65  OA
ATOM      5 OD2  ASP E 180       5.215 -25.696  27.522  1.00 39.91 LIG-0.65  OA
ENDBRANCH 2 3
ENDBRANCH 1 2
BRANCH 1 6
ATOM      6  C   ASP E 180       2.945 -28.688  26.085  1.00 46.16 LIG 0.24  C 
ATOM      7 O    ASP E 180       2.040 -29.123  26.800  1.00 47.92 LIG-0.27  OA
ATOM      8  N   ASP E 181       2.702 -27.921  25.027  1.00 48.75 LIG-0.34  N 
ATOM      9 H    ASP E 181       3.302 -27.640  24.479  1.00 48.75 LIG 0.16  HD
BRANCH 8 10
ATOM     10  CA  ASP E 181       1.338 -27.497  24.725  1.00 45.01 LIG 0.19  C 
BRANCH 10 11
ATOM     11  C   ASP E 181       0.613 -26.920  25.937  1.00 47.33 LIG 0.24  C 
ATOM     12 O    ASP E 181      -0.582 -27.162  26.150  1.00 41.27 LIG-0.27  OA
ATOM     13  N   MET E 182       1.354 -26.137  26.716  1.00 63.00 LIG-0.35  N 
ATOM     14 H    MET E 182       2.165 -25.919  26.533  1.00 63.00 LIG 0.16  HD
BRANCH 13 15
ATOM     15  CA  MET E 182       0.859 -25.571  27.963  1.00 43.88 LIG 0.16  C 
BRANCH 15 16
ATOM     16  CB  MET E 182       1.974 -25.557  29.009  1.00 44.38 LIG 0.04  C 
BRANCH 16 17
ATOM     17  CG  MET E 182       2.718 -24.240  29.091  1.00 63.17 LIG 0.08  C 
BRANCH 17 18
ATOM     18 SD   MET E 182       4.157 -24.326  30.173  1.00101.17 LIG-0.17  SA
ATOM     19  CE  MET E 182       3.594 -25.522  31.382  1.00 68.91 LIG 0.09  C 
ENDBRANCH 17 18
ENDBRANCH 16 17
ENDBRANCH 15 16
BRANCH 15 20
ATOM     20  C   MET E 182       0.311 -24.158  27.757  1.00 60.82 LIG 0.22  C 
ATOM     21 O    MET E 182      -0.903 -23.951  27.656  1.00 58.83 LIG-0.29  OA
ENDBRANCH 15 20
ENDBRANCH 13 15
ENDBRANCH 10 11
BRANCH 10 22
ATOM     22  CB  ASP E 181       0.544 -28.667  24.147  1.00 40.72 LIG 0.15  C 
BRANCH 22 23
ATOM     23  CG  ASP E 181      -0.033 -28.351  22.783  1.00 40.82 LIG 0.17  C 
ATOM     24 OD1  ASP E 181      -0.463 -27.197  22.558  1.00 47.44 LIG-0.65  OA
ATOM     25 OD2  ASP E 181      -0.043 -29.262  21.932  1.00 24.37 LIG-0.65  OA
ENDBRANCH 22 23
ENDBRANCH 10 22
ENDBRANCH 8 10
ENDBRANCH 1 6
BRANCH 1 26
ATOM     26  N   ASP E 180       4.892 -30.038  25.457  1.00 48.48 LIG-0.34  N 
ATOM     27  C   ASP E 179       5.101 -29.854  24.151  1.00 52.76 LIG 0.24  C 
ATOM     28 O    ASP E 179       4.892 -28.799  23.551  1.00 54.54 LIG-0.27  OA
ATOM     29 H    ASP E 180       5.034 -30.795  25.838  1.00 48.48 LIG 0.16  HD
BRANCH 27 30
ATOM     30  CA  ASP E 179       5.639 -31.079  23.415  1.00 62.98 LIG 0.19  C 
BRANCH 30 31
ATOM     31  N   ASP E 179       6.272 -30.807  22.121  1.00 68.60 LIG-0.34  N 
ATOM     32  C   VAL E 178       5.576 -30.570  21.010  1.00 59.78 LIG 0.26  C 
ATOM     33 O    VAL E 178       4.363 -30.770  20.918  1.00 49.42 LIG-0.27  OA
ATOM     34 H    ASP E 179       7.131 -30.815  22.147  1.00 68.60 LIG 0.16  HD
BRANCH 32 35
ATOM     35  CA  VAL E 178       6.379 -30.053  19.812  1.00 59.92 LIG 0.40  C 
ATOM     36  N   VAL E 178       5.526 -29.786  18.659  1.00 55.12 LIG 0.61  N 
BRANCH 35 37
ATOM     37  CB  VAL E 178       7.164 -28.786  20.239  1.00 50.97 LIG 0.03  C 
ATOM     38  CG2 VAL E 178       8.535 -29.149  20.792  1.00 47.22 LIG 0.01  C 
ATOM     39  CG1 VAL E 178       6.371 -28.003  21.263  1.00 50.59 LIG 0.01  C 
ENDBRANCH 35 37
ENDBRANCH 32 35
ENDBRANCH 30 31
BRANCH 30 40
ATOM     40  CB  ASP E 179       6.632 -31.795  24.329  1.00 47.75 LIG 0.15  C 
BRANCH 40 41
ATOM     41  CG  ASP E 179       7.845 -30.952  24.633  1.00 48.80 LIG 0.17  C 
ATOM     42 OD2  ASP E 179       8.697 -30.775  23.730  1.00 55.56 LIG-0.65  OA
ATOM     43 OD1  ASP E 179       7.941 -30.466  25.778  1.00 40.87 LIG-0.65  OA
ENDBRANCH 40 41
ENDBRANCH 30 40
ENDBRANCH 27 30
ENDBRANCH 1 26
TORSDOF 19
ENDMDL
MODEL 28
USER: ADFR SOLUTION from run 95
USER: SCORE 12.597134 LL:  -1.417 LR: -11.975 RR:   0.000 FEB:  -6.307
USER: RMSD 6.100036
USER: SEED 94
USER: STATUS no improvement in best in 12 clusters for 5 generations
USER: GENES 21
USER: genes 0 Translation |==|  0.55375 0.46983 0.50465
USER: genes 1 Rotation |==|  0.90670 0.28390 0.33025 0.59529
USER: genes 2 Torsion [C]-CA--CB-[CG] |==|  0.44194
USER: genes 3 Torsion [CA]-CB--CG-[OD1] |==|  0.46502
USER: genes 4 Torsion [N]-CA--C-[N] |==|  0.15000
USER: genes 5 Torsion [C]-N--CA-[CB] |==|  0.81647
USER: genes 6 Torsion [N]-CA--C-[N] |==|  0.45539
USER: genes 7 Torsion [C]-N--CA-[CB] |==|  0.45021
USER: genes 8 Torsion [N]-CA--CB-[CG] |==|  0.29935
USER: genes 9 Torsion [CA]-CB--CG-[SD] |==|  0.30203
USER: genes 10 Torsion [CB]-CG--SD-[CE] |==|  0.58733
USER: genes 11 Torsion [N]-CA--C-[O] |==|  0.19559
USER: genes 12 Torsion [N]-CA--CB-[CG] |==|  0.30863
USER: genes 13 Torsion [CA]-CB--CG-[OD1] |==|  0.25101
USER: genes 14 Torsion [CB]-CA--N-[C] |==|  0.79083
USER: genes 15 Torsion [N]-C--CA-[N] |==|  0.48192
USER: genes 16 Torsion [C]-CA--N-[C] |==|  0.55899
USER: genes 17 Torsion [N]-C--CA-[N] |==|  0.34478
USER: genes 18 Torsion [C]-CA--CB-[CG2] |==|  0.43499
USER: genes 19 Torsion [C]-CA--CB-[CG] |==|  0.27437
USER: genes 20 Torsion [CA]-CB--CG-[OD2] |==|  0.27206
ROOT
ATOM      1  CA  ASP E 180       3.711 -28.034  26.625  1.00 46.29 LIG 0.19  C 
ENDROOT
BRANCH 1 2
ATOM      2  CB  ASP E 180       4.037 -26.571  26.910  1.00 53.57 LIG 0.15  C 
BRANCH 2 3
ATOM      3  CG  ASP E 180       5.167 -26.411  27.899  1.00 52.91 LIG 0.17  C 
ATOM      4 OD1  ASP E 180       5.684 -25.279  28.032  1.00 53.16 LIG-0.65  OA
ATOM      5 OD2  ASP E 180       5.534 -27.412  28.548  1.00 39.91 LIG-0.65  OA
ENDBRANCH 2 3
ENDBRANCH 1 2
BRANCH 1 6
ATOM      6  C   ASP E 180       2.287 -28.152  26.064  1.00 46.16 LIG 0.24  C 
ATOM      7 O    ASP E 180       1.573 -27.153  25.954  1.00 47.92 LIG-0.27  OA
ATOM      8  N   ASP E 181       1.869 -29.361  25.706  1.00 48.75 LIG-0.34  N 
ATOM      9 H    ASP E 181       2.320 -30.086  25.813  1.00 48.75 LIG 0.16  HD
BRANCH 8 10
ATOM     10  CA  ASP E 181       0.560 -29.532  25.085  1.00 45.01 LIG 0.19  C 
BRANCH 10 11
ATOM     11  C   ASP E 181       0.393 -28.707  23.812  1.00 47.33 LIG 0.24  C 
ATOM     12 O    ASP E 181       1.150 -27.763  23.551  1.00 41.27 LIG-0.27  OA
ATOM     13  N   MET E 182      -0.625 -29.069  23.036  1.00 63.00 LIG-0.35  N 
ATOM     14 H    MET E 182      -1.188 -29.683  23.251  1.00 63.00 LIG 0.16  HD
BRANCH 13 15
ATOM     15  CA  MET E 182      -0.886 -28.457  21.742  1.00 43.88 LIG 0.16  C 
BRANCH 15 16
ATOM     16  CB  MET E 182      -1.809 -29.353  20.917  1.00 44.38 LIG 0.04  C 
BRANCH 16 17
ATOM     17  CG  MET E 182      -3.218 -28.813  20.773  1.00 63.17 LIG 0.08  C 
BRANCH 17 18
ATOM     18 SD   MET E 182      -3.567 -28.227  19.106  1.00101.17 LIG-0.17  SA
ATOM     19  CE  MET E 182      -4.725 -26.904  19.453  1.00 68.91 LIG 0.09  C 
ENDBRANCH 17 18
ENDBRANCH 16 17
ENDBRANCH 15 16
BRANCH 15 20
ATOM     20  C   MET E 182      -1.500 -27.064  21.894  1.00 60.82 LIG 0.22  C 
ATOM     21 O    MET E 182      -0.833 -26.114  22.317  1.00 58.83 LIG-0.29  OA
ENDBRANCH 15 20
ENDBRANCH 13 15
ENDBRANCH 10 11
BRANCH 10 22
ATOM     22  CB  ASP E 181      -0.541 -29.182  26.084  1.00 40.72 LIG 0.15  C 
BRANCH 22 23
ATOM     23  CG  ASP E 181      -1.276 -27.912  25.709  1.00 40.82 LIG 0.17  C 
ATOM     24 OD1  ASP E 181      -2.290 -27.990  24.980  1.00 47.44 LIG-0.65  OA
ATOM     25 OD2  ASP E 181      -0.836 -26.835  26.157  1.00 24.37 LIG-0.65  OA
ENDBRANCH 22 23
ENDBRANCH 10 22
ENDBRANCH 8 10
ENDBRANCH 1 6
BRANCH 1 26
ATOM     26  N   ASP E 180       4.661 -28.628  25.679  1.00 48.48 LIG-0.34  N 
ATOM     27  C   ASP E 179       4.684 -28.410  24.362  1.00 52.76 LIG 0.24  C 
ATOM     28 O    ASP E 179       3.886 -27.692  23.758  1.00 54.54 LIG-0.27  OA
ATOM     29 H    ASP E 180       5.225 -29.150  26.064  1.00 48.48 LIG 0.16  HD
BRANCH 27 30
ATOM     30  CA  ASP E 179       5.806 -29.132  23.618  1.00 62.98 LIG 0.19  C 
BRANCH 30 31
ATOM     31  N   ASP E 179       5.760 -29.026  22.156  1.00 68.60 LIG-0.34  N 
ATOM     32  C   VAL E 178       6.373 -29.890  21.349  1.00 59.78 LIG 0.26  C 
ATOM     33 O    VAL E 178       7.201 -30.713  21.745  1.00 49.42 LIG-0.27  OA
ATOM     34 H    ASP E 179       5.302 -28.357  21.871  1.00 68.60 LIG 0.16  HD
BRANCH 32 35
ATOM     35  CA  VAL E 178       6.016 -29.790  19.862  1.00 59.92 LIG 0.40  C 
ATOM     36  N   VAL E 178       7.198 -29.593  19.030  1.00 55.12 LIG 0.61  N 
BRANCH 35 37
ATOM     37  CB  VAL E 178       5.236 -31.063  19.443  1.00 50.97 LIG 0.03  C 
ATOM     38  CG2 VAL E 178       4.378 -30.802  18.214  1.00 47.22 LIG 0.01  C 
ATOM     39  CG1 VAL E 178       4.380 -31.551  20.592  1.00 50.59 LIG 0.01  C 
ENDBRANCH 35 37
ENDBRANCH 32 35
ENDBRANCH 30 31
BRANCH 30 40
ATOM     40  CB  ASP E 179       7.144 -28.598  24.126  1.00 47.75 LIG 0.15  C 
BRANCH 40 41
ATOM     41  CG  ASP E 179       7.770 -29.503  25.158  1.00 48.80 LIG 0.17  C 
ATOM     42 OD2  ASP E 179       8.655 -30.314  24.792  1.00 55.56 LIG-0.65  OA
ATOM     43 OD1  ASP E 179       7.375 -29.398  26.337  1.00 40.87 LIG-0.65  OA
ENDBRANCH 40 41
ENDBRANCH 30 40
ENDBRANCH 27 30
ENDBRANCH 1 26
TORSDOF 19
ENDMDL
MODEL 29
USER: ADFR SOLUTION from run 139
USER: SCORE 12.953019 LL:  -2.896 LR: -11.982 RR:   0.000 FEB:  -6.314
USER: RMSD 4.289203
USER: SEED 138
USER: STATUS no improvement in best in 12 clusters for 5 generations
USER: GENES 21
USER: genes 0 Translation |==|  0.47638 0.47712 0.41048
USER: genes 1 Rotation |==|  0.55344 0.45704 0.45322 0.99306
USER: genes 2 Torsion [C]-CA--CB-[CG] |==|  0.17560
USER: genes 3 Torsion [CA]-CB--CG-[OD1] |==|  0.27277
USER: genes 4 Torsion [N]-CA--C-[N] |==|  0.39695
USER: genes 5 Torsion [C]-N--CA-[CB] |==|  0.79973
USER: genes 6 Torsion [N]-CA--C-[N] |==|  0.14162
USER: genes 7 Torsion [C]-N--CA-[CB] |==|  0.24138
USER: genes 8 Torsion [N]-CA--CB-[CG] |==|  0.74990
USER: genes 9 Torsion [CA]-CB--CG-[SD] |==|  0.35690
USER: genes 10 Torsion [CB]-CG--SD-[CE] |==|  0.59347
USER: genes 11 Torsion [N]-CA--C-[O] |==|  0.89910
USER: genes 12 Torsion [N]-CA--CB-[CG] |==|  0.73537
USER: genes 13 Torsion [CA]-CB--CG-[OD1] |==|  0.97715
USER: genes 14 Torsion [CB]-CA--N-[C] |==|  0.29444
USER: genes 15 Torsion [N]-C--CA-[N] |==|  0.44418
USER: genes 16 Torsion [C]-CA--N-[C] |==|  0.82156
USER: genes 17 Torsion [N]-C--CA-[N] |==|  0.50046
USER: genes 18 Torsion [C]-CA--CB-[CG2] |==|  0.24087
USER: genes 19 Torsion [C]-CA--CB-[CG] |==|  0.83344
USER: genes 20 Torsion [CA]-CB--CG-[OD2] |==|  0.76524
ROOT
ATOM      1  CA  ASP E 180       2.028 -27.913  24.718  1.00 46.29 LIG 0.19  C 
ENDROOT
BRANCH 1 2
ATOM      2  CB  ASP E 180       0.817 -28.373  23.913  1.00 53.57 LIG 0.15  C 
BRANCH 2 3
ATOM      3  CG  ASP E 180      -0.247 -27.306  23.806  1.00 52.91 LIG 0.17  C 
ATOM      4 OD1  ASP E 180      -0.289 -26.611  22.766  1.00 53.16 LIG-0.65  OA
ATOM      5 OD2  ASP E 180      -1.045 -27.166  24.755  1.00 39.91 LIG-0.65  OA
ENDBRANCH 2 3
ENDBRANCH 1 2
BRANCH 1 6
ATOM      6  C   ASP E 180       1.611 -27.617  26.165  1.00 46.16 LIG 0.24  C 
ATOM      7 O    ASP E 180       1.576 -28.520  27.004  1.00 47.92 LIG-0.27  OA
ATOM      8  N   ASP E 181       1.294 -26.362  26.465  1.00 48.75 LIG-0.34  N 
ATOM      9 H    ASP E 181       1.260 -25.717  25.898  1.00 48.75 LIG 0.16  HD
BRANCH 8 10
ATOM     10  CA  ASP E 181       0.972 -25.995  27.841  1.00 45.01 LIG 0.19  C 
BRANCH 10 11
ATOM     11  C   ASP E 181       2.028 -26.455  28.843  1.00 47.33 LIG 0.24  C 
ATOM     12 O    ASP E 181       1.718 -27.078  29.866  1.00 41.27 LIG-0.27  OA
ATOM     13  N   MET E 182       3.278 -26.119  28.536  1.00 63.00 LIG-0.35  N 
ATOM     14 H    MET E 182       3.484 -25.632  27.859  1.00 63.00 LIG 0.16  HD
BRANCH 13 15
ATOM     15  CA  MET E 182       4.424 -26.548  29.325  1.00 43.88 LIG 0.16  C 
BRANCH 15 16
ATOM     16  CB  MET E 182       4.905 -27.917  28.845  1.00 44.38 LIG 0.04  C 
BRANCH 16 17
ATOM     17  CG  MET E 182       4.247 -29.081  29.558  1.00 63.17 LIG 0.08  C 
BRANCH 17 18
ATOM     18 SD   MET E 182       3.559 -30.291  28.414  1.00101.17 LIG-0.17  SA
ATOM     19  CE  MET E 182       2.126 -30.845  29.336  1.00 68.91 LIG 0.09  C 
ENDBRANCH 17 18
ENDBRANCH 16 17
ENDBRANCH 15 16
BRANCH 15 20
ATOM     20  C   MET E 182       5.565 -25.531  29.252  1.00 60.82 LIG 0.22  C 
ATOM     21 O    MET E 182       5.804 -24.911  28.210  1.00 58.83 LIG-0.29  OA
ENDBRANCH 15 20
ENDBRANCH 13 15
ENDBRANCH 10 11
BRANCH 10 22
ATOM     22  CB  ASP E 181      -0.395 -26.557  28.225  1.00 40.72 LIG 0.15  C 
BRANCH 22 23
ATOM     23  CG  ASP E 181      -1.507 -25.547  28.031  1.00 40.82 LIG 0.17  C 
ATOM     24 OD1  ASP E 181      -1.210 -24.364  27.750  1.00 47.44 LIG-0.65  OA
ATOM     25 OD2  ASP E 181      -2.681 -25.948  28.152  1.00 24.37 LIG-0.65  OA
ENDBRANCH 22 23
ENDBRANCH 10 22
ENDBRANCH 8 10
ENDBRANCH 1 6
BRANCH 1 26
ATOM     26  N   ASP E 180       3.097 -28.917  24.713  1.00 48.48 LIG-0.34  N 
ATOM     27  C   ASP E 179       4.237 -28.835  24.023  1.00 52.76 LIG 0.24  C 
ATOM     28 O    ASP E 179       4.534 -27.905  23.272  1.00 54.54 LIG-0.27  OA
ATOM     29 H    ASP E 180       2.917 -29.592  25.215  1.00 48.48 LIG 0.16  HD
BRANCH 27 30
ATOM     30  CA  ASP E 179       5.192 -30.009  24.229  1.00 62.98 LIG 0.19  C 
BRANCH 30 31
ATOM     31  N   ASP E 179       6.202 -30.189  23.182  1.00 68.60 LIG-0.34  N 
ATOM     32  C   VAL E 178       5.892 -30.493  21.922  1.00 59.78 LIG 0.26  C 
ATOM     33 O    VAL E 178       4.769 -30.862  21.574  1.00 49.42 LIG-0.27  OA
ATOM     34 H    ASP E 179       7.009 -30.079  23.456  1.00 68.60 LIG 0.16  HD
BRANCH 32 35
ATOM     35  CA  VAL E 178       7.035 -30.392  20.907  1.00 59.92 LIG 0.40  C 
ATOM     36  N   VAL E 178       6.598 -30.740  19.559  1.00 55.12 LIG 0.61  N 
BRANCH 35 37
ATOM     37  CB  VAL E 178       7.628 -28.960  20.956  1.00 50.97 LIG 0.03  C 
ATOM     38  CG2 VAL E 178       8.705 -28.847  22.025  1.00 47.22 LIG 0.01  C 
ATOM     39  CG1 VAL E 178       6.528 -27.949  21.202  1.00 50.59 LIG 0.01  C 
ENDBRANCH 35 37
ENDBRANCH 32 35
ENDBRANCH 30 31
BRANCH 30 40
ATOM     40  CB  ASP E 179       5.883 -29.838  25.581  1.00 47.75 LIG 0.15  C 
BRANCH 40 41
ATOM     41  CG  ASP E 179       6.673 -28.556  25.665  1.00 48.80 LIG 0.17  C 
ATOM     42 OD2  ASP E 179       7.844 -28.539  25.214  1.00 55.56 LIG-0.65  OA
ATOM     43 OD1  ASP E 179       6.118 -27.566  26.182  1.00 40.87 LIG-0.65  OA
ENDBRANCH 40 41
ENDBRANCH 30 40
ENDBRANCH 27 30
ENDBRANCH 1 26
TORSDOF 19
ENDMDL
MODEL 30
USER: ADFR SOLUTION from run 4
USER: SCORE 12.389692 LL:  -1.583 LR: -11.961 RR:   0.000 FEB:  -6.293
USER: RMSD 9.054218
USER: SEED 923575
USER: STATUS no improvement in best in 16 clusters for 5 generations
USER: GENES 21
USER: genes 0 Translation |==|  0.49257 0.64058 0.56462
USER: genes 1 Rotation |==|  0.35705 0.16884 0.79084 0.68792
USER: genes 2 Torsion [C]-CA--CB-[CG] |==|  0.33519
USER: genes 3 Torsion [CA]-CB--CG-[OD1] |==|  0.24880
USER: genes 4 Torsion [N]-CA--C-[N] |==|  0.59254
USER: genes 5 Torsion [C]-N--CA-[CB] |==|  0.83265
USER: genes 6 Torsion [N]-CA--C-[N] |==|  0.43394
USER: genes 7 Torsion [C]-N--CA-[CB] |==|  0.52086
USER: genes 8 Torsion [N]-CA--CB-[CG] |==|  0.66002
USER: genes 9 Torsion [CA]-CB--CG-[SD] |==|  0.71499
USER: genes 10 Torsion [CB]-CG--SD-[CE] |==|  0.97047
USER: genes 11 Torsion [N]-CA--C-[O] |==|  0.29444
USER: genes 12 Torsion [N]-CA--CB-[CG] |==|  0.37209
USER: genes 13 Torsion [CA]-CB--CG-[OD1] |==|  0.26568
USER: genes 14 Torsion [CB]-CA--N-[C] |==|  0.76667
USER: genes 15 Torsion [N]-C--CA-[N] |==|  0.89455
USER: genes 16 Torsion [C]-CA--N-[C] |==|  0.76978
USER: genes 17 Torsion [N]-C--CA-[N] |==|  0.33230
USER: genes 18 Torsion [C]-CA--CB-[CG2] |==|  0.45734
USER: genes 19 Torsion [C]-CA--CB-[CG] |==|  0.91673
USER: genes 20 Torsion [CA]-CB--CG-[OD2] |==|  0.78297
ROOT
ATOM      1  CA  ASP E 180       2.380 -25.216  27.840  1.00 46.29 LIG 0.19  C 
ENDROOT
BRANCH 1 2
ATOM      2  CB  ASP E 180       3.472 -26.073  28.473  1.00 53.57 LIG 0.15  C 
BRANCH 2 3
ATOM      3  CG  ASP E 180       4.836 -25.803  27.885  1.00 52.91 LIG 0.17  C 
ATOM      4 OD1  ASP E 180       5.542 -24.911  28.406  1.00 53.16 LIG-0.65  OA
ATOM      5 OD2  ASP E 180       5.207 -26.484  26.907  1.00 39.91 LIG-0.65  OA
ENDBRANCH 2 3
ENDBRANCH 1 2
BRANCH 1 6
ATOM      6  C   ASP E 180       1.312 -26.118  27.206  1.00 46.16 LIG 0.24  C 
ATOM      7 O    ASP E 180       0.165 -25.700  27.029  1.00 47.92 LIG-0.27  OA
ATOM      8  N   ASP E 181       1.676 -27.349  26.862  1.00 48.75 LIG-0.34  N 
ATOM      9 H    ASP E 181       2.450 -27.690  27.014  1.00 48.75 LIG 0.16  HD
BRANCH 8 10
ATOM     10  CA  ASP E 181       0.734 -28.228  26.176  1.00 45.01 LIG 0.19  C 
BRANCH 10 11
ATOM     11  C   ASP E 181       0.316 -27.701  24.807  1.00 47.33 LIG 0.24  C 
ATOM     12 O    ASP E 181       0.362 -26.493  24.539  1.00 41.27 LIG-0.27  OA
ATOM     13  N   MET E 182      -0.111 -28.627  23.954  1.00 63.00 LIG-0.35  N 
ATOM     14 H    MET E 182      -0.203 -29.456  24.163  1.00 63.00 LIG 0.16  HD
BRANCH 13 15
ATOM     15  CA  MET E 182      -0.467 -28.325  22.575  1.00 43.88 LIG 0.16  C 
BRANCH 15 16
ATOM     16  CB  MET E 182      -1.092 -29.553  21.915  1.00 44.38 LIG 0.04  C 
BRANCH 16 17
ATOM     17  CG  MET E 182      -0.364 -30.015  20.668  1.00 63.17 LIG 0.08  C 
BRANCH 17 18
ATOM     18 SD   MET E 182      -1.211 -29.530  19.154  1.00101.17 LIG-0.17  SA
ATOM     19  CE  MET E 182      -2.774 -28.954  19.816  1.00 68.91 LIG 0.09  C 
ENDBRANCH 17 18
ENDBRANCH 16 17
ENDBRANCH 15 16
BRANCH 15 20
ATOM     20  C   MET E 182      -1.426 -27.136  22.493  1.00 60.82 LIG 0.22  C 
ATOM     21 O    MET E 182      -1.041 -26.028  22.103  1.00 58.83 LIG-0.29  OA
ENDBRANCH 15 20
ENDBRANCH 13 15
ENDBRANCH 10 11
BRANCH 10 22
ATOM     22  CB  ASP E 181      -0.499 -28.455  27.049  1.00 40.72 LIG 0.15  C 
BRANCH 22 23
ATOM     23  CG  ASP E 181      -1.789 -28.309  26.270  1.00 40.82 LIG 0.17  C 
ATOM     24 OD1  ASP E 181      -2.338 -29.334  25.806  1.00 47.44 LIG-0.65  OA
ATOM     25 OD2  ASP E 181      -2.257 -27.161  26.134  1.00 24.37 LIG-0.65  OA
ENDBRANCH 22 23
ENDBRANCH 10 22
ENDBRANCH 8 10
ENDBRANCH 1 6
BRANCH 1 26
ATOM     26  N   ASP E 180       1.751 -24.326  28.820  1.00 48.48 LIG-0.34  N 
ATOM     27  C   ASP E 179       0.756 -24.660  29.645  1.00 52.76 LIG 0.24  C 
ATOM     28 O    ASP E 179       0.212 -25.764  29.675  1.00 54.54 LIG-0.27  OA
ATOM     29 H    ASP E 180       2.094 -23.538  28.817  1.00 48.48 LIG 0.16  HD
BRANCH 27 30
ATOM     30  CA  ASP E 179       0.313 -23.545  30.590  1.00 62.98 LIG 0.19  C 
BRANCH 30 31
ATOM     31  N   ASP E 179       1.390 -22.703  31.118  1.00 68.60 LIG-0.34  N 
ATOM     32  C   VAL E 178       2.129 -23.049  32.172  1.00 59.78 LIG 0.26  C 
ATOM     33 O    VAL E 178       1.840 -23.984  32.921  1.00 49.42 LIG-0.27  OA
ATOM     34 H    ASP E 179       1.500 -21.968  30.686  1.00 68.60 LIG 0.16  HD
BRANCH 32 35
ATOM     35  CA  VAL E 178       3.370 -22.189  32.433  1.00 59.92 LIG 0.40  C 
ATOM     36  N   VAL E 178       3.320 -21.545  33.742  1.00 55.12 LIG 0.61  N 
BRANCH 35 37
ATOM     37  CB  VAL E 178       4.636 -23.071  32.286  1.00 50.97 LIG 0.03  C 
ATOM     38  CG2 VAL E 178       5.890 -22.217  32.160  1.00 47.22 LIG 0.01  C 
ATOM     39  CG1 VAL E 178       4.496 -23.987  31.088  1.00 50.59 LIG 0.01  C 
ENDBRANCH 35 37
ENDBRANCH 32 35
ENDBRANCH 30 31
BRANCH 30 40
ATOM     40  CB  ASP E 179      -0.707 -22.670  29.862  1.00 47.75 LIG 0.15  C 
BRANCH 40 41
ATOM     41  CG  ASP E 179      -0.475 -22.636  28.372  1.00 48.80 LIG 0.17  C 
ATOM     42 OD2  ASP E 179       0.441 -21.906  27.922  1.00 55.56 LIG-0.65  OA
ATOM     43 OD1  ASP E 179      -1.211 -23.342  27.654  1.00 40.87 LIG-0.65  OA
ENDBRANCH 40 41
ENDBRANCH 30 40
ENDBRANCH 27 30
ENDBRANCH 1 26
TORSDOF 19
ENDMDL
MODEL 31
USER: ADFR SOLUTION from run 82
USER: SCORE 12.440997 LL:  -1.727 LR: -11.919 RR:   0.000 FEB:  -6.251
USER: RMSD 8.891712
USER: SEED 81
USER: STATUS no improvement in best in 31 clusters for 5 generations
USER: GENES 21
USER: genes 0 Translation |==|  0.44835 0.45708 0.46823
USER: genes 1 Rotation |==|  0.24892 0.44445 0.07326 0.54200
USER: genes 2 Torsion [C]-CA--CB-[CG] |==|  0.52834
USER: genes 3 Torsion [CA]-CB--CG-[OD1] |==|  0.03438
USER: genes 4 Torsion [N]-CA--C-[N] |==|  0.76200
USER: genes 5 Torsion [C]-N--CA-[CB] |==|  0.83205
USER: genes 6 Torsion [N]-CA--C-[N] |==|  0.37080
USER: genes 7 Torsion [C]-N--CA-[CB] |==|  0.44434
USER: genes 8 Torsion [N]-CA--CB-[CG] |==|  0.67930
USER: genes 9 Torsion [CA]-CB--CG-[SD] |==|  0.13153
USER: genes 10 Torsion [CB]-CG--SD-[CE] |==|  0.60539
USER: genes 11 Torsion [N]-CA--C-[O] |==|  0.97649
USER: genes 12 Torsion [N]-CA--CB-[CG] |==|  0.72310
USER: genes 13 Torsion [CA]-CB--CG-[OD1] |==|  0.01840
USER: genes 14 Torsion [CB]-CA--N-[C] |==|  0.83177
USER: genes 15 Torsion [N]-C--CA-[N] |==|  0.14192
USER: genes 16 Torsion [C]-CA--N-[C] |==|  0.15808
USER: genes 17 Torsion [N]-C--CA-[N] |==|  0.85635
USER: genes 18 Torsion [C]-CA--CB-[CG2] |==|  0.43219
USER: genes 19 Torsion [C]-CA--CB-[CG] |==|  0.26313
USER: genes 20 Torsion [CA]-CB--CG-[OD2] |==|  0.09982
ROOT
ATOM      1  CA  ASP E 180       1.419 -28.244  25.888  1.00 46.29 LIG 0.19  C 
ENDROOT
BRANCH 1 2
ATOM      2  CB  ASP E 180       1.403 -27.538  24.536  1.00 53.57 LIG 0.15  C 
BRANCH 2 3
ATOM      3  CG  ASP E 180       0.009 -27.160  24.095  1.00 52.91 LIG 0.17  C 
ATOM      4 OD1  ASP E 180      -0.919 -27.231  24.931  1.00 53.16 LIG-0.65  OA
ATOM      5 OD2  ASP E 180      -0.160 -26.787  22.915  1.00 39.91 LIG-0.65  OA
ENDBRANCH 2 3
ENDBRANCH 1 2
BRANCH 1 6
ATOM      6  C   ASP E 180       2.862 -28.371  26.394  1.00 46.16 LIG 0.24  C 
ATOM      7 O    ASP E 180       3.228 -29.382  26.996  1.00 47.92 LIG-0.27  OA
ATOM      8  N   ASP E 181       3.685 -27.355  26.155  1.00 48.75 LIG-0.34  N 
ATOM      9 H    ASP E 181       3.454 -26.615  25.782  1.00 48.75 LIG 0.16  HD
BRANCH 8 10
ATOM     10  CA  ASP E 181       5.092 -27.446  26.531  1.00 45.01 LIG 0.19  C 
BRANCH 10 11
ATOM     11  C   ASP E 181       5.836 -28.554  25.791  1.00 47.33 LIG 0.24  C 
ATOM     12 O    ASP E 181       5.367 -29.695  25.697  1.00 41.27 LIG-0.27  OA
ATOM     13  N   MET E 182       7.014 -28.199  25.285  1.00 63.00 LIG-0.35  N 
ATOM     14 H    MET E 182       7.367 -27.425  25.406  1.00 63.00 LIG 0.16  HD
BRANCH 13 15
ATOM     15  CA  MET E 182       7.824 -29.095  24.472  1.00 43.88 LIG 0.16  C 
BRANCH 15 16
ATOM     16  CB  MET E 182       8.828 -28.289  23.649  1.00 44.38 LIG 0.04  C 
BRANCH 16 17
ATOM     17  CG  MET E 182       8.607 -28.381  22.153  1.00 63.17 LIG 0.08  C 
BRANCH 17 18
ATOM     18 SD   MET E 182       6.884 -28.130  21.693  1.00101.17 LIG-0.17  SA
ATOM     19  CE  MET E 182       6.716 -29.319  20.362  1.00 68.91 LIG 0.09  C 
ENDBRANCH 17 18
ENDBRANCH 16 17
ENDBRANCH 15 16
BRANCH 15 20
ATOM     20  C   MET E 182       8.554 -30.126  25.335  1.00 60.82 LIG 0.22  C 
ATOM     21 O    MET E 182       8.552 -30.047  26.567  1.00 58.83 LIG-0.29  OA
ENDBRANCH 15 20
ENDBRANCH 13 15
ENDBRANCH 10 11
BRANCH 10 22
ATOM     22  CB  ASP E 181       5.216 -27.648  28.040  1.00 40.72 LIG 0.15  C 
BRANCH 22 23
ATOM     23  CG  ASP E 181       5.538 -26.360  28.768  1.00 40.82 LIG 0.17  C 
ATOM     24 OD1  ASP E 181       5.543 -25.285  28.127  1.00 47.44 LIG-0.65  OA
ATOM     25 OD2  ASP E 181       5.775 -26.428  29.990  1.00 24.37 LIG-0.65  OA
ENDBRANCH 22 23
ENDBRANCH 10 22
ENDBRANCH 8 10
ENDBRANCH 1 6
BRANCH 1 26
ATOM     26  N   ASP E 180       0.612 -27.530  26.883  1.00 48.48 LIG-0.34  N 
ATOM     27  C   ASP E 179       0.821 -26.279  27.299  1.00 52.76 LIG 0.24  C 
ATOM     28 O    ASP E 179       1.745 -25.560  26.916  1.00 54.54 LIG-0.27  OA
ATOM     29 H    ASP E 180      -0.034 -28.008  27.187  1.00 48.48 LIG 0.16  HD
BRANCH 27 30
ATOM     30  CA  ASP E 179      -0.194 -25.770  28.320  1.00 62.98 LIG 0.19  C 
BRANCH 30 31
ATOM     31  N   ASP E 179      -0.417 -26.645  29.475  1.00 68.60 LIG-0.34  N 
ATOM     32  C   VAL E 178       0.565 -27.037  30.286  1.00 59.78 LIG 0.26  C 
ATOM     33 O    VAL E 178       1.760 -26.886  30.022  1.00 49.42 LIG-0.27  OA
ATOM     34 H    ASP E 179      -1.237 -26.880  29.579  1.00 68.60 LIG 0.16  HD
BRANCH 32 35
ATOM     35  CA  VAL E 178       0.129 -27.730  31.581  1.00 59.92 LIG 0.40  C 
ATOM     36  N   VAL E 178      -0.861 -26.946  32.312  1.00 55.12 LIG 0.61  N 
BRANCH 35 37
ATOM     37  CB  VAL E 178      -0.409 -29.144  31.240  1.00 50.97 LIG 0.03  C 
ATOM     38  CG2 VAL E 178      -0.295 -30.079  32.436  1.00 47.22 LIG 0.01  C 
ATOM     39  CG1 VAL E 178       0.334 -29.712  30.050  1.00 50.59 LIG 0.01  C 
ENDBRANCH 35 37
ENDBRANCH 32 35
ENDBRANCH 30 31
BRANCH 30 40
ATOM     40  CB  ASP E 179       0.256 -24.392  28.803  1.00 47.75 LIG 0.15  C 
BRANCH 40 41
ATOM     41  CG  ASP E 179      -0.395 -23.271  28.032  1.00 48.80 LIG 0.17  C 
ATOM     42 OD2  ASP E 179      -1.584 -23.410  27.656  1.00 55.56 LIG-0.65  OA
ATOM     43 OD1  ASP E 179       0.286 -22.251  27.806  1.00 40.87 LIG-0.65  OA
ENDBRANCH 40 41
ENDBRANCH 30 40
ENDBRANCH 27 30
ENDBRANCH 1 26
TORSDOF 19
ENDMDL
MODEL 32
USER: ADFR SOLUTION from run 159
USER: SCORE 13.368166 LL:  -2.867 LR: -11.916 RR:   0.000 FEB:  -6.248
USER: RMSD 7.687947
USER: SEED 158
USER: STATUS no improvement in best in 7 clusters for 5 generations
USER: GENES 21
USER: genes 0 Translation |==|  0.56925 0.46227 0.41633
USER: genes 1 Rotation |==|  0.35165 0.21898 0.77963 0.76614
USER: genes 2 Torsion [C]-CA--CB-[CG] |==|  0.54780
USER: genes 3 Torsion [CA]-CB--CG-[OD1] |==|  0.25881
USER: genes 4 Torsion [N]-CA--C-[N] |==|  0.16581
USER: genes 5 Torsion [C]-N--CA-[CB] |==|  0.18944
USER: genes 6 Torsion [N]-CA--C-[N] |==|  0.48719
USER: genes 7 Torsion [C]-N--CA-[CB] |==|  0.33604
USER: genes 8 Torsion [N]-CA--CB-[CG] |==|  0.53127
USER: genes 9 Torsion [CA]-CB--CG-[SD] |==|  0.63596
USER: genes 10 Torsion [CB]-CG--SD-[CE] |==|  0.24862
USER: genes 11 Torsion [N]-CA--C-[O] |==|  0.19459
USER: genes 12 Torsion [N]-CA--CB-[CG] |==|  0.24391
USER: genes 13 Torsion [CA]-CB--CG-[OD1] |==|  0.78167
USER: genes 14 Torsion [CB]-CA--N-[C] |==|  0.78887
USER: genes 15 Torsion [N]-C--CA-[N] |==|  0.35842
USER: genes 16 Torsion [C]-CA--N-[C] |==|  0.75598
USER: genes 17 Torsion [N]-C--CA-[N] |==|  0.92534
USER: genes 18 Torsion [C]-CA--CB-[CG2] |==|  0.19411
USER: genes 19 Torsion [C]-CA--CB-[CG] |==|  0.30984
USER: genes 20 Torsion [CA]-CB--CG-[OD2] |==|  0.47648
ROOT
ATOM      1  CA  ASP E 180       4.048 -28.159  24.837  1.00 46.29 LIG 0.19  C 
ENDROOT
BRANCH 1 2
ATOM      2  CB  ASP E 180       4.997 -29.293  25.209  1.00 53.57 LIG 0.15  C 
BRANCH 2 3
ATOM      3  CG  ASP E 180       6.240 -28.803  25.913  1.00 52.91 LIG 0.17  C 
ATOM      4 OD1  ASP E 180       6.242 -28.773  27.164  1.00 53.16 LIG-0.65  OA
ATOM      5 OD2  ASP E 180       7.217 -28.453  25.219  1.00 39.91 LIG-0.65  OA
ENDBRANCH 2 3
ENDBRANCH 1 2
BRANCH 1 6
ATOM      6  C   ASP E 180       2.655 -28.723  24.529  1.00 46.16 LIG 0.24  C 
ATOM      7 O    ASP E 180       2.426 -29.929  24.653  1.00 47.92 LIG-0.27  OA
ATOM      8  N   ASP E 181       1.721 -27.865  24.132  1.00 48.75 LIG-0.34  N 
ATOM      9 H    ASP E 181       1.856 -27.028  23.988  1.00 48.75 LIG 0.16  HD
BRANCH 8 10
ATOM     10  CA  ASP E 181       0.353 -28.321  23.907  1.00 45.01 LIG 0.19  C 
BRANCH 10 11
ATOM     11  C   ASP E 181      -0.510 -27.284  23.193  1.00 47.33 LIG 0.24  C 
ATOM     12 O    ASP E 181      -0.084 -26.148  22.948  1.00 41.27 LIG-0.27  OA
ATOM     13  N   MET E 182      -1.737 -27.692  22.881  1.00 63.00 LIG-0.35  N 
ATOM     14 H    MET E 182      -2.052 -28.459  23.109  1.00 63.00 LIG 0.16  HD
BRANCH 13 15
ATOM     15  CA  MET E 182      -2.670 -26.874  22.121  1.00 43.88 LIG 0.16  C 
BRANCH 15 16
ATOM     16  CB  MET E 182      -3.083 -27.603  20.843  1.00 44.38 LIG 0.04  C 
BRANCH 16 17
ATOM     17  CG  MET E 182      -3.835 -26.732  19.857  1.00 63.17 LIG 0.08  C 
BRANCH 17 18
ATOM     18 SD   MET E 182      -5.346 -27.509  19.260  1.00101.17 LIG-0.17  SA
ATOM     19  CE  MET E 182      -6.522 -26.938  20.486  1.00 68.91 LIG 0.09  C 
ENDBRANCH 17 18
ENDBRANCH 16 17
ENDBRANCH 15 16
BRANCH 15 20
ATOM     20  C   MET E 182      -3.906 -26.518  22.949  1.00 60.82 LIG 0.22  C 
ATOM     21 O    MET E 182      -3.835 -25.733  23.900  1.00 58.83 LIG-0.29  OA
ENDBRANCH 15 20
ENDBRANCH 13 15
ENDBRANCH 10 11
BRANCH 10 22
ATOM     22  CB  ASP E 181      -0.291 -28.713  25.235  1.00 40.72 LIG 0.15  C 
BRANCH 22 23
ATOM     23  CG  ASP E 181      -0.952 -27.536  25.923  1.00 40.82 LIG 0.17  C 
ATOM     24 OD1  ASP E 181      -0.237 -26.718  26.545  1.00 47.44 LIG-0.65  OA
ATOM     25 OD2  ASP E 181      -2.190 -27.429  25.828  1.00 24.37 LIG-0.65  OA
ENDBRANCH 22 23
ENDBRANCH 10 22
ENDBRANCH 8 10
ENDBRANCH 1 6
BRANCH 1 26
ATOM     26  N   ASP E 180       3.947 -27.162  25.907  1.00 48.48 LIG-0.34  N 
ATOM     27  C   ASP E 179       3.258 -27.308  27.041  1.00 52.76 LIG 0.24  C 
ATOM     28 O    ASP E 179       2.588 -28.300  27.330  1.00 54.54 LIG-0.27  OA
ATOM     29 H    ASP E 180       4.390 -26.446  25.733  1.00 48.48 LIG 0.16  HD
BRANCH 27 30
ATOM     30  CA  ASP E 179       3.353 -26.123  28.000  1.00 62.98 LIG 0.19  C 
BRANCH 30 31
ATOM     31  N   ASP E 179       2.072 -25.605  28.489  1.00 68.60 LIG-0.34  N 
ATOM     32  C   VAL E 178       1.373 -24.673  27.841  1.00 59.78 LIG 0.26  C 
ATOM     33 O    VAL E 178       1.833 -24.013  26.906  1.00 49.42 LIG-0.27  OA
ATOM     34 H    ASP E 179       1.814 -25.957  29.229  1.00 68.60 LIG 0.16  HD
BRANCH 32 35
ATOM     35  CA  VAL E 178      -0.053 -24.431  28.345  1.00 59.92 LIG 0.40  C 
ATOM     36  N   VAL E 178      -0.612 -25.618  28.984  1.00 55.12 LIG 0.61  N 
BRANCH 35 37
ATOM     37  CB  VAL E 178      -0.048 -23.219  29.311  1.00 50.97 LIG 0.03  C 
ATOM     38  CG2 VAL E 178       0.210 -21.920  28.562  1.00 47.22 LIG 0.01  C 
ATOM     39  CG1 VAL E 178       0.989 -23.421  30.395  1.00 50.59 LIG 0.01  C 
ENDBRANCH 35 37
ENDBRANCH 32 35
ENDBRANCH 30 31
BRANCH 30 40
ATOM     40  CB  ASP E 179       4.224 -26.531  29.188  1.00 47.75 LIG 0.15  C 
BRANCH 40 41
ATOM     41  CG  ASP E 179       5.542 -25.797  29.214  1.00 48.80 LIG 0.17  C 
ATOM     42 OD2  ASP E 179       6.280 -25.920  30.221  1.00 55.56 LIG-0.65  OA
ATOM     43 OD1  ASP E 179       5.837 -25.100  28.223  1.00 40.87 LIG-0.65  OA
ENDBRANCH 40 41
ENDBRANCH 30 40
ENDBRANCH 27 30
ENDBRANCH 1 26
TORSDOF 19
ENDMDL
MODEL 33
USER: ADFR SOLUTION from run 72
USER: SCORE 12.753329 LL:  -1.880 LR: -11.905 RR:   0.000 FEB:  -6.237
USER: RMSD 8.983947
USER: SEED 71
USER: STATUS no improvement in best in 12 clusters for 5 generations
USER: GENES 21
USER: genes 0 Translation |==|  0.51935 0.56517 0.53942
USER: genes 1 Rotation |==|  0.31143 0.16005 0.79554 0.60737
USER: genes 2 Torsion [C]-CA--CB-[CG] |==|  0.39267
USER: genes 3 Torsion [CA]-CB--CG-[OD1] |==|  0.45768
USER: genes 4 Torsion [N]-CA--C-[N] |==|  0.14946
USER: genes 5 Torsion [C]-N--CA-[CB] |==|  0.20551
USER: genes 6 Torsion [N]-CA--C-[N] |==|  0.67082
USER: genes 7 Torsion [C]-N--CA-[CB] |==|  0.21962
USER: genes 8 Torsion [N]-CA--CB-[CG] |==|  0.04190
USER: genes 9 Torsion [CA]-CB--CG-[SD] |==|  0.68538
USER: genes 10 Torsion [CB]-CG--SD-[CE] |==|  0.38219
USER: genes 11 Torsion [N]-CA--C-[O] |==|  0.15520
USER: genes 12 Torsion [N]-CA--CB-[CG] |==|  0.14592
USER: genes 13 Torsion [CA]-CB--CG-[OD1] |==|  0.82710
USER: genes 14 Torsion [CB]-CA--N-[C] |==|  0.15408
USER: genes 15 Torsion [N]-C--CA-[N] |==|  0.43329
USER: genes 16 Torsion [C]-CA--N-[C] |==|  0.82954
USER: genes 17 Torsion [N]-C--CA-[N] |==|  0.42751
USER: genes 18 Torsion [C]-CA--CB-[CG2] |==|  0.92844
USER: genes 19 Torsion [C]-CA--CB-[CG] |==|  0.42211
USER: genes 20 Torsion [CA]-CB--CG-[OD2] |==|  0.24660
ROOT
ATOM      1  CA  ASP E 180       2.963 -26.461  27.329  1.00 46.29 LIG 0.19  C 
ENDROOT
BRANCH 1 2
ATOM      2  CB  ASP E 180       3.833 -27.101  28.406  1.00 53.57 LIG 0.15  C 
BRANCH 2 3
ATOM      3  CG  ASP E 180       5.166 -26.407  28.563  1.00 52.91 LIG 0.17  C 
ATOM      4 OD1  ASP E 180       5.842 -26.644  29.589  1.00 53.16 LIG-0.65  OA
ATOM      5 OD2  ASP E 180       5.541 -25.632  27.660  1.00 39.91 LIG-0.65  OA
ENDBRANCH 2 3
ENDBRANCH 1 2
BRANCH 1 6
ATOM      6  C   ASP E 180       2.215 -27.549  26.548  1.00 46.16 LIG 0.24  C 
ATOM      7 O    ASP E 180       2.409 -28.742  26.792  1.00 47.92 LIG-0.27  OA
ATOM      8  N   ASP E 181       1.361 -27.151  25.610  1.00 48.75 LIG-0.34  N 
ATOM      9 H    ASP E 181       1.235 -26.332  25.379  1.00 48.75 LIG 0.16  HD
BRANCH 8 10
ATOM     10  CA  ASP E 181       0.553 -28.130  24.890  1.00 45.01 LIG 0.19  C 
BRANCH 10 11
ATOM     11  C   ASP E 181      -0.041 -27.576  23.597  1.00 47.33 LIG 0.24  C 
ATOM     12 O    ASP E 181       0.681 -27.161  22.682  1.00 41.27 LIG-0.27  OA
ATOM     13  N   MET E 182      -1.370 -27.561  23.550  1.00 63.00 LIG-0.35  N 
ATOM     14 H    MET E 182      -1.869 -27.790  24.212  1.00 63.00 LIG 0.16  HD
BRANCH 13 15
ATOM     15  CA  MET E 182      -2.112 -27.153  22.366  1.00 43.88 LIG 0.16  C 
BRANCH 15 16
ATOM     16  CB  MET E 182      -2.142 -28.293  21.350  1.00 44.38 LIG 0.04  C 
BRANCH 16 17
ATOM     17  CG  MET E 182      -1.743 -29.637  21.926  1.00 63.17 LIG 0.08  C 
BRANCH 17 18
ATOM     18 SD   MET E 182      -0.193 -30.249  21.242  1.00101.17 LIG-0.17  SA
ATOM     19  CE  MET E 182       0.599 -30.878  22.722  1.00 68.91 LIG 0.09  C 
ENDBRANCH 17 18
ENDBRANCH 16 17
ENDBRANCH 15 16
BRANCH 15 20
ATOM     20  C   MET E 182      -3.536 -26.722  22.720  1.00 60.82 LIG 0.22  C 
ATOM     21 O    MET E 182      -3.749 -25.832  23.550  1.00 58.83 LIG-0.29  OA
ENDBRANCH 15 20
ENDBRANCH 13 15
ENDBRANCH 10 11
BRANCH 10 22
ATOM     22  CB  ASP E 181      -0.561 -28.655  25.795  1.00 40.72 LIG 0.15  C 
BRANCH 22 23
ATOM     23  CG  ASP E 181      -1.373 -27.536  26.413  1.00 40.82 LIG 0.17  C 
ATOM     24 OD1  ASP E 181      -0.805 -26.723  27.176  1.00 47.44 LIG-0.65  OA
ATOM     25 OD2  ASP E 181      -2.584 -27.470  26.121  1.00 24.37 LIG-0.65  OA
ENDBRANCH 22 23
ENDBRANCH 10 22
ENDBRANCH 8 10
ENDBRANCH 1 6
BRANCH 1 26
ATOM     26  N   ASP E 180       1.997 -25.518  27.902  1.00 48.48 LIG-0.34  N 
ATOM     27  C   ASP E 179       2.297 -24.476  28.681  1.00 52.76 LIG 0.24  C 
ATOM     28 O    ASP E 179       3.435 -24.181  29.047  1.00 54.54 LIG-0.27  OA
ATOM     29 H    ASP E 180       1.187 -25.702  27.681  1.00 48.48 LIG 0.16  HD
BRANCH 27 30
ATOM     30  CA  ASP E 179       1.095 -23.636  29.110  1.00 62.98 LIG 0.19  C 
BRANCH 30 31
ATOM     31  N   ASP E 179       1.275 -22.867  30.345  1.00 68.60 LIG-0.34  N 
ATOM     32  C   VAL E 178       1.518 -23.438  31.525  1.00 59.78 LIG 0.26  C 
ATOM     33 O    VAL E 178       1.399 -24.648  31.726  1.00 49.42 LIG-0.27  OA
ATOM     34 H    ASP E 179       1.209 -22.017  30.237  1.00 68.60 LIG 0.16  HD
BRANCH 32 35
ATOM     35  CA  VAL E 178       1.933 -22.491  32.655  1.00 59.92 LIG 0.40  C 
ATOM     36  N   VAL E 178       1.595 -23.031  33.969  1.00 55.12 LIG 0.61  N 
BRANCH 35 37
ATOM     37  CB  VAL E 178       3.452 -22.200  32.538  1.00 50.97 LIG 0.03  C 
ATOM     38  CG2 VAL E 178       4.176 -23.335  31.827  1.00 47.22 LIG 0.01  C 
ATOM     39  CG1 VAL E 178       4.046 -21.971  33.912  1.00 50.59 LIG 0.01  C 
ENDBRANCH 35 37
ENDBRANCH 32 35
ENDBRANCH 30 31
BRANCH 30 40
ATOM     40  CB  ASP E 179       0.736 -22.689  27.967  1.00 47.75 LIG 0.15  C 
BRANCH 40 41
ATOM     41  CG  ASP E 179      -0.728 -22.325  27.960  1.00 48.80 LIG 0.17  C 
ATOM     42 OD2  ASP E 179      -1.105 -21.330  28.625  1.00 55.56 LIG-0.65  OA
ATOM     43 OD1  ASP E 179      -1.499 -23.036  27.285  1.00 40.87 LIG-0.65  OA
ENDBRANCH 40 41
ENDBRANCH 30 40
ENDBRANCH 27 30
ENDBRANCH 1 26
TORSDOF 19
ENDMDL
MODEL 34
USER: ADFR SOLUTION from run 53
USER: SCORE 11.537847 LL:  -2.190 LR: -11.901 RR:   0.000 FEB:  -6.234
USER: RMSD 8.869622
USER: SEED 52
USER: STATUS no improvement in best in 7 clusters for 5 generations
USER: GENES 21
USER: genes 0 Translation |==|  0.56558 0.69025 0.65250
USER: genes 1 Rotation |==|  0.59803 0.93426 0.27276 0.51289
USER: genes 2 Torsion [C]-CA--CB-[CG] |==|  0.04407
USER: genes 3 Torsion [CA]-CB--CG-[OD1] |==|  0.76486
USER: genes 4 Torsion [N]-CA--C-[N] |==|  0.95971
USER: genes 5 Torsion [C]-N--CA-[CB] |==|  0.19786
USER: genes 6 Torsion [N]-CA--C-[N] |==|  0.32575
USER: genes 7 Torsion [C]-N--CA-[CB] |==|  0.42296
USER: genes 8 Torsion [N]-CA--CB-[CG] |==|  0.49899
USER: genes 9 Torsion [CA]-CB--CG-[SD] |==|  0.43504
USER: genes 10 Torsion [CB]-CG--SD-[CE] |==|  0.49560
USER: genes 11 Torsion [N]-CA--C-[O] |==|  0.71264
USER: genes 12 Torsion [N]-CA--CB-[CG] |==|  0.64556
USER: genes 13 Torsion [CA]-CB--CG-[OD1] |==|  0.90369
USER: genes 14 Torsion [CB]-CA--N-[C] |==|  0.45573
USER: genes 15 Torsion [N]-C--CA-[N] |==|  0.43536
USER: genes 16 Torsion [C]-CA--N-[C] |==|  0.80715
USER: genes 17 Torsion [N]-C--CA-[N] |==|  0.47687
USER: genes 18 Torsion [C]-CA--CB-[CG2] |==|  0.21710
USER: genes 19 Torsion [C]-CA--CB-[CG] |==|  0.76467
USER: genes 20 Torsion [CA]-CB--CG-[OD2] |==|  0.82186
ROOT
ATOM      1  CA  ASP E 180       3.968 -24.397  29.619  1.00 46.29 LIG 0.19  C 
ENDROOT
BRANCH 1 2
ATOM      2  CB  ASP E 180       4.834 -24.833  30.797  1.00 53.57 LIG 0.15  C 
BRANCH 2 3
ATOM      3  CG  ASP E 180       5.940 -25.777  30.385  1.00 52.91 LIG 0.17  C 
ATOM      4 OD1  ASP E 180       5.678 -26.997  30.298  1.00 53.16 LIG-0.65  OA
ATOM      5 OD2  ASP E 180       7.067 -25.299  30.142  1.00 39.91 LIG-0.65  OA
ENDBRANCH 2 3
ENDBRANCH 1 2
BRANCH 1 6
ATOM      6  C   ASP E 180       4.206 -25.329  28.423  1.00 46.16 LIG 0.24  C 
ATOM      7 O    ASP E 180       5.267 -25.286  27.797  1.00 47.92 LIG-0.27  OA
ATOM      8  N   ASP E 181       3.230 -26.172  28.102  1.00 48.75 LIG-0.34  N 
ATOM      9 H    ASP E 181       2.460 -26.197  28.484  1.00 48.75 LIG 0.16  HD
BRANCH 8 10
ATOM     10  CA  ASP E 181       3.423 -27.145  27.031  1.00 45.01 LIG 0.19  C 
BRANCH 10 11
ATOM     11  C   ASP E 181       2.117 -27.778  26.559  1.00 47.33 LIG 0.24  C 
ATOM     12 O    ASP E 181       1.428 -28.476  27.314  1.00 41.27 LIG-0.27  OA
ATOM     13  N   MET E 182       1.802 -27.536  25.290  1.00 63.00 LIG-0.35  N 
ATOM     14 H    MET E 182       2.313 -27.105  24.750  1.00 63.00 LIG 0.16  HD
BRANCH 13 15
ATOM     15  CA  MET E 182       0.553 -27.981  24.690  1.00 43.88 LIG 0.16  C 
BRANCH 15 16
ATOM     16  CB  MET E 182       0.156 -27.042  23.551  1.00 44.38 LIG 0.04  C 
BRANCH 16 17
ATOM     17  CG  MET E 182      -1.134 -27.433  22.858  1.00 63.17 LIG 0.08  C 
BRANCH 17 18
ATOM     18 SD   MET E 182      -1.923 -26.040  22.031  1.00101.17 LIG-0.17  SA
ATOM     19  CE  MET E 182      -3.346 -26.848  21.301  1.00 68.91 LIG 0.09  C 
ENDBRANCH 17 18
ENDBRANCH 16 17
ENDBRANCH 15 16
BRANCH 15 20
ATOM     20  C   MET E 182       0.659 -29.418  24.177  1.00 60.82 LIG 0.22  C 
ATOM     21 O    MET E 182       0.784 -29.660  22.972  1.00 58.83 LIG-0.29  OA
ENDBRANCH 15 20
ENDBRANCH 13 15
ENDBRANCH 10 11
BRANCH 10 22
ATOM     22  CB  ASP E 181       4.398 -28.231  27.483  1.00 40.72 LIG 0.15  C 
BRANCH 22 23
ATOM     23  CG  ASP E 181       5.536 -28.426  26.503  1.00 40.82 LIG 0.17  C 
ATOM     24 OD1  ASP E 181       5.313 -28.288  25.279  1.00 47.44 LIG-0.65  OA
ATOM     25 OD2  ASP E 181       6.658 -28.708  26.966  1.00 24.37 LIG-0.65  OA
ENDBRANCH 22 23
ENDBRANCH 10 22
ENDBRANCH 8 10
ENDBRANCH 1 6
BRANCH 1 26
ATOM     26  N   ASP E 180       2.543 -24.396  29.964  1.00 48.48 LIG-0.34  N 
ATOM     27  C   ASP E 179       1.577 -23.791  29.270  1.00 52.76 LIG 0.24  C 
ATOM     28 O    ASP E 179       1.760 -23.125  28.250  1.00 54.54 LIG-0.27  OA
ATOM     29 H    ASP E 180       2.378 -24.839  30.682  1.00 48.48 LIG 0.16  HD
BRANCH 27 30
ATOM     30  CA  ASP E 179       0.171 -23.982  29.837  1.00 62.98 LIG 0.19  C 
BRANCH 30 31
ATOM     31  N   ASP E 179      -0.803 -22.954  29.460  1.00 68.60 LIG-0.34  N 
ATOM     32  C   VAL E 178      -0.744 -21.700  29.909  1.00 59.78 LIG 0.26  C 
ATOM     33 O    VAL E 178      -0.010 -21.349  30.835  1.00 49.42 LIG-0.27  OA
ATOM     34 H    ASP E 179      -1.414 -23.235  28.924  1.00 68.60 LIG 0.16  HD
BRANCH 32 35
ATOM     35  CA  VAL E 178      -1.676 -20.697  29.223  1.00 59.92 LIG 0.40  C 
ATOM     36  N   VAL E 178      -1.684 -19.407  29.904  1.00 55.12 LIG 0.61  N 
BRANCH 35 37
ATOM     37  CB  VAL E 178      -1.254 -20.549  27.738  1.00 50.97 LIG 0.03  C 
ATOM     38  CG2 VAL E 178      -1.748 -21.724  26.906  1.00 47.22 LIG 0.01  C 
ATOM     39  CG1 VAL E 178       0.250 -20.422  27.634  1.00 50.59 LIG 0.01  C 
ENDBRANCH 35 37
ENDBRANCH 32 35
ENDBRANCH 30 31
BRANCH 30 40
ATOM     40  CB  ASP E 179      -0.342 -25.354  29.404  1.00 47.75 LIG 0.15  C 
BRANCH 40 41
ATOM     41  CG  ASP E 179      -0.965 -25.330  28.031  1.00 48.80 LIG 0.17  C 
ATOM     42 OD2  ASP E 179      -2.002 -24.647  27.853  1.00 55.56 LIG-0.65  OA
ATOM     43 OD1  ASP E 179      -0.411 -25.993  27.131  1.00 40.87 LIG-0.65  OA
ENDBRANCH 40 41
ENDBRANCH 30 40
ENDBRANCH 27 30
ENDBRANCH 1 26
TORSDOF 19
ENDMDL
MODEL 35
USER: ADFR SOLUTION from run 44
USER: SCORE 12.564543 LL:  -2.362 LR: -11.887 RR:   0.000 FEB:  -6.219
USER: RMSD 9.563207
USER: SEED 43
USER: STATUS no improvement in best in 8 clusters for 5 generations
USER: GENES 21
USER: genes 0 Translation |==|  0.52043 0.67674 0.59486
USER: genes 1 Rotation |==|  0.39356 0.18955 0.87203 0.56235
USER: genes 2 Torsion [C]-CA--CB-[CG] |==|  0.13590
USER: genes 3 Torsion [CA]-CB--CG-[OD1] |==|  0.60995
USER: genes 4 Torsion [N]-CA--C-[N] |==|  0.33945
USER: genes 5 Torsion [C]-N--CA-[CB] |==|  0.39741
USER: genes 6 Torsion [N]-CA--C-[N] |==|  0.90909
USER: genes 7 Torsion [C]-N--CA-[CB] |==|  0.44177
USER: genes 8 Torsion [N]-CA--CB-[CG] |==|  0.70832
USER: genes 9 Torsion [CA]-CB--CG-[SD] |==|  0.21108
USER: genes 10 Torsion [CB]-CG--SD-[CE] |==|  0.33499
USER: genes 11 Torsion [N]-CA--C-[O] |==|  0.03246
USER: genes 12 Torsion [N]-CA--CB-[CG] |==|  0.79585
USER: genes 13 Torsion [CA]-CB--CG-[OD1] |==|  0.94326
USER: genes 14 Torsion [CB]-CA--N-[C] |==|  0.54488
USER: genes 15 Torsion [N]-C--CA-[N] |==|  0.92780
USER: genes 16 Torsion [C]-CA--N-[C] |==|  0.81618
USER: genes 17 Torsion [N]-C--CA-[N] |==|  0.40876
USER: genes 18 Torsion [C]-CA--CB-[CG2] |==|  0.22296
USER: genes 19 Torsion [C]-CA--CB-[CG] |==|  0.19875
USER: genes 20 Torsion [CA]-CB--CG-[OD2] |==|  0.06079
ROOT
ATOM      1  CA  ASP E 180       2.986 -24.620  28.452  1.00 46.29 LIG 0.19  C 
ENDROOT
BRANCH 1 2
ATOM      2  CB  ASP E 180       4.189 -24.599  29.389  1.00 53.57 LIG 0.15  C 
BRANCH 2 3
ATOM      3  CG  ASP E 180       5.296 -25.520  28.932  1.00 52.91 LIG 0.17  C 
ATOM      4 OD1  ASP E 180       5.917 -26.178  29.797  1.00 53.16 LIG-0.65  OA
ATOM      5 OD2  ASP E 180       5.542 -25.592  27.711  1.00 39.91 LIG-0.65  OA
ENDBRANCH 2 3
ENDBRANCH 1 2
BRANCH 1 6
ATOM      6  C   ASP E 180       2.580 -26.070  28.157  1.00 46.16 LIG 0.24  C 
ATOM      7 O    ASP E 180       2.151 -26.796  29.057  1.00 47.92 LIG-0.27  OA
ATOM      8  N   ASP E 181       2.710 -26.499  26.906  1.00 48.75 LIG-0.34  N 
ATOM      9 H    ASP E 181       3.051 -26.039  26.264  1.00 48.75 LIG 0.16  HD
BRANCH 8 10
ATOM     10  CA  ASP E 181       2.262 -27.839  26.539  1.00 45.01 LIG 0.19  C 
BRANCH 10 11
ATOM     11  C   ASP E 181       3.374 -28.881  26.614  1.00 47.33 LIG 0.24  C 
ATOM     12 O    ASP E 181       3.142 -30.050  26.945  1.00 41.27 LIG-0.27  OA
ATOM     13  N   MET E 182       4.589 -28.428  26.318  1.00 63.00 LIG-0.35  N 
ATOM     14 H    MET E 182       4.758 -27.602  26.150  1.00 63.00 LIG 0.16  HD
BRANCH 13 15
ATOM     15  CA  MET E 182       5.757 -29.294  26.249  1.00 43.88 LIG 0.16  C 
BRANCH 15 16
ATOM     16  CB  MET E 182       6.850 -28.632  25.411  1.00 44.38 LIG 0.04  C 
BRANCH 16 17
ATOM     17  CG  MET E 182       7.007 -29.229  24.027  1.00 63.17 LIG 0.08  C 
BRANCH 17 18
ATOM     18 SD   MET E 182       5.702 -28.709  22.898  1.00101.17 LIG-0.17  SA
ATOM     19  CE  MET E 182       6.667 -27.911  21.617  1.00 68.91 LIG 0.09  C 
ENDBRANCH 17 18
ENDBRANCH 16 17
ENDBRANCH 15 16
BRANCH 15 20
ATOM     20  C   MET E 182       6.290 -29.627  27.643  1.00 60.82 LIG 0.22  C 
ATOM     21 O    MET E 182       5.635 -29.366  28.658  1.00 58.83 LIG-0.29  OA
ENDBRANCH 15 20
ENDBRANCH 13 15
ENDBRANCH 10 11
BRANCH 10 22
ATOM     22  CB  ASP E 181       1.656 -27.820  25.136  1.00 40.72 LIG 0.15  C 
BRANCH 22 23
ATOM     23  CG  ASP E 181       0.292 -27.161  25.109  1.00 40.82 LIG 0.17  C 
ATOM     24 OD1  ASP E 181      -0.358 -27.067  26.175  1.00 47.44 LIG-0.65  OA
ATOM     25 OD2  ASP E 181      -0.121 -26.728  24.015  1.00 24.37 LIG-0.65  OA
ENDBRANCH 22 23
ENDBRANCH 10 22
ENDBRANCH 8 10
ENDBRANCH 1 6
BRANCH 1 26
ATOM     26  N   ASP E 180       1.844 -23.897  29.019  1.00 48.48 LIG-0.34  N 
ATOM     27  C   ASP E 179       0.580 -23.990  28.598  1.00 52.76 LIG 0.24  C 
ATOM     28 O    ASP E 179       0.207 -24.684  27.652  1.00 54.54 LIG-0.27  OA
ATOM     29 H    ASP E 180       2.068 -23.387  29.674  1.00 48.48 LIG 0.16  HD
BRANCH 27 30
ATOM     30  CA  ASP E 179      -0.418 -23.151  29.393  1.00 62.98 LIG 0.19  C 
BRANCH 30 31
ATOM     31  N   ASP E 179      -0.034 -22.861  30.778  1.00 68.60 LIG-0.34  N 
ATOM     32  C   VAL E 178       0.068 -23.804  31.713  1.00 59.78 LIG 0.26  C 
ATOM     33 O    VAL E 178      -0.356 -24.952  31.563  1.00 49.42 LIG-0.27  OA
ATOM     34 H    ASP E 179       0.119 -22.028  30.928  1.00 68.60 LIG 0.16  HD
BRANCH 32 35
ATOM     35  CA  VAL E 178       0.724 -23.375  33.029  1.00 59.92 LIG 0.40  C 
ATOM     36  N   VAL E 178       0.160 -24.082  34.175  1.00 55.12 LIG 0.61  N 
BRANCH 35 37
ATOM     37  CB  VAL E 178       2.255 -23.600  32.927  1.00 50.97 LIG 0.03  C 
ATOM     38  CG2 VAL E 178       2.927 -22.466  32.166  1.00 47.22 LIG 0.01  C 
ATOM     39  CG1 VAL E 178       2.543 -24.928  32.260  1.00 50.59 LIG 0.01  C 
ENDBRANCH 35 37
ENDBRANCH 32 35
ENDBRANCH 30 31
BRANCH 30 40
ATOM     40  CB  ASP E 179      -0.653 -21.840  28.643  1.00 47.75 LIG 0.15  C 
BRANCH 40 41
ATOM     41  CG  ASP E 179      -1.457 -22.034  27.383  1.00 48.80 LIG 0.17  C 
ATOM     42 OD2  ASP E 179      -2.181 -23.054  27.281  1.00 55.56 LIG-0.65  OA
ATOM     43 OD1  ASP E 179      -1.366 -21.162  26.496  1.00 40.87 LIG-0.65  OA
ENDBRANCH 40 41
ENDBRANCH 30 40
ENDBRANCH 27 30
ENDBRANCH 1 26
TORSDOF 19
ENDMDL
MODEL 36
USER: ADFR SOLUTION from run 71
USER: SCORE 12.267340 LL:  -1.735 LR: -11.888 RR:   0.000 FEB:  -6.221
USER: RMSD 9.697283
USER: SEED 70
USER: STATUS no improvement in best in 8 clusters for 5 generations
USER: GENES 21
USER: genes 0 Translation |==|  0.52129 0.67433 0.59421
USER: genes 1 Rotation |==|  0.38099 0.20772 0.88038 0.57561
USER: genes 2 Torsion [C]-CA--CB-[CG] |==|  0.15176
USER: genes 3 Torsion [CA]-CB--CG-[OD1] |==|  0.11129
USER: genes 4 Torsion [N]-CA--C-[N] |==|  0.35149
USER: genes 5 Torsion [C]-N--CA-[CB] |==|  0.17626
USER: genes 6 Torsion [N]-CA--C-[N] |==|  0.55587
USER: genes 7 Torsion [C]-N--CA-[CB] |==|  0.26103
USER: genes 8 Torsion [N]-CA--CB-[CG] |==|  0.62940
USER: genes 9 Torsion [CA]-CB--CG-[SD] |==|  0.15384
USER: genes 10 Torsion [CB]-CG--SD-[CE] |==|  0.61301
USER: genes 11 Torsion [N]-CA--C-[O] |==|  0.25937
USER: genes 12 Torsion [N]-CA--CB-[CG] |==|  0.20464
USER: genes 13 Torsion [CA]-CB--CG-[OD1] |==|  0.93746
USER: genes 14 Torsion [CB]-CA--N-[C] |==|  0.53333
USER: genes 15 Torsion [N]-C--CA-[N] |==|  0.99072
USER: genes 16 Torsion [C]-CA--N-[C] |==|  0.75297
USER: genes 17 Torsion [N]-C--CA-[N] |==|  0.37326
USER: genes 18 Torsion [C]-CA--CB-[CG2] |==|  0.33442
USER: genes 19 Torsion [C]-CA--CB-[CG] |==|  0.20866
USER: genes 20 Torsion [CA]-CB--CG-[OD2] |==|  0.53638
ROOT
ATOM      1  CA  ASP E 180       3.005 -24.660  28.439  1.00 46.29 LIG 0.19  C 
ENDROOT
BRANCH 1 2
ATOM      2  CB  ASP E 180       4.219 -24.673  29.362  1.00 53.57 LIG 0.15  C 
BRANCH 2 3
ATOM      3  CG  ASP E 180       5.301 -25.613  28.883  1.00 52.91 LIG 0.17  C 
ATOM      4 OD1  ASP E 180       5.542 -25.667  27.657  1.00 53.16 LIG-0.65  OA
ATOM      5 OD2  ASP E 180       5.915 -26.292  29.732  1.00 39.91 LIG-0.65  OA
ENDBRANCH 2 3
ENDBRANCH 1 2
BRANCH 1 6
ATOM      6  C   ASP E 180       2.478 -26.089  28.250  1.00 46.16 LIG 0.24  C 
ATOM      7 O    ASP E 180       1.932 -26.683  29.182  1.00 47.92 LIG-0.27  OA
ATOM      8  N   ASP E 181       2.634 -26.645  27.053  1.00 48.75 LIG-0.34  N 
ATOM      9 H    ASP E 181       3.052 -26.281  26.396  1.00 48.75 LIG 0.16  HD
BRANCH 8 10
ATOM     10  CA  ASP E 181       2.080 -27.967  26.780  1.00 45.01 LIG 0.19  C 
BRANCH 10 11
ATOM     11  C   ASP E 181       2.495 -28.517  25.418  1.00 47.33 LIG 0.24  C 
ATOM     12 O    ASP E 181       3.477 -28.068  24.813  1.00 41.27 LIG-0.27  OA
ATOM     13  N   MET E 182       1.717 -29.485  24.942  1.00 63.00 LIG-0.35  N 
ATOM     14 H    MET E 182       0.999 -29.751  25.334  1.00 63.00 LIG 0.16  HD
BRANCH 13 15
ATOM     15  CA  MET E 182       2.007 -30.190  23.703  1.00 43.88 LIG 0.16  C 
BRANCH 15 16
ATOM     16  CB  MET E 182       2.789 -31.470  24.000  1.00 44.38 LIG 0.04  C 
BRANCH 16 17
ATOM     17  CG  MET E 182       3.992 -31.675  23.102  1.00 63.17 LIG 0.08  C 
BRANCH 17 18
ATOM     18 SD   MET E 182       5.125 -30.275  23.134  1.00101.17 LIG-0.17  SA
ATOM     19  CE  MET E 182       5.564 -30.161  21.400  1.00 68.91 LIG 0.09  C 
ENDBRANCH 17 18
ENDBRANCH 16 17
ENDBRANCH 15 16
BRANCH 15 20
ATOM     20  C   MET E 182       0.727 -30.521  22.934  1.00 60.82 LIG 0.22  C 
ATOM     21 O    MET E 182       0.292 -29.765  22.058  1.00 58.83 LIG-0.29  OA
ENDBRANCH 15 20
ENDBRANCH 13 15
ENDBRANCH 10 11
BRANCH 10 22
ATOM     22  CB  ASP E 181       0.556 -27.925  26.886  1.00 40.72 LIG 0.15  C 
BRANCH 22 23
ATOM     23  CG  ASP E 181      -0.082 -27.221  25.706  1.00 40.82 LIG 0.17  C 
ATOM     24 OD1  ASP E 181       0.601 -26.411  25.040  1.00 47.44 LIG-0.65  OA
ATOM     25 OD2  ASP E 181      -1.271 -27.492  25.444  1.00 24.37 LIG-0.65  OA
ENDBRANCH 22 23
ENDBRANCH 10 22
ENDBRANCH 8 10
ENDBRANCH 1 6
BRANCH 1 26
ATOM     26  N   ASP E 180       1.933 -23.808  28.964  1.00 48.48 LIG-0.34  N 
ATOM     27  C   ASP E 179       0.679 -23.769  28.509  1.00 52.76 LIG 0.24  C 
ATOM     28 O    ASP E 179       0.257 -24.434  27.562  1.00 54.54 LIG-0.27  OA
ATOM     29 H    ASP E 180       2.195 -23.315  29.618  1.00 48.48 LIG 0.16  HD
BRANCH 27 30
ATOM     30  CA  ASP E 179      -0.243 -22.814  29.264  1.00 62.98 LIG 0.19  C 
BRANCH 30 31
ATOM     31  N   ASP E 179       0.360 -22.140  30.418  1.00 68.60 LIG-0.34  N 
ATOM     32  C   VAL E 178       0.347 -22.657  31.646  1.00 59.78 LIG 0.26  C 
ATOM     33 O    VAL E 178      -0.350 -23.624  31.964  1.00 49.42 LIG-0.27  OA
ATOM     34 H    ASP E 179       0.721 -21.383  30.229  1.00 68.60 LIG 0.16  HD
BRANCH 32 35
ATOM     35  CA  VAL E 178       1.236 -21.957  32.679  1.00 59.92 LIG 0.40  C 
ATOM     36  N   VAL E 178       0.539 -21.745  33.943  1.00 55.12 LIG 0.61  N 
BRANCH 35 37
ATOM     37  CB  VAL E 178       2.529 -22.791  32.880  1.00 50.97 LIG 0.03  C 
ATOM     38  CG2 VAL E 178       3.767 -21.976  32.533  1.00 47.22 LIG 0.01  C 
ATOM     39  CG1 VAL E 178       2.471 -24.050  32.042  1.00 50.59 LIG 0.01  C 
ENDBRANCH 35 37
ENDBRANCH 32 35
ENDBRANCH 30 31
BRANCH 30 40
ATOM     40  CB  ASP E 179      -0.767 -21.769  28.280  1.00 47.75 LIG 0.15  C 
BRANCH 40 41
ATOM     41  CG  ASP E 179      -1.830 -22.323  27.365  1.00 48.80 LIG 0.17  C 
ATOM     42 OD2  ASP E 179      -2.164 -21.655  26.356  1.00 55.56 LIG-0.65  OA
ATOM     43 OD1  ASP E 179      -2.327 -23.429  27.656  1.00 40.87 LIG-0.65  OA
ENDBRANCH 40 41
ENDBRANCH 30 40
ENDBRANCH 27 30
ENDBRANCH 1 26
TORSDOF 19
ENDMDL
MODEL 37
USER: ADFR SOLUTION from run 132
USER: SCORE 12.346359 LL:  -2.084 LR: -11.889 RR:   0.000 FEB:  -6.222
USER: RMSD 5.808765
USER: SEED 131
USER: STATUS no improvement in best in 25 clusters for 5 generations
USER: GENES 21
USER: genes 0 Translation |==|  0.54914 0.50160 0.55336
USER: genes 1 Rotation |==|  0.68976 0.21574 0.13514 0.50792
USER: genes 2 Torsion [C]-CA--CB-[CG] |==|  0.08229
USER: genes 3 Torsion [CA]-CB--CG-[OD1] |==|  0.19981
USER: genes 4 Torsion [N]-CA--C-[N] |==|  0.83560
USER: genes 5 Torsion [C]-N--CA-[CB] |==|  0.77682
USER: genes 6 Torsion [N]-CA--C-[N] |==|  0.14290
USER: genes 7 Torsion [C]-N--CA-[CB] |==|  0.46538
USER: genes 8 Torsion [N]-CA--CB-[CG] |==|  0.45829
USER: genes 9 Torsion [CA]-CB--CG-[SD] |==|  0.64323
USER: genes 10 Torsion [CB]-CG--SD-[CE] |==|  0.73384
USER: genes 11 Torsion [N]-CA--C-[O] |==|  0.34540
USER: genes 12 Torsion [N]-CA--CB-[CG] |==|  0.60886
USER: genes 13 Torsion [CA]-CB--CG-[OD1] |==|  0.48189
USER: genes 14 Torsion [CB]-CA--N-[C] |==|  0.26667
USER: genes 15 Torsion [N]-C--CA-[N] |==|  0.45063
USER: genes 16 Torsion [C]-CA--N-[C] |==|  0.82150
USER: genes 17 Torsion [N]-C--CA-[N] |==|  0.18877
USER: genes 18 Torsion [C]-CA--CB-[CG2] |==|  0.53124
USER: genes 19 Torsion [C]-CA--CB-[CG] |==|  0.27850
USER: genes 20 Torsion [CA]-CB--CG-[OD2] |==|  0.68710
ROOT
ATOM      1  CA  ASP E 180       3.611 -27.510  27.612  1.00 46.29 LIG 0.19  C 
ENDROOT
BRANCH 1 2
ATOM      2  CB  ASP E 180       5.061 -27.046  27.530  1.00 53.57 LIG 0.15  C 
BRANCH 2 3
ATOM      3  CG  ASP E 180       5.439 -26.120  28.662  1.00 52.91 LIG 0.17  C 
ATOM      4 OD1  ASP E 180       5.567 -26.604  29.808  1.00 53.16 LIG-0.65  OA
ATOM      5 OD2  ASP E 180       5.615 -24.911  28.406  1.00 39.91 LIG-0.65  OA
ENDBRANCH 2 3
ENDBRANCH 1 2
BRANCH 1 6
ATOM      6  C   ASP E 180       2.757 -26.432  28.294  1.00 46.16 LIG 0.24  C 
ATOM      7 O    ASP E 180       2.205 -26.661  29.373  1.00 47.92 LIG-0.27  OA
ATOM      8  N   ASP E 181       2.643 -25.261  27.677  1.00 48.75 LIG-0.34  N 
ATOM      9 H    ASP E 181       2.971 -25.082  26.903  1.00 48.75 LIG 0.16  HD
BRANCH 8 10
ATOM     10  CA  ASP E 181       1.918 -24.164  28.312  1.00 45.01 LIG 0.19  C 
BRANCH 10 11
ATOM     11  C   ASP E 181       2.239 -24.018  29.796  1.00 47.33 LIG 0.24  C 
ATOM     12 O    ASP E 181       1.343 -23.944  30.646  1.00 41.27 LIG-0.27  OA
ATOM     13  N   MET E 182       3.536 -23.959  30.087  1.00 63.00 LIG-0.35  N 
ATOM     14 H    MET E 182       4.154 -23.945  29.490  1.00 63.00 LIG 0.16  HD
BRANCH 13 15
ATOM     15  CA  MET E 182       4.035 -23.910  31.454  1.00 43.88 LIG 0.16  C 
BRANCH 15 16
ATOM     16  CB  MET E 182       5.543 -24.157  31.469  1.00 44.38 LIG 0.04  C 
BRANCH 16 17
ATOM     17  CG  MET E 182       6.212 -23.776  32.774  1.00 63.17 LIG 0.08  C 
BRANCH 17 18
ATOM     18 SD   MET E 182       7.634 -22.697  32.532  1.00101.17 LIG-0.17  SA
ATOM     19  CE  MET E 182       8.967 -23.894  32.538  1.00 68.91 LIG 0.09  C 
ENDBRANCH 17 18
ENDBRANCH 16 17
ENDBRANCH 15 16
BRANCH 15 20
ATOM     20  C   MET E 182       3.713 -22.570  32.119  1.00 60.82 LIG 0.22  C 
ATOM     21 O    MET E 182       3.090 -22.518  33.185  1.00 58.83 LIG-0.29  OA
ENDBRANCH 15 20
ENDBRANCH 13 15
ENDBRANCH 10 11
BRANCH 10 22
ATOM     22  CB  ASP E 181       0.414 -24.352  28.117  1.00 40.72 LIG 0.15  C 
BRANCH 22 23
ATOM     23  CG  ASP E 181      -0.297 -23.043  27.842  1.00 40.82 LIG 0.17  C 
ATOM     24 OD1  ASP E 181      -1.512 -23.063  27.541  1.00 47.44 LIG-0.65  OA
ATOM     25 OD2  ASP E 181       0.366 -21.992  27.941  1.00 24.37 LIG-0.65  OA
ENDBRANCH 22 23
ENDBRANCH 10 22
ENDBRANCH 8 10
ENDBRANCH 1 6
BRANCH 1 26
ATOM     26  N   ASP E 180       3.059 -27.804  26.285  1.00 48.48 LIG-0.34  N 
ATOM     27  C   ASP E 179       3.000 -29.012  25.720  1.00 52.76 LIG 0.24  C 
ATOM     28 O    ASP E 179       3.428 -30.046  26.232  1.00 54.54 LIG-0.27  OA
ATOM     29 H    ASP E 180       2.764 -27.101  25.888  1.00 48.48 LIG 0.16  HD
BRANCH 27 30
ATOM     30  CA  ASP E 179       2.341 -29.037  24.342  1.00 62.98 LIG 0.19  C 
BRANCH 30 31
ATOM     31  N   ASP E 179       2.617 -30.229  23.535  1.00 68.60 LIG-0.34  N 
ATOM     32  C   VAL E 178       3.838 -30.542  23.100  1.00 59.78 LIG 0.26  C 
ATOM     33 O    VAL E 178       4.791 -29.762  23.146  1.00 49.42 LIG-0.27  OA
ATOM     34 H    ASP E 179       1.921 -30.705  23.369  1.00 68.60 LIG 0.16  HD
BRANCH 32 35
ATOM     35  CA  VAL E 178       3.996 -31.941  22.496  1.00 59.92 LIG 0.40  C 
ATOM     36  N   VAL E 178       3.274 -32.075  21.235  1.00 55.12 LIG 0.61  N 
BRANCH 35 37
ATOM     37  CB  VAL E 178       5.506 -32.245  22.317  1.00 50.97 LIG 0.03  C 
ATOM     38  CG2 VAL E 178       5.719 -33.495  21.474  1.00 47.22 LIG 0.01  C 
ATOM     39  CG1 VAL E 178       6.171 -32.398  23.668  1.00 50.59 LIG 0.01  C 
ENDBRANCH 35 37
ENDBRANCH 32 35
ENDBRANCH 30 31
BRANCH 30 40
ATOM     40  CB  ASP E 179       0.832 -28.883  24.525  1.00 47.75 LIG 0.15  C 
BRANCH 40 41
ATOM     41  CG  ASP E 179       0.361 -27.475  24.261  1.00 48.80 LIG 0.17  C 
ATOM     42 OD2  ASP E 179      -0.083 -26.799  25.220  1.00 55.56 LIG-0.65  OA
ATOM     43 OD1  ASP E 179       0.439 -27.047  23.092  1.00 40.87 LIG-0.65  OA
ENDBRANCH 40 41
ENDBRANCH 30 40
ENDBRANCH 27 30
ENDBRANCH 1 26
TORSDOF 19
ENDMDL
MODEL 38
USER: ADFR SOLUTION from run 74
USER: SCORE 13.155422 LL:  -2.185 LR: -11.887 RR:   0.000 FEB:  -6.219
USER: RMSD 9.767315
USER: SEED 73
USER: STATUS no improvement in best in 21 clusters for 5 generations
USER: GENES 21
USER: genes 0 Translation |==|  0.61626 0.51813 0.52088
USER: genes 1 Rotation |==|  0.66962 0.87390 0.25030 0.63814
USER: genes 2 Torsion [C]-CA--CB-[CG] |==|  0.37001
USER: genes 3 Torsion [CA]-CB--CG-[OD1] |==|  0.04476
USER: genes 4 Torsion [N]-CA--C-[N] |==|  0.25437
USER: genes 5 Torsion [C]-N--CA-[CB] |==|  0.16837
USER: genes 6 Torsion [N]-CA--C-[N] |==|  0.66480
USER: genes 7 Torsion [C]-N--CA-[CB] |==|  0.33684
USER: genes 8 Torsion [N]-CA--CB-[CG] |==|  0.66753
USER: genes 9 Torsion [CA]-CB--CG-[SD] |==|  0.31675
USER: genes 10 Torsion [CB]-CG--SD-[CE] |==|  0.83096
USER: genes 11 Torsion [N]-CA--C-[O] |==|  0.14414
USER: genes 12 Torsion [N]-CA--CB-[CG] |==|  0.14201
USER: genes 13 Torsion [CA]-CB--CG-[OD1] |==|  0.49211
USER: genes 14 Torsion [CB]-CA--N-[C] |==|  0.76666
USER: genes 15 Torsion [N]-C--CA-[N] |==|  0.90601
USER: genes 16 Torsion [C]-CA--N-[C] |==|  0.78041
USER: genes 17 Torsion [N]-C--CA-[N] |==|  0.53577
USER: genes 18 Torsion [C]-CA--CB-[CG2] |==|  0.80823
USER: genes 19 Torsion [C]-CA--CB-[CG] |==|  0.50331
USER: genes 20 Torsion [CA]-CB--CG-[OD2] |==|  0.99530
ROOT
ATOM      1  CA  ASP E 180       5.071 -27.237  26.954  1.00 46.29 LIG 0.19  C 
ENDROOT
BRANCH 1 2
ATOM      2  CB  ASP E 180       5.130 -27.312  28.476  1.00 53.57 LIG 0.15  C 
BRANCH 2 3
ATOM      3  CG  ASP E 180       5.574 -26.011  29.104  1.00 52.91 LIG 0.17  C 
ATOM      4 OD1  ASP E 180       5.542 -24.973  28.406  1.00 53.16 LIG-0.65  OA
ATOM      5 OD2  ASP E 180       5.948 -26.025  30.295  1.00 39.91 LIG-0.65  OA
ENDBRANCH 2 3
ENDBRANCH 1 2
BRANCH 1 6
ATOM      6  C   ASP E 180       5.754 -28.468  26.344  1.00 46.16 LIG 0.24  C 
ATOM      7 O    ASP E 180       5.683 -29.565  26.902  1.00 47.92 LIG-0.27  OA
ATOM      8  N   ASP E 181       6.415 -28.298  25.203  1.00 48.75 LIG-0.34  N 
ATOM      9 H    ASP E 181       6.527 -27.541  24.811  1.00 48.75 LIG 0.16  HD
BRANCH 8 10
ATOM     10  CA  ASP E 181       7.014 -29.443  24.524  1.00 45.01 LIG 0.19  C 
BRANCH 10 11
ATOM     11  C   ASP E 181       7.813 -29.049  23.285  1.00 47.33 LIG 0.24  C 
ATOM     12 O    ASP E 181       8.766 -28.263  23.354  1.00 41.27 LIG-0.27  OA
ATOM     13  N   MET E 182       7.392 -29.596  22.148  1.00 63.00 LIG-0.35  N 
ATOM     14 H    MET E 182       6.692 -30.091  22.092  1.00 63.00 LIG 0.16  HD
BRANCH 13 15
ATOM     15  CA  MET E 182       8.083 -29.408  20.881  1.00 43.88 LIG 0.16  C 
BRANCH 15 16
ATOM     16  CB  MET E 182       8.508 -30.761  20.311  1.00 44.38 LIG 0.04  C 
BRANCH 16 17
ATOM     17  CG  MET E 182      10.005 -30.904  20.125  1.00 63.17 LIG 0.08  C 
BRANCH 17 18
ATOM     18 SD   MET E 182      10.720 -32.152  21.210  1.00101.17 LIG-0.17  SA
ATOM     19  CE  MET E 182      10.313 -31.470  22.816  1.00 68.91 LIG 0.09  C 
ENDBRANCH 17 18
ENDBRANCH 16 17
ENDBRANCH 15 16
BRANCH 15 20
ATOM     20  C   MET E 182       7.209 -28.661  19.872  1.00 60.82 LIG 0.22  C 
ATOM     21 O    MET E 182       6.667 -27.590  20.164  1.00 58.83 LIG-0.29  OA
ENDBRANCH 15 20
ENDBRANCH 13 15
ENDBRANCH 10 11
BRANCH 10 22
ATOM     22  CB  ASP E 181       5.931 -30.453  24.150  1.00 40.72 LIG 0.15  C 
BRANCH 22 23
ATOM     23  CG  ASP E 181       4.779 -29.810  23.406  1.00 40.82 LIG 0.17  C 
ATOM     24 OD1  ASP E 181       3.845 -30.533  22.991  1.00 47.44 LIG-0.65  OA
ATOM     25 OD2  ASP E 181       4.809 -28.574  23.248  1.00 24.37 LIG-0.65  OA
ENDBRANCH 22 23
ENDBRANCH 10 22
ENDBRANCH 8 10
ENDBRANCH 1 6
BRANCH 1 26
ATOM     26  N   ASP E 180       3.690 -27.153  26.468  1.00 48.48 LIG-0.34  N 
ATOM     27  C   ASP E 179       2.873 -28.189  26.266  1.00 52.76 LIG 0.24  C 
ATOM     28 O    ASP E 179       3.183 -29.368  26.440  1.00 54.54 LIG-0.27  OA
ATOM     29 H    ASP E 180       3.442 -26.343  26.319  1.00 48.48 LIG 0.16  HD
BRANCH 27 30
ATOM     30  CA  ASP E 179       1.472 -27.812  25.788  1.00 62.98 LIG 0.19  C 
BRANCH 30 31
ATOM     31  N   ASP E 179       0.946 -26.550  26.317  1.00 68.60 LIG-0.34  N 
ATOM     32  C   VAL E 178       0.430 -26.436  27.540  1.00 59.78 LIG 0.26  C 
ATOM     33 O    VAL E 178       0.149 -27.406  28.247  1.00 49.42 LIG-0.27  OA
ATOM     34 H    ASP E 179       1.002 -25.893  25.765  1.00 68.60 LIG 0.16  HD
BRANCH 32 35
ATOM     35  CA  VAL E 178       0.166 -25.008  28.027  1.00 59.92 LIG 0.40  C 
ATOM     36  N   VAL E 178      -0.107 -24.963  29.460  1.00 55.12 LIG 0.61  N 
BRANCH 35 37
ATOM     37  CB  VAL E 178       1.379 -24.116  27.655  1.00 50.97 LIG 0.03  C 
ATOM     38  CG2 VAL E 178       2.608 -24.490  28.472  1.00 47.22 LIG 0.01  C 
ATOM     39  CG1 VAL E 178       1.033 -22.656  27.857  1.00 50.59 LIG 0.01  C 
ENDBRANCH 35 37
ENDBRANCH 32 35
ENDBRANCH 30 31
BRANCH 30 40
ATOM     40  CB  ASP E 179       1.480 -27.762  24.261  1.00 47.75 LIG 0.15  C 
BRANCH 40 41
ATOM     41  CG  ASP E 179       0.141 -27.367  23.691  1.00 48.80 LIG 0.17  C 
ATOM     42 OD2  ASP E 179      -0.812 -27.161  24.480  1.00 55.56 LIG-0.65  OA
ATOM     43 OD1  ASP E 179       0.046 -27.262  22.452  1.00 40.87 LIG-0.65  OA
ENDBRANCH 40 41
ENDBRANCH 30 40
ENDBRANCH 27 30
ENDBRANCH 1 26
TORSDOF 19
ENDMDL
MODEL 39
USER: ADFR SOLUTION from run 74
USER: SCORE 12.776763 LL:  -3.385 LR: -11.841 RR:   0.000 FEB:  -6.173
USER: RMSD 8.839026
USER: SEED 73
USER: STATUS no improvement in best in 21 clusters for 5 generations
USER: GENES 21
USER: genes 0 Translation |==|  0.51354 0.60386 0.56343
USER: genes 1 Rotation |==|  0.32154 0.14591 0.79985 0.55346
USER: genes 2 Torsion [C]-CA--CB-[CG] |==|  0.28254
USER: genes 3 Torsion [CA]-CB--CG-[OD1] |==|  0.00468
USER: genes 4 Torsion [N]-CA--C-[N] |==|  0.13767
USER: genes 5 Torsion [C]-N--CA-[CB] |==|  0.18889
USER: genes 6 Torsion [N]-CA--C-[N] |==|  0.63594
USER: genes 7 Torsion [C]-N--CA-[CB] |==|  0.84713
USER: genes 8 Torsion [N]-CA--CB-[CG] |==|  0.62733
USER: genes 9 Torsion [CA]-CB--CG-[SD] |==|  0.28164
USER: genes 10 Torsion [CB]-CG--SD-[CE] |==|  0.33595
USER: genes 11 Torsion [N]-CA--C-[O] |==|  0.02791
USER: genes 12 Torsion [N]-CA--CB-[CG] |==|  0.14300
USER: genes 13 Torsion [CA]-CB--CG-[OD1] |==|  0.02265
USER: genes 14 Torsion [CB]-CA--N-[C] |==|  0.35303
USER: genes 15 Torsion [N]-C--CA-[N] |==|  0.00193
USER: genes 16 Torsion [C]-CA--N-[C] |==|  0.70900
USER: genes 17 Torsion [N]-C--CA-[N] |==|  0.58339
USER: genes 18 Torsion [C]-CA--CB-[CG2] |==|  0.78506
USER: genes 19 Torsion [C]-CA--CB-[CG] |==|  0.29253
USER: genes 20 Torsion [CA]-CB--CG-[OD2] |==|  0.01683
ROOT
ATOM      1  CA  ASP E 180       2.837 -25.822  27.815  1.00 46.29 LIG 0.19  C 
ENDROOT
BRANCH 1 2
ATOM      2  CB  ASP E 180       3.656 -26.251  29.028  1.00 53.57 LIG 0.15  C 
BRANCH 2 3
ATOM      3  CG  ASP E 180       5.140 -26.065  28.821  1.00 52.91 LIG 0.17  C 
ATOM      4 OD1  ASP E 180       5.532 -25.570  27.741  1.00 53.16 LIG-0.65  OA
ATOM      5 OD2  ASP E 180       5.915 -26.405  29.739  1.00 39.91 LIG-0.65  OA
ENDBRANCH 2 3
ENDBRANCH 1 2
BRANCH 1 6
ATOM      6  C   ASP E 180       2.401 -27.058  27.017  1.00 46.16 LIG 0.24  C 
ATOM      7 O    ASP E 180       2.830 -28.176  27.310  1.00 47.92 LIG-0.27  OA
ATOM      8  N   ASP E 181       1.553 -26.869  26.011  1.00 48.75 LIG-0.34  N 
ATOM      9 H    ASP E 181       1.271 -26.101  25.747  1.00 48.75 LIG 0.16  HD
BRANCH 8 10
ATOM     10  CA  ASP E 181       1.031 -28.010  25.266  1.00 45.01 LIG 0.19  C 
BRANCH 10 11
ATOM     11  C   ASP E 181       0.300 -27.604  23.990  1.00 47.33 LIG 0.24  C 
ATOM     12 O    ASP E 181       0.796 -26.800  23.190  1.00 41.27 LIG-0.27  OA
ATOM     13  N   MET E 182      -0.896 -28.162  23.824  1.00 63.00 LIG-0.35  N 
ATOM     14 H    MET E 182      -1.265 -28.670  24.411  1.00 63.00 LIG 0.16  HD
BRANCH 13 15
ATOM     15  CA  MET E 182      -1.699 -27.964  22.627  1.00 43.88 LIG 0.16  C 
BRANCH 15 16
ATOM     16  CB  MET E 182      -1.906 -26.471  22.377  1.00 44.38 LIG 0.04  C 
BRANCH 16 17
ATOM     17  CG  MET E 182      -3.336 -26.099  22.040  1.00 63.17 LIG 0.08  C 
BRANCH 17 18
ATOM     18 SD   MET E 182      -4.216 -25.394  23.445  1.00101.17 LIG-0.17  SA
ATOM     19  CE  MET E 182      -4.666 -23.789  22.785  1.00 68.91 LIG 0.09  C 
ENDBRANCH 17 18
ENDBRANCH 16 17
ENDBRANCH 15 16
BRANCH 15 20
ATOM     20  C   MET E 182      -1.052 -28.619  21.405  1.00 60.82 LIG 0.22  C 
ATOM     21 O    MET E 182      -0.083 -29.376  21.522  1.00 58.83 LIG-0.29  OA
ENDBRANCH 15 20
ENDBRANCH 13 15
ENDBRANCH 10 11
BRANCH 10 22
ATOM     22  CB  ASP E 181       0.106 -28.837  26.159  1.00 40.72 LIG 0.15  C 
BRANCH 22 23
ATOM     23  CG  ASP E 181      -0.956 -27.989  26.827  1.00 40.82 LIG 0.17  C 
ATOM     24 OD1  ASP E 181      -1.079 -26.791  26.486  1.00 47.44 LIG-0.65  OA
ATOM     25 OD2  ASP E 181      -1.675 -28.533  27.688  1.00 24.37 LIG-0.65  OA
ENDBRANCH 22 23
ENDBRANCH 10 22
ENDBRANCH 8 10
ENDBRANCH 1 6
BRANCH 1 26
ATOM     26  N   ASP E 180       1.653 -25.049  28.205  1.00 48.48 LIG-0.34  N 
ATOM     27  C   ASP E 179       1.319 -23.848  27.729  1.00 52.76 LIG 0.24  C 
ATOM     28 O    ASP E 179       1.981 -23.212  26.908  1.00 54.54 LIG-0.27  OA
ATOM     29 H    ASP E 180       1.173 -25.455  28.791  1.00 48.48 LIG 0.16  HD
BRANCH 27 30
ATOM     30  CA  ASP E 179       0.012 -23.285  28.283  1.00 62.98 LIG 0.19  C 
BRANCH 30 31
ATOM     31  N   ASP E 179      -0.673 -24.133  29.263  1.00 68.60 LIG-0.34  N 
ATOM     32  C   VAL E 178      -1.764 -24.839  28.971  1.00 59.78 LIG 0.26  C 
ATOM     33 O    VAL E 178      -2.416 -24.679  27.937  1.00 49.42 LIG-0.27  OA
ATOM     34 H    ASP E 179      -0.305 -24.132  30.040  1.00 68.60 LIG 0.16  HD
BRANCH 32 35
ATOM     35  CA  VAL E 178      -2.201 -25.864  30.023  1.00 59.92 LIG 0.40  C 
ATOM     36  N   VAL E 178      -2.877 -27.008  29.420  1.00 55.12 LIG 0.61  N 
BRANCH 35 37
ATOM     37  CB  VAL E 178      -0.960 -26.308  30.841  1.00 50.97 LIG 0.03  C 
ATOM     38  CG2 VAL E 178      -0.113 -27.301  30.058  1.00 47.22 LIG 0.01  C 
ATOM     39  CG1 VAL E 178      -1.395 -26.907  32.161  1.00 50.59 LIG 0.01  C 
ENDBRANCH 35 37
ENDBRANCH 32 35
ENDBRANCH 30 31
BRANCH 30 40
ATOM     40  CB  ASP E 179       0.300 -21.918  28.904  1.00 47.75 LIG 0.15  C 
BRANCH 40 41
ATOM     41  CG  ASP E 179      -0.195 -20.781  28.046  1.00 48.80 LIG 0.17  C 
ATOM     42 OD2  ASP E 179      -0.866 -21.048  27.020  1.00 55.56 LIG-0.65  OA
ATOM     43 OD1  ASP E 179       0.088 -19.620  28.403  1.00 40.87 LIG-0.65  OA
ENDBRANCH 40 41
ENDBRANCH 30 40
ENDBRANCH 27 30
ENDBRANCH 1 26
TORSDOF 19
ENDMDL
MODEL 40
USER: ADFR SOLUTION from run 70
USER: SCORE 11.747593 LL:  -2.122 LR: -11.833 RR:   0.000 FEB:  -6.166
USER: RMSD 9.367968
USER: SEED 69
USER: STATUS no improvement in best in 23 clusters for 5 generations
USER: GENES 21
USER: genes 0 Translation |==|  0.49765 0.60034 0.57377
USER: genes 1 Rotation |==|  0.45115 0.12807 0.82622 0.55352
USER: genes 2 Torsion [C]-CA--CB-[CG] |==|  0.21209
USER: genes 3 Torsion [CA]-CB--CG-[OD1] |==|  0.37085
USER: genes 4 Torsion [N]-CA--C-[N] |==|  0.28965
USER: genes 5 Torsion [C]-N--CA-[CB] |==|  0.46506
USER: genes 6 Torsion [N]-CA--C-[N] |==|  0.93704
USER: genes 7 Torsion [C]-N--CA-[CB] |==|  0.20259
USER: genes 8 Torsion [N]-CA--CB-[CG] |==|  0.20254
USER: genes 9 Torsion [CA]-CB--CG-[SD] |==|  0.32728
USER: genes 10 Torsion [CB]-CG--SD-[CE] |==|  0.29346
USER: genes 11 Torsion [N]-CA--C-[O] |==|  0.51316
USER: genes 12 Torsion [N]-CA--CB-[CG] |==|  0.86121
USER: genes 13 Torsion [CA]-CB--CG-[OD1] |==|  0.42117
USER: genes 14 Torsion [CB]-CA--N-[C] |==|  0.52136
USER: genes 15 Torsion [N]-C--CA-[N] |==|  0.92125
USER: genes 16 Torsion [C]-CA--N-[C] |==|  0.84444
USER: genes 17 Torsion [N]-C--CA-[N] |==|  0.40912
USER: genes 18 Torsion [C]-CA--CB-[CG2] |==|  0.84432
USER: genes 19 Torsion [C]-CA--CB-[CG] |==|  0.14815
USER: genes 20 Torsion [CA]-CB--CG-[OD2] |==|  0.71173
ROOT
ATOM      1  CA  ASP E 180       2.491 -25.880  28.025  1.00 46.29 LIG 0.19  C 
ENDROOT
BRANCH 1 2
ATOM      2  CB  ASP E 180       3.766 -25.896  28.862  1.00 53.57 LIG 0.15  C 
BRANCH 2 3
ATOM      3  CG  ASP E 180       5.012 -25.726  28.025  1.00 52.91 LIG 0.17  C 
ATOM      4 OD1  ASP E 180       5.879 -24.911  28.409  1.00 53.16 LIG-0.65  OA
ATOM      5 OD2  ASP E 180       5.128 -26.411  26.988  1.00 39.91 LIG-0.65  OA
ENDBRANCH 2 3
ENDBRANCH 1 2
BRANCH 1 6
ATOM      6  C   ASP E 180       2.326 -27.224  27.301  1.00 46.16 LIG 0.24  C 
ATOM      7 O    ASP E 180       2.467 -28.285  27.911  1.00 47.92 LIG-0.27  OA
ATOM      8  N   ASP E 181       2.029 -27.188  26.006  1.00 48.75 LIG-0.34  N 
ATOM      9 H    ASP E 181       1.971 -26.469  25.537  1.00 48.75 LIG 0.16  HD
BRANCH 8 10
ATOM     10  CA  ASP E 181       1.773 -28.426  25.277  1.00 45.01 LIG 0.19  C 
BRANCH 10 11
ATOM     11  C   ASP E 181       3.023 -29.283  25.101  1.00 47.33 LIG 0.24  C 
ATOM     12 O    ASP E 181       2.948 -30.504  24.913  1.00 41.27 LIG-0.27  OA
ATOM     13  N   MET E 182       4.174 -28.621  25.185  1.00 63.00 LIG-0.35  N 
ATOM     14 H    MET E 182       4.226 -27.785  25.379  1.00 63.00 LIG 0.16  HD
BRANCH 13 15
ATOM     15  CA  MET E 182       5.465 -29.254  24.955  1.00 43.88 LIG 0.16  C 
BRANCH 15 16
ATOM     16  CB  MET E 182       5.651 -29.533  23.464  1.00 44.38 LIG 0.04  C 
BRANCH 16 17
ATOM     17  CG  MET E 182       5.917 -28.291  22.637  1.00 63.17 LIG 0.08  C 
BRANCH 17 18
ATOM     18 SD   MET E 182       7.528 -28.328  21.832  1.00101.17 LIG-0.17  SA
ATOM     19  CE  MET E 182       7.047 -28.661  20.138  1.00 68.91 LIG 0.09  C 
ENDBRANCH 17 18
ENDBRANCH 16 17
ENDBRANCH 15 16
BRANCH 15 20
ATOM     20  C   MET E 182       6.613 -28.389  25.478  1.00 60.82 LIG 0.22  C 
ATOM     21 O    MET E 182       7.792 -28.713  25.298  1.00 58.83 LIG-0.29  OA
ENDBRANCH 15 20
ENDBRANCH 13 15
ENDBRANCH 10 11
BRANCH 10 22
ATOM     22  CB  ASP E 181       1.158 -28.111  23.914  1.00 40.72 LIG 0.15  C 
BRANCH 22 23
ATOM     23  CG  ASP E 181      -0.018 -27.162  24.020  1.00 40.82 LIG 0.17  C 
ATOM     24 OD1  ASP E 181      -0.280 -26.409  23.056  1.00 47.44 LIG-0.65  OA
ATOM     25 OD2  ASP E 181      -0.686 -27.183  25.073  1.00 24.37 LIG-0.65  OA
ENDBRANCH 22 23
ENDBRANCH 10 22
ENDBRANCH 8 10
ENDBRANCH 1 6
BRANCH 1 26
ATOM     26  N   ASP E 180       1.305 -25.618  28.846  1.00 48.48 LIG-0.34  N 
ATOM     27  C   ASP E 179       0.039 -25.687  28.427  1.00 52.76 LIG 0.24  C 
ATOM     28 O    ASP E 179      -0.302 -25.959  27.275  1.00 54.54 LIG-0.27  OA
ATOM     29 H    ASP E 180       1.505 -25.408  29.655  1.00 48.48 LIG 0.16  HD
BRANCH 27 30
ATOM     30  CA  ASP E 179      -1.004 -25.398  29.504  1.00 62.98 LIG 0.19  C 
BRANCH 30 31
ATOM     31  N   ASP E 179      -0.600 -25.723  30.875  1.00 68.60 LIG-0.34  N 
ATOM     32  C   VAL E 178      -0.187 -26.937  31.239  1.00 59.78 LIG 0.26  C 
ATOM     33 O    VAL E 178      -0.313 -27.934  30.527  1.00 49.42 LIG-0.27  OA
ATOM     34 H    ASP E 179      -0.654 -25.060  31.419  1.00 68.60 LIG 0.16  HD
BRANCH 32 35
ATOM     35  CA  VAL E 178       0.439 -27.041  32.633  1.00 59.92 LIG 0.40  C 
ATOM     36  N   VAL E 178       0.168 -28.333  33.256  1.00 55.12 LIG 0.61  N 
BRANCH 35 37
ATOM     37  CB  VAL E 178       1.963 -26.776  32.524  1.00 50.97 LIG 0.03  C 
ATOM     38  CG2 VAL E 178       2.617 -27.727  31.532  1.00 47.22 LIG 0.01  C 
ATOM     39  CG1 VAL E 178       2.613 -26.902  33.885  1.00 50.59 LIG 0.01  C 
ENDBRANCH 35 37
ENDBRANCH 32 35
ENDBRANCH 30 31
BRANCH 30 40
ATOM     40  CB  ASP E 179      -1.387 -23.921  29.421  1.00 47.75 LIG 0.15  C 
BRANCH 40 41
ATOM     41  CG  ASP E 179      -1.817 -23.515  28.034  1.00 48.80 LIG 0.17  C 
ATOM     42 OD2  ASP E 179      -1.017 -22.858  27.324  1.00 55.56 LIG-0.65  OA
ATOM     43 OD1  ASP E 179      -2.956 -23.856  27.656  1.00 40.87 LIG-0.65  OA
ENDBRANCH 40 41
ENDBRANCH 30 40
ENDBRANCH 27 30
ENDBRANCH 1 26
TORSDOF 19
ENDMDL
MODEL 41
USER: ADFR SOLUTION from run 109
USER: SCORE 12.819936 LL:  -2.549 LR: -11.810 RR:   0.000 FEB:  -6.142
USER: RMSD 9.591258
USER: SEED 108
USER: STATUS searching
USER: GENES 21
USER: genes 0 Translation |==|  0.61450 0.50651 0.50616
USER: genes 1 Rotation |==|  0.67532 0.88245 0.25517 0.61425
USER: genes 2 Torsion [C]-CA--CB-[CG] |==|  0.39219
USER: genes 3 Torsion [CA]-CB--CG-[OD1] |==|  0.52048
USER: genes 4 Torsion [N]-CA--C-[N] |==|  0.15061
USER: genes 5 Torsion [C]-N--CA-[CB] |==|  0.18611
USER: genes 6 Torsion [N]-CA--C-[N] |==|  0.47917
USER: genes 7 Torsion [C]-N--CA-[CB] |==|  0.84414
USER: genes 8 Torsion [N]-CA--CB-[CG] |==|  0.68082
USER: genes 9 Torsion [CA]-CB--CG-[SD] |==|  0.46736
USER: genes 10 Torsion [CB]-CG--SD-[CE] |==|  0.21787
USER: genes 11 Torsion [N]-CA--C-[O] |==|  0.18936
USER: genes 12 Torsion [N]-CA--CB-[CG] |==|  0.23095
USER: genes 13 Torsion [CA]-CB--CG-[OD1] |==|  0.80872
USER: genes 14 Torsion [CB]-CA--N-[C] |==|  0.78250
USER: genes 15 Torsion [N]-C--CA-[N] |==|  0.89542
USER: genes 16 Torsion [C]-CA--N-[C] |==|  0.76457
USER: genes 17 Torsion [N]-C--CA-[N] |==|  0.56526
USER: genes 18 Torsion [C]-CA--CB-[CG2] |==|  0.78346
USER: genes 19 Torsion [C]-CA--CB-[CG] |==|  0.50146
USER: genes 20 Torsion [CA]-CB--CG-[OD2] |==|  0.46296
ROOT
ATOM      1  CA  ASP E 180       5.032 -27.429  26.656  1.00 46.29 LIG 0.19  C 
ENDROOT
BRANCH 1 2
ATOM      2  CB  ASP E 180       5.181 -27.615  28.162  1.00 53.57 LIG 0.15  C 
BRANCH 2 3
ATOM      3  CG  ASP E 180       5.542 -26.332  28.873  1.00 52.91 LIG 0.17  C 
ATOM      4 OD1  ASP E 180       5.828 -26.386  30.090  1.00 53.16 LIG-0.65  OA
ATOM      5 OD2  ASP E 180       5.546 -25.271  28.215  1.00 39.91 LIG-0.65  OA
ENDBRANCH 2 3
ENDBRANCH 1 2
BRANCH 1 6
ATOM      6  C   ASP E 180       5.615 -28.643  25.920  1.00 46.16 LIG 0.24  C 
ATOM      7 O    ASP E 180       6.152 -29.557  26.548  1.00 47.92 LIG-0.27  OA
ATOM      8  N   ASP E 181       5.513 -28.661  24.595  1.00 48.75 LIG-0.34  N 
ATOM      9 H    ASP E 181       5.190 -28.021  24.120  1.00 48.75 LIG 0.16  HD
BRANCH 8 10
ATOM     10  CA  ASP E 181       5.968 -29.824  23.839  1.00 45.01 LIG 0.19  C 
BRANCH 10 11
ATOM     11  C   ASP E 181       6.011 -29.577  22.334  1.00 47.33 LIG 0.24  C 
ATOM     12 O    ASP E 181       5.542 -28.546  21.836  1.00 41.27 LIG-0.27  OA
ATOM     13  N   MET E 182       6.565 -30.553  21.620  1.00 63.00 LIG-0.35  N 
ATOM     14 H    MET E 182       6.832 -31.295  21.961  1.00 63.00 LIG 0.16  HD
BRANCH 13 15
ATOM     15  CA  MET E 182       6.775 -30.455  20.183  1.00 43.88 LIG 0.16  C 
BRANCH 15 16
ATOM     16  CB  MET E 182       5.450 -30.161  19.480  1.00 44.38 LIG 0.04  C 
BRANCH 16 17
ATOM     17  CG  MET E 182       4.980 -31.277  18.568  1.00 63.17 LIG 0.08  C 
BRANCH 17 18
ATOM     18 SD   MET E 182       3.277 -31.054  18.025  1.00101.17 LIG-0.17  SA
ATOM     19  CE  MET E 182       3.495 -29.826  16.739  1.00 68.91 LIG 0.09  C 
ENDBRANCH 17 18
ENDBRANCH 16 17
ENDBRANCH 15 16
BRANCH 15 20
ATOM     20  C   MET E 182       7.805 -29.377  19.839  1.00 60.82 LIG 0.22  C 
ATOM     21 O    MET E 182       8.996 -29.512  20.137  1.00 58.83 LIG-0.29  OA
ENDBRANCH 15 20
ENDBRANCH 13 15
ENDBRANCH 10 11
BRANCH 10 22
ATOM     22  CB  ASP E 181       5.077 -31.027  24.147  1.00 40.72 LIG 0.15  C 
BRANCH 22 23
ATOM     23  CG  ASP E 181       3.810 -31.031  23.317  1.00 40.82 LIG 0.17  C 
ATOM     24 OD1  ASP E 181       2.939 -30.159  23.534  1.00 47.44 LIG-0.65  OA
ATOM     25 OD2  ASP E 181       3.697 -31.908  22.438  1.00 24.37 LIG-0.65  OA
ENDBRANCH 22 23
ENDBRANCH 10 22
ENDBRANCH 8 10
ENDBRANCH 1 6
BRANCH 1 26
ATOM     26  N   ASP E 180       3.630 -27.247  26.267  1.00 48.48 LIG-0.34  N 
ATOM     27  C   ASP E 179       2.724 -28.221  26.152  1.00 52.76 LIG 0.24  C 
ATOM     28 O    ASP E 179       2.955 -29.416  26.335  1.00 54.54 LIG-0.27  OA
ATOM     29 H    ASP E 180       3.435 -26.424  26.114  1.00 48.48 LIG 0.16  HD
BRANCH 27 30
ATOM     30  CA  ASP E 179       1.325 -27.745  25.764  1.00 62.98 LIG 0.19  C 
BRANCH 30 31
ATOM     31  N   ASP E 179       0.904 -26.476  26.365  1.00 68.60 LIG-0.34  N 
ATOM     32  C   VAL E 178       0.357 -26.395  27.577  1.00 59.78 LIG 0.26  C 
ATOM     33 O    VAL E 178      -0.040 -27.378  28.205  1.00 49.42 LIG-0.27  OA
ATOM     34 H    ASP E 179       1.042 -25.792  25.863  1.00 68.60 LIG 0.16  HD
BRANCH 32 35
ATOM     35  CA  VAL E 178       0.214 -24.984  28.156  1.00 59.92 LIG 0.40  C 
ATOM     36  N   VAL E 178       0.143 -24.997  29.613  1.00 55.12 LIG 0.61  N 
BRANCH 35 37
ATOM     37  CB  VAL E 178       1.395 -24.111  27.656  1.00 50.97 LIG 0.03  C 
ATOM     38  CG2 VAL E 178       2.667 -24.410  28.435  1.00 47.22 LIG 0.01  C 
ATOM     39  CG1 VAL E 178       1.040 -22.643  27.765  1.00 50.59 LIG 0.01  C 
ENDBRANCH 35 37
ENDBRANCH 32 35
ENDBRANCH 30 31
BRANCH 30 40
ATOM     40  CB  ASP E 179       1.257 -27.637  24.242  1.00 47.75 LIG 0.15  C 
BRANCH 40 41
ATOM     41  CG  ASP E 179      -0.090 -27.159  23.759  1.00 48.80 LIG 0.17  C 
ATOM     42 OD2  ASP E 179      -0.205 -26.786  22.566  1.00 55.56 LIG-0.65  OA
ATOM     43 OD1  ASP E 179      -1.033 -27.161  24.575  1.00 40.87 LIG-0.65  OA
ENDBRANCH 40 41
ENDBRANCH 30 40
ENDBRANCH 27 30
ENDBRANCH 1 26
TORSDOF 19
ENDMDL
MODEL 42
USER: ADFR SOLUTION from run 69
USER: SCORE 12.792715 LL:  -2.072 LR: -11.811 RR:   0.000 FEB:  -6.144
USER: RMSD 5.376384
USER: SEED 68
USER: STATUS no improvement in best in 21 clusters for 5 generations
USER: GENES 21
USER: genes 0 Translation |==|  0.50376 0.62665 0.59271
USER: genes 1 Rotation |==|  0.23321 0.85181 0.73442 0.50999
USER: genes 2 Torsion [C]-CA--CB-[CG] |==|  0.57336
USER: genes 3 Torsion [CA]-CB--CG-[OD1] |==|  0.71977
USER: genes 4 Torsion [N]-CA--C-[N] |==|  0.45572
USER: genes 5 Torsion [C]-N--CA-[CB] |==|  0.85371
USER: genes 6 Torsion [N]-CA--C-[N] |==|  0.42222
USER: genes 7 Torsion [C]-N--CA-[CB] |==|  0.84461
USER: genes 8 Torsion [N]-CA--CB-[CG] |==|  0.83484
USER: genes 9 Torsion [CA]-CB--CG-[SD] |==|  0.56023
USER: genes 10 Torsion [CB]-CG--SD-[CE] |==|  0.46155
USER: genes 11 Torsion [N]-CA--C-[O] |==|  0.92142
USER: genes 12 Torsion [N]-CA--CB-[CG] |==|  0.53122
USER: genes 13 Torsion [CA]-CB--CG-[OD1] |==|  0.78425
USER: genes 14 Torsion [CB]-CA--N-[C] |==|  0.51737
USER: genes 15 Torsion [N]-C--CA-[N] |==|  0.14671
USER: genes 16 Torsion [C]-CA--N-[C] |==|  0.62101
USER: genes 17 Torsion [N]-C--CA-[N] |==|  0.41523
USER: genes 18 Torsion [C]-CA--CB-[CG2] |==|  0.77973
USER: genes 19 Torsion [C]-CA--CB-[CG] |==|  0.24592
USER: genes 20 Torsion [CA]-CB--CG-[OD2] |==|  0.24289
ROOT
ATOM      1  CA  ASP E 180       2.624 -25.446  28.408  1.00 46.29 LIG 0.19  C 
ENDROOT
BRANCH 1 2
ATOM      2  CB  ASP E 180       3.989 -24.871  28.770  1.00 53.57 LIG 0.15  C 
BRANCH 2 3
ATOM      3  CG  ASP E 180       5.119 -25.830  28.475  1.00 52.91 LIG 0.17  C 
ATOM      4 OD1  ASP E 180       5.610 -26.480  29.424  1.00 53.16 LIG-0.65  OA
ATOM      5 OD2  ASP E 180       5.511 -25.940  27.295  1.00 39.91 LIG-0.65  OA
ENDBRANCH 2 3
ENDBRANCH 1 2
BRANCH 1 6
ATOM      6  C   ASP E 180       1.645 -24.306  28.095  1.00 46.16 LIG 0.24  C 
ATOM      7 O    ASP E 180       1.292 -24.085  26.935  1.00 47.92 LIG-0.27  OA
ATOM      8  N   ASP E 181       1.202 -23.582  29.118  1.00 48.75 LIG-0.34  N 
ATOM      9 H    ASP E 181       1.462 -23.675  29.932  1.00 48.75 LIG 0.16  HD
BRANCH 8 10
ATOM     10  CA  ASP E 181       0.203 -22.540  28.901  1.00 45.01 LIG 0.19  C 
BRANCH 10 11
ATOM     11  C   ASP E 181      -1.177 -23.098  28.567  1.00 47.33 LIG 0.24  C 
ATOM     12 O    ASP E 181      -1.312 -24.186  27.992  1.00 41.27 LIG-0.27  OA
ATOM     13  N   MET E 182      -2.198 -22.323  28.923  1.00 63.00 LIG-0.35  N 
ATOM     14 H    MET E 182      -2.101 -21.540  29.264  1.00 63.00 LIG 0.16  HD
BRANCH 13 15
ATOM     15  CA  MET E 182      -3.587 -22.730  28.766  1.00 43.88 LIG 0.16  C 
BRANCH 15 16
ATOM     16  CB  MET E 182      -3.862 -23.100  27.309  1.00 44.38 LIG 0.04  C 
BRANCH 16 17
ATOM     17  CG  MET E 182      -3.608 -21.969  26.332  1.00 63.17 LIG 0.08  C 
BRANCH 17 18
ATOM     18 SD   MET E 182      -4.494 -22.187  24.779  1.00101.17 LIG-0.17  SA
ATOM     19  CE  MET E 182      -4.328 -20.550  24.068  1.00 68.91 LIG 0.09  C 
ENDBRANCH 17 18
ENDBRANCH 16 17
ENDBRANCH 15 16
BRANCH 15 20
ATOM     20  C   MET E 182      -3.933 -23.904  29.684  1.00 60.82 LIG 0.22  C 
ATOM     21 O    MET E 182      -3.072 -24.718  30.035  1.00 58.83 LIG-0.29  OA
ENDBRANCH 15 20
ENDBRANCH 13 15
ENDBRANCH 10 11
BRANCH 10 22
ATOM     22  CB  ASP E 181       0.668 -21.594  27.795  1.00 40.72 LIG 0.15  C 
BRANCH 22 23
ATOM     23  CG  ASP E 181      -0.187 -20.346  27.710  1.00 40.82 LIG 0.17  C 
ATOM     24 OD1  ASP E 181      -1.309 -20.415  27.161  1.00 47.44 LIG-0.65  OA
ATOM     25 OD2  ASP E 181       0.269 -19.298  28.208  1.00 24.37 LIG-0.65  OA
ENDBRANCH 22 23
ENDBRANCH 10 22
ENDBRANCH 8 10
ENDBRANCH 1 6
BRANCH 1 26
ATOM     26  N   ASP E 180       2.703 -26.353  27.259  1.00 48.48 LIG-0.34  N 
ATOM     27  C   ASP E 179       1.663 -26.914  26.639  1.00 52.76 LIG 0.24  C 
ATOM     28 O    ASP E 179       0.486 -26.761  26.969  1.00 54.54 LIG-0.27  OA
ATOM     29 H    ASP E 180       3.513 -26.497  27.009  1.00 48.48 LIG 0.16  HD
BRANCH 27 30
ATOM     30  CA  ASP E 179       2.032 -27.792  25.444  1.00 62.98 LIG 0.19  C 
BRANCH 30 31
ATOM     31  N   ASP E 179       3.029 -28.831  25.713  1.00 68.60 LIG-0.34  N 
ATOM     32  C   VAL E 178       4.040 -29.095  24.885  1.00 59.78 LIG 0.26  C 
ATOM     33 O    VAL E 178       4.105 -28.652  23.736  1.00 49.42 LIG-0.27  OA
ATOM     34 H    ASP E 179       2.902 -29.253  26.451  1.00 68.60 LIG 0.16  HD
BRANCH 32 35
ATOM     35  CA  VAL E 178       5.129 -30.024  25.431  1.00 59.92 LIG 0.40  C 
ATOM     36  N   VAL E 178       5.755 -30.811  24.373  1.00 55.12 LIG 0.61  N 
BRANCH 35 37
ATOM     37  CB  VAL E 178       6.177 -29.176  26.199  1.00 50.97 LIG 0.03  C 
ATOM     38  CG2 VAL E 178       7.141 -28.494  25.239  1.00 47.22 LIG 0.01  C 
ATOM     39  CG1 VAL E 178       6.933 -30.047  27.180  1.00 50.59 LIG 0.01  C 
ENDBRANCH 35 37
ENDBRANCH 32 35
ENDBRANCH 30 31
BRANCH 30 40
ATOM     40  CB  ASP E 179       0.755 -28.436  24.906  1.00 47.75 LIG 0.15  C 
BRANCH 40 41
ATOM     41  CG  ASP E 179       0.068 -27.578  23.874  1.00 48.80 LIG 0.17  C 
ATOM     42 OD2  ASP E 179       0.410 -27.691  22.672  1.00 55.56 LIG-0.65  OA
ATOM     43 OD1  ASP E 179      -0.817 -26.793  24.269  1.00 40.87 LIG-0.65  OA
ENDBRANCH 40 41
ENDBRANCH 30 40
ENDBRANCH 27 30
ENDBRANCH 1 26
TORSDOF 19
ENDMDL
MODEL 43
USER: ADFR SOLUTION from run 142
USER: SCORE 11.666216 LL:  -2.291 LR: -11.795 RR:   0.000 FEB:  -6.128
USER: RMSD 9.800105
USER: SEED 141
USER: STATUS no improvement in best in 34 clusters for 5 generations
USER: GENES 21
USER: genes 0 Translation |==|  0.50248 0.62743 0.60175
USER: genes 1 Rotation |==|  0.43741 0.13303 0.83198 0.53466
USER: genes 2 Torsion [C]-CA--CB-[CG] |==|  0.14183
USER: genes 3 Torsion [CA]-CB--CG-[OD1] |==|  0.59262
USER: genes 4 Torsion [N]-CA--C-[N] |==|  0.27403
USER: genes 5 Torsion [C]-N--CA-[CB] |==|  0.45000
USER: genes 6 Torsion [N]-CA--C-[N] |==|  0.91329
USER: genes 7 Torsion [C]-N--CA-[CB] |==|  0.83824
USER: genes 8 Torsion [N]-CA--CB-[CG] |==|  0.87601
USER: genes 9 Torsion [CA]-CB--CG-[SD] |==|  0.45207
USER: genes 10 Torsion [CB]-CG--SD-[CE] |==|  0.53554
USER: genes 11 Torsion [N]-CA--C-[O] |==|  0.13407
USER: genes 12 Torsion [N]-CA--CB-[CG] |==|  0.84641
USER: genes 13 Torsion [CA]-CB--CG-[OD1] |==|  0.97857
USER: genes 14 Torsion [CB]-CA--N-[C] |==|  0.18316
USER: genes 15 Torsion [N]-C--CA-[N] |==|  0.35807
USER: genes 16 Torsion [C]-CA--N-[C] |==|  0.85321
USER: genes 17 Torsion [N]-C--CA-[N] |==|  0.41653
USER: genes 18 Torsion [C]-CA--CB-[CG2] |==|  0.20727
USER: genes 19 Torsion [C]-CA--CB-[CG] |==|  0.16022
USER: genes 20 Torsion [CA]-CB--CG-[OD2] |==|  0.67010
ROOT
ATOM      1  CA  ASP E 180       2.596 -25.433  28.591  1.00 46.29 LIG 0.19  C 
ENDROOT
BRANCH 1 2
ATOM      2  CB  ASP E 180       3.792 -25.399  29.537  1.00 53.57 LIG 0.15  C 
BRANCH 2 3
ATOM      3  CG  ASP E 180       5.069 -25.858  28.873  1.00 52.91 LIG 0.17  C 
ATOM      4 OD1  ASP E 180       5.913 -26.469  29.565  1.00 53.16 LIG-0.65  OA
ATOM      5 OD2  ASP E 180       5.227 -25.614  27.659  1.00 39.91 LIG-0.65  OA
ENDBRANCH 2 3
ENDBRANCH 1 2
BRANCH 1 6
ATOM      6  C   ASP E 180       2.505 -26.808  27.915  1.00 46.16 LIG 0.24  C 
ATOM      7 O    ASP E 180       2.701 -27.839  28.562  1.00 47.92 LIG-0.27  OA
ATOM      8  N   ASP E 181       2.208 -26.834  26.620  1.00 48.75 LIG-0.34  N 
ATOM      9 H    ASP E 181       2.113 -26.136  26.126  1.00 48.75 LIG 0.16  HD
BRANCH 8 10
ATOM     10  CA  ASP E 181       2.020 -28.109  25.934  1.00 45.01 LIG 0.19  C 
BRANCH 10 11
ATOM     11  C   ASP E 181       3.332 -28.842  25.671  1.00 47.33 LIG 0.24  C 
ATOM     12 O    ASP E 181       3.390 -30.079  25.665  1.00 41.27 LIG-0.27  OA
ATOM     13  N   MET E 182       4.386 -28.056  25.473  1.00 63.00 LIG-0.35  N 
ATOM     14 H    MET E 182       4.356 -27.199  25.541  1.00 63.00 LIG 0.16  HD
BRANCH 13 15
ATOM     15  CA  MET E 182       5.700 -28.573  25.120  1.00 43.88 LIG 0.16  C 
BRANCH 15 16
ATOM     16  CB  MET E 182       6.183 -29.548  26.194  1.00 44.38 LIG 0.04  C 
BRANCH 16 17
ATOM     17  CG  MET E 182       5.962 -29.057  27.610  1.00 63.17 LIG 0.08  C 
BRANCH 17 18
ATOM     18 SD   MET E 182       6.069 -30.382  28.826  1.00101.17 LIG-0.17  SA
ATOM     19  CE  MET E 182       5.392 -29.565  30.270  1.00 68.91 LIG 0.09  C 
ENDBRANCH 17 18
ENDBRANCH 16 17
ENDBRANCH 15 16
BRANCH 15 20
ATOM     20  C   MET E 182       5.682 -29.260  23.753  1.00 60.82 LIG 0.22  C 
ATOM     21 O    MET E 182       5.166 -28.717  22.771  1.00 58.83 LIG-0.29  OA
ENDBRANCH 15 20
ENDBRANCH 13 15
ENDBRANCH 10 11
BRANCH 10 22
ATOM     22  CB  ASP E 181       1.270 -27.889  24.621  1.00 40.72 LIG 0.15  C 
BRANCH 22 23
ATOM     23  CG  ASP E 181      -0.048 -27.171  24.826  1.00 40.82 LIG 0.17  C 
ATOM     24 OD1  ASP E 181      -0.455 -26.969  25.992  1.00 47.44 LIG-0.65  OA
ATOM     25 OD2  ASP E 181      -0.668 -26.799  23.811  1.00 24.37 LIG-0.65  OA
ENDBRANCH 22 23
ENDBRANCH 10 22
ENDBRANCH 8 10
ENDBRANCH 1 6
BRANCH 1 26
ATOM     26  N   ASP E 180       1.341 -25.149  29.294  1.00 48.48 LIG-0.34  N 
ATOM     27  C   ASP E 179       1.015 -23.986  29.863  1.00 52.76 LIG 0.24  C 
ATOM     28 O    ASP E 179       1.745 -22.995  29.895  1.00 54.54 LIG-0.27  OA
ATOM     29 H    ASP E 180       0.810 -25.826  29.307  1.00 48.48 LIG 0.16  HD
BRANCH 27 30
ATOM     30  CA  ASP E 179      -0.374 -23.955  30.498  1.00 62.98 LIG 0.19  C 
BRANCH 30 31
ATOM     31  N   ASP E 179      -0.421 -23.478  31.883  1.00 68.60 LIG-0.34  N 
ATOM     32  C   VAL E 178       0.340 -23.988  32.851  1.00 59.78 LIG 0.26  C 
ATOM     33 O    VAL E 178       0.981 -25.033  32.725  1.00 49.42 LIG-0.27  OA
ATOM     34 H    ASP E 179      -0.984 -22.841  32.011  1.00 68.60 LIG 0.16  HD
BRANCH 32 35
ATOM     35  CA  VAL E 178       0.356 -23.211  34.171  1.00 59.92 LIG 0.40  C 
ATOM     36  N   VAL E 178       0.574 -24.089  35.316  1.00 55.12 LIG 0.61  N 
BRANCH 35 37
ATOM     37  CB  VAL E 178       1.440 -22.105  34.093  1.00 50.97 LIG 0.03  C 
ATOM     38  CG2 VAL E 178       0.985 -20.950  33.214  1.00 47.22 LIG 0.01  C 
ATOM     39  CG1 VAL E 178       2.739 -22.685  33.576  1.00 50.59 LIG 0.01  C 
ENDBRANCH 35 37
ENDBRANCH 32 35
ENDBRANCH 30 31
BRANCH 30 40
ATOM     40  CB  ASP E 179      -1.283 -23.088  29.628  1.00 47.75 LIG 0.15  C 
BRANCH 40 41
ATOM     41  CG  ASP E 179      -1.366 -23.587  28.207  1.00 48.80 LIG 0.17  C 
ATOM     42 OD2  ASP E 179      -0.974 -22.836  27.281  1.00 55.56 LIG-0.65  OA
ATOM     43 OD1  ASP E 179      -1.823 -24.732  28.020  1.00 40.87 LIG-0.65  OA
ENDBRANCH 40 41
ENDBRANCH 30 40
ENDBRANCH 27 30
ENDBRANCH 1 26
TORSDOF 19
ENDMDL
MODEL 44
USER: ADFR SOLUTION from run 38
USER: SCORE 12.317281 LL:  -3.168 LR: -11.786 RR:   0.000 FEB:  -6.119
USER: RMSD 9.192401
USER: SEED 37
USER: STATUS no improvement in best in 10 clusters for 5 generations
USER: GENES 21
USER: genes 0 Translation |==|  0.51739 0.58353 0.55583
USER: genes 1 Rotation |==|  0.31741 0.15124 0.80194 0.56212
USER: genes 2 Torsion [C]-CA--CB-[CG] |==|  0.33161
USER: genes 3 Torsion [CA]-CB--CG-[OD1] |==|  0.48624
USER: genes 4 Torsion [N]-CA--C-[N] |==|  0.15807
USER: genes 5 Torsion [C]-N--CA-[CB] |==|  0.19444
USER: genes 6 Torsion [N]-CA--C-[N] |==|  0.54901
USER: genes 7 Torsion [C]-N--CA-[CB] |==|  0.47040
USER: genes 8 Torsion [N]-CA--CB-[CG] |==|  0.70396
USER: genes 9 Torsion [CA]-CB--CG-[SD] |==|  0.79513
USER: genes 10 Torsion [CB]-CG--SD-[CE] |==|  0.44643
USER: genes 11 Torsion [N]-CA--C-[O] |==|  0.20771
USER: genes 12 Torsion [N]-CA--CB-[CG] |==|  0.13806
USER: genes 13 Torsion [CA]-CB--CG-[OD1] |==|  0.65670
USER: genes 14 Torsion [CB]-CA--N-[C] |==|  0.33990
USER: genes 15 Torsion [N]-C--CA-[N] |==|  0.02232
USER: genes 16 Torsion [C]-CA--N-[C] |==|  0.70198
USER: genes 17 Torsion [N]-C--CA-[N] |==|  0.59440
USER: genes 18 Torsion [C]-CA--CB-[CG2] |==|  0.76442
USER: genes 19 Torsion [C]-CA--CB-[CG] |==|  0.32421
USER: genes 20 Torsion [CA]-CB--CG-[OD2] |==|  0.99174
ROOT
ATOM      1  CA  ASP E 180       2.920 -26.158  27.662  1.00 46.29 LIG 0.19  C 
ENDROOT
BRANCH 1 2
ATOM      2  CB  ASP E 180       3.746 -26.609  28.862  1.00 53.57 LIG 0.15  C 
BRANCH 2 3
ATOM      3  CG  ASP E 180       5.169 -26.103  28.811  1.00 52.91 LIG 0.17  C 
ATOM      4 OD1  ASP E 180       5.916 -26.329  29.788  1.00 53.16 LIG-0.65  OA
ATOM      5 OD2  ASP E 180       5.542 -25.485  27.792  1.00 39.91 LIG-0.65  OA
ENDBRANCH 2 3
ENDBRANCH 1 2
BRANCH 1 6
ATOM      6  C   ASP E 180       2.421 -27.382  26.882  1.00 46.16 LIG 0.24  C 
ATOM      7 O    ASP E 180       2.703 -28.522  27.258  1.00 47.92 LIG-0.27  OA
ATOM      8  N   ASP E 181       1.681 -27.158  25.801  1.00 48.75 LIG-0.34  N 
ATOM      9 H    ASP E 181       1.505 -26.380  25.482  1.00 48.75 LIG 0.16  HD
BRANCH 8 10
ATOM     10  CA  ASP E 181       1.102 -28.277  25.064  1.00 45.01 LIG 0.19  C 
BRANCH 10 11
ATOM     11  C   ASP E 181       0.567 -27.873  23.693  1.00 47.33 LIG 0.24  C 
ATOM     12 O    ASP E 181       0.898 -26.806  23.159  1.00 41.27 LIG-0.27  OA
ATOM     13  N   MET E 182      -0.281 -28.738  23.143  1.00 63.00 LIG-0.35  N 
ATOM     14 H    MET E 182      -0.559 -29.446  23.542  1.00 63.00 LIG 0.16  HD
BRANCH 13 15
ATOM     15  CA  MET E 182      -0.823 -28.565  21.803  1.00 43.88 LIG 0.16  C 
BRANCH 15 16
ATOM     16  CB  MET E 182      -1.545 -29.839  21.364  1.00 44.38 LIG 0.04  C 
BRANCH 16 17
ATOM     17  CG  MET E 182      -0.790 -30.642  20.324  1.00 63.17 LIG 0.08  C 
BRANCH 17 18
ATOM     18 SD   MET E 182      -0.835 -29.878  18.693  1.00101.17 LIG-0.17  SA
ATOM     19  CE  MET E 182       0.556 -30.688  17.906  1.00 68.91 LIG 0.09  C 
ENDBRANCH 17 18
ENDBRANCH 16 17
ENDBRANCH 15 16
BRANCH 15 20
ATOM     20  C   MET E 182      -1.774 -27.369  21.734  1.00 60.82 LIG 0.22  C 
ATOM     21 O    MET E 182      -1.346 -26.210  21.735  1.00 58.83 LIG-0.29  OA
ENDBRANCH 15 20
ENDBRANCH 13 15
ENDBRANCH 10 11
BRANCH 10 22
ATOM     22  CB  ASP E 181      -0.009 -28.926  25.888  1.00 40.72 LIG 0.15  C 
BRANCH 22 23
ATOM     23  CG  ASP E 181      -0.997 -27.910  26.422  1.00 40.82 LIG 0.17  C 
ATOM     24 OD1  ASP E 181      -1.202 -27.852  27.655  1.00 47.44 LIG-0.65  OA
ATOM     25 OD2  ASP E 181      -1.559 -27.161  25.599  1.00 24.37 LIG-0.65  OA
ENDBRANCH 22 23
ENDBRANCH 10 22
ENDBRANCH 8 10
ENDBRANCH 1 6
BRANCH 1 26
ATOM     26  N   ASP E 180       1.776 -25.336  28.068  1.00 48.48 LIG-0.34  N 
ATOM     27  C   ASP E 179       1.528 -24.091  27.654  1.00 52.76 LIG 0.24  C 
ATOM     28 O    ASP E 179       2.250 -23.452  26.888  1.00 54.54 LIG-0.27  OA
ATOM     29 H    ASP E 180       1.257 -25.744  28.618  1.00 48.48 LIG 0.16  HD
BRANCH 27 30
ATOM     30  CA  ASP E 179       0.244 -23.480  28.210  1.00 62.98 LIG 0.19  C 
BRANCH 30 31
ATOM     31  N   ASP E 179      -0.429 -24.266  29.249  1.00 68.60 LIG-0.34  N 
ATOM     32  C   VAL E 178      -1.564 -24.930  29.033  1.00 59.78 LIG 0.26  C 
ATOM     33 O    VAL E 178      -2.258 -24.770  28.027  1.00 49.42 LIG-0.27  OA
ATOM     34 H    ASP E 179      -0.023 -24.259  30.007  1.00 68.60 LIG 0.16  HD
BRANCH 32 35
ATOM     35  CA  VAL E 178      -1.993 -25.902  30.136  1.00 59.92 LIG 0.40  C 
ATOM     36  N   VAL E 178      -2.668 -27.077  29.594  1.00 55.12 LIG 0.61  N 
BRANCH 35 37
ATOM     37  CB  VAL E 178      -0.748 -26.300  30.971  1.00 50.97 LIG 0.03  C 
ATOM     38  CG2 VAL E 178       0.001 -27.456  30.323  1.00 47.22 LIG 0.01  C 
ATOM     39  CG1 VAL E 178      -1.160 -26.660  32.382  1.00 50.59 LIG 0.01  C 
ENDBRANCH 35 37
ENDBRANCH 32 35
ENDBRANCH 30 31
BRANCH 30 40
ATOM     40  CB  ASP E 179       0.566 -22.088  28.753  1.00 47.75 LIG 0.15  C 
BRANCH 40 41
ATOM     41  CG  ASP E 179      -0.161 -20.997  28.007  1.00 48.80 LIG 0.17  C 
ATOM     42 OD2  ASP E 179      -0.877 -21.312  27.026  1.00 55.56 LIG-0.65  OA
ATOM     43 OD1  ASP E 179      -0.015 -19.825  28.407  1.00 40.87 LIG-0.65  OA
ENDBRANCH 40 41
ENDBRANCH 30 40
ENDBRANCH 27 30
ENDBRANCH 1 26
TORSDOF 19
ENDMDL
MODEL 45
USER: ADFR SOLUTION from run 175
USER: SCORE 13.012263 LL:  -1.496 LR: -11.784 RR:   0.000 FEB:  -6.117
USER: RMSD 8.851761
USER: SEED 174
USER: STATUS no improvement in best in 24 clusters for 5 generations
USER: GENES 21
USER: genes 0 Translation |==|  0.57574 0.53966 0.51860
USER: genes 1 Rotation |==|  0.66073 0.89600 0.26593 0.61207
USER: genes 2 Torsion [C]-CA--CB-[CG] |==|  0.29066
USER: genes 3 Torsion [CA]-CB--CG-[OD1] |==|  0.03636
USER: genes 4 Torsion [N]-CA--C-[N] |==|  0.42728
USER: genes 5 Torsion [C]-N--CA-[CB] |==|  0.84329
USER: genes 6 Torsion [N]-CA--C-[N] |==|  0.38389
USER: genes 7 Torsion [C]-N--CA-[CB] |==|  0.84727
USER: genes 8 Torsion [N]-CA--CB-[CG] |==|  0.53406
USER: genes 9 Torsion [CA]-CB--CG-[SD] |==|  0.52355
USER: genes 10 Torsion [CB]-CG--SD-[CE] |==|  0.38767
USER: genes 11 Torsion [N]-CA--C-[O] |==|  0.87769
USER: genes 12 Torsion [N]-CA--CB-[CG] |==|  0.68793
USER: genes 13 Torsion [CA]-CB--CG-[OD1] |==|  0.65252
USER: genes 14 Torsion [CB]-CA--N-[C] |==|  0.83889
USER: genes 15 Torsion [N]-C--CA-[N] |==|  0.31215
USER: genes 16 Torsion [C]-CA--N-[C] |==|  0.73810
USER: genes 17 Torsion [N]-C--CA-[N] |==|  0.07030
USER: genes 18 Torsion [C]-CA--CB-[CG2] |==|  0.86468
USER: genes 19 Torsion [C]-CA--CB-[CG] |==|  0.39667
USER: genes 20 Torsion [CA]-CB--CG-[OD2] |==|  0.78870
ROOT
ATOM      1  CA  ASP E 180       4.189 -26.882  26.908  1.00 46.29 LIG 0.19  C 
ENDROOT
BRANCH 1 2
ATOM      2  CB  ASP E 180       4.402 -27.129  28.397  1.00 53.57 LIG 0.15  C 
BRANCH 2 3
ATOM      3  CG  ASP E 180       5.469 -26.237  28.987  1.00 52.91 LIG 0.17  C 
ATOM      4 OD1  ASP E 180       5.868 -25.262  28.313  1.00 53.16 LIG-0.65  OA
ATOM      5 OD2  ASP E 180       5.903 -26.504  30.127  1.00 39.91 LIG-0.65  OA
ENDBRANCH 2 3
ENDBRANCH 1 2
BRANCH 1 6
ATOM      6  C   ASP E 180       4.828 -28.015  26.094  1.00 46.16 LIG 0.24  C 
ATOM      7 O    ASP E 180       4.145 -28.960  25.693  1.00 47.92 LIG-0.27  OA
ATOM      8  N   ASP E 181       6.131 -27.931  25.845  1.00 48.75 LIG-0.34  N 
ATOM      9 H    ASP E 181       6.648 -27.314  26.149  1.00 48.75 LIG 0.16  HD
BRANCH 8 10
ATOM     10  CA  ASP E 181       6.785 -28.929  25.004  1.00 45.01 LIG 0.19  C 
BRANCH 10 11
ATOM     11  C   ASP E 181       6.325 -28.875  23.550  1.00 47.33 LIG 0.24  C 
ATOM     12 O    ASP E 181       5.131 -28.732  23.256  1.00 41.27 LIG-0.27  OA
ATOM     13  N   MET E 182       7.293 -29.013  22.649  1.00 63.00 LIG-0.35  N 
ATOM     14 H    MET E 182       8.112 -29.176  22.856  1.00 63.00 LIG 0.16  HD
BRANCH 13 15
ATOM     15  CA  MET E 182       7.059 -28.899  21.217  1.00 43.88 LIG 0.16  C 
BRANCH 15 16
ATOM     16  CB  MET E 182       5.959 -29.870  20.789  1.00 44.38 LIG 0.04  C 
BRANCH 16 17
ATOM     17  CG  MET E 182       5.844 -30.041  19.288  1.00 63.17 LIG 0.08  C 
BRANCH 17 18
ATOM     18 SD   MET E 182       4.392 -30.994  18.810  1.00101.17 LIG-0.17  SA
ATOM     19  CE  MET E 182       3.850 -30.077  17.369  1.00 68.91 LIG 0.09  C 
ENDBRANCH 17 18
ENDBRANCH 16 17
ENDBRANCH 15 16
BRANCH 15 20
ATOM     20  C   MET E 182       6.682 -27.469  20.824  1.00 60.82 LIG 0.22  C 
ATOM     21 O    MET E 182       5.874 -26.814  21.489  1.00 58.83 LIG-0.29  OA
ENDBRANCH 15 20
ENDBRANCH 13 15
ENDBRANCH 10 11
BRANCH 10 22
ATOM     22  CB  ASP E 181       6.552 -30.326  25.577  1.00 40.72 LIG 0.15  C 
BRANCH 22 23
ATOM     23  CG  ASP E 181       7.827 -30.952  26.101  1.00 40.82 LIG 0.17  C 
ATOM     24 OD1  ASP E 181       8.175 -32.074  25.671  1.00 47.44 LIG-0.65  OA
ATOM     25 OD2  ASP E 181       8.486 -30.307  26.941  1.00 24.37 LIG-0.65  OA
ENDBRANCH 22 23
ENDBRANCH 10 22
ENDBRANCH 8 10
ENDBRANCH 1 6
BRANCH 1 26
ATOM     26  N   ASP E 180       2.766 -26.780  26.572  1.00 48.48 LIG-0.34  N 
ATOM     27  C   ASP E 179       1.845 -27.720  26.800  1.00 52.76 LIG 0.24  C 
ATOM     28 O    ASP E 179       2.077 -28.818  27.305  1.00 54.54 LIG-0.27  OA
ATOM     29 H    ASP E 180       2.568 -26.031  26.200  1.00 48.48 LIG 0.16  HD
BRANCH 27 30
ATOM     30  CA  ASP E 179       0.427 -27.337  26.380  1.00 62.98 LIG 0.19  C 
BRANCH 30 31
ATOM     31  N   ASP E 179      -0.121 -28.095  25.252  1.00 68.60 LIG-0.34  N 
ATOM     32  C   VAL E 178      -0.049 -27.671  23.991  1.00 59.78 LIG 0.26  C 
ATOM     33 O    VAL E 178       0.281 -26.525  23.682  1.00 49.42 LIG-0.27  OA
ATOM     34 H    ASP E 179      -0.492 -28.836  25.480  1.00 68.60 LIG 0.16  HD
BRANCH 32 35
ATOM     35  CA  VAL E 178      -0.436 -28.693  22.917  1.00 59.92 LIG 0.40  C 
ATOM     36  N   VAL E 178      -1.348 -29.708  23.434  1.00 55.12 LIG 0.61  N 
BRANCH 35 37
ATOM     37  CB  VAL E 178      -1.053 -27.944  21.707  1.00 50.97 LIG 0.03  C 
ATOM     38  CG2 VAL E 178      -2.118 -26.955  22.157  1.00 47.22 LIG 0.01  C 
ATOM     39  CG1 VAL E 178      -1.633 -28.936  20.721  1.00 50.59 LIG 0.01  C 
ENDBRANCH 35 37
ENDBRANCH 32 35
ENDBRANCH 30 31
BRANCH 30 40
ATOM     40  CB  ASP E 179      -0.492 -27.486  27.591  1.00 47.75 LIG 0.15  C 
BRANCH 40 41
ATOM     41  CG  ASP E 179      -1.549 -26.412  27.648  1.00 48.80 LIG 0.17  C 
ATOM     42 OD2  ASP E 179      -1.219 -25.261  28.021  1.00 55.56 LIG-0.65  OA
ATOM     43 OD1  ASP E 179      -2.710 -26.723  27.314  1.00 40.87 LIG-0.65  OA
ENDBRANCH 40 41
ENDBRANCH 30 40
ENDBRANCH 27 30
ENDBRANCH 1 26
TORSDOF 19
ENDMDL
MODEL 46
USER: ADFR SOLUTION from run 159
USER: SCORE 11.575386 LL:  -1.966 LR: -11.763 RR:   0.000 FEB:  -6.095
USER: RMSD 9.247444
USER: SEED 158
USER: STATUS no improvement in best in 7 clusters for 5 generations
USER: GENES 21
USER: genes 0 Translation |==|  0.52599 0.55458 0.55527
USER: genes 1 Rotation |==|  0.33845 0.15574 0.80521 0.61062
USER: genes 2 Torsion [C]-CA--CB-[CG] |==|  0.42388
USER: genes 3 Torsion [CA]-CB--CG-[OD1] |==|  0.43740
USER: genes 4 Torsion [N]-CA--C-[N] |==|  0.23545
USER: genes 5 Torsion [C]-N--CA-[CB] |==|  0.14764
USER: genes 6 Torsion [N]-CA--C-[N] |==|  0.52394
USER: genes 7 Torsion [C]-N--CA-[CB] |==|  0.47339
USER: genes 8 Torsion [N]-CA--CB-[CG] |==|  0.52669
USER: genes 9 Torsion [CA]-CB--CG-[SD] |==|  0.68412
USER: genes 10 Torsion [CB]-CG--SD-[CE] |==|  0.29215
USER: genes 11 Torsion [N]-CA--C-[O] |==|  0.16777
USER: genes 12 Torsion [N]-CA--CB-[CG] |==|  0.16164
USER: genes 13 Torsion [CA]-CB--CG-[OD1] |==|  0.16616
USER: genes 14 Torsion [CB]-CA--N-[C] |==|  0.51252
USER: genes 15 Torsion [N]-C--CA-[N] |==|  0.36777
USER: genes 16 Torsion [C]-CA--N-[C] |==|  0.66839
USER: genes 17 Torsion [N]-C--CA-[N] |==|  0.85813
USER: genes 18 Torsion [C]-CA--CB-[CG2] |==|  0.11737
USER: genes 19 Torsion [C]-CA--CB-[CG] |==|  0.63121
USER: genes 20 Torsion [CA]-CB--CG-[OD2] |==|  0.19179
ROOT
ATOM      1  CA  ASP E 180       3.107 -26.635  27.650  1.00 46.29 LIG 0.19  C 
ENDROOT
BRANCH 1 2
ATOM      2  CB  ASP E 180       4.113 -27.213  28.641  1.00 53.57 LIG 0.15  C 
BRANCH 2 3
ATOM      3  CG  ASP E 180       5.272 -26.279  28.901  1.00 52.91 LIG 0.17  C 
ATOM      4 OD1  ASP E 180       5.917 -26.414  29.964  1.00 53.16 LIG-0.65  OA
ATOM      5 OD2  ASP E 180       5.544 -25.416  28.041  1.00 39.91 LIG-0.65  OA
ENDBRANCH 2 3
ENDBRANCH 1 2
BRANCH 1 6
ATOM      6  C   ASP E 180       2.386 -27.774  26.917  1.00 46.16 LIG 0.24  C 
ATOM      7 O    ASP E 180       2.240 -28.873  27.456  1.00 47.92 LIG-0.27  OA
ATOM      8  N   ASP E 181       1.932 -27.522  25.693  1.00 48.75 LIG-0.34  N 
ATOM      9 H    ASP E 181       2.057 -26.786  25.267  1.00 48.75 LIG 0.16  HD
BRANCH 8 10
ATOM     10  CA  ASP E 181       1.161 -28.532  24.973  1.00 45.01 LIG 0.19  C 
BRANCH 10 11
ATOM     11  C   ASP E 181       0.652 -28.040  23.621  1.00 47.33 LIG 0.24  C 
ATOM     12 O    ASP E 181       1.008 -26.950  23.155  1.00 41.27 LIG-0.27  OA
ATOM     13  N   MET E 182      -0.202 -28.857  23.011  1.00 63.00 LIG-0.35  N 
ATOM     14 H    MET E 182      -0.496 -29.583  23.365  1.00 63.00 LIG 0.16  HD
BRANCH 13 15
ATOM     15  CA  MET E 182      -0.722 -28.599  21.677  1.00 43.88 LIG 0.16  C 
BRANCH 15 16
ATOM     16  CB  MET E 182      -1.481 -29.823  21.166  1.00 44.38 LIG 0.04  C 
BRANCH 16 17
ATOM     17  CG  MET E 182      -1.863 -29.739  19.702  1.00 63.17 LIG 0.08  C 
BRANCH 17 18
ATOM     18 SD   MET E 182      -3.645 -29.644  19.456  1.00101.17 LIG-0.17  SA
ATOM     19  CE  MET E 182      -3.832 -27.913  19.032  1.00 68.91 LIG 0.09  C 
ENDBRANCH 17 18
ENDBRANCH 16 17
ENDBRANCH 15 16
BRANCH 15 20
ATOM     20  C   MET E 182      -1.632 -27.369  21.660  1.00 60.82 LIG 0.22  C 
ATOM     21 O    MET E 182      -1.208 -26.255  21.985  1.00 58.83 LIG-0.29  OA
ENDBRANCH 15 20
ENDBRANCH 13 15
ENDBRANCH 10 11
BRANCH 10 22
ATOM     22  CB  ASP E 181      -0.010 -29.005  25.834  1.00 40.72 LIG 0.15  C 
BRANCH 22 23
ATOM     23  CG  ASP E 181      -0.927 -27.867  26.231  1.00 40.82 LIG 0.17  C 
ATOM     24 OD1  ASP E 181      -1.491 -27.200  25.335  1.00 47.44 LIG-0.65  OA
ATOM     25 OD2  ASP E 181      -1.088 -27.651  27.449  1.00 24.37 LIG-0.65  OA
ENDBRANCH 22 23
ENDBRANCH 10 22
ENDBRANCH 8 10
ENDBRANCH 1 6
BRANCH 1 26
ATOM     26  N   ASP E 180       2.120 -25.779  28.315  1.00 48.48 LIG-0.34  N 
ATOM     27  C   ASP E 179       1.069 -25.204  27.726  1.00 52.76 LIG 0.24  C 
ATOM     28 O    ASP E 179       0.800 -25.298  26.528  1.00 54.54 LIG-0.27  OA
ATOM     29 H    ASP E 180       2.285 -25.675  29.153  1.00 48.48 LIG 0.16  HD
BRANCH 27 30
ATOM     30  CA  ASP E 179       0.181 -24.389  28.665  1.00 62.98 LIG 0.19  C 
BRANCH 30 31
ATOM     31  N   ASP E 179      -0.182 -23.053  28.184  1.00 68.60 LIG-0.34  N 
ATOM     32  C   VAL E 178       0.144 -21.936  28.835  1.00 59.78 LIG 0.26  C 
ATOM     33 O    VAL E 178       0.578 -21.929  29.988  1.00 49.42 LIG-0.27  OA
ATOM     34 H    ASP E 179      -0.623 -23.057  27.446  1.00 68.60 LIG 0.16  HD
BRANCH 32 35
ATOM     35  CA  VAL E 178      -0.083 -20.626  28.074  1.00 59.92 LIG 0.40  C 
ATOM     36  N   VAL E 178       0.521 -20.656  26.745  1.00 55.12 LIG 0.61  N 
BRANCH 35 37
ATOM     37  CB  VAL E 178      -1.606 -20.345  27.995  1.00 50.97 LIG 0.03  C 
ATOM     38  CG2 VAL E 178      -2.290 -20.644  29.322  1.00 47.22 LIG 0.01  C 
ATOM     39  CG1 VAL E 178      -2.230 -21.159  26.882  1.00 50.59 LIG 0.01  C 
ENDBRANCH 35 37
ENDBRANCH 32 35
ENDBRANCH 30 31
BRANCH 30 40
ATOM     40  CB  ASP E 179      -1.088 -25.192  28.948  1.00 47.75 LIG 0.15  C 
BRANCH 40 41
ATOM     41  CG  ASP E 179      -2.338 -24.362  28.802  1.00 48.80 LIG 0.17  C 
ATOM     42 OD2  ASP E 179      -2.676 -23.978  27.656  1.00 55.56 LIG-0.65  OA
ATOM     43 OD1  ASP E 179      -2.983 -24.098  29.836  1.00 40.87 LIG-0.65  OA
ENDBRANCH 40 41
ENDBRANCH 30 40
ENDBRANCH 27 30
ENDBRANCH 1 26
TORSDOF 19
ENDMDL
MODEL 47
USER: ADFR SOLUTION from run 153
USER: SCORE 13.585713 LL:  -3.084 LR: -11.735 RR:   0.000 FEB:  -6.067
USER: RMSD 9.082357
USER: SEED 152
USER: STATUS no improvement in best in 10 clusters for 5 generations
USER: GENES 21
USER: genes 0 Translation |==|  0.58711 0.52345 0.50413
USER: genes 1 Rotation |==|  0.61869 0.86705 0.27291 0.72276
USER: genes 2 Torsion [C]-CA--CB-[CG] |==|  0.22053
USER: genes 3 Torsion [CA]-CB--CG-[OD1] |==|  0.09472
USER: genes 4 Torsion [N]-CA--C-[N] |==|  0.16150
USER: genes 5 Torsion [C]-N--CA-[CB] |==|  0.23631
USER: genes 6 Torsion [N]-CA--C-[N] |==|  0.84907
USER: genes 7 Torsion [C]-N--CA-[CB] |==|  0.26452
USER: genes 8 Torsion [N]-CA--CB-[CG] |==|  0.69186
USER: genes 9 Torsion [CA]-CB--CG-[SD] |==|  0.41392
USER: genes 10 Torsion [CB]-CG--SD-[CE] |==|  0.46960
USER: genes 11 Torsion [N]-CA--C-[O] |==|  0.10162
USER: genes 12 Torsion [N]-CA--CB-[CG] |==|  0.10266
USER: genes 13 Torsion [CA]-CB--CG-[OD1] |==|  0.58263
USER: genes 14 Torsion [CB]-CA--N-[C] |==|  0.78333
USER: genes 15 Torsion [N]-C--CA-[N] |==|  0.41291
USER: genes 16 Torsion [C]-CA--N-[C] |==|  0.61845
USER: genes 17 Torsion [N]-C--CA-[N] |==|  0.87756
USER: genes 18 Torsion [C]-CA--CB-[CG2] |==|  0.14704
USER: genes 19 Torsion [C]-CA--CB-[CG] |==|  0.30429
USER: genes 20 Torsion [CA]-CB--CG-[OD2] |==|  0.50929
ROOT
ATOM      1  CA  ASP E 180       4.437 -27.149  26.615  1.00 46.29 LIG 0.19  C 
ENDROOT
BRANCH 1 2
ATOM      2  CB  ASP E 180       4.203 -27.073  28.120  1.00 53.57 LIG 0.15  C 
BRANCH 2 3
ATOM      3  CG  ASP E 180       5.200 -26.177  28.817  1.00 52.91 LIG 0.17  C 
ATOM      4 OD1  ASP E 180       5.618 -25.167  28.209  1.00 53.16 LIG-0.65  OA
ATOM      5 OD2  ASP E 180       5.561 -26.478  29.973  1.00 39.91 LIG-0.65  OA
ENDBRANCH 2 3
ENDBRANCH 1 2
BRANCH 1 6
ATOM      6  C   ASP E 180       5.587 -28.119  26.314  1.00 46.16 LIG 0.24  C 
ATOM      7 O    ASP E 180       6.156 -28.719  27.228  1.00 47.92 LIG-0.27  OA
ATOM      8  N   ASP E 181       5.934 -28.280  25.041  1.00 48.75 LIG-0.34  N 
ATOM      9 H    ASP E 181       5.594 -27.844  24.382  1.00 48.75 LIG 0.16  HD
BRANCH 8 10
ATOM     10  CA  ASP E 181       6.961 -29.252  24.677  1.00 45.01 LIG 0.19  C 
BRANCH 10 11
ATOM     11  C   ASP E 181       7.718 -28.871  23.408  1.00 47.33 LIG 0.24  C 
ATOM     12 O    ASP E 181       8.951 -28.774  23.396  1.00 41.27 LIG-0.27  OA
ATOM     13  N   MET E 182       6.952 -28.639  22.345  1.00 63.00 LIG-0.35  N 
ATOM     14 H    MET E 182       6.093 -28.644  22.371  1.00 63.00 LIG 0.16  HD
BRANCH 13 15
ATOM     15  CA  MET E 182       7.499 -28.352  21.027  1.00 43.88 LIG 0.16  C 
BRANCH 15 16
ATOM     16  CB  MET E 182       7.574 -29.636  20.201  1.00 44.38 LIG 0.04  C 
BRANCH 16 17
ATOM     17  CG  MET E 182       8.989 -30.113  19.940  1.00 63.17 LIG 0.08  C 
BRANCH 17 18
ATOM     18 SD   MET E 182       9.099 -31.906  19.806  1.00101.17 LIG-0.17  SA
ATOM     19  CE  MET E 182      10.769 -32.092  19.182  1.00 68.91 LIG 0.09  C 
ENDBRANCH 17 18
ENDBRANCH 16 17
ENDBRANCH 15 16
BRANCH 15 20
ATOM     20  C   MET E 182       6.667 -27.299  20.293  1.00 60.82 LIG 0.22  C 
ATOM     21 O    MET E 182       6.152 -26.354  20.898  1.00 58.83 LIG-0.29  OA
ENDBRANCH 15 20
ENDBRANCH 13 15
ENDBRANCH 10 11
BRANCH 10 22
ATOM     22  CB  ASP E 181       6.335 -30.637  24.518  1.00 40.72 LIG 0.15  C 
BRANCH 22 23
ATOM     23  CG  ASP E 181       4.955 -30.576  23.898  1.00 40.82 LIG 0.17  C 
ATOM     24 OD1  ASP E 181       4.116 -31.455  24.197  1.00 47.44 LIG-0.65  OA
ATOM     25 OD2  ASP E 181       4.712 -29.635  23.117  1.00 24.37 LIG-0.65  OA
ENDBRANCH 22 23
ENDBRANCH 10 22
ENDBRANCH 8 10
ENDBRANCH 1 6
BRANCH 1 26
ATOM     26  N   ASP E 180       3.232 -27.582  25.899  1.00 48.48 LIG-0.34  N 
ATOM     27  C   ASP E 179       2.788 -28.838  25.815  1.00 52.76 LIG 0.24  C 
ATOM     28 O    ASP E 179       3.351 -29.814  26.312  1.00 54.54 LIG-0.27  OA
ATOM     29 H    ASP E 180       2.820 -26.928  25.524  1.00 48.48 LIG 0.16  HD
BRANCH 27 30
ATOM     30  CA  ASP E 179       1.485 -29.001  25.035  1.00 62.98 LIG 0.19  C 
BRANCH 30 31
ATOM     31  N   ASP E 179       1.336 -30.271  24.318  1.00 68.60 LIG-0.34  N 
ATOM     32  C   VAL E 178       0.853 -30.351  23.079  1.00 59.78 LIG 0.26  C 
ATOM     33 O    VAL E 178       0.292 -29.411  22.512  1.00 49.42 LIG-0.27  OA
ATOM     34 H    ASP E 179       1.589 -30.957  24.771  1.00 68.60 LIG 0.16  HD
BRANCH 32 35
ATOM     35  CA  VAL E 178       1.004 -31.709  22.386  1.00 59.92 LIG 0.40  C 
ATOM     36  N   VAL E 178       2.331 -32.280  22.589  1.00 55.12 LIG 0.61  N 
BRANCH 35 37
ATOM     37  CB  VAL E 178      -0.106 -32.663  22.900  1.00 50.97 LIG 0.03  C 
ATOM     38  CG2 VAL E 178      -1.483 -32.033  22.757  1.00 47.22 LIG 0.01  C 
ATOM     39  CG1 VAL E 178       0.158 -33.039  24.342  1.00 50.59 LIG 0.01  C 
ENDBRANCH 35 37
ENDBRANCH 32 35
ENDBRANCH 30 31
BRANCH 30 40
ATOM     40  CB  ASP E 179       0.316 -28.821  26.003  1.00 47.75 LIG 0.15  C 
BRANCH 40 41
ATOM     41  CG  ASP E 179      -0.435 -27.535  25.765  1.00 48.80 LIG 0.17  C 
ATOM     42 OD2  ASP E 179      -1.379 -27.238  26.536  1.00 55.56 LIG-0.65  OA
ATOM     43 OD1  ASP E 179      -0.075 -26.822  24.807  1.00 40.87 LIG-0.65  OA
ENDBRANCH 40 41
ENDBRANCH 30 40
ENDBRANCH 27 30
ENDBRANCH 1 26
TORSDOF 19
ENDMDL
MODEL 48
USER: ADFR SOLUTION from run 194
USER: SCORE 11.830578 LL:  -2.086 LR: -11.733 RR:   0.000 FEB:  -6.065
USER: RMSD 8.537499
USER: SEED 193
USER: STATUS no improvement in best in 13 clusters for 5 generations
USER: GENES 21
USER: genes 0 Translation |==|  0.53161 0.54477 0.53408
USER: genes 1 Rotation |==|  0.37956 0.14287 0.79954 0.63502
USER: genes 2 Torsion [C]-CA--CB-[CG] |==|  0.49220
USER: genes 3 Torsion [CA]-CB--CG-[OD1] |==|  0.36888
USER: genes 4 Torsion [N]-CA--C-[N] |==|  0.23203
USER: genes 5 Torsion [C]-N--CA-[CB] |==|  0.15600
USER: genes 6 Torsion [N]-CA--C-[N] |==|  0.51402
USER: genes 7 Torsion [C]-N--CA-[CB] |==|  0.49803
USER: genes 8 Torsion [N]-CA--CB-[CG] |==|  0.37051
USER: genes 9 Torsion [CA]-CB--CG-[SD] |==|  0.21794
USER: genes 10 Torsion [CB]-CG--SD-[CE] |==|  0.63477
USER: genes 11 Torsion [N]-CA--C-[O] |==|  0.23401
USER: genes 12 Torsion [N]-CA--CB-[CG] |==|  0.17190
USER: genes 13 Torsion [CA]-CB--CG-[OD1] |==|  0.09846
USER: genes 14 Torsion [CB]-CA--N-[C] |==|  0.51118
USER: genes 15 Torsion [N]-C--CA-[N] |==|  0.93802
USER: genes 16 Torsion [C]-CA--N-[C] |==|  0.83776
USER: genes 17 Torsion [N]-C--CA-[N] |==|  0.44321
USER: genes 18 Torsion [C]-CA--CB-[CG2] |==|  0.80609
USER: genes 19 Torsion [C]-CA--CB-[CG] |==|  0.23154
USER: genes 20 Torsion [CA]-CB--CG-[OD2] |==|  0.51851
ROOT
ATOM      1  CA  ASP E 180       3.229 -26.797  27.221  1.00 46.29 LIG 0.19  C 
ENDROOT
BRANCH 1 2
ATOM      2  CB  ASP E 180       4.405 -27.404  27.980  1.00 53.57 LIG 0.15  C 
BRANCH 2 3
ATOM      3  CG  ASP E 180       5.237 -26.362  28.690  1.00 52.91 LIG 0.17  C 
ATOM      4 OD1  ASP E 180       5.554 -26.565  29.883  1.00 53.16 LIG-0.65  OA
ATOM      5 OD2  ASP E 180       5.581 -25.344  28.055  1.00 39.91 LIG-0.65  OA
ENDBRANCH 2 3
ENDBRANCH 1 2
BRANCH 1 6
ATOM      6  C   ASP E 180       2.470 -27.899  26.469  1.00 46.16 LIG 0.24  C 
ATOM      7 O    ASP E 180       2.489 -29.062  26.876  1.00 47.92 LIG-0.27  OA
ATOM      8  N   ASP E 181       1.802 -27.544  25.376  1.00 48.75 LIG-0.34  N 
ATOM      9 H    ASP E 181       1.805 -26.754  25.036  1.00 48.75 LIG 0.16  HD
BRANCH 8 10
ATOM     10  CA  ASP E 181       0.988 -28.523  24.663  1.00 45.01 LIG 0.19  C 
BRANCH 10 11
ATOM     11  C   ASP E 181       0.286 -27.937  23.441  1.00 47.33 LIG 0.24  C 
ATOM     12 O    ASP E 181       0.481 -26.768  23.084  1.00 41.27 LIG-0.27  OA
ATOM     13  N   MET E 182      -0.549 -28.766  22.821  1.00 63.00 LIG-0.35  N 
ATOM     14 H    MET E 182      -0.732 -29.555  23.108  1.00 63.00 LIG 0.16  HD
BRANCH 13 15
ATOM     15  CA  MET E 182      -1.239 -28.413  21.589  1.00 43.88 LIG 0.16  C 
BRANCH 15 16
ATOM     16  CB  MET E 182      -2.108 -29.581  21.123  1.00 44.38 LIG 0.04  C 
BRANCH 16 17
ATOM     17  CG  MET E 182      -3.512 -29.177  20.721  1.00 63.17 LIG 0.08  C 
BRANCH 17 18
ATOM     18 SD   MET E 182      -3.575 -28.441  19.077  1.00101.17 LIG-0.17  SA
ATOM     19  CE  MET E 182      -4.547 -26.972  19.406  1.00 68.91 LIG 0.09  C 
ENDBRANCH 17 18
ENDBRANCH 16 17
ENDBRANCH 15 16
BRANCH 15 20
ATOM     20  C   MET E 182      -2.095 -27.157  21.767  1.00 60.82 LIG 0.22  C 
ATOM     21 O    MET E 182      -1.605 -26.028  21.656  1.00 58.83 LIG-0.29  OA
ENDBRANCH 15 20
ENDBRANCH 13 15
ENDBRANCH 10 11
BRANCH 10 22
ATOM     22  CB  ASP E 181      -0.038 -29.139  25.612  1.00 40.72 LIG 0.15  C 
BRANCH 22 23
ATOM     23  CG  ASP E 181      -1.001 -28.109  26.164  1.00 40.82 LIG 0.17  C 
ATOM     24 OD1  ASP E 181      -1.363 -27.161  25.431  1.00 47.44 LIG-0.65  OA
ATOM     25 OD2  ASP E 181      -1.402 -28.260  27.335  1.00 24.37 LIG-0.65  OA
ENDBRANCH 22 23
ENDBRANCH 10 22
ENDBRANCH 8 10
ENDBRANCH 1 6
BRANCH 1 26
ATOM     26  N   ASP E 180       2.308 -26.094  28.119  1.00 48.48 LIG-0.34  N 
ATOM     27  C   ASP E 179       1.153 -25.529  27.759  1.00 52.76 LIG 0.24  C 
ATOM     28 O    ASP E 179       0.716 -25.502  26.608  1.00 54.54 LIG-0.27  OA
ATOM     29 H    ASP E 180       2.589 -26.076  28.931  1.00 48.48 LIG 0.16  HD
BRANCH 27 30
ATOM     30  CA  ASP E 179       0.373 -24.891  28.907  1.00 62.98 LIG 0.19  C 
BRANCH 30 31
ATOM     31  N   ASP E 179       0.692 -25.400  30.244  1.00 68.60 LIG-0.34  N 
ATOM     32  C   VAL E 178       0.565 -26.683  30.579  1.00 59.78 LIG 0.26  C 
ATOM     33 O    VAL E 178      -0.029 -27.507  29.881  1.00 49.42 LIG-0.27  OA
ATOM     34 H    ASP E 179       0.968 -24.795  30.789  1.00 68.60 LIG 0.16  HD
BRANCH 32 35
ATOM     35  CA  VAL E 178       1.180 -27.090  31.922  1.00 59.92 LIG 0.40  C 
ATOM     36  N   VAL E 178       0.607 -28.332  32.429  1.00 55.12 LIG 0.61  N 
BRANCH 35 37
ATOM     37  CB  VAL E 178       2.719 -27.202  31.760  1.00 50.97 LIG 0.03  C 
ATOM     38  CG2 VAL E 178       3.094 -28.401  30.900  1.00 47.22 LIG 0.01  C 
ATOM     39  CG1 VAL E 178       3.380 -27.295  33.118  1.00 50.59 LIG 0.01  C 
ENDBRANCH 35 37
ENDBRANCH 32 35
ENDBRANCH 30 31
BRANCH 30 40
ATOM     40  CB  ASP E 179       0.603 -23.381  28.867  1.00 47.75 LIG 0.15  C 
BRANCH 40 41
ATOM     41  CG  ASP E 179      -0.315 -22.684  27.894  1.00 48.80 LIG 0.17  C 
ATOM     42 OD2  ASP E 179      -0.142 -21.461  27.673  1.00 55.56 LIG-0.65  OA
ATOM     43 OD1  ASP E 179      -1.207 -23.364  27.350  1.00 40.87 LIG-0.65  OA
ENDBRANCH 40 41
ENDBRANCH 30 40
ENDBRANCH 27 30
ENDBRANCH 1 26
TORSDOF 19
ENDMDL
MODEL 49
USER: ADFR SOLUTION from run 5
USER: SCORE 12.563130 LL:  -2.265 LR: -11.718 RR:   0.000 FEB:  -6.050
USER: RMSD 5.640767
USER: SEED 142652
USER: STATUS no improvement in best in 6 clusters for 5 generations
USER: GENES 21
USER: genes 0 Translation |==|  0.64503 0.35073 0.46837
USER: genes 1 Rotation |==|  0.22576 0.74073 0.78978 0.68129
USER: genes 2 Torsion [C]-CA--CB-[CG] |==|  0.58355
USER: genes 3 Torsion [CA]-CB--CG-[OD1] |==|  0.35952
USER: genes 4 Torsion [N]-CA--C-[N] |==|  0.28998
USER: genes 5 Torsion [C]-N--CA-[CB] |==|  0.50556
USER: genes 6 Torsion [N]-CA--C-[N] |==|  0.36155
USER: genes 7 Torsion [C]-N--CA-[CB] |==|  0.83803
USER: genes 8 Torsion [N]-CA--CB-[CG] |==|  0.76958
USER: genes 9 Torsion [CA]-CB--CG-[SD] |==|  0.99328
USER: genes 10 Torsion [CB]-CG--SD-[CE] |==|  0.56485
USER: genes 11 Torsion [N]-CA--C-[O] |==|  0.11738
USER: genes 12 Torsion [N]-CA--CB-[CG] |==|  0.54888
USER: genes 13 Torsion [CA]-CB--CG-[OD1] |==|  0.72476
USER: genes 14 Torsion [CB]-CA--N-[C] |==|  0.52849
USER: genes 15 Torsion [N]-C--CA-[N] |==|  0.43243
USER: genes 16 Torsion [C]-CA--N-[C] |==|  0.63358
USER: genes 17 Torsion [N]-C--CA-[N] |==|  0.57165
USER: genes 18 Torsion [C]-CA--CB-[CG2] |==|  0.80504
USER: genes 19 Torsion [C]-CA--CB-[CG] |==|  0.68934
USER: genes 20 Torsion [CA]-CB--CG-[OD2] |==|  0.30824
ROOT
ATOM      1  CA  ASP E 180       5.696 -29.999  25.891  1.00 46.29 LIG 0.19  C 
ENDROOT
BRANCH 1 2
ATOM      2  CB  ASP E 180       6.772 -30.080  26.969  1.00 53.57 LIG 0.15  C 
BRANCH 2 3
ATOM      3  CG  ASP E 180       8.042 -30.731  26.474  1.00 52.91 LIG 0.17  C 
ATOM      4 OD1  ASP E 180       9.128 -30.141  26.671  1.00 53.16 LIG-0.65  OA
ATOM      5 OD2  ASP E 180       7.957 -31.833  25.894  1.00 39.91 LIG-0.65  OA
ENDBRANCH 2 3
ENDBRANCH 1 2
BRANCH 1 6
ATOM      6  C   ASP E 180       4.810 -28.769  26.130  1.00 46.16 LIG 0.24  C 
ATOM      7 O    ASP E 180       5.314 -27.669  26.362  1.00 47.92 LIG-0.27  OA
ATOM      8  N   ASP E 181       3.493 -28.944  26.074  1.00 48.75 LIG-0.34  N 
ATOM      9 H    ASP E 181       3.105 -29.704  25.964  1.00 48.75 LIG 0.16  HD
BRANCH 8 10
ATOM     10  CA  ASP E 181       2.594 -27.802  26.206  1.00 45.01 LIG 0.19  C 
BRANCH 10 11
ATOM     11  C   ASP E 181       2.840 -26.994  27.476  1.00 47.33 LIG 0.24  C 
ATOM     12 O    ASP E 181       2.901 -27.538  28.586  1.00 41.27 LIG-0.27  OA
ATOM     13  N   MET E 182       2.962 -25.682  27.293  1.00 63.00 LIG-0.35  N 
ATOM     14 H    MET E 182       2.856 -25.299  26.531  1.00 63.00 LIG 0.16  HD
BRANCH 13 15
ATOM     15  CA  MET E 182       3.288 -24.763  28.374  1.00 43.88 LIG 0.16  C 
BRANCH 15 16
ATOM     16  CB  MET E 182       2.242 -24.868  29.483  1.00 44.38 LIG 0.04  C 
BRANCH 16 17
ATOM     17  CG  MET E 182       0.995 -24.046  29.227  1.00 63.17 LIG 0.08  C 
BRANCH 17 18
ATOM     18 SD   MET E 182       1.096 -23.094  27.701  1.00101.17 LIG-0.17  SA
ATOM     19  CE  MET E 182      -0.084 -21.789  28.042  1.00 68.91 LIG 0.09  C 
ENDBRANCH 17 18
ENDBRANCH 16 17
ENDBRANCH 15 16
BRANCH 15 20
ATOM     20  C   MET E 182       4.684 -25.035  28.937  1.00 60.82 LIG 0.22  C 
ATOM     21 O    MET E 182       5.639 -25.280  28.192  1.00 58.83 LIG-0.29  OA
ENDBRANCH 15 20
ENDBRANCH 13 15
ENDBRANCH 10 11
BRANCH 10 22
ATOM     22  CB  ASP E 181       1.142 -28.274  26.158  1.00 40.72 LIG 0.15  C 
BRANCH 22 23
ATOM     23  CG  ASP E 181       0.180 -27.142  25.862  1.00 40.82 LIG 0.17  C 
ATOM     24 OD1  ASP E 181      -0.436 -26.605  26.811  1.00 47.44 LIG-0.65  OA
ATOM     25 OD2  ASP E 181       0.052 -26.785  24.674  1.00 24.37 LIG-0.65  OA
ENDBRANCH 22 23
ENDBRANCH 10 22
ENDBRANCH 8 10
ENDBRANCH 1 6
BRANCH 1 26
ATOM     26  N   ASP E 180       6.279 -29.929  24.547  1.00 48.48 LIG-0.34  N 
ATOM     27  C   ASP E 179       5.610 -29.658  23.424  1.00 52.76 LIG 0.24  C 
ATOM     28 O    ASP E 179       4.397 -29.453  23.364  1.00 54.54 LIG-0.27  OA
ATOM     29 H    ASP E 180       7.124 -30.083  24.546  1.00 48.48 LIG 0.16  HD
BRANCH 27 30
ATOM     30  CA  ASP E 179       6.472 -29.614  22.164  1.00 62.98 LIG 0.19  C 
BRANCH 30 31
ATOM     31  N   ASP E 179       5.764 -29.875  20.908  1.00 68.60 LIG-0.34  N 
ATOM     32  C   VAL E 178       6.212 -30.731  19.989  1.00 59.78 LIG 0.26  C 
ATOM     33 O    VAL E 178       7.349 -31.207  20.008  1.00 49.42 LIG-0.27  OA
ATOM     34 H    ASP E 179       5.036 -29.427  20.819  1.00 68.60 LIG 0.16  HD
BRANCH 32 35
ATOM     35  CA  VAL E 178       5.234 -31.079  18.863  1.00 59.92 LIG 0.40  C 
ATOM     36  N   VAL E 178       5.515 -32.389  18.284  1.00 55.12 LIG 0.61  N 
BRANCH 35 37
ATOM     37  CB  VAL E 178       3.785 -31.003  19.412  1.00 50.97 LIG 0.03  C 
ATOM     38  CG2 VAL E 178       3.505 -32.141  20.383  1.00 47.22 LIG 0.01  C 
ATOM     39  CG1 VAL E 178       2.794 -31.026  18.268  1.00 50.59 LIG 0.01  C 
ENDBRANCH 35 37
ENDBRANCH 32 35
ENDBRANCH 30 31
BRANCH 30 40
ATOM     40  CB  ASP E 179       7.152 -28.247  22.092  1.00 47.75 LIG 0.15  C 
BRANCH 40 41
ATOM     41  CG  ASP E 179       6.636 -27.407  20.950  1.00 48.80 LIG 0.17  C 
ATOM     42 OD2  ASP E 179       5.951 -26.389  21.213  1.00 55.56 LIG-0.65  OA
ATOM     43 OD1  ASP E 179       6.919 -27.768  19.791  1.00 40.87 LIG-0.65  OA
ENDBRANCH 40 41
ENDBRANCH 30 40
ENDBRANCH 27 30
ENDBRANCH 1 26
TORSDOF 19
ENDMDL
MODEL 50
USER: ADFR SOLUTION from run 38
USER: SCORE 11.531208 LL:  -1.872 LR: -11.721 RR:   0.000 FEB:  -6.053
USER: RMSD 9.620586
USER: SEED 37
USER: STATUS no improvement in best in 10 clusters for 5 generations
USER: GENES 21
USER: genes 0 Translation |==|  0.53008 0.61954 0.55645
USER: genes 1 Rotation |==|  0.64090 0.87520 0.20396 0.54164
USER: genes 2 Torsion [C]-CA--CB-[CG] |==|  0.19708
USER: genes 3 Torsion [CA]-CB--CG-[OD1] |==|  0.05072
USER: genes 4 Torsion [N]-CA--C-[N] |==|  0.07655
USER: genes 5 Torsion [C]-N--CA-[CB] |==|  0.50556
USER: genes 6 Torsion [N]-CA--C-[N] |==|  0.31339
USER: genes 7 Torsion [C]-N--CA-[CB] |==|  0.82460
USER: genes 8 Torsion [N]-CA--CB-[CG] |==|  0.38763
USER: genes 9 Torsion [CA]-CB--CG-[SD] |==|  0.71972
USER: genes 10 Torsion [CB]-CG--SD-[CE] |==|  0.59818
USER: genes 11 Torsion [N]-CA--C-[O] |==|  0.20176
USER: genes 12 Torsion [N]-CA--CB-[CG] |==|  0.01913
USER: genes 13 Torsion [CA]-CB--CG-[OD1] |==|  0.32027
USER: genes 14 Torsion [CB]-CA--N-[C] |==|  0.82648
USER: genes 15 Torsion [N]-C--CA-[N] |==|  0.47591
USER: genes 16 Torsion [C]-CA--N-[C] |==|  0.74944
USER: genes 17 Torsion [N]-C--CA-[N] |==|  0.79596
USER: genes 18 Torsion [C]-CA--CB-[CG2] |==|  0.52928
USER: genes 19 Torsion [C]-CA--CB-[CG] |==|  0.32180
USER: genes 20 Torsion [CA]-CB--CG-[OD2] |==|  0.06886
ROOT
ATOM      1  CA  ASP E 180       3.196 -25.564  27.674  1.00 46.29 LIG 0.19  C 
ENDROOT
BRANCH 1 2
ATOM      2  CB  ASP E 180       3.853 -25.641  29.048  1.00 53.57 LIG 0.15  C 
BRANCH 2 3
ATOM      3  CG  ASP E 180       5.362 -25.645  28.971  1.00 52.91 LIG 0.17  C 
ATOM      4 OD1  ASP E 180       5.904 -25.246  27.916  1.00 53.16 LIG-0.65  OA
ATOM      5 OD2  ASP E 180       6.006 -26.040  29.964  1.00 39.91 LIG-0.65  OA
ENDBRANCH 2 3
ENDBRANCH 1 2
BRANCH 1 6
ATOM      6  C   ASP E 180       3.389 -26.891  26.928  1.00 46.16 LIG 0.24  C 
ATOM      7 O    ASP E 180       4.379 -27.593  27.145  1.00 47.92 LIG-0.27  OA
ATOM      8  N   ASP E 181       2.454 -27.241  26.051  1.00 48.75 LIG-0.34  N 
ATOM      9 H    ASP E 181       1.777 -26.755  25.838  1.00 48.75 LIG 0.16  HD
BRANCH 8 10
ATOM     10  CA  ASP E 181       2.531 -28.530  25.371  1.00 45.01 LIG 0.19  C 
BRANCH 10 11
ATOM     11  C   ASP E 181       3.859 -28.745  24.651  1.00 47.33 LIG 0.24  C 
ATOM     12 O    ASP E 181       4.170 -28.077  23.657  1.00 41.27 LIG-0.27  OA
ATOM     13  N   MET E 182       4.626 -29.705  25.162  1.00 63.00 LIG-0.35  N 
ATOM     14 H    MET E 182       4.380 -30.210  25.812  1.00 63.00 LIG 0.16  HD
BRANCH 13 15
ATOM     15  CA  MET E 182       5.963 -29.992  24.665  1.00 43.88 LIG 0.16  C 
BRANCH 15 16
ATOM     16  CB  MET E 182       5.892 -30.459  23.211  1.00 44.38 LIG 0.04  C 
BRANCH 16 17
ATOM     17  CG  MET E 182       6.992 -29.898  22.334  1.00 63.17 LIG 0.08  C 
BRANCH 17 18
ATOM     18 SD   MET E 182       6.433 -28.516  21.322  1.00101.17 LIG-0.17  SA
ATOM     19  CE  MET E 182       7.384 -28.790  19.828  1.00 68.91 LIG 0.09  C 
ENDBRANCH 17 18
ENDBRANCH 16 17
ENDBRANCH 15 16
BRANCH 15 20
ATOM     20  C   MET E 182       6.878 -28.772  24.783  1.00 60.82 LIG 0.22  C 
ATOM     21 O    MET E 182       7.303 -28.394  25.880  1.00 58.83 LIG-0.29  OA
ENDBRANCH 15 20
ENDBRANCH 13 15
ENDBRANCH 10 11
BRANCH 10 22
ATOM     22  CB  ASP E 181       1.372 -28.669  24.385  1.00 40.72 LIG 0.15  C 
BRANCH 22 23
ATOM     23  CG  ASP E 181       0.570 -27.391  24.257  1.00 40.82 LIG 0.17  C 
ATOM     24 OD1  ASP E 181       0.557 -26.789  23.160  1.00 47.44 LIG-0.65  OA
ATOM     25 OD2  ASP E 181      -0.058 -26.998  25.261  1.00 24.37 LIG-0.65  OA
ENDBRANCH 22 23
ENDBRANCH 10 22
ENDBRANCH 8 10
ENDBRANCH 1 6
BRANCH 1 26
ATOM     26  N   ASP E 180       1.765 -25.261  27.773  1.00 48.48 LIG-0.34  N 
ATOM     27  C   ASP E 179       0.848 -26.030  28.366  1.00 52.76 LIG 0.24  C 
ATOM     28 O    ASP E 179       1.082 -27.118  28.893  1.00 54.54 LIG-0.27  OA
ATOM     29 H    ASP E 180       1.560 -24.515  27.399  1.00 48.48 LIG 0.16  HD
BRANCH 27 30
ATOM     30  CA  ASP E 179      -0.568 -25.456  28.352  1.00 62.98 LIG 0.19  C 
BRANCH 30 31
ATOM     31  N   ASP E 179      -1.619 -26.365  28.818  1.00 68.60 LIG-0.34  N 
ATOM     32  C   VAL E 178      -2.282 -27.183  28.001  1.00 59.78 LIG 0.26  C 
ATOM     33 O    VAL E 178      -2.230 -27.098  26.773  1.00 49.42 LIG-0.27  OA
ATOM     34 H    ASP E 179      -1.767 -26.321  29.664  1.00 68.60 LIG 0.16  HD
BRANCH 32 35
ATOM     35  CA  VAL E 178      -3.158 -28.242  28.679  1.00 59.92 LIG 0.40  C 
ATOM     36  N   VAL E 178      -2.360 -29.308  29.276  1.00 55.12 LIG 0.61  N 
BRANCH 35 37
ATOM     37  CB  VAL E 178      -4.059 -27.551  29.735  1.00 50.97 LIG 0.03  C 
ATOM     38  CG2 VAL E 178      -4.760 -28.576  30.615  1.00 47.22 LIG 0.01  C 
ATOM     39  CG1 VAL E 178      -5.072 -26.658  29.052  1.00 50.59 LIG 0.01  C 
ENDBRANCH 35 37
ENDBRANCH 32 35
ENDBRANCH 30 31
BRANCH 30 40
ATOM     40  CB  ASP E 179      -0.581 -24.184  29.200  1.00 47.75 LIG 0.15  C 
BRANCH 40 41
ATOM     41  CG  ASP E 179      -0.893 -22.953  28.385  1.00 48.80 LIG 0.17  C 
ATOM     42 OD2  ASP E 179      -1.544 -23.085  27.321  1.00 55.56 LIG-0.65  OA
ATOM     43 OD1  ASP E 179      -0.487 -21.855  28.815  1.00 40.87 LIG-0.65  OA
ENDBRANCH 40 41
ENDBRANCH 30 40
ENDBRANCH 27 30
ENDBRANCH 1 26
TORSDOF 19
ENDMDL
MODEL 51
USER: ADFR SOLUTION from run 101
USER: SCORE 12.782255 LL:  -1.945 LR: -11.713 RR:   0.000 FEB:  -6.045
USER: RMSD 8.650855
USER: SEED 100
USER: STATUS no improvement in best in 11 clusters for 5 generations
USER: GENES 21
USER: genes 0 Translation |==|  0.49583 0.44820 0.43315
USER: genes 1 Rotation |==|  0.12457 0.48490 0.19122 0.61612
USER: genes 2 Torsion [C]-CA--CB-[CG] |==|  0.56978
USER: genes 3 Torsion [CA]-CB--CG-[OD1] |==|  0.17891
USER: genes 4 Torsion [N]-CA--C-[N] |==|  0.15865
USER: genes 5 Torsion [C]-N--CA-[CB] |==|  0.52778
USER: genes 6 Torsion [N]-CA--C-[N] |==|  0.44471
USER: genes 7 Torsion [C]-N--CA-[CB] |==|  0.81404
USER: genes 8 Torsion [N]-CA--CB-[CG] |==|  0.67643
USER: genes 9 Torsion [CA]-CB--CG-[SD] |==|  0.35212
USER: genes 10 Torsion [CB]-CG--SD-[CE] |==|  0.32003
USER: genes 11 Torsion [N]-CA--C-[O] |==|  0.15952
USER: genes 12 Torsion [N]-CA--CB-[CG] |==|  0.81673
USER: genes 13 Torsion [CA]-CB--CG-[OD1] |==|  0.56033
USER: genes 14 Torsion [CB]-CA--N-[C] |==|  0.74718
USER: genes 15 Torsion [N]-C--CA-[N] |==|  0.20708
USER: genes 16 Torsion [C]-CA--N-[C] |==|  0.77752
USER: genes 17 Torsion [N]-C--CA-[N] |==|  0.55132
USER: genes 18 Torsion [C]-CA--CB-[CG2] |==|  0.68709
USER: genes 19 Torsion [C]-CA--CB-[CG] |==|  0.79390
USER: genes 20 Torsion [CA]-CB--CG-[OD2] |==|  0.31811
ROOT
ATOM      1  CA  ASP E 180       2.451 -28.391  25.177  1.00 46.29 LIG 0.19  C 
ENDROOT
BRANCH 1 2
ATOM      2  CB  ASP E 180       1.479 -27.543  24.365  1.00 53.57 LIG 0.15  C 
BRANCH 2 3
ATOM      3  CG  ASP E 180       0.270 -27.119  25.165  1.00 52.91 LIG 0.17  C 
ATOM      4 OD1  ASP E 180       0.442 -26.361  26.146  1.00 53.16 LIG-0.65  OA
ATOM      5 OD2  ASP E 180      -0.852 -27.536  24.812  1.00 39.91 LIG-0.65  OA
ENDBRANCH 2 3
ENDBRANCH 1 2
BRANCH 1 6
ATOM      6  C   ASP E 180       3.865 -28.268  24.592  1.00 46.16 LIG 0.24  C 
ATOM      7 O    ASP E 180       4.075 -27.557  23.607  1.00 47.92 LIG-0.27  OA
ATOM      8  N   ASP E 181       4.835 -28.954  25.188  1.00 48.75 LIG-0.34  N 
ATOM      9 H    ASP E 181       4.718 -29.497  25.844  1.00 48.75 LIG 0.16  HD
BRANCH 8 10
ATOM     10  CA  ASP E 181       6.216 -28.816  24.736  1.00 45.01 LIG 0.19  C 
BRANCH 10 11
ATOM     11  C   ASP E 181       6.358 -28.897  23.219  1.00 47.33 LIG 0.24  C 
ATOM     12 O    ASP E 181       5.488 -29.428  22.517  1.00 41.27 LIG-0.27  OA
ATOM     13  N   MET E 182       7.481 -28.378  22.731  1.00 63.00 LIG-0.35  N 
ATOM     14 H    MET E 182       8.112 -28.068  23.225  1.00 63.00 LIG 0.16  HD
BRANCH 13 15
ATOM     15  CA  MET E 182       7.750 -28.285  21.304  1.00 43.88 LIG 0.16  C 
BRANCH 15 16
ATOM     16  CB  MET E 182       7.913 -29.684  20.710  1.00 44.38 LIG 0.04  C 
BRANCH 16 17
ATOM     17  CG  MET E 182       9.294 -29.952  20.147  1.00 63.17 LIG 0.08  C 
BRANCH 17 18
ATOM     18 SD   MET E 182      10.035 -31.451  20.819  1.00101.17 LIG-0.17  SA
ATOM     19  CE  MET E 182      10.138 -32.463  19.343  1.00 68.91 LIG 0.09  C 
ENDBRANCH 17 18
ENDBRANCH 16 17
ENDBRANCH 15 16
BRANCH 15 20
ATOM     20  C   MET E 182       6.639 -27.528  20.573  1.00 60.82 LIG 0.22  C 
ATOM     21 O    MET E 182       6.334 -26.374  20.892  1.00 58.83 LIG-0.29  OA
ENDBRANCH 15 20
ENDBRANCH 13 15
ENDBRANCH 10 11
BRANCH 10 22
ATOM     22  CB  ASP E 181       7.091 -29.877  25.402  1.00 40.72 LIG 0.15  C 
BRANCH 22 23
ATOM     23  CG  ASP E 181       7.200 -29.674  26.899  1.00 40.82 LIG 0.17  C 
ATOM     24 OD1  ASP E 181       8.169 -30.178  27.511  1.00 47.44 LIG-0.65  OA
ATOM     25 OD2  ASP E 181       6.314 -28.998  27.458  1.00 24.37 LIG-0.65  OA
ENDBRANCH 22 23
ENDBRANCH 10 22
ENDBRANCH 8 10
ENDBRANCH 1 6
BRANCH 1 26
ATOM     26  N   ASP E 180       2.470 -27.993  26.589  1.00 48.48 LIG-0.34  N 
ATOM     27  C   ASP E 179       3.288 -27.087  27.129  1.00 52.76 LIG 0.24  C 
ATOM     28 O    ASP E 179       4.160 -26.476  26.512  1.00 54.54 LIG-0.27  OA
ATOM     29 H    ASP E 180       1.884 -28.413  27.056  1.00 48.48 LIG 0.16  HD
BRANCH 27 30
ATOM     30  CA  ASP E 179       3.068 -26.841  28.621  1.00 62.98 LIG 0.19  C 
BRANCH 30 31
ATOM     31  N   ASP E 179       3.555 -27.898  29.511  1.00 68.60 LIG-0.34  N 
ATOM     32  C   VAL E 178       2.878 -29.024  29.736  1.00 59.78 LIG 0.26  C 
ATOM     33 O    VAL E 178       1.703 -29.184  29.400  1.00 49.42 LIG-0.27  OA
ATOM     34 H    ASP E 179       4.316 -27.725  29.872  1.00 68.60 LIG 0.16  HD
BRANCH 32 35
ATOM     35  CA  VAL E 178       3.639 -30.127  30.480  1.00 59.92 LIG 0.40  C 
ATOM     36  N   VAL E 178       3.010 -31.433  30.308  1.00 55.12 LIG 0.61  N 
BRANCH 35 37
ATOM     37  CB  VAL E 178       5.111 -30.140  29.994  1.00 50.97 LIG 0.03  C 
ATOM     38  CG2 VAL E 178       5.424 -31.413  29.221  1.00 47.22 LIG 0.01  C 
ATOM     39  CG1 VAL E 178       6.050 -29.993  31.173  1.00 50.59 LIG 0.01  C 
ENDBRANCH 35 37
ENDBRANCH 32 35
ENDBRANCH 30 31
BRANCH 30 40
ATOM     40  CB  ASP E 179       3.728 -25.515  28.994  1.00 47.75 LIG 0.15  C 
BRANCH 40 41
ATOM     41  CG  ASP E 179       5.232 -25.616  29.050  1.00 48.80 LIG 0.17  C 
ATOM     42 OD2  ASP E 179       5.911 -24.969  28.217  1.00 55.56 LIG-0.65  OA
ATOM     43 OD1  ASP E 179       5.731 -26.344  29.931  1.00 40.87 LIG-0.65  OA
ENDBRANCH 40 41
ENDBRANCH 30 40
ENDBRANCH 27 30
ENDBRANCH 1 26
TORSDOF 19
ENDMDL
MODEL 52
USER: ADFR SOLUTION from run 131
USER: SCORE 12.406125 LL:  -1.799 LR: -11.694 RR:   0.000 FEB:  -6.027
USER: RMSD 8.839170
USER: SEED 130
USER: STATUS no improvement in best in 23 clusters for 5 generations
USER: GENES 21
USER: genes 0 Translation |==|  0.50779 0.55654 0.53876
USER: genes 1 Rotation |==|  0.34318 0.14040 0.76783 0.65608
USER: genes 2 Torsion [C]-CA--CB-[CG] |==|  0.42686
USER: genes 3 Torsion [CA]-CB--CG-[OD1] |==|  0.40797
USER: genes 4 Torsion [N]-CA--C-[N] |==|  0.37390
USER: genes 5 Torsion [C]-N--CA-[CB] |==|  0.83831
USER: genes 6 Torsion [N]-CA--C-[N] |==|  0.40782
USER: genes 7 Torsion [C]-N--CA-[CB] |==|  0.53004
USER: genes 8 Torsion [N]-CA--CB-[CG] |==|  0.57988
USER: genes 9 Torsion [CA]-CB--CG-[SD] |==|  0.52266
USER: genes 10 Torsion [CB]-CG--SD-[CE] |==|  0.40541
USER: genes 11 Torsion [N]-CA--C-[O] |==|  0.32849
USER: genes 12 Torsion [N]-CA--CB-[CG] |==|  0.55575
USER: genes 13 Torsion [CA]-CB--CG-[OD1] |==|  0.53418
USER: genes 14 Torsion [CB]-CA--N-[C] |==|  0.23364
USER: genes 15 Torsion [N]-C--CA-[N] |==|  0.39489
USER: genes 16 Torsion [C]-CA--N-[C] |==|  0.81807
USER: genes 17 Torsion [N]-C--CA-[N] |==|  0.43271
USER: genes 18 Torsion [C]-CA--CB-[CG2] |==|  0.91542
USER: genes 19 Torsion [C]-CA--CB-[CG] |==|  0.23639
USER: genes 20 Torsion [CA]-CB--CG-[OD2] |==|  0.47271
ROOT
ATOM      1  CA  ASP E 180       2.711 -26.603  27.316  1.00 46.29 LIG 0.19  C 
ENDROOT
BRANCH 1 2
ATOM      2  CB  ASP E 180       3.703 -27.472  28.083  1.00 53.57 LIG 0.15  C 
BRANCH 2 3
ATOM      3  CG  ASP E 180       4.967 -26.729  28.445  1.00 52.91 LIG 0.17  C 
ATOM      4 OD1  ASP E 180       5.542 -27.021  29.517  1.00 53.16 LIG-0.65  OA
ATOM      5 OD2  ASP E 180       5.390 -25.859  27.656  1.00 39.91 LIG-0.65  OA
ENDBRANCH 2 3
ENDBRANCH 1 2
BRANCH 1 6
ATOM      6  C   ASP E 180       1.816 -27.486  26.436  1.00 46.16 LIG 0.24  C 
ATOM      7 O    ASP E 180       0.879 -28.117  26.930  1.00 47.92 LIG-0.27  OA
ATOM      8  N   ASP E 181       2.093 -27.536  25.137  1.00 48.75 LIG-0.34  N 
ATOM      9 H    ASP E 181       2.765 -27.150  24.766  1.00 48.75 LIG 0.16  HD
BRANCH 8 10
ATOM     10  CA  ASP E 181       1.230 -28.286  24.230  1.00 45.01 LIG 0.19  C 
BRANCH 10 11
ATOM     11  C   ASP E 181      -0.174 -27.699  24.123  1.00 47.33 LIG 0.24  C 
ATOM     12 O    ASP E 181      -0.725 -27.161  25.092  1.00 41.27 LIG-0.27  OA
ATOM     13  N   MET E 182      -0.749 -27.831  22.931  1.00 63.00 LIG-0.35  N 
ATOM     14 H    MET E 182      -0.391 -28.260  22.278  1.00 63.00 LIG 0.16  HD
BRANCH 13 15
ATOM     15  CA  MET E 182      -2.048 -27.255  22.615  1.00 43.88 LIG 0.16  C 
BRANCH 15 16
ATOM     16  CB  MET E 182      -2.550 -27.799  21.278  1.00 44.38 LIG 0.04  C 
BRANCH 16 17
ATOM     17  CG  MET E 182      -3.459 -26.844  20.531  1.00 63.17 LIG 0.08  C 
BRANCH 17 18
ATOM     18 SD   MET E 182      -4.216 -27.601  19.082  1.00101.17 LIG-0.17  SA
ATOM     19  CE  MET E 182      -5.812 -26.786  19.075  1.00 68.91 LIG 0.09  C 
ENDBRANCH 17 18
ENDBRANCH 16 17
ENDBRANCH 15 16
BRANCH 15 20
ATOM     20  C   MET E 182      -3.069 -27.540  23.718  1.00 60.82 LIG 0.22  C 
ATOM     21 O    MET E 182      -3.601 -26.622  24.351  1.00 58.83 LIG-0.29  OA
ENDBRANCH 15 20
ENDBRANCH 13 15
ENDBRANCH 10 11
BRANCH 10 22
ATOM     22  CB  ASP E 181       1.155 -29.747  24.671  1.00 40.72 LIG 0.15  C 
BRANCH 22 23
ATOM     23  CG  ASP E 181       0.702 -30.662  23.553  1.00 40.82 LIG 0.17  C 
ATOM     24 OD1  ASP E 181       0.372 -31.838  23.826  1.00 47.44 LIG-0.65  OA
ATOM     25 OD2  ASP E 181       0.667 -30.192  22.398  1.00 24.37 LIG-0.65  OA
ENDBRANCH 22 23
ENDBRANCH 10 22
ENDBRANCH 8 10
ENDBRANCH 1 6
BRANCH 1 26
ATOM     26  N   ASP E 180       1.876 -25.805  28.219  1.00 48.48 LIG-0.34  N 
ATOM     27  C   ASP E 179       2.213 -24.628  28.751  1.00 52.76 LIG 0.24  C 
ATOM     28 O    ASP E 179       3.292 -24.062  28.571  1.00 54.54 LIG-0.27  OA
ATOM     29 H    ASP E 180       1.119 -26.177  28.382  1.00 48.48 LIG 0.16  HD
BRANCH 27 30
ATOM     30  CA  ASP E 179       1.137 -23.996  29.632  1.00 62.98 LIG 0.19  C 
BRANCH 30 31
ATOM     31  N   ASP E 179       1.629 -23.301  30.825  1.00 68.60 LIG-0.34  N 
ATOM     32  C   VAL E 178       2.238 -23.931  31.830  1.00 59.78 LIG 0.26  C 
ATOM     33 O    VAL E 178       2.247 -25.157  31.951  1.00 49.42 LIG-0.27  OA
ATOM     34 H    ASP E 179       1.490 -22.453  30.815  1.00 68.60 LIG 0.16  HD
BRANCH 32 35
ATOM     35  CA  VAL E 178       2.915 -23.034  32.871  1.00 59.92 LIG 0.40  C 
ATOM     36  N   VAL E 178       3.045 -23.702  34.163  1.00 55.12 LIG 0.61  N 
BRANCH 35 37
ATOM     37  CB  VAL E 178       4.295 -22.582  32.328  1.00 50.97 LIG 0.03  C 
ATOM     38  CG2 VAL E 178       4.894 -23.634  31.406  1.00 47.22 LIG 0.01  C 
ATOM     39  CG1 VAL E 178       5.236 -22.286  33.476  1.00 50.59 LIG 0.01  C 
ENDBRANCH 35 37
ENDBRANCH 32 35
ENDBRANCH 30 31
BRANCH 30 40
ATOM     40  CB  ASP E 179       0.321 -23.028  28.778  1.00 47.75 LIG 0.15  C 
BRANCH 40 41
ATOM     41  CG  ASP E 179      -0.793 -23.718  28.031  1.00 48.80 LIG 0.17  C 
ATOM     42 OD2  ASP E 179      -1.650 -23.014  27.443  1.00 55.56 LIG-0.65  OA
ATOM     43 OD1  ASP E 179      -0.807 -24.965  28.032  1.00 40.87 LIG-0.65  OA
ENDBRANCH 40 41
ENDBRANCH 30 40
ENDBRANCH 27 30
ENDBRANCH 1 26
TORSDOF 19
ENDMDL
MODEL 53
USER: ADFR SOLUTION from run 160
USER: SCORE 12.623253 LL:  -2.076 LR: -11.667 RR:   0.000 FEB:  -6.000
USER: RMSD 9.113284
USER: SEED 159
USER: STATUS no improvement in best in 14 clusters for 5 generations
USER: GENES 21
USER: genes 0 Translation |==|  0.56177 0.55891 0.53902
USER: genes 1 Rotation |==|  0.65163 0.84881 0.20712 0.63987
USER: genes 2 Torsion [C]-CA--CB-[CG] |==|  0.23355
USER: genes 3 Torsion [CA]-CB--CG-[OD1] |==|  0.10156
USER: genes 4 Torsion [N]-CA--C-[N] |==|  0.34701
USER: genes 5 Torsion [C]-N--CA-[CB] |==|  0.15763
USER: genes 6 Torsion [N]-CA--C-[N] |==|  0.57758
USER: genes 7 Torsion [C]-N--CA-[CB] |==|  0.82737
USER: genes 8 Torsion [N]-CA--CB-[CG] |==|  0.88643
USER: genes 9 Torsion [CA]-CB--CG-[SD] |==|  0.75208
USER: genes 10 Torsion [CB]-CG--SD-[CE] |==|  0.98653
USER: genes 11 Torsion [N]-CA--C-[O] |==|  0.02507
USER: genes 12 Torsion [N]-CA--CB-[CG] |==|  0.19051
USER: genes 13 Torsion [CA]-CB--CG-[OD1] |==|  0.35006
USER: genes 14 Torsion [CB]-CA--N-[C] |==|  0.85454
USER: genes 15 Torsion [N]-C--CA-[N] |==|  0.25189
USER: genes 16 Torsion [C]-CA--N-[C] |==|  0.74444
USER: genes 17 Torsion [N]-C--CA-[N] |==|  0.06717
USER: genes 18 Torsion [C]-CA--CB-[CG2] |==|  0.83399
USER: genes 19 Torsion [C]-CA--CB-[CG] |==|  0.38830
USER: genes 20 Torsion [CA]-CB--CG-[OD2] |==|  0.82060
ROOT
ATOM      1  CA  ASP E 180       3.885 -26.564  27.321  1.00 46.29 LIG 0.19  C 
ENDROOT
BRANCH 1 2
ATOM      2  CB  ASP E 180       4.041 -26.335  28.821  1.00 53.57 LIG 0.15  C 
BRANCH 2 3
ATOM      3  CG  ASP E 180       5.386 -25.750  29.182  1.00 52.91 LIG 0.17  C 
ATOM      4 OD1  ASP E 180       5.900 -24.917  28.404  1.00 53.16 LIG-0.65  OA
ATOM      5 OD2  ASP E 180       5.926 -26.117  30.246  1.00 39.91 LIG-0.65  OA
ENDBRANCH 2 3
ENDBRANCH 1 2
BRANCH 1 6
ATOM      6  C   ASP E 180       4.506 -27.913  26.932  1.00 46.16 LIG 0.24  C 
ATOM      7 O    ASP E 180       3.995 -28.969  27.309  1.00 47.92 LIG-0.27  OA
ATOM      8  N   ASP E 181       5.602 -27.887  26.181  1.00 48.75 LIG-0.34  N 
ATOM      9 H    ASP E 181       6.013 -27.171  25.940  1.00 48.75 LIG 0.16  HD
BRANCH 8 10
ATOM     10  CA  ASP E 181       6.194 -29.133  25.702  1.00 45.01 LIG 0.19  C 
BRANCH 10 11
ATOM     11  C   ASP E 181       7.446 -28.912  24.859  1.00 47.33 LIG 0.24  C 
ATOM     12 O    ASP E 181       8.159 -27.912  25.011  1.00 41.27 LIG-0.27  OA
ATOM     13  N   MET E 182       7.687 -29.856  23.953  1.00 63.00 LIG-0.35  N 
ATOM     14 H    MET E 182       7.157 -30.516  23.805  1.00 63.00 LIG 0.16  HD
BRANCH 13 15
ATOM     15  CA  MET E 182       8.881 -29.861  23.120  1.00 43.88 LIG 0.16  C 
BRANCH 15 16
ATOM     16  CB  MET E 182       8.909 -28.612  22.240  1.00 44.38 LIG 0.04  C 
BRANCH 16 17
ATOM     17  CG  MET E 182       7.559 -28.242  21.658  1.00 63.17 LIG 0.08  C 
BRANCH 17 18
ATOM     18 SD   MET E 182       7.249 -29.037  20.072  1.00101.17 LIG-0.17  SA
ATOM     19  CE  MET E 182       8.820 -29.853  19.794  1.00 68.91 LIG 0.09  C 
ENDBRANCH 17 18
ENDBRANCH 16 17
ENDBRANCH 15 16
BRANCH 15 20
ATOM     20  C   MET E 182      10.153 -29.940  23.966  1.00 60.82 LIG 0.22  C 
ATOM     21 O    MET E 182      10.102 -30.155  25.181  1.00 58.83 LIG-0.29  OA
ENDBRANCH 15 20
ENDBRANCH 13 15
ENDBRANCH 10 11
BRANCH 10 22
ATOM     22  CB  ASP E 181       5.160 -29.930  24.908  1.00 40.72 LIG 0.15  C 
BRANCH 22 23
ATOM     23  CG  ASP E 181       4.805 -29.261  23.596  1.00 40.82 LIG 0.17  C 
ATOM     24 OD1  ASP E 181       4.905 -29.916  22.534  1.00 47.44 LIG-0.65  OA
ATOM     25 OD2  ASP E 181       4.413 -28.078  23.636  1.00 24.37 LIG-0.65  OA
ENDBRANCH 22 23
ENDBRANCH 10 22
ENDBRANCH 8 10
ENDBRANCH 1 6
BRANCH 1 26
ATOM     26  N   ASP E 180       2.478 -26.536  26.910  1.00 48.48 LIG-0.34  N 
ATOM     27  C   ASP E 179       1.496 -27.257  27.456  1.00 52.76 LIG 0.24  C 
ATOM     28 O    ASP E 179       1.648 -28.068  28.370  1.00 54.54 LIG-0.27  OA
ATOM     29 H    ASP E 180       2.336 -25.992  26.260  1.00 48.48 LIG 0.16  HD
BRANCH 27 30
ATOM     30  CA  ASP E 179       0.114 -27.006  26.855  1.00 62.98 LIG 0.19  C 
BRANCH 30 31
ATOM     31  N   ASP E 179      -0.250 -27.873  25.731  1.00 68.60 LIG-0.34  N 
ATOM     32  C   VAL E 178      -0.020 -27.544  24.460  1.00 59.78 LIG 0.26  C 
ATOM     33 O    VAL E 178       0.311 -26.411  24.105  1.00 49.42 LIG-0.27  OA
ATOM     34 H    ASP E 179      -0.623 -28.610  25.967  1.00 68.60 LIG 0.16  HD
BRANCH 32 35
ATOM     35  CA  VAL E 178      -0.222 -28.661  23.431  1.00 59.92 LIG 0.40  C 
ATOM     36  N   VAL E 178      -1.141 -29.687  23.914  1.00 55.12 LIG 0.61  N 
BRANCH 35 37
ATOM     37  CB  VAL E 178      -0.719 -28.039  22.100  1.00 50.97 LIG 0.03  C 
ATOM     38  CG2 VAL E 178      -2.036 -27.301  22.297  1.00 47.22 LIG 0.01  C 
ATOM     39  CG1 VAL E 178      -0.867 -29.114  21.045  1.00 50.59 LIG 0.01  C 
ENDBRANCH 35 37
ENDBRANCH 32 35
ENDBRANCH 30 31
BRANCH 30 40
ATOM     40  CB  ASP E 179      -0.928 -27.146  27.965  1.00 47.75 LIG 0.15  C 
BRANCH 40 41
ATOM     41  CG  ASP E 179      -2.014 -26.105  27.869  1.00 48.80 LIG 0.17  C 
ATOM     42 OD2  ASP E 179      -1.707 -24.898  28.024  1.00 55.56 LIG-0.65  OA
ATOM     43 OD1  ASP E 179      -3.175 -26.497  27.635  1.00 40.87 LIG-0.65  OA
ENDBRANCH 40 41
ENDBRANCH 30 40
ENDBRANCH 27 30
ENDBRANCH 1 26
TORSDOF 19
ENDMDL
MODEL 54
USER: ADFR SOLUTION from run 143
USER: SCORE 12.339315 LL:  -2.675 LR: -11.664 RR:   0.000 FEB:  -5.996
USER: RMSD 8.264062
USER: SEED 142
USER: STATUS no improvement in best in 5 clusters for 5 generations
USER: GENES 21
USER: genes 0 Translation |==|  0.42327 0.62452 0.59338
USER: genes 1 Rotation |==|  0.88851 0.28948 0.69319 0.63198
USER: genes 2 Torsion [C]-CA--CB-[CG] |==|  0.32084
USER: genes 3 Torsion [CA]-CB--CG-[OD1] |==|  0.87324
USER: genes 4 Torsion [N]-CA--C-[N] |==|  0.66325
USER: genes 5 Torsion [C]-N--CA-[CB] |==|  0.46262
USER: genes 6 Torsion [N]-CA--C-[N] |==|  0.88450
USER: genes 7 Torsion [C]-N--CA-[CB] |==|  0.25385
USER: genes 8 Torsion [N]-CA--CB-[CG] |==|  0.52162
USER: genes 9 Torsion [CA]-CB--CG-[SD] |==|  0.65226
USER: genes 10 Torsion [CB]-CG--SD-[CE] |==|  0.84489
USER: genes 11 Torsion [N]-CA--C-[O] |==|  0.95005
USER: genes 12 Torsion [N]-CA--CB-[CG] |==|  0.70503
USER: genes 13 Torsion [CA]-CB--CG-[OD1] |==|  0.07749
USER: genes 14 Torsion [CB]-CA--N-[C] |==|  0.13991
USER: genes 15 Torsion [N]-C--CA-[N] |==|  0.94087
USER: genes 16 Torsion [C]-CA--N-[C] |==|  0.75216
USER: genes 17 Torsion [N]-C--CA-[N] |==|  0.46799
USER: genes 18 Torsion [C]-CA--CB-[CG2] |==|  0.22355
USER: genes 19 Torsion [C]-CA--CB-[CG] |==|  0.75858
USER: genes 20 Torsion [CA]-CB--CG-[OD2] |==|  0.31803
ROOT
ATOM      1  CA  ASP E 180       0.873 -25.481  28.422  1.00 46.29 LIG 0.19  C 
ENDROOT
BRANCH 1 2
ATOM      2  CB  ASP E 180       0.993 -24.189  27.622  1.00 53.57 LIG 0.15  C 
BRANCH 2 3
ATOM      3  CG  ASP E 180      -0.226 -23.307  27.758  1.00 52.91 LIG 0.17  C 
ATOM      4 OD1  ASP E 180      -1.356 -23.835  27.656  1.00 53.16 LIG-0.65  OA
ATOM      5 OD2  ASP E 180      -0.057 -22.089  27.974  1.00 39.91 LIG-0.65  OA
ENDBRANCH 2 3
ENDBRANCH 1 2
BRANCH 1 6
ATOM      6  C   ASP E 180       0.856 -26.685  27.469  1.00 46.16 LIG 0.24  C 
ATOM      7 O    ASP E 180       0.730 -27.830  27.909  1.00 47.92 LIG-0.27  OA
ATOM      8  N   ASP E 181       0.980 -26.437  26.169  1.00 48.75 LIG-0.34  N 
ATOM      9 H    ASP E 181       1.119 -25.659  25.831  1.00 48.75 LIG 0.16  HD
BRANCH 8 10
ATOM     10  CA  ASP E 181       0.885 -27.526  25.202  1.00 45.01 LIG 0.19  C 
BRANCH 10 11
ATOM     11  C   ASP E 181       2.080 -28.474  25.253  1.00 47.33 LIG 0.24  C 
ATOM     12 O    ASP E 181       1.934 -29.701  25.187  1.00 41.27 LIG-0.27  OA
ATOM     13  N   MET E 182       3.262 -27.881  25.390  1.00 63.00 LIG-0.35  N 
ATOM     14 H    MET E 182       3.356 -27.033  25.500  1.00 63.00 LIG 0.16  HD
BRANCH 13 15
ATOM     15  CA  MET E 182       4.519 -28.615  25.368  1.00 43.88 LIG 0.16  C 
BRANCH 15 16
ATOM     16  CB  MET E 182       5.065 -28.673  23.942  1.00 44.38 LIG 0.04  C 
BRANCH 16 17
ATOM     17  CG  MET E 182       6.273 -29.574  23.786  1.00 63.17 LIG 0.08  C 
BRANCH 17 18
ATOM     18 SD   MET E 182       7.681 -28.723  23.051  1.00101.17 LIG-0.17  SA
ATOM     19  CE  MET E 182       6.949 -28.120  21.530  1.00 68.91 LIG 0.09  C 
ENDBRANCH 17 18
ENDBRANCH 16 17
ENDBRANCH 15 16
BRANCH 15 20
ATOM     20  C   MET E 182       5.552 -27.984  26.304  1.00 60.82 LIG 0.22  C 
ATOM     21 O    MET E 182       5.425 -26.824  26.709  1.00 58.83 LIG-0.29  OA
ENDBRANCH 15 20
ENDBRANCH 13 15
ENDBRANCH 10 11
BRANCH 10 22
ATOM     22  CB  ASP E 181       0.726 -26.958  23.792  1.00 40.72 LIG 0.15  C 
BRANCH 22 23
ATOM     23  CG  ASP E 181      -0.684 -27.121  23.264  1.00 40.82 LIG 0.17  C 
ATOM     24 OD1  ASP E 181      -1.636 -27.161  24.076  1.00 47.44 LIG-0.65  OA
ATOM     25 OD2  ASP E 181      -0.835 -27.196  22.029  1.00 24.37 LIG-0.65  OA
ENDBRANCH 22 23
ENDBRANCH 10 22
ENDBRANCH 8 10
ENDBRANCH 1 6
BRANCH 1 26
ATOM     26  N   ASP E 180       1.973 -25.631  29.380  1.00 48.48 LIG-0.34  N 
ATOM     27  C   ASP E 179       2.371 -24.706  30.256  1.00 52.76 LIG 0.24  C 
ATOM     28 O    ASP E 179       1.878 -23.583  30.360  1.00 54.54 LIG-0.27  OA
ATOM     29 H    ASP E 180       2.355 -26.400  29.325  1.00 48.48 LIG 0.16  HD
BRANCH 27 30
ATOM     30  CA  ASP E 179       3.523 -25.141  31.161  1.00 62.98 LIG 0.19  C 
BRANCH 30 31
ATOM     31  N   ASP E 179       3.702 -26.589  31.298  1.00 68.60 LIG-0.34  N 
ATOM     32  C   VAL E 178       3.087 -27.309  32.236  1.00 59.78 LIG 0.26  C 
ATOM     33 O    VAL E 178       2.495 -26.805  33.193  1.00 49.42 LIG-0.27  OA
ATOM     34 H    ASP E 179       4.239 -26.929  30.719  1.00 68.60 LIG 0.16  HD
BRANCH 32 35
ATOM     35  CA  VAL E 178       3.179 -28.830  32.082  1.00 59.92 LIG 0.40  C 
ATOM     36  N   VAL E 178       2.718 -29.527  33.279  1.00 55.12 LIG 0.61  N 
BRANCH 35 37
ATOM     37  CB  VAL E 178       2.370 -29.261  30.831  1.00 50.97 LIG 0.03  C 
ATOM     38  CG2 VAL E 178       3.171 -29.040  29.556  1.00 47.22 LIG 0.01  C 
ATOM     39  CG1 VAL E 178       1.060 -28.505  30.772  1.00 50.59 LIG 0.01  C 
ENDBRANCH 35 37
ENDBRANCH 32 35
ENDBRANCH 30 31
BRANCH 30 40
ATOM     40  CB  ASP E 179       4.814 -24.515  30.634  1.00 47.75 LIG 0.15  C 
BRANCH 40 41
ATOM     41  CG  ASP E 179       5.474 -25.361  29.575  1.00 48.80 LIG 0.17  C 
ATOM     42 OD2  ASP E 179       5.550 -24.911  28.406  1.00 55.56 LIG-0.65  OA
ATOM     43 OD1  ASP E 179       5.917 -26.476  29.916  1.00 40.87 LIG-0.65  OA
ENDBRANCH 40 41
ENDBRANCH 30 40
ENDBRANCH 27 30
ENDBRANCH 1 26
TORSDOF 19
ENDMDL
MODEL 55
USER: ADFR SOLUTION from run 92
USER: SCORE 11.290935 LL:  -2.177 LR: -11.663 RR:   0.000 FEB:  -5.996
USER: RMSD 6.420298
USER: SEED 91
USER: STATUS no improvement in best in 23 clusters for 5 generations
USER: GENES 21
USER: genes 0 Translation |==|  0.59690 0.40307 0.46344
USER: genes 1 Rotation |==|  0.91267 0.37265 0.30281 0.65685
USER: genes 2 Torsion [C]-CA--CB-[CG] |==|  0.34923
USER: genes 3 Torsion [CA]-CB--CG-[OD1] |==|  0.95192
USER: genes 4 Torsion [N]-CA--C-[N] |==|  0.79058
USER: genes 5 Torsion [C]-N--CA-[CB] |==|  0.23889
USER: genes 6 Torsion [N]-CA--C-[N] |==|  0.73182
USER: genes 7 Torsion [C]-N--CA-[CB] |==|  0.16087
USER: genes 8 Torsion [N]-CA--CB-[CG] |==|  0.52764
USER: genes 9 Torsion [CA]-CB--CG-[SD] |==|  0.33860
USER: genes 10 Torsion [CB]-CG--SD-[CE] |==|  0.86116
USER: genes 11 Torsion [N]-CA--C-[O] |==|  0.20992
USER: genes 12 Torsion [N]-CA--CB-[CG] |==|  0.11293
USER: genes 13 Torsion [CA]-CB--CG-[OD1] |==|  0.23660
USER: genes 14 Torsion [CB]-CA--N-[C] |==|  0.87692
USER: genes 15 Torsion [N]-C--CA-[N] |==|  0.37998
USER: genes 16 Torsion [C]-CA--N-[C] |==|  0.66180
USER: genes 17 Torsion [N]-C--CA-[N] |==|  0.45295
USER: genes 18 Torsion [C]-CA--CB-[CG2] |==|  0.90198
USER: genes 19 Torsion [C]-CA--CB-[CG] |==|  0.22668
USER: genes 20 Torsion [CA]-CB--CG-[OD2] |==|  0.97450
ROOT
ATOM      1  CA  ASP E 180       4.650 -29.135  25.791  1.00 46.29 LIG 0.19  C 
ENDROOT
BRANCH 1 2
ATOM      2  CB  ASP E 180       4.492 -27.634  26.011  1.00 53.57 LIG 0.15  C 
BRANCH 2 3
ATOM      3  CG  ASP E 180       5.172 -27.159  27.273  1.00 52.91 LIG 0.17  C 
ATOM      4 OD1  ASP E 180       5.478 -28.008  28.140  1.00 53.16 LIG-0.65  OA
ATOM      5 OD2  ASP E 180       5.406 -25.939  27.398  1.00 39.91 LIG-0.65  OA
ENDBRANCH 2 3
ENDBRANCH 1 2
BRANCH 1 6
ATOM      6  C   ASP E 180       3.270 -29.784  25.607  1.00 46.16 LIG 0.24  C 
ATOM      7 O    ASP E 180       2.971 -30.805  26.228  1.00 47.92 LIG-0.27  OA
ATOM      8  N   ASP E 181       2.428 -29.200  24.760  1.00 48.75 LIG-0.34  N 
ATOM      9 H    ASP E 181       2.619 -28.516  24.274  1.00 48.75 LIG 0.16  HD
BRANCH 8 10
ATOM     10  CA  ASP E 181       1.071 -29.713  24.603  1.00 45.01 LIG 0.19  C 
BRANCH 10 11
ATOM     11  C   ASP E 181       0.499 -29.467  23.210  1.00 47.33 LIG 0.24  C 
ATOM     12 O    ASP E 181       0.759 -30.221  22.264  1.00 41.27 LIG-0.27  OA
ATOM     13  N   MET E 182      -0.269 -28.387  23.100  1.00 63.00 LIG-0.35  N 
ATOM     14 H    MET E 182      -0.396 -27.830  23.743  1.00 63.00 LIG 0.16  HD
BRANCH 13 15
ATOM     15  CA  MET E 182      -0.972 -28.042  21.874  1.00 43.88 LIG 0.16  C 
BRANCH 15 16
ATOM     16  CB  MET E 182      -1.901 -29.185  21.465  1.00 44.38 LIG 0.04  C 
BRANCH 16 17
ATOM     17  CG  MET E 182      -2.496 -29.024  20.080  1.00 63.17 LIG 0.08  C 
BRANCH 17 18
ATOM     18 SD   MET E 182      -2.100 -30.405  18.993  1.00101.17 LIG-0.17  SA
ATOM     19  CE  MET E 182      -0.326 -30.512  19.222  1.00 68.91 LIG 0.09  C 
ENDBRANCH 17 18
ENDBRANCH 16 17
ENDBRANCH 15 16
BRANCH 15 20
ATOM     20  C   MET E 182      -1.769 -26.745  22.031  1.00 60.82 LIG 0.22  C 
ATOM     21 O    MET E 182      -1.207 -25.645  22.031  1.00 58.83 LIG-0.29  OA
ENDBRANCH 15 20
ENDBRANCH 13 15
ENDBRANCH 10 11
BRANCH 10 22
ATOM     22  CB  ASP E 181       0.156 -29.099  25.662  1.00 40.72 LIG 0.15  C 
BRANCH 22 23
ATOM     23  CG  ASP E 181       0.438 -27.627  25.880  1.00 40.82 LIG 0.17  C 
ATOM     24 OD1  ASP E 181      -0.107 -26.786  25.130  1.00 47.44 LIG-0.65  OA
ATOM     25 OD2  ASP E 181       1.201 -27.316  26.816  1.00 24.37 LIG-0.65  OA
ENDBRANCH 22 23
ENDBRANCH 10 22
ENDBRANCH 8 10
ENDBRANCH 1 6
BRANCH 1 26
ATOM     26  N   ASP E 180       5.487 -29.428  24.623  1.00 48.48 LIG-0.34  N 
ATOM     27  C   ASP E 179       5.405 -28.821  23.437  1.00 52.76 LIG 0.24  C 
ATOM     28 O    ASP E 179       4.589 -27.943  23.156  1.00 54.54 LIG-0.27  OA
ATOM     29 H    ASP E 180       6.060 -30.050  24.777  1.00 48.48 LIG 0.16  HD
BRANCH 27 30
ATOM     30  CA  ASP E 179       6.425 -29.299  22.406  1.00 62.98 LIG 0.19  C 
BRANCH 30 31
ATOM     31  N   ASP E 179       5.901 -29.508  21.053  1.00 68.60 LIG-0.34  N 
ATOM     32  C   VAL E 178       5.975 -30.680  20.422  1.00 59.78 LIG 0.26  C 
ATOM     33 O    VAL E 178       6.672 -31.617  20.817  1.00 49.42 LIG-0.27  OA
ATOM     34 H    ASP E 179       5.543 -28.808  20.707  1.00 68.60 LIG 0.16  HD
BRANCH 32 35
ATOM     35  CA  VAL E 178       5.158 -30.799  19.131  1.00 59.92 LIG 0.40  C 
ATOM     36  N   VAL E 178       5.593 -31.927  18.314  1.00 55.12 LIG 0.61  N 
BRANCH 35 37
ATOM     37  CB  VAL E 178       3.655 -30.911  19.494  1.00 50.97 LIG 0.03  C 
ATOM     38  CG2 VAL E 178       3.457 -31.701  20.780  1.00 47.22 LIG 0.01  C 
ATOM     39  CG1 VAL E 178       2.891 -31.552  18.355  1.00 50.59 LIG 0.01  C 
ENDBRANCH 35 37
ENDBRANCH 32 35
ENDBRANCH 30 31
BRANCH 30 40
ATOM     40  CB  ASP E 179       7.572 -28.291  22.358  1.00 47.75 LIG 0.15  C 
BRANCH 40 41
ATOM     41  CG  ASP E 179       8.574 -28.505  23.465  1.00 48.80 LIG 0.17  C 
ATOM     42 OD2  ASP E 179       8.298 -29.322  24.377  1.00 55.56 LIG-0.65  OA
ATOM     43 OD1  ASP E 179       9.638 -27.856  23.419  1.00 40.87 LIG-0.65  OA
ENDBRANCH 40 41
ENDBRANCH 30 40
ENDBRANCH 27 30
ENDBRANCH 1 26
TORSDOF 19
ENDMDL
MODEL 56
USER: ADFR SOLUTION from run 179
USER: SCORE 12.439233 LL:  -2.355 LR: -11.649 RR:   0.000 FEB:  -5.981
USER: RMSD 5.393995
USER: SEED 178
USER: STATUS no improvement in best in 12 clusters for 5 generations
USER: GENES 21
USER: genes 0 Translation |==|  0.50319 0.61721 0.59147
USER: genes 1 Rotation |==|  0.76014 0.17357 0.22475 0.49808
USER: genes 2 Torsion [C]-CA--CB-[CG] |==|  0.53896
USER: genes 3 Torsion [CA]-CB--CG-[OD1] |==|  0.73783
USER: genes 4 Torsion [N]-CA--C-[N] |==|  0.45562
USER: genes 5 Torsion [C]-N--CA-[CB] |==|  0.21000
USER: genes 6 Torsion [N]-CA--C-[N] |==|  0.02489
USER: genes 7 Torsion [C]-N--CA-[CB] |==|  0.21323
USER: genes 8 Torsion [N]-CA--CB-[CG] |==|  0.15112
USER: genes 9 Torsion [CA]-CB--CG-[SD] |==|  0.72567
USER: genes 10 Torsion [CB]-CG--SD-[CE] |==|  0.92072
USER: genes 11 Torsion [N]-CA--C-[O] |==|  0.11168
USER: genes 12 Torsion [N]-CA--CB-[CG] |==|  0.71740
USER: genes 13 Torsion [CA]-CB--CG-[OD1] |==|  0.46532
USER: genes 14 Torsion [CB]-CA--N-[C] |==|  0.48333
USER: genes 15 Torsion [N]-C--CA-[N] |==|  0.19497
USER: genes 16 Torsion [C]-CA--N-[C] |==|  0.66511
USER: genes 17 Torsion [N]-C--CA-[N] |==|  0.38028
USER: genes 18 Torsion [C]-CA--CB-[CG2] |==|  0.53605
USER: genes 19 Torsion [C]-CA--CB-[CG] |==|  0.36171
USER: genes 20 Torsion [CA]-CB--CG-[OD2] |==|  0.79851
ROOT
ATOM      1  CA  ASP E 180       2.611 -25.602  28.383  1.00 46.29 LIG 0.19  C 
ENDROOT
BRANCH 1 2
ATOM      2  CB  ASP E 180       3.984 -25.000  28.666  1.00 53.57 LIG 0.15  C 
BRANCH 2 3
ATOM      3  CG  ASP E 180       5.111 -25.964  28.375  1.00 52.91 LIG 0.17  C 
ATOM      4 OD1  ASP E 180       5.560 -26.655  29.316  1.00 53.16 LIG-0.65  OA
ATOM      5 OD2  ASP E 180       5.543 -26.036  27.206  1.00 39.91 LIG-0.65  OA
ENDBRANCH 2 3
ENDBRANCH 1 2
BRANCH 1 6
ATOM      6  C   ASP E 180       1.551 -24.493  28.358  1.00 46.16 LIG 0.24  C 
ATOM      7 O    ASP E 180       1.048 -24.131  27.292  1.00 47.92 LIG-0.27  OA
ATOM      8  N   ASP E 181       1.206 -23.950  29.521  1.00 48.75 LIG-0.34  N 
ATOM      9 H    ASP E 181       1.568 -24.142  30.277  1.00 48.75 LIG 0.16  HD
BRANCH 8 10
ATOM     10  CA  ASP E 181       0.142 -22.952  29.579  1.00 45.01 LIG 0.19  C 
BRANCH 10 11
ATOM     11  C   ASP E 181       0.180 -22.115  30.854  1.00 47.33 LIG 0.24  C 
ATOM     12 O    ASP E 181      -0.731 -21.325  31.135  1.00 41.27 LIG-0.27  OA
ATOM     13  N   MET E 182       1.261 -22.290  31.609  1.00 63.00 LIG-0.35  N 
ATOM     14 H    MET E 182       1.921 -22.790  31.381  1.00 63.00 LIG 0.16  HD
BRANCH 13 15
ATOM     15  CA  MET E 182       1.430 -21.645  32.903  1.00 43.88 LIG 0.16  C 
BRANCH 15 16
ATOM     16  CB  MET E 182       0.586 -22.361  33.957  1.00 44.38 LIG 0.04  C 
BRANCH 16 17
ATOM     17  CG  MET E 182       0.851 -23.850  34.047  1.00 63.17 LIG 0.08  C 
BRANCH 17 18
ATOM     18 SD   MET E 182      -0.369 -24.825  33.149  1.00101.17 LIG-0.17  SA
ATOM     19  CE  MET E 182      -1.799 -23.750  33.256  1.00 68.91 LIG 0.09  C 
ENDBRANCH 17 18
ENDBRANCH 16 17
ENDBRANCH 15 16
BRANCH 15 20
ATOM     20  C   MET E 182       2.899 -21.623  33.330  1.00 60.82 LIG 0.22  C 
ATOM     21 O    MET E 182       3.799 -21.391  32.515  1.00 58.83 LIG-0.29  OA
ENDBRANCH 15 20
ENDBRANCH 13 15
ENDBRANCH 10 11
BRANCH 10 22
ATOM     22  CB  ASP E 181      -1.219 -23.632  29.439  1.00 40.72 LIG 0.15  C 
BRANCH 22 23
ATOM     23  CG  ASP E 181      -1.794 -23.485  28.045  1.00 40.82 LIG 0.17  C 
ATOM     24 OD1  ASP E 181      -2.780 -24.183  27.718  1.00 47.44 LIG-0.65  OA
ATOM     25 OD2  ASP E 181      -1.258 -22.657  27.282  1.00 24.37 LIG-0.65  OA
ENDBRANCH 22 23
ENDBRANCH 10 22
ENDBRANCH 8 10
ENDBRANCH 1 6
BRANCH 1 26
ATOM     26  N   ASP E 180       2.589 -26.330  27.111  1.00 48.48 LIG-0.34  N 
ATOM     27  C   ASP E 179       1.568 -27.055  26.649  1.00 52.76 LIG 0.24  C 
ATOM     28 O    ASP E 179       0.507 -27.231  27.249  1.00 54.54 LIG-0.27  OA
ATOM     29 H    ASP E 180       3.322 -26.244  26.670  1.00 48.48 LIG 0.16  HD
BRANCH 27 30
ATOM     30  CA  ASP E 179       1.801 -27.680  25.275  1.00 62.98 LIG 0.19  C 
BRANCH 30 31
ATOM     31  N   ASP E 179       2.782 -28.768  25.237  1.00 68.60 LIG-0.34  N 
ATOM     32  C   VAL E 178       3.883 -28.724  24.488  1.00 59.78 LIG 0.26  C 
ATOM     33 O    VAL E 178       4.068 -27.881  23.608  1.00 49.42 LIG-0.27  OA
ATOM     34 H    ASP E 179       2.581 -29.434  25.742  1.00 68.60 LIG 0.16  HD
BRANCH 32 35
ATOM     35  CA  VAL E 178       4.922 -29.817  24.758  1.00 59.92 LIG 0.40  C 
ATOM     36  N   VAL E 178       5.467 -30.368  23.521  1.00 55.12 LIG 0.61  N 
BRANCH 35 37
ATOM     37  CB  VAL E 178       6.043 -29.237  25.659  1.00 50.97 LIG 0.03  C 
ATOM     38  CG2 VAL E 178       7.250 -30.163  25.701  1.00 47.22 LIG 0.01  C 
ATOM     39  CG1 VAL E 178       5.514 -28.994  27.057  1.00 50.59 LIG 0.01  C 
ENDBRANCH 35 37
ENDBRANCH 32 35
ENDBRANCH 30 31
BRANCH 30 40
ATOM     40  CB  ASP E 179       0.461 -28.182  24.738  1.00 47.75 LIG 0.15  C 
BRANCH 40 41
ATOM     41  CG  ASP E 179       0.194 -27.715  23.329  1.00 48.80 LIG 0.17  C 
ATOM     42 OD2  ASP E 179      -0.096 -26.509  23.139  1.00 55.56 LIG-0.65  OA
ATOM     43 OD1  ASP E 179       0.277 -28.558  22.414  1.00 40.87 LIG-0.65  OA
ENDBRANCH 40 41
ENDBRANCH 30 40
ENDBRANCH 27 30
ENDBRANCH 1 26
TORSDOF 19
ENDMDL
MODEL 57
USER: ADFR SOLUTION from run 82
USER: SCORE 12.051819 LL:  -1.816 LR: -11.652 RR:   0.000 FEB:  -5.984
USER: RMSD 9.562350
USER: SEED 81
USER: STATUS no improvement in best in 31 clusters for 5 generations
USER: GENES 21
USER: genes 0 Translation |==|  0.44766 0.47510 0.47079
USER: genes 1 Rotation |==|  0.77915 0.64221 0.88072 0.58307
USER: genes 2 Torsion [C]-CA--CB-[CG] |==|  0.55778
USER: genes 3 Torsion [CA]-CB--CG-[OD1] |==|  0.94805
USER: genes 4 Torsion [N]-CA--C-[N] |==|  0.86655
USER: genes 5 Torsion [C]-N--CA-[CB] |==|  0.83559
USER: genes 6 Torsion [N]-CA--C-[N] |==|  0.39611
USER: genes 7 Torsion [C]-N--CA-[CB] |==|  0.42760
USER: genes 8 Torsion [N]-CA--CB-[CG] |==|  0.69484
USER: genes 9 Torsion [CA]-CB--CG-[SD] |==|  0.88643
USER: genes 10 Torsion [CB]-CG--SD-[CE] |==|  0.46238
USER: genes 11 Torsion [N]-CA--C-[O] |==|  0.28214
USER: genes 12 Torsion [N]-CA--CB-[CG] |==|  0.74113
USER: genes 13 Torsion [CA]-CB--CG-[OD1] |==|  0.00679
USER: genes 14 Torsion [CB]-CA--N-[C] |==|  0.42516
USER: genes 15 Torsion [N]-C--CA-[N] |==|  0.44580
USER: genes 16 Torsion [C]-CA--N-[C] |==|  0.66004
USER: genes 17 Torsion [N]-C--CA-[N] |==|  0.89159
USER: genes 18 Torsion [C]-CA--CB-[CG2] |==|  0.13042
USER: genes 19 Torsion [C]-CA--CB-[CG] |==|  0.51891
USER: genes 20 Torsion [CA]-CB--CG-[OD2] |==|  0.75738
ROOT
ATOM      1  CA  ASP E 180       1.404 -27.947  25.940  1.00 46.29 LIG 0.19  C 
ENDROOT
BRANCH 1 2
ATOM      2  CB  ASP E 180       1.305 -28.098  24.425  1.00 53.57 LIG 0.15  C 
BRANCH 2 3
ATOM      3  CG  ASP E 180       0.077 -27.429  23.854  1.00 52.91 LIG 0.17  C 
ATOM      4 OD1  ASP E 180      -0.869 -27.161  24.629  1.00 53.16 LIG-0.65  OA
ATOM      5 OD2  ASP E 180       0.058 -27.164  22.635  1.00 39.91 LIG-0.65  OA
ENDBRANCH 2 3
ENDBRANCH 1 2
BRANCH 1 6
ATOM      6  C   ASP E 180       2.854 -28.163  26.392  1.00 46.16 LIG 0.24  C 
ATOM      7 O    ASP E 180       3.187 -29.212  26.948  1.00 47.92 LIG-0.27  OA
ATOM      8  N   ASP E 181       3.720 -27.183  26.158  1.00 48.75 LIG-0.34  N 
ATOM      9 H    ASP E 181       3.515 -26.420  25.818  1.00 48.75 LIG 0.16  HD
BRANCH 8 10
ATOM     10  CA  ASP E 181       5.133 -27.357  26.483  1.00 45.01 LIG 0.19  C 
BRANCH 10 11
ATOM     11  C   ASP E 181       5.802 -28.455  25.661  1.00 47.33 LIG 0.24  C 
ATOM     12 O    ASP E 181       5.208 -29.504  25.381  1.00 41.27 LIG-0.27  OA
ATOM     13  N   MET E 182       7.055 -28.199  25.297  1.00 63.00 LIG-0.35  N 
ATOM     14 H    MET E 182       7.486 -27.499  25.546  1.00 63.00 LIG 0.16  HD
BRANCH 13 15
ATOM     15  CA  MET E 182       7.822 -29.088  24.436  1.00 43.88 LIG 0.16  C 
BRANCH 15 16
ATOM     16  CB  MET E 182       8.895 -28.295  23.690  1.00 44.38 LIG 0.04  C 
BRANCH 16 17
ATOM     17  CG  MET E 182       8.629 -28.153  22.205  1.00 63.17 LIG 0.08  C 
BRANCH 17 18
ATOM     18 SD   MET E 182       7.995 -29.669  21.468  1.00101.17 LIG-0.17  SA
ATOM     19  CE  MET E 182       7.417 -29.056  19.886  1.00 68.91 LIG 0.09  C 
ENDBRANCH 17 18
ENDBRANCH 16 17
ENDBRANCH 15 16
BRANCH 15 20
ATOM     20  C   MET E 182       8.464 -30.224  25.234  1.00 60.82 LIG 0.22  C 
ATOM     21 O    MET E 182       7.974 -31.358  25.239  1.00 58.83 LIG-0.29  OA
ENDBRANCH 15 20
ENDBRANCH 13 15
ENDBRANCH 10 11
BRANCH 10 22
ATOM     22  CB  ASP E 181       5.292 -27.649  27.975  1.00 40.72 LIG 0.15  C 
BRANCH 22 23
ATOM     23  CG  ASP E 181       5.540 -26.391  28.782  1.00 40.82 LIG 0.17  C 
ATOM     24 OD1  ASP E 181       5.543 -25.285  28.197  1.00 47.44 LIG-0.65  OA
ATOM     25 OD2  ASP E 181       5.720 -26.518  30.009  1.00 24.37 LIG-0.65  OA
ENDBRANCH 22 23
ENDBRANCH 10 22
ENDBRANCH 8 10
ENDBRANCH 1 6
BRANCH 1 26
ATOM     26  N   ASP E 180       0.944 -26.628  26.385  1.00 48.48 LIG-0.34  N 
ATOM     27  C   ASP E 179       0.432 -26.349  27.586  1.00 52.76 LIG 0.24  C 
ATOM     28 O    ASP E 179       0.253 -27.177  28.480  1.00 54.54 LIG-0.27  OA
ATOM     29 H    ASP E 180       1.037 -26.025  25.779  1.00 48.48 LIG 0.16  HD
BRANCH 27 30
ATOM     30  CA  ASP E 179       0.066 -24.881  27.796  1.00 62.98 LIG 0.19  C 
BRANCH 30 31
ATOM     31  N   ASP E 179      -0.881 -24.618  28.883  1.00 68.60 LIG-0.34  N 
ATOM     32  C   VAL E 178      -2.044 -23.994  28.696  1.00 59.78 LIG 0.26  C 
ATOM     33 O    VAL E 178      -2.329 -23.397  27.656  1.00 49.42 LIG-0.27  OA
ATOM     34 H    ASP E 179      -0.617 -24.903  29.650  1.00 68.60 LIG 0.16  HD
BRANCH 32 35
ATOM     35  CA  VAL E 178      -3.022 -24.029  29.875  1.00 59.92 LIG 0.40  C 
ATOM     36  N   VAL E 178      -3.014 -25.323  30.551  1.00 55.12 LIG 0.61  N 
BRANCH 35 37
ATOM     37  CB  VAL E 178      -2.673 -22.878  30.854  1.00 50.97 LIG 0.03  C 
ATOM     38  CG2 VAL E 178      -2.463 -21.568  30.109  1.00 47.22 LIG 0.01  C 
ATOM     39  CG1 VAL E 178      -1.441 -23.234  31.658  1.00 50.59 LIG 0.01  C 
ENDBRANCH 35 37
ENDBRANCH 32 35
ENDBRANCH 30 31
BRANCH 30 40
ATOM     40  CB  ASP E 179       1.352 -24.092  28.038  1.00 47.75 LIG 0.15  C 
BRANCH 40 41
ATOM     41  CG  ASP E 179       1.085 -22.658  28.419  1.00 48.80 LIG 0.17  C 
ATOM     42 OD2  ASP E 179       0.952 -21.807  27.506  1.00 55.56 LIG-0.65  OA
ATOM     43 OD1  ASP E 179       1.006 -22.385  29.633  1.00 40.87 LIG-0.65  OA
ENDBRANCH 40 41
ENDBRANCH 30 40
ENDBRANCH 27 30
ENDBRANCH 1 26
TORSDOF 19
ENDMDL
MODEL 58
USER: ADFR SOLUTION from run 4
USER: SCORE 12.344362 LL:  -1.592 LR: -11.644 RR:   0.000 FEB:  -5.977
USER: RMSD 7.048178
USER: SEED 923575
USER: STATUS no improvement in best in 16 clusters for 5 generations
USER: GENES 21
USER: genes 0 Translation |==|  0.53622 0.52734 0.53848
USER: genes 1 Rotation |==|  0.68216 0.16820 0.17336 0.50558
USER: genes 2 Torsion [C]-CA--CB-[CG] |==|  0.14905
USER: genes 3 Torsion [CA]-CB--CG-[OD1] |==|  0.70201
USER: genes 4 Torsion [N]-CA--C-[N] |==|  0.47606
USER: genes 5 Torsion [C]-N--CA-[CB] |==|  0.15510
USER: genes 6 Torsion [N]-CA--C-[N] |==|  0.12960
USER: genes 7 Torsion [C]-N--CA-[CB] |==|  0.42778
USER: genes 8 Torsion [N]-CA--CB-[CG] |==|  0.51244
USER: genes 9 Torsion [CA]-CB--CG-[SD] |==|  0.54635
USER: genes 10 Torsion [CB]-CG--SD-[CE] |==|  0.15616
USER: genes 11 Torsion [N]-CA--C-[O] |==|  0.22509
USER: genes 12 Torsion [N]-CA--CB-[CG] |==|  0.68600
USER: genes 13 Torsion [CA]-CB--CG-[OD1] |==|  0.47658
USER: genes 14 Torsion [CB]-CA--N-[C] |==|  0.48646
USER: genes 15 Torsion [N]-C--CA-[N] |==|  0.44039
USER: genes 16 Torsion [C]-CA--N-[C] |==|  0.55616
USER: genes 17 Torsion [N]-C--CA-[N] |==|  0.53739
USER: genes 18 Torsion [C]-CA--CB-[CG2] |==|  0.86285
USER: genes 19 Torsion [C]-CA--CB-[CG] |==|  0.74780
USER: genes 20 Torsion [CA]-CB--CG-[OD2] |==|  0.07767
ROOT
ATOM      1  CA  ASP E 180       3.330 -27.085  27.310  1.00 46.29 LIG 0.19  C 
ENDROOT
BRANCH 1 2
ATOM      2  CB  ASP E 180       4.821 -26.781  27.208  1.00 53.57 LIG 0.15  C 
BRANCH 2 3
ATOM      3  CG  ASP E 180       5.367 -26.128  28.456  1.00 52.91 LIG 0.17  C 
ATOM      4 OD1  ASP E 180       5.658 -24.912  28.412  1.00 53.16 LIG-0.65  OA
ATOM      5 OD2  ASP E 180       5.498 -26.827  29.482  1.00 39.91 LIG-0.65  OA
ENDBRANCH 2 3
ENDBRANCH 1 2
BRANCH 1 6
ATOM      6  C   ASP E 180       2.563 -25.812  27.693  1.00 46.16 LIG 0.24  C 
ATOM      7 O    ASP E 180       1.764 -25.301  26.906  1.00 47.92 LIG-0.27  OA
ATOM      8  N   ASP E 181       2.798 -25.295  28.895  1.00 48.75 LIG-0.34  N 
ATOM      9 H    ASP E 181       3.382 -25.594  29.450  1.00 48.75 LIG 0.16  HD
BRANCH 8 10
ATOM     10  CA  ASP E 181       2.040 -24.136  29.357  1.00 45.01 LIG 0.19  C 
BRANCH 10 11
ATOM     11  C   ASP E 181       2.430 -23.692  30.764  1.00 47.33 LIG 0.24  C 
ATOM     12 O    ASP E 181       1.573 -23.419  31.615  1.00 41.27 LIG-0.27  OA
ATOM     13  N   MET E 182       3.739 -23.608  30.985  1.00 63.00 LIG-0.35  N 
ATOM     14 H    MET E 182       4.330 -23.736  30.374  1.00 63.00 LIG 0.16  HD
BRANCH 13 15
ATOM     15  CA  MET E 182       4.298 -23.288  32.290  1.00 43.88 LIG 0.16  C 
BRANCH 15 16
ATOM     16  CB  MET E 182       5.705 -23.871  32.412  1.00 44.38 LIG 0.04  C 
BRANCH 16 17
ATOM     17  CG  MET E 182       6.329 -23.681  33.780  1.00 63.17 LIG 0.08  C 
BRANCH 17 18
ATOM     18 SD   MET E 182       8.114 -23.930  33.766  1.00101.17 LIG-0.17  SA
ATOM     19  CE  MET E 182       8.607 -22.744  32.517  1.00 68.91 LIG 0.09  C 
ENDBRANCH 17 18
ENDBRANCH 16 17
ENDBRANCH 15 16
BRANCH 15 20
ATOM     20  C   MET E 182       4.329 -21.778  32.531  1.00 60.82 LIG 0.22  C 
ATOM     21 O    MET E 182       3.322 -21.168  32.903  1.00 58.83 LIG-0.29  OA
ENDBRANCH 15 20
ENDBRANCH 13 15
ENDBRANCH 10 11
BRANCH 10 22
ATOM     22  CB  ASP E 181       0.543 -24.434  29.297  1.00 40.72 LIG 0.15  C 
BRANCH 22 23
ATOM     23  CG  ASP E 181      -0.170 -23.591  28.260  1.00 40.82 LIG 0.17  C 
ATOM     24 OD1  ASP E 181      -1.366 -23.841  27.991  1.00 47.44 LIG-0.65  OA
ATOM     25 OD2  ASP E 181       0.474 -22.667  27.723  1.00 24.37 LIG-0.65  OA
ENDBRANCH 22 23
ENDBRANCH 10 22
ENDBRANCH 8 10
ENDBRANCH 1 6
BRANCH 1 26
ATOM     26  N   ASP E 180       2.796 -27.618  26.053  1.00 48.48 LIG-0.34  N 
ATOM     27  C   ASP E 179       1.551 -28.061  25.863  1.00 52.76 LIG 0.24  C 
ATOM     28 O    ASP E 179       0.684 -28.104  26.736  1.00 54.54 LIG-0.27  OA
ATOM     29 H    ASP E 180       3.381 -27.619  25.422  1.00 48.48 LIG 0.16  HD
BRANCH 27 30
ATOM     30  CA  ASP E 179       1.253 -28.530  24.441  1.00 62.98 LIG 0.19  C 
BRANCH 30 31
ATOM     31  N   ASP E 179       0.118 -29.448  24.306  1.00 68.60 LIG-0.34  N 
ATOM     32  C   VAL E 178      -0.046 -30.247  23.252  1.00 59.78 LIG 0.26  C 
ATOM     33 O    VAL E 178       0.606 -30.134  22.212  1.00 49.42 LIG-0.27  OA
ATOM     34 H    ASP E 179      -0.430 -29.422  24.969  1.00 68.60 LIG 0.16  HD
BRANCH 32 35
ATOM     35  CA  VAL E 178      -1.133 -31.319  23.386  1.00 59.92 LIG 0.40  C 
ATOM     36  N   VAL E 178      -1.032 -32.329  22.338  1.00 55.12 LIG 0.61  N 
BRANCH 35 37
ATOM     37  CB  VAL E 178      -1.042 -31.957  24.797  1.00 50.97 LIG 0.03  C 
ATOM     38  CG2 VAL E 178       0.386 -32.371  25.122  1.00 47.22 LIG 0.01  C 
ATOM     39  CG1 VAL E 178      -1.973 -33.147  24.891  1.00 50.59 LIG 0.01  C 
ENDBRANCH 35 37
ENDBRANCH 32 35
ENDBRANCH 30 31
BRANCH 30 40
ATOM     40  CB  ASP E 179       1.020 -27.299  23.565  1.00 47.75 LIG 0.15  C 
BRANCH 40 41
ATOM     41  CG  ASP E 179      -0.431 -26.891  23.520  1.00 48.80 LIG 0.17  C 
ATOM     42 OD2  ASP E 179      -1.163 -27.161  24.502  1.00 55.56 LIG-0.65  OA
ATOM     43 OD1  ASP E 179      -0.835 -26.298  22.500  1.00 40.87 LIG-0.65  OA
ENDBRANCH 40 41
ENDBRANCH 30 40
ENDBRANCH 27 30
ENDBRANCH 1 26
TORSDOF 19
ENDMDL
MODEL 59
USER: ADFR SOLUTION from run 195
USER: SCORE 12.420201 LL:  -2.344 LR: -11.635 RR:   0.000 FEB:  -5.967
USER: RMSD 9.560545
USER: SEED 194
USER: STATUS no improvement in best in 11 clusters for 5 generations
USER: GENES 21
USER: genes 0 Translation |==|  0.51751 0.59850 0.57303
USER: genes 1 Rotation |==|  0.57697 0.90708 0.22070 0.51871
USER: genes 2 Torsion [C]-CA--CB-[CG] |==|  0.19746
USER: genes 3 Torsion [CA]-CB--CG-[OD1] |==|  0.52260
USER: genes 4 Torsion [N]-CA--C-[N] |==|  0.12013
USER: genes 5 Torsion [C]-N--CA-[CB] |==|  0.50000
USER: genes 6 Torsion [N]-CA--C-[N] |==|  0.32693
USER: genes 7 Torsion [C]-N--CA-[CB] |==|  0.84932
USER: genes 8 Torsion [N]-CA--CB-[CG] |==|  0.30965
USER: genes 9 Torsion [CA]-CB--CG-[SD] |==|  0.32912
USER: genes 10 Torsion [CB]-CG--SD-[CE] |==|  0.70749
USER: genes 11 Torsion [N]-CA--C-[O] |==|  0.29993
USER: genes 12 Torsion [N]-CA--CB-[CG] |==|  0.03340
USER: genes 13 Torsion [CA]-CB--CG-[OD1] |==|  0.84369
USER: genes 14 Torsion [CB]-CA--N-[C] |==|  0.78796
USER: genes 15 Torsion [N]-C--CA-[N] |==|  0.88653
USER: genes 16 Torsion [C]-CA--N-[C] |==|  0.84639
USER: genes 17 Torsion [N]-C--CA-[N] |==|  0.41793
USER: genes 18 Torsion [C]-CA--CB-[CG2] |==|  0.19329
USER: genes 19 Torsion [C]-CA--CB-[CG] |==|  0.61721
USER: genes 20 Torsion [CA]-CB--CG-[OD2] |==|  0.72012
ROOT
ATOM      1  CA  ASP E 180       2.923 -25.911  28.010  1.00 46.29 LIG 0.19  C 
ENDROOT
BRANCH 1 2
ATOM      2  CB  ASP E 180       3.871 -26.012  29.200  1.00 53.57 LIG 0.15  C 
BRANCH 2 3
ATOM      3  CG  ASP E 180       5.305 -25.717  28.827  1.00 52.91 LIG 0.17  C 
ATOM      4 OD1  ASP E 180       6.196 -25.918  29.681  1.00 53.16 LIG-0.65  OA
ATOM      5 OD2  ASP E 180       5.543 -25.290  27.678  1.00 39.91 LIG-0.65  OA
ENDBRANCH 2 3
ENDBRANCH 1 2
BRANCH 1 6
ATOM      6  C   ASP E 180       3.160 -27.087  27.052  1.00 46.16 LIG 0.24  C 
ATOM      7 O    ASP E 180       4.167 -27.790  27.161  1.00 47.92 LIG-0.27  OA
ATOM      8  N   ASP E 181       2.243 -27.307  26.116  1.00 48.75 LIG-0.34  N 
ATOM      9 H    ASP E 181       1.555 -26.811  25.979  1.00 48.75 LIG 0.16  HD
BRANCH 8 10
ATOM     10  CA  ASP E 181       2.362 -28.460  25.229  1.00 45.01 LIG 0.19  C 
BRANCH 10 11
ATOM     11  C   ASP E 181       3.683 -28.489  24.465  1.00 47.33 LIG 0.24  C 
ATOM     12 O    ASP E 181       3.981 -27.600  23.657  1.00 41.27 LIG-0.27  OA
ATOM     13  N   MET E 182       4.458 -29.539  24.723  1.00 63.00 LIG-0.35  N 
ATOM     14 H    MET E 182       4.222 -30.187  25.235  1.00 63.00 LIG 0.16  HD
BRANCH 13 15
ATOM     15  CA  MET E 182       5.791 -29.691  24.158  1.00 43.88 LIG 0.16  C 
BRANCH 15 16
ATOM     16  CB  MET E 182       5.729 -29.575  22.635  1.00 44.38 LIG 0.04  C 
BRANCH 16 17
ATOM     17  CG  MET E 182       6.390 -28.325  22.090  1.00 63.17 LIG 0.08  C 
BRANCH 17 18
ATOM     18 SD   MET E 182       7.774 -28.695  20.997  1.00101.17 LIG-0.17  SA
ATOM     19  CE  MET E 182       9.158 -28.287  22.060  1.00 68.91 LIG 0.09  C 
ENDBRANCH 17 18
ENDBRANCH 16 17
ENDBRANCH 15 16
BRANCH 15 20
ATOM     20  C   MET E 182       6.762 -28.655  24.727  1.00 60.82 LIG 0.22  C 
ATOM     21 O    MET E 182       7.650 -28.979  25.523  1.00 58.83 LIG-0.29  OA
ENDBRANCH 15 20
ENDBRANCH 13 15
ENDBRANCH 10 11
BRANCH 10 22
ATOM     22  CB  ASP E 181       1.190 -28.488  24.249  1.00 40.72 LIG 0.15  C 
BRANCH 22 23
ATOM     23  CG  ASP E 181       0.402 -27.194  24.260  1.00 40.82 LIG 0.17  C 
ATOM     24 OD1  ASP E 181      -0.078 -26.785  25.341  1.00 47.44 LIG-0.65  OA
ATOM     25 OD2  ASP E 181       0.275 -26.584  23.181  1.00 24.37 LIG-0.65  OA
ENDBRANCH 22 23
ENDBRANCH 10 22
ENDBRANCH 8 10
ENDBRANCH 1 6
BRANCH 1 26
ATOM     26  N   ASP E 180       1.519 -25.900  28.433  1.00 48.48 LIG-0.34  N 
ATOM     27  C   ASP E 179       0.821 -26.964  28.835  1.00 52.76 LIG 0.24  C 
ATOM     28 O    ASP E 179       1.262 -28.113  28.881  1.00 54.54 LIG-0.27  OA
ATOM     29 H    ASP E 180       1.171 -25.115  28.398  1.00 48.48 LIG 0.16  HD
BRANCH 27 30
ATOM     30  CA  ASP E 179      -0.616 -26.662  29.254  1.00 62.98 LIG 0.19  C 
BRANCH 30 31
ATOM     31  N   ASP E 179      -0.798 -25.434  30.034  1.00 68.60 LIG-0.34  N 
ATOM     32  C   VAL E 178      -0.136 -25.189  31.164  1.00 59.78 LIG 0.26  C 
ATOM     33 O    VAL E 178       0.513 -26.048  31.765  1.00 49.42 LIG-0.27  OA
ATOM     34 H    ASP E 179      -1.370 -24.889  29.695  1.00 68.60 LIG 0.16  HD
BRANCH 32 35
ATOM     35  CA  VAL E 178      -0.248 -23.763  31.712  1.00 59.92 LIG 0.40  C 
ATOM     36  N   VAL E 178      -0.132 -23.729  33.167  1.00 55.12 LIG 0.61  N 
BRANCH 35 37
ATOM     37  CB  VAL E 178       0.831 -22.877  31.039  1.00 50.97 LIG 0.03  C 
ATOM     38  CG2 VAL E 178       0.514 -22.647  29.568  1.00 47.22 LIG 0.01  C 
ATOM     39  CG1 VAL E 178       2.197 -23.511  31.193  1.00 50.59 LIG 0.01  C 
ENDBRANCH 35 37
ENDBRANCH 32 35
ENDBRANCH 30 31
BRANCH 30 40
ATOM     40  CB  ASP E 179      -1.483 -26.601  27.997  1.00 47.75 LIG 0.15  C 
BRANCH 40 41
ATOM     41  CG  ASP E 179      -2.467 -25.458  28.031  1.00 48.80 LIG 0.17  C 
ATOM     42 OD2  ASP E 179      -3.661 -25.700  28.332  1.00 55.56 LIG-0.65  OA
ATOM     43 OD1  ASP E 179      -2.041 -24.318  27.758  1.00 40.87 LIG-0.65  OA
ENDBRANCH 40 41
ENDBRANCH 30 40
ENDBRANCH 27 30
ENDBRANCH 1 26
TORSDOF 19
ENDMDL
MODEL 60
USER: ADFR SOLUTION from run 191
USER: SCORE 13.224592 LL:  -2.123 LR: -11.619 RR:   0.000 FEB:  -5.951
USER: RMSD 8.511000
USER: SEED 190
USER: STATUS no improvement in best in 12 clusters for 5 generations
USER: GENES 21
USER: genes 0 Translation |==|  0.58752 0.50048 0.48140
USER: genes 1 Rotation |==|  0.61898 0.90550 0.31039 0.68831
USER: genes 2 Torsion [C]-CA--CB-[CG] |==|  0.26480
USER: genes 3 Torsion [CA]-CB--CG-[OD1] |==|  0.04768
USER: genes 4 Torsion [N]-CA--C-[N] |==|  0.44398
USER: genes 5 Torsion [C]-N--CA-[CB] |==|  0.87028
USER: genes 6 Torsion [N]-CA--C-[N] |==|  0.88431
USER: genes 7 Torsion [C]-N--CA-[CB] |==|  0.33298
USER: genes 8 Torsion [N]-CA--CB-[CG] |==|  0.76288
USER: genes 9 Torsion [CA]-CB--CG-[SD] |==|  0.88864
USER: genes 10 Torsion [CB]-CG--SD-[CE] |==|  0.33055
USER: genes 11 Torsion [N]-CA--C-[O] |==|  0.31325
USER: genes 12 Torsion [N]-CA--CB-[CG] |==|  0.75205
USER: genes 13 Torsion [CA]-CB--CG-[OD1] |==|  0.29563
USER: genes 14 Torsion [CB]-CA--N-[C] |==|  0.83280
USER: genes 15 Torsion [N]-C--CA-[N] |==|  0.40286
USER: genes 16 Torsion [C]-CA--N-[C] |==|  0.65085
USER: genes 17 Torsion [N]-C--CA-[N] |==|  0.38564
USER: genes 18 Torsion [C]-CA--CB-[CG2] |==|  0.10966
USER: genes 19 Torsion [C]-CA--CB-[CG] |==|  0.30348
USER: genes 20 Torsion [CA]-CB--CG-[OD2] |==|  0.51872
ROOT
ATOM      1  CA  ASP E 180       4.445 -27.528  26.154  1.00 46.29 LIG 0.19  C 
ENDROOT
BRANCH 1 2
ATOM      2  CB  ASP E 180       4.418 -27.780  27.658  1.00 53.57 LIG 0.15  C 
BRANCH 2 3
ATOM      3  CG  ASP E 180       5.191 -26.741  28.435  1.00 52.91 LIG 0.17  C 
ATOM      4 OD1  ASP E 180       5.471 -25.661  27.868  1.00 53.16 LIG-0.65  OA
ATOM      5 OD2  ASP E 180       5.513 -26.998  29.613  1.00 39.91 LIG-0.65  OA
ENDBRANCH 2 3
ENDBRANCH 1 2
BRANCH 1 6
ATOM      6  C   ASP E 180       5.568 -28.351  25.508  1.00 46.16 LIG 0.24  C 
ATOM      7 O    ASP E 180       5.310 -29.384  24.887  1.00 47.92 LIG-0.27  OA
ATOM      8  N   ASP E 181       6.812 -27.903  25.646  1.00 48.75 LIG-0.34  N 
ATOM      9 H    ASP E 181       7.035 -27.215  26.112  1.00 48.75 LIG 0.16  HD
BRANCH 8 10
ATOM     10  CA  ASP E 181       7.917 -28.588  24.984  1.00 45.01 LIG 0.19  C 
BRANCH 10 11
ATOM     11  C   ASP E 181       7.996 -28.286  23.490  1.00 47.33 LIG 0.24  C 
ATOM     12 O    ASP E 181       9.078 -28.064  22.933  1.00 41.27 LIG-0.27  OA
ATOM     13  N   MET E 182       6.826 -28.265  22.859  1.00 63.00 LIG-0.35  N 
ATOM     14 H    MET E 182       6.071 -28.357  23.259  1.00 63.00 LIG 0.16  HD
BRANCH 13 15
ATOM     15  CA  MET E 182       6.711 -28.083  21.419  1.00 43.88 LIG 0.16  C 
BRANCH 15 16
ATOM     16  CB  MET E 182       6.021 -29.294  20.793  1.00 44.38 LIG 0.04  C 
BRANCH 16 17
ATOM     17  CG  MET E 182       6.965 -30.435  20.468  1.00 63.17 LIG 0.08  C 
BRANCH 17 18
ATOM     18 SD   MET E 182       8.535 -29.863  19.795  1.00101.17 LIG-0.17  SA
ATOM     19  CE  MET E 182       9.675 -30.488  21.028  1.00 68.91 LIG 0.09  C 
ENDBRANCH 17 18
ENDBRANCH 16 17
ENDBRANCH 15 16
BRANCH 15 20
ATOM     20  C   MET E 182       5.944 -26.804  21.077  1.00 60.82 LIG 0.22  C 
ATOM     21 O    MET E 182       6.506 -25.848  20.531  1.00 58.83 LIG-0.29  OA
ENDBRANCH 15 20
ENDBRANCH 13 15
ENDBRANCH 10 11
BRANCH 10 22
ATOM     22  CB  ASP E 181       7.806 -30.096  25.209  1.00 40.72 LIG 0.15  C 
BRANCH 22 23
ATOM     23  CG  ASP E 181       8.519 -30.543  26.468  1.00 40.82 LIG 0.17  C 
ATOM     24 OD1  ASP E 181       7.840 -30.867  27.468  1.00 47.44 LIG-0.65  OA
ATOM     25 OD2  ASP E 181       9.765 -30.578  26.446  1.00 24.37 LIG-0.65  OA
ENDBRANCH 22 23
ENDBRANCH 10 22
ENDBRANCH 8 10
ENDBRANCH 1 6
BRANCH 1 26
ATOM     26  N   ASP E 180       3.166 -27.866  25.524  1.00 48.48 LIG-0.34  N 
ATOM     27  C   ASP E 179       2.592 -29.072  25.528  1.00 52.76 LIG 0.24  C 
ATOM     28 O    ASP E 179       3.080 -30.076  26.046  1.00 54.54 LIG-0.27  OA
ATOM     29 H    ASP E 180       2.802 -27.191  25.135  1.00 48.48 LIG 0.16  HD
BRANCH 27 30
ATOM     30  CA  ASP E 179       1.239 -29.135  24.822  1.00 62.98 LIG 0.19  C 
BRANCH 30 31
ATOM     31  N   ASP E 179       0.958 -30.386  24.112  1.00 68.60 LIG-0.34  N 
ATOM     32  C   VAL E 178       0.614 -30.426  22.825  1.00 59.78 LIG 0.26  C 
ATOM     33 O    VAL E 178       0.292 -29.425  22.181  1.00 49.42 LIG-0.27  OA
ATOM     34 H    ASP E 179       1.035 -31.088  24.602  1.00 68.60 LIG 0.16  HD
BRANCH 32 35
ATOM     35  CA  VAL E 178       0.608 -31.813  22.175  1.00 59.92 LIG 0.40  C 
ATOM     36  N   VAL E 178      -0.539 -31.995  21.291  1.00 55.12 LIG 0.61  N 
BRANCH 35 37
ATOM     37  CB  VAL E 178       1.945 -32.021  21.416  1.00 50.97 LIG 0.03  C 
ATOM     38  CG2 VAL E 178       3.117 -31.447  22.199  1.00 47.22 LIG 0.01  C 
ATOM     39  CG1 VAL E 178       1.866 -31.392  20.042  1.00 50.59 LIG 0.01  C 
ENDBRANCH 35 37
ENDBRANCH 32 35
ENDBRANCH 30 31
BRANCH 30 40
ATOM     40  CB  ASP E 179       0.143 -28.878  25.856  1.00 47.75 LIG 0.15  C 
BRANCH 40 41
ATOM     41  CG  ASP E 179      -0.520 -27.536  25.670  1.00 48.80 LIG 0.17  C 
ATOM     42 OD2  ASP E 179      -1.347 -27.149  26.531  1.00 55.56 LIG-0.65  OA
ATOM     43 OD1  ASP E 179      -0.209 -26.870  24.663  1.00 40.87 LIG-0.65  OA
ENDBRANCH 40 41
ENDBRANCH 30 40
ENDBRANCH 27 30
ENDBRANCH 1 26
TORSDOF 19
ENDMDL
MODEL 61
USER: ADFR SOLUTION from run 70
USER: SCORE 11.783439 LL:  -3.248 LR: -11.586 RR:   0.000 FEB:  -5.918
USER: RMSD 9.200890
USER: SEED 69
USER: STATUS no improvement in best in 23 clusters for 5 generations
USER: GENES 21
USER: genes 0 Translation |==|  0.52550 0.65563 0.58586
USER: genes 1 Rotation |==|  0.37347 0.18568 0.86765 0.50519
USER: genes 2 Torsion [C]-CA--CB-[CG] |==|  0.15788
USER: genes 3 Torsion [CA]-CB--CG-[OD1] |==|  0.61626
USER: genes 4 Torsion [N]-CA--C-[N] |==|  0.20925
USER: genes 5 Torsion [C]-N--CA-[CB] |==|  0.44037
USER: genes 6 Torsion [N]-CA--C-[N] |==|  0.94695
USER: genes 7 Torsion [C]-N--CA-[CB] |==|  0.81537
USER: genes 8 Torsion [N]-CA--CB-[CG] |==|  0.92693
USER: genes 9 Torsion [CA]-CB--CG-[SD] |==|  0.40471
USER: genes 10 Torsion [CB]-CG--SD-[CE] |==|  0.57679
USER: genes 11 Torsion [N]-CA--C-[O] |==|  0.12971
USER: genes 12 Torsion [N]-CA--CB-[CG] |==|  0.92936
USER: genes 13 Torsion [CA]-CB--CG-[OD1] |==|  0.34018
USER: genes 14 Torsion [CB]-CA--N-[C] |==|  0.31691
USER: genes 15 Torsion [N]-C--CA-[N] |==|  0.98948
USER: genes 16 Torsion [C]-CA--N-[C] |==|  0.73333
USER: genes 17 Torsion [N]-C--CA-[N] |==|  0.45162
USER: genes 18 Torsion [C]-CA--CB-[CG2] |==|  0.22445
USER: genes 19 Torsion [C]-CA--CB-[CG] |==|  0.22185
USER: genes 20 Torsion [CA]-CB--CG-[OD2] |==|  0.56187
ROOT
ATOM      1  CA  ASP E 180       3.097 -24.968  28.270  1.00 46.29 LIG 0.19  C 
ENDROOT
BRANCH 1 2
ATOM      2  CB  ASP E 180       4.068 -24.776  29.430  1.00 53.57 LIG 0.15  C 
BRANCH 2 3
ATOM      3  CG  ASP E 180       5.416 -25.405  29.168  1.00 52.91 LIG 0.17  C 
ATOM      4 OD1  ASP E 180       5.973 -26.027  30.100  1.00 53.16 LIG-0.65  OA
ATOM      5 OD2  ASP E 180       5.916 -25.285  28.031  1.00 39.91 LIG-0.65  OA
ENDBRANCH 2 3
ENDBRANCH 1 2
BRANCH 1 6
ATOM      6  C   ASP E 180       2.933 -26.464  27.969  1.00 46.16 LIG 0.24  C 
ATOM      7 O    ASP E 180       3.252 -27.310  28.807  1.00 47.92 LIG-0.27  OA
ATOM      8  N   ASP E 181       2.437 -26.799  26.782  1.00 48.75 LIG-0.34  N 
ATOM      9 H    ASP E 181       2.249 -26.240  26.156  1.00 48.75 LIG 0.16  HD
BRANCH 8 10
ATOM     10  CA  ASP E 181       2.173 -28.199  26.464  1.00 45.01 LIG 0.19  C 
BRANCH 10 11
ATOM     11  C   ASP E 181       3.436 -28.974  26.100  1.00 47.33 LIG 0.24  C 
ATOM     12 O    ASP E 181       3.475 -30.210  26.160  1.00 41.27 LIG-0.27  OA
ATOM     13  N   MET E 182       4.473 -28.223  25.741  1.00 63.00 LIG-0.35  N 
ATOM     14 H    MET E 182       4.464 -27.364  25.762  1.00 63.00 LIG 0.16  HD
BRANCH 13 15
ATOM     15  CA  MET E 182       5.731 -28.788  25.275  1.00 43.88 LIG 0.16  C 
BRANCH 15 16
ATOM     16  CB  MET E 182       6.417 -29.544  26.412  1.00 44.38 LIG 0.04  C 
BRANCH 16 17
ATOM     17  CG  MET E 182       6.044 -29.044  27.793  1.00 63.17 LIG 0.08  C 
BRANCH 17 18
ATOM     18 SD   MET E 182       5.984 -30.366  29.014  1.00101.17 LIG-0.17  SA
ATOM     19  CE  MET E 182       4.789 -29.698  30.171  1.00 68.91 LIG 0.09  C 
ENDBRANCH 17 18
ENDBRANCH 16 17
ENDBRANCH 15 16
BRANCH 15 20
ATOM     20  C   MET E 182       5.518 -29.714  24.077  1.00 60.82 LIG 0.22  C 
ATOM     21 O    MET E 182       4.808 -29.377  23.124  1.00 58.83 LIG-0.29  OA
ENDBRANCH 15 20
ENDBRANCH 13 15
ENDBRANCH 10 11
BRANCH 10 22
ATOM     22  CB  ASP E 181       1.155 -28.293  25.329  1.00 40.72 LIG 0.15  C 
BRANCH 22 23
ATOM     23  CG  ASP E 181       0.261 -27.073  25.257  1.00 40.82 LIG 0.17  C 
ATOM     24 OD1  ASP E 181       0.222 -26.411  24.195  1.00 47.44 LIG-0.65  OA
ATOM     25 OD2  ASP E 181      -0.411 -26.786  26.267  1.00 24.37 LIG-0.65  OA
ENDBRANCH 22 23
ENDBRANCH 10 22
ENDBRANCH 8 10
ENDBRANCH 1 6
BRANCH 1 26
ATOM     26  N   ASP E 180       1.785 -24.380  28.556  1.00 48.48 LIG-0.34  N 
ATOM     27  C   ASP E 179       1.244 -23.340  27.917  1.00 52.76 LIG 0.24  C 
ATOM     28 O    ASP E 179       1.792 -22.715  27.009  1.00 54.54 LIG-0.27  OA
ATOM     29 H    ASP E 180       1.377 -24.781  29.198  1.00 48.48 LIG 0.16  HD
BRANCH 27 30
ATOM     30  CA  ASP E 179      -0.154 -22.955  28.398  1.00 62.98 LIG 0.19  C 
BRANCH 30 31
ATOM     31  N   ASP E 179      -0.730 -23.831  29.423  1.00 68.60 LIG-0.34  N 
ATOM     32  C   VAL E 178      -1.559 -24.833  29.136  1.00 59.78 LIG 0.26  C 
ATOM     33 O    VAL E 178      -2.084 -24.979  28.030  1.00 49.42 LIG-0.27  OA
ATOM     34 H    ASP E 179      -0.483 -23.637  30.223  1.00 68.60 LIG 0.16  HD
BRANCH 32 35
ATOM     35  CA  VAL E 178      -1.862 -25.803  30.282  1.00 59.92 LIG 0.40  C 
ATOM     36  N   VAL E 178      -3.056 -26.601  30.020  1.00 55.12 LIG 0.61  N 
BRANCH 35 37
ATOM     37  CB  VAL E 178      -0.623 -26.703  30.524  1.00 50.97 LIG 0.03  C 
ATOM     38  CG2 VAL E 178       0.424 -25.984  31.361  1.00 47.22 LIG 0.01  C 
ATOM     39  CG1 VAL E 178      -0.033 -27.142  29.201  1.00 50.59 LIG 0.01  C 
ENDBRANCH 35 37
ENDBRANCH 32 35
ENDBRANCH 30 31
BRANCH 30 40
ATOM     40  CB  ASP E 179      -0.107 -21.520  28.921  1.00 47.75 LIG 0.15  C 
BRANCH 40 41
ATOM     41  CG  ASP E 179      -0.153 -20.501  27.810  1.00 48.80 LIG 0.17  C 
ATOM     42 OD2  ASP E 179       0.292 -19.349  28.031  1.00 55.56 LIG-0.65  OA
ATOM     43 OD1  ASP E 179      -0.633 -20.857  26.716  1.00 40.87 LIG-0.65  OA
ENDBRANCH 40 41
ENDBRANCH 30 40
ENDBRANCH 27 30
ENDBRANCH 1 26
TORSDOF 19
ENDMDL
MODEL 62
USER: ADFR SOLUTION from run 27
USER: SCORE 12.666023 LL:  -2.487 LR: -11.567 RR:   0.000 FEB:  -5.899
USER: RMSD 9.068928
USER: SEED 26
USER: STATUS no improvement in best in 8 clusters for 5 generations
USER: GENES 21
USER: genes 0 Translation |==|  0.46613 0.46107 0.43357
USER: genes 1 Rotation |==|  0.85343 0.55338 0.84638 0.54757
USER: genes 2 Torsion [C]-CA--CB-[CG] |==|  0.50946
USER: genes 3 Torsion [CA]-CB--CG-[OD1] |==|  0.96984
USER: genes 4 Torsion [N]-CA--C-[N] |==|  0.91180
USER: genes 5 Torsion [C]-N--CA-[CB] |==|  0.85223
USER: genes 6 Torsion [N]-CA--C-[N] |==|  0.38645
USER: genes 7 Torsion [C]-N--CA-[CB] |==|  0.80557
USER: genes 8 Torsion [N]-CA--CB-[CG] |==|  0.68319
USER: genes 9 Torsion [CA]-CB--CG-[SD] |==|  0.26923
USER: genes 10 Torsion [CB]-CG--SD-[CE] |==|  0.78645
USER: genes 11 Torsion [N]-CA--C-[O] |==|  0.17213
USER: genes 12 Torsion [N]-CA--CB-[CG] |==|  0.60529
USER: genes 13 Torsion [CA]-CB--CG-[OD1] |==|  0.37076
USER: genes 14 Torsion [CB]-CA--N-[C] |==|  0.50038
USER: genes 15 Torsion [N]-C--CA-[N] |==|  0.44671
USER: genes 16 Torsion [C]-CA--N-[C] |==|  0.80951
USER: genes 17 Torsion [N]-C--CA-[N] |==|  0.83425
USER: genes 18 Torsion [C]-CA--CB-[CG2] |==|  0.09351
USER: genes 19 Torsion [C]-CA--CB-[CG] |==|  0.78763
USER: genes 20 Torsion [CA]-CB--CG-[OD2] |==|  0.84796
ROOT
ATOM      1  CA  ASP E 180       1.805 -28.178  25.186  1.00 46.29 LIG 0.19  C 
ENDROOT
BRANCH 1 2
ATOM      2  CB  ASP E 180       1.313 -27.732  23.813  1.00 53.57 LIG 0.15  C 
BRANCH 2 3
ATOM      3  CG  ASP E 180      -0.050 -27.083  23.869  1.00 52.91 LIG 0.17  C 
ATOM      4 OD1  ASP E 180      -0.703 -27.161  24.933  1.00 53.16 LIG-0.65  OA
ATOM      5 OD2  ASP E 180      -0.466 -26.488  22.853  1.00 39.91 LIG-0.65  OA
ENDBRANCH 2 3
ENDBRANCH 1 2
BRANCH 1 6
ATOM      6  C   ASP E 180       3.225 -28.750  25.070  1.00 46.16 LIG 0.24  C 
ATOM      7 O    ASP E 180       3.400 -29.946  24.828  1.00 47.92 LIG-0.27  OA
ATOM      8  N   ASP E 181       4.239 -27.908  25.239  1.00 48.75 LIG-0.34  N 
ATOM      9 H    ASP E 181       4.156 -27.080  25.457  1.00 48.75 LIG 0.16  HD
BRANCH 8 10
ATOM     10  CA  ASP E 181       5.613 -28.367  25.057  1.00 45.01 LIG 0.19  C 
BRANCH 10 11
ATOM     11  C   ASP E 181       5.953 -28.661  23.599  1.00 47.33 LIG 0.24  C 
ATOM     12 O    ASP E 181       5.156 -29.248  22.856  1.00 41.27 LIG-0.27  OA
ATOM     13  N   MET E 182       7.161 -28.260  23.212  1.00 63.00 LIG-0.35  N 
ATOM     14 H    MET E 182       7.737 -27.911  23.746  1.00 63.00 LIG 0.16  HD
BRANCH 13 15
ATOM     15  CA  MET E 182       7.626 -28.374  21.838  1.00 43.88 LIG 0.16  C 
BRANCH 15 16
ATOM     16  CB  MET E 182       7.857 -29.843  21.485  1.00 44.38 LIG 0.04  C 
BRANCH 16 17
ATOM     17  CG  MET E 182       9.310 -30.187  21.221  1.00 63.17 LIG 0.08  C 
BRANCH 17 18
ATOM     18 SD   MET E 182      10.128 -30.886  22.665  1.00101.17 LIG-0.17  SA
ATOM     19  CE  MET E 182      10.404 -29.408  23.640  1.00 68.91 LIG 0.09  C 
ENDBRANCH 17 18
ENDBRANCH 16 17
ENDBRANCH 15 16
BRANCH 15 20
ATOM     20  C   MET E 182       6.634 -27.746  20.857  1.00 60.82 LIG 0.22  C 
ATOM     21 O    MET E 182       6.360 -26.542  20.906  1.00 58.83 LIG-0.29  OA
ENDBRANCH 15 20
ENDBRANCH 13 15
ENDBRANCH 10 11
BRANCH 10 22
ATOM     22  CB  ASP E 181       5.867 -29.605  25.915  1.00 40.72 LIG 0.15  C 
BRANCH 22 23
ATOM     23  CG  ASP E 181       7.257 -29.611  26.516  1.00 40.82 LIG 0.17  C 
ATOM     24 OD1  ASP E 181       7.393 -29.886  27.730  1.00 47.44 LIG-0.65  OA
ATOM     25 OD2  ASP E 181       8.215 -29.350  25.763  1.00 24.37 LIG-0.65  OA
ENDBRANCH 22 23
ENDBRANCH 10 22
ENDBRANCH 8 10
ENDBRANCH 1 6
BRANCH 1 26
ATOM     26  N   ASP E 180       1.800 -27.074  26.150  1.00 48.48 LIG-0.34  N 
ATOM     27  C   ASP E 179       2.178 -27.157  27.428  1.00 52.76 LIG 0.24  C 
ATOM     28 O    ASP E 179       2.563 -28.189  27.978  1.00 54.54 LIG-0.27  OA
ATOM     29 H    ASP E 180       1.520 -26.338  25.806  1.00 48.48 LIG 0.16  HD
BRANCH 27 30
ATOM     30  CA  ASP E 179       2.104 -25.841  28.200  1.00 62.98 LIG 0.19  C 
BRANCH 30 31
ATOM     31  N   ASP E 179       2.082 -25.969  29.660  1.00 68.60 LIG-0.34  N 
ATOM     32  C   VAL E 178       1.050 -26.486  30.325  1.00 59.78 LIG 0.26  C 
ATOM     33 O    VAL E 178      -0.049 -26.697  29.808  1.00 49.42 LIG-0.27  OA
ATOM     34 H    ASP E 179       2.794 -25.680  30.044  1.00 68.60 LIG 0.16  HD
BRANCH 32 35
ATOM     35  CA  VAL E 178       1.289 -26.784  31.809  1.00 59.92 LIG 0.40  C 
ATOM     36  N   VAL E 178       2.378 -27.736  32.004  1.00 55.12 LIG 0.61  N 
BRANCH 35 37
ATOM     37  CB  VAL E 178       1.564 -25.451  32.553  1.00 50.97 LIG 0.03  C 
ATOM     38  CG2 VAL E 178       0.769 -24.306  31.943  1.00 47.22 LIG 0.01  C 
ATOM     39  CG1 VAL E 178       3.045 -25.138  32.531  1.00 50.59 LIG 0.01  C 
ENDBRANCH 35 37
ENDBRANCH 32 35
ENDBRANCH 30 31
BRANCH 30 40
ATOM     40  CB  ASP E 179       3.287 -24.968  27.782  1.00 47.75 LIG 0.15  C 
BRANCH 40 41
ATOM     41  CG  ASP E 179       4.582 -25.414  28.413  1.00 48.80 LIG 0.17  C 
ATOM     42 OD2  ASP E 179       4.639 -25.519  29.663  1.00 55.56 LIG-0.65  OA
ATOM     43 OD1  ASP E 179       5.542 -25.661  27.656  1.00 40.87 LIG-0.65  OA
ENDBRANCH 40 41
ENDBRANCH 30 40
ENDBRANCH 27 30
ENDBRANCH 1 26
TORSDOF 19
ENDMDL
MODEL 63
USER: ADFR SOLUTION from run 151
USER: SCORE 11.179100 LL:  -1.675 LR: -11.554 RR:   0.000 FEB:  -5.886
USER: RMSD 6.851511
USER: SEED 150
USER: STATUS no improvement in best in 12 clusters for 5 generations
USER: GENES 21
USER: genes 0 Translation |==|  0.52957 0.64011 0.57618
USER: genes 1 Rotation |==|  0.63774 0.69437 0.33606 0.90789
USER: genes 2 Torsion [C]-CA--CB-[CG] |==|  0.44247
USER: genes 3 Torsion [CA]-CB--CG-[OD1] |==|  0.39022
USER: genes 4 Torsion [N]-CA--C-[N] |==|  0.54982
USER: genes 5 Torsion [C]-N--CA-[CB] |==|  0.82768
USER: genes 6 Torsion [N]-CA--C-[N] |==|  0.42027
USER: genes 7 Torsion [C]-N--CA-[CB] |==|  0.87255
USER: genes 8 Torsion [N]-CA--CB-[CG] |==|  0.33307
USER: genes 9 Torsion [CA]-CB--CG-[SD] |==|  0.28057
USER: genes 10 Torsion [CB]-CG--SD-[CE] |==|  0.23252
USER: genes 11 Torsion [N]-CA--C-[O] |==|  0.45172
USER: genes 12 Torsion [N]-CA--CB-[CG] |==|  0.33549
USER: genes 13 Torsion [CA]-CB--CG-[OD1] |==|  0.22622
USER: genes 14 Torsion [CB]-CA--N-[C] |==|  0.86463
USER: genes 15 Torsion [N]-C--CA-[N] |==|  0.28889
USER: genes 16 Torsion [C]-CA--N-[C] |==|  0.64764
USER: genes 17 Torsion [N]-C--CA-[N] |==|  0.41254
USER: genes 18 Torsion [C]-CA--CB-[CG2] |==|  0.13930
USER: genes 19 Torsion [C]-CA--CB-[CG] |==|  0.23331
USER: genes 20 Torsion [CA]-CB--CG-[OD2] |==|  0.19929
ROOT
ATOM      1  CA  ASP E 180       3.185 -25.224  28.074  1.00 46.29 LIG 0.19  C 
ENDROOT
BRANCH 1 2
ATOM      2  CB  ASP E 180       1.781 -25.041  28.641  1.00 53.57 LIG 0.15  C 
BRANCH 2 3
ATOM      3  CG  ASP E 180       0.959 -24.052  27.848  1.00 52.91 LIG 0.17  C 
ATOM      4 OD1  ASP E 180      -0.251 -24.304  27.656  1.00 53.16 LIG-0.65  OA
ATOM      5 OD2  ASP E 180       1.520 -23.022  27.422  1.00 39.91 LIG-0.65  OA
ENDBRANCH 2 3
ENDBRANCH 1 2
BRANCH 1 6
ATOM      6  C   ASP E 180       4.114 -25.797  29.153  1.00 46.16 LIG 0.24  C 
ATOM      7 O    ASP E 180       4.961 -26.644  28.865  1.00 47.92 LIG-0.27  OA
ATOM      8  N   ASP E 181       3.963 -25.342  30.393  1.00 48.75 LIG-0.34  N 
ATOM      9 H    ASP E 181       3.352 -24.790  30.641  1.00 48.75 LIG 0.16  HD
BRANCH 8 10
ATOM     10  CA  ASP E 181       4.869 -25.779  31.451  1.00 45.01 LIG 0.19  C 
BRANCH 10 11
ATOM     11  C   ASP E 181       6.322 -25.398  31.185  1.00 47.33 LIG 0.24  C 
ATOM     12 O    ASP E 181       6.762 -25.294  30.033  1.00 41.27 LIG-0.27  OA
ATOM     13  N   MET E 182       7.062 -25.211  32.274  1.00 63.00 LIG-0.35  N 
ATOM     14 H    MET E 182       6.772 -25.347  33.072  1.00 63.00 LIG 0.16  HD
BRANCH 13 15
ATOM     15  CA  MET E 182       8.444 -24.757  32.219  1.00 43.88 LIG 0.16  C 
BRANCH 15 16
ATOM     16  CB  MET E 182       9.209 -25.539  31.151  1.00 44.38 LIG 0.04  C 
BRANCH 16 17
ATOM     17  CG  MET E 182       9.784 -24.671  30.051  1.00 63.17 LIG 0.08  C 
BRANCH 17 18
ATOM     18 SD   MET E 182      11.544 -24.357  30.267  1.00101.17 LIG-0.17  SA
ATOM     19  CE  MET E 182      12.240 -25.836  29.532  1.00 68.91 LIG 0.09  C 
ENDBRANCH 17 18
ENDBRANCH 16 17
ENDBRANCH 15 16
BRANCH 15 20
ATOM     20  C   MET E 182       8.529 -23.256  31.935  1.00 60.82 LIG 0.22  C 
ATOM     21 O    MET E 182       9.564 -22.620  32.159  1.00 58.83 LIG-0.29  OA
ENDBRANCH 15 20
ENDBRANCH 13 15
ENDBRANCH 10 11
BRANCH 10 22
ATOM     22  CB  ASP E 181       4.750 -27.290  31.648  1.00 40.72 LIG 0.15  C 
BRANCH 22 23
ATOM     23  CG  ASP E 181       6.068 -28.003  31.425  1.00 40.82 LIG 0.17  C 
ATOM     24 OD1  ASP E 181       6.909 -28.028  32.352  1.00 47.44 LIG-0.65  OA
ATOM     25 OD2  ASP E 181       6.252 -28.547  30.319  1.00 24.37 LIG-0.65  OA
ENDBRANCH 22 23
ENDBRANCH 10 22
ENDBRANCH 8 10
ENDBRANCH 1 6
BRANCH 1 26
ATOM     26  N   ASP E 180       3.187 -26.111  26.906  1.00 48.48 LIG-0.34  N 
ATOM     27  C   ASP E 179       2.593 -27.304  26.836  1.00 52.76 LIG 0.24  C 
ATOM     28 O    ASP E 179       1.978 -27.835  27.762  1.00 54.54 LIG-0.27  OA
ATOM     29 H    ASP E 180       3.623 -25.781  26.243  1.00 48.48 LIG 0.16  HD
BRANCH 27 30
ATOM     30  CA  ASP E 179       2.724 -28.002  25.484  1.00 62.98 LIG 0.19  C 
BRANCH 30 31
ATOM     31  N   ASP E 179       3.693 -29.101  25.435  1.00 68.60 LIG-0.34  N 
ATOM     32  C   VAL E 178       4.668 -29.167  24.528  1.00 59.78 LIG 0.26  C 
ATOM     33 O    VAL E 178       4.712 -28.443  23.532  1.00 49.42 LIG-0.27  OA
ATOM     34 H    ASP E 179       3.574 -29.696  26.044  1.00 68.60 LIG 0.16  HD
BRANCH 32 35
ATOM     35  CA  VAL E 178       5.741 -30.233  24.773  1.00 59.92 LIG 0.40  C 
ATOM     36  N   VAL E 178       6.289 -30.750  23.523  1.00 55.12 LIG 0.61  N 
BRANCH 35 37
ATOM     37  CB  VAL E 178       6.853 -29.633  25.672  1.00 50.97 LIG 0.03  C 
ATOM     38  CG2 VAL E 178       6.263 -28.965  26.906  1.00 47.22 LIG 0.01  C 
ATOM     39  CG1 VAL E 178       7.684 -28.645  24.882  1.00 50.59 LIG 0.01  C 
ENDBRANCH 35 37
ENDBRANCH 32 35
ENDBRANCH 30 31
BRANCH 30 40
ATOM     40  CB  ASP E 179       1.347 -28.518  25.071  1.00 47.75 LIG 0.15  C 
BRANCH 40 41
ATOM     41  CG  ASP E 179       0.514 -27.458  24.393  1.00 48.80 LIG 0.17  C 
ATOM     42 OD2  ASP E 179       0.826 -27.098  23.233  1.00 55.56 LIG-0.65  OA
ATOM     43 OD1  ASP E 179      -0.453 -26.989  25.025  1.00 40.87 LIG-0.65  OA
ENDBRANCH 40 41
ENDBRANCH 30 40
ENDBRANCH 27 30
ENDBRANCH 1 26
TORSDOF 19
ENDMDL
MODEL 64
USER: ADFR SOLUTION from run 78
USER: SCORE 12.125372 LL:  -1.897 LR: -11.546 RR:   0.000 FEB:  -5.879
USER: RMSD 9.056698
USER: SEED 77
USER: STATUS no improvement in best in 38 clusters for 5 generations
USER: GENES 21
USER: genes 0 Translation |==|  0.59910 0.50197 0.49964
USER: genes 1 Rotation |==|  0.28958 0.13971 0.69302 0.69661
USER: genes 2 Torsion [C]-CA--CB-[CG] |==|  0.28769
USER: genes 3 Torsion [CA]-CB--CG-[OD1] |==|  0.48863
USER: genes 4 Torsion [N]-CA--C-[N] |==|  0.86594
USER: genes 5 Torsion [C]-N--CA-[CB] |==|  0.85350
USER: genes 6 Torsion [N]-CA--C-[N] |==|  0.91337
USER: genes 7 Torsion [C]-N--CA-[CB] |==|  0.46035
USER: genes 8 Torsion [N]-CA--CB-[CG] |==|  0.78598
USER: genes 9 Torsion [CA]-CB--CG-[SD] |==|  0.31047
USER: genes 10 Torsion [CB]-CG--SD-[CE] |==|  0.42985
USER: genes 11 Torsion [N]-CA--C-[O] |==|  0.92404
USER: genes 12 Torsion [N]-CA--CB-[CG] |==|  0.67907
USER: genes 13 Torsion [CA]-CB--CG-[OD1] |==|  0.56947
USER: genes 14 Torsion [CB]-CA--N-[C] |==|  0.26428
USER: genes 15 Torsion [N]-C--CA-[N] |==|  0.47778
USER: genes 16 Torsion [C]-CA--N-[C] |==|  0.62756
USER: genes 17 Torsion [N]-C--CA-[N] |==|  0.39379
USER: genes 18 Torsion [C]-CA--CB-[CG2] |==|  0.41256
USER: genes 19 Torsion [C]-CA--CB-[CG] |==|  0.24230
USER: genes 20 Torsion [CA]-CB--CG-[OD2] |==|  0.49796
ROOT
ATOM      1  CA  ASP E 180       4.698 -27.503  26.524  1.00 46.29 LIG 0.19  C 
ENDROOT
BRANCH 1 2
ATOM      2  CB  ASP E 180       5.258 -28.779  27.145  1.00 53.57 LIG 0.15  C 
BRANCH 2 3
ATOM      3  CG  ASP E 180       6.655 -29.093  26.663  1.00 52.91 LIG 0.17  C 
ATOM      4 OD1  ASP E 180       7.249 -30.074  27.163  1.00 53.16 LIG-0.65  OA
ATOM      5 OD2  ASP E 180       7.156 -28.366  25.782  1.00 39.91 LIG-0.65  OA
ENDBRANCH 2 3
ENDBRANCH 1 2
BRANCH 1 6
ATOM      6  C   ASP E 180       3.685 -27.859  25.427  1.00 46.16 LIG 0.24  C 
ATOM      7 O    ASP E 180       3.983 -27.741  24.236  1.00 47.92 LIG-0.27  OA
ATOM      8  N   ASP E 181       2.490 -28.294  25.815  1.00 48.75 LIG-0.34  N 
ATOM      9 H    ASP E 181       2.230 -28.343  26.633  1.00 48.75 LIG 0.16  HD
BRANCH 8 10
ATOM     10  CA  ASP E 181       1.511 -28.731  24.825  1.00 45.01 LIG 0.19  C 
BRANCH 10 11
ATOM     11  C   ASP E 181       1.888 -30.050  24.157  1.00 47.33 LIG 0.24  C 
ATOM     12 O    ASP E 181       1.025 -30.853  23.780  1.00 41.27 LIG-0.27  OA
ATOM     13  N   MET E 182       3.195 -30.265  24.035  1.00 63.00 LIG-0.35  N 
ATOM     14 H    MET E 182       3.793 -29.736  24.354  1.00 63.00 LIG 0.16  HD
BRANCH 13 15
ATOM     15  CA  MET E 182       3.742 -31.423  23.345  1.00 43.88 LIG 0.16  C 
BRANCH 15 16
ATOM     16  CB  MET E 182       5.230 -31.212  23.066  1.00 44.38 LIG 0.04  C 
BRANCH 16 17
ATOM     17  CG  MET E 182       5.508 -30.283  21.902  1.00 63.17 LIG 0.08  C 
BRANCH 17 18
ATOM     18 SD   MET E 182       6.251 -28.726  22.422  1.00101.17 LIG-0.17  SA
ATOM     19  CE  MET E 182       7.116 -28.253  20.926  1.00 68.91 LIG 0.09  C 
ENDBRANCH 17 18
ENDBRANCH 16 17
ENDBRANCH 15 16
BRANCH 15 20
ATOM     20  C   MET E 182       3.533 -32.706  24.152  1.00 60.82 LIG 0.22  C 
ATOM     21 O    MET E 182       3.443 -32.680  25.384  1.00 58.83 LIG-0.29  OA
ENDBRANCH 15 20
ENDBRANCH 13 15
ENDBRANCH 10 11
BRANCH 10 22
ATOM     22  CB  ASP E 181       1.316 -27.645  23.769  1.00 40.72 LIG 0.15  C 
BRANCH 22 23
ATOM     23  CG  ASP E 181      -0.088 -27.077  23.781  1.00 40.82 LIG 0.17  C 
ATOM     24 OD1  ASP E 181      -0.543 -26.561  22.735  1.00 47.44 LIG-0.65  OA
ATOM     25 OD2  ASP E 181      -0.738 -27.161  24.841  1.00 24.37 LIG-0.65  OA
ENDBRANCH 22 23
ENDBRANCH 10 22
ENDBRANCH 8 10
ENDBRANCH 1 6
BRANCH 1 26
ATOM     26  N   ASP E 180       4.054 -26.649  27.526  1.00 48.48 LIG-0.34  N 
ATOM     27  C   ASP E 179       4.633 -25.630  28.166  1.00 52.76 LIG 0.24  C 
ATOM     28 O    ASP E 179       5.806 -25.286  28.015  1.00 54.54 LIG-0.27  OA
ATOM     29 H    ASP E 180       3.236 -26.870  27.671  1.00 48.48 LIG 0.16  HD
BRANCH 27 30
ATOM     30  CA  ASP E 179       3.718 -24.885  29.135  1.00 62.98 LIG 0.19  C 
BRANCH 30 31
ATOM     31  N   ASP E 179       4.378 -23.885  29.980  1.00 68.60 LIG-0.34  N 
ATOM     32  C   VAL E 178       4.157 -23.785  31.290  1.00 59.78 LIG 0.26  C 
ATOM     33 O    VAL E 178       3.233 -24.364  31.865  1.00 49.42 LIG-0.27  OA
ATOM     34 H    ASP E 179       4.919 -23.372  29.552  1.00 68.60 LIG 0.16  HD
BRANCH 32 35
ATOM     35  CA  VAL E 178       5.110 -22.868  32.064  1.00 59.92 LIG 0.40  C 
ATOM     36  N   VAL E 178       4.417 -22.115  33.104  1.00 55.12 LIG 0.61  N 
BRANCH 35 37
ATOM     37  CB  VAL E 178       6.261 -23.721  32.657  1.00 50.97 LIG 0.03  C 
ATOM     38  CG2 VAL E 178       7.553 -22.921  32.737  1.00 47.22 LIG 0.01  C 
ATOM     39  CG1 VAL E 178       6.463 -24.972  31.828  1.00 50.59 LIG 0.01  C 
ENDBRANCH 35 37
ENDBRANCH 32 35
ENDBRANCH 30 31
BRANCH 30 40
ATOM     40  CB  ASP E 179       2.603 -24.218  28.331  1.00 47.75 LIG 0.15  C 
BRANCH 40 41
ATOM     41  CG  ASP E 179       1.426 -25.134  28.110  1.00 48.80 LIG 0.17  C 
ATOM     42 OD2  ASP E 179       0.435 -24.699  27.474  1.00 55.56 LIG-0.65  OA
ATOM     43 OD1  ASP E 179       1.495 -26.290  28.573  1.00 40.87 LIG-0.65  OA
ENDBRANCH 40 41
ENDBRANCH 30 40
ENDBRANCH 27 30
ENDBRANCH 1 26
TORSDOF 19
ENDMDL
MODEL 65
USER: ADFR SOLUTION from run 119
USER: SCORE 12.408221 LL:  -2.650 LR: -11.545 RR:   0.000 FEB:  -5.877
USER: RMSD 9.382318
USER: SEED 118
USER: STATUS no improvement in best in 15 clusters for 5 generations
USER: GENES 21
USER: genes 0 Translation |==|  0.32718 0.63381 0.61216
USER: genes 1 Rotation |==|  0.84000 0.81929 0.62808 0.62668
USER: genes 2 Torsion [C]-CA--CB-[CG] |==|  0.77926
USER: genes 3 Torsion [CA]-CB--CG-[OD1] |==|  0.79271
USER: genes 4 Torsion [N]-CA--C-[N] |==|  0.32209
USER: genes 5 Torsion [C]-N--CA-[CB] |==|  0.47794
USER: genes 6 Torsion [N]-CA--C-[N] |==|  0.34526
USER: genes 7 Torsion [C]-N--CA-[CB] |==|  0.31064
USER: genes 8 Torsion [N]-CA--CB-[CG] |==|  0.94253
USER: genes 9 Torsion [CA]-CB--CG-[SD] |==|  0.44447
USER: genes 10 Torsion [CB]-CG--SD-[CE] |==|  0.16543
USER: genes 11 Torsion [N]-CA--C-[O] |==|  0.64710
USER: genes 12 Torsion [N]-CA--CB-[CG] |==|  0.49038
USER: genes 13 Torsion [CA]-CB--CG-[OD1] |==|  0.59876
USER: genes 14 Torsion [CB]-CA--N-[C] |==|  0.55077
USER: genes 15 Torsion [N]-C--CA-[N] |==|  0.95124
USER: genes 16 Torsion [C]-CA--N-[C] |==|  0.67511
USER: genes 17 Torsion [N]-C--CA-[N] |==|  0.95778
USER: genes 18 Torsion [C]-CA--CB-[CG2] |==|  0.49193
USER: genes 19 Torsion [C]-CA--CB-[CG] |==|  0.17345
USER: genes 20 Torsion [CA]-CB--CG-[OD2] |==|  0.71695
ROOT
ATOM      1  CA  ASP E 180      -1.217 -25.328  28.802  1.00 46.29 LIG 0.19  C 
ENDROOT
BRANCH 1 2
ATOM      2  CB  ASP E 180      -2.196 -26.471  28.556  1.00 53.57 LIG 0.15  C 
BRANCH 2 3
ATOM      3  CG  ASP E 180      -2.835 -26.403  27.189  1.00 52.91 LIG 0.17  C 
ATOM      4 OD1  ASP E 180      -3.723 -25.544  26.989  1.00 53.16 LIG-0.65  OA
ATOM      5 OD2  ASP E 180      -2.446 -27.201  26.311  1.00 39.91 LIG-0.65  OA
ENDBRANCH 2 3
ENDBRANCH 1 2
BRANCH 1 6
ATOM      6  C   ASP E 180       0.121 -25.631  28.114  1.00 46.16 LIG 0.24  C 
ATOM      7 O    ASP E 180       0.172 -25.812  26.896  1.00 47.92 LIG-0.27  OA
ATOM      8  N   ASP E 181       1.205 -25.686  28.881  1.00 48.75 LIG-0.34  N 
ATOM      9 H    ASP E 181       1.202 -25.613  29.738  1.00 48.75 LIG 0.16  HD
BRANCH 8 10
ATOM     10  CA  ASP E 181       2.521 -25.883  28.281  1.00 45.01 LIG 0.19  C 
BRANCH 10 11
ATOM     11  C   ASP E 181       2.665 -27.238  27.596  1.00 47.33 LIG 0.24  C 
ATOM     12 O    ASP E 181       2.473 -28.296  28.209  1.00 41.27 LIG-0.27  OA
ATOM     13  N   MET E 182       3.027 -27.186  26.317  1.00 63.00 LIG-0.35  N 
ATOM     14 H    MET E 182       3.222 -26.454  25.910  1.00 63.00 LIG 0.16  HD
BRANCH 13 15
ATOM     15  CA  MET E 182       3.127 -28.371  25.477  1.00 43.88 LIG 0.16  C 
BRANCH 15 16
ATOM     16  CB  MET E 182       2.035 -28.348  24.409  1.00 44.38 LIG 0.04  C 
BRANCH 16 17
ATOM     17  CG  MET E 182       0.864 -27.448  24.749  1.00 63.17 LIG 0.08  C 
BRANCH 17 18
ATOM     18 SD   MET E 182      -0.098 -26.986  23.298  1.00101.17 LIG-0.17  SA
ATOM     19  CE  MET E 182      -0.608 -28.600  22.709  1.00 68.91 LIG 0.09  C 
ENDBRANCH 17 18
ENDBRANCH 16 17
ENDBRANCH 15 16
BRANCH 15 20
ATOM     20  C   MET E 182       4.505 -28.477  24.822  1.00 60.82 LIG 0.22  C 
ATOM     21 O    MET E 182       4.624 -28.617  23.600  1.00 58.83 LIG-0.29  OA
ENDBRANCH 15 20
ENDBRANCH 13 15
ENDBRANCH 10 11
BRANCH 10 22
ATOM     22  CB  ASP E 181       3.608 -25.713  29.341  1.00 40.72 LIG 0.15  C 
BRANCH 22 23
ATOM     23  CG  ASP E 181       4.993 -25.989  28.793  1.00 40.82 LIG 0.17  C 
ATOM     24 OD1  ASP E 181       5.840 -26.539  29.532  1.00 47.44 LIG-0.65  OA
ATOM     25 OD2  ASP E 181       5.224 -25.661  27.612  1.00 24.37 LIG-0.65  OA
ENDBRANCH 22 23
ENDBRANCH 10 22
ENDBRANCH 8 10
ENDBRANCH 1 6
BRANCH 1 26
ATOM     26  N   ASP E 180      -1.740 -24.049  28.313  1.00 48.48 LIG-0.34  N 
ATOM     27  C   ASP E 179      -1.015 -22.956  28.067  1.00 52.76 LIG 0.24  C 
ATOM     28 O    ASP E 179       0.201 -22.869  28.244  1.00 54.54 LIG-0.27  OA
ATOM     29 H    ASP E 180      -2.592 -24.066  28.194  1.00 48.48 LIG 0.16  HD
BRANCH 27 30
ATOM     30  CA  ASP E 179      -1.813 -21.770  27.530  1.00 62.98 LIG 0.19  C 
BRANCH 30 31
ATOM     31  N   ASP E 179      -3.135 -22.095  26.988  1.00 68.60 LIG-0.34  N 
ATOM     32  C   VAL E 178      -3.461 -21.904  25.710  1.00 59.78 LIG 0.26  C 
ATOM     33 O    VAL E 178      -2.772 -21.244  24.930  1.00 49.42 LIG-0.27  OA
ATOM     34 H    ASP E 179      -3.678 -22.421  27.570  1.00 68.60 LIG 0.16  HD
BRANCH 32 35
ATOM     35  CA  VAL E 178      -4.782 -22.530  25.253  1.00 59.92 LIG 0.40  C 
ATOM     36  N   VAL E 178      -5.273 -23.521  26.206  1.00 55.12 LIG 0.61  N 
BRANCH 35 37
ATOM     37  CB  VAL E 178      -5.823 -21.404  25.023  1.00 50.97 LIG 0.03  C 
ATOM     38  CG2 VAL E 178      -7.136 -21.967  24.498  1.00 47.22 LIG 0.01  C 
ATOM     39  CG1 VAL E 178      -5.269 -20.371  24.065  1.00 50.59 LIG 0.01  C 
ENDBRANCH 35 37
ENDBRANCH 32 35
ENDBRANCH 30 31
BRANCH 30 40
ATOM     40  CB  ASP E 179      -1.960 -20.740  28.649  1.00 47.75 LIG 0.15  C 
BRANCH 40 41
ATOM     41  CG  ASP E 179      -0.631 -20.192  29.106  1.00 48.80 LIG 0.17  C 
ATOM     42 OD2  ASP E 179      -0.134 -20.628  30.172  1.00 55.56 LIG-0.65  OA
ATOM     43 OD1  ASP E 179      -0.085 -19.327  28.393  1.00 40.87 LIG-0.65  OA
ENDBRANCH 40 41
ENDBRANCH 30 40
ENDBRANCH 27 30
ENDBRANCH 1 26
TORSDOF 19
ENDMDL
MODEL 66
USER: ADFR SOLUTION from run 184
USER: SCORE 12.376550 LL:  -2.319 LR: -11.535 RR:   0.000 FEB:  -5.867
USER: RMSD 7.678978
USER: SEED 183
USER: STATUS no improvement in best in 13 clusters for 5 generations
USER: GENES 21
USER: genes 0 Translation |==|  0.53987 0.62900 0.62034
USER: genes 1 Rotation |==|  0.06489 0.59284 0.27212 0.51144
USER: genes 2 Torsion [C]-CA--CB-[CG] |==|  0.23674
USER: genes 3 Torsion [CA]-CB--CG-[OD1] |==|  0.86346
USER: genes 4 Torsion [N]-CA--C-[N] |==|  0.41111
USER: genes 5 Torsion [C]-N--CA-[CB] |==|  0.23212
USER: genes 6 Torsion [N]-CA--C-[N] |==|  0.01666
USER: genes 7 Torsion [C]-N--CA-[CB] |==|  0.22106
USER: genes 8 Torsion [N]-CA--CB-[CG] |==|  0.47030
USER: genes 9 Torsion [CA]-CB--CG-[SD] |==|  0.16675
USER: genes 10 Torsion [CB]-CG--SD-[CE] |==|  0.62468
USER: genes 11 Torsion [N]-CA--C-[O] |==|  0.39432
USER: genes 12 Torsion [N]-CA--CB-[CG] |==|  0.64773
USER: genes 13 Torsion [CA]-CB--CG-[OD1] |==|  0.46363
USER: genes 14 Torsion [CB]-CA--N-[C] |==|  0.54381
USER: genes 15 Torsion [N]-C--CA-[N] |==|  0.74377
USER: genes 16 Torsion [C]-CA--N-[C] |==|  0.68979
USER: genes 17 Torsion [N]-C--CA-[N] |==|  0.25324
USER: genes 18 Torsion [C]-CA--CB-[CG2] |==|  0.76509
USER: genes 19 Torsion [C]-CA--CB-[CG] |==|  0.68618
USER: genes 20 Torsion [CA]-CB--CG-[OD2] |==|  0.80559
ROOT
ATOM      1  CA  ASP E 180       3.409 -25.407  28.968  1.00 46.29 LIG 0.19  C 
ENDROOT
BRANCH 1 2
ATOM      2  CB  ASP E 180       2.675 -24.169  28.466  1.00 53.57 LIG 0.15  C 
BRANCH 2 3
ATOM      3  CG  ASP E 180       1.365 -24.504  27.791  1.00 52.91 LIG 0.17  C 
ATOM      4 OD1  ASP E 180       1.359 -25.400  26.917  1.00 53.16 LIG-0.65  OA
ATOM      5 OD2  ASP E 180       0.342 -23.880  28.138  1.00 39.91 LIG-0.65  OA
ENDBRANCH 2 3
ENDBRANCH 1 2
BRANCH 1 6
ATOM      6  C   ASP E 180       4.251 -26.010  27.835  1.00 46.16 LIG 0.24  C 
ATOM      7 O    ASP E 180       5.424 -25.666  27.674  1.00 47.92 LIG-0.27  OA
ATOM      8  N   ASP E 181       3.664 -26.907  27.048  1.00 48.75 LIG-0.34  N 
ATOM      9 H    ASP E 181       2.837 -27.135  27.099  1.00 48.75 LIG 0.16  HD
BRANCH 8 10
ATOM     10  CA  ASP E 181       4.431 -27.583  26.006  1.00 45.01 LIG 0.19  C 
BRANCH 10 11
ATOM     11  C   ASP E 181       3.569 -28.038  24.833  1.00 47.33 LIG 0.24  C 
ATOM     12 O    ASP E 181       4.042 -28.709  23.906  1.00 41.27 LIG-0.27  OA
ATOM     13  N   MET E 182       2.300 -27.643  24.881  1.00 63.00 LIG-0.35  N 
ATOM     14 H    MET E 182       1.989 -27.124  25.492  1.00 63.00 LIG 0.16  HD
BRANCH 13 15
ATOM     15  CA  MET E 182       1.309 -28.055  23.898  1.00 43.88 LIG 0.16  C 
BRANCH 15 16
ATOM     16  CB  MET E 182       0.814 -29.466  24.214  1.00 44.38 LIG 0.04  C 
BRANCH 16 17
ATOM     17  CG  MET E 182      -0.397 -29.885  23.405  1.00 63.17 LIG 0.08  C 
BRANCH 17 18
ATOM     18 SD   MET E 182      -0.083 -29.870  21.631  1.00101.17 LIG-0.17  SA
ATOM     19  CE  MET E 182      -1.567 -29.061  21.036  1.00 68.91 LIG 0.09  C 
ENDBRANCH 17 18
ENDBRANCH 16 17
ENDBRANCH 15 16
BRANCH 15 20
ATOM     20  C   MET E 182       0.130 -27.081  23.850  1.00 60.82 LIG 0.22  C 
ATOM     21 O    MET E 182      -0.413 -26.785  22.781  1.00 58.83 LIG-0.29  OA
ENDBRANCH 15 20
ENDBRANCH 13 15
ENDBRANCH 10 11
BRANCH 10 22
ATOM     22  CB  ASP E 181       5.179 -28.776  26.601  1.00 40.72 LIG 0.15  C 
BRANCH 22 23
ATOM     23  CG  ASP E 181       6.660 -28.739  26.287  1.00 40.82 LIG 0.17  C 
ATOM     24 OD1  ASP E 181       7.431 -29.505  26.907  1.00 47.44 LIG-0.65  OA
ATOM     25 OD2  ASP E 181       7.046 -27.946  25.406  1.00 24.37 LIG-0.65  OA
ENDBRANCH 22 23
ENDBRANCH 10 22
ENDBRANCH 8 10
ENDBRANCH 1 6
BRANCH 1 26
ATOM     26  N   ASP E 180       4.275 -25.100  30.110  1.00 48.48 LIG-0.34  N 
ATOM     27  C   ASP E 179       5.253 -25.881  30.576  1.00 52.76 LIG 0.24  C 
ATOM     28 O    ASP E 179       5.543 -26.986  30.119  1.00 54.54 LIG-0.27  OA
ATOM     29 H    ASP E 180       4.091 -24.340  30.468  1.00 48.48 LIG 0.16  HD
BRANCH 27 30
ATOM     30  CA  ASP E 179       6.023 -25.298  31.759  1.00 62.98 LIG 0.19  C 
BRANCH 30 31
ATOM     31  N   ASP E 179       7.223 -24.531  31.412  1.00 68.60 LIG-0.34  N 
ATOM     32  C   VAL E 178       8.456 -24.948  31.698  1.00 59.78 LIG 0.26  C 
ATOM     33 O    VAL E 178       8.691 -25.889  32.459  1.00 49.42 LIG-0.27  OA
ATOM     34 H    ASP E 179       7.057 -23.791  31.009  1.00 68.60 LIG 0.16  HD
BRANCH 32 35
ATOM     35  CA  VAL E 178       9.598 -24.164  31.044  1.00 59.92 LIG 0.40  C 
ATOM     36  N   VAL E 178      10.058 -23.067  31.888  1.00 55.12 LIG 0.61  N 
BRANCH 35 37
ATOM     37  CB  VAL E 178      10.754 -25.142  30.708  1.00 50.97 LIG 0.03  C 
ATOM     38  CG2 VAL E 178      11.661 -25.355  31.912  1.00 47.22 LIG 0.01  C 
ATOM     39  CG1 VAL E 178      11.551 -24.621  29.531  1.00 50.59 LIG 0.01  C 
ENDBRANCH 35 37
ENDBRANCH 32 35
ENDBRANCH 30 31
BRANCH 30 40
ATOM     40  CB  ASP E 179       5.072 -24.417  32.569  1.00 47.75 LIG 0.15  C 
BRANCH 40 41
ATOM     41  CG  ASP E 179       5.446 -22.957  32.507  1.00 48.80 LIG 0.17  C 
ATOM     42 OD2  ASP E 179       6.487 -22.578  33.095  1.00 55.56 LIG-0.65  OA
ATOM     43 OD1  ASP E 179       4.696 -22.193  31.868  1.00 40.87 LIG-0.65  OA
ENDBRANCH 40 41
ENDBRANCH 30 40
ENDBRANCH 27 30
ENDBRANCH 1 26
TORSDOF 19
ENDMDL
MODEL 67
USER: ADFR SOLUTION from run 44
USER: SCORE 12.148327 LL:  -2.602 LR: -11.536 RR:   0.000 FEB:  -5.869
USER: RMSD 9.405940
USER: SEED 43
USER: STATUS no improvement in best in 8 clusters for 5 generations
USER: GENES 21
USER: genes 0 Translation |==|  0.51211 0.62062 0.57022
USER: genes 1 Rotation |==|  0.62760 0.85686 0.17401 0.51003
USER: genes 2 Torsion [C]-CA--CB-[CG] |==|  0.19728
USER: genes 3 Torsion [CA]-CB--CG-[OD1] |==|  0.56874
USER: genes 4 Torsion [N]-CA--C-[N] |==|  0.16968
USER: genes 5 Torsion [C]-N--CA-[CB] |==|  0.49639
USER: genes 6 Torsion [N]-CA--C-[N] |==|  0.92694
USER: genes 7 Torsion [C]-N--CA-[CB] |==|  0.83003
USER: genes 8 Torsion [N]-CA--CB-[CG] |==|  0.86708
USER: genes 9 Torsion [CA]-CB--CG-[SD] |==|  0.46258
USER: genes 10 Torsion [CB]-CG--SD-[CE] |==|  0.61152
USER: genes 11 Torsion [N]-CA--C-[O] |==|  0.12679
USER: genes 12 Torsion [N]-CA--CB-[CG] |==|  0.92515
USER: genes 13 Torsion [CA]-CB--CG-[OD1] |==|  0.91800
USER: genes 14 Torsion [CB]-CA--N-[C] |==|  0.77222
USER: genes 15 Torsion [N]-C--CA-[N] |==|  0.07178
USER: genes 16 Torsion [C]-CA--N-[C] |==|  0.62839
USER: genes 17 Torsion [N]-C--CA-[N] |==|  0.37089
USER: genes 18 Torsion [C]-CA--CB-[CG2] |==|  0.66795
USER: genes 19 Torsion [C]-CA--CB-[CG] |==|  0.56246
USER: genes 20 Torsion [CA]-CB--CG-[OD2] |==|  0.19335
ROOT
ATOM      1  CA  ASP E 180       2.805 -25.546  27.953  1.00 46.29 LIG 0.19  C 
ENDROOT
BRANCH 1 2
ATOM      2  CB  ASP E 180       3.664 -25.538  29.214  1.00 53.57 LIG 0.15  C 
BRANCH 2 3
ATOM      3  CG  ASP E 180       5.139 -25.658  28.912  1.00 52.91 LIG 0.17  C 
ATOM      4 OD1  ASP E 180       5.891 -26.126  29.795  1.00 53.16 LIG-0.65  OA
ATOM      5 OD2  ASP E 180       5.547 -25.293  27.790  1.00 39.91 LIG-0.65  OA
ENDBRANCH 2 3
ENDBRANCH 1 2
BRANCH 1 6
ATOM      6  C   ASP E 180       2.803 -26.949  27.332  1.00 46.16 LIG 0.24  C 
ATOM      7 O    ASP E 180       3.373 -27.885  27.897  1.00 47.92 LIG-0.27  OA
ATOM      8  N   ASP E 181       2.167 -27.105  26.176  1.00 48.75 LIG-0.34  N 
ATOM      9 H    ASP E 181       1.801 -26.468  25.729  1.00 48.75 LIG 0.16  HD
BRANCH 8 10
ATOM     10  CA  ASP E 181       2.051 -28.430  25.574  1.00 45.01 LIG 0.19  C 
BRANCH 10 11
ATOM     11  C   ASP E 181       3.404 -29.086  25.315  1.00 47.33 LIG 0.24  C 
ATOM     12 O    ASP E 181       3.531 -30.317  25.292  1.00 41.27 LIG-0.27  OA
ATOM     13  N   MET E 182       4.415 -28.240  25.139  1.00 63.00 LIG-0.35  N 
ATOM     14 H    MET E 182       4.337 -27.388  25.219  1.00 63.00 LIG 0.16  HD
BRANCH 13 15
ATOM     15  CA  MET E 182       5.759 -28.679  24.793  1.00 43.88 LIG 0.16  C 
BRANCH 15 16
ATOM     16  CB  MET E 182       6.313 -29.583  25.894  1.00 44.38 LIG 0.04  C 
BRANCH 16 17
ATOM     17  CG  MET E 182       6.135 -29.024  27.292  1.00 63.17 LIG 0.08  C 
BRANCH 17 18
ATOM     18 SD   MET E 182       6.435 -30.256  28.572  1.00101.17 LIG-0.17  SA
ATOM     19  CE  MET E 182       5.130 -29.856  29.732  1.00 68.91 LIG 0.09  C 
ENDBRANCH 17 18
ENDBRANCH 16 17
ENDBRANCH 15 16
BRANCH 15 20
ATOM     20  C   MET E 182       5.780 -29.411  23.450  1.00 60.82 LIG 0.22  C 
ATOM     21 O    MET E 182       5.183 -28.960  22.466  1.00 58.83 LIG-0.29  OA
ENDBRANCH 15 20
ENDBRANCH 13 15
ENDBRANCH 10 11
BRANCH 10 22
ATOM     22  CB  ASP E 181       1.253 -28.344  24.273  1.00 40.72 LIG 0.15  C 
BRANCH 22 23
ATOM     23  CG  ASP E 181       0.284 -27.180  24.270  1.00 40.82 LIG 0.17  C 
ATOM     24 OD1  ASP E 181      -0.197 -26.788  25.357  1.00 47.44 LIG-0.65  OA
ATOM     25 OD2  ASP E 181       0.016 -26.652  23.173  1.00 24.37 LIG-0.65  OA
ENDBRANCH 22 23
ENDBRANCH 10 22
ENDBRANCH 8 10
ENDBRANCH 1 6
BRANCH 1 26
ATOM     26  N   ASP E 180       1.427 -25.132  28.232  1.00 48.48 LIG-0.34  N 
ATOM     27  C   ASP E 179       0.462 -25.918  28.715  1.00 52.76 LIG 0.24  C 
ATOM     28 O    ASP E 179       0.598 -27.115  28.970  1.00 54.54 LIG-0.27  OA
ATOM     29 H    ASP E 180       1.289 -24.303  28.050  1.00 48.48 LIG 0.16  HD
BRANCH 27 30
ATOM     30  CA  ASP E 179      -0.875 -25.217  28.944  1.00 62.98 LIG 0.19  C 
BRANCH 30 31
ATOM     31  N   ASP E 179      -1.118 -24.038  28.108  1.00 68.60 LIG-0.34  N 
ATOM     32  C   VAL E 178      -1.586 -22.889  28.595  1.00 59.78 LIG 0.26  C 
ATOM     33 O    VAL E 178      -2.057 -22.779  29.729  1.00 49.42 LIG-0.27  OA
ATOM     34 H    ASP E 179      -0.932 -24.157  27.277  1.00 68.60 LIG 0.16  HD
BRANCH 32 35
ATOM     35  CA  VAL E 178      -1.539 -21.689  27.644  1.00 59.92 LIG 0.40  C 
ATOM     36  N   VAL E 178      -2.797 -20.950  27.638  1.00 55.12 LIG 0.61  N 
BRANCH 35 37
ATOM     37  CB  VAL E 178      -0.350 -20.776  28.042  1.00 50.97 LIG 0.03  C 
ATOM     38  CG2 VAL E 178      -0.829 -19.383  28.423  1.00 47.22 LIG 0.01  C 
ATOM     39  CG1 VAL E 178       0.651 -20.701  26.908  1.00 50.59 LIG 0.01  C 
ENDBRANCH 35 37
ENDBRANCH 32 35
ENDBRANCH 30 31
BRANCH 30 40
ATOM     40  CB  ASP E 179      -1.996 -26.234  28.731  1.00 47.75 LIG 0.15  C 
BRANCH 40 41
ATOM     41  CG  ASP E 179      -3.312 -25.578  28.398  1.00 48.80 LIG 0.17  C 
ATOM     42 OD2  ASP E 179      -3.440 -25.016  27.283  1.00 55.56 LIG-0.65  OA
ATOM     43 OD1  ASP E 179      -4.219 -25.628  29.253  1.00 40.87 LIG-0.65  OA
ENDBRANCH 40 41
ENDBRANCH 30 40
ENDBRANCH 27 30
ENDBRANCH 1 26
TORSDOF 19
ENDMDL
MODEL 68
USER: ADFR SOLUTION from run 85
USER: SCORE 12.034441 LL:  -2.043 LR: -11.529 RR:   0.000 FEB:  -5.861
USER: RMSD 8.285533
USER: SEED 84
USER: STATUS searching
USER: GENES 21
USER: genes 0 Translation |==|  0.58551 0.50056 0.47139
USER: genes 1 Rotation |==|  0.30590 0.12998 0.71879 0.66596
USER: genes 2 Torsion [C]-CA--CB-[CG] |==|  0.29869
USER: genes 3 Torsion [CA]-CB--CG-[OD1] |==|  0.98083
USER: genes 4 Torsion [N]-CA--C-[N] |==|  0.00724
USER: genes 5 Torsion [C]-N--CA-[CB] |==|  0.20325
USER: genes 6 Torsion [N]-CA--C-[N] |==|  0.45000
USER: genes 7 Torsion [C]-N--CA-[CB] |==|  0.51450
USER: genes 8 Torsion [N]-CA--CB-[CG] |==|  0.41944
USER: genes 9 Torsion [CA]-CB--CG-[SD] |==|  0.25379
USER: genes 10 Torsion [CB]-CG--SD-[CE] |==|  0.66868
USER: genes 11 Torsion [N]-CA--C-[O] |==|  0.38018
USER: genes 12 Torsion [N]-CA--CB-[CG] |==|  0.57711
USER: genes 13 Torsion [CA]-CB--CG-[OD1] |==|  0.97752
USER: genes 14 Torsion [CB]-CA--N-[C] |==|  0.19618
USER: genes 15 Torsion [N]-C--CA-[N] |==|  0.49325
USER: genes 16 Torsion [C]-CA--N-[C] |==|  0.56697
USER: genes 17 Torsion [N]-C--CA-[N] |==|  0.59713
USER: genes 18 Torsion [C]-CA--CB-[CG2] |==|  0.78659
USER: genes 19 Torsion [C]-CA--CB-[CG] |==|  0.29695
USER: genes 20 Torsion [CA]-CB--CG-[OD2] |==|  0.33798
ROOT
ATOM      1  CA  ASP E 180       4.402 -27.527  25.952  1.00 46.29 LIG 0.19  C 
ENDROOT
BRANCH 1 2
ATOM      2  CB  ASP E 180       5.120 -28.646  26.698  1.00 53.57 LIG 0.15  C 
BRANCH 2 3
ATOM      3  CG  ASP E 180       6.589 -28.722  26.356  1.00 52.91 LIG 0.17  C 
ATOM      4 OD1  ASP E 180       7.025 -27.988  25.441  1.00 53.16 LIG-0.65  OA
ATOM      5 OD2  ASP E 180       7.310 -29.507  27.006  1.00 39.91 LIG-0.65  OA
ENDBRANCH 2 3
ENDBRANCH 1 2
BRANCH 1 6
ATOM      6  C   ASP E 180       3.500 -28.121  24.861  1.00 46.16 LIG 0.24  C 
ATOM      7 O    ASP E 180       3.962 -28.892  24.017  1.00 47.92 LIG-0.27  OA
ATOM      8  N   ASP E 181       2.217 -27.772  24.871  1.00 48.75 LIG-0.34  N 
ATOM      9 H    ASP E 181       1.870 -27.201  25.413  1.00 48.75 LIG 0.16  HD
BRANCH 8 10
ATOM     10  CA  ASP E 181       1.287 -28.367  23.918  1.00 45.01 LIG 0.19  C 
BRANCH 10 11
ATOM     11  C   ASP E 181      -0.019 -27.587  23.793  1.00 47.33 LIG 0.24  C 
ATOM     12 O    ASP E 181      -0.378 -26.786  24.666  1.00 41.27 LIG-0.27  OA
ATOM     13  N   MET E 182      -0.729 -27.851  22.700  1.00 63.00 LIG-0.35  N 
ATOM     14 H    MET E 182      -0.510 -28.453  22.127  1.00 63.00 LIG 0.16  HD
BRANCH 13 15
ATOM     15  CA  MET E 182      -1.954 -27.139  22.366  1.00 43.88 LIG 0.16  C 
BRANCH 15 16
ATOM     16  CB  MET E 182      -2.598 -27.759  21.126  1.00 44.38 LIG 0.04  C 
BRANCH 16 17
ATOM     17  CG  MET E 182      -4.106 -27.617  21.084  1.00 63.17 LIG 0.08  C 
BRANCH 17 18
ATOM     18 SD   MET E 182      -4.636 -26.126  20.224  1.00101.17 LIG-0.17  SA
ATOM     19  CE  MET E 182      -5.521 -25.282  21.534  1.00 68.91 LIG 0.09  C 
ENDBRANCH 17 18
ENDBRANCH 16 17
ENDBRANCH 15 16
BRANCH 15 20
ATOM     20  C   MET E 182      -2.942 -27.149  23.534  1.00 60.82 LIG 0.22  C 
ATOM     21 O    MET E 182      -3.569 -26.132  23.851  1.00 58.83 LIG-0.29  OA
ENDBRANCH 15 20
ENDBRANCH 13 15
ENDBRANCH 10 11
BRANCH 10 22
ATOM     22  CB  ASP E 181       0.996 -29.816  24.307  1.00 40.72 LIG 0.15  C 
BRANCH 22 23
ATOM     23  CG  ASP E 181       0.633 -30.671  23.111  1.00 40.82 LIG 0.17  C 
ATOM     24 OD1  ASP E 181       0.456 -30.119  22.002  1.00 47.44 LIG-0.65  OA
ATOM     25 OD2  ASP E 181       0.538 -31.901  23.286  1.00 24.37 LIG-0.65  OA
ENDBRANCH 22 23
ENDBRANCH 10 22
ENDBRANCH 8 10
ENDBRANCH 1 6
BRANCH 1 26
ATOM     26  N   ASP E 180       3.597 -26.700  26.856  1.00 48.48 LIG-0.34  N 
ATOM     27  C   ASP E 179       4.077 -25.850  27.766  1.00 52.76 LIG 0.24  C 
ATOM     28 O    ASP E 179       5.275 -25.663  27.985  1.00 54.54 LIG-0.27  OA
ATOM     29 H    ASP E 180       2.752 -26.817  26.744  1.00 48.48 LIG 0.16  HD
BRANCH 27 30
ATOM     30  CA  ASP E 179       3.011 -25.089  28.552  1.00 62.98 LIG 0.19  C 
BRANCH 30 31
ATOM     31  N   ASP E 179       3.519 -24.191  29.594  1.00 68.60 LIG-0.34  N 
ATOM     32  C   VAL E 178       2.793 -23.823  30.649  1.00 59.78 LIG 0.26  C 
ATOM     33 O    VAL E 178       1.579 -24.020  30.734  1.00 49.42 LIG-0.27  OA
ATOM     34 H    ASP E 179       4.326 -23.926  29.460  1.00 68.60 LIG 0.16  HD
BRANCH 32 35
ATOM     35  CA  VAL E 178       3.551 -23.098  31.765  1.00 59.92 LIG 0.40  C 
ATOM     36  N   VAL E 178       3.031 -23.436  33.086  1.00 55.12 LIG 0.61  N 
BRANCH 35 37
ATOM     37  CB  VAL E 178       5.061 -23.433  31.650  1.00 50.97 LIG 0.03  C 
ATOM     38  CG2 VAL E 178       5.356 -24.828  32.182  1.00 47.22 LIG 0.01  C 
ATOM     39  CG1 VAL E 178       5.882 -22.399  32.390  1.00 50.59 LIG 0.01  C 
ENDBRANCH 35 37
ENDBRANCH 32 35
ENDBRANCH 30 31
BRANCH 30 40
ATOM     40  CB  ASP E 179       2.159 -24.294  27.564  1.00 47.75 LIG 0.15  C 
BRANCH 40 41
ATOM     41  CG  ASP E 179       0.786 -24.889  27.379  1.00 48.80 LIG 0.17  C 
ATOM     42 OD2  ASP E 179      -0.218 -24.181  27.634  1.00 55.56 LIG-0.65  OA
ATOM     43 OD1  ASP E 179       0.714 -26.068  26.976  1.00 40.87 LIG-0.65  OA
ENDBRANCH 40 41
ENDBRANCH 30 40
ENDBRANCH 27 30
ENDBRANCH 1 26
TORSDOF 19
ENDMDL
MODEL 69
USER: ADFR SOLUTION from run 131
USER: SCORE 13.116632 LL:  -2.330 LR: -11.515 RR:   0.000 FEB:  -5.847
USER: RMSD 9.662688
USER: SEED 130
USER: STATUS no improvement in best in 23 clusters for 5 generations
USER: GENES 21
USER: genes 0 Translation |==|  0.60873 0.50526 0.50098
USER: genes 1 Rotation |==|  0.67744 0.88383 0.25444 0.60436
USER: genes 2 Torsion [C]-CA--CB-[CG] |==|  0.40067
USER: genes 3 Torsion [CA]-CB--CG-[OD1] |==|  0.49801
USER: genes 4 Torsion [N]-CA--C-[N] |==|  0.36913
USER: genes 5 Torsion [C]-N--CA-[CB] |==|  0.84444
USER: genes 6 Torsion [N]-CA--C-[N] |==|  0.45526
USER: genes 7 Torsion [C]-N--CA-[CB] |==|  0.22610
USER: genes 8 Torsion [N]-CA--CB-[CG] |==|  0.03029
USER: genes 9 Torsion [CA]-CB--CG-[SD] |==|  0.17052
USER: genes 10 Torsion [CB]-CG--SD-[CE] |==|  0.63927
USER: genes 11 Torsion [N]-CA--C-[O] |==|  0.92505
USER: genes 12 Torsion [N]-CA--CB-[CG] |==|  0.74990
USER: genes 13 Torsion [CA]-CB--CG-[OD1] |==|  0.65425
USER: genes 14 Torsion [CB]-CA--N-[C] |==|  0.84001
USER: genes 15 Torsion [N]-C--CA-[N] |==|  0.85145
USER: genes 16 Torsion [C]-CA--N-[C] |==|  0.73748
USER: genes 17 Torsion [N]-C--CA-[N] |==|  0.48390
USER: genes 18 Torsion [C]-CA--CB-[CG2] |==|  0.21077
USER: genes 19 Torsion [C]-CA--CB-[CG] |==|  0.49293
USER: genes 20 Torsion [CA]-CB--CG-[OD2] |==|  0.45440
ROOT
ATOM      1  CA  ASP E 180       4.907 -27.449  26.551  1.00 46.29 LIG 0.19  C 
ENDROOT
BRANCH 1 2
ATOM      2  CB  ASP E 180       5.094 -27.664  28.049  1.00 53.57 LIG 0.15  C 
BRANCH 2 3
ATOM      3  CG  ASP E 180       5.434 -26.387  28.781  1.00 52.91 LIG 0.17  C 
ATOM      4 OD1  ASP E 180       5.597 -26.437  30.020  1.00 53.16 LIG-0.65  OA
ATOM      5 OD2  ASP E 180       5.545 -25.335  28.118  1.00 39.91 LIG-0.65  OA
ENDBRANCH 2 3
ENDBRANCH 1 2
BRANCH 1 6
ATOM      6  C   ASP E 180       5.438 -28.665  25.779  1.00 46.16 LIG 0.24  C 
ATOM      7 O    ASP E 180       4.790 -29.713  25.738  1.00 47.92 LIG-0.27  OA
ATOM      8  N   ASP E 181       6.610 -28.535  25.166  1.00 48.75 LIG-0.34  N 
ATOM      9 H    ASP E 181       7.112 -27.838  25.212  1.00 48.75 LIG 0.16  HD
BRANCH 8 10
ATOM     10  CA  ASP E 181       7.133 -29.622  24.343  1.00 45.01 LIG 0.19  C 
BRANCH 10 11
ATOM     11  C   ASP E 181       6.310 -29.862  23.081  1.00 47.33 LIG 0.24  C 
ATOM     12 O    ASP E 181       5.161 -29.416  22.965  1.00 41.27 LIG-0.27  OA
ATOM     13  N   MET E 182       6.913 -30.591  22.147  1.00 63.00 LIG-0.35  N 
ATOM     14 H    MET E 182       7.685 -30.953  22.255  1.00 63.00 LIG 0.16  HD
BRANCH 13 15
ATOM     15  CA  MET E 182       6.319 -30.848  20.843  1.00 43.88 LIG 0.16  C 
BRANCH 15 16
ATOM     16  CB  MET E 182       6.554 -29.654  19.918  1.00 44.38 LIG 0.04  C 
BRANCH 16 17
ATOM     17  CG  MET E 182       7.540 -28.641  20.464  1.00 63.17 LIG 0.08  C 
BRANCH 17 18
ATOM     18 SD   MET E 182       9.180 -29.342  20.719  1.00101.17 LIG-0.17  SA
ATOM     19  CE  MET E 182       9.508 -28.818  22.401  1.00 68.91 LIG 0.09  C 
ENDBRANCH 17 18
ENDBRANCH 16 17
ENDBRANCH 15 16
BRANCH 15 20
ATOM     20  C   MET E 182       6.882 -32.123  20.213  1.00 60.82 LIG 0.22  C 
ATOM     21 O    MET E 182       8.014 -32.531  20.494  1.00 58.83 LIG-0.29  OA
ENDBRANCH 15 20
ENDBRANCH 13 15
ENDBRANCH 10 11
BRANCH 10 22
ATOM     22  CB  ASP E 181       7.216 -30.906  25.167  1.00 40.72 LIG 0.15  C 
BRANCH 22 23
ATOM     23  CG  ASP E 181       8.552 -31.056  25.864  1.00 40.82 LIG 0.17  C 
ATOM     24 OD1  ASP E 181       9.226 -32.093  25.669  1.00 47.44 LIG-0.65  OA
ATOM     25 OD2  ASP E 181       8.929 -30.123  26.600  1.00 24.37 LIG-0.65  OA
ENDBRANCH 22 23
ENDBRANCH 10 22
ENDBRANCH 8 10
ENDBRANCH 1 6
BRANCH 1 26
ATOM     26  N   ASP E 180       3.499 -27.227  26.205  1.00 48.48 LIG-0.34  N 
ATOM     27  C   ASP E 179       2.494 -28.065  26.467  1.00 52.76 LIG 0.24  C 
ATOM     28 O    ASP E 179       2.621 -29.159  27.019  1.00 54.54 LIG-0.27  OA
ATOM     29 H    ASP E 180       3.374 -26.478  25.802  1.00 48.48 LIG 0.16  HD
BRANCH 27 30
ATOM     30  CA  ASP E 179       1.119 -27.567  26.026  1.00 62.98 LIG 0.19  C 
BRANCH 30 31
ATOM     31  N   ASP E 179       0.744 -26.238  26.519  1.00 68.60 LIG-0.34  N 
ATOM     32  C   VAL E 178       0.023 -26.054  27.625  1.00 59.78 LIG 0.26  C 
ATOM     33 O    VAL E 178      -0.571 -26.966  28.204  1.00 49.42 LIG-0.27  OA
ATOM     34 H    ASP E 179       1.031 -25.593  26.030  1.00 68.60 LIG 0.16  HD
BRANCH 32 35
ATOM     35  CA  VAL E 178      -0.061 -24.613  28.138  1.00 59.92 LIG 0.40  C 
ATOM     36  N   VAL E 178      -0.977 -24.489  29.267  1.00 55.12 LIG 0.61  N 
BRANCH 35 37
ATOM     37  CB  VAL E 178       1.364 -24.125  28.511  1.00 50.97 LIG 0.03  C 
ATOM     38  CG2 VAL E 178       2.174 -23.793  27.266  1.00 47.22 LIG 0.01  C 
ATOM     39  CG1 VAL E 178       2.073 -25.175  29.340  1.00 50.59 LIG 0.01  C 
ENDBRANCH 35 37
ENDBRANCH 32 35
ENDBRANCH 30 31
BRANCH 30 40
ATOM     40  CB  ASP E 179       1.069 -27.577  24.499  1.00 47.75 LIG 0.15  C 
BRANCH 40 41
ATOM     41  CG  ASP E 179      -0.278 -27.157  23.965  1.00 48.80 LIG 0.17  C 
ATOM     42 OD2  ASP E 179      -0.370 -26.822  22.759  1.00 55.56 LIG-0.65  OA
ATOM     43 OD1  ASP E 179      -1.243 -27.166  24.754  1.00 40.87 LIG-0.65  OA
ENDBRANCH 40 41
ENDBRANCH 30 40
ENDBRANCH 27 30
ENDBRANCH 1 26
TORSDOF 19
ENDMDL
MODEL 70
USER: ADFR SOLUTION from run 35
USER: SCORE 11.724289 LL:  -2.186 LR: -11.487 RR:   0.000 FEB:  -5.820
USER: RMSD 9.629259
USER: SEED 34
USER: STATUS no improvement in best in 15 clusters for 5 generations
USER: GENES 21
USER: genes 0 Translation |==|  0.56179 0.54513 0.52070
USER: genes 1 Rotation |==|  0.31703 0.15658 0.80867 0.55749
USER: genes 2 Torsion [C]-CA--CB-[CG] |==|  0.46546
USER: genes 3 Torsion [CA]-CB--CG-[OD1] |==|  0.45243
USER: genes 4 Torsion [N]-CA--C-[N] |==|  0.11780
USER: genes 5 Torsion [C]-N--CA-[CB] |==|  0.49726
USER: genes 6 Torsion [N]-CA--C-[N] |==|  0.45837
USER: genes 7 Torsion [C]-N--CA-[CB] |==|  0.83495
USER: genes 8 Torsion [N]-CA--CB-[CG] |==|  0.33516
USER: genes 9 Torsion [CA]-CB--CG-[SD] |==|  0.65798
USER: genes 10 Torsion [CB]-CG--SD-[CE] |==|  0.72434
USER: genes 11 Torsion [N]-CA--C-[O] |==|  0.28765
USER: genes 12 Torsion [N]-CA--CB-[CG] |==|  0.92812
USER: genes 13 Torsion [CA]-CB--CG-[OD1] |==|  0.86922
USER: genes 14 Torsion [CB]-CA--N-[C] |==|  0.81111
USER: genes 15 Torsion [N]-C--CA-[N] |==|  0.65986
USER: genes 16 Torsion [C]-CA--N-[C] |==|  0.15610
USER: genes 17 Torsion [N]-C--CA-[N] |==|  0.35834
USER: genes 18 Torsion [C]-CA--CB-[CG2] |==|  0.16239
USER: genes 19 Torsion [C]-CA--CB-[CG] |==|  0.48131
USER: genes 20 Torsion [CA]-CB--CG-[OD2] |==|  0.38470
ROOT
ATOM      1  CA  ASP E 180       3.886 -26.791  26.950  1.00 46.29 LIG 0.19  C 
ENDROOT
BRANCH 1 2
ATOM      2  CB  ASP E 180       4.713 -27.191  28.168  1.00 53.57 LIG 0.15  C 
BRANCH 2 3
ATOM      3  CG  ASP E 180       5.472 -26.028  28.760  1.00 52.91 LIG 0.17  C 
ATOM      4 OD1  ASP E 180       5.917 -26.139  29.925  1.00 53.16 LIG-0.65  OA
ATOM      5 OD2  ASP E 180       5.632 -25.006  28.062  1.00 39.91 LIG-0.65  OA
ENDBRANCH 2 3
ENDBRANCH 1 2
BRANCH 1 6
ATOM      6  C   ASP E 180       3.395 -28.048  26.218  1.00 46.16 LIG 0.24  C 
ATOM      7 O    ASP E 180       3.887 -29.150  26.466  1.00 47.92 LIG-0.27  OA
ATOM      8  N   ASP E 181       2.428 -27.893  25.319  1.00 48.75 LIG-0.34  N 
ATOM      9 H    ASP E 181       2.094 -27.135  25.085  1.00 48.75 LIG 0.16  HD
BRANCH 8 10
ATOM     10  CA  ASP E 181       1.854 -29.056  24.650  1.00 45.01 LIG 0.19  C 
BRANCH 10 11
ATOM     11  C   ASP E 181       2.894 -29.888  23.906  1.00 47.33 LIG 0.24  C 
ATOM     12 O    ASP E 181       4.018 -29.437  23.649  1.00 41.27 LIG-0.27  OA
ATOM     13  N   MET E 182       2.491 -31.104  23.549  1.00 63.00 LIG-0.35  N 
ATOM     14 H    MET E 182       1.690 -31.392  23.672  1.00 63.00 LIG 0.16  HD
BRANCH 13 15
ATOM     15  CA  MET E 182       3.373 -32.071  22.912  1.00 43.88 LIG 0.16  C 
BRANCH 15 16
ATOM     16  CB  MET E 182       3.912 -31.502  21.600  1.00 44.38 LIG 0.04  C 
BRANCH 16 17
ATOM     17  CG  MET E 182       5.424 -31.406  21.551  1.00 63.17 LIG 0.08  C 
BRANCH 17 18
ATOM     18 SD   MET E 182       5.999 -29.731  21.219  1.00101.17 LIG-0.17  SA
ATOM     19  CE  MET E 182       6.338 -29.836  19.463  1.00 68.91 LIG 0.09  C 
ENDBRANCH 17 18
ENDBRANCH 16 17
ENDBRANCH 15 16
BRANCH 15 20
ATOM     20  C   MET E 182       4.530 -32.464  23.832  1.00 60.82 LIG 0.22  C 
ATOM     21 O    MET E 182       4.537 -33.548  24.426  1.00 58.83 LIG-0.29  OA
ENDBRANCH 15 20
ENDBRANCH 13 15
ENDBRANCH 10 11
BRANCH 10 22
ATOM     22  CB  ASP E 181       0.752 -28.614  23.688  1.00 40.72 LIG 0.15  C 
BRANCH 22 23
ATOM     23  CG  ASP E 181       0.122 -27.300  24.102  1.00 40.82 LIG 0.17  C 
ATOM     24 OD1  ASP E 181      -0.218 -27.139  25.296  1.00 47.44 LIG-0.65  OA
ATOM     25 OD2  ASP E 181      -0.020 -26.424  23.226  1.00 24.37 LIG-0.65  OA
ENDBRANCH 22 23
ENDBRANCH 10 22
ENDBRANCH 8 10
ENDBRANCH 1 6
BRANCH 1 26
ATOM     26  N   ASP E 180       2.736 -25.961  27.323  1.00 48.48 LIG-0.34  N 
ATOM     27  C   ASP E 179       1.675 -26.372  28.021  1.00 52.76 LIG 0.24  C 
ATOM     28 O    ASP E 179       1.509 -27.523  28.428  1.00 54.54 LIG-0.27  OA
ATOM     29 H    ASP E 180       2.809 -25.152  27.040  1.00 48.48 LIG 0.16  HD
BRANCH 27 30
ATOM     30  CA  ASP E 179       0.637 -25.287  28.299  1.00 62.98 LIG 0.19  C 
BRANCH 30 31
ATOM     31  N   ASP E 179       0.335 -25.053  29.714  1.00 68.60 LIG-0.34  N 
ATOM     32  C   VAL E 178       1.270 -24.742  30.611  1.00 59.78 LIG 0.26  C 
ATOM     33 O    VAL E 178       2.478 -24.838  30.388  1.00 49.42 LIG-0.27  OA
ATOM     34 H    ASP E 179      -0.498 -25.134  29.909  1.00 68.60 LIG 0.16  HD
BRANCH 32 35
ATOM     35  CA  VAL E 178       0.759 -24.280  31.980  1.00 59.92 LIG 0.40  C 
ATOM     36  N   VAL E 178       1.386 -25.017  33.072  1.00 55.12 LIG 0.61  N 
BRANCH 35 37
ATOM     37  CB  VAL E 178       0.997 -22.754  32.118  1.00 50.97 LIG 0.03  C 
ATOM     38  CG2 VAL E 178       0.292 -21.985  31.010  1.00 47.22 LIG 0.01  C 
ATOM     39  CG1 VAL E 178       2.480 -22.455  32.110  1.00 50.59 LIG 0.01  C 
ENDBRANCH 35 37
ENDBRANCH 32 35
ENDBRANCH 30 31
BRANCH 30 40
ATOM     40  CB  ASP E 179       1.115 -23.985  27.657  1.00 47.75 LIG 0.15  C 
BRANCH 40 41
ATOM     41  CG  ASP E 179       0.081 -22.890  27.736  1.00 48.80 LIG 0.17  C 
ATOM     42 OD2  ASP E 179       0.457 -21.726  28.015  1.00 55.56 LIG-0.65  OA
ATOM     43 OD1  ASP E 179      -1.107 -23.198  27.515  1.00 40.87 LIG-0.65  OA
ENDBRANCH 40 41
ENDBRANCH 30 40
ENDBRANCH 27 30
ENDBRANCH 1 26
TORSDOF 19
ENDMDL
MODEL 71
USER: ADFR SOLUTION from run 81
USER: SCORE 12.752240 LL:  -3.656 LR: -11.487 RR:   0.000 FEB:  -5.819
USER: RMSD 8.369294
USER: SEED 80
USER: STATUS no improvement in best in 4 clusters for 5 generations
USER: GENES 21
USER: genes 0 Translation |==|  0.58512 0.49245 0.54580
USER: genes 1 Rotation |==|  0.45926 0.21115 0.09391 0.50130
USER: genes 2 Torsion [C]-CA--CB-[CG] |==|  0.23679
USER: genes 3 Torsion [CA]-CB--CG-[OD1] |==|  0.02567
USER: genes 4 Torsion [N]-CA--C-[N] |==|  0.25044
USER: genes 5 Torsion [C]-N--CA-[CB] |==|  0.42222
USER: genes 6 Torsion [N]-CA--C-[N] |==|  0.40563
USER: genes 7 Torsion [C]-N--CA-[CB] |==|  0.18952
USER: genes 8 Torsion [N]-CA--CB-[CG] |==|  0.62895
USER: genes 9 Torsion [CA]-CB--CG-[SD] |==|  0.57643
USER: genes 10 Torsion [CB]-CG--SD-[CE] |==|  0.08456
USER: genes 11 Torsion [N]-CA--C-[O] |==|  0.59199
USER: genes 12 Torsion [N]-CA--CB-[CG] |==|  0.82575
USER: genes 13 Torsion [CA]-CB--CG-[OD1] |==|  0.75496
USER: genes 14 Torsion [CB]-CA--N-[C] |==|  0.18136
USER: genes 15 Torsion [N]-C--CA-[N] |==|  0.97910
USER: genes 16 Torsion [C]-CA--N-[C] |==|  0.75647
USER: genes 17 Torsion [N]-C--CA-[N] |==|  0.59304
USER: genes 18 Torsion [C]-CA--CB-[CG2] |==|  0.79780
USER: genes 19 Torsion [C]-CA--CB-[CG] |==|  0.46176
USER: genes 20 Torsion [CA]-CB--CG-[OD2] |==|  0.46974
ROOT
ATOM      1  CA  ASP E 180       4.393 -27.661  27.458  1.00 46.29 LIG 0.19  C 
ENDROOT
BRANCH 1 2
ATOM      2  CB  ASP E 180       5.436 -27.922  26.377  1.00 53.57 LIG 0.15  C 
BRANCH 2 3
ATOM      3  CG  ASP E 180       6.515 -28.878  26.830  1.00 52.91 LIG 0.17  C 
ATOM      4 OD1  ASP E 180       6.362 -29.474  27.919  1.00 53.16 LIG-0.65  OA
ATOM      5 OD2  ASP E 180       7.512 -29.039  26.096  1.00 39.91 LIG-0.65  OA
ENDBRANCH 2 3
ENDBRANCH 1 2
BRANCH 1 6
ATOM      6  C   ASP E 180       4.874 -26.536  28.386  1.00 46.16 LIG 0.24  C 
ATOM      7 O    ASP E 180       5.559 -25.610  27.945  1.00 47.92 LIG-0.27  OA
ATOM      8  N   ASP E 181       4.523 -26.606  29.665  1.00 48.75 LIG-0.34  N 
ATOM      9 H    ASP E 181       4.089 -27.259  30.018  1.00 48.75 LIG 0.16  HD
BRANCH 8 10
ATOM     10  CA  ASP E 181       4.872 -25.527  30.583  1.00 45.01 LIG 0.19  C 
BRANCH 10 11
ATOM     11  C   ASP E 181       6.280 -25.664  31.156  1.00 47.33 LIG 0.24  C 
ATOM     12 O    ASP E 181       6.770 -26.773  31.406  1.00 41.27 LIG-0.27  OA
ATOM     13  N   MET E 182       6.912 -24.515  31.375  1.00 63.00 LIG-0.35  N 
ATOM     14 H    MET E 182       6.547 -23.745  31.261  1.00 63.00 LIG 0.16  HD
BRANCH 13 15
ATOM     15  CA  MET E 182       8.293 -24.450  31.833  1.00 43.88 LIG 0.16  C 
BRANCH 15 16
ATOM     16  CB  MET E 182       9.231 -24.948  30.735  1.00 44.38 LIG 0.04  C 
BRANCH 16 17
ATOM     17  CG  MET E 182      10.283 -25.924  31.224  1.00 63.17 LIG 0.08  C 
BRANCH 17 18
ATOM     18 SD   MET E 182      11.778 -25.889  30.220  1.00101.17 LIG-0.17  SA
ATOM     19  CE  MET E 182      11.779 -24.180  29.681  1.00 68.91 LIG 0.09  C 
ENDBRANCH 17 18
ENDBRANCH 16 17
ENDBRANCH 15 16
BRANCH 15 20
ATOM     20  C   MET E 182       8.677 -23.030  32.253  1.00 60.82 LIG 0.22  C 
ATOM     21 O    MET E 182       9.826 -22.604  32.093  1.00 58.83 LIG-0.29  OA
ENDBRANCH 15 20
ENDBRANCH 13 15
ENDBRANCH 10 11
BRANCH 10 22
ATOM     22  CB  ASP E 181       3.851 -25.455  31.717  1.00 40.72 LIG 0.15  C 
BRANCH 22 23
ATOM     23  CG  ASP E 181       2.459 -25.129  31.216  1.00 40.82 LIG 0.17  C 
ATOM     24 OD1  ASP E 181       2.120 -23.930  31.102  1.00 47.44 LIG-0.65  OA
ATOM     25 OD2  ASP E 181       1.710 -26.083  30.926  1.00 24.37 LIG-0.65  OA
ENDBRANCH 22 23
ENDBRANCH 10 22
ENDBRANCH 8 10
ENDBRANCH 1 6
BRANCH 1 26
ATOM     26  N   ASP E 180       3.094 -27.299  26.884  1.00 48.48 LIG-0.34  N 
ATOM     27  C   ASP E 179       2.322 -28.099  26.144  1.00 52.76 LIG 0.24  C 
ATOM     28 O    ASP E 179       2.614 -29.251  25.823  1.00 54.54 LIG-0.27  OA
ATOM     29 H    ASP E 180       2.863 -26.493  27.073  1.00 48.48 LIG 0.16  HD
BRANCH 27 30
ATOM     30  CA  ASP E 179       0.999 -27.476  25.702  1.00 62.98 LIG 0.19  C 
BRANCH 30 31
ATOM     31  N   ASP E 179       0.693 -26.169  26.290  1.00 68.60 LIG-0.34  N 
ATOM     32  C   VAL E 178       0.059 -26.029  27.454  1.00 59.78 LIG 0.26  C 
ATOM     33 O    VAL E 178      -0.513 -26.959  28.027  1.00 49.42 LIG-0.27  OA
ATOM     34 H    ASP E 179       0.959 -25.503  25.816  1.00 68.60 LIG 0.16  HD
BRANCH 32 35
ATOM     35  CA  VAL E 178       0.046 -24.617  28.047  1.00 59.92 LIG 0.40  C 
ATOM     36  N   VAL E 178       0.084 -24.637  29.505  1.00 55.12 LIG 0.61  N 
BRANCH 35 37
ATOM     37  CB  VAL E 178       1.237 -23.814  27.462  1.00 50.97 LIG 0.03  C 
ATOM     38  CG2 VAL E 178       2.560 -24.285  28.050  1.00 47.22 LIG 0.01  C 
ATOM     39  CG1 VAL E 178       1.042 -22.334  27.716  1.00 50.59 LIG 0.01  C 
ENDBRANCH 35 37
ENDBRANCH 32 35
ENDBRANCH 30 31
BRANCH 30 40
ATOM     40  CB  ASP E 179       1.005 -27.361  24.179  1.00 47.75 LIG 0.15  C 
BRANCH 40 41
ATOM     41  CG  ASP E 179      -0.366 -27.072  23.619  1.00 48.80 LIG 0.17  C 
ATOM     42 OD2  ASP E 179      -0.467 -26.750  22.410  1.00 55.56 LIG-0.65  OA
ATOM     43 OD1  ASP E 179      -1.340 -27.170  24.391  1.00 40.87 LIG-0.65  OA
ENDBRANCH 40 41
ENDBRANCH 30 40
ENDBRANCH 27 30
ENDBRANCH 1 26
TORSDOF 19
ENDMDL
MODEL 72
USER: ADFR SOLUTION from run 169
USER: SCORE 12.307382 LL:  -1.563 LR: -11.472 RR:   0.000 FEB:  -5.805
USER: RMSD 8.985927
USER: SEED 168
USER: STATUS no improvement in best in 18 clusters for 5 generations
USER: GENES 21
USER: genes 0 Translation |==|  0.42721 0.64367 0.64430
USER: genes 1 Rotation |==|  0.02806 0.58883 0.36085 0.50479
USER: genes 2 Torsion [C]-CA--CB-[CG] |==|  0.11484
USER: genes 3 Torsion [CA]-CB--CG-[OD1] |==|  0.59574
USER: genes 4 Torsion [N]-CA--C-[N] |==|  0.27369
USER: genes 5 Torsion [C]-N--CA-[CB] |==|  0.85769
USER: genes 6 Torsion [N]-CA--C-[N] |==|  0.40482
USER: genes 7 Torsion [C]-N--CA-[CB] |==|  0.29169
USER: genes 8 Torsion [N]-CA--CB-[CG] |==|  0.89915
USER: genes 9 Torsion [CA]-CB--CG-[SD] |==|  0.56582
USER: genes 10 Torsion [CB]-CG--SD-[CE] |==|  0.42613
USER: genes 11 Torsion [N]-CA--C-[O] |==|  0.08620
USER: genes 12 Torsion [N]-CA--CB-[CG] |==|  0.70847
USER: genes 13 Torsion [CA]-CB--CG-[OD1] |==|  0.31672
USER: genes 14 Torsion [CB]-CA--N-[C] |==|  0.77539
USER: genes 15 Torsion [N]-C--CA-[N] |==|  0.91166
USER: genes 16 Torsion [C]-CA--N-[C] |==|  0.71667
USER: genes 17 Torsion [N]-C--CA-[N] |==|  0.38397
USER: genes 18 Torsion [C]-CA--CB-[CG2] |==|  0.04922
USER: genes 19 Torsion [C]-CA--CB-[CG] |==|  0.11249
USER: genes 20 Torsion [CA]-CB--CG-[OD2] |==|  0.63074
ROOT
ATOM      1  CA  ASP E 180       0.959 -25.165  29.453  1.00 46.29 LIG 0.19  C 
ENDROOT
BRANCH 1 2
ATOM      2  CB  ASP E 180       0.053 -23.947  29.309  1.00 53.57 LIG 0.15  C 
BRANCH 2 3
ATOM      3  CG  ASP E 180      -0.985 -24.121  28.225  1.00 52.91 LIG 0.17  C 
ATOM      4 OD1  ASP E 180      -1.325 -23.118  27.560  1.00 53.16 LIG-0.65  OA
ATOM      5 OD2  ASP E 180      -1.457 -25.261  28.032  1.00 39.91 LIG-0.65  OA
ENDBRANCH 2 3
ENDBRANCH 1 2
BRANCH 1 6
ATOM      6  C   ASP E 180       1.333 -25.704  28.065  1.00 46.16 LIG 0.24  C 
ATOM      7 O    ASP E 180       1.621 -24.930  27.150  1.00 47.92 LIG-0.27  OA
ATOM      8  N   ASP E 181       1.333 -27.023  27.901  1.00 48.75 LIG-0.34  N 
ATOM      9 H    ASP E 181       1.091 -27.590  28.500  1.00 48.75 LIG 0.16  HD
BRANCH 8 10
ATOM     10  CA  ASP E 181       1.763 -27.605  26.633  1.00 45.01 LIG 0.19  C 
BRANCH 10 11
ATOM     11  C   ASP E 181       3.270 -27.504  26.413  1.00 47.33 LIG 0.24  C 
ATOM     12 O    ASP E 181       3.916 -26.525  26.807  1.00 41.27 LIG-0.27  OA
ATOM     13  N   MET E 182       3.811 -28.527  25.757  1.00 63.00 LIG-0.35  N 
ATOM     14 H    MET E 182       3.351 -29.174  25.428  1.00 63.00 LIG 0.16  HD
BRANCH 13 15
ATOM     15  CA  MET E 182       5.244 -28.649  25.533  1.00 43.88 LIG 0.16  C 
BRANCH 15 16
ATOM     16  CB  MET E 182       5.831 -29.709  26.464  1.00 44.38 LIG 0.04  C 
BRANCH 16 17
ATOM     17  CG  MET E 182       5.189 -29.741  27.836  1.00 63.17 LIG 0.08  C 
BRANCH 17 18
ATOM     18 SD   MET E 182       6.270 -30.454  29.089  1.00101.17 LIG-0.17  SA
ATOM     19  CE  MET E 182       5.649 -29.648  30.564  1.00 68.91 LIG 0.09  C 
ENDBRANCH 17 18
ENDBRANCH 16 17
ENDBRANCH 15 16
BRANCH 15 20
ATOM     20  C   MET E 182       5.555 -28.995  24.076  1.00 60.82 LIG 0.22  C 
ATOM     21 O    MET E 182       4.826 -28.609  23.156  1.00 58.83 LIG-0.29  OA
ENDBRANCH 15 20
ENDBRANCH 13 15
ENDBRANCH 10 11
BRANCH 10 22
ATOM     22  CB  ASP E 181       1.018 -26.941  25.476  1.00 40.72 LIG 0.15  C 
BRANCH 22 23
ATOM     23  CG  ASP E 181      -0.062 -27.833  24.902  1.00 40.82 LIG 0.17  C 
ATOM     24 OD1  ASP E 181      -1.260 -27.490  25.021  1.00 47.44 LIG-0.65  OA
ATOM     25 OD2  ASP E 181       0.296 -28.876  24.320  1.00 24.37 LIG-0.65  OA
ENDBRANCH 22 23
ENDBRANCH 10 22
ENDBRANCH 8 10
ENDBRANCH 1 6
BRANCH 1 26
ATOM     26  N   ASP E 180       2.180 -24.849  30.201  1.00 48.48 LIG-0.34  N 
ATOM     27  C   ASP E 179       3.267 -24.259  29.699  1.00 52.76 LIG 0.24  C 
ATOM     28 O    ASP E 179       3.399 -23.921  28.522  1.00 54.54 LIG-0.27  OA
ATOM     29 H    ASP E 180       2.131 -25.086  31.026  1.00 48.48 LIG 0.16  HD
BRANCH 27 30
ATOM     30  CA  ASP E 179       4.384 -24.016  30.712  1.00 62.98 LIG 0.19  C 
BRANCH 30 31
ATOM     31  N   ASP E 179       3.942 -23.755  32.085  1.00 68.60 LIG-0.34  N 
ATOM     32  C   VAL E 178       3.908 -22.533  32.614  1.00 59.78 LIG 0.26  C 
ATOM     33 O    VAL E 178       4.441 -21.554  32.088  1.00 49.42 LIG-0.27  OA
ATOM     34 H    ASP E 179       3.708 -24.462  32.514  1.00 68.60 LIG 0.16  HD
BRANCH 32 35
ATOM     35  CA  VAL E 178       3.183 -22.404  33.958  1.00 59.92 LIG 0.40  C 
ATOM     36  N   VAL E 178       3.903 -21.535  34.884  1.00 55.12 LIG 0.61  N 
BRANCH 35 37
ATOM     37  CB  VAL E 178       1.742 -21.891  33.708  1.00 50.97 LIG 0.03  C 
ATOM     38  CG2 VAL E 178       1.335 -22.082  32.254  1.00 47.22 LIG 0.01  C 
ATOM     39  CG1 VAL E 178       1.632 -20.433  34.101  1.00 50.59 LIG 0.01  C 
ENDBRANCH 35 37
ENDBRANCH 32 35
ENDBRANCH 30 31
BRANCH 30 40
ATOM     40  CB  ASP E 179       5.320 -25.224  30.698  1.00 47.75 LIG 0.15  C 
BRANCH 40 41
ATOM     41  CG  ASP E 179       5.570 -25.742  29.303  1.00 48.80 LIG 0.17  C 
ATOM     42 OD2  ASP E 179       5.481 -26.976  29.094  1.00 55.56 LIG-0.65  OA
ATOM     43 OD1  ASP E 179       5.854 -24.910  28.418  1.00 40.87 LIG-0.65  OA
ENDBRANCH 40 41
ENDBRANCH 30 40
ENDBRANCH 27 30
ENDBRANCH 1 26
TORSDOF 19
ENDMDL
MODEL 73
USER: ADFR SOLUTION from run 119
USER: SCORE 12.344796 LL:  -2.077 LR: -11.442 RR:   0.000 FEB:  -5.774
USER: RMSD 9.384053
USER: SEED 118
USER: STATUS no improvement in best in 15 clusters for 5 generations
USER: GENES 21
USER: genes 0 Translation |==|  0.34223 0.62906 0.65734
USER: genes 1 Rotation |==|  0.88248 0.77445 0.64929 0.57810
USER: genes 2 Torsion [C]-CA--CB-[CG] |==|  0.82027
USER: genes 3 Torsion [CA]-CB--CG-[OD1] |==|  0.79600
USER: genes 4 Torsion [N]-CA--C-[N] |==|  0.20102
USER: genes 5 Torsion [C]-N--CA-[CB] |==|  0.51937
USER: genes 6 Torsion [N]-CA--C-[N] |==|  0.36370
USER: genes 7 Torsion [C]-N--CA-[CB] |==|  0.28916
USER: genes 8 Torsion [N]-CA--CB-[CG] |==|  0.00192
USER: genes 9 Torsion [CA]-CB--CG-[SD] |==|  0.42932
USER: genes 10 Torsion [CB]-CG--SD-[CE] |==|  0.05755
USER: genes 11 Torsion [N]-CA--C-[O] |==|  0.67774
USER: genes 12 Torsion [N]-CA--CB-[CG] |==|  0.42736
USER: genes 13 Torsion [CA]-CB--CG-[OD1] |==|  0.66038
USER: genes 14 Torsion [CB]-CA--N-[C] |==|  0.75116
USER: genes 15 Torsion [N]-C--CA-[N] |==|  0.16219
USER: genes 16 Torsion [C]-CA--N-[C] |==|  0.74530
USER: genes 17 Torsion [N]-C--CA-[N] |==|  0.38750
USER: genes 18 Torsion [C]-CA--CB-[CG2] |==|  0.19096
USER: genes 19 Torsion [C]-CA--CB-[CG] |==|  0.74446
USER: genes 20 Torsion [CA]-CB--CG-[OD2] |==|  0.79330
ROOT
ATOM      1  CA  ASP E 180      -0.890 -25.406  29.717  1.00 46.29 LIG 0.19  C 
ENDROOT
BRANCH 1 2
ATOM      2  CB  ASP E 180      -2.055 -26.278  29.260  1.00 53.57 LIG 0.15  C 
BRANCH 2 3
ATOM      3  CG  ASP E 180      -2.500 -25.959  27.852  1.00 52.91 LIG 0.17  C 
ATOM      4 OD1  ASP E 180      -3.136 -24.899  27.656  1.00 53.16 LIG-0.65  OA
ATOM      5 OD2  ASP E 180      -2.211 -26.762  26.942  1.00 39.91 LIG-0.65  OA
ENDBRANCH 2 3
ENDBRANCH 1 2
BRANCH 1 6
ATOM      6  C   ASP E 180       0.350 -25.702  28.861  1.00 46.16 LIG 0.24  C 
ATOM      7 O    ASP E 180       0.244 -26.314  27.796  1.00 47.92 LIG-0.27  OA
ATOM      8  N   ASP E 181       1.523 -25.272  29.315  1.00 48.75 LIG-0.34  N 
ATOM      9 H    ASP E 181       1.642 -24.886  30.074  1.00 48.75 LIG 0.16  HD
BRANCH 8 10
ATOM     10  CA  ASP E 181       2.729 -25.442  28.511  1.00 45.01 LIG 0.19  C 
BRANCH 10 11
ATOM     11  C   ASP E 181       2.900 -26.866  27.989  1.00 47.33 LIG 0.24  C 
ATOM     12 O    ASP E 181       2.813 -27.844  28.742  1.00 41.27 LIG-0.27  OA
ATOM     13  N   MET E 182       3.165 -26.960  26.689  1.00 63.00 LIG-0.35  N 
ATOM     14 H    MET E 182       3.289 -26.278  26.181  1.00 63.00 LIG 0.16  HD
BRANCH 13 15
ATOM     15  CA  MET E 182       3.272 -28.237  25.998  1.00 43.88 LIG 0.16  C 
BRANCH 15 16
ATOM     16  CB  MET E 182       2.013 -28.489  25.169  1.00 44.38 LIG 0.04  C 
BRANCH 16 17
ATOM     17  CG  MET E 182       0.992 -27.372  25.252  1.00 63.17 LIG 0.08  C 
BRANCH 17 18
ATOM     18 SD   MET E 182      -0.074 -27.303  23.802  1.00101.17 LIG-0.17  SA
ATOM     19  CE  MET E 182       0.123 -28.965  23.162  1.00 68.91 LIG 0.09  C 
ENDBRANCH 17 18
ENDBRANCH 16 17
ENDBRANCH 15 16
BRANCH 15 20
ATOM     20  C   MET E 182       4.512 -28.286  25.103  1.00 60.82 LIG 0.22  C 
ATOM     21 O    MET E 182       4.412 -28.389  23.876  1.00 58.83 LIG-0.29  OA
ENDBRANCH 15 20
ENDBRANCH 13 15
ENDBRANCH 10 11
BRANCH 10 22
ATOM     22  CB  ASP E 181       3.957 -25.028  29.319  1.00 40.72 LIG 0.15  C 
BRANCH 22 23
ATOM     23  CG  ASP E 181       5.215 -25.731  28.852  1.00 40.82 LIG 0.17  C 
ATOM     24 OD1  ASP E 181       5.867 -26.418  29.671  1.00 47.44 LIG-0.65  OA
ATOM     25 OD2  ASP E 181       5.542 -25.600  27.656  1.00 24.37 LIG-0.65  OA
ENDBRANCH 22 23
ENDBRANCH 10 22
ENDBRANCH 8 10
ENDBRANCH 1 6
BRANCH 1 26
ATOM     26  N   ASP E 180      -1.214 -23.979  29.633  1.00 48.48 LIG-0.34  N 
ATOM     27  C   ASP E 179      -1.013 -23.198  28.569  1.00 52.76 LIG 0.24  C 
ATOM     28 O    ASP E 179      -0.501 -23.573  27.514  1.00 54.54 LIG-0.27  OA
ATOM     29 H    ASP E 180      -1.559 -23.677  30.360  1.00 48.48 LIG 0.16  HD
BRANCH 27 30
ATOM     30  CA  ASP E 179      -1.476 -21.753  28.744  1.00 62.98 LIG 0.19  C 
BRANCH 30 31
ATOM     31  N   ASP E 179      -0.859 -21.026  29.857  1.00 68.60 LIG-0.34  N 
ATOM     32  C   VAL E 178      -1.392 -20.984  31.078  1.00 59.78 LIG 0.26  C 
ATOM     33 O    VAL E 178      -2.539 -21.360  31.327  1.00 49.42 LIG-0.27  OA
ATOM     34 H    ASP E 179      -0.125 -20.630  29.648  1.00 68.60 LIG 0.16  HD
BRANCH 32 35
ATOM     35  CA  VAL E 178      -0.500 -20.404  32.179  1.00 59.92 LIG 0.40  C 
ATOM     36  N   VAL E 178      -1.250 -19.549  33.094  1.00 55.12 LIG 0.61  N 
BRANCH 35 37
ATOM     37  CB  VAL E 178       0.192 -21.568  32.935  1.00 50.97 LIG 0.03  C 
ATOM     38  CG2 VAL E 178       1.213 -22.268  32.049  1.00 47.22 LIG 0.01  C 
ATOM     39  CG1 VAL E 178      -0.843 -22.554  33.432  1.00 50.59 LIG 0.01  C 
ENDBRANCH 35 37
ENDBRANCH 32 35
ENDBRANCH 30 31
BRANCH 30 40
ATOM     40  CB  ASP E 179      -1.218 -21.002  27.438  1.00 47.75 LIG 0.15  C 
BRANCH 40 41
ATOM     41  CG  ASP E 179       0.130 -20.327  27.419  1.00 48.80 LIG 0.17  C 
ATOM     42 OD2  ASP E 179       0.292 -19.286  28.101  1.00 55.56 LIG-0.65  OA
ATOM     43 OD1  ASP E 179       1.027 -20.842  26.722  1.00 40.87 LIG-0.65  OA
ENDBRANCH 40 41
ENDBRANCH 30 40
ENDBRANCH 27 30
ENDBRANCH 1 26
TORSDOF 19
ENDMDL
MODEL 74
USER: ADFR SOLUTION from run 198
USER: SCORE 12.221294 LL:  -3.146 LR: -11.441 RR:   0.000 FEB:  -5.773
USER: RMSD 8.815853
USER: SEED 197
USER: STATUS no improvement in best in 6 clusters for 5 generations
USER: GENES 21
USER: genes 0 Translation |==|  0.59126 0.50320 0.49917
USER: genes 1 Rotation |==|  0.64678 0.83568 0.24594 0.72633
USER: genes 2 Torsion [C]-CA--CB-[CG] |==|  0.23825
USER: genes 3 Torsion [CA]-CB--CG-[OD1] |==|  0.11970
USER: genes 4 Torsion [N]-CA--C-[N] |==|  0.10159
USER: genes 5 Torsion [C]-N--CA-[CB] |==|  0.37778
USER: genes 6 Torsion [N]-CA--C-[N] |==|  0.84126
USER: genes 7 Torsion [C]-N--CA-[CB] |==|  0.50791
USER: genes 8 Torsion [N]-CA--CB-[CG] |==|  0.70550
USER: genes 9 Torsion [CA]-CB--CG-[SD] |==|  0.15353
USER: genes 10 Torsion [CB]-CG--SD-[CE] |==|  0.20936
USER: genes 11 Torsion [N]-CA--C-[O] |==|  0.80014
USER: genes 12 Torsion [N]-CA--CB-[CG] |==|  0.06629
USER: genes 13 Torsion [CA]-CB--CG-[OD1] |==|  0.09404
USER: genes 14 Torsion [CB]-CA--N-[C] |==|  0.78648
USER: genes 15 Torsion [N]-C--CA-[N] |==|  0.37955
USER: genes 16 Torsion [C]-CA--N-[C] |==|  0.59045
USER: genes 17 Torsion [N]-C--CA-[N] |==|  0.29228
USER: genes 18 Torsion [C]-CA--CB-[CG2] |==|  0.67285
USER: genes 19 Torsion [C]-CA--CB-[CG] |==|  0.31380
USER: genes 20 Torsion [CA]-CB--CG-[OD2] |==|  0.01545
ROOT
ATOM      1  CA  ASP E 180       4.527 -27.483  26.514  1.00 46.29 LIG 0.19  C 
ENDROOT
BRANCH 1 2
ATOM      2  CB  ASP E 180       4.182 -27.229  27.978  1.00 53.57 LIG 0.15  C 
BRANCH 2 3
ATOM      3  CG  ASP E 180       5.165 -26.302  28.653  1.00 52.91 LIG 0.17  C 
ATOM      4 OD1  ASP E 180       5.548 -25.286  28.031  1.00 53.16 LIG-0.65  OA
ATOM      5 OD2  ASP E 180       5.551 -26.583  29.806  1.00 39.91 LIG-0.65  OA
ENDBRANCH 2 3
ENDBRANCH 1 2
BRANCH 1 6
ATOM      6  C   ASP E 180       5.532 -28.638  26.408  1.00 46.16 LIG 0.24  C 
ATOM      7 O    ASP E 180       6.217 -28.964  27.380  1.00 47.92 LIG-0.27  OA
ATOM      8  N   ASP E 181       5.626 -29.261  25.238  1.00 48.75 LIG-0.34  N 
ATOM      9 H    ASP E 181       5.202 -29.032  24.526  1.00 48.75 LIG 0.16  HD
BRANCH 8 10
ATOM     10  CA  ASP E 181       6.498 -30.423  25.093  1.00 45.01 LIG 0.19  C 
BRANCH 10 11
ATOM     11  C   ASP E 181       7.830 -30.088  24.428  1.00 47.33 LIG 0.24  C 
ATOM     12 O    ASP E 181       8.908 -30.313  24.993  1.00 41.27 LIG-0.27  OA
ATOM     13  N   MET E 182       7.733 -29.530  23.224  1.00 63.00 LIG-0.35  N 
ATOM     14 H    MET E 182       6.983 -29.317  22.861  1.00 63.00 LIG 0.16  HD
BRANCH 13 15
ATOM     15  CA  MET E 182       8.894 -29.225  22.402  1.00 43.88 LIG 0.16  C 
BRANCH 15 16
ATOM     16  CB  MET E 182       8.454 -28.528  21.115  1.00 44.38 LIG 0.04  C 
BRANCH 16 17
ATOM     17  CG  MET E 182       8.528 -29.410  19.885  1.00 63.17 LIG 0.08  C 
BRANCH 17 18
ATOM     18 SD   MET E 182       7.594 -30.939  20.075  1.00101.17 LIG-0.17  SA
ATOM     19  CE  MET E 182       5.918 -30.333  19.887  1.00 68.91 LIG 0.09  C 
ENDBRANCH 17 18
ENDBRANCH 16 17
ENDBRANCH 15 16
BRANCH 15 20
ATOM     20  C   MET E 182       9.901 -28.354  23.156  1.00 60.82 LIG 0.22  C 
ATOM     21 O    MET E 182       9.667 -27.164  23.393  1.00 58.83 LIG-0.29  OA
ENDBRANCH 15 20
ENDBRANCH 13 15
ENDBRANCH 10 11
BRANCH 10 22
ATOM     22  CB  ASP E 181       5.780 -31.519  24.306  1.00 40.72 LIG 0.15  C 
BRANCH 22 23
ATOM     23  CG  ASP E 181       4.681 -30.965  23.423  1.00 40.82 LIG 0.17  C 
ATOM     24 OD1  ASP E 181       4.832 -29.837  22.901  1.00 47.44 LIG-0.65  OA
ATOM     25 OD2  ASP E 181       3.670 -31.672  23.245  1.00 24.37 LIG-0.65  OA
ENDBRANCH 22 23
ENDBRANCH 10 22
ENDBRANCH 8 10
ENDBRANCH 1 6
BRANCH 1 26
ATOM     26  N   ASP E 180       3.334 -27.798  25.722  1.00 48.48 LIG-0.34  N 
ATOM     27  C   ASP E 179       2.694 -28.970  25.714  1.00 52.76 LIG 0.24  C 
ATOM     28 O    ASP E 179       3.040 -29.960  26.360  1.00 54.54 LIG-0.27  OA
ATOM     29 H    ASP E 180       3.072 -27.134  25.243  1.00 48.48 LIG 0.16  HD
BRANCH 27 30
ATOM     30  CA  ASP E 179       1.456 -29.013  24.821  1.00 62.98 LIG 0.19  C 
BRANCH 30 31
ATOM     31  N   ASP E 179       1.310 -30.223  24.007  1.00 68.60 LIG-0.34  N 
ATOM     32  C   VAL E 178       0.747 -30.219  22.798  1.00 59.78 LIG 0.26  C 
ATOM     33 O    VAL E 178       0.112 -29.261  22.353  1.00 49.42 LIG-0.27  OA
ATOM     34 H    ASP E 179       1.619 -30.932  24.380  1.00 68.60 LIG 0.16  HD
BRANCH 32 35
ATOM     35  CA  VAL E 178       0.904 -31.504  21.981  1.00 59.92 LIG 0.40  C 
ATOM     36  N   VAL E 178      -0.333 -32.277  21.938  1.00 55.12 LIG 0.61  N 
BRANCH 35 37
ATOM     37  CB  VAL E 178       1.391 -31.140  20.554  1.00 50.97 LIG 0.03  C 
ATOM     38  CG2 VAL E 178       0.372 -31.554  19.503  1.00 47.22 LIG 0.01  C 
ATOM     39  CG1 VAL E 178       2.730 -31.789  20.279  1.00 50.59 LIG 0.01  C 
ENDBRANCH 35 37
ENDBRANCH 32 35
ENDBRANCH 30 31
BRANCH 30 40
ATOM     40  CB  ASP E 179       0.219 -28.837  25.701  1.00 47.75 LIG 0.15  C 
BRANCH 40 41
ATOM     41  CG  ASP E 179      -0.496 -27.536  25.436  1.00 48.80 LIG 0.17  C 
ATOM     42 OD2  ASP E 179      -0.096 -26.810  24.494  1.00 55.56 LIG-0.65  OA
ATOM     43 OD1  ASP E 179      -1.459 -27.244  26.172  1.00 40.87 LIG-0.65  OA
ENDBRANCH 40 41
ENDBRANCH 30 40
ENDBRANCH 27 30
ENDBRANCH 1 26
TORSDOF 19
ENDMDL
MODEL 75
USER: ADFR SOLUTION from run 134
USER: SCORE 11.835110 LL:  -2.069 LR: -11.411 RR:   0.000 FEB:  -5.743
USER: RMSD 9.129745
USER: SEED 133
USER: STATUS no improvement in best in 24 clusters for 5 generations
USER: GENES 21
USER: genes 0 Translation |==|  0.51804 0.66741 0.59407
USER: genes 1 Rotation |==|  0.40211 0.18931 0.87514 0.55619
USER: genes 2 Torsion [C]-CA--CB-[CG] |==|  0.13476
USER: genes 3 Torsion [CA]-CB--CG-[OD1] |==|  0.61610
USER: genes 4 Torsion [N]-CA--C-[N] |==|  0.27952
USER: genes 5 Torsion [C]-N--CA-[CB] |==|  0.16505
USER: genes 6 Torsion [N]-CA--C-[N] |==|  0.65805
USER: genes 7 Torsion [C]-N--CA-[CB] |==|  0.37123
USER: genes 8 Torsion [N]-CA--CB-[CG] |==|  0.63622
USER: genes 9 Torsion [CA]-CB--CG-[SD] |==|  0.89433
USER: genes 10 Torsion [CB]-CG--SD-[CE] |==|  0.79750
USER: genes 11 Torsion [N]-CA--C-[O] |==|  0.15233
USER: genes 12 Torsion [N]-CA--CB-[CG] |==|  0.13015
USER: genes 13 Torsion [CA]-CB--CG-[OD1] |==|  0.15465
USER: genes 14 Torsion [CB]-CA--N-[C] |==|  0.49444
USER: genes 15 Torsion [N]-C--CA-[N] |==|  0.94387
USER: genes 16 Torsion [C]-CA--N-[C] |==|  0.82435
USER: genes 17 Torsion [N]-C--CA-[N] |==|  0.41707
USER: genes 18 Torsion [C]-CA--CB-[CG2] |==|  0.20291
USER: genes 19 Torsion [C]-CA--CB-[CG] |==|  0.18006
USER: genes 20 Torsion [CA]-CB--CG-[OD2] |==|  0.58890
ROOT
ATOM      1  CA  ASP E 180       2.934 -24.774  28.436  1.00 46.29 LIG 0.19  C 
ENDROOT
BRANCH 1 2
ATOM      2  CB  ASP E 180       4.147 -24.695  29.357  1.00 53.57 LIG 0.15  C 
BRANCH 2 3
ATOM      3  CG  ASP E 180       5.282 -25.581  28.899  1.00 52.91 LIG 0.17  C 
ATOM      4 OD1  ASP E 180       5.910 -26.236  29.760  1.00 53.16 LIG-0.65  OA
ATOM      5 OD2  ASP E 180       5.542 -25.629  27.679  1.00 39.91 LIG-0.65  OA
ENDBRANCH 2 3
ENDBRANCH 1 2
BRANCH 1 6
ATOM      6  C   ASP E 180       2.585 -26.242  28.158  1.00 46.16 LIG 0.24  C 
ATOM      7 O    ASP E 180       2.584 -27.070  29.071  1.00 47.92 LIG-0.27  OA
ATOM      8  N   ASP E 181       2.287 -26.573  26.905  1.00 48.75 LIG-0.34  N 
ATOM      9 H    ASP E 181       2.325 -26.035  26.235  1.00 48.75 LIG 0.16  HD
BRANCH 8 10
ATOM     10  CA  ASP E 181       1.862 -27.932  26.586  1.00 45.01 LIG 0.19  C 
BRANCH 10 11
ATOM     11  C   ASP E 181       1.628 -28.148  25.093  1.00 47.33 LIG 0.24  C 
ATOM     12 O    ASP E 181       2.515 -27.916  24.261  1.00 41.27 LIG-0.27  OA
ATOM     13  N   MET E 182       0.411 -28.577  24.771  1.00 63.00 LIG-0.35  N 
ATOM     14 H    MET E 182      -0.222 -28.676  25.344  1.00 63.00 LIG 0.16  HD
BRANCH 13 15
ATOM     15  CA  MET E 182       0.033 -28.924  23.409  1.00 43.88 LIG 0.16  C 
BRANCH 15 16
ATOM     16  CB  MET E 182      -0.713 -30.257  23.396  1.00 44.38 LIG 0.04  C 
BRANCH 16 17
ATOM     17  CG  MET E 182      -0.193 -31.239  22.366  1.00 63.17 LIG 0.08  C 
BRANCH 17 18
ATOM     18 SD   MET E 182       0.283 -30.437  20.825  1.00101.17 LIG-0.17  SA
ATOM     19  CE  MET E 182      -1.327 -30.037  20.146  1.00 68.91 LIG 0.09  C 
ENDBRANCH 17 18
ENDBRANCH 16 17
ENDBRANCH 15 16
BRANCH 15 20
ATOM     20  C   MET E 182      -0.828 -27.831  22.772  1.00 60.82 LIG 0.22  C 
ATOM     21 O    MET E 182      -0.441 -26.659  22.722  1.00 58.83 LIG-0.29  OA
ENDBRANCH 15 20
ENDBRANCH 13 15
ENDBRANCH 10 11
BRANCH 10 22
ATOM     22  CB  ASP E 181       0.597 -28.280  27.370  1.00 40.72 LIG 0.15  C 
BRANCH 22 23
ATOM     23  CG  ASP E 181      -0.443 -27.181  27.300  1.00 40.82 LIG 0.17  C 
ATOM     24 OD1  ASP E 181      -0.834 -26.786  26.178  1.00 47.44 LIG-0.65  OA
ATOM     25 OD2  ASP E 181      -0.873 -26.722  28.376  1.00 24.37 LIG-0.65  OA
ENDBRANCH 22 23
ENDBRANCH 10 22
ENDBRANCH 8 10
ENDBRANCH 1 6
BRANCH 1 26
ATOM     26  N   ASP E 180       1.770 -24.094  29.012  1.00 48.48 LIG-0.34  N 
ATOM     27  C   ASP E 179       0.578 -23.962  28.424  1.00 52.76 LIG 0.24  C 
ATOM     28 O    ASP E 179       0.304 -24.378  27.298  1.00 54.54 LIG-0.27  OA
ATOM     29 H    ASP E 180       1.929 -23.775  29.794  1.00 48.48 LIG 0.16  HD
BRANCH 27 30
ATOM     30  CA  ASP E 179      -0.470 -23.237  29.266  1.00 62.98 LIG 0.19  C 
BRANCH 30 31
ATOM     31  N   ASP E 179      -0.204 -23.203  30.707  1.00 68.60 LIG-0.34  N 
ATOM     32  C   VAL E 178      -0.149 -24.301  31.460  1.00 59.78 LIG 0.26  C 
ATOM     33 O    VAL E 178      -0.525 -25.407  31.067  1.00 49.42 LIG-0.27  OA
ATOM     34 H    ASP E 179      -0.088 -22.410  31.020  1.00 68.60 LIG 0.16  HD
BRANCH 32 35
ATOM     35  CA  VAL E 178       0.389 -24.114  32.882  1.00 59.92 LIG 0.40  C 
ATOM     36  N   VAL E 178      -0.192 -25.074  33.815  1.00 55.12 LIG 0.61  N 
BRANCH 35 37
ATOM     37  CB  VAL E 178       1.936 -24.219  32.854  1.00 50.97 LIG 0.03  C 
ATOM     38  CG2 VAL E 178       2.560 -22.980  32.227  1.00 47.22 LIG 0.01  C 
ATOM     39  CG1 VAL E 178       2.361 -25.463  32.105  1.00 50.59 LIG 0.01  C 
ENDBRANCH 35 37
ENDBRANCH 32 35
ENDBRANCH 30 31
BRANCH 30 40
ATOM     40  CB  ASP E 179      -0.609 -21.810  28.739  1.00 47.75 LIG 0.15  C 
BRANCH 40 41
ATOM     41  CG  ASP E 179      -1.154 -21.766  27.333  1.00 48.80 LIG 0.17  C 
ATOM     42 OD2  ASP E 179      -0.782 -20.842  26.571  1.00 55.56 LIG-0.65  OA
ATOM     43 OD1  ASP E 179      -1.953 -22.661  26.993  1.00 40.87 LIG-0.65  OA
ENDBRANCH 40 41
ENDBRANCH 30 40
ENDBRANCH 27 30
ENDBRANCH 1 26
TORSDOF 19
ENDMDL
MODEL 76
USER: ADFR SOLUTION from run 21
USER: SCORE 11.933911 LL:  -2.216 LR: -11.385 RR:   0.000 FEB:  -5.717
USER: RMSD 9.136899
USER: SEED 20
USER: STATUS no improvement in best in 26 clusters for 5 generations
USER: GENES 21
USER: genes 0 Translation |==|  0.51105 0.63081 0.57437
USER: genes 1 Rotation |==|  0.33036 0.15744 0.77159 0.67353
USER: genes 2 Torsion [C]-CA--CB-[CG] |==|  0.38071
USER: genes 3 Torsion [CA]-CB--CG-[OD1] |==|  0.40769
USER: genes 4 Torsion [N]-CA--C-[N] |==|  0.56954
USER: genes 5 Torsion [C]-N--CA-[CB] |==|  0.22866
USER: genes 6 Torsion [N]-CA--C-[N] |==|  0.96501
USER: genes 7 Torsion [C]-N--CA-[CB] |==|  0.34796
USER: genes 8 Torsion [N]-CA--CB-[CG] |==|  0.18688
USER: genes 9 Torsion [CA]-CB--CG-[SD] |==|  0.75992
USER: genes 10 Torsion [CB]-CG--SD-[CE] |==|  0.92841
USER: genes 11 Torsion [N]-CA--C-[O] |==|  0.93017
USER: genes 12 Torsion [N]-CA--CB-[CG] |==|  0.65951
USER: genes 13 Torsion [CA]-CB--CG-[OD1] |==|  0.02759
USER: genes 14 Torsion [CB]-CA--N-[C] |==|  0.78886
USER: genes 15 Torsion [N]-C--CA-[N] |==|  0.90146
USER: genes 16 Torsion [C]-CA--N-[C] |==|  0.74276
USER: genes 17 Torsion [N]-C--CA-[N] |==|  0.40614
USER: genes 18 Torsion [C]-CA--CB-[CG2] |==|  0.99467
USER: genes 19 Torsion [C]-CA--CB-[CG] |==|  0.93158
USER: genes 20 Torsion [CA]-CB--CG-[OD2] |==|  0.29705
ROOT
ATOM      1  CA  ASP E 180       2.782 -25.378  28.037  1.00 46.29 LIG 0.19  C 
ENDROOT
BRANCH 1 2
ATOM      2  CB  ASP E 180       3.729 -26.303  28.794  1.00 53.57 LIG 0.15  C 
BRANCH 2 3
ATOM      3  CG  ASP E 180       5.168 -25.850  28.718  1.00 52.91 LIG 0.17  C 
ATOM      4 OD1  ASP E 180       5.911 -26.062  29.702  1.00 53.16 LIG-0.65  OA
ATOM      5 OD2  ASP E 180       5.559 -25.288  27.674  1.00 39.91 LIG-0.65  OA
ENDBRANCH 2 3
ENDBRANCH 1 2
BRANCH 1 6
ATOM      6  C   ASP E 180       1.768 -26.208  27.239  1.00 46.16 LIG 0.24  C 
ATOM      7 O    ASP E 180       0.626 -25.785  27.046  1.00 47.92 LIG-0.27  OA
ATOM      8  N   ASP E 181       2.172 -27.386  26.774  1.00 48.75 LIG-0.34  N 
ATOM      9 H    ASP E 181       2.943 -27.734  26.929  1.00 48.75 LIG 0.16  HD
BRANCH 8 10
ATOM     10  CA  ASP E 181       1.287 -28.187  25.935  1.00 45.01 LIG 0.19  C 
BRANCH 10 11
ATOM     11  C   ASP E 181       1.596 -29.680  25.999  1.00 47.33 LIG 0.24  C 
ATOM     12 O    ASP E 181       0.805 -30.523  25.556  1.00 41.27 LIG-0.27  OA
ATOM     13  N   MET E 182       2.753 -29.990  26.578  1.00 63.00 LIG-0.35  N 
ATOM     14 H    MET E 182       3.270 -29.408  26.942  1.00 63.00 LIG 0.16  HD
BRANCH 13 15
ATOM     15  CA  MET E 182       3.257 -31.354  26.650  1.00 43.88 LIG 0.16  C 
BRANCH 15 16
ATOM     16  CB  MET E 182       4.662 -31.424  26.055  1.00 44.38 LIG 0.04  C 
BRANCH 16 17
ATOM     17  CG  MET E 182       5.707 -30.681  26.864  1.00 63.17 LIG 0.08  C 
BRANCH 17 18
ATOM     18 SD   MET E 182       5.809 -28.937  26.426  1.00101.17 LIG-0.17  SA
ATOM     19  CE  MET E 182       5.208 -28.981  24.738  1.00 68.91 LIG 0.09  C 
ENDBRANCH 17 18
ENDBRANCH 16 17
ENDBRANCH 15 16
BRANCH 15 20
ATOM     20  C   MET E 182       3.266 -31.871  28.090  1.00 60.82 LIG 0.22  C 
ATOM     21 O    MET E 182       3.334 -31.095  29.049  1.00 58.83 LIG-0.29  OA
ENDBRANCH 15 20
ENDBRANCH 13 15
ENDBRANCH 10 11
BRANCH 10 22
ATOM     22  CB  ASP E 181       1.357 -27.700  24.488  1.00 40.72 LIG 0.15  C 
BRANCH 22 23
ATOM     23  CG  ASP E 181       0.001 -27.290  23.954  1.00 40.82 LIG 0.17  C 
ATOM     24 OD1  ASP E 181      -0.963 -27.202  24.747  1.00 47.44 LIG-0.65  OA
ATOM     25 OD2  ASP E 181      -0.092 -27.047  22.735  1.00 24.37 LIG-0.65  OA
ENDBRANCH 22 23
ENDBRANCH 10 22
ENDBRANCH 8 10
ENDBRANCH 1 6
BRANCH 1 26
ATOM     26  N   ASP E 180       2.069 -24.471  28.942  1.00 48.48 LIG-0.34  N 
ATOM     27  C   ASP E 179       1.042 -24.807  29.727  1.00 52.76 LIG 0.24  C 
ATOM     28 O    ASP E 179       0.537 -25.929  29.776  1.00 54.54 LIG-0.27  OA
ATOM     29 H    ASP E 180       2.384 -23.672  28.923  1.00 48.48 LIG 0.16  HD
BRANCH 27 30
ATOM     30  CA  ASP E 179       0.509 -23.671  30.598  1.00 62.98 LIG 0.19  C 
BRANCH 30 31
ATOM     31  N   ASP E 179       1.520 -22.735  31.098  1.00 68.60 LIG-0.34  N 
ATOM     32  C   VAL E 178       2.119 -22.880  32.280  1.00 59.78 LIG 0.26  C 
ATOM     33 O    VAL E 178       1.730 -23.672  33.140  1.00 49.42 LIG-0.27  OA
ATOM     34 H    ASP E 179       1.689 -22.086  30.560  1.00 68.60 LIG 0.16  HD
BRANCH 32 35
ATOM     35  CA  VAL E 178       3.324 -21.970  32.537  1.00 59.92 LIG 0.40  C 
ATOM     36  N   VAL E 178       3.428 -21.587  33.941  1.00 55.12 LIG 0.61  N 
BRANCH 35 37
ATOM     37  CB  VAL E 178       4.611 -22.687  32.051  1.00 50.97 LIG 0.03  C 
ATOM     38  CG2 VAL E 178       4.297 -24.077  31.517  1.00 47.22 LIG 0.01  C 
ATOM     39  CG1 VAL E 178       5.619 -22.767  33.177  1.00 50.59 LIG 0.01  C 
ENDBRANCH 35 37
ENDBRANCH 32 35
ENDBRANCH 30 31
BRANCH 30 40
ATOM     40  CB  ASP E 179      -0.545 -22.905  29.800  1.00 47.75 LIG 0.15  C 
BRANCH 40 41
ATOM     41  CG  ASP E 179      -0.354 -23.046  28.310  1.00 48.80 LIG 0.17  C 
ATOM     42 OD2  ASP E 179      -1.154 -23.768  27.666  1.00 55.56 LIG-0.65  OA
ATOM     43 OD1  ASP E 179       0.596 -22.431  27.786  1.00 40.87 LIG-0.65  OA
ENDBRANCH 40 41
ENDBRANCH 30 40
ENDBRANCH 27 30
ENDBRANCH 1 26
TORSDOF 19
ENDMDL
MODEL 77
USER: ADFR SOLUTION from run 143
USER: SCORE 11.226498 LL:  -2.525 LR: -11.392 RR:   0.000 FEB:  -5.724
USER: RMSD 8.358134
USER: SEED 142
USER: STATUS no improvement in best in 5 clusters for 5 generations
USER: GENES 21
USER: genes 0 Translation |==|  0.44575 0.59021 0.58125
USER: genes 1 Rotation |==|  0.90006 0.27872 0.64692 0.63930
USER: genes 2 Torsion [C]-CA--CB-[CG] |==|  0.34195
USER: genes 3 Torsion [CA]-CB--CG-[OD1] |==|  0.78681
USER: genes 4 Torsion [N]-CA--C-[N] |==|  0.79494
USER: genes 5 Torsion [C]-N--CA-[CB] |==|  0.32811
USER: genes 6 Torsion [N]-CA--C-[N] |==|  0.90405
USER: genes 7 Torsion [C]-N--CA-[CB] |==|  0.20192
USER: genes 8 Torsion [N]-CA--CB-[CG] |==|  0.23102
USER: genes 9 Torsion [CA]-CB--CG-[SD] |==|  0.35385
USER: genes 10 Torsion [CB]-CG--SD-[CE] |==|  0.71851
USER: genes 11 Torsion [N]-CA--C-[O] |==|  0.01617
USER: genes 12 Torsion [N]-CA--CB-[CG] |==|  0.77221
USER: genes 13 Torsion [CA]-CB--CG-[OD1] |==|  0.01763
USER: genes 14 Torsion [CB]-CA--N-[C] |==|  0.85802
USER: genes 15 Torsion [N]-C--CA-[N] |==|  0.84461
USER: genes 16 Torsion [C]-CA--N-[C] |==|  0.65559
USER: genes 17 Torsion [N]-C--CA-[N] |==|  0.50412
USER: genes 18 Torsion [C]-CA--CB-[CG2] |==|  0.57801
USER: genes 19 Torsion [C]-CA--CB-[CG] |==|  0.18500
USER: genes 20 Torsion [CA]-CB--CG-[OD2] |==|  0.24503
ROOT
ATOM      1  CA  ASP E 180       1.362 -26.048  28.176  1.00 46.29 LIG 0.19  C 
ENDROOT
BRANCH 1 2
ATOM      2  CB  ASP E 180       1.457 -24.699  27.470  1.00 53.57 LIG 0.15  C 
BRANCH 2 3
ATOM      3  CG  ASP E 180       0.465 -23.693  28.005  1.00 52.91 LIG 0.17  C 
ATOM      4 OD1  ASP E 180      -0.732 -23.796  27.657  1.00 53.16 LIG-0.65  OA
ATOM      5 OD2  ASP E 180       0.880 -22.804  28.778  1.00 39.91 LIG-0.65  OA
ENDBRANCH 2 3
ENDBRANCH 1 2
BRANCH 1 6
ATOM      6  C   ASP E 180       1.097 -27.157  27.149  1.00 46.16 LIG 0.24  C 
ATOM      7 O    ASP E 180       0.193 -27.975  27.331  1.00 47.92 LIG-0.27  OA
ATOM      8  N   ASP E 181       1.875 -27.191  26.072  1.00 48.75 LIG-0.34  N 
ATOM      9 H    ASP E 181       2.544 -26.669  25.935  1.00 48.75 LIG 0.16  HD
BRANCH 8 10
ATOM     10  CA  ASP E 181       1.622 -28.165  25.015  1.00 45.01 LIG 0.19  C 
BRANCH 10 11
ATOM     11  C   ASP E 181       2.786 -29.128  24.802  1.00 47.33 LIG 0.24  C 
ATOM     12 O    ASP E 181       2.596 -30.313  24.497  1.00 41.27 LIG-0.27  OA
ATOM     13  N   MET E 182       3.993 -28.601  24.987  1.00 63.00 LIG-0.35  N 
ATOM     14 H    MET E 182       4.120 -27.796  25.260  1.00 63.00 LIG 0.16  HD
BRANCH 13 15
ATOM     15  CA  MET E 182       5.222 -29.341  24.742  1.00 43.88 LIG 0.16  C 
BRANCH 15 16
ATOM     16  CB  MET E 182       5.441 -29.508  23.239  1.00 44.38 LIG 0.04  C 
BRANCH 16 17
ATOM     17  CG  MET E 182       6.096 -28.311  22.579  1.00 63.17 LIG 0.08  C 
BRANCH 17 18
ATOM     18 SD   MET E 182       7.551 -28.761  21.618  1.00101.17 LIG-0.17  SA
ATOM     19  CE  MET E 182       8.858 -28.286  22.749  1.00 68.91 LIG 0.09  C 
ENDBRANCH 17 18
ENDBRANCH 16 17
ENDBRANCH 15 16
BRANCH 15 20
ATOM     20  C   MET E 182       6.429 -28.649  25.378  1.00 60.82 LIG 0.22  C 
ATOM     21 O    MET E 182       6.291 -27.653  26.096  1.00 58.83 LIG-0.29  OA
ENDBRANCH 15 20
ENDBRANCH 13 15
ENDBRANCH 10 11
BRANCH 10 22
ATOM     22  CB  ASP E 181       1.293 -27.443  23.709  1.00 40.72 LIG 0.15  C 
BRANCH 22 23
ATOM     23  CG  ASP E 181      -0.157 -27.011  23.640  1.00 40.82 LIG 0.17  C 
ATOM     24 OD1  ASP E 181      -0.883 -27.161  24.648  1.00 47.44 LIG-0.65  OA
ATOM     25 OD2  ASP E 181      -0.562 -26.511  22.573  1.00 24.37 LIG-0.65  OA
ENDBRANCH 22 23
ENDBRANCH 10 22
ENDBRANCH 8 10
ENDBRANCH 1 6
BRANCH 1 26
ATOM     26  N   ASP E 180       2.584 -26.356  28.925  1.00 48.48 LIG-0.34  N 
ATOM     27  C   ASP E 179       3.827 -26.308  28.438  1.00 52.76 LIG 0.24  C 
ATOM     28 O    ASP E 179       4.111 -26.019  27.275  1.00 54.54 LIG-0.27  OA
ATOM     29 H    ASP E 180       2.424 -26.580  29.739  1.00 48.48 LIG 0.16  HD
BRANCH 27 30
ATOM     30  CA  ASP E 179       4.920 -26.646  29.449  1.00 62.98 LIG 0.19  C 
BRANCH 30 31
ATOM     31  N   ASP E 179       4.923 -25.831  30.667  1.00 68.60 LIG-0.34  N 
ATOM     32  C   VAL E 178       5.987 -25.137  31.071  1.00 59.78 LIG 0.26  C 
ATOM     33 O    VAL E 178       7.112 -25.286  30.590  1.00 49.42 LIG-0.27  OA
ATOM     34 H    ASP E 179       4.178 -25.843  31.095  1.00 68.60 LIG 0.16  HD
BRANCH 32 35
ATOM     35  CA  VAL E 178       5.746 -24.143  32.211  1.00 59.92 LIG 0.40  C 
ATOM     36  N   VAL E 178       6.958 -23.408  32.559  1.00 55.12 LIG 0.61  N 
BRANCH 35 37
ATOM     37  CB  VAL E 178       4.599 -23.180  31.808  1.00 50.97 LIG 0.03  C 
ATOM     38  CG2 VAL E 178       4.749 -21.829  32.492  1.00 47.22 LIG 0.01  C 
ATOM     39  CG1 VAL E 178       3.259 -23.798  32.143  1.00 50.59 LIG 0.01  C 
ENDBRANCH 35 37
ENDBRANCH 32 35
ENDBRANCH 30 31
BRANCH 30 40
ATOM     40  CB  ASP E 179       4.793 -28.122  29.823  1.00 47.75 LIG 0.15  C 
BRANCH 40 41
ATOM     41  CG  ASP E 179       5.101 -29.038  28.665  1.00 48.80 LIG 0.17  C 
ATOM     42 OD2  ASP E 179       6.290 -29.393  28.478  1.00 55.56 LIG-0.65  OA
ATOM     43 OD1  ASP E 179       4.150 -29.403  27.945  1.00 40.87 LIG-0.65  OA
ENDBRANCH 40 41
ENDBRANCH 30 40
ENDBRANCH 27 30
ENDBRANCH 1 26
TORSDOF 19
ENDMDL
MODEL 78
USER: ADFR SOLUTION from run 8
USER: SCORE 12.769421 LL:  -2.744 LR: -11.386 RR:   0.000 FEB:  -5.718
USER: RMSD 9.316756
USER: SEED 791912
USER: STATUS no improvement in best in 3 clusters for 5 generations
USER: GENES 21
USER: genes 0 Translation |==|  0.61152 0.50044 0.52623
USER: genes 1 Rotation |==|  0.68922 0.83501 0.21347 0.64092
USER: genes 2 Torsion [C]-CA--CB-[CG] |==|  0.37612
USER: genes 3 Torsion [CA]-CB--CG-[OD1] |==|  0.55994
USER: genes 4 Torsion [N]-CA--C-[N] |==|  0.21009
USER: genes 5 Torsion [C]-N--CA-[CB] |==|  0.26645
USER: genes 6 Torsion [N]-CA--C-[N] |==|  0.94541
USER: genes 7 Torsion [C]-N--CA-[CB] |==|  0.37209
USER: genes 8 Torsion [N]-CA--CB-[CG] |==|  0.90060
USER: genes 9 Torsion [CA]-CB--CG-[SD] |==|  0.71747
USER: genes 10 Torsion [CB]-CG--SD-[CE] |==|  0.39385
USER: genes 11 Torsion [N]-CA--C-[O] |==|  0.80477
USER: genes 12 Torsion [N]-CA--CB-[CG] |==|  0.09343
USER: genes 13 Torsion [CA]-CB--CG-[OD1] |==|  0.58507
USER: genes 14 Torsion [CB]-CA--N-[C] |==|  0.77112
USER: genes 15 Torsion [N]-C--CA-[N] |==|  0.86716
USER: genes 16 Torsion [C]-CA--N-[C] |==|  0.78935
USER: genes 17 Torsion [N]-C--CA-[N] |==|  0.54225
USER: genes 18 Torsion [C]-CA--CB-[CG2] |==|  0.81902
USER: genes 19 Torsion [C]-CA--CB-[CG] |==|  0.48954
USER: genes 20 Torsion [CA]-CB--CG-[OD2] |==|  0.04839
ROOT
ATOM      1  CA  ASP E 180       4.968 -27.529  27.062  1.00 46.29 LIG 0.19  C 
ENDROOT
BRANCH 1 2
ATOM      2  CB  ASP E 180       4.973 -27.349  28.577  1.00 53.57 LIG 0.15  C 
BRANCH 2 3
ATOM      3  CG  ASP E 180       5.540 -26.014  29.000  1.00 52.91 LIG 0.17  C 
ATOM      4 OD1  ASP E 180       5.978 -25.897  30.166  1.00 53.16 LIG-0.65  OA
ATOM      5 OD2  ASP E 180       5.555 -25.085  28.167  1.00 39.91 LIG-0.65  OA
ENDBRANCH 2 3
ENDBRANCH 1 2
BRANCH 1 6
ATOM      6  C   ASP E 180       5.477 -28.931  26.702  1.00 46.16 LIG 0.24  C 
ATOM      7 O    ASP E 180       5.490 -29.829  27.546  1.00 47.92 LIG-0.27  OA
ATOM      8  N   ASP E 181       5.895 -29.128  25.456  1.00 48.75 LIG-0.34  N 
ATOM      9 H    ASP E 181       5.946 -28.515  24.854  1.00 48.75 LIG 0.16  HD
BRANCH 8 10
ATOM     10  CA  ASP E 181       6.310 -30.459  25.022  1.00 45.01 LIG 0.19  C 
BRANCH 10 11
ATOM     11  C   ASP E 181       7.530 -30.432  24.106  1.00 47.33 LIG 0.24  C 
ATOM     12 O    ASP E 181       8.239 -31.434  23.946  1.00 41.27 LIG-0.27  OA
ATOM     13  N   MET E 182       7.770 -29.261  23.523  1.00 63.00 LIG-0.35  N 
ATOM     14 H    MET E 182       7.315 -28.551  23.684  1.00 63.00 LIG 0.16  HD
BRANCH 13 15
ATOM     15  CA  MET E 182       8.835 -29.070  22.548  1.00 43.88 LIG 0.16  C 
BRANCH 15 16
ATOM     16  CB  MET E 182       8.308 -28.288  21.346  1.00 44.38 LIG 0.04  C 
BRANCH 16 17
ATOM     17  CG  MET E 182       6.874 -28.617  20.981  1.00 63.17 LIG 0.08  C 
BRANCH 17 18
ATOM     18 SD   MET E 182       6.759 -29.724  19.565  1.00101.17 LIG-0.17  SA
ATOM     19  CE  MET E 182       5.385 -30.761  20.063  1.00 68.91 LIG 0.09  C 
ENDBRANCH 17 18
ENDBRANCH 16 17
ENDBRANCH 15 16
BRANCH 15 20
ATOM     20  C   MET E 182      10.034 -28.348  23.165  1.00 60.82 LIG 0.22  C 
ATOM     21 O    MET E 182       9.971 -27.154  23.476  1.00 58.83 LIG-0.29  OA
ENDBRANCH 15 20
ENDBRANCH 13 15
ENDBRANCH 10 11
BRANCH 10 22
ATOM     22  CB  ASP E 181       5.148 -31.166  24.327  1.00 40.72 LIG 0.15  C 
BRANCH 22 23
ATOM     23  CG  ASP E 181       4.265 -30.204  23.561  1.00 40.82 LIG 0.17  C 
ATOM     24 OD1  ASP E 181       3.046 -30.463  23.440  1.00 47.44 LIG-0.65  OA
ATOM     25 OD2  ASP E 181       4.797 -29.180  23.089  1.00 24.37 LIG-0.65  OA
ENDBRANCH 22 23
ENDBRANCH 10 22
ENDBRANCH 8 10
ENDBRANCH 1 6
BRANCH 1 26
ATOM     26  N   ASP E 180       3.629 -27.334  26.497  1.00 48.48 LIG-0.34  N 
ATOM     27  C   ASP E 179       2.662 -28.254  26.455  1.00 52.76 LIG 0.24  C 
ATOM     28 O    ASP E 179       2.777 -29.409  26.867  1.00 54.54 LIG-0.27  OA
ATOM     29 H    ASP E 180       3.516 -26.542  26.183  1.00 48.48 LIG 0.16  HD
BRANCH 27 30
ATOM     30  CA  ASP E 179       1.350 -27.771  25.840  1.00 62.98 LIG 0.19  C 
BRANCH 30 31
ATOM     31  N   ASP E 179       0.858 -26.484  26.341  1.00 68.60 LIG-0.34  N 
ATOM     32  C   VAL E 178       0.278 -26.345  27.532  1.00 59.78 LIG 0.26  C 
ATOM     33 O    VAL E 178      -0.092 -27.300  28.218  1.00 49.42 LIG-0.27  OA
ATOM     34 H    ASP E 179       0.979 -25.830  25.795  1.00 68.60 LIG 0.16  HD
BRANCH 32 35
ATOM     35  CA  VAL E 178       0.057 -24.905  28.007  1.00 59.92 LIG 0.40  C 
ATOM     36  N   VAL E 178      -0.243 -24.842  29.434  1.00 55.12 LIG 0.61  N 
BRANCH 35 37
ATOM     37  CB  VAL E 178       1.310 -24.060  27.656  1.00 50.97 LIG 0.03  C 
ATOM     38  CG2 VAL E 178       2.530 -24.538  28.430  1.00 47.22 LIG 0.01  C 
ATOM     39  CG1 VAL E 178       1.045 -22.596  27.935  1.00 50.59 LIG 0.01  C 
ENDBRANCH 35 37
ENDBRANCH 32 35
ENDBRANCH 30 31
BRANCH 30 40
ATOM     40  CB  ASP E 179       1.526 -27.695  24.324  1.00 47.75 LIG 0.15  C 
BRANCH 40 41
ATOM     41  CG  ASP E 179       0.251 -27.312  23.615  1.00 48.80 LIG 0.17  C 
ATOM     42 OD2  ASP E 179      -0.674 -26.787  24.281  1.00 55.56 LIG-0.65  OA
ATOM     43 OD1  ASP E 179       0.179 -27.536  22.390  1.00 40.87 LIG-0.65  OA
ENDBRANCH 40 41
ENDBRANCH 30 40
ENDBRANCH 27 30
ENDBRANCH 1 26
TORSDOF 19
ENDMDL
MODEL 79
USER: ADFR SOLUTION from run 69
USER: SCORE 11.879572 LL:  -1.864 LR: -11.378 RR:   0.000 FEB:  -5.710
USER: RMSD 5.059352
USER: SEED 68
USER: STATUS no improvement in best in 21 clusters for 5 generations
USER: GENES 21
USER: genes 0 Translation |==|  0.50235 0.59072 0.58779
USER: genes 1 Rotation |==|  0.79661 0.21576 0.21524 0.51200
USER: genes 2 Torsion [C]-CA--CB-[CG] |==|  0.52987
USER: genes 3 Torsion [CA]-CB--CG-[OD1] |==|  0.70234
USER: genes 4 Torsion [N]-CA--C-[N] |==|  0.40208
USER: genes 5 Torsion [C]-N--CA-[CB] |==|  0.84803
USER: genes 6 Torsion [N]-CA--C-[N] |==|  0.41103
USER: genes 7 Torsion [C]-N--CA-[CB] |==|  0.43635
USER: genes 8 Torsion [N]-CA--CB-[CG] |==|  0.48344
USER: genes 9 Torsion [CA]-CB--CG-[SD] |==|  0.14692
USER: genes 10 Torsion [CB]-CG--SD-[CE] |==|  0.62006
USER: genes 11 Torsion [N]-CA--C-[O] |==|  0.25366
USER: genes 12 Torsion [N]-CA--CB-[CG] |==|  0.38923
USER: genes 13 Torsion [CA]-CB--CG-[OD1] |==|  0.75676
USER: genes 14 Torsion [CB]-CA--N-[C] |==|  0.49152
USER: genes 15 Torsion [N]-C--CA-[N] |==|  0.19787
USER: genes 16 Torsion [C]-CA--N-[C] |==|  0.63547
USER: genes 17 Torsion [N]-C--CA-[N] |==|  0.39896
USER: genes 18 Torsion [C]-CA--CB-[CG2] |==|  0.57763
USER: genes 19 Torsion [C]-CA--CB-[CG] |==|  0.20249
USER: genes 20 Torsion [CA]-CB--CG-[OD2] |==|  0.76762
ROOT
ATOM      1  CA  ASP E 180       2.593 -26.039  28.309  1.00 46.29 LIG 0.19  C 
ENDROOT
BRANCH 1 2
ATOM      2  CB  ASP E 180       3.801 -25.189  28.688  1.00 53.57 LIG 0.15  C 
BRANCH 2 3
ATOM      3  CG  ASP E 180       5.112 -25.895  28.428  1.00 52.91 LIG 0.17  C 
ATOM      4 OD1  ASP E 180       5.766 -26.314  29.408  1.00 53.16 LIG-0.65  OA
ATOM      5 OD2  ASP E 180       5.484 -26.036  27.245  1.00 39.91 LIG-0.65  OA
ENDBRANCH 2 3
ENDBRANCH 1 2
BRANCH 1 6
ATOM      6  C   ASP E 180       1.321 -25.181  28.341  1.00 46.16 LIG 0.24  C 
ATOM      7 O    ASP E 180       0.967 -24.548  27.345  1.00 47.92 LIG-0.27  OA
ATOM      8  N   ASP E 181       0.630 -25.155  29.477  1.00 48.75 LIG-0.34  N 
ATOM      9 H    ASP E 181       0.872 -25.543  30.205  1.00 48.75 LIG 0.16  HD
BRANCH 8 10
ATOM     10  CA  ASP E 181      -0.634 -24.430  29.550  1.00 45.01 LIG 0.19  C 
BRANCH 10 11
ATOM     11  C   ASP E 181      -1.742 -25.079  28.725  1.00 47.33 LIG 0.24  C 
ATOM     12 O    ASP E 181      -1.495 -25.676  27.670  1.00 41.27 LIG-0.27  OA
ATOM     13  N   MET E 182      -2.969 -24.933  29.218  1.00 63.00 LIG-0.35  N 
ATOM     14 H    MET E 182      -3.145 -24.464  29.916  1.00 63.00 LIG 0.16  HD
BRANCH 13 15
ATOM     15  CA  MET E 182      -4.138 -25.558  28.617  1.00 43.88 LIG 0.16  C 
BRANCH 15 16
ATOM     16  CB  MET E 182      -5.249 -25.696  29.657  1.00 44.38 LIG 0.04  C 
BRANCH 16 17
ATOM     17  CG  MET E 182      -6.558 -26.206  29.090  1.00 63.17 LIG 0.08  C 
BRANCH 17 18
ATOM     18 SD   MET E 182      -6.359 -27.737  28.162  1.00101.17 LIG-0.17  SA
ATOM     19  CE  MET E 182      -7.392 -27.401  26.737  1.00 68.91 LIG 0.09  C 
ENDBRANCH 17 18
ENDBRANCH 16 17
ENDBRANCH 15 16
BRANCH 15 20
ATOM     20  C   MET E 182      -4.639 -24.764  27.410  1.00 60.82 LIG 0.22  C 
ATOM     21 O    MET E 182      -4.239 -25.013  26.268  1.00 58.83 LIG-0.29  OA
ENDBRANCH 15 20
ENDBRANCH 13 15
ENDBRANCH 10 11
BRANCH 10 22
ATOM     22  CB  ASP E 181      -0.431 -22.981  29.108  1.00 40.72 LIG 0.15  C 
BRANCH 22 23
ATOM     23  CG  ASP E 181      -1.582 -22.472  28.264  1.00 40.82 LIG 0.17  C 
ATOM     24 OD1  ASP E 181      -1.555 -22.657  27.026  1.00 47.44 LIG-0.65  OA
ATOM     25 OD2  ASP E 181      -2.519 -21.895  28.850  1.00 24.37 LIG-0.65  OA
ENDBRANCH 22 23
ENDBRANCH 10 22
ENDBRANCH 8 10
ENDBRANCH 1 6
BRANCH 1 26
ATOM     26  N   ASP E 180       2.746 -26.637  26.979  1.00 48.48 LIG-0.34  N 
ATOM     27  C   ASP E 179       1.882 -27.475  26.400  1.00 52.76 LIG 0.24  C 
ATOM     28 O    ASP E 179       0.843 -27.879  26.923  1.00 54.54 LIG-0.27  OA
ATOM     29 H    ASP E 180       3.471 -26.391  26.588  1.00 48.48 LIG 0.16  HD
BRANCH 27 30
ATOM     30  CA  ASP E 179       2.273 -27.920  24.992  1.00 62.98 LIG 0.19  C 
BRANCH 30 31
ATOM     31  N   ASP E 179       3.411 -28.841  24.918  1.00 68.60 LIG-0.34  N 
ATOM     32  C   VAL E 178       4.436 -28.660  24.086  1.00 59.78 LIG 0.26  C 
ATOM     33 O    VAL E 178       4.421 -27.840  23.165  1.00 49.42 LIG-0.27  OA
ATOM     34 H    ASP E 179       3.354 -29.507  25.459  1.00 68.60 LIG 0.16  HD
BRANCH 32 35
ATOM     35  CA  VAL E 178       5.652 -29.563  24.313  1.00 59.92 LIG 0.40  C 
ATOM     36  N   VAL E 178       6.285 -29.951  23.057  1.00 55.12 LIG 0.61  N 
BRANCH 35 37
ATOM     37  CB  VAL E 178       6.653 -28.836  25.248  1.00 50.97 LIG 0.03  C 
ATOM     38  CG2 VAL E 178       8.081 -29.292  24.987  1.00 47.22 LIG 0.01  C 
ATOM     39  CG1 VAL E 178       6.278 -29.071  26.696  1.00 50.59 LIG 0.01  C 
ENDBRANCH 35 37
ENDBRANCH 32 35
ENDBRANCH 30 31
BRANCH 30 40
ATOM     40  CB  ASP E 179       1.053 -28.560  24.331  1.00 47.75 LIG 0.15  C 
BRANCH 40 41
ATOM     41  CG  ASP E 179       0.009 -27.544  23.944  1.00 48.80 LIG 0.17  C 
ATOM     42 OD2  ASP E 179      -0.811 -27.161  24.814  1.00 55.56 LIG-0.65  OA
ATOM     43 OD1  ASP E 179       0.011 -27.128  22.769  1.00 40.87 LIG-0.65  OA
ENDBRANCH 40 41
ENDBRANCH 30 40
ENDBRANCH 27 30
ENDBRANCH 1 26
TORSDOF 19
ENDMDL
MODEL 80
USER: ADFR SOLUTION from run 135
USER: SCORE 12.869359 LL:  -2.342 LR: -11.377 RR:   0.000 FEB:  -5.710
USER: RMSD 7.412881
USER: SEED 134
USER: STATUS searching
USER: GENES 21
USER: genes 0 Translation |==|  0.42477 0.63628 0.55568
USER: genes 1 Rotation |==|  0.50955 0.74626 0.30332 0.88805
USER: genes 2 Torsion [C]-CA--CB-[CG] |==|  0.40541
USER: genes 3 Torsion [CA]-CB--CG-[OD1] |==|  0.84090
USER: genes 4 Torsion [N]-CA--C-[N] |==|  0.77975
USER: genes 5 Torsion [C]-N--CA-[CB] |==|  0.84219
USER: genes 6 Torsion [N]-CA--C-[N] |==|  0.38784
USER: genes 7 Torsion [C]-N--CA-[CB] |==|  0.78743
USER: genes 8 Torsion [N]-CA--CB-[CG] |==|  0.83084
USER: genes 9 Torsion [CA]-CB--CG-[SD] |==|  0.53393
USER: genes 10 Torsion [CB]-CG--SD-[CE] |==|  0.65512
USER: genes 11 Torsion [N]-CA--C-[O] |==|  0.60563
USER: genes 12 Torsion [N]-CA--CB-[CG] |==|  0.34068
USER: genes 13 Torsion [CA]-CB--CG-[OD1] |==|  0.73501
USER: genes 14 Torsion [CB]-CA--N-[C] |==|  0.57781
USER: genes 15 Torsion [N]-C--CA-[N] |==|  0.92896
USER: genes 16 Torsion [C]-CA--N-[C] |==|  0.79116
USER: genes 17 Torsion [N]-C--CA-[N] |==|  0.42528
USER: genes 18 Torsion [C]-CA--CB-[CG2] |==|  0.22107
USER: genes 19 Torsion [C]-CA--CB-[CG] |==|  0.80563
USER: genes 20 Torsion [CA]-CB--CG-[OD2] |==|  0.95836
ROOT
ATOM      1  CA  ASP E 180       0.906 -25.287  27.659  1.00 46.29 LIG 0.19  C 
ENDROOT
BRANCH 1 2
ATOM      2  CB  ASP E 180      -0.201 -24.957  28.654  1.00 53.57 LIG 0.15  C 
BRANCH 2 3
ATOM      3  CG  ASP E 180      -1.291 -24.105  28.047  1.00 52.91 LIG 0.17  C 
ATOM      4 OD1  ASP E 180      -0.974 -23.005  27.542  1.00 53.16 LIG-0.65  OA
ATOM      5 OD2  ASP E 180      -2.463 -24.536  28.068  1.00 39.91 LIG-0.65  OA
ENDBRANCH 2 3
ENDBRANCH 1 2
BRANCH 1 6
ATOM      6  C   ASP E 180       2.256 -25.356  28.384  1.00 46.16 LIG 0.24  C 
ATOM      7 O    ASP E 180       3.258 -24.831  27.894  1.00 47.92 LIG-0.27  OA
ATOM      8  N   ASP E 181       2.293 -25.997  29.548  1.00 48.75 LIG-0.34  N 
ATOM      9 H    ASP E 181       1.628 -26.416  29.897  1.00 48.75 LIG 0.16  HD
BRANCH 8 10
ATOM     10  CA  ASP E 181       3.524 -26.026  30.332  1.00 45.01 LIG 0.19  C 
BRANCH 10 11
ATOM     11  C   ASP E 181       3.921 -24.653  30.867  1.00 47.33 LIG 0.24  C 
ATOM     12 O    ASP E 181       3.821 -23.635  30.170  1.00 41.27 LIG-0.27  OA
ATOM     13  N   MET E 182       4.391 -24.649  32.111  1.00 63.00 LIG-0.35  N 
ATOM     14 H    MET E 182       4.520 -25.364  32.570  1.00 63.00 LIG 0.16  HD
BRANCH 13 15
ATOM     15  CA  MET E 182       4.735 -23.424  32.819  1.00 43.88 LIG 0.16  C 
BRANCH 15 16
ATOM     16  CB  MET E 182       6.073 -22.886  32.313  1.00 44.38 LIG 0.04  C 
BRANCH 16 17
ATOM     17  CG  MET E 182       7.234 -23.838  32.523  1.00 63.17 LIG 0.08  C 
BRANCH 17 18
ATOM     18 SD   MET E 182       8.831 -23.052  32.246  1.00101.17 LIG-0.17  SA
ATOM     19  CE  MET E 182       9.525 -24.137  31.000  1.00 68.91 LIG 0.09  C 
ENDBRANCH 17 18
ENDBRANCH 16 17
ENDBRANCH 15 16
BRANCH 15 20
ATOM     20  C   MET E 182       3.645 -22.362  32.662  1.00 60.82 LIG 0.22  C 
ATOM     21 O    MET E 182       3.930 -21.167  32.530  1.00 58.83 LIG-0.29  OA
ENDBRANCH 15 20
ENDBRANCH 13 15
ENDBRANCH 10 11
BRANCH 10 22
ATOM     22  CB  ASP E 181       4.661 -26.611  29.497  1.00 40.72 LIG 0.15  C 
BRANCH 22 23
ATOM     23  CG  ASP E 181       5.834 -25.661  29.377  1.00 40.82 LIG 0.17  C 
ATOM     24 OD1  ASP E 181       5.915 -24.920  28.372  1.00 47.44 LIG-0.65  OA
ATOM     25 OD2  ASP E 181       6.670 -25.653  30.302  1.00 24.37 LIG-0.65  OA
ENDBRANCH 22 23
ENDBRANCH 10 22
ENDBRANCH 8 10
ENDBRANCH 1 6
BRANCH 1 26
ATOM     26  N   ASP E 180       0.656 -26.557  26.970  1.00 48.48 LIG-0.34  N 
ATOM     27  C   ASP E 179       1.592 -27.371  26.476  1.00 52.76 LIG 0.24  C 
ATOM     28 O    ASP E 179       2.803 -27.148  26.513  1.00 54.54 LIG-0.27  OA
ATOM     29 H    ASP E 180      -0.182 -26.739  26.909  1.00 48.48 LIG 0.16  HD
BRANCH 27 30
ATOM     30  CA  ASP E 179       1.052 -28.649  25.837  1.00 62.98 LIG 0.19  C 
BRANCH 30 31
ATOM     31  N   ASP E 179      -0.251 -29.099  26.336  1.00 68.60 LIG-0.34  N 
ATOM     32  C   VAL E 178      -0.409 -29.687  27.521  1.00 59.78 LIG 0.26  C 
ATOM     33 O    VAL E 178       0.533 -30.099  28.201  1.00 49.42 LIG-0.27  OA
ATOM     34 H    ASP E 179      -0.901 -28.948  25.793  1.00 68.60 LIG 0.16  HD
BRANCH 32 35
ATOM     35  CA  VAL E 178      -1.855 -29.859  27.997  1.00 59.92 LIG 0.40  C 
ATOM     36  N   VAL E 178      -1.998 -30.994  28.903  1.00 55.12 LIG 0.61  N 
BRANCH 35 37
ATOM     37  CB  VAL E 178      -2.328 -28.541  28.663  1.00 50.97 LIG 0.03  C 
ATOM     38  CG2 VAL E 178      -2.727 -27.509  27.618  1.00 47.22 LIG 0.01  C 
ATOM     39  CG1 VAL E 178      -1.240 -27.992  29.561  1.00 50.59 LIG 0.01  C 
ENDBRANCH 35 37
ENDBRANCH 32 35
ENDBRANCH 30 31
BRANCH 30 40
ATOM     40  CB  ASP E 179       0.976 -28.438  24.326  1.00 47.75 LIG 0.15  C 
BRANCH 40 41
ATOM     41  CG  ASP E 179      -0.106 -27.462  23.935  1.00 48.80 LIG 0.17  C 
ATOM     42 OD2  ASP E 179      -0.981 -27.161  24.783  1.00 55.56 LIG-0.65  OA
ATOM     43 OD1  ASP E 179      -0.075 -26.996  22.779  1.00 40.87 LIG-0.65  OA
ENDBRANCH 40 41
ENDBRANCH 30 40
ENDBRANCH 27 30
ENDBRANCH 1 26
TORSDOF 19
ENDMDL
MODEL 81
USER: ADFR SOLUTION from run 64
USER: SCORE 12.571488 LL:  -2.126 LR: -11.380 RR:   0.000 FEB:  -5.712
USER: RMSD 6.048462
USER: SEED 63
USER: STATUS no improvement in best in 20 clusters for 5 generations
USER: GENES 21
USER: genes 0 Translation |==|  0.52392 0.43476 0.52000
USER: genes 1 Rotation |==|  0.64974 0.19946 0.13822 0.57981
USER: genes 2 Torsion [C]-CA--CB-[CG] |==|  0.13453
USER: genes 3 Torsion [CA]-CB--CG-[OD1] |==|  0.70060
USER: genes 4 Torsion [N]-CA--C-[N] |==|  0.83031
USER: genes 5 Torsion [C]-N--CA-[CB] |==|  0.86023
USER: genes 6 Torsion [N]-CA--C-[N] |==|  0.91106
USER: genes 7 Torsion [C]-N--CA-[CB] |==|  0.14432
USER: genes 8 Torsion [N]-CA--CB-[CG] |==|  0.31251
USER: genes 9 Torsion [CA]-CB--CG-[SD] |==|  0.24418
USER: genes 10 Torsion [CB]-CG--SD-[CE] |==|  0.04697
USER: genes 11 Torsion [N]-CA--C-[O] |==|  0.28526
USER: genes 12 Torsion [N]-CA--CB-[CG] |==|  0.66247
USER: genes 13 Torsion [CA]-CB--CG-[OD1] |==|  0.39775
USER: genes 14 Torsion [CB]-CA--N-[C] |==|  0.90334
USER: genes 15 Torsion [N]-C--CA-[N] |==|  0.90157
USER: genes 16 Torsion [C]-CA--N-[C] |==|  0.83318
USER: genes 17 Torsion [N]-C--CA-[N] |==|  0.44971
USER: genes 18 Torsion [C]-CA--CB-[CG2] |==|  0.19336
USER: genes 19 Torsion [C]-CA--CB-[CG] |==|  0.12009
USER: genes 20 Torsion [CA]-CB--CG-[OD2] |==|  0.71994
ROOT
ATOM      1  CA  ASP E 180       3.062 -28.612  26.936  1.00 46.29 LIG 0.19  C 
ENDROOT
BRANCH 1 2
ATOM      2  CB  ASP E 180       4.377 -28.070  26.384  1.00 53.57 LIG 0.15  C 
BRANCH 2 3
ATOM      3  CG  ASP E 180       5.153 -27.278  27.410  1.00 52.91 LIG 0.17  C 
ATOM      4 OD1  ASP E 180       5.212 -26.035  27.282  1.00 53.16 LIG-0.65  OA
ATOM      5 OD2  ASP E 180       5.699 -27.896  28.347  1.00 39.91 LIG-0.65  OA
ENDBRANCH 2 3
ENDBRANCH 1 2
BRANCH 1 6
ATOM      6  C   ASP E 180       2.299 -27.494  27.659  1.00 46.16 LIG 0.24  C 
ATOM      7 O    ASP E 180       2.050 -27.582  28.863  1.00 47.92 LIG-0.27  OA
ATOM      8  N   ASP E 181       1.926 -26.443  26.936  1.00 48.75 LIG-0.34  N 
ATOM      9 H    ASP E 181       2.038 -26.368  26.087  1.00 48.75 LIG 0.16  HD
BRANCH 8 10
ATOM     10  CA  ASP E 181       1.273 -25.305  27.577  1.00 45.01 LIG 0.19  C 
BRANCH 10 11
ATOM     11  C   ASP E 181       2.233 -24.461  28.411  1.00 47.33 LIG 0.24  C 
ATOM     12 O    ASP E 181       2.087 -23.237  28.521  1.00 41.27 LIG-0.27  OA
ATOM     13  N   MET E 182       3.229 -25.136  28.978  1.00 63.00 LIG-0.35  N 
ATOM     14 H    MET E 182       3.365 -25.975  28.848  1.00 63.00 LIG 0.16  HD
BRANCH 13 15
ATOM     15  CA  MET E 182       4.188 -24.515  29.880  1.00 43.88 LIG 0.16  C 
BRANCH 15 16
ATOM     16  CB  MET E 182       3.453 -23.760  30.986  1.00 44.38 LIG 0.04  C 
BRANCH 16 17
ATOM     17  CG  MET E 182       3.627 -24.369  32.363  1.00 63.17 LIG 0.08  C 
BRANCH 17 18
ATOM     18 SD   MET E 182       5.087 -23.745  33.215  1.00101.17 LIG-0.17  SA
ATOM     19  CE  MET E 182       5.434 -22.275  32.249  1.00 68.91 LIG 0.09  C 
ENDBRANCH 17 18
ENDBRANCH 16 17
ENDBRANCH 15 16
BRANCH 15 20
ATOM     20  C   MET E 182       5.136 -25.551  30.487  1.00 60.82 LIG 0.22  C 
ATOM     21 O    MET E 182       6.293 -25.681  30.073  1.00 58.83 LIG-0.29  OA
ENDBRANCH 15 20
ENDBRANCH 13 15
ENDBRANCH 10 11
BRANCH 10 22
ATOM     22  CB  ASP E 181       0.114 -25.791  28.446  1.00 40.72 LIG 0.15  C 
BRANCH 22 23
ATOM     23  CG  ASP E 181      -1.209 -25.180  28.031  1.00 40.82 LIG 0.17  C 
ATOM     24 OD1  ASP E 181      -2.245 -25.880  28.088  1.00 47.44 LIG-0.65  OA
ATOM     25 OD2  ASP E 181      -1.206 -23.991  27.658  1.00 24.37 LIG-0.65  OA
ENDBRANCH 22 23
ENDBRANCH 10 22
ENDBRANCH 8 10
ENDBRANCH 1 6
BRANCH 1 26
ATOM     26  N   ASP E 180       2.219 -29.175  25.876  1.00 48.48 LIG-0.34  N 
ATOM     27  C   ASP E 179       2.131 -28.713  24.627  1.00 52.76 LIG 0.24  C 
ATOM     28 O    ASP E 179       2.735 -27.728  24.201  1.00 54.54 LIG-0.27  OA
ATOM     29 H    ASP E 180       1.768 -29.856  26.142  1.00 48.48 LIG 0.16  HD
BRANCH 27 30
ATOM     30  CA  ASP E 179       1.200 -29.512  23.717  1.00 62.98 LIG 0.19  C 
BRANCH 30 31
ATOM     31  N   ASP E 179       1.181 -30.959  23.952  1.00 68.60 LIG-0.34  N 
ATOM     32  C   VAL E 178       2.266 -31.725  23.841  1.00 59.78 LIG 0.26  C 
ATOM     33 O    VAL E 178       3.316 -31.336  23.326  1.00 49.42 LIG-0.27  OA
ATOM     34 H    ASP E 179       0.407 -31.265  24.168  1.00 68.60 LIG 0.16  HD
BRANCH 32 35
ATOM     35  CA  VAL E 178       2.132 -33.157  24.367  1.00 59.92 LIG 0.40  C 
ATOM     36  N   VAL E 178       3.176 -34.030  23.839  1.00 55.12 LIG 0.61  N 
BRANCH 35 37
ATOM     37  CB  VAL E 178       2.150 -33.130  25.917  1.00 50.97 LIG 0.03  C 
ATOM     38  CG2 VAL E 178       0.880 -32.500  26.470  1.00 47.22 LIG 0.01  C 
ATOM     39  CG1 VAL E 178       3.371 -32.382  26.410  1.00 50.59 LIG 0.01  C 
ENDBRANCH 35 37
ENDBRANCH 32 35
ENDBRANCH 30 31
BRANCH 30 40
ATOM     40  CB  ASP E 179      -0.214 -28.952  23.863  1.00 47.75 LIG 0.15  C 
BRANCH 40 41
ATOM     41  CG  ASP E 179      -0.238 -27.444  23.875  1.00 48.80 LIG 0.17  C 
ATOM     42 OD2  ASP E 179      -0.346 -26.853  24.977  1.00 55.56 LIG-0.65  OA
ATOM     43 OD1  ASP E 179      -0.147 -26.854  22.781  1.00 40.87 LIG-0.65  OA
ENDBRANCH 40 41
ENDBRANCH 30 40
ENDBRANCH 27 30
ENDBRANCH 1 26
TORSDOF 19
ENDMDL
MODEL 82
USER: ADFR SOLUTION from run 35
USER: SCORE 11.799280 LL:  -2.133 LR: -11.325 RR:   0.000 FEB:  -5.657
USER: RMSD 9.608374
USER: SEED 34
USER: STATUS no improvement in best in 15 clusters for 5 generations
USER: GENES 21
USER: genes 0 Translation |==|  0.46085 0.48118 0.40152
USER: genes 1 Rotation |==|  0.60675 0.85482 0.30402 0.77258
USER: genes 2 Torsion [C]-CA--CB-[CG] |==|  0.47529
USER: genes 3 Torsion [CA]-CB--CG-[OD1] |==|  0.66781
USER: genes 4 Torsion [N]-CA--C-[N] |==|  0.44573
USER: genes 5 Torsion [C]-N--CA-[CB] |==|  0.84316
USER: genes 6 Torsion [N]-CA--C-[N] |==|  0.35026
USER: genes 7 Torsion [C]-N--CA-[CB] |==|  0.81486
USER: genes 8 Torsion [N]-CA--CB-[CG] |==|  0.39623
USER: genes 9 Torsion [CA]-CB--CG-[SD] |==|  0.74481
USER: genes 10 Torsion [CB]-CG--SD-[CE] |==|  0.87930
USER: genes 11 Torsion [N]-CA--C-[O] |==|  0.15629
USER: genes 12 Torsion [N]-CA--CB-[CG] |==|  0.63895
USER: genes 13 Torsion [CA]-CB--CG-[OD1] |==|  0.00050
USER: genes 14 Torsion [CB]-CA--N-[C] |==|  0.27698
USER: genes 15 Torsion [N]-C--CA-[N] |==|  0.52747
USER: genes 16 Torsion [C]-CA--N-[C] |==|  0.66605
USER: genes 17 Torsion [N]-C--CA-[N] |==|  0.33011
USER: genes 18 Torsion [C]-CA--CB-[CG2] |==|  0.09687
USER: genes 19 Torsion [C]-CA--CB-[CG] |==|  0.52594
USER: genes 20 Torsion [CA]-CB--CG-[OD2] |==|  0.20226
ROOT
ATOM      1  CA  ASP E 180       1.690 -27.847  24.537  1.00 46.29 LIG 0.19  C 
ENDROOT
BRANCH 1 2
ATOM      2  CB  ASP E 180       1.188 -27.834  25.977  1.00 53.57 LIG 0.15  C 
BRANCH 2 3
ATOM      3  CG  ASP E 180      -0.003 -26.925  26.168  1.00 52.91 LIG 0.17  C 
ATOM      4 OD1  ASP E 180       0.100 -25.970  26.969  1.00 53.16 LIG-0.65  OA
ATOM      5 OD2  ASP E 180      -1.040 -27.161  25.513  1.00 39.91 LIG-0.65  OA
ENDBRANCH 2 3
ENDBRANCH 1 2
BRANCH 1 6
ATOM      6  C   ASP E 180       3.022 -28.605  24.456  1.00 46.16 LIG 0.24  C 
ATOM      7 O    ASP E 180       3.064 -29.752  24.006  1.00 47.92 LIG-0.27  OA
ATOM      8  N   ASP E 181       4.111 -27.975  24.885  1.00 48.75 LIG-0.34  N 
ATOM      9 H    ASP E 181       4.115 -27.196  25.248  1.00 48.75 LIG 0.16  HD
BRANCH 8 10
ATOM     10  CA  ASP E 181       5.422 -28.604  24.756  1.00 45.01 LIG 0.19  C 
BRANCH 10 11
ATOM     11  C   ASP E 181       5.868 -28.759  23.305  1.00 47.33 LIG 0.24  C 
ATOM     12 O    ASP E 181       5.163 -29.342  22.472  1.00 41.27 LIG-0.27  OA
ATOM     13  N   MET E 182       7.061 -28.242  23.025  1.00 63.00 LIG-0.35  N 
ATOM     14 H    MET E 182       7.577 -27.894  23.619  1.00 63.00 LIG 0.16  HD
BRANCH 13 15
ATOM     15  CA  MET E 182       7.612 -28.215  21.678  1.00 43.88 LIG 0.16  C 
BRANCH 15 16
ATOM     16  CB  MET E 182       7.899 -29.639  21.202  1.00 44.38 LIG 0.04  C 
BRANCH 16 17
ATOM     17  CG  MET E 182       7.605 -29.864  19.733  1.00 63.17 LIG 0.08  C 
BRANCH 17 18
ATOM     18 SD   MET E 182       5.929 -30.459  19.446  1.00101.17 LIG-0.17  SA
ATOM     19  CE  MET E 182       5.782 -31.682  20.748  1.00 68.91 LIG 0.09  C 
ENDBRANCH 17 18
ENDBRANCH 16 17
ENDBRANCH 15 16
BRANCH 15 20
ATOM     20  C   MET E 182       6.667 -27.513  20.701  1.00 60.82 LIG 0.22  C 
ATOM     21 O    MET E 182       6.281 -26.357  20.904  1.00 58.83 LIG-0.29  OA
ENDBRANCH 15 20
ENDBRANCH 13 15
ENDBRANCH 10 11
BRANCH 10 22
ATOM     22  CB  ASP E 181       5.418 -29.965  25.451  1.00 40.72 LIG 0.15  C 
BRANCH 22 23
ATOM     23  CG  ASP E 181       6.591 -30.132  26.394  1.00 40.82 LIG 0.17  C 
ATOM     24 OD1  ASP E 181       7.411 -29.194  26.516  1.00 47.44 LIG-0.65  OA
ATOM     25 OD2  ASP E 181       6.682 -31.206  27.021  1.00 24.37 LIG-0.65  OA
ENDBRANCH 22 23
ENDBRANCH 10 22
ENDBRANCH 8 10
ENDBRANCH 1 6
BRANCH 1 26
ATOM     26  N   ASP E 180       0.719 -28.464  23.628  1.00 48.48 LIG-0.34  N 
ATOM     27  C   ASP E 179      -0.134 -27.807  22.840  1.00 52.76 LIG 0.24  C 
ATOM     28 O    ASP E 179      -0.237 -26.581  22.790  1.00 54.54 LIG-0.27  OA
ATOM     29 H    ASP E 180       0.750 -29.323  23.649  1.00 48.48 LIG 0.16  HD
BRANCH 27 30
ATOM     30  CA  ASP E 179      -1.012 -28.701  21.967  1.00 62.98 LIG 0.19  C 
BRANCH 30 31
ATOM     31  N   ASP E 179      -1.791 -28.006  20.938  1.00 68.60 LIG-0.34  N 
ATOM     32  C   VAL E 178      -3.122 -28.048  20.886  1.00 59.78 LIG 0.26  C 
ATOM     33 O    VAL E 178      -3.799 -28.835  21.550  1.00 49.42 LIG-0.27  OA
ATOM     34 H    ASP E 179      -1.310 -27.571  20.374  1.00 68.60 LIG 0.16  HD
BRANCH 32 35
ATOM     35  CA  VAL E 178      -3.786 -27.067  19.914  1.00 59.92 LIG 0.40  C 
ATOM     36  N   VAL E 178      -4.550 -27.758  18.881  1.00 55.12 LIG 0.61  N 
BRANCH 35 37
ATOM     37  CB  VAL E 178      -4.680 -26.087  20.718  1.00 50.97 LIG 0.03  C 
ATOM     38  CG2 VAL E 178      -4.066 -25.768  22.073  1.00 47.22 LIG 0.01  C 
ATOM     39  CG1 VAL E 178      -6.067 -26.669  20.888  1.00 50.59 LIG 0.01  C 
ENDBRANCH 35 37
ENDBRANCH 32 35
ENDBRANCH 30 31
BRANCH 30 40
ATOM     40  CB  ASP E 179      -0.124 -29.756  21.310  1.00 47.75 LIG 0.15  C 
BRANCH 40 41
ATOM     41  CG  ASP E 179      -0.855 -30.548  20.255  1.00 48.80 LIG 0.17  C 
ATOM     42 OD2  ASP E 179      -1.125 -29.992  19.163  1.00 55.56 LIG-0.65  OA
ATOM     43 OD1  ASP E 179      -1.157 -31.729  20.521  1.00 40.87 LIG-0.65  OA
ENDBRANCH 40 41
ENDBRANCH 30 40
ENDBRANCH 27 30
ENDBRANCH 1 26
TORSDOF 19
ENDMDL
MODEL 83
USER: ADFR SOLUTION from run 7
USER: SCORE 11.004567 LL:  -2.631 LR: -11.332 RR:   0.000 FEB:  -5.664
USER: RMSD 7.838035
USER: SEED 784813
USER: STATUS no improvement in best in 14 clusters for 5 generations
USER: GENES 21
USER: genes 0 Translation |==|  0.56280 0.50352 0.48880
USER: genes 1 Rotation |==|  0.37634 0.19080 0.79233 0.73161
USER: genes 2 Torsion [C]-CA--CB-[CG] |==|  0.29575
USER: genes 3 Torsion [CA]-CB--CG-[OD1] |==|  0.40557
USER: genes 4 Torsion [N]-CA--C-[N] |==|  0.15556
USER: genes 5 Torsion [C]-N--CA-[CB] |==|  0.29702
USER: genes 6 Torsion [N]-CA--C-[N] |==|  0.50563
USER: genes 7 Torsion [C]-N--CA-[CB] |==|  0.83120
USER: genes 8 Torsion [N]-CA--CB-[CG] |==|  0.81602
USER: genes 9 Torsion [CA]-CB--CG-[SD] |==|  0.58055
USER: genes 10 Torsion [CB]-CG--SD-[CE] |==|  0.16363
USER: genes 11 Torsion [N]-CA--C-[O] |==|  0.00457
USER: genes 12 Torsion [N]-CA--CB-[CG] |==|  0.04483
USER: genes 13 Torsion [CA]-CB--CG-[OD1] |==|  0.64950
USER: genes 14 Torsion [CB]-CA--N-[C] |==|  0.17194
USER: genes 15 Torsion [N]-C--CA-[N] |==|  0.95621
USER: genes 16 Torsion [C]-CA--N-[C] |==|  0.56068
USER: genes 17 Torsion [N]-C--CA-[N] |==|  0.32147
USER: genes 18 Torsion [C]-CA--CB-[CG2] |==|  0.45064
USER: genes 19 Torsion [C]-CA--CB-[CG] |==|  0.05497
USER: genes 20 Torsion [CA]-CB--CG-[OD2] |==|  0.74371
ROOT
ATOM      1  CA  ASP E 180       3.908 -27.478  26.304  1.00 46.29 LIG 0.19  C 
ENDROOT
BRANCH 1 2
ATOM      2  CB  ASP E 180       5.033 -28.429  26.698  1.00 53.57 LIG 0.15  C 
BRANCH 2 3
ATOM      3  CG  ASP E 180       6.134 -28.485  25.665  1.00 52.91 LIG 0.17  C 
ATOM      4 OD1  ASP E 180       7.311 -28.647  26.058  1.00 53.16 LIG-0.65  OA
ATOM      5 OD2  ASP E 180       5.824 -28.374  24.461  1.00 39.91 LIG-0.65  OA
ENDBRANCH 2 3
ENDBRANCH 1 2
BRANCH 1 6
ATOM      6  C   ASP E 180       2.672 -28.281  25.876  1.00 46.16 LIG 0.24  C 
ATOM      7 O    ASP E 180       2.697 -29.514  25.871  1.00 47.92 LIG-0.27  OA
ATOM      8  N   ASP E 181       1.591 -27.596  25.518  1.00 48.75 LIG-0.34  N 
ATOM      9 H    ASP E 181       1.552 -26.739  25.463  1.00 48.75 LIG 0.16  HD
BRANCH 8 10
ATOM     10  CA  ASP E 181       0.355 -28.296  25.184  1.00 45.01 LIG 0.19  C 
BRANCH 10 11
ATOM     11  C   ASP E 181      -0.242 -27.848  23.853  1.00 47.33 LIG 0.24  C 
ATOM     12 O    ASP E 181       0.312 -26.991  23.153  1.00 41.27 LIG-0.27  OA
ATOM     13  N   MET E 182      -1.393 -28.430  23.529  1.00 63.00 LIG-0.35  N 
ATOM     14 H    MET E 182      -1.808 -28.977  24.046  1.00 63.00 LIG 0.16  HD
BRANCH 13 15
ATOM     15  CA  MET E 182      -2.064 -28.195  22.259  1.00 43.88 LIG 0.16  C 
BRANCH 15 16
ATOM     16  CB  MET E 182      -2.419 -26.715  22.121  1.00 44.38 LIG 0.04  C 
BRANCH 16 17
ATOM     17  CG  MET E 182      -3.457 -26.240  23.119  1.00 63.17 LIG 0.08  C 
BRANCH 17 18
ATOM     18 SD   MET E 182      -4.447 -24.874  22.488  1.00101.17 LIG-0.17  SA
ATOM     19  CE  MET E 182      -5.159 -25.625  21.025  1.00 68.91 LIG 0.09  C 
ENDBRANCH 17 18
ENDBRANCH 16 17
ENDBRANCH 15 16
BRANCH 15 20
ATOM     20  C   MET E 182      -1.200 -28.643  21.078  1.00 60.82 LIG 0.22  C 
ATOM     21 O    MET E 182      -0.093 -29.162  21.256  1.00 58.83 LIG-0.29  OA
ENDBRANCH 15 20
ENDBRANCH 13 15
ENDBRANCH 10 11
BRANCH 10 22
ATOM     22  CB  ASP E 181      -0.667 -28.114  26.305  1.00 40.72 LIG 0.15  C 
BRANCH 22 23
ATOM     23  CG  ASP E 181      -0.300 -26.979  27.238  1.00 40.82 LIG 0.17  C 
ATOM     24 OD1  ASP E 181      -0.229 -27.202  28.468  1.00 47.44 LIG-0.65  OA
ATOM     25 OD2  ASP E 181      -0.071 -25.863  26.731  1.00 24.37 LIG-0.65  OA
ENDBRANCH 22 23
ENDBRANCH 10 22
ENDBRANCH 8 10
ENDBRANCH 1 6
BRANCH 1 26
ATOM     26  N   ASP E 180       3.549 -26.576  27.403  1.00 48.48 LIG-0.34  N 
ATOM     27  C   ASP E 179       4.361 -25.681  27.970  1.00 52.76 LIG 0.24  C 
ATOM     28 O    ASP E 179       5.540 -25.509  27.657  1.00 54.54 LIG-0.27  OA
ATOM     29 H    ASP E 180       2.735 -26.679  27.661  1.00 48.48 LIG 0.16  HD
BRANCH 27 30
ATOM     30  CA  ASP E 179       3.716 -24.846  29.074  1.00 62.98 LIG 0.19  C 
BRANCH 30 31
ATOM     31  N   ASP E 179       2.251 -24.878  29.112  1.00 68.60 LIG-0.34  N 
ATOM     32  C   VAL E 178       1.521 -23.927  29.693  1.00 59.78 LIG 0.26  C 
ATOM     33 O    VAL E 178       2.001 -23.063  30.430  1.00 49.42 LIG-0.27  OA
ATOM     34 H    ASP E 179       1.909 -25.566  28.726  1.00 68.60 LIG 0.16  HD
BRANCH 32 35
ATOM     35  CA  VAL E 178       0.014 -23.977  29.422  1.00 59.92 LIG 0.40  C 
ATOM     36  N   VAL E 178      -0.750 -24.233  30.639  1.00 55.12 LIG 0.61  N 
BRANCH 35 37
ATOM     37  CB  VAL E 178      -0.423 -22.650  28.749  1.00 50.97 LIG 0.03  C 
ATOM     38  CG2 VAL E 178      -1.776 -22.798  28.070  1.00 47.22 LIG 0.01  C 
ATOM     39  CG1 VAL E 178       0.625 -22.202  27.753  1.00 50.59 LIG 0.01  C 
ENDBRANCH 35 37
ENDBRANCH 32 35
ENDBRANCH 30 31
BRANCH 30 40
ATOM     40  CB  ASP E 179       4.272 -25.312  30.419  1.00 47.75 LIG 0.15  C 
BRANCH 40 41
ATOM     41  CG  ASP E 179       5.573 -26.061  30.276  1.00 48.80 LIG 0.17  C 
ATOM     42 OD2  ASP E 179       5.540 -27.310  30.164  1.00 55.56 LIG-0.65  OA
ATOM     43 OD1  ASP E 179       6.628 -25.396  30.274  1.00 40.87 LIG-0.65  OA
ENDBRANCH 40 41
ENDBRANCH 30 40
ENDBRANCH 27 30
ENDBRANCH 1 26
TORSDOF 19
ENDMDL
MODEL 84
USER: ADFR SOLUTION from run 87
USER: SCORE 11.723754 LL:  -2.133 LR: -11.333 RR:   0.000 FEB:  -5.666
USER: RMSD 9.317564
USER: SEED 86
USER: STATUS no improvement in best in 21 clusters for 5 generations
USER: GENES 21
USER: genes 0 Translation |==|  0.51214 0.65954 0.59022
USER: genes 1 Rotation |==|  0.34508 0.20587 0.86229 0.59077
USER: genes 2 Torsion [C]-CA--CB-[CG] |==|  0.20591
USER: genes 3 Torsion [CA]-CB--CG-[OD1] |==|  0.06993
USER: genes 4 Torsion [N]-CA--C-[N] |==|  0.21888
USER: genes 5 Torsion [C]-N--CA-[CB] |==|  0.16449
USER: genes 6 Torsion [N]-CA--C-[N] |==|  0.52790
USER: genes 7 Torsion [C]-N--CA-[CB] |==|  0.78331
USER: genes 8 Torsion [N]-CA--CB-[CG] |==|  0.50605
USER: genes 9 Torsion [CA]-CB--CG-[SD] |==|  0.61940
USER: genes 10 Torsion [CB]-CG--SD-[CE] |==|  0.46446
USER: genes 11 Torsion [N]-CA--C-[O] |==|  0.21123
USER: genes 12 Torsion [N]-CA--CB-[CG] |==|  0.21309
USER: genes 13 Torsion [CA]-CB--CG-[OD1] |==|  0.74162
USER: genes 14 Torsion [CB]-CA--N-[C] |==|  0.53613
USER: genes 15 Torsion [N]-C--CA-[N] |==|  0.98742
USER: genes 16 Torsion [C]-CA--N-[C] |==|  0.74078
USER: genes 17 Torsion [N]-C--CA-[N] |==|  0.39522
USER: genes 18 Torsion [C]-CA--CB-[CG2] |==|  0.21836
USER: genes 19 Torsion [C]-CA--CB-[CG] |==|  0.60811
USER: genes 20 Torsion [CA]-CB--CG-[OD2] |==|  0.35052
ROOT
ATOM      1  CA  ASP E 180       2.806 -24.904  28.358  1.00 46.29 LIG 0.19  C 
ENDROOT
BRANCH 1 2
ATOM      2  CB  ASP E 180       3.914 -25.119  29.384  1.00 53.57 LIG 0.15  C 
BRANCH 2 3
ATOM      3  CG  ASP E 180       5.124 -25.805  28.794  1.00 52.91 LIG 0.17  C 
ATOM      4 OD1  ASP E 180       5.331 -25.694  27.565  1.00 53.16 LIG-0.65  OA
ATOM      5 OD2  ASP E 180       5.872 -26.449  29.559  1.00 39.91 LIG-0.65  OA
ENDBRANCH 2 3
ENDBRANCH 1 2
BRANCH 1 6
ATOM      6  C   ASP E 180       2.108 -26.237  28.056  1.00 46.16 LIG 0.24  C 
ATOM      7 O    ASP E 180       2.165 -27.170  28.861  1.00 47.92 LIG-0.27  OA
ATOM      8  N   ASP E 181       1.450 -26.336  26.906  1.00 48.75 LIG-0.34  N 
ATOM      9 H    ASP E 181       1.429 -25.726  26.300  1.00 48.75 LIG 0.16  HD
BRANCH 8 10
ATOM     10  CA  ASP E 181       0.692 -27.544  26.595  1.00 45.01 LIG 0.19  C 
BRANCH 10 11
ATOM     11  C   ASP E 181       0.055 -27.507  25.209  1.00 47.33 LIG 0.24  C 
ATOM     12 O    ASP E 181       0.326 -26.613  24.398  1.00 41.27 LIG-0.27  OA
ATOM     13  N   MET E 182      -0.812 -28.485  24.963  1.00 63.00 LIG-0.35  N 
ATOM     14 H    MET E 182      -1.047 -29.068  25.550  1.00 63.00 LIG 0.16  HD
BRANCH 13 15
ATOM     15  CA  MET E 182      -1.450 -28.664  23.667  1.00 43.88 LIG 0.16  C 
BRANCH 15 16
ATOM     16  CB  MET E 182      -2.588 -27.657  23.501  1.00 44.38 LIG 0.04  C 
BRANCH 16 17
ATOM     17  CG  MET E 182      -3.348 -27.802  22.198  1.00 63.17 LIG 0.08  C 
BRANCH 17 18
ATOM     18 SD   MET E 182      -3.701 -26.214  21.424  1.00101.17 LIG-0.17  SA
ATOM     19  CE  MET E 182      -4.222 -26.747  19.794  1.00 68.91 LIG 0.09  C 
ENDBRANCH 17 18
ENDBRANCH 16 17
ENDBRANCH 15 16
BRANCH 15 20
ATOM     20  C   MET E 182      -0.445 -28.517  22.523  1.00 60.82 LIG 0.22  C 
ATOM     21 O    MET E 182       0.357 -29.419  22.256  1.00 58.83 LIG-0.29  OA
ENDBRANCH 15 20
ENDBRANCH 13 15
ENDBRANCH 10 11
BRANCH 10 22
ATOM     22  CB  ASP E 181      -0.380 -27.775  27.659  1.00 40.72 LIG 0.15  C 
BRANCH 22 23
ATOM     23  CG  ASP E 181      -1.570 -26.855  27.485  1.00 40.82 LIG 0.17  C 
ATOM     24 OD1  ASP E 181      -1.593 -25.768  28.105  1.00 47.44 LIG-0.65  OA
ATOM     25 OD2  ASP E 181      -2.478 -27.222  26.713  1.00 24.37 LIG-0.65  OA
ENDBRANCH 22 23
ENDBRANCH 10 22
ENDBRANCH 8 10
ENDBRANCH 1 6
BRANCH 1 26
ATOM     26  N   ASP E 180       1.816 -23.928  28.825  1.00 48.48 LIG-0.34  N 
ATOM     27  C   ASP E 179       0.619 -23.711  28.274  1.00 52.76 LIG 0.24  C 
ATOM     28 O    ASP E 179       0.194 -24.292  27.275  1.00 54.54 LIG-0.27  OA
ATOM     29 H    ASP E 180       2.086 -23.489  29.514  1.00 48.48 LIG 0.16  HD
BRANCH 27 30
ATOM     30  CA  ASP E 179      -0.227 -22.658  28.986  1.00 62.98 LIG 0.19  C 
BRANCH 30 31
ATOM     31  N   ASP E 179       0.349 -22.118  30.220  1.00 68.60 LIG-0.34  N 
ATOM     32  C   VAL E 178       0.076 -22.617  31.426  1.00 59.78 LIG 0.26  C 
ATOM     33 O    VAL E 178      -0.837 -23.419  31.633  1.00 49.42 LIG-0.27  OA
ATOM     34 H    ASP E 179       0.877 -21.451  30.094  1.00 68.60 LIG 0.16  HD
BRANCH 32 35
ATOM     35  CA  VAL E 178       0.951 -22.109  32.576  1.00 59.92 LIG 0.40  C 
ATOM     36  N   VAL E 178       0.185 -21.930  33.805  1.00 55.12 LIG 0.61  N 
BRANCH 35 37
ATOM     37  CB  VAL E 178       2.131 -23.094  32.785  1.00 50.97 LIG 0.03  C 
ATOM     38  CG2 VAL E 178       3.220 -22.875  31.745  1.00 47.22 LIG 0.01  C 
ATOM     39  CG1 VAL E 178       1.632 -24.522  32.737  1.00 50.59 LIG 0.01  C 
ENDBRANCH 35 37
ENDBRANCH 32 35
ENDBRANCH 30 31
BRANCH 30 40
ATOM     40  CB  ASP E 179      -0.501 -21.516  28.007  1.00 47.75 LIG 0.15  C 
BRANCH 40 41
ATOM     41  CG  ASP E 179      -0.444 -20.164  28.672  1.00 48.80 LIG 0.17  C 
ATOM     42 OD2  ASP E 179       0.311 -19.286  28.188  1.00 55.56 LIG-0.65  OA
ATOM     43 OD1  ASP E 179      -1.158 -19.981  29.678  1.00 40.87 LIG-0.65  OA
ENDBRANCH 40 41
ENDBRANCH 30 40
ENDBRANCH 27 30
ENDBRANCH 1 26
TORSDOF 19
ENDMDL
MODEL 85
USER: ADFR SOLUTION from run 75
USER: SCORE 12.445224 LL:  -2.977 LR: -11.329 RR:   0.000 FEB:  -5.662
USER: RMSD 9.129393
USER: SEED 74
USER: STATUS no improvement in best in 7 clusters for 5 generations
USER: GENES 21
USER: genes 0 Translation |==|  0.54799 0.56296 0.53611
USER: genes 1 Rotation |==|  0.37684 0.18088 0.82864 0.65808
USER: genes 2 Torsion [C]-CA--CB-[CG] |==|  0.55828
USER: genes 3 Torsion [CA]-CB--CG-[OD1] |==|  0.85193
USER: genes 4 Torsion [N]-CA--C-[N] |==|  0.30073
USER: genes 5 Torsion [C]-N--CA-[CB] |==|  0.46519
USER: genes 6 Torsion [N]-CA--C-[N] |==|  0.89483
USER: genes 7 Torsion [C]-N--CA-[CB] |==|  0.47052
USER: genes 8 Torsion [N]-CA--CB-[CG] |==|  0.96865
USER: genes 9 Torsion [CA]-CB--CG-[SD] |==|  0.34416
USER: genes 10 Torsion [CB]-CG--SD-[CE] |==|  0.84359
USER: genes 11 Torsion [N]-CA--C-[O] |==|  0.82800
USER: genes 12 Torsion [N]-CA--CB-[CG] |==|  0.77743
USER: genes 13 Torsion [CA]-CB--CG-[OD1] |==|  0.42763
USER: genes 14 Torsion [CB]-CA--N-[C] |==|  0.54487
USER: genes 15 Torsion [N]-C--CA-[N] |==|  0.00124
USER: genes 16 Torsion [C]-CA--N-[C] |==|  0.76249
USER: genes 17 Torsion [N]-C--CA-[N] |==|  0.70357
USER: genes 18 Torsion [C]-CA--CB-[CG2] |==|  0.58908
USER: genes 19 Torsion [C]-CA--CB-[CG] |==|  0.22399
USER: genes 20 Torsion [CA]-CB--CG-[OD2] |==|  0.02208
ROOT
ATOM      1  CA  ASP E 180       3.586 -26.497  27.262  1.00 46.29 LIG 0.19  C 
ENDROOT
BRANCH 1 2
ATOM      2  CB  ASP E 180       4.815 -27.073  27.958  1.00 53.57 LIG 0.15  C 
BRANCH 2 3
ATOM      3  CG  ASP E 180       5.488 -26.073  28.869  1.00 52.91 LIG 0.17  C 
ATOM      4 OD1  ASP E 180       5.806 -24.959  28.396  1.00 53.16 LIG-0.65  OA
ATOM      5 OD2  ASP E 180       5.691 -26.396  30.057  1.00 39.91 LIG-0.65  OA
ENDBRANCH 2 3
ENDBRANCH 1 2
BRANCH 1 6
ATOM      6  C   ASP E 180       2.671 -27.636  26.793  1.00 46.16 LIG 0.24  C 
ATOM      7 O    ASP E 180       2.322 -28.522  27.576  1.00 47.92 LIG-0.27  OA
ATOM      8  N   ASP E 181       2.278 -27.622  25.523  1.00 48.75 LIG-0.34  N 
ATOM      9 H    ASP E 181       2.539 -27.049  24.937  1.00 48.75 LIG 0.16  HD
BRANCH 8 10
ATOM     10  CA  ASP E 181       1.339 -28.625  25.033  1.00 45.01 LIG 0.19  C 
BRANCH 10 11
ATOM     11  C   ASP E 181       1.943 -30.025  24.969  1.00 47.33 LIG 0.24  C 
ATOM     12 O    ASP E 181       1.284 -31.027  25.276  1.00 41.27 LIG-0.27  OA
ATOM     13  N   MET E 182       3.214 -30.071  24.582  1.00 63.00 LIG-0.35  N 
ATOM     14 H    MET E 182       3.688 -29.370  24.431  1.00 63.00 LIG 0.16  HD
BRANCH 13 15
ATOM     15  CA  MET E 182       3.930 -31.322  24.375  1.00 43.88 LIG 0.16  C 
BRANCH 15 16
ATOM     16  CB  MET E 182       5.268 -31.051  23.689  1.00 44.38 LIG 0.04  C 
BRANCH 16 17
ATOM     17  CG  MET E 182       5.407 -29.640  23.154  1.00 63.17 LIG 0.08  C 
BRANCH 17 18
ATOM     18 SD   MET E 182       6.858 -28.794  23.805  1.00101.17 LIG-0.17  SA
ATOM     19  CE  MET E 182       6.560 -28.928  25.567  1.00 68.91 LIG 0.09  C 
ENDBRANCH 17 18
ENDBRANCH 16 17
ENDBRANCH 15 16
BRANCH 15 20
ATOM     20  C   MET E 182       4.154 -32.062  25.695  1.00 60.82 LIG 0.22  C 
ATOM     21 O    MET E 182       4.825 -31.562  26.604  1.00 58.83 LIG-0.29  OA
ENDBRANCH 15 20
ENDBRANCH 13 15
ENDBRANCH 10 11
BRANCH 10 22
ATOM     22  CB  ASP E 181       0.811 -28.218  23.658  1.00 40.72 LIG 0.15  C 
BRANCH 22 23
ATOM     23  CG  ASP E 181      -0.293 -27.186  23.749  1.00 40.82 LIG 0.17  C 
ATOM     24 OD1  ASP E 181      -0.482 -26.412  22.783  1.00 47.44 LIG-0.65  OA
ATOM     25 OD2  ASP E 181      -0.978 -27.161  24.790  1.00 24.37 LIG-0.65  OA
ENDBRANCH 22 23
ENDBRANCH 10 22
ENDBRANCH 8 10
ENDBRANCH 1 6
BRANCH 1 26
ATOM     26  N   ASP E 180       2.835 -25.597  28.143  1.00 48.48 LIG-0.34  N 
ATOM     27  C   ASP E 179       1.580 -25.186  27.945  1.00 52.76 LIG 0.24  C 
ATOM     28 O    ASP E 179       0.889 -25.491  26.973  1.00 54.54 LIG-0.27  OA
ATOM     29 H    ASP E 180       3.292 -25.348  28.827  1.00 48.48 LIG 0.16  HD
BRANCH 27 30
ATOM     30  CA  ASP E 179       1.029 -24.276  29.041  1.00 62.98 LIG 0.19  C 
BRANCH 30 31
ATOM     31  N   ASP E 179       1.955 -23.982  30.139  1.00 68.60 LIG-0.34  N 
ATOM     32  C   VAL E 178       2.101 -24.780  31.196  1.00 59.78 LIG 0.26  C 
ATOM     33 O    VAL E 178       1.330 -25.706  31.454  1.00 49.42 LIG-0.27  OA
ATOM     34 H    ASP E 179       2.393 -23.249  30.036  1.00 68.60 LIG 0.16  HD
BRANCH 32 35
ATOM     35  CA  VAL E 178       3.284 -24.464  32.117  1.00 59.92 LIG 0.40  C 
ATOM     36  N   VAL E 178       4.361 -25.438  31.974  1.00 55.12 LIG 0.61  N 
BRANCH 35 37
ATOM     37  CB  VAL E 178       3.782 -23.025  31.822  1.00 50.97 LIG 0.03  C 
ATOM     38  CG2 VAL E 178       5.284 -22.907  32.043  1.00 47.22 LIG 0.01  C 
ATOM     39  CG1 VAL E 178       3.040 -22.029  32.688  1.00 50.59 LIG 0.01  C 
ENDBRANCH 35 37
ENDBRANCH 32 35
ENDBRANCH 30 31
BRANCH 30 40
ATOM     40  CB  ASP E 179       0.568 -22.969  28.398  1.00 47.75 LIG 0.15  C 
BRANCH 40 41
ATOM     41  CG  ASP E 179      -0.796 -23.089  27.765  1.00 48.80 LIG 0.17  C 
ATOM     42 OD2  ASP E 179      -1.456 -24.139  27.951  1.00 55.56 LIG-0.65  OA
ATOM     43 OD1  ASP E 179      -1.205 -22.128  27.083  1.00 40.87 LIG-0.65  OA
ENDBRANCH 40 41
ENDBRANCH 30 40
ENDBRANCH 27 30
ENDBRANCH 1 26
TORSDOF 19
ENDMDL
MODEL 86
USER: ADFR SOLUTION from run 71
USER: SCORE 12.089748 LL:  -2.907 LR: -11.317 RR:   0.000 FEB:  -5.649
USER: RMSD 9.174413
USER: SEED 70
USER: STATUS no improvement in best in 8 clusters for 5 generations
USER: GENES 21
USER: genes 0 Translation |==|  0.57192 0.50857 0.50702
USER: genes 1 Rotation |==|  0.56563 0.87526 0.26377 0.72151
USER: genes 2 Torsion [C]-CA--CB-[CG] |==|  0.19076
USER: genes 3 Torsion [CA]-CB--CG-[OD1] |==|  0.59439
USER: genes 4 Torsion [N]-CA--C-[N] |==|  0.19189
USER: genes 5 Torsion [C]-N--CA-[CB] |==|  0.23098
USER: genes 6 Torsion [N]-CA--C-[N] |==|  0.87807
USER: genes 7 Torsion [C]-N--CA-[CB] |==|  0.27306
USER: genes 8 Torsion [N]-CA--CB-[CG] |==|  0.66392
USER: genes 9 Torsion [CA]-CB--CG-[SD] |==|  0.25576
USER: genes 10 Torsion [CB]-CG--SD-[CE] |==|  0.06369
USER: genes 11 Torsion [N]-CA--C-[O] |==|  0.03295
USER: genes 12 Torsion [N]-CA--CB-[CG] |==|  0.10674
USER: genes 13 Torsion [CA]-CB--CG-[OD1] |==|  0.63403
USER: genes 14 Torsion [CB]-CA--N-[C] |==|  0.48342
USER: genes 15 Torsion [N]-C--CA-[N] |==|  0.04377
USER: genes 16 Torsion [C]-CA--N-[C] |==|  0.72719
USER: genes 17 Torsion [N]-C--CA-[N] |==|  0.52308
USER: genes 18 Torsion [C]-CA--CB-[CG2] |==|  0.79170
USER: genes 19 Torsion [C]-CA--CB-[CG] |==|  0.78642
USER: genes 20 Torsion [CA]-CB--CG-[OD2] |==|  0.49773
ROOT
ATOM      1  CA  ASP E 180       4.106 -27.395  26.673  1.00 46.29 LIG 0.19  C 
ENDROOT
BRANCH 1 2
ATOM      2  CB  ASP E 180       4.039 -27.181  28.182  1.00 53.57 LIG 0.15  C 
BRANCH 2 3
ATOM      3  CG  ASP E 180       5.136 -26.274  28.689  1.00 52.91 LIG 0.17  C 
ATOM      4 OD1  ASP E 180       5.612 -26.496  29.824  1.00 53.16 LIG-0.65  OA
ATOM      5 OD2  ASP E 180       5.527 -25.347  27.951  1.00 39.91 LIG-0.65  OA
ENDBRANCH 2 3
ENDBRANCH 1 2
BRANCH 1 6
ATOM      6  C   ASP E 180       5.348 -28.225  26.319  1.00 46.16 LIG 0.24  C 
ATOM      7 O    ASP E 180       5.989 -28.800  27.201  1.00 47.92 LIG-0.27  OA
ATOM      8  N   ASP E 181       5.692 -28.294  25.037  1.00 48.75 LIG-0.34  N 
ATOM      9 H    ASP E 181       5.300 -27.868  24.402  1.00 48.75 LIG 0.16  HD
BRANCH 8 10
ATOM     10  CA  ASP E 181       6.810 -29.136  24.621  1.00 45.01 LIG 0.19  C 
BRANCH 10 11
ATOM     11  C   ASP E 181       7.475 -28.650  23.337  1.00 47.33 LIG 0.24  C 
ATOM     12 O    ASP E 181       8.707 -28.595  23.230  1.00 41.27 LIG-0.27  OA
ATOM     13  N   MET E 182       6.636 -28.281  22.374  1.00 63.00 LIG-0.35  N 
ATOM     14 H    MET E 182       5.783 -28.260  22.473  1.00 63.00 LIG 0.16  HD
BRANCH 13 15
ATOM     15  CA  MET E 182       7.086 -27.876  21.050  1.00 43.88 LIG 0.16  C 
BRANCH 15 16
ATOM     16  CB  MET E 182       6.966 -29.047  20.076  1.00 44.38 LIG 0.04  C 
BRANCH 16 17
ATOM     17  CG  MET E 182       8.279 -29.445  19.432  1.00 63.17 LIG 0.08  C 
BRANCH 17 18
ATOM     18 SD   MET E 182       9.136 -30.734  20.352  1.00101.17 LIG-0.17  SA
ATOM     19  CE  MET E 182       7.769 -31.473  21.245  1.00 68.91 LIG 0.09  C 
ENDBRANCH 17 18
ENDBRANCH 16 17
ENDBRANCH 15 16
BRANCH 15 20
ATOM     20  C   MET E 182       6.292 -26.675  20.533  1.00 60.82 LIG 0.22  C 
ATOM     21 O    MET E 182       5.550 -26.028  21.279  1.00 58.83 LIG-0.29  OA
ENDBRANCH 15 20
ENDBRANCH 13 15
ENDBRANCH 10 11
BRANCH 10 22
ATOM     22  CB  ASP E 181       6.340 -30.580  24.454  1.00 40.72 LIG 0.15  C 
BRANCH 22 23
ATOM     23  CG  ASP E 181       4.956 -30.667  23.845  1.00 40.82 LIG 0.17  C 
ATOM     24 OD1  ASP E 181       4.102 -31.408  24.382  1.00 47.44 LIG-0.65  OA
ATOM     25 OD2  ASP E 181       4.724 -29.978  22.832  1.00 24.37 LIG-0.65  OA
ENDBRANCH 22 23
ENDBRANCH 10 22
ENDBRANCH 8 10
ENDBRANCH 1 6
BRANCH 1 26
ATOM     26  N   ASP E 180       2.907 -28.067  26.166  1.00 48.48 LIG-0.34  N 
ATOM     27  C   ASP E 179       2.626 -28.289  24.879  1.00 52.76 LIG 0.24  C 
ATOM     28 O    ASP E 179       3.334 -27.931  23.937  1.00 54.54 LIG-0.27  OA
ATOM     29 H    ASP E 180       2.378 -28.317  26.796  1.00 48.48 LIG 0.16  HD
BRANCH 27 30
ATOM     30  CA  ASP E 179       1.321 -29.044  24.634  1.00 62.98 LIG 0.19  C 
BRANCH 30 31
ATOM     31  N   ASP E 179       0.402 -29.099  25.775  1.00 68.60 LIG-0.34  N 
ATOM     32  C   VAL E 178       0.324 -30.149  26.591  1.00 59.78 LIG 0.26  C 
ATOM     33 O    VAL E 178       0.845 -31.238  26.342  1.00 49.42 LIG-0.27  OA
ATOM     34 H    ASP E 179      -0.079 -28.393  25.867  1.00 68.60 LIG 0.16  HD
BRANCH 32 35
ATOM     35  CA  VAL E 178      -0.491 -29.944  27.872  1.00 59.92 LIG 0.40  C 
ATOM     36  N   VAL E 178      -0.360 -31.073  28.787  1.00 55.12 LIG 0.61  N 
BRANCH 35 37
ATOM     37  CB  VAL E 178      -0.051 -28.618  28.544  1.00 50.97 LIG 0.03  C 
ATOM     38  CG2 VAL E 178       1.300 -28.770  29.227  1.00 47.22 LIG 0.01  C 
ATOM     39  CG1 VAL E 178      -1.099 -28.164  29.537  1.00 50.59 LIG 0.01  C 
ENDBRANCH 35 37
ENDBRANCH 32 35
ENDBRANCH 30 31
BRANCH 30 40
ATOM     40  CB  ASP E 179       0.613 -28.408  23.438  1.00 47.75 LIG 0.15  C 
BRANCH 40 41
ATOM     41  CG  ASP E 179      -0.067 -27.110  23.795  1.00 48.80 LIG 0.17  C 
ATOM     42 OD2  ASP E 179      -0.673 -26.480  22.895  1.00 55.56 LIG-0.65  OA
ATOM     43 OD1  ASP E 179       0.004 -26.725  24.979  1.00 40.87 LIG-0.65  OA
ENDBRANCH 40 41
ENDBRANCH 30 40
ENDBRANCH 27 30
ENDBRANCH 1 26
TORSDOF 19
ENDMDL
MODEL 87
USER: ADFR SOLUTION from run 33
USER: SCORE 12.776590 LL:  -2.993 LR: -11.310 RR:   0.000 FEB:  -5.642
USER: RMSD 7.004749
USER: SEED 32
USER: STATUS searching
USER: GENES 21
USER: genes 0 Translation |==|  0.51990 0.47384 0.52371
USER: genes 1 Rotation |==|  0.57853 0.22789 0.09965 0.59752
USER: genes 2 Torsion [C]-CA--CB-[CG] |==|  0.16976
USER: genes 3 Torsion [CA]-CB--CG-[OD1] |==|  0.24945
USER: genes 4 Torsion [N]-CA--C-[N] |==|  0.74436
USER: genes 5 Torsion [C]-N--CA-[CB] |==|  0.80556
USER: genes 6 Torsion [N]-CA--C-[N] |==|  0.22086
USER: genes 7 Torsion [C]-N--CA-[CB] |==|  0.85408
USER: genes 8 Torsion [N]-CA--CB-[CG] |==|  0.81975
USER: genes 9 Torsion [CA]-CB--CG-[SD] |==|  0.41869
USER: genes 10 Torsion [CB]-CG--SD-[CE] |==|  0.83097
USER: genes 11 Torsion [N]-CA--C-[O] |==|  0.09633
USER: genes 12 Torsion [N]-CA--CB-[CG] |==|  0.75673
USER: genes 13 Torsion [CA]-CB--CG-[OD1] |==|  0.91677
USER: genes 14 Torsion [CB]-CA--N-[C] |==|  0.17567
USER: genes 15 Torsion [N]-C--CA-[N] |==|  0.90905
USER: genes 16 Torsion [C]-CA--N-[C] |==|  0.83505
USER: genes 17 Torsion [N]-C--CA-[N] |==|  0.40540
USER: genes 18 Torsion [C]-CA--CB-[CG2] |==|  0.19606
USER: genes 19 Torsion [C]-CA--CB-[CG] |==|  0.76309
USER: genes 20 Torsion [CA]-CB--CG-[OD2] |==|  0.04050
ROOT
ATOM      1  CA  ASP E 180       2.975 -27.968  27.011  1.00 46.29 LIG 0.19  C 
ENDROOT
BRANCH 1 2
ATOM      2  CB  ASP E 180       4.118 -27.484  26.125  1.00 53.57 LIG 0.15  C 
BRANCH 2 3
ATOM      3  CG  ASP E 180       5.375 -27.187  26.910  1.00 52.91 LIG 0.17  C 
ATOM      4 OD1  ASP E 180       6.200 -28.112  27.084  1.00 53.16 LIG-0.65  OA
ATOM      5 OD2  ASP E 180       5.541 -26.030  27.347  1.00 39.91 LIG-0.65  OA
ENDBRANCH 2 3
ENDBRANCH 1 2
BRANCH 1 6
ATOM      6  C   ASP E 180       2.613 -26.882  28.034  1.00 46.16 LIG 0.24  C 
ATOM      7 O    ASP E 180       2.180 -27.190  29.147  1.00 47.92 LIG-0.27  OA
ATOM      8  N   ASP E 181       2.786 -25.616  27.669  1.00 48.75 LIG-0.34  N 
ATOM      9 H    ASP E 181       3.038 -25.363  26.887  1.00 48.75 LIG 0.16  HD
BRANCH 8 10
ATOM     10  CA  ASP E 181       2.544 -24.537  28.622  1.00 45.01 LIG 0.19  C 
BRANCH 10 11
ATOM     11  C   ASP E 181       3.315 -24.712  29.927  1.00 47.33 LIG 0.24  C 
ATOM     12 O    ASP E 181       2.764 -25.139  30.950  1.00 41.27 LIG-0.27  OA
ATOM     13  N   MET E 182       4.595 -24.356  29.876  1.00 63.00 LIG-0.35  N 
ATOM     14 H    MET E 182       4.960 -24.001  29.183  1.00 63.00 LIG 0.16  HD
BRANCH 13 15
ATOM     15  CA  MET E 182       5.508 -24.536  30.995  1.00 43.88 LIG 0.16  C 
BRANCH 15 16
ATOM     16  CB  MET E 182       4.916 -23.912  32.258  1.00 44.38 LIG 0.04  C 
BRANCH 16 17
ATOM     17  CG  MET E 182       4.759 -22.406  32.181  1.00 63.17 LIG 0.08  C 
BRANCH 17 18
ATOM     18 SD   MET E 182       3.391 -21.801  33.184  1.00101.17 LIG-0.17  SA
ATOM     19  CE  MET E 182       2.013 -22.652  32.417  1.00 68.91 LIG 0.09  C 
ENDBRANCH 17 18
ENDBRANCH 16 17
ENDBRANCH 15 16
BRANCH 15 20
ATOM     20  C   MET E 182       5.818 -26.015  31.233  1.00 60.82 LIG 0.22  C 
ATOM     21 O    MET E 182       5.899 -26.812  30.292  1.00 58.83 LIG-0.29  OA
ENDBRANCH 15 20
ENDBRANCH 13 15
ENDBRANCH 10 11
BRANCH 10 22
ATOM     22  CB  ASP E 181       1.048 -24.421  28.909  1.00 40.72 LIG 0.15  C 
BRANCH 22 23
ATOM     23  CG  ASP E 181       0.343 -23.515  27.920  1.00 40.82 LIG 0.17  C 
ATOM     24 OD1  ASP E 181       0.978 -22.569  27.403  1.00 47.44 LIG-0.65  OA
ATOM     25 OD2  ASP E 181      -0.850 -23.764  27.656  1.00 24.37 LIG-0.65  OA
ENDBRANCH 22 23
ENDBRANCH 10 22
ENDBRANCH 8 10
ENDBRANCH 1 6
BRANCH 1 26
ATOM     26  N   ASP E 180       1.787 -28.314  26.224  1.00 48.48 LIG-0.34  N 
ATOM     27  C   ASP E 179       1.716 -29.288  25.314  1.00 52.76 LIG 0.24  C 
ATOM     28 O    ASP E 179       2.656 -30.016  24.994  1.00 54.54 LIG-0.27  OA
ATOM     29 H    ASP E 180       1.113 -27.814  26.409  1.00 48.48 LIG 0.16  HD
BRANCH 27 30
ATOM     30  CA  ASP E 179       0.343 -29.454  24.666  1.00 62.98 LIG 0.19  C 
BRANCH 30 31
ATOM     31  N   ASP E 179      -0.801 -29.150  25.531  1.00 68.60 LIG-0.34  N 
ATOM     32  C   VAL E 178      -1.035 -29.792  26.675  1.00 59.78 LIG 0.26  C 
ATOM     33 O    VAL E 178      -0.452 -30.829  26.998  1.00 49.42 LIG-0.27  OA
ATOM     34 H    ASP E 179      -1.304 -28.520  25.232  1.00 68.60 LIG 0.16  HD
BRANCH 32 35
ATOM     35  CA  VAL E 178      -2.113 -29.184  27.577  1.00 59.92 LIG 0.40  C 
ATOM     36  N   VAL E 178      -2.858 -30.209  28.302  1.00 55.12 LIG 0.61  N 
BRANCH 35 37
ATOM     37  CB  VAL E 178      -1.448 -28.176  28.550  1.00 50.97 LIG 0.03  C 
ATOM     38  CG2 VAL E 178      -0.981 -26.929  27.814  1.00 47.22 LIG 0.01  C 
ATOM     39  CG1 VAL E 178      -0.288 -28.833  29.268  1.00 50.59 LIG 0.01  C 
ENDBRANCH 35 37
ENDBRANCH 32 35
ENDBRANCH 30 31
BRANCH 30 40
ATOM     40  CB  ASP E 179       0.288 -28.574  23.418  1.00 47.75 LIG 0.15  C 
BRANCH 40 41
ATOM     41  CG  ASP E 179      -0.114 -27.155  23.732  1.00 48.80 LIG 0.17  C 
ATOM     42 OD2  ASP E 179      -0.083 -26.770  24.926  1.00 55.56 LIG-0.65  OA
ATOM     43 OD1  ASP E 179      -0.457 -26.426  22.781  1.00 40.87 LIG-0.65  OA
ENDBRANCH 40 41
ENDBRANCH 30 40
ENDBRANCH 27 30
ENDBRANCH 1 26
TORSDOF 19
ENDMDL
MODEL 88
USER: ADFR SOLUTION from run 163
USER: SCORE 12.529047 LL:  -2.170 LR: -11.305 RR:   0.000 FEB:  -5.637
USER: RMSD 8.392740
USER: SEED 162
USER: STATUS no improvement in best in 16 clusters for 5 generations
USER: GENES 21
USER: genes 0 Translation |==|  0.60952 0.60759 0.58235
USER: genes 1 Rotation |==|  0.38372 0.29976 0.72471 0.88196
USER: genes 2 Torsion [C]-CA--CB-[CG] |==|  0.25416
USER: genes 3 Torsion [CA]-CB--CG-[OD1] |==|  0.84749
USER: genes 4 Torsion [N]-CA--C-[N] |==|  0.43315
USER: genes 5 Torsion [C]-N--CA-[CB] |==|  0.23889
USER: genes 6 Torsion [N]-CA--C-[N] |==|  0.95993
USER: genes 7 Torsion [C]-N--CA-[CB] |==|  0.29197
USER: genes 8 Torsion [N]-CA--CB-[CG] |==|  0.63644
USER: genes 9 Torsion [CA]-CB--CG-[SD] |==|  0.78894
USER: genes 10 Torsion [CB]-CG--SD-[CE] |==|  0.54445
USER: genes 11 Torsion [N]-CA--C-[O] |==|  0.54242
USER: genes 12 Torsion [N]-CA--CB-[CG] |==|  0.55179
USER: genes 13 Torsion [CA]-CB--CG-[OD1] |==|  0.64979
USER: genes 14 Torsion [CB]-CA--N-[C] |==|  0.83862
USER: genes 15 Torsion [N]-C--CA-[N] |==|  0.38116
USER: genes 16 Torsion [C]-CA--N-[C] |==|  0.69186
USER: genes 17 Torsion [N]-C--CA-[N] |==|  0.39848
USER: genes 18 Torsion [C]-CA--CB-[CG2] |==|  0.28523
USER: genes 19 Torsion [C]-CA--CB-[CG] |==|  0.30993
USER: genes 20 Torsion [CA]-CB--CG-[OD2] |==|  0.20866
ROOT
ATOM      1  CA  ASP E 180       4.924 -25.761  28.199  1.00 46.29 LIG 0.19  C 
ENDROOT
BRANCH 1 2
ATOM      2  CB  ASP E 180       5.381 -27.208  28.045  1.00 53.57 LIG 0.15  C 
BRANCH 2 3
ATOM      3  CG  ASP E 180       5.301 -27.693  26.617  1.00 52.91 LIG 0.17  C 
ATOM      4 OD1  ASP E 180       4.206 -27.600  26.018  1.00 53.16 LIG-0.65  OA
ATOM      5 OD2  ASP E 180       6.331 -28.161  26.090  1.00 39.91 LIG-0.65  OA
ENDBRANCH 2 3
ENDBRANCH 1 2
BRANCH 1 6
ATOM      6  C   ASP E 180       3.423 -25.719  28.518  1.00 46.16 LIG 0.24  C 
ATOM      7 O    ASP E 180       3.034 -25.575  29.679  1.00 47.92 LIG-0.27  OA
ATOM      8  N   ASP E 181       2.578 -25.842  27.500  1.00 48.75 LIG-0.34  N 
ATOM      9 H    ASP E 181       2.811 -25.992  26.686  1.00 48.75 LIG 0.16  HD
BRANCH 8 10
ATOM     10  CA  ASP E 181       1.140 -25.724  27.721  1.00 45.01 LIG 0.19  C 
BRANCH 10 11
ATOM     11  C   ASP E 181       0.317 -26.544  26.731  1.00 47.33 LIG 0.24  C 
ATOM     12 O    ASP E 181      -0.880 -26.788  26.934  1.00 41.27 LIG-0.27  OA
ATOM     13  N   MET E 182       0.986 -26.979  25.667  1.00 63.00 LIG-0.35  N 
ATOM     14 H    MET E 182       1.831 -26.863  25.561  1.00 63.00 LIG 0.16  HD
BRANCH 13 15
ATOM     15  CA  MET E 182       0.348 -27.699  24.575  1.00 43.88 LIG 0.16  C 
BRANCH 15 16
ATOM     16  CB  MET E 182       0.201 -26.783  23.361  1.00 44.38 LIG 0.04  C 
BRANCH 16 17
ATOM     17  CG  MET E 182      -1.190 -26.783  22.759  1.00 63.17 LIG 0.08  C 
BRANCH 17 18
ATOM     18 SD   MET E 182      -1.525 -28.266  21.793  1.00101.17 LIG-0.17  SA
ATOM     19  CE  MET E 182      -2.966 -27.742  20.866  1.00 68.91 LIG 0.09  C 
ENDBRANCH 17 18
ENDBRANCH 16 17
ENDBRANCH 15 16
BRANCH 15 20
ATOM     20  C   MET E 182       1.135 -28.955  24.197  1.00 60.82 LIG 0.22  C 
ATOM     21 O    MET E 182       0.925 -29.545  23.132  1.00 58.83 LIG-0.29  OA
ENDBRANCH 15 20
ENDBRANCH 13 15
ENDBRANCH 10 11
BRANCH 10 22
ATOM     22  CB  ASP E 181       0.722 -24.256  27.660  1.00 40.72 LIG 0.15  C 
BRANCH 22 23
ATOM     23  CG  ASP E 181      -0.624 -24.015  28.311  1.00 40.82 LIG 0.17  C 
ATOM     24 OD1  ASP E 181      -1.521 -23.437  27.656  1.00 47.44 LIG-0.65  OA
ATOM     25 OD2  ASP E 181      -0.783 -24.418  29.480  1.00 24.37 LIG-0.65  OA
ENDBRANCH 22 23
ENDBRANCH 10 22
ENDBRANCH 8 10
ENDBRANCH 1 6
BRANCH 1 26
ATOM     26  N   ASP E 180       5.668 -25.065  29.253  1.00 48.48 LIG-0.34  N 
ATOM     27  C   ASP E 179       5.734 -25.439  30.533  1.00 52.76 LIG 0.24  C 
ATOM     28 O    ASP E 179       5.151 -26.414  31.008  1.00 54.54 LIG-0.27  OA
ATOM     29 H    ASP E 180       6.076 -24.366  28.962  1.00 48.48 LIG 0.16  HD
BRANCH 27 30
ATOM     30  CA  ASP E 179       6.611 -24.549  31.411  1.00 62.98 LIG 0.19  C 
BRANCH 30 31
ATOM     31  N   ASP E 179       6.057 -24.224  32.729  1.00 68.60 LIG-0.34  N 
ATOM     32  C   VAL E 178       5.651 -22.999  33.062  1.00 59.78 LIG 0.26  C 
ATOM     33 O    VAL E 178       5.901 -21.999  32.386  1.00 49.42 LIG-0.27  OA
ATOM     34 H    ASP E 179       6.020 -24.895  33.265  1.00 68.60 LIG 0.16  HD
BRANCH 32 35
ATOM     35  CA  VAL E 178       4.866 -22.885  34.372  1.00 59.92 LIG 0.40  C 
ATOM     36  N   VAL E 178       5.179 -21.653  35.089  1.00 55.12 LIG 0.61  N 
BRANCH 35 37
ATOM     37  CB  VAL E 178       3.350 -22.990  34.064  1.00 50.97 LIG 0.03  C 
ATOM     38  CG2 VAL E 178       2.812 -24.370  34.415  1.00 47.22 LIG 0.01  C 
ATOM     39  CG1 VAL E 178       3.092 -22.676  32.606  1.00 50.59 LIG 0.01  C 
ENDBRANCH 35 37
ENDBRANCH 32 35
ENDBRANCH 30 31
BRANCH 30 40
ATOM     40  CB  ASP E 179       7.970 -25.227  31.582  1.00 47.75 LIG 0.15  C 
BRANCH 40 41
ATOM     41  CG  ASP E 179       9.078 -24.481  30.881  1.00 48.80 LIG 0.17  C 
ATOM     42 OD2  ASP E 179       9.508 -23.420  31.395  1.00 55.56 LIG-0.65  OA
ATOM     43 OD1  ASP E 179       9.518 -24.961  29.818  1.00 40.87 LIG-0.65  OA
ENDBRANCH 40 41
ENDBRANCH 30 40
ENDBRANCH 27 30
ENDBRANCH 1 26
TORSDOF 19
ENDMDL
MODEL 89
USER: ADFR SOLUTION from run 109
USER: SCORE 12.612778 LL:  -3.244 LR: -11.304 RR:   0.000 FEB:  -5.636
USER: RMSD 7.907946
USER: SEED 108
USER: STATUS searching
USER: GENES 21
USER: genes 0 Translation |==|  0.58281 0.48715 0.49942
USER: genes 1 Rotation |==|  0.36565 0.17375 0.78428 0.71142
USER: genes 2 Torsion [C]-CA--CB-[CG] |==|  0.26023
USER: genes 3 Torsion [CA]-CB--CG-[OD1] |==|  0.47541
USER: genes 4 Torsion [N]-CA--C-[N] |==|  0.19976
USER: genes 5 Torsion [C]-N--CA-[CB] |==|  0.21463
USER: genes 6 Torsion [N]-CA--C-[N] |==|  0.46604
USER: genes 7 Torsion [C]-N--CA-[CB] |==|  0.47976
USER: genes 8 Torsion [N]-CA--CB-[CG] |==|  0.66535
USER: genes 9 Torsion [CA]-CB--CG-[SD] |==|  0.23050
USER: genes 10 Torsion [CB]-CG--SD-[CE] |==|  0.55722
USER: genes 11 Torsion [N]-CA--C-[O] |==|  0.20916
USER: genes 12 Torsion [N]-CA--CB-[CG] |==|  0.22618
USER: genes 13 Torsion [CA]-CB--CG-[OD1] |==|  0.79631
USER: genes 14 Torsion [CB]-CA--N-[C] |==|  0.21666
USER: genes 15 Torsion [N]-C--CA-[N] |==|  0.01895
USER: genes 16 Torsion [C]-CA--N-[C] |==|  0.77186
USER: genes 17 Torsion [N]-C--CA-[N] |==|  0.45592
USER: genes 18 Torsion [C]-CA--CB-[CG2] |==|  0.53879
USER: genes 19 Torsion [C]-CA--CB-[CG] |==|  0.93791
USER: genes 20 Torsion [CA]-CB--CG-[OD2] |==|  0.32393
ROOT
ATOM      1  CA  ASP E 180       4.343 -27.748  26.519  1.00 46.29 LIG 0.19  C 
ENDROOT
BRANCH 1 2
ATOM      2  CB  ASP E 180       5.439 -28.683  27.022  1.00 53.57 LIG 0.15  C 
BRANCH 2 3
ATOM      3  CG  ASP E 180       6.508 -28.933  25.985  1.00 52.91 LIG 0.17  C 
ATOM      4 OD1  ASP E 180       7.542 -29.545  26.333  1.00 53.16 LIG-0.65  OA
ATOM      5 OD2  ASP E 180       6.314 -28.525  24.821  1.00 39.91 LIG-0.65  OA
ENDBRANCH 2 3
ENDBRANCH 1 2
BRANCH 1 6
ATOM      6  C   ASP E 180       3.184 -28.569  25.938  1.00 46.16 LIG 0.24  C 
ATOM      7 O    ASP E 180       3.094 -29.777  26.167  1.00 47.92 LIG-0.27  OA
ATOM      8  N   ASP E 181       2.295 -27.925  25.188  1.00 48.75 LIG-0.34  N 
ATOM      9 H    ASP E 181       2.351 -27.096  24.967  1.00 48.75 LIG 0.16  HD
BRANCH 8 10
ATOM     10  CA  ASP E 181       1.121 -28.625  24.676  1.00 45.01 LIG 0.19  C 
BRANCH 10 11
ATOM     11  C   ASP E 181       0.493 -27.932  23.470  1.00 47.33 LIG 0.24  C 
ATOM     12 O    ASP E 181       0.806 -26.777  23.154  1.00 41.27 LIG-0.27  OA
ATOM     13  N   MET E 182      -0.412 -28.654  22.815  1.00 63.00 LIG-0.35  N 
ATOM     14 H    MET E 182      -0.674 -29.431  23.074  1.00 63.00 LIG 0.16  HD
BRANCH 13 15
ATOM     15  CA  MET E 182      -1.050 -28.194  21.591  1.00 43.88 LIG 0.16  C 
BRANCH 15 16
ATOM     16  CB  MET E 182      -1.898 -29.315  20.990  1.00 44.38 LIG 0.04  C 
BRANCH 16 17
ATOM     17  CG  MET E 182      -1.481 -29.714  19.589  1.00 63.17 LIG 0.08  C 
BRANCH 17 18
ATOM     18 SD   MET E 182      -0.105 -30.877  19.582  1.00101.17 LIG-0.17  SA
ATOM     19  CE  MET E 182       0.518 -30.648  17.918  1.00 68.91 LIG 0.09  C 
ENDBRANCH 17 18
ENDBRANCH 16 17
ENDBRANCH 15 16
BRANCH 15 20
ATOM     20  C   MET E 182      -1.913 -26.956  21.840  1.00 60.82 LIG 0.22  C 
ATOM     21 O    MET E 182      -1.403 -25.844  22.011  1.00 58.83 LIG-0.29  OA
ENDBRANCH 15 20
ENDBRANCH 13 15
ENDBRANCH 10 11
BRANCH 10 22
ATOM     22  CB  ASP E 181       0.084 -28.787  25.786  1.00 40.72 LIG 0.15  C 
BRANCH 22 23
ATOM     23  CG  ASP E 181      -0.747 -27.536  25.982  1.00 40.82 LIG 0.17  C 
ATOM     24 OD1  ASP E 181      -0.225 -26.540  26.531  1.00 47.44 LIG-0.65  OA
ATOM     25 OD2  ASP E 181      -1.924 -27.553  25.572  1.00 24.37 LIG-0.65  OA
ENDBRANCH 22 23
ENDBRANCH 10 22
ENDBRANCH 8 10
ENDBRANCH 1 6
BRANCH 1 26
ATOM     26  N   ASP E 180       3.840 -26.878  27.587  1.00 48.48 LIG-0.34  N 
ATOM     27  C   ASP E 179       4.451 -25.785  28.051  1.00 52.76 LIG 0.24  C 
ATOM     28 O    ASP E 179       5.542 -25.373  27.656  1.00 54.54 LIG-0.27  OA
ATOM     29 H    ASP E 180       3.085 -27.144  27.900  1.00 48.48 LIG 0.16  HD
BRANCH 27 30
ATOM     30  CA  ASP E 179       3.685 -25.045  29.145  1.00 62.98 LIG 0.19  C 
BRANCH 30 31
ATOM     31  N   ASP E 179       2.478 -25.718  29.634  1.00 68.60 LIG-0.34  N 
ATOM     32  C   VAL E 178       1.305 -25.647  29.005  1.00 59.78 LIG 0.26  C 
ATOM     33 O    VAL E 178       1.074 -24.848  28.095  1.00 49.42 LIG-0.27  OA
ATOM     34 H    ASP E 179       2.598 -26.161  30.360  1.00 68.60 LIG 0.16  HD
BRANCH 32 35
ATOM     35  CA  VAL E 178       0.220 -26.609  29.500  1.00 59.92 LIG 0.40  C 
ATOM     36  N   VAL E 178      -1.106 -26.221  29.030  1.00 55.12 LIG 0.61  N 
BRANCH 35 37
ATOM     37  CB  VAL E 178       0.579 -28.049  29.051  1.00 50.97 LIG 0.03  C 
ATOM     38  CG2 VAL E 178      -0.610 -28.986  29.209  1.00 47.22 LIG 0.01  C 
ATOM     39  CG1 VAL E 178       1.765 -28.560  29.841  1.00 50.59 LIG 0.01  C 
ENDBRANCH 35 37
ENDBRANCH 32 35
ENDBRANCH 30 31
BRANCH 30 40
ATOM     40  CB  ASP E 179       4.636 -24.791  30.314  1.00 47.75 LIG 0.15  C 
BRANCH 40 41
ATOM     41  CG  ASP E 179       5.803 -25.747  30.324  1.00 48.80 LIG 0.17  C 
ATOM     42 OD2  ASP E 179       6.961 -25.286  30.178  1.00 55.56 LIG-0.65  OA
ATOM     43 OD1  ASP E 179       5.557 -26.960  30.481  1.00 40.87 LIG-0.65  OA
ENDBRANCH 40 41
ENDBRANCH 30 40
ENDBRANCH 27 30
ENDBRANCH 1 26
TORSDOF 19
ENDMDL
MODEL 90
USER: ADFR SOLUTION from run 83
USER: SCORE 12.287226 LL:  -2.434 LR: -11.286 RR:   0.000 FEB:  -5.618
USER: RMSD 9.396543
USER: SEED 82
USER: STATUS no improvement in best in 18 clusters for 5 generations
USER: GENES 21
USER: genes 0 Translation |==|  0.62051 0.51744 0.51058
USER: genes 1 Rotation |==|  0.66482 0.89418 0.27157 0.62359
USER: genes 2 Torsion [C]-CA--CB-[CG] |==|  0.39199
USER: genes 3 Torsion [CA]-CB--CG-[OD1] |==|  0.00913
USER: genes 4 Torsion [N]-CA--C-[N] |==|  0.87454
USER: genes 5 Torsion [C]-N--CA-[CB] |==|  0.84970
USER: genes 6 Torsion [N]-CA--C-[N] |==|  0.76194
USER: genes 7 Torsion [C]-N--CA-[CB] |==|  0.45153
USER: genes 8 Torsion [N]-CA--CB-[CG] |==|  0.88647
USER: genes 9 Torsion [CA]-CB--CG-[SD] |==|  0.28208
USER: genes 10 Torsion [CB]-CG--SD-[CE] |==|  0.58799
USER: genes 11 Torsion [N]-CA--C-[O] |==|  0.64465
USER: genes 12 Torsion [N]-CA--CB-[CG] |==|  0.85118
USER: genes 13 Torsion [CA]-CB--CG-[OD1] |==|  0.69404
USER: genes 14 Torsion [CB]-CA--N-[C] |==|  0.84923
USER: genes 15 Torsion [N]-C--CA-[N] |==|  0.85609
USER: genes 16 Torsion [C]-CA--N-[C] |==|  0.76729
USER: genes 17 Torsion [N]-C--CA-[N] |==|  0.54497
USER: genes 18 Torsion [C]-CA--CB-[CG2] |==|  0.80564
USER: genes 19 Torsion [C]-CA--CB-[CG] |==|  0.51430
USER: genes 20 Torsion [CA]-CB--CG-[OD2] |==|  0.46925
ROOT
ATOM      1  CA  ASP E 180       5.163 -27.248  26.745  1.00 46.29 LIG 0.19  C 
ENDROOT
BRANCH 1 2
ATOM      2  CB  ASP E 180       5.300 -27.499  28.244  1.00 53.57 LIG 0.15  C 
BRANCH 2 3
ATOM      3  CG  ASP E 180       5.542 -26.229  29.025  1.00 52.91 LIG 0.17  C 
ATOM      4 OD1  ASP E 180       5.542 -25.142  28.406  1.00 53.16 LIG-0.65  OA
ATOM      5 OD2  ASP E 180       5.725 -26.316  30.256  1.00 39.91 LIG-0.65  OA
ENDBRANCH 2 3
ENDBRANCH 1 2
BRANCH 1 6
ATOM      6  C   ASP E 180       5.857 -28.372  25.963  1.00 46.16 LIG 0.24  C 
ATOM      7 O    ASP E 180       6.969 -28.192  25.463  1.00 47.92 LIG-0.27  OA
ATOM      8  N   ASP E 181       5.212 -29.529  25.853  1.00 48.75 LIG-0.34  N 
ATOM      9 H    ASP E 181       4.417 -29.675  26.146  1.00 48.75 LIG 0.16  HD
BRANCH 8 10
ATOM     10  CA  ASP E 181       5.851 -30.666  25.198  1.00 45.01 LIG 0.19  C 
BRANCH 10 11
ATOM     11  C   ASP E 181       7.013 -31.241  26.002  1.00 47.33 LIG 0.24  C 
ATOM     12 O    ASP E 181       6.851 -32.182  26.789  1.00 41.27 LIG-0.27  OA
ATOM     13  N   MET E 182       8.184 -30.643  25.802  1.00 63.00 LIG-0.35  N 
ATOM     14 H    MET E 182       8.282 -29.949  25.304  1.00 63.00 LIG 0.16  HD
BRANCH 13 15
ATOM     15  CA  MET E 182       9.421 -31.109  26.412  1.00 43.88 LIG 0.16  C 
BRANCH 15 16
ATOM     16  CB  MET E 182      10.623 -30.516  25.677  1.00 44.38 LIG 0.04  C 
BRANCH 16 17
ATOM     17  CG  MET E 182      10.464 -30.486  24.170  1.00 63.17 LIG 0.08  C 
BRANCH 17 18
ATOM     18 SD   MET E 182      10.023 -28.851  23.555  1.00101.17 LIG-0.17  SA
ATOM     19  CE  MET E 182       9.028 -29.288  22.130  1.00 68.91 LIG 0.09  C 
ENDBRANCH 17 18
ENDBRANCH 16 17
ENDBRANCH 15 16
BRANCH 15 20
ATOM     20  C   MET E 182       9.482 -30.751  27.898  1.00 60.82 LIG 0.22  C 
ATOM     21 O    MET E 182      10.456 -30.161  28.375  1.00 58.83 LIG-0.29  OA
ENDBRANCH 15 20
ENDBRANCH 13 15
ENDBRANCH 10 11
BRANCH 10 22
ATOM     22  CB  ASP E 181       6.326 -30.264  23.803  1.00 40.72 LIG 0.15  C 
BRANCH 22 23
ATOM     23  CG  ASP E 181       5.217 -29.655  22.971  1.00 40.82 LIG 0.17  C 
ATOM     24 OD1  ASP E 181       4.765 -30.299  21.997  1.00 47.44 LIG-0.65  OA
ATOM     25 OD2  ASP E 181       4.792 -28.532  23.305  1.00 24.37 LIG-0.65  OA
ENDBRANCH 22 23
ENDBRANCH 10 22
ENDBRANCH 8 10
ENDBRANCH 1 6
BRANCH 1 26
ATOM     26  N   ASP E 180       3.758 -27.162  26.335  1.00 48.48 LIG-0.34  N 
ATOM     27  C   ASP E 179       2.821 -28.083  26.573  1.00 52.76 LIG 0.24  C 
ATOM     28 O    ASP E 179       3.022 -29.150  27.153  1.00 54.54 LIG-0.27  OA
ATOM     29 H    ASP E 180       3.584 -26.435  25.910  1.00 48.48 LIG 0.16  HD
BRANCH 27 30
ATOM     30  CA  ASP E 179       1.428 -27.720  26.062  1.00 62.98 LIG 0.19  C 
BRANCH 30 31
ATOM     31  N   ASP E 179       0.929 -26.406  26.477  1.00 68.60 LIG-0.34  N 
ATOM     32  C   VAL E 178       0.334 -26.195  27.651  1.00 59.78 LIG 0.26  C 
ATOM     33 O    VAL E 178      -0.044 -27.107  28.389  1.00 49.42 LIG-0.27  OA
ATOM     34 H    ASP E 179       1.056 -25.786  25.895  1.00 68.60 LIG 0.16  HD
BRANCH 32 35
ATOM     35  CA  VAL E 178       0.107 -24.730  28.035  1.00 59.92 LIG 0.40  C 
ATOM     36  N   VAL E 178      -0.189 -24.579  29.456  1.00 55.12 LIG 0.61  N 
BRANCH 35 37
ATOM     37  CB  VAL E 178       1.353 -23.902  27.626  1.00 50.97 LIG 0.03  C 
ATOM     38  CG2 VAL E 178       2.549 -24.240  28.504  1.00 47.22 LIG 0.01  C 
ATOM     39  CG1 VAL E 178       1.042 -22.422  27.701  1.00 50.59 LIG 0.01  C 
ENDBRANCH 35 37
ENDBRANCH 32 35
ENDBRANCH 30 31
BRANCH 30 40
ATOM     40  CB  ASP E 179       1.436 -27.804  24.536  1.00 47.75 LIG 0.15  C 
BRANCH 40 41
ATOM     41  CG  ASP E 179       0.136 -27.342  23.928  1.00 48.80 LIG 0.17  C 
ATOM     42 OD2  ASP E 179       0.082 -27.161  22.687  1.00 55.56 LIG-0.65  OA
ATOM     43 OD1  ASP E 179      -0.832 -27.163  24.694  1.00 40.87 LIG-0.65  OA
ENDBRANCH 40 41
ENDBRANCH 30 40
ENDBRANCH 27 30
ENDBRANCH 1 26
TORSDOF 19
ENDMDL
MODEL 91
USER: ADFR SOLUTION from run 27
USER: SCORE 12.043932 LL:  -2.440 LR: -11.268 RR:   0.000 FEB:  -5.600
USER: RMSD 6.131998
USER: SEED 26
USER: STATUS no improvement in best in 8 clusters for 5 generations
USER: GENES 21
USER: genes 0 Translation |==|  0.43302 0.64957 0.58255
USER: genes 1 Rotation |==|  0.64238 0.70760 0.38968 0.91768
USER: genes 2 Torsion [C]-CA--CB-[CG] |==|  0.43459
USER: genes 3 Torsion [CA]-CB--CG-[OD1] |==|  0.93054
USER: genes 4 Torsion [N]-CA--C-[N] |==|  0.31111
USER: genes 5 Torsion [C]-N--CA-[CB] |==|  0.20089
USER: genes 6 Torsion [N]-CA--C-[N] |==|  0.58225
USER: genes 7 Torsion [C]-N--CA-[CB] |==|  0.19277
USER: genes 8 Torsion [N]-CA--CB-[CG] |==|  0.12603
USER: genes 9 Torsion [CA]-CB--CG-[SD] |==|  0.70240
USER: genes 10 Torsion [CB]-CG--SD-[CE] |==|  0.93361
USER: genes 11 Torsion [N]-CA--C-[O] |==|  0.34261
USER: genes 12 Torsion [N]-CA--CB-[CG] |==|  0.08272
USER: genes 13 Torsion [CA]-CB--CG-[OD1] |==|  0.72499
USER: genes 14 Torsion [CB]-CA--N-[C] |==|  0.86942
USER: genes 15 Torsion [N]-C--CA-[N] |==|  0.33034
USER: genes 16 Torsion [C]-CA--N-[C] |==|  0.67206
USER: genes 17 Torsion [N]-C--CA-[N] |==|  0.40145
USER: genes 18 Torsion [C]-CA--CB-[CG2] |==|  0.17493
USER: genes 19 Torsion [C]-CA--CB-[CG] |==|  0.39585
USER: genes 20 Torsion [CA]-CB--CG-[OD2] |==|  0.75254
ROOT
ATOM      1  CA  ASP E 180       1.085 -25.068  28.203  1.00 46.29 LIG 0.19  C 
ENDROOT
BRANCH 1 2
ATOM      2  CB  ASP E 180      -0.342 -25.220  28.719  1.00 53.57 LIG 0.15  C 
BRANCH 2 3
ATOM      3  CG  ASP E 180      -1.308 -24.279  28.038  1.00 52.91 LIG 0.17  C 
ATOM      4 OD1  ASP E 180      -0.859 -23.221  27.544  1.00 53.16 LIG-0.65  OA
ATOM      5 OD2  ASP E 180      -2.514 -24.599  27.991  1.00 39.91 LIG-0.65  OA
ENDBRANCH 2 3
ENDBRANCH 1 2
BRANCH 1 6
ATOM      6  C   ASP E 180       2.079 -25.565  29.262  1.00 46.16 LIG 0.24  C 
ATOM      7 O    ASP E 180       1.984 -26.704  29.724  1.00 47.92 LIG-0.27  OA
ATOM      8  N   ASP E 181       3.031 -24.723  29.650  1.00 48.75 LIG-0.34  N 
ATOM      9 H    ASP E 181       3.099 -23.907  29.387  1.00 48.75 LIG 0.16  HD
BRANCH 8 10
ATOM     10  CA  ASP E 181       4.059 -25.159  30.589  1.00 45.01 LIG 0.19  C 
BRANCH 10 11
ATOM     11  C   ASP E 181       4.827 -23.998  31.213  1.00 47.33 LIG 0.24  C 
ATOM     12 O    ASP E 181       4.304 -22.888  31.369  1.00 41.27 LIG-0.27  OA
ATOM     13  N   MET E 182       6.085 -24.272  31.549  1.00 63.00 LIG-0.35  N 
ATOM     14 H    MET E 182       6.466 -25.024  31.382  1.00 63.00 LIG 0.16  HD
BRANCH 13 15
ATOM     15  CA  MET E 182       6.942 -23.317  32.237  1.00 43.88 LIG 0.16  C 
BRANCH 15 16
ATOM     16  CB  MET E 182       6.452 -23.115  33.671  1.00 44.38 LIG 0.04  C 
BRANCH 16 17
ATOM     17  CG  MET E 182       6.113 -24.405  34.390  1.00 63.17 LIG 0.08  C 
BRANCH 17 18
ATOM     18 SD   MET E 182       4.338 -24.637  34.592  1.00101.17 LIG-0.17  SA
ATOM     19  CE  MET E 182       3.767 -22.941  34.504  1.00 68.91 LIG 0.09  C 
ENDBRANCH 17 18
ENDBRANCH 16 17
ENDBRANCH 15 16
BRANCH 15 20
ATOM     20  C   MET E 182       8.401 -23.774  32.238  1.00 60.82 LIG 0.22  C 
ATOM     21 O    MET E 182       9.296 -23.060  31.772  1.00 58.83 LIG-0.29  OA
ENDBRANCH 15 20
ENDBRANCH 13 15
ENDBRANCH 10 11
BRANCH 10 22
ATOM     22  CB  ASP E 181       5.028 -26.115  29.893  1.00 40.72 LIG 0.15  C 
BRANCH 22 23
ATOM     23  CG  ASP E 181       5.159 -25.823  28.413  1.00 40.82 LIG 0.17  C 
ATOM     24 OD1  ASP E 181       4.506 -26.513  27.598  1.00 47.44 LIG-0.65  OA
ATOM     25 OD2  ASP E 181       5.911 -24.890  28.071  1.00 24.37 LIG-0.65  OA
ENDBRANCH 22 23
ENDBRANCH 10 22
ENDBRANCH 8 10
ENDBRANCH 1 6
BRANCH 1 26
ATOM     26  N   ASP E 180       1.292 -25.806  26.953  1.00 48.48 LIG-0.34  N 
ATOM     27  C   ASP E 179       0.916 -27.067  26.724  1.00 52.76 LIG 0.24  C 
ATOM     28 O    ASP E 179       0.361 -27.792  27.550  1.00 54.54 LIG-0.27  OA
ATOM     29 H    ASP E 180       1.694 -25.336  26.355  1.00 48.48 LIG 0.16  HD
BRANCH 27 30
ATOM     30  CA  ASP E 179       1.226 -27.578  25.319  1.00 62.98 LIG 0.19  C 
BRANCH 30 31
ATOM     31  N   ASP E 179       2.130 -28.730  25.254  1.00 68.60 LIG-0.34  N 
ATOM     32  C   VAL E 178       3.315 -28.687  24.645  1.00 59.78 LIG 0.26  C 
ATOM     33 O    VAL E 178       3.661 -27.764  23.906  1.00 49.42 LIG-0.27  OA
ATOM     34 H    ASP E 179       1.825 -29.433  25.644  1.00 68.60 LIG 0.16  HD
BRANCH 32 35
ATOM     35  CA  VAL E 178       4.238 -29.885  24.890  1.00 59.92 LIG 0.40  C 
ATOM     36  N   VAL E 178       5.026 -30.216  23.706  1.00 55.12 LIG 0.61  N 
BRANCH 35 37
ATOM     37  CB  VAL E 178       5.149 -29.581  26.107  1.00 50.97 LIG 0.03  C 
ATOM     38  CG2 VAL E 178       4.329 -29.403  27.377  1.00 47.22 LIG 0.01  C 
ATOM     39  CG1 VAL E 178       5.983 -28.346  25.838  1.00 50.59 LIG 0.01  C 
ENDBRANCH 35 37
ENDBRANCH 32 35
ENDBRANCH 30 31
BRANCH 30 40
ATOM     40  CB  ASP E 179      -0.093 -27.925  24.629  1.00 47.75 LIG 0.15  C 
BRANCH 40 41
ATOM     41  CG  ASP E 179      -0.086 -27.570  23.163  1.00 48.80 LIG 0.17  C 
ATOM     42 OD2  ASP E 179      -0.457 -26.421  22.820  1.00 55.56 LIG-0.65  OA
ATOM     43 OD1  ASP E 179       0.292 -28.442  22.357  1.00 40.87 LIG-0.65  OA
ENDBRANCH 40 41
ENDBRANCH 30 40
ENDBRANCH 27 30
ENDBRANCH 1 26
TORSDOF 19
ENDMDL
MODEL 92
USER: ADFR SOLUTION from run 188
USER: SCORE 13.128192 LL:  -2.193 LR: -11.265 RR:   0.000 FEB:  -5.598
USER: RMSD 4.916733
USER: SEED 187
USER: STATUS no improvement in best in 9 clusters for 5 generations
USER: GENES 21
USER: genes 0 Translation |==|  0.57224 0.46004 0.59651
USER: genes 1 Rotation |==|  0.16352 0.82012 0.68329 0.52664
USER: genes 2 Torsion [C]-CA--CB-[CG] |==|  0.98681
USER: genes 3 Torsion [CA]-CB--CG-[OD1] |==|  0.23826
USER: genes 4 Torsion [N]-CA--C-[N] |==|  0.36709
USER: genes 5 Torsion [C]-N--CA-[CB] |==|  0.85346
USER: genes 6 Torsion [N]-CA--C-[N] |==|  0.89975
USER: genes 7 Torsion [C]-N--CA-[CB] |==|  0.21167
USER: genes 8 Torsion [N]-CA--CB-[CG] |==|  0.59519
USER: genes 9 Torsion [CA]-CB--CG-[SD] |==|  0.35001
USER: genes 10 Torsion [CB]-CG--SD-[CE] |==|  0.53592
USER: genes 11 Torsion [N]-CA--C-[O] |==|  0.98083
USER: genes 12 Torsion [N]-CA--CB-[CG] |==|  0.63575
USER: genes 13 Torsion [CA]-CB--CG-[OD1] |==|  0.37042
USER: genes 14 Torsion [CB]-CA--N-[C] |==|  0.85785
USER: genes 15 Torsion [N]-C--CA-[N] |==|  0.48887
USER: genes 16 Torsion [C]-CA--N-[C] |==|  0.78979
USER: genes 17 Torsion [N]-C--CA-[N] |==|  0.93516
USER: genes 18 Torsion [C]-CA--CB-[CG2] |==|  0.61630
USER: genes 19 Torsion [C]-CA--CB-[CG] |==|  0.81019
USER: genes 20 Torsion [CA]-CB--CG-[OD2] |==|  0.34095
ROOT
ATOM      1  CA  ASP E 180       4.113 -28.195  28.485  1.00 46.29 LIG 0.19  C 
ENDROOT
BRANCH 1 2
ATOM      2  CB  ASP E 180       5.156 -27.312  29.161  1.00 53.57 LIG 0.15  C 
BRANCH 2 3
ATOM      3  CG  ASP E 180       4.930 -25.842  28.898  1.00 52.91 LIG 0.17  C 
ATOM      4 OD1  ASP E 180       4.143 -25.218  29.644  1.00 53.16 LIG-0.65  OA
ATOM      5 OD2  ASP E 180       5.543 -25.307  27.951  1.00 39.91 LIG-0.65  OA
ENDBRANCH 2 3
ENDBRANCH 1 2
BRANCH 1 6
ATOM      6  C   ASP E 180       3.045 -27.321  27.815  1.00 46.16 LIG 0.24  C 
ATOM      7 O    ASP E 180       3.290 -26.732  26.760  1.00 47.92 LIG-0.27  OA
ATOM      8  N   ASP E 181       1.863 -27.232  28.415  1.00 48.75 LIG-0.34  N 
ATOM      9 H    ASP E 181       1.672 -27.588  29.174  1.00 48.75 LIG 0.16  HD
BRANCH 8 10
ATOM     10  CA  ASP E 181       0.775 -26.488  27.788  1.00 45.01 LIG 0.19  C 
BRANCH 10 11
ATOM     11  C   ASP E 181       0.211 -27.186  26.553  1.00 47.33 LIG 0.24  C 
ATOM     12 O    ASP E 181      -0.998 -27.158  26.292  1.00 41.27 LIG-0.27  OA
ATOM     13  N   MET E 182       1.109 -27.828  25.811  1.00 63.00 LIG-0.35  N 
ATOM     14 H    MET E 182       1.937 -27.900  26.029  1.00 63.00 LIG 0.16  HD
BRANCH 13 15
ATOM     15  CA  MET E 182       0.772 -28.474  24.552  1.00 43.88 LIG 0.16  C 
BRANCH 15 16
ATOM     16  CB  MET E 182       0.608 -27.425  23.453  1.00 44.38 LIG 0.04  C 
BRANCH 16 17
ATOM     17  CG  MET E 182      -0.455 -27.772  22.429  1.00 63.17 LIG 0.08  C 
BRANCH 17 18
ATOM     18 SD   MET E 182      -1.676 -26.463  22.230  1.00101.17 LIG-0.17  SA
ATOM     19  CE  MET E 182      -2.942 -27.327  21.301  1.00 68.91 LIG 0.09  C 
ENDBRANCH 17 18
ENDBRANCH 16 17
ENDBRANCH 15 16
BRANCH 15 20
ATOM     20  C   MET E 182       1.834 -29.499  24.147  1.00 60.82 LIG 0.22  C 
ATOM     21 O    MET E 182       2.888 -29.614  24.782  1.00 58.83 LIG-0.29  OA
ENDBRANCH 15 20
ENDBRANCH 13 15
ENDBRANCH 10 11
BRANCH 10 22
ATOM     22  CB  ASP E 181       1.246 -25.081  27.425  1.00 40.72 LIG 0.15  C 
BRANCH 22 23
ATOM     23  CG  ASP E 181       0.280 -24.013  27.894  1.00 40.82 LIG 0.17  C 
ATOM     24 OD1  ASP E 181       0.729 -23.006  28.486  1.00 47.44 LIG-0.65  OA
ATOM     25 OD2  ASP E 181      -0.932 -24.183  27.656  1.00 24.37 LIG-0.65  OA
ENDBRANCH 22 23
ENDBRANCH 10 22
ENDBRANCH 8 10
ENDBRANCH 1 6
BRANCH 1 26
ATOM     26  N   ASP E 180       4.718 -29.082  27.486  1.00 48.48 LIG-0.34  N 
ATOM     27  C   ASP E 179       5.536 -28.700  26.503  1.00 52.76 LIG 0.24  C 
ATOM     28 O    ASP E 179       5.875 -27.536  26.287  1.00 54.54 LIG-0.27  OA
ATOM     29 H    ASP E 180       4.489 -29.904  27.595  1.00 48.48 LIG 0.16  HD
BRANCH 27 30
ATOM     30  CA  ASP E 179       6.049 -29.839  25.624  1.00 62.98 LIG 0.19  C 
BRANCH 30 31
ATOM     31  N   ASP E 179       6.875 -29.431  24.484  1.00 68.60 LIG-0.34  N 
ATOM     32  C   VAL E 178       6.365 -28.889  23.378  1.00 59.78 LIG 0.26  C 
ATOM     33 O    VAL E 178       5.159 -28.882  23.124  1.00 49.42 LIG-0.27  OA
ATOM     34 H    ASP E 179       7.715 -29.573  24.595  1.00 68.60 LIG 0.16  HD
BRANCH 32 35
ATOM     35  CA  VAL E 178       7.376 -28.286  22.398  1.00 59.92 LIG 0.40  C 
ATOM     36  N   VAL E 178       8.626 -27.924  23.060  1.00 55.12 LIG 0.61  N 
BRANCH 35 37
ATOM     37  CB  VAL E 178       7.620 -29.292  21.243  1.00 50.97 LIG 0.03  C 
ATOM     38  CG2 VAL E 178       9.096 -29.365  20.880  1.00 47.22 LIG 0.01  C 
ATOM     39  CG1 VAL E 178       6.796 -28.905  20.034  1.00 50.59 LIG 0.01  C 
ENDBRANCH 35 37
ENDBRANCH 32 35
ENDBRANCH 30 31
BRANCH 30 40
ATOM     40  CB  ASP E 179       6.837 -30.810  26.503  1.00 47.75 LIG 0.15  C 
BRANCH 40 41
ATOM     41  CG  ASP E 179       8.124 -30.211  27.011  1.00 48.80 LIG 0.17  C 
ATOM     42 OD2  ASP E 179       8.318 -30.161  28.249  1.00 55.56 LIG-0.65  OA
ATOM     43 OD1  ASP E 179       8.942 -29.793  26.167  1.00 40.87 LIG-0.65  OA
ENDBRANCH 40 41
ENDBRANCH 30 40
ENDBRANCH 27 30
ENDBRANCH 1 26
TORSDOF 19
ENDMDL
MODEL 93
USER: ADFR SOLUTION from run 110
USER: SCORE 12.760577 LL:  -1.679 LR: -11.255 RR:   0.000 FEB:  -5.587
USER: RMSD 9.245517
USER: SEED 109
USER: STATUS no improvement in best in 6 clusters for 5 generations
USER: GENES 21
USER: genes 0 Translation |==|  0.59692 0.53286 0.51617
USER: genes 1 Rotation |==|  0.67371 0.89617 0.27090 0.60192
USER: genes 2 Torsion [C]-CA--CB-[CG] |==|  0.35339
USER: genes 3 Torsion [CA]-CB--CG-[OD1] |==|  0.51919
USER: genes 4 Torsion [N]-CA--C-[N] |==|  0.37696
USER: genes 5 Torsion [C]-N--CA-[CB] |==|  0.83333
USER: genes 6 Torsion [N]-CA--C-[N] |==|  0.40999
USER: genes 7 Torsion [C]-N--CA-[CB] |==|  0.36340
USER: genes 8 Torsion [N]-CA--CB-[CG] |==|  0.21369
USER: genes 9 Torsion [CA]-CB--CG-[SD] |==|  0.82194
USER: genes 10 Torsion [CB]-CG--SD-[CE] |==|  0.37954
USER: genes 11 Torsion [N]-CA--C-[O] |==|  0.98647
USER: genes 12 Torsion [N]-CA--CB-[CG] |==|  0.82634
USER: genes 13 Torsion [CA]-CB--CG-[OD1] |==|  0.74012
USER: genes 14 Torsion [CB]-CA--N-[C] |==|  0.84232
USER: genes 15 Torsion [N]-C--CA-[N] |==|  0.31992
USER: genes 16 Torsion [C]-CA--N-[C] |==|  0.74262
USER: genes 17 Torsion [N]-C--CA-[N] |==|  0.93280
USER: genes 18 Torsion [C]-CA--CB-[CG2] |==|  0.45649
USER: genes 19 Torsion [C]-CA--CB-[CG] |==|  0.47686
USER: genes 20 Torsion [CA]-CB--CG-[OD2] |==|  0.68041
ROOT
ATOM      1  CA  ASP E 180       4.650 -26.994  26.858  1.00 46.29 LIG 0.19  C 
ENDROOT
BRANCH 1 2
ATOM      2  CB  ASP E 180       4.849 -27.314  28.336  1.00 53.57 LIG 0.15  C 
BRANCH 2 3
ATOM      3  CG  ASP E 180       5.534 -26.194  29.085  1.00 52.91 LIG 0.17  C 
ATOM      4 OD1  ASP E 180       5.870 -26.392  30.274  1.00 53.16 LIG-0.65  OA
ATOM      5 OD2  ASP E 180       5.742 -25.119  28.485  1.00 39.91 LIG-0.65  OA
ENDBRANCH 2 3
ENDBRANCH 1 2
BRANCH 1 6
ATOM      6  C   ASP E 180       5.224 -28.127  25.997  1.00 46.16 LIG 0.24  C 
ATOM      7 O    ASP E 180       4.592 -29.173  25.836  1.00 47.92 LIG-0.27  OA
ATOM      8  N   ASP E 181       6.416 -27.929  25.442  1.00 48.75 LIG-0.34  N 
ATOM      9 H    ASP E 181       6.906 -27.235  25.571  1.00 48.75 LIG 0.16  HD
BRANCH 8 10
ATOM     10  CA  ASP E 181       6.981 -28.929  24.542  1.00 45.01 LIG 0.19  C 
BRANCH 10 11
ATOM     11  C   ASP E 181       6.152 -29.129  23.277  1.00 47.33 LIG 0.24  C 
ATOM     12 O    ASP E 181       4.919 -29.019  23.289  1.00 41.27 LIG-0.27  OA
ATOM     13  N   MET E 182       6.851 -29.442  22.190  1.00 63.00 LIG-0.35  N 
ATOM     14 H    MET E 182       7.699 -29.581  22.197  1.00 63.00 LIG 0.16  HD
BRANCH 13 15
ATOM     15  CA  MET E 182       6.243 -29.582  20.875  1.00 43.88 LIG 0.16  C 
BRANCH 15 16
ATOM     16  CB  MET E 182       7.037 -28.782  19.843  1.00 44.38 LIG 0.04  C 
BRANCH 16 17
ATOM     17  CG  MET E 182       8.327 -29.451  19.412  1.00 63.17 LIG 0.08  C 
BRANCH 17 18
ATOM     18 SD   MET E 182       9.506 -29.616  20.764  1.00101.17 LIG-0.17  SA
ATOM     19  CE  MET E 182      10.088 -31.289  20.497  1.00 68.91 LIG 0.09  C 
ENDBRANCH 17 18
ENDBRANCH 16 17
ENDBRANCH 15 16
BRANCH 15 20
ATOM     20  C   MET E 182       6.155 -31.050  20.452  1.00 60.82 LIG 0.22  C 
ATOM     21 O    MET E 182       6.649 -31.946  21.144  1.00 58.83 LIG-0.29  OA
ENDBRANCH 15 20
ENDBRANCH 13 15
ENDBRANCH 10 11
BRANCH 10 22
ATOM     22  CB  ASP E 181       7.145 -30.259  25.276  1.00 40.72 LIG 0.15  C 
BRANCH 22 23
ATOM     23  CG  ASP E 181       8.110 -30.158  26.439  1.00 40.82 LIG 0.17  C 
ATOM     24 OD1  ASP E 181       9.314 -30.449  26.255  1.00 47.44 LIG-0.65  OA
ATOM     25 OD2  ASP E 181       7.658 -29.776  27.536  1.00 24.37 LIG-0.65  OA
ENDBRANCH 22 23
ENDBRANCH 10 22
ENDBRANCH 8 10
ENDBRANCH 1 6
BRANCH 1 26
ATOM     26  N   ASP E 180       3.234 -26.800  26.531  1.00 48.48 LIG-0.34  N 
ATOM     27  C   ASP E 179       2.259 -27.687  26.744  1.00 52.76 LIG 0.24  C 
ATOM     28 O    ASP E 179       2.426 -28.807  27.227  1.00 54.54 LIG-0.27  OA
ATOM     29 H    ASP E 180       3.081 -26.033  26.175  1.00 48.48 LIG 0.16  HD
BRANCH 27 30
ATOM     30  CA  ASP E 179       0.866 -27.211  26.338  1.00 62.98 LIG 0.19  C 
BRANCH 30 31
ATOM     31  N   ASP E 179       0.242 -27.954  25.240  1.00 68.60 LIG-0.34  N 
ATOM     32  C   VAL E 178       0.349 -27.585  23.964  1.00 59.78 LIG 0.26  C 
ATOM     33 O    VAL E 178       0.785 -26.487  23.613  1.00 49.42 LIG-0.27  OA
ATOM     34 H    ASP E 179      -0.196 -28.648  25.495  1.00 68.60 LIG 0.16  HD
BRANCH 32 35
ATOM     35  CA  VAL E 178      -0.138 -28.603  22.928  1.00 59.92 LIG 0.40  C 
ATOM     36  N   VAL E 178      -0.104 -29.967  23.447  1.00 55.12 LIG 0.61  N 
BRANCH 35 37
ATOM     37  CB  VAL E 178      -1.566 -28.211  22.467  1.00 50.97 LIG 0.03  C 
ATOM     38  CG2 VAL E 178      -1.949 -28.937  21.185  1.00 47.22 LIG 0.01  C 
ATOM     39  CG1 VAL E 178      -1.657 -26.712  22.274  1.00 50.59 LIG 0.01  C 
ENDBRANCH 35 37
ENDBRANCH 32 35
ENDBRANCH 30 31
BRANCH 30 40
ATOM     40  CB  ASP E 179      -0.040 -27.263  27.568  1.00 47.75 LIG 0.15  C 
BRANCH 40 41
ATOM     41  CG  ASP E 179      -1.383 -26.623  27.321  1.00 48.80 LIG 0.17  C 
ATOM     42 OD2  ASP E 179      -1.685 -25.589  27.964  1.00 55.56 LIG-0.65  OA
ATOM     43 OD1  ASP E 179      -2.134 -27.158  26.481  1.00 40.87 LIG-0.65  OA
ENDBRANCH 40 41
ENDBRANCH 30 40
ENDBRANCH 27 30
ENDBRANCH 1 26
TORSDOF 19
ENDMDL
MODEL 94
USER: ADFR SOLUTION from run 13
USER: SCORE 11.944987 LL:  -2.265 LR: -11.243 RR:   0.000 FEB:  -5.576
USER: RMSD 8.683016
USER: SEED 613806
USER: STATUS no improvement in best in 10 clusters for 5 generations
USER: GENES 21
USER: genes 0 Translation |==|  0.56472 0.53672 0.57138
USER: genes 1 Rotation |==|  0.38188 0.23298 0.09634 0.54255
USER: genes 2 Torsion [C]-CA--CB-[CG] |==|  0.21259
USER: genes 3 Torsion [CA]-CB--CG-[OD1] |==|  0.05734
USER: genes 4 Torsion [N]-CA--C-[N] |==|  0.19309
USER: genes 5 Torsion [C]-N--CA-[CB] |==|  0.43259
USER: genes 6 Torsion [N]-CA--C-[N] |==|  0.42239
USER: genes 7 Torsion [C]-N--CA-[CB] |==|  0.25331
USER: genes 8 Torsion [N]-CA--CB-[CG] |==|  0.48061
USER: genes 9 Torsion [CA]-CB--CG-[SD] |==|  0.32263
USER: genes 10 Torsion [CB]-CG--SD-[CE] |==|  0.82476
USER: genes 11 Torsion [N]-CA--C-[O] |==|  0.73482
USER: genes 12 Torsion [N]-CA--CB-[CG] |==|  0.70797
USER: genes 13 Torsion [CA]-CB--CG-[OD1] |==|  0.76238
USER: genes 14 Torsion [CB]-CA--N-[C] |==|  0.77624
USER: genes 15 Torsion [N]-C--CA-[N] |==|  0.03649
USER: genes 16 Torsion [C]-CA--N-[C] |==|  0.75506
USER: genes 17 Torsion [N]-C--CA-[N] |==|  0.42939
USER: genes 18 Torsion [C]-CA--CB-[CG2] |==|  0.20736
USER: genes 19 Torsion [C]-CA--CB-[CG] |==|  0.40838
USER: genes 20 Torsion [CA]-CB--CG-[OD2] |==|  0.14675
ROOT
ATOM      1  CA  ASP E 180       3.950 -26.930  27.976  1.00 46.29 LIG 0.19  C 
ENDROOT
BRANCH 1 2
ATOM      2  CB  ASP E 180       4.543 -27.137  26.587  1.00 53.57 LIG 0.15  C 
BRANCH 2 3
ATOM      3  CG  ASP E 180       5.780 -28.005  26.608  1.00 52.91 LIG 0.17  C 
ATOM      4 OD1  ASP E 180       5.962 -28.757  27.591  1.00 53.16 LIG-0.65  OA
ATOM      5 OD2  ASP E 180       6.566 -27.942  25.640  1.00 39.91 LIG-0.65  OA
ENDBRANCH 2 3
ENDBRANCH 1 2
BRANCH 1 6
ATOM      6  C   ASP E 180       4.789 -25.908  28.755  1.00 46.16 LIG 0.24  C 
ATOM      7 O    ASP E 180       5.632 -25.219  28.177  1.00 47.92 LIG-0.27  OA
ATOM      8  N   ASP E 181       4.566 -25.802  30.061  1.00 48.75 LIG-0.34  N 
ATOM      9 H    ASP E 181       4.022 -26.298  30.506  1.00 48.75 LIG 0.16  HD
BRANCH 8 10
ATOM     10  CA  ASP E 181       5.267 -24.790  30.846  1.00 45.01 LIG 0.19  C 
BRANCH 10 11
ATOM     11  C   ASP E 181       6.682 -25.210  31.231  1.00 47.33 LIG 0.24  C 
ATOM     12 O    ASP E 181       6.984 -26.401  31.382  1.00 41.27 LIG-0.27  OA
ATOM     13  N   MET E 182       7.538 -24.207  31.406  1.00 63.00 LIG-0.35  N 
ATOM     14 H    MET E 182       7.311 -23.379  31.363  1.00 63.00 LIG 0.16  HD
BRANCH 13 15
ATOM     15  CA  MET E 182       8.951 -24.417  31.687  1.00 43.88 LIG 0.16  C 
BRANCH 15 16
ATOM     16  CB  MET E 182       9.743 -24.458  30.381  1.00 44.38 LIG 0.04  C 
BRANCH 16 17
ATOM     17  CG  MET E 182      11.245 -24.506  30.578  1.00 63.17 LIG 0.08  C 
BRANCH 17 18
ATOM     18 SD   MET E 182      11.975 -26.031  29.957  1.00101.17 LIG-0.17  SA
ATOM     19  CE  MET E 182      11.184 -27.237  31.021  1.00 68.91 LIG 0.09  C 
ENDBRANCH 17 18
ENDBRANCH 16 17
ENDBRANCH 15 16
BRANCH 15 20
ATOM     20  C   MET E 182       9.506 -23.329  32.607  1.00 60.82 LIG 0.22  C 
ATOM     21 O    MET E 182      10.082 -22.336  32.150  1.00 58.83 LIG-0.29  OA
ENDBRANCH 15 20
ENDBRANCH 13 15
ENDBRANCH 10 11
BRANCH 10 22
ATOM     22  CB  ASP E 181       4.461 -24.453  32.100  1.00 40.72 LIG 0.15  C 
BRANCH 22 23
ATOM     23  CG  ASP E 181       3.767 -23.111  31.993  1.00 40.82 LIG 0.17  C 
ATOM     24 OD1  ASP E 181       4.398 -22.075  32.304  1.00 47.44 LIG-0.65  OA
ATOM     25 OD2  ASP E 181       2.589 -23.098  31.584  1.00 24.37 LIG-0.65  OA
ENDBRANCH 22 23
ENDBRANCH 10 22
ENDBRANCH 8 10
ENDBRANCH 1 6
BRANCH 1 26
ATOM     26  N   ASP E 180       2.558 -26.472  27.910  1.00 48.48 LIG-0.34  N 
ATOM     27  C   ASP E 179       2.164 -25.216  27.688  1.00 52.76 LIG 0.24  C 
ATOM     28 O    ASP E 179       2.926 -24.261  27.534  1.00 54.54 LIG-0.27  OA
ATOM     29 H    ASP E 180       1.996 -27.111  28.031  1.00 48.48 LIG 0.16  HD
BRANCH 27 30
ATOM     30  CA  ASP E 179       0.650 -25.024  27.635  1.00 62.98 LIG 0.19  C 
BRANCH 30 31
ATOM     31  N   ASP E 179      -0.144 -26.155  28.124  1.00 68.60 LIG-0.34  N 
ATOM     32  C   VAL E 178      -0.525 -27.165  27.342  1.00 59.78 LIG 0.26  C 
ATOM     33 O    VAL E 178      -0.437 -27.136  26.113  1.00 49.42 LIG-0.27  OA
ATOM     34 H    ASP E 179      -0.340 -26.106  28.960  1.00 68.60 LIG 0.16  HD
BRANCH 32 35
ATOM     35  CA  VAL E 178      -1.122 -28.380  28.058  1.00 59.92 LIG 0.40  C 
ATOM     36  N   VAL E 178      -2.020 -29.136  27.191  1.00 55.12 LIG 0.61  N 
BRANCH 35 37
ATOM     37  CB  VAL E 178       0.033 -29.271  28.588  1.00 50.97 LIG 0.03  C 
ATOM     38  CG2 VAL E 178       0.688 -28.649  29.812  1.00 47.22 LIG 0.01  C 
ATOM     39  CG1 VAL E 178       1.057 -29.500  27.497  1.00 50.59 LIG 0.01  C 
ENDBRANCH 35 37
ENDBRANCH 32 35
ENDBRANCH 30 31
BRANCH 30 40
ATOM     40  CB  ASP E 179       0.293 -23.769  28.430  1.00 47.75 LIG 0.15  C 
BRANCH 40 41
ATOM     41  CG  ASP E 179      -0.897 -23.043  27.855  1.00 48.80 LIG 0.17  C 
ATOM     42 OD2  ASP E 179      -1.956 -23.685  27.656  1.00 55.56 LIG-0.65  OA
ATOM     43 OD1  ASP E 179      -0.770 -21.827  27.607  1.00 40.87 LIG-0.65  OA
ENDBRANCH 40 41
ENDBRANCH 30 40
ENDBRANCH 27 30
ENDBRANCH 1 26
TORSDOF 19
ENDMDL
MODEL 95
USER: ADFR SOLUTION from run 11
USER: SCORE 12.905417 LL:  -3.471 LR: -11.242 RR:   0.000 FEB:  -5.575
USER: RMSD 7.457516
USER: SEED 399732
USER: STATUS no improvement in best in 4 clusters for 5 generations
USER: GENES 21
USER: genes 0 Translation |==|  0.55603 0.49991 0.46484
USER: genes 1 Rotation |==|  0.42271 0.17040 0.76442 0.75588
USER: genes 2 Torsion [C]-CA--CB-[CG] |==|  0.22394
USER: genes 3 Torsion [CA]-CB--CG-[OD1] |==|  0.89104
USER: genes 4 Torsion [N]-CA--C-[N] |==|  0.22095
USER: genes 5 Torsion [C]-N--CA-[CB] |==|  0.19641
USER: genes 6 Torsion [N]-CA--C-[N] |==|  0.57904
USER: genes 7 Torsion [C]-N--CA-[CB] |==|  0.25493
USER: genes 8 Torsion [N]-CA--CB-[CG] |==|  0.04038
USER: genes 9 Torsion [CA]-CB--CG-[SD] |==|  0.69018
USER: genes 10 Torsion [CB]-CG--SD-[CE] |==|  0.35772
USER: genes 11 Torsion [N]-CA--C-[O] |==|  0.20050
USER: genes 12 Torsion [N]-CA--CB-[CG] |==|  0.13034
USER: genes 13 Torsion [CA]-CB--CG-[OD1] |==|  0.28950
USER: genes 14 Torsion [CB]-CA--N-[C] |==|  0.18852
USER: genes 15 Torsion [N]-C--CA-[N] |==|  0.88114
USER: genes 16 Torsion [C]-CA--N-[C] |==|  0.86111
USER: genes 17 Torsion [N]-C--CA-[N] |==|  0.96427
USER: genes 18 Torsion [C]-CA--CB-[CG2] |==|  0.19073
USER: genes 19 Torsion [C]-CA--CB-[CG] |==|  0.18034
USER: genes 20 Torsion [CA]-CB--CG-[OD2] |==|  0.60077
ROOT
ATOM      1  CA  ASP E 180       3.761 -27.538  25.819  1.00 46.29 LIG 0.19  C 
ENDROOT
BRANCH 1 2
ATOM      2  CB  ASP E 180       4.935 -28.509  25.874  1.00 53.57 LIG 0.15  C 
BRANCH 2 3
ATOM      3  CG  ASP E 180       5.559 -28.742  24.518  1.00 52.91 LIG 0.17  C 
ATOM      4 OD1  ASP E 180       4.804 -28.832  23.524  1.00 53.16 LIG-0.65  OA
ATOM      5 OD2  ASP E 180       6.802 -28.828  24.444  1.00 39.91 LIG-0.65  OA
ENDBRANCH 2 3
ENDBRANCH 1 2
BRANCH 1 6
ATOM      6  C   ASP E 180       2.498 -28.271  25.345  1.00 46.16 LIG 0.24  C 
ATOM      7 O    ASP E 180       2.401 -29.494  25.468  1.00 47.92 LIG-0.27  OA
ATOM      8  N   ASP E 181       1.531 -27.537  24.806  1.00 48.75 LIG-0.34  N 
ATOM      9 H    ASP E 181       1.582 -26.691  24.660  1.00 48.75 LIG 0.16  HD
BRANCH 8 10
ATOM     10  CA  ASP E 181       0.269 -28.158  24.414  1.00 45.01 LIG 0.19  C 
BRANCH 10 11
ATOM     11  C   ASP E 181      -0.581 -27.264  23.516  1.00 47.33 LIG 0.24  C 
ATOM     12 O    ASP E 181      -0.066 -26.411  22.781  1.00 41.27 LIG-0.27  OA
ATOM     13  N   MET E 182      -1.893 -27.464  23.604  1.00 63.00 LIG-0.35  N 
ATOM     14 H    MET E 182      -2.251 -28.011  24.161  1.00 63.00 LIG 0.16  HD
BRANCH 13 15
ATOM     15  CA  MET E 182      -2.854 -26.769  22.760  1.00 43.88 LIG 0.16  C 
BRANCH 15 16
ATOM     16  CB  MET E 182      -3.137 -27.592  21.504  1.00 44.38 LIG 0.04  C 
BRANCH 16 17
ATOM     17  CG  MET E 182      -2.660 -29.028  21.593  1.00 63.17 LIG 0.08  C 
BRANCH 17 18
ATOM     18 SD   MET E 182      -1.281 -29.367  20.484  1.00101.17 LIG-0.17  SA
ATOM     19  CE  MET E 182      -0.117 -30.120  21.620  1.00 68.91 LIG 0.09  C 
ENDBRANCH 17 18
ENDBRANCH 16 17
ENDBRANCH 15 16
BRANCH 15 20
ATOM     20  C   MET E 182      -4.156 -26.485  23.511  1.00 60.82 LIG 0.22  C 
ATOM     21 O    MET E 182      -4.210 -25.625  24.396  1.00 58.83 LIG-0.29  OA
ENDBRANCH 15 20
ENDBRANCH 13 15
ENDBRANCH 10 11
BRANCH 10 22
ATOM     22  CB  ASP E 181      -0.524 -28.557  25.658  1.00 40.72 LIG 0.15  C 
BRANCH 22 23
ATOM     23  CG  ASP E 181      -0.576 -27.447  26.686  1.00 40.82 LIG 0.17  C 
ATOM     24 OD1  ASP E 181      -1.631 -26.786  26.814  1.00 47.44 LIG-0.65  OA
ATOM     25 OD2  ASP E 181       0.445 -27.247  27.375  1.00 24.37 LIG-0.65  OA
ENDBRANCH 22 23
ENDBRANCH 10 22
ENDBRANCH 8 10
ENDBRANCH 1 6
BRANCH 1 26
ATOM     26  N   ASP E 180       3.506 -26.919  27.124  1.00 48.48 LIG-0.34  N 
ATOM     27  C   ASP E 179       4.313 -26.054  27.743  1.00 52.76 LIG 0.24  C 
ATOM     28 O    ASP E 179       5.401 -25.676  27.307  1.00 54.54 LIG-0.27  OA
ATOM     29 H    ASP E 180       2.761 -27.172  27.468  1.00 48.48 LIG 0.16  HD
BRANCH 27 30
ATOM     30  CA  ASP E 179       3.785 -25.537  29.080  1.00 62.98 LIG 0.19  C 
BRANCH 30 31
ATOM     31  N   ASP E 179       2.362 -25.185  29.100  1.00 68.60 LIG-0.34  N 
ATOM     32  C   VAL E 178       1.799 -24.396  28.186  1.00 59.78 LIG 0.26  C 
ATOM     33 O    VAL E 178       2.449 -23.725  27.381  1.00 49.42 LIG-0.27  OA
ATOM     34 H    ASP E 179       1.927 -25.533  29.755  1.00 68.60 LIG 0.16  HD
BRANCH 32 35
ATOM     35  CA  VAL E 178       0.268 -24.337  28.202  1.00 59.92 LIG 0.40  C 
ATOM     36  N   VAL E 178      -0.309 -25.391  29.029  1.00 55.12 LIG 0.61  N 
BRANCH 35 37
ATOM     37  CB  VAL E 178      -0.178 -22.932  28.685  1.00 50.97 LIG 0.03  C 
ATOM     38  CG2 VAL E 178       0.162 -21.863  27.656  1.00 47.22 LIG 0.01  C 
ATOM     39  CG1 VAL E 178       0.467 -22.611  30.016  1.00 50.59 LIG 0.01  C 
ENDBRANCH 35 37
ENDBRANCH 32 35
ENDBRANCH 30 31
BRANCH 30 40
ATOM     40  CB  ASP E 179       4.064 -26.592  30.150  1.00 47.75 LIG 0.15  C 
BRANCH 40 41
ATOM     41  CG  ASP E 179       5.540 -26.801  30.381  1.00 48.80 LIG 0.17  C 
ATOM     42 OD2  ASP E 179       5.952 -27.960  30.631  1.00 55.56 LIG-0.65  OA
ATOM     43 OD1  ASP E 179       6.285 -25.804  30.309  1.00 40.87 LIG-0.65  OA
ENDBRANCH 40 41
ENDBRANCH 30 40
ENDBRANCH 27 30
ENDBRANCH 1 26
TORSDOF 19
ENDMDL
MODEL 96
USER: ADFR SOLUTION from run 163
USER: SCORE 11.905197 LL:  -2.591 LR: -11.226 RR:   0.000 FEB:  -5.559
USER: RMSD 7.939061
USER: SEED 162
USER: STATUS no improvement in best in 16 clusters for 5 generations
USER: GENES 21
USER: genes 0 Translation |==|  0.40481 0.63025 0.54509
USER: genes 1 Rotation |==|  0.45355 0.80804 0.29210 0.83125
USER: genes 2 Torsion [C]-CA--CB-[CG] |==|  0.35088
USER: genes 3 Torsion [CA]-CB--CG-[OD1] |==|  0.13622
USER: genes 4 Torsion [N]-CA--C-[N] |==|  0.05889
USER: genes 5 Torsion [C]-N--CA-[CB] |==|  0.16734
USER: genes 6 Torsion [N]-CA--C-[N] |==|  0.09844
USER: genes 7 Torsion [C]-N--CA-[CB] |==|  0.83749
USER: genes 8 Torsion [N]-CA--CB-[CG] |==|  0.57199
USER: genes 9 Torsion [CA]-CB--CG-[SD] |==|  0.30510
USER: genes 10 Torsion [CB]-CG--SD-[CE] |==|  0.51305
USER: genes 11 Torsion [N]-CA--C-[O] |==|  0.65093
USER: genes 12 Torsion [N]-CA--CB-[CG] |==|  0.63685
USER: genes 13 Torsion [CA]-CB--CG-[OD1] |==|  0.02600
USER: genes 14 Torsion [CB]-CA--N-[C] |==|  0.42855
USER: genes 15 Torsion [N]-C--CA-[N] |==|  0.38179
USER: genes 16 Torsion [C]-CA--N-[C] |==|  0.86667
USER: genes 17 Torsion [N]-C--CA-[N] |==|  0.44531
USER: genes 18 Torsion [C]-CA--CB-[CG2] |==|  0.25409
USER: genes 19 Torsion [C]-CA--CB-[CG] |==|  0.71949
USER: genes 20 Torsion [CA]-CB--CG-[OD2] |==|  0.11587
ROOT
ATOM      1  CA  ASP E 180       0.472 -25.387  27.444  1.00 46.29 LIG 0.19  C 
ENDROOT
BRANCH 1 2
ATOM      2  CB  ASP E 180      -0.170 -24.937  28.752  1.00 53.57 LIG 0.15  C 
BRANCH 2 3
ATOM      3  CG  ASP E 180      -1.101 -23.761  28.568  1.00 52.91 LIG 0.17  C 
ATOM      4 OD1  ASP E 180      -1.956 -23.817  27.657  1.00 53.16 LIG-0.65  OA
ATOM      5 OD2  ASP E 180      -0.982 -22.785  29.337  1.00 39.91 LIG-0.65  OA
ENDBRANCH 2 3
ENDBRANCH 1 2
BRANCH 1 6
ATOM      6  C   ASP E 180       1.998 -25.426  27.599  1.00 46.16 LIG 0.24  C 
ATOM      7 O    ASP E 180       2.579 -24.590  28.294  1.00 47.92 LIG-0.27  OA
ATOM      8  N   ASP E 181       2.653 -26.390  26.958  1.00 48.75 LIG-0.34  N 
ATOM      9 H    ASP E 181       2.288 -26.959  26.427  1.00 48.75 LIG 0.16  HD
BRANCH 8 10
ATOM     10  CA  ASP E 181       4.094 -26.538  27.131  1.00 45.01 LIG 0.19  C 
BRANCH 10 11
ATOM     11  C   ASP E 181       4.689 -27.637  26.255  1.00 47.33 LIG 0.24  C 
ATOM     12 O    ASP E 181       5.637 -28.331  26.644  1.00 41.27 LIG-0.27  OA
ATOM     13  N   MET E 182       4.126 -27.768  25.057  1.00 63.00 LIG-0.35  N 
ATOM     14 H    MET E 182       3.511 -27.243  24.764  1.00 63.00 LIG 0.16  HD
BRANCH 13 15
ATOM     15  CA  MET E 182       4.499 -28.818  24.122  1.00 43.88 LIG 0.16  C 
BRANCH 15 16
ATOM     16  CB  MET E 182       5.989 -28.723  23.797  1.00 44.38 LIG 0.04  C 
BRANCH 16 17
ATOM     17  CG  MET E 182       6.359 -29.302  22.446  1.00 63.17 LIG 0.08  C 
BRANCH 17 18
ATOM     18 SD   MET E 182       6.835 -28.034  21.258  1.00101.17 LIG-0.17  SA
ATOM     19  CE  MET E 182       7.057 -29.026  19.782  1.00 68.91 LIG 0.09  C 
ENDBRANCH 17 18
ENDBRANCH 16 17
ENDBRANCH 15 16
BRANCH 15 20
ATOM     20  C   MET E 182       4.167 -30.205  24.675  1.00 60.82 LIG 0.22  C 
ATOM     21 O    MET E 182       5.029 -31.086  24.753  1.00 58.83 LIG-0.29  OA
ENDBRANCH 15 20
ENDBRANCH 13 15
ENDBRANCH 10 11
BRANCH 10 22
ATOM     22  CB  ASP E 181       4.419 -26.806  28.600  1.00 40.72 LIG 0.15  C 
BRANCH 22 23
ATOM     23  CG  ASP E 181       5.518 -25.903  29.119  1.00 40.82 LIG 0.17  C 
ATOM     24 OD1  ASP E 181       5.910 -24.952  28.406  1.00 47.44 LIG-0.65  OA
ATOM     25 OD2  ASP E 181       5.980 -26.145  30.252  1.00 24.37 LIG-0.65  OA
ENDBRANCH 22 23
ENDBRANCH 10 22
ENDBRANCH 8 10
ENDBRANCH 1 6
BRANCH 1 26
ATOM     26  N   ASP E 180      -0.012 -26.707  27.027  1.00 48.48 LIG-0.34  N 
ATOM     27  C   ASP E 179      -0.046 -27.161  25.772  1.00 52.76 LIG 0.24  C 
ATOM     28 O    ASP E 179       0.306 -26.514  24.785  1.00 54.54 LIG-0.27  OA
ATOM     29 H    ASP E 180      -0.284 -27.182  27.690  1.00 48.48 LIG 0.16  HD
BRANCH 27 30
ATOM     30  CA  ASP E 179      -0.568 -28.589  25.626  1.00 62.98 LIG 0.19  C 
BRANCH 30 31
ATOM     31  N   ASP E 179      -1.491 -28.810  24.509  1.00 68.60 LIG-0.34  N 
ATOM     32  C   VAL E 178      -2.530 -28.013  24.260  1.00 59.78 LIG 0.26  C 
ATOM     33 O    VAL E 178      -2.934 -27.163  25.056  1.00 49.42 LIG-0.27  OA
ATOM     34 H    ASP E 179      -1.299 -29.498  24.032  1.00 68.60 LIG 0.16  HD
BRANCH 32 35
ATOM     35  CA  VAL E 178      -3.235 -28.231  22.918  1.00 59.92 LIG 0.40  C 
ATOM     36  N   VAL E 178      -4.585 -27.675  22.916  1.00 55.12 LIG 0.61  N 
BRANCH 35 37
ATOM     37  CB  VAL E 178      -2.370 -27.616  21.787  1.00 50.97 LIG 0.03  C 
ATOM     38  CG2 VAL E 178      -1.412 -28.645  21.206  1.00 47.22 LIG 0.01  C 
ATOM     39  CG1 VAL E 178      -1.608 -26.417  22.309  1.00 50.59 LIG 0.01  C 
ENDBRANCH 35 37
ENDBRANCH 32 35
ENDBRANCH 30 31
BRANCH 30 40
ATOM     40  CB  ASP E 179       0.630 -29.529  25.493  1.00 47.75 LIG 0.15  C 
BRANCH 40 41
ATOM     41  CG  ASP E 179       0.883 -29.939  24.063  1.00 48.80 LIG 0.17  C 
ATOM     42 OD2  ASP E 179       0.787 -29.072  23.162  1.00 55.56 LIG-0.65  OA
ATOM     43 OD1  ASP E 179       1.179 -31.131  23.846  1.00 40.87 LIG-0.65  OA
ENDBRANCH 40 41
ENDBRANCH 30 40
ENDBRANCH 27 30
ENDBRANCH 1 26
TORSDOF 19
ENDMDL
MODEL 97
USER: ADFR SOLUTION from run 199
USER: SCORE 11.542625 LL:  -2.202 LR: -11.228 RR:   0.000 FEB:  -5.560
USER: RMSD 6.554213
USER: SEED 198
USER: STATUS no improvement in best in 15 clusters for 5 generations
USER: GENES 21
USER: genes 0 Translation |==|  0.50597 0.46955 0.52444
USER: genes 1 Rotation |==|  0.59186 0.21207 0.11850 0.61451
USER: genes 2 Torsion [C]-CA--CB-[CG] |==|  0.18577
USER: genes 3 Torsion [CA]-CB--CG-[OD1] |==|  0.75281
USER: genes 4 Torsion [N]-CA--C-[N] |==|  0.74775
USER: genes 5 Torsion [C]-N--CA-[CB] |==|  0.80970
USER: genes 6 Torsion [N]-CA--C-[N] |==|  0.17961
USER: genes 7 Torsion [C]-N--CA-[CB] |==|  0.85858
USER: genes 8 Torsion [N]-CA--CB-[CG] |==|  0.64542
USER: genes 9 Torsion [CA]-CB--CG-[SD] |==|  0.77472
USER: genes 10 Torsion [CB]-CG--SD-[CE] |==|  0.30920
USER: genes 11 Torsion [N]-CA--C-[O] |==|  0.23947
USER: genes 12 Torsion [N]-CA--CB-[CG] |==|  0.66579
USER: genes 13 Torsion [CA]-CB--CG-[OD1] |==|  0.40632
USER: genes 14 Torsion [CB]-CA--N-[C] |==|  0.79472
USER: genes 15 Torsion [N]-C--CA-[N] |==|  0.92433
USER: genes 16 Torsion [C]-CA--N-[C] |==|  0.72241
USER: genes 17 Torsion [N]-C--CA-[N] |==|  0.48597
USER: genes 18 Torsion [C]-CA--CB-[CG2] |==|  0.22321
USER: genes 19 Torsion [C]-CA--CB-[CG] |==|  0.24155
USER: genes 20 Torsion [CA]-CB--CG-[OD2] |==|  0.11788
ROOT
ATOM      1  CA  ASP E 180       2.672 -28.038  27.026  1.00 46.29 LIG 0.19  C 
ENDROOT
BRANCH 1 2
ATOM      2  CB  ASP E 180       3.798 -27.537  26.129  1.00 53.57 LIG 0.15  C 
BRANCH 2 3
ATOM      3  CG  ASP E 180       5.047 -27.189  26.905  1.00 52.91 LIG 0.17  C 
ATOM      4 OD1  ASP E 180       5.167 -26.026  27.349  1.00 53.16 LIG-0.65  OA
ATOM      5 OD2  ASP E 180       5.905 -28.080  27.078  1.00 39.91 LIG-0.65  OA
ENDBRANCH 2 3
ENDBRANCH 1 2
BRANCH 1 6
ATOM      6  C   ASP E 180       2.182 -26.902  27.934  1.00 46.16 LIG 0.24  C 
ATOM      7 O    ASP E 180       1.762 -27.142  29.067  1.00 47.92 LIG-0.27  OA
ATOM      8  N   ASP E 181       2.234 -25.666  27.447  1.00 48.75 LIG-0.34  N 
ATOM      9 H    ASP E 181       2.475 -25.465  26.647  1.00 48.75 LIG 0.16  HD
BRANCH 8 10
ATOM     10  CA  ASP E 181       1.867 -24.530  28.288  1.00 45.01 LIG 0.19  C 
BRANCH 10 11
ATOM     11  C   ASP E 181       2.652 -24.478  29.595  1.00 47.33 LIG 0.24  C 
ATOM     12 O    ASP E 181       2.089 -24.594  30.691  1.00 41.27 LIG-0.27  OA
ATOM     13  N   MET E 182       3.960 -24.281  29.458  1.00 63.00 LIG-0.35  N 
ATOM     14 H    MET E 182       4.339 -24.137  28.700  1.00 63.00 LIG 0.16  HD
BRANCH 13 15
ATOM     15  CA  MET E 182       4.880 -24.292  30.585  1.00 43.88 LIG 0.16  C 
BRANCH 15 16
ATOM     16  CB  MET E 182       4.370 -23.363  31.686  1.00 44.38 LIG 0.04  C 
BRANCH 16 17
ATOM     17  CG  MET E 182       5.395 -22.350  32.156  1.00 63.17 LIG 0.08  C 
BRANCH 17 18
ATOM     18 SD   MET E 182       6.558 -23.045  33.343  1.00101.17 LIG-0.17  SA
ATOM     19  CE  MET E 182       8.065 -23.044  32.373  1.00 68.91 LIG 0.09  C 
ENDBRANCH 17 18
ENDBRANCH 16 17
ENDBRANCH 15 16
BRANCH 15 20
ATOM     20  C   MET E 182       5.074 -25.706  31.136  1.00 60.82 LIG 0.22  C 
ATOM     21 O    MET E 182       5.920 -26.469  30.657  1.00 58.83 LIG-0.29  OA
ENDBRANCH 15 20
ENDBRANCH 13 15
ENDBRANCH 10 11
BRANCH 10 22
ATOM     22  CB  ASP E 181       0.367 -24.560  28.578  1.00 40.72 LIG 0.15  C 
BRANCH 22 23
ATOM     23  CG  ASP E 181      -0.339 -23.315  28.082  1.00 40.82 LIG 0.17  C 
ATOM     24 OD1  ASP E 181      -1.512 -23.411  27.656  1.00 47.44 LIG-0.65  OA
ATOM     25 OD2  ASP E 181       0.285 -22.237  28.131  1.00 24.37 LIG-0.65  OA
ENDBRANCH 22 23
ENDBRANCH 10 22
ENDBRANCH 8 10
ENDBRANCH 1 6
BRANCH 1 26
ATOM     26  N   ASP E 180       1.546 -28.560  26.244  1.00 48.48 LIG-0.34  N 
ATOM     27  C   ASP E 179       0.665 -27.822  25.564  1.00 52.76 LIG 0.24  C 
ATOM     28 O    ASP E 179       0.667 -26.591  25.524  1.00 54.54 LIG-0.27  OA
ATOM     29 H    ASP E 180       1.502 -29.418  26.263  1.00 48.48 LIG 0.16  HD
BRANCH 27 30
ATOM     30  CA  ASP E 179      -0.389 -28.627  24.807  1.00 62.98 LIG 0.19  C 
BRANCH 30 31
ATOM     31  N   ASP E 179       0.021 -29.975  24.402  1.00 68.60 LIG-0.34  N 
ATOM     32  C   VAL E 178       0.428 -30.267  23.167  1.00 59.78 LIG 0.26  C 
ATOM     33 O    VAL E 178       0.292 -29.499  22.213  1.00 49.42 LIG-0.27  OA
ATOM     34 H    ASP E 179      -0.026 -30.556  25.033  1.00 68.60 LIG 0.16  HD
BRANCH 32 35
ATOM     35  CA  VAL E 178       1.060 -31.649  22.978  1.00 59.92 LIG 0.40  C 
ATOM     36  N   VAL E 178       1.365 -31.922  21.577  1.00 55.12 LIG 0.61  N 
BRANCH 35 37
ATOM     37  CB  VAL E 178       2.331 -31.748  23.862  1.00 50.97 LIG 0.03  C 
ATOM     38  CG2 VAL E 178       1.972 -32.059  25.308  1.00 47.22 LIG 0.01  C 
ATOM     39  CG1 VAL E 178       3.125 -30.462  23.778  1.00 50.59 LIG 0.01  C 
ENDBRANCH 35 37
ENDBRANCH 32 35
ENDBRANCH 30 31
BRANCH 30 40
ATOM     40  CB  ASP E 179      -1.644 -28.715  25.675  1.00 47.75 LIG 0.15  C 
BRANCH 40 41
ATOM     41  CG  ASP E 179      -2.564 -27.536  25.476  1.00 48.80 LIG 0.17  C 
ATOM     42 OD2  ASP E 179      -2.764 -27.118  24.310  1.00 55.56 LIG-0.65  OA
ATOM     43 OD1  ASP E 179      -3.087 -27.032  26.490  1.00 40.87 LIG-0.65  OA
ENDBRANCH 40 41
ENDBRANCH 30 40
ENDBRANCH 27 30
ENDBRANCH 1 26
TORSDOF 19
ENDMDL
MODEL 98
USER: ADFR SOLUTION from run 124
USER: SCORE 12.808126 LL:  -2.195 LR: -11.216 RR:   0.000 FEB:  -5.548
USER: RMSD 10.469185
USER: SEED 123
USER: STATUS no improvement in best in 30 clusters for 5 generations
USER: GENES 21
USER: genes 0 Translation |==|  0.53262 0.61081 0.69582
USER: genes 1 Rotation |==|  0.39177 0.21236 0.13033 0.63745
USER: genes 2 Torsion [C]-CA--CB-[CG] |==|  0.17055
USER: genes 3 Torsion [CA]-CB--CG-[OD1] |==|  0.59287
USER: genes 4 Torsion [N]-CA--C-[N] |==|  0.38259
USER: genes 5 Torsion [C]-N--CA-[CB] |==|  0.21111
USER: genes 6 Torsion [N]-CA--C-[N] |==|  0.11622
USER: genes 7 Torsion [C]-N--CA-[CB] |==|  0.49894
USER: genes 8 Torsion [N]-CA--CB-[CG] |==|  0.56307
USER: genes 9 Torsion [CA]-CB--CG-[SD] |==|  0.60295
USER: genes 10 Torsion [CB]-CG--SD-[CE] |==|  0.62072
USER: genes 11 Torsion [N]-CA--C-[O] |==|  0.66940
USER: genes 12 Torsion [N]-CA--CB-[CG] |==|  0.73756
USER: genes 13 Torsion [CA]-CB--CG-[OD1] |==|  0.92629
USER: genes 14 Torsion [CB]-CA--N-[C] |==|  0.84987
USER: genes 15 Torsion [N]-C--CA-[N] |==|  0.38604
USER: genes 16 Torsion [C]-CA--N-[C] |==|  0.82173
USER: genes 17 Torsion [N]-C--CA-[N] |==|  0.36461
USER: genes 18 Torsion [C]-CA--CB-[CG2] |==|  0.51193
USER: genes 19 Torsion [C]-CA--CB-[CG] |==|  0.84206
USER: genes 20 Torsion [CA]-CB--CG-[OD2] |==|  0.34338
ROOT
ATOM      1  CA  ASP E 180       3.251 -25.708  30.496  1.00 46.29 LIG 0.19  C 
ENDROOT
BRANCH 1 2
ATOM      2  CB  ASP E 180       3.614 -25.807  29.018  1.00 53.57 LIG 0.15  C 
BRANCH 2 3
ATOM      3  CG  ASP E 180       5.107 -25.824  28.787  1.00 52.91 LIG 0.17  C 
ATOM      4 OD1  ASP E 180       5.555 -25.286  27.750  1.00 53.16 LIG-0.65  OA
ATOM      5 OD2  ASP E 180       5.834 -26.368  29.644  1.00 39.91 LIG-0.65  OA
ENDBRANCH 2 3
ENDBRANCH 1 2
BRANCH 1 6
ATOM      6  C   ASP E 180       3.800 -24.399  31.081  1.00 46.16 LIG 0.24  C 
ATOM      7 O    ASP E 180       3.195 -23.337  30.917  1.00 47.92 LIG-0.27  OA
ATOM      8  N   ASP E 181       4.939 -24.464  31.763  1.00 48.75 LIG-0.34  N 
ATOM      9 H    ASP E 181       5.413 -25.175  31.856  1.00 48.75 LIG 0.16  HD
BRANCH 8 10
ATOM     10  CA  ASP E 181       5.472 -23.274  32.419  1.00 45.01 LIG 0.19  C 
BRANCH 10 11
ATOM     11  C   ASP E 181       6.959 -23.386  32.739  1.00 47.33 LIG 0.24  C 
ATOM     12 O    ASP E 181       7.422 -22.974  33.811  1.00 41.27 LIG-0.27  OA
ATOM     13  N   MET E 182       7.701 -23.934  31.781  1.00 63.00 LIG-0.35  N 
ATOM     14 H    MET E 182       7.389 -24.161  31.013  1.00 63.00 LIG 0.16  HD
BRANCH 13 15
ATOM     15  CA  MET E 182       9.122 -24.205  31.942  1.00 43.88 LIG 0.16  C 
BRANCH 15 16
ATOM     16  CB  MET E 182       9.680 -24.843  30.671  1.00 44.38 LIG 0.04  C 
BRANCH 16 17
ATOM     17  CG  MET E 182      10.948 -25.642  30.894  1.00 63.17 LIG 0.08  C 
BRANCH 17 18
ATOM     18 SD   MET E 182      12.115 -25.482  29.531  1.00101.17 LIG-0.17  SA
ATOM     19  CE  MET E 182      12.639 -27.185  29.338  1.00 68.91 LIG 0.09  C 
ENDBRANCH 17 18
ENDBRANCH 16 17
ENDBRANCH 15 16
BRANCH 15 20
ATOM     20  C   MET E 182       9.899 -22.930  32.279  1.00 60.82 LIG 0.22  C 
ATOM     21 O    MET E 182      10.792 -22.510  31.535  1.00 58.83 LIG-0.29  OA
ENDBRANCH 15 20
ENDBRANCH 13 15
ENDBRANCH 10 11
BRANCH 10 22
ATOM     22  CB  ASP E 181       4.681 -22.984  33.694  1.00 40.72 LIG 0.15  C 
BRANCH 22 23
ATOM     23  CG  ASP E 181       3.563 -21.990  33.463  1.00 40.82 LIG 0.17  C 
ATOM     24 OD1  ASP E 181       3.670 -21.161  32.531  1.00 47.44 LIG-0.65  OA
ATOM     25 OD2  ASP E 181       2.569 -22.051  34.214  1.00 24.37 LIG-0.65  OA
ENDBRANCH 22 23
ENDBRANCH 10 22
ENDBRANCH 8 10
ENDBRANCH 1 6
BRANCH 1 26
ATOM     26  N   ASP E 180       1.801 -25.767  30.705  1.00 48.48 LIG-0.34  N 
ATOM     27  C   ASP E 179       0.899 -24.978  30.116  1.00 52.76 LIG 0.24  C 
ATOM     28 O    ASP E 179       1.171 -24.070  29.330  1.00 54.54 LIG-0.27  OA
ATOM     29 H    ASP E 180       1.574 -26.380  31.263  1.00 48.48 LIG 0.16  HD
BRANCH 27 30
ATOM     30  CA  ASP E 179      -0.551 -25.281  30.489  1.00 62.98 LIG 0.19  C 
BRANCH 30 31
ATOM     31  N   ASP E 179      -1.401 -24.108  30.711  1.00 68.60 LIG-0.34  N 
ATOM     32  C   VAL E 178      -1.191 -23.238  31.699  1.00 59.78 LIG 0.26  C 
ATOM     33 O    VAL E 178      -0.415 -23.451  32.632  1.00 49.42 LIG-0.27  OA
ATOM     34 H    ASP E 179      -2.044 -24.034  30.146  1.00 68.60 LIG 0.16  HD
BRANCH 32 35
ATOM     35  CA  VAL E 178      -2.005 -21.942  31.635  1.00 59.92 LIG 0.40  C 
ATOM     36  N   VAL E 178      -2.648 -21.639  32.910  1.00 55.12 LIG 0.61  N 
BRANCH 35 37
ATOM     37  CB  VAL E 178      -1.077 -20.785  31.183  1.00 50.97 LIG 0.03  C 
ATOM     38  CG2 VAL E 178      -1.810 -19.451  31.204  1.00 47.22 LIG 0.01  C 
ATOM     39  CG1 VAL E 178      -0.530 -21.067  29.800  1.00 50.59 LIG 0.01  C 
ENDBRANCH 35 37
ENDBRANCH 32 35
ENDBRANCH 30 31
BRANCH 30 40
ATOM     40  CB  ASP E 179      -1.160 -26.153  29.392  1.00 47.75 LIG 0.15  C 
BRANCH 40 41
ATOM     41  CG  ASP E 179      -1.074 -25.508  28.031  1.00 48.80 LIG 0.17  C 
ATOM     42 OD2  ASP E 179      -0.503 -26.131  27.104  1.00 55.56 LIG-0.65  OA
ATOM     43 OD1  ASP E 179      -1.583 -24.378  27.892  1.00 40.87 LIG-0.65  OA
ENDBRANCH 40 41
ENDBRANCH 30 40
ENDBRANCH 27 30
ENDBRANCH 1 26
TORSDOF 19
ENDMDL
MODEL 99
USER: ADFR SOLUTION from run 175
USER: SCORE 12.437027 LL:  -2.238 LR: -11.211 RR:   0.000 FEB:  -5.543
USER: RMSD 8.653774
USER: SEED 174
USER: STATUS no improvement in best in 24 clusters for 5 generations
USER: GENES 21
USER: genes 0 Translation |==|  0.56051 0.55450 0.53341
USER: genes 1 Rotation |==|  0.60752 0.89865 0.24191 0.61363
USER: genes 2 Torsion [C]-CA--CB-[CG] |==|  0.24132
USER: genes 3 Torsion [CA]-CB--CG-[OD1] |==|  0.04455
USER: genes 4 Torsion [N]-CA--C-[N] |==|  0.45455
USER: genes 5 Torsion [C]-N--CA-[CB] |==|  0.84757
USER: genes 6 Torsion [N]-CA--C-[N] |==|  0.34570
USER: genes 7 Torsion [C]-N--CA-[CB] |==|  0.82051
USER: genes 8 Torsion [N]-CA--CB-[CG] |==|  0.53028
USER: genes 9 Torsion [CA]-CB--CG-[SD] |==|  0.52561
USER: genes 10 Torsion [CB]-CG--SD-[CE] |==|  0.33875
USER: genes 11 Torsion [N]-CA--C-[O] |==|  0.32098
USER: genes 12 Torsion [N]-CA--CB-[CG] |==|  0.81890
USER: genes 13 Torsion [CA]-CB--CG-[OD1] |==|  0.79825
USER: genes 14 Torsion [CB]-CA--N-[C] |==|  0.21216
USER: genes 15 Torsion [N]-C--CA-[N] |==|  0.97560
USER: genes 16 Torsion [C]-CA--N-[C] |==|  0.76324
USER: genes 17 Torsion [N]-C--CA-[N] |==|  0.51961
USER: genes 18 Torsion [C]-CA--CB-[CG2] |==|  0.64597
USER: genes 19 Torsion [C]-CA--CB-[CG] |==|  0.30638
USER: genes 20 Torsion [CA]-CB--CG-[OD2] |==|  0.44027
ROOT
ATOM      1  CA  ASP E 180       3.858 -26.637  27.207  1.00 46.29 LIG 0.19  C 
ENDROOT
BRANCH 1 2
ATOM      2  CB  ASP E 180       4.282 -26.656  28.672  1.00 53.57 LIG 0.15  C 
BRANCH 2 3
ATOM      3  CG  ASP E 180       5.540 -25.858  28.923  1.00 52.91 LIG 0.17  C 
ATOM      4 OD1  ASP E 180       5.916 -25.050  28.045  1.00 53.16 LIG-0.65  OA
ATOM      5 OD2  ASP E 180       6.150 -26.034  29.998  1.00 39.91 LIG-0.65  OA
ENDBRANCH 2 3
ENDBRANCH 1 2
BRANCH 1 6
ATOM      6  C   ASP E 180       4.570 -27.762  26.444  1.00 46.16 LIG 0.24  C 
ATOM      7 O    ASP E 180       3.950 -28.767  26.089  1.00 47.92 LIG-0.27  OA
ATOM      8  N   ASP E 181       5.864 -27.604  26.188  1.00 48.75 LIG-0.34  N 
ATOM      9 H    ASP E 181       6.339 -26.941  26.461  1.00 48.75 LIG 0.16  HD
BRANCH 8 10
ATOM     10  CA  ASP E 181       6.582 -28.594  25.391  1.00 45.01 LIG 0.19  C 
BRANCH 10 11
ATOM     11  C   ASP E 181       6.145 -28.612  23.929  1.00 47.33 LIG 0.24  C 
ATOM     12 O    ASP E 181       4.963 -28.792  23.611  1.00 41.27 LIG-0.27  OA
ATOM     13  N   MET E 182       7.126 -28.441  23.047  1.00 63.00 LIG-0.35  N 
ATOM     14 H    MET E 182       7.954 -28.380  23.268  1.00 63.00 LIG 0.16  HD
BRANCH 13 15
ATOM     15  CA  MET E 182       6.888 -28.339  21.615  1.00 43.88 LIG 0.16  C 
BRANCH 15 16
ATOM     16  CB  MET E 182       6.323 -29.656  21.084  1.00 44.38 LIG 0.04  C 
BRANCH 16 17
ATOM     17  CG  MET E 182       6.287 -29.741  19.572  1.00 63.17 LIG 0.08  C 
BRANCH 17 18
ATOM     18 SD   MET E 182       5.378 -31.181  18.982  1.00101.17 LIG-0.17  SA
ATOM     19  CE  MET E 182       4.120 -30.393  17.977  1.00 68.91 LIG 0.09  C 
ENDBRANCH 17 18
ENDBRANCH 16 17
ENDBRANCH 15 16
BRANCH 15 20
ATOM     20  C   MET E 182       5.938 -27.186  21.286  1.00 60.82 LIG 0.22  C 
ATOM     21 O    MET E 182       6.317 -26.214  20.623  1.00 58.83 LIG-0.29  OA
ENDBRANCH 15 20
ENDBRANCH 13 15
ENDBRANCH 10 11
BRANCH 10 22
ATOM     22  CB  ASP E 181       6.410 -29.982  26.006  1.00 40.72 LIG 0.15  C 
BRANCH 22 23
ATOM     23  CG  ASP E 181       7.054 -30.088  27.373  1.00 40.82 LIG 0.17  C 
ATOM     24 OD1  ASP E 181       8.303 -30.128  27.454  1.00 47.44 LIG-0.65  OA
ATOM     25 OD2  ASP E 181       6.303 -30.121  28.367  1.00 24.37 LIG-0.65  OA
ENDBRANCH 22 23
ENDBRANCH 10 22
ENDBRANCH 8 10
ENDBRANCH 1 6
BRANCH 1 26
ATOM     26  N   ASP E 180       2.407 -26.787  27.060  1.00 48.48 LIG-0.34  N 
ATOM     27  C   ASP E 179       1.501 -25.831  27.282  1.00 52.76 LIG 0.24  C 
ATOM     28 O    ASP E 179       1.766 -24.693  27.669  1.00 54.54 LIG-0.27  OA
ATOM     29 H    ASP E 180       2.182 -27.577  26.807  1.00 48.48 LIG 0.16  HD
BRANCH 27 30
ATOM     30  CA  ASP E 179       0.057 -26.251  27.017  1.00 62.98 LIG 0.19  C 
BRANCH 30 31
ATOM     31  N   ASP E 179      -0.111 -27.556  26.372  1.00 68.60 LIG-0.34  N 
ATOM     32  C   VAL E 178      -0.059 -27.723  25.051  1.00 59.78 LIG 0.26  C 
ATOM     33 O    VAL E 178      -0.086 -26.785  24.251  1.00 49.42 LIG-0.27  OA
ATOM     34 H    ASP E 179      -0.245 -28.201  26.924  1.00 68.60 LIG 0.16  HD
BRANCH 32 35
ATOM     35  CA  VAL E 178       0.005 -29.172  24.559  1.00 59.92 LIG 0.40  C 
ATOM     36  N   VAL E 178       0.224 -29.250  23.119  1.00 55.12 LIG 0.61  N 
BRANCH 35 37
ATOM     37  CB  VAL E 178       1.115 -29.922  25.341  1.00 50.97 LIG 0.03  C 
ATOM     38  CG2 VAL E 178       2.087 -30.609  24.392  1.00 47.22 LIG 0.01  C 
ATOM     39  CG1 VAL E 178       0.497 -30.929  26.287  1.00 50.59 LIG 0.01  C 
ENDBRANCH 35 37
ENDBRANCH 32 35
ENDBRANCH 30 31
BRANCH 30 40
ATOM     40  CB  ASP E 179      -0.702 -26.236  28.343  1.00 47.75 LIG 0.15  C 
BRANCH 40 41
ATOM     41  CG  ASP E 179      -1.716 -25.122  28.414  1.00 48.80 LIG 0.17  C 
ATOM     42 OD2  ASP E 179      -2.666 -25.223  29.227  1.00 55.56 LIG-0.65  OA
ATOM     43 OD1  ASP E 179      -1.557 -24.144  27.656  1.00 40.87 LIG-0.65  OA
ENDBRANCH 40 41
ENDBRANCH 30 40
ENDBRANCH 27 30
ENDBRANCH 1 26
TORSDOF 19
ENDMDL
MODEL 100
USER: ADFR SOLUTION from run 176
USER: SCORE 11.434873 LL:  -2.192 LR: -11.197 RR:   0.000 FEB:  -5.529
USER: RMSD 9.752448
USER: SEED 175
USER: STATUS no improvement in best in 15 clusters for 5 generations
USER: GENES 21
USER: genes 0 Translation |==|  0.51775 0.68281 0.58735
USER: genes 1 Rotation |==|  0.36194 0.21099 0.87801 0.56722
USER: genes 2 Torsion [C]-CA--CB-[CG] |==|  0.16340
USER: genes 3 Torsion [CA]-CB--CG-[OD1] |==|  0.59181
USER: genes 4 Torsion [N]-CA--C-[N] |==|  0.33606
USER: genes 5 Torsion [C]-N--CA-[CB] |==|  0.39656
USER: genes 6 Torsion [N]-CA--C-[N] |==|  0.91238
USER: genes 7 Torsion [C]-N--CA-[CB] |==|  0.36438
USER: genes 8 Torsion [N]-CA--CB-[CG] |==|  0.84369
USER: genes 9 Torsion [CA]-CB--CG-[SD] |==|  0.42433
USER: genes 10 Torsion [CB]-CG--SD-[CE] |==|  0.04964
USER: genes 11 Torsion [N]-CA--C-[O] |==|  0.09196
USER: genes 12 Torsion [N]-CA--CB-[CG] |==|  0.77351
USER: genes 13 Torsion [CA]-CB--CG-[OD1] |==|  0.43746
USER: genes 14 Torsion [CB]-CA--N-[C] |==|  0.54444
USER: genes 15 Torsion [N]-C--CA-[N] |==|  0.49852
USER: genes 16 Torsion [C]-CA--N-[C] |==|  0.73676
USER: genes 17 Torsion [N]-C--CA-[N] |==|  0.18357
USER: genes 18 Torsion [C]-CA--CB-[CG2] |==|  0.69321
USER: genes 19 Torsion [C]-CA--CB-[CG] |==|  0.31447
USER: genes 20 Torsion [CA]-CB--CG-[OD2] |==|  0.62475
ROOT
ATOM      1  CA  ASP E 180       2.928 -24.520  28.300  1.00 46.29 LIG 0.19  C 
ENDROOT
BRANCH 1 2
ATOM      2  CB  ASP E 180       4.067 -24.538  29.315  1.00 53.57 LIG 0.15  C 
BRANCH 2 3
ATOM      3  CG  ASP E 180       5.205 -25.437  28.894  1.00 52.91 LIG 0.17  C 
ATOM      4 OD1  ASP E 180       5.850 -26.036  29.783  1.00 53.16 LIG-0.65  OA
ATOM      5 OD2  ASP E 180       5.451 -25.553  27.675  1.00 39.91 LIG-0.65  OA
ENDBRANCH 2 3
ENDBRANCH 1 2
BRANCH 1 6
ATOM      6  C   ASP E 180       2.382 -25.941  28.104  1.00 46.16 LIG 0.24  C 
ATOM      7 O    ASP E 180       1.841 -26.538  29.036  1.00 47.92 LIG-0.27  OA
ATOM      8  N   ASP E 181       2.518 -26.487  26.899  1.00 48.75 LIG-0.34  N 
ATOM      9 H    ASP E 181       2.932 -26.121  26.240  1.00 48.75 LIG 0.16  HD
BRANCH 8 10
ATOM     10  CA  ASP E 181       1.945 -27.800  26.620  1.00 45.01 LIG 0.19  C 
BRANCH 10 11
ATOM     11  C   ASP E 181       2.938 -28.939  26.828  1.00 47.33 LIG 0.24  C 
ATOM     12 O    ASP E 181       2.569 -30.054  27.220  1.00 41.27 LIG-0.27  OA
ATOM     13  N   MET E 182       4.207 -28.632  26.576  1.00 63.00 LIG-0.35  N 
ATOM     14 H    MET E 182       4.469 -27.841  26.366  1.00 63.00 LIG 0.16  HD
BRANCH 13 15
ATOM     15  CA  MET E 182       5.281 -29.613  26.633  1.00 43.88 LIG 0.16  C 
BRANCH 15 16
ATOM     16  CB  MET E 182       6.138 -29.523  25.371  1.00 44.38 LIG 0.04  C 
BRANCH 16 17
ATOM     17  CG  MET E 182       5.354 -29.692  24.085  1.00 63.17 LIG 0.08  C 
BRANCH 17 18
ATOM     18 SD   MET E 182       6.122 -28.850  22.690  1.00101.17 LIG-0.17  SA
ATOM     19  CE  MET E 182       7.784 -28.611  23.319  1.00 68.91 LIG 0.09  C 
ENDBRANCH 17 18
ENDBRANCH 16 17
ENDBRANCH 15 16
BRANCH 15 20
ATOM     20  C   MET E 182       6.151 -29.420  27.876  1.00 60.82 LIG 0.22  C 
ATOM     21 O    MET E 182       5.668 -29.012  28.938  1.00 58.83 LIG-0.29  OA
ENDBRANCH 15 20
ENDBRANCH 13 15
ENDBRANCH 10 11
BRANCH 10 22
ATOM     22  CB  ASP E 181       1.397 -27.836  25.194  1.00 40.72 LIG 0.15  C 
BRANCH 22 23
ATOM     23  CG  ASP E 181       0.019 -27.215  25.093  1.00 40.82 LIG 0.17  C 
ATOM     24 OD1  ASP E 181      -0.375 -26.789  23.984  1.00 47.44 LIG-0.65  OA
ATOM     25 OD2  ASP E 181      -0.672 -27.167  26.129  1.00 24.37 LIG-0.65  OA
ENDBRANCH 22 23
ENDBRANCH 10 22
ENDBRANCH 8 10
ENDBRANCH 1 6
BRANCH 1 26
ATOM     26  N   ASP E 180       1.840 -23.631  28.720  1.00 48.48 LIG-0.34  N 
ATOM     27  C   ASP E 179       0.603 -23.628  28.218  1.00 52.76 LIG 0.24  C 
ATOM     28 O    ASP E 179       0.215 -24.362  27.309  1.00 54.54 LIG-0.27  OA
ATOM     29 H    ASP E 180       2.079 -23.090  29.344  1.00 48.48 LIG 0.16  HD
BRANCH 27 30
ATOM     30  CA  ASP E 179      -0.343 -22.618  28.865  1.00 62.98 LIG 0.19  C 
BRANCH 30 31
ATOM     31  N   ASP E 179      -1.703 -22.591  28.319  1.00 68.60 LIG-0.34  N 
ATOM     32  C   VAL E 178      -2.084 -21.740  27.366  1.00 59.78 LIG 0.26  C 
ATOM     33 O    VAL E 178      -1.407 -20.771  27.018  1.00 49.42 LIG-0.27  OA
ATOM     34 H    ASP E 179      -2.230 -23.173  28.670  1.00 68.60 LIG 0.16  HD
BRANCH 32 35
ATOM     35  CA  VAL E 178      -3.451 -22.013  26.731  1.00 59.92 LIG 0.40  C 
ATOM     36  N   VAL E 178      -4.541 -21.832  27.684  1.00 55.12 LIG 0.61  N 
BRANCH 35 37
ATOM     37  CB  VAL E 178      -3.625 -21.094  25.494  1.00 50.97 LIG 0.03  C 
ATOM     38  CG2 VAL E 178      -4.680 -20.027  25.745  1.00 47.22 LIG 0.01  C 
ATOM     39  CG1 VAL E 178      -3.985 -21.920  24.278  1.00 50.59 LIG 0.01  C 
ENDBRANCH 35 37
ENDBRANCH 32 35
ENDBRANCH 30 31
BRANCH 30 40
ATOM     40  CB  ASP E 179      -0.401 -22.903  30.365  1.00 47.75 LIG 0.15  C 
BRANCH 40 41
ATOM     41  CG  ASP E 179       0.208 -21.795  31.186  1.00 48.80 LIG 0.17  C 
ATOM     42 OD2  ASP E 179       0.982 -22.097  32.127  1.00 55.56 LIG-0.65  OA
ATOM     43 OD1  ASP E 179      -0.087 -20.621  30.886  1.00 40.87 LIG-0.65  OA
ENDBRANCH 40 41
ENDBRANCH 30 40
ENDBRANCH 27 30
ENDBRANCH 1 26
TORSDOF 19
ENDMDL
MODEL 101
USER: ADFR SOLUTION from run 106
USER: SCORE 11.897113 LL:  -1.829 LR: -11.195 RR:   0.000 FEB:  -5.528
USER: RMSD 8.334907
USER: SEED 105
USER: STATUS no improvement in best in 20 clusters for 5 generations
USER: GENES 21
USER: genes 0 Translation |==|  0.46915 0.58110 0.58727
USER: genes 1 Rotation |==|  0.94060 0.34186 0.67480 0.51765
USER: genes 2 Torsion [C]-CA--CB-[CG] |==|  0.24997
USER: genes 3 Torsion [CA]-CB--CG-[OD1] |==|  0.97813
USER: genes 4 Torsion [N]-CA--C-[N] |==|  0.39753
USER: genes 5 Torsion [C]-N--CA-[CB] |==|  0.75078
USER: genes 6 Torsion [N]-CA--C-[N] |==|  0.13126
USER: genes 7 Torsion [C]-N--CA-[CB] |==|  0.22166
USER: genes 8 Torsion [N]-CA--CB-[CG] |==|  0.73072
USER: genes 9 Torsion [CA]-CB--CG-[SD] |==|  0.90703
USER: genes 10 Torsion [CB]-CG--SD-[CE] |==|  0.38866
USER: genes 11 Torsion [N]-CA--C-[O] |==|  0.91057
USER: genes 12 Torsion [N]-CA--CB-[CG] |==|  0.82014
USER: genes 13 Torsion [CA]-CB--CG-[OD1] |==|  0.56774
USER: genes 14 Torsion [CB]-CA--N-[C] |==|  0.84107
USER: genes 15 Torsion [N]-C--CA-[N] |==|  0.66659
USER: genes 16 Torsion [C]-CA--N-[C] |==|  0.18324
USER: genes 17 Torsion [N]-C--CA-[N] |==|  0.51657
USER: genes 18 Torsion [C]-CA--CB-[CG2] |==|  0.61602
USER: genes 19 Torsion [C]-CA--CB-[CG] |==|  0.34694
USER: genes 20 Torsion [CA]-CB--CG-[OD2] |==|  0.38763
ROOT
ATOM      1  CA  ASP E 180       1.871 -26.198  28.298  1.00 46.29 LIG 0.19  C 
ENDROOT
BRANCH 1 2
ATOM      2  CB  ASP E 180       1.414 -24.772  28.007  1.00 53.57 LIG 0.15  C 
BRANCH 2 3
ATOM      3  CG  ASP E 180      -0.072 -24.680  27.751  1.00 52.91 LIG 0.17  C 
ATOM      4 OD1  ASP E 180      -0.725 -25.742  27.651  1.00 53.16 LIG-0.65  OA
ATOM      5 OD2  ASP E 180      -0.588 -23.547  27.656  1.00 39.91 LIG-0.65  OA
ENDBRANCH 2 3
ENDBRANCH 1 2
BRANCH 1 6
ATOM      6  C   ASP E 180       2.257 -26.899  26.989  1.00 46.16 LIG 0.24  C 
ATOM      7 O    ASP E 180       3.395 -26.786  26.529  1.00 47.92 LIG-0.27  OA
ATOM      8  N   ASP E 181       1.321 -27.624  26.385  1.00 48.75 LIG-0.34  N 
ATOM      9 H    ASP E 181       0.505 -27.686  26.648  1.00 48.75 LIG 0.16  HD
BRANCH 8 10
ATOM     10  CA  ASP E 181       1.644 -28.387  25.183  1.00 45.01 LIG 0.19  C 
BRANCH 10 11
ATOM     11  C   ASP E 181       3.070 -28.930  25.189  1.00 47.33 LIG 0.24  C 
ATOM     12 O    ASP E 181       3.805 -28.825  24.198  1.00 41.27 LIG-0.27  OA
ATOM     13  N   MET E 182       3.439 -29.529  26.318  1.00 63.00 LIG-0.35  N 
ATOM     14 H    MET E 182       2.907 -29.657  26.980  1.00 63.00 LIG 0.16  HD
BRANCH 13 15
ATOM     15  CA  MET E 182       4.788 -30.028  26.540  1.00 43.88 LIG 0.16  C 
BRANCH 15 16
ATOM     16  CB  MET E 182       5.714 -28.876  26.930  1.00 44.38 LIG 0.04  C 
BRANCH 16 17
ATOM     17  CG  MET E 182       6.509 -28.311  25.770  1.00 63.17 LIG 0.08  C 
BRANCH 17 18
ATOM     18 SD   MET E 182       6.948 -29.568  24.556  1.00101.17 LIG-0.17  SA
ATOM     19  CE  MET E 182       6.696 -28.661  23.031  1.00 68.91 LIG 0.09  C 
ENDBRANCH 17 18
ENDBRANCH 16 17
ENDBRANCH 15 16
BRANCH 15 20
ATOM     20  C   MET E 182       4.813 -31.113  27.618  1.00 60.82 LIG 0.22  C 
ATOM     21 O    MET E 182       4.019 -31.094  28.564  1.00 58.83 LIG-0.29  OA
ENDBRANCH 15 20
ENDBRANCH 13 15
ENDBRANCH 10 11
BRANCH 10 22
ATOM     22  CB  ASP E 181       1.416 -27.526  23.941  1.00 40.72 LIG 0.15  C 
BRANCH 22 23
ATOM     23  CG  ASP E 181      -0.041 -27.157  23.759  1.00 40.82 LIG 0.17  C 
ATOM     24 OD1  ASP E 181      -0.457 -26.874  22.612  1.00 47.44 LIG-0.65  OA
ATOM     25 OD2  ASP E 181      -0.771 -27.161  24.770  1.00 24.37 LIG-0.65  OA
ENDBRANCH 22 23
ENDBRANCH 10 22
ENDBRANCH 8 10
ENDBRANCH 1 6
BRANCH 1 26
ATOM     26  N   ASP E 180       3.009 -26.226  29.222  1.00 48.48 LIG-0.34  N 
ATOM     27  C   ASP E 179       4.180 -25.613  29.031  1.00 52.76 LIG 0.24  C 
ATOM     28 O    ASP E 179       4.471 -24.957  28.030  1.00 54.54 LIG-0.27  OA
ATOM     29 H    ASP E 180       2.849 -26.691  29.928  1.00 48.48 LIG 0.16  HD
BRANCH 27 30
ATOM     30  CA  ASP E 179       5.179 -25.780  30.174  1.00 62.98 LIG 0.19  C 
BRANCH 30 31
ATOM     31  N   ASP E 179       5.618 -24.536  30.812  1.00 68.60 LIG-0.34  N 
ATOM     32  C   VAL E 178       4.797 -23.752  31.509  1.00 59.78 LIG 0.26  C 
ATOM     33 O    VAL E 178       3.571 -23.879  31.499  1.00 49.42 LIG-0.27  OA
ATOM     34 H    ASP E 179       6.452 -24.361  30.694  1.00 68.60 LIG 0.16  HD
BRANCH 32 35
ATOM     35  CA  VAL E 178       5.463 -22.636  32.320  1.00 59.92 LIG 0.40  C 
ATOM     36  N   VAL E 178       4.503 -21.922  33.156  1.00 55.12 LIG 0.61  N 
BRANCH 35 37
ATOM     37  CB  VAL E 178       6.609 -23.244  33.171  1.00 50.97 LIG 0.03  C 
ATOM     38  CG2 VAL E 178       6.625 -22.654  34.573  1.00 47.22 LIG 0.01  C 
ATOM     39  CG1 VAL E 178       7.940 -23.021  32.486  1.00 50.59 LIG 0.01  C 
ENDBRANCH 35 37
ENDBRANCH 32 35
ENDBRANCH 30 31
BRANCH 30 40
ATOM     40  CB  ASP E 179       4.562 -26.703  31.224  1.00 47.75 LIG 0.15  C 
BRANCH 40 41
ATOM     41  CG  ASP E 179       5.441 -27.888  31.537  1.00 48.80 LIG 0.17  C 
ATOM     42 OD2  ASP E 179       5.545 -28.262  32.730  1.00 55.56 LIG-0.65  OA
ATOM     43 OD1  ASP E 179       6.024 -28.444  30.585  1.00 40.87 LIG-0.65  OA
ENDBRANCH 40 41
ENDBRANCH 30 40
ENDBRANCH 27 30
ENDBRANCH 1 26
TORSDOF 19
ENDMDL
MODEL 102
USER: ADFR SOLUTION from run 194
USER: SCORE 11.948646 LL:  -2.347 LR: -11.189 RR:   0.000 FEB:  -5.521
USER: RMSD 6.876913
USER: SEED 193
USER: STATUS no improvement in best in 13 clusters for 5 generations
USER: GENES 21
USER: genes 0 Translation |==|  0.51559 0.60489 0.53718
USER: genes 1 Rotation |==|  0.47628 0.71673 0.41574 0.94200
USER: genes 2 Torsion [C]-CA--CB-[CG] |==|  0.40464
USER: genes 3 Torsion [CA]-CB--CG-[OD1] |==|  0.19881
USER: genes 4 Torsion [N]-CA--C-[N] |==|  0.59882
USER: genes 5 Torsion [C]-N--CA-[CB] |==|  0.50832
USER: genes 6 Torsion [N]-CA--C-[N] |==|  0.46111
USER: genes 7 Torsion [C]-N--CA-[CB] |==|  0.46189
USER: genes 8 Torsion [N]-CA--CB-[CG] |==|  0.70146
USER: genes 9 Torsion [CA]-CB--CG-[SD] |==|  0.50934
USER: genes 10 Torsion [CB]-CG--SD-[CE] |==|  0.00446
USER: genes 11 Torsion [N]-CA--C-[O] |==|  0.29576
USER: genes 12 Torsion [N]-CA--CB-[CG] |==|  0.60029
USER: genes 13 Torsion [CA]-CB--CG-[OD1] |==|  0.29996
USER: genes 14 Torsion [CB]-CA--N-[C] |==|  0.78884
USER: genes 15 Torsion [N]-C--CA-[N] |==|  0.89899
USER: genes 16 Torsion [C]-CA--N-[C] |==|  0.84695
USER: genes 17 Torsion [N]-C--CA-[N] |==|  0.36647
USER: genes 18 Torsion [C]-CA--CB-[CG2] |==|  0.57505
USER: genes 19 Torsion [C]-CA--CB-[CG] |==|  0.22341
USER: genes 20 Torsion [CA]-CB--CG-[OD2] |==|  0.48221
ROOT
ATOM      1  CA  ASP E 180       2.881 -25.805  27.284  1.00 46.29 LIG 0.19  C 
ENDROOT
BRANCH 1 2
ATOM      2  CB  ASP E 180       1.632 -26.145  28.091  1.00 53.57 LIG 0.15  C 
BRANCH 2 3
ATOM      3  CG  ASP E 180       0.357 -25.848  27.338  1.00 52.91 LIG 0.17  C 
ATOM      4 OD1  ASP E 180       0.049 -26.586  26.375  1.00 53.16 LIG-0.65  OA
ATOM      5 OD2  ASP E 180      -0.342 -24.883  27.711  1.00 39.91 LIG-0.65  OA
ENDBRANCH 2 3
ENDBRANCH 1 2
BRANCH 1 6
ATOM      6  C   ASP E 180       3.986 -25.300  28.221  1.00 46.16 LIG 0.24  C 
ATOM      7 O    ASP E 180       5.168 -25.338  27.874  1.00 47.92 LIG-0.27  OA
ATOM      8  N   ASP E 181       3.613 -24.825  29.406  1.00 48.75 LIG-0.34  N 
ATOM      9 H    ASP E 181       2.806 -24.827  29.701  1.00 48.75 LIG 0.16  HD
BRANCH 8 10
ATOM     10  CA  ASP E 181       4.603 -24.248  30.310  1.00 45.01 LIG 0.19  C 
BRANCH 10 11
ATOM     11  C   ASP E 181       5.777 -25.184  30.583  1.00 47.33 LIG 0.24  C 
ATOM     12 O    ASP E 181       5.722 -26.388  30.301  1.00 41.27 LIG-0.27  OA
ATOM     13  N   MET E 182       6.832 -24.610  31.154  1.00 63.00 LIG-0.35  N 
ATOM     14 H    MET E 182       6.845 -23.789  31.407  1.00 63.00 LIG 0.16  HD
BRANCH 13 15
ATOM     15  CA  MET E 182       8.076 -25.323  31.407  1.00 43.88 LIG 0.16  C 
BRANCH 15 16
ATOM     16  CB  MET E 182       9.187 -24.331  31.748  1.00 44.38 LIG 0.04  C 
BRANCH 16 17
ATOM     17  CG  MET E 182      10.213 -24.160  30.646  1.00 63.17 LIG 0.08  C 
BRANCH 17 18
ATOM     18 SD   MET E 182      11.558 -23.059  31.118  1.00101.17 LIG-0.17  SA
ATOM     19  CE  MET E 182      11.088 -22.662  32.802  1.00 68.91 LIG 0.09  C 
ENDBRANCH 17 18
ENDBRANCH 16 17
ENDBRANCH 15 16
BRANCH 15 20
ATOM     20  C   MET E 182       7.915 -26.344  32.535  1.00 60.82 LIG 0.22  C 
ATOM     21 O    MET E 182       7.869 -27.556  32.300  1.00 58.83 LIG-0.29  OA
ENDBRANCH 15 20
ENDBRANCH 13 15
ENDBRANCH 10 11
BRANCH 10 22
ATOM     22  CB  ASP E 181       3.936 -23.847  31.625  1.00 40.72 LIG 0.15  C 
BRANCH 22 23
ATOM     23  CG  ASP E 181       4.526 -22.578  32.204  1.00 40.82 LIG 0.17  C 
ATOM     24 OD1  ASP E 181       3.851 -21.524  32.171  1.00 47.44 LIG-0.65  OA
ATOM     25 OD2  ASP E 181       5.667 -22.644  32.703  1.00 24.37 LIG-0.65  OA
ENDBRANCH 22 23
ENDBRANCH 10 22
ENDBRANCH 8 10
ENDBRANCH 1 6
BRANCH 1 26
ATOM     26  N   ASP E 180       3.371 -26.963  26.529  1.00 48.48 LIG-0.34  N 
ATOM     27  C   ASP E 179       4.039 -27.999  27.043  1.00 52.76 LIG 0.24  C 
ATOM     28 O    ASP E 179       4.355 -28.108  28.228  1.00 54.54 LIG-0.27  OA
ATOM     29 H    ASP E 180       3.183 -26.913  25.692  1.00 48.48 LIG 0.16  HD
BRANCH 27 30
ATOM     30  CA  ASP E 179       4.401 -29.086  26.033  1.00 62.98 LIG 0.19  C 
BRANCH 30 31
ATOM     31  N   ASP E 179       3.400 -29.336  24.992  1.00 68.60 LIG-0.34  N 
ATOM     32  C   VAL E 178       2.130 -29.635  25.265  1.00 59.78 LIG 0.26  C 
ATOM     33 O    VAL E 178       1.737 -29.942  26.392  1.00 49.42 LIG-0.27  OA
ATOM     34 H    ASP E 179       3.707 -29.270  24.192  1.00 68.60 LIG 0.16  HD
BRANCH 32 35
ATOM     35  CA  VAL E 178       1.164 -29.611  24.076  1.00 59.92 LIG 0.40  C 
ATOM     36  N   VAL E 178       0.332 -30.809  24.026  1.00 55.12 LIG 0.61  N 
BRANCH 35 37
ATOM     37  CB  VAL E 178       0.300 -28.326  24.154  1.00 50.97 LIG 0.03  C 
ATOM     38  CG2 VAL E 178      -1.046 -28.526  23.473  1.00 47.22 LIG 0.01  C 
ATOM     39  CG1 VAL E 178       1.041 -27.161  23.532  1.00 50.59 LIG 0.01  C 
ENDBRANCH 35 37
ENDBRANCH 32 35
ENDBRANCH 30 31
BRANCH 30 40
ATOM     40  CB  ASP E 179       5.733 -28.717  25.382  1.00 47.75 LIG 0.15  C 
BRANCH 40 41
ATOM     41  CG  ASP E 179       6.915 -29.074  26.248  1.00 48.80 LIG 0.17  C 
ATOM     42 OD2  ASP E 179       8.070 -28.935  25.778  1.00 55.56 LIG-0.65  OA
ATOM     43 OD1  ASP E 179       6.685 -29.492  27.401  1.00 40.87 LIG-0.65  OA
ENDBRANCH 40 41
ENDBRANCH 30 40
ENDBRANCH 27 30
ENDBRANCH 1 26
TORSDOF 19
ENDMDL
MODEL 103
USER: ADFR SOLUTION from run 191
USER: SCORE 12.961230 LL:  -2.122 LR: -11.186 RR:   0.000 FEB:  -5.519
USER: RMSD 8.863780
USER: SEED 190
USER: STATUS no improvement in best in 12 clusters for 5 generations
USER: GENES 21
USER: genes 0 Translation |==|  0.60133 0.49944 0.48424
USER: genes 1 Rotation |==|  0.66102 0.84644 0.26954 0.72569
USER: genes 2 Torsion [C]-CA--CB-[CG] |==|  0.25524
USER: genes 3 Torsion [CA]-CB--CG-[OD1] |==|  0.11059
USER: genes 4 Torsion [N]-CA--C-[N] |==|  0.36044
USER: genes 5 Torsion [C]-N--CA-[CB] |==|  0.84949
USER: genes 6 Torsion [N]-CA--C-[N] |==|  0.34564
USER: genes 7 Torsion [C]-N--CA-[CB] |==|  0.30094
USER: genes 8 Torsion [N]-CA--CB-[CG] |==|  0.69109
USER: genes 9 Torsion [CA]-CB--CG-[SD] |==|  0.30629
USER: genes 10 Torsion [CB]-CG--SD-[CE] |==|  0.77844
USER: genes 11 Torsion [N]-CA--C-[O] |==|  0.93738
USER: genes 12 Torsion [N]-CA--CB-[CG] |==|  0.65303
USER: genes 13 Torsion [CA]-CB--CG-[OD1] |==|  0.31322
USER: genes 14 Torsion [CB]-CA--N-[C] |==|  0.83702
USER: genes 15 Torsion [N]-C--CA-[N] |==|  0.40041
USER: genes 16 Torsion [C]-CA--N-[C] |==|  0.57486
USER: genes 17 Torsion [N]-C--CA-[N] |==|  0.39840
USER: genes 18 Torsion [C]-CA--CB-[CG2] |==|  0.13444
USER: genes 19 Torsion [C]-CA--CB-[CG] |==|  0.39765
USER: genes 20 Torsion [CA]-CB--CG-[OD2] |==|  0.92049
ROOT
ATOM      1  CA  ASP E 180       4.746 -27.545  26.212  1.00 46.29 LIG 0.19  C 
ENDROOT
BRANCH 1 2
ATOM      2  CB  ASP E 180       4.346 -27.461  27.681  1.00 53.57 LIG 0.15  C 
BRANCH 2 3
ATOM      3  CG  ASP E 180       5.200 -26.487  28.459  1.00 52.91 LIG 0.17  C 
ATOM      4 OD1  ASP E 180       5.521 -25.409  27.912  1.00 53.16 LIG-0.65  OA
ATOM      5 OD2  ASP E 180       5.543 -26.794  29.620  1.00 39.91 LIG-0.65  OA
ENDBRANCH 2 3
ENDBRANCH 1 2
BRANCH 1 6
ATOM      6  C   ASP E 180       5.774 -28.667  26.015  1.00 46.16 LIG 0.24  C 
ATOM      7 O    ASP E 180       5.430 -29.850  26.073  1.00 47.92 LIG-0.27  OA
ATOM      8  N   ASP E 181       7.033 -28.309  25.781  1.00 48.75 LIG-0.34  N 
ATOM      9 H    ASP E 181       7.318 -27.498  25.781  1.00 48.75 LIG 0.16  HD
BRANCH 8 10
ATOM     10  CA  ASP E 181       8.044 -29.323  25.498  1.00 45.01 LIG 0.19  C 
BRANCH 10 11
ATOM     11  C   ASP E 181       7.846 -30.000  24.145  1.00 47.33 LIG 0.24  C 
ATOM     12 O    ASP E 181       6.785 -30.568  23.857  1.00 41.27 LIG-0.27  OA
ATOM     13  N   MET E 182       8.896 -29.945  23.330  1.00 63.00 LIG-0.35  N 
ATOM     14 H    MET E 182       9.653 -29.606  23.556  1.00 63.00 LIG 0.16  HD
BRANCH 13 15
ATOM     15  CA  MET E 182       8.863 -30.456  21.968  1.00 43.88 LIG 0.16  C 
BRANCH 15 16
ATOM     16  CB  MET E 182       8.869 -29.296  20.973  1.00 44.38 LIG 0.04  C 
BRANCH 16 17
ATOM     17  CG  MET E 182       7.567 -29.132  20.216  1.00 63.17 LIG 0.08  C 
BRANCH 17 18
ATOM     18 SD   MET E 182       6.667 -27.649  20.702  1.00101.17 LIG-0.17  SA
ATOM     19  CE  MET E 182       5.900 -28.207  22.223  1.00 68.91 LIG 0.09  C 
ENDBRANCH 17 18
ENDBRANCH 16 17
ENDBRANCH 15 16
BRANCH 15 20
ATOM     20  C   MET E 182      10.041 -31.393  21.693  1.00 60.82 LIG 0.22  C 
ATOM     21 O    MET E 182      11.075 -31.336  22.367  1.00 58.83 LIG-0.29  OA
ENDBRANCH 15 20
ENDBRANCH 13 15
ENDBRANCH 10 11
BRANCH 10 22
ATOM     22  CB  ASP E 181       8.059 -30.369  26.611  1.00 40.72 LIG 0.15  C 
BRANCH 22 23
ATOM     23  CG  ASP E 181       9.434 -30.536  27.224  1.00 40.82 LIG 0.17  C 
ATOM     24 OD1  ASP E 181       9.617 -30.180  28.410  1.00 47.44 LIG-0.65  OA
ATOM     25 OD2  ASP E 181      10.328 -31.036  26.514  1.00 24.37 LIG-0.65  OA
ENDBRANCH 22 23
ENDBRANCH 10 22
ENDBRANCH 8 10
ENDBRANCH 1 6
BRANCH 1 26
ATOM     26  N   ASP E 180       3.587 -27.786  25.347  1.00 48.48 LIG-0.34  N 
ATOM     27  C   ASP E 179       2.761 -28.832  25.428  1.00 52.76 LIG 0.24  C 
ATOM     28 O    ASP E 179       2.880 -29.756  26.233  1.00 54.54 LIG-0.27  OA
ATOM     29 H    ASP E 180       3.481 -27.168  24.758  1.00 48.48 LIG 0.16  HD
BRANCH 27 30
ATOM     30  CA  ASP E 179       1.612 -28.815  24.422  1.00 62.98 LIG 0.19  C 
BRANCH 30 31
ATOM     31  N   ASP E 179       1.219 -30.125  23.895  1.00 68.60 LIG-0.34  N 
ATOM     32  C   VAL E 178       0.653 -30.284  22.698  1.00 59.78 LIG 0.26  C 
ATOM     33 O    VAL E 178       0.215 -29.345  22.029  1.00 49.42 LIG-0.27  OA
ATOM     34 H    ASP E 179       1.386 -30.778  24.428  1.00 68.60 LIG 0.16  HD
BRANCH 32 35
ATOM     35  CA  VAL E 178       0.542 -31.726  22.195  1.00 59.92 LIG 0.40  C 
ATOM     36  N   VAL E 178      -0.696 -31.951  21.455  1.00 55.12 LIG 0.61  N 
BRANCH 35 37
ATOM     37  CB  VAL E 178       1.785 -32.056  21.329  1.00 50.97 LIG 0.03  C 
ATOM     38  CG2 VAL E 178       3.070 -31.645  22.032  1.00 47.22 LIG 0.01  C 
ATOM     39  CG1 VAL E 178       1.677 -31.374  19.982  1.00 50.59 LIG 0.01  C 
ENDBRANCH 35 37
ENDBRANCH 32 35
ENDBRANCH 30 31
BRANCH 30 40
ATOM     40  CB  ASP E 179       0.405 -28.146  25.078  1.00 47.75 LIG 0.15  C 
BRANCH 40 41
ATOM     41  CG  ASP E 179      -0.382 -27.300  24.109  1.00 48.80 LIG 0.17  C 
ATOM     42 OD2  ASP E 179       0.219 -26.779  23.138  1.00 55.56 LIG-0.65  OA
ATOM     43 OD1  ASP E 179      -1.603 -27.161  24.320  1.00 40.87 LIG-0.65  OA
ENDBRANCH 40 41
ENDBRANCH 30 40
ENDBRANCH 27 30
ENDBRANCH 1 26
TORSDOF 19
ENDMDL
MODEL 104
USER: ADFR SOLUTION from run 103
USER: SCORE 12.255459 LL:  -2.937 LR: -11.180 RR:   0.000 FEB:  -5.513
USER: RMSD 9.042677
USER: SEED 102
USER: STATUS searching
USER: GENES 21
USER: genes 0 Translation |==|  0.59027 0.50404 0.48545
USER: genes 1 Rotation |==|  0.61691 0.90686 0.30194 0.67767
USER: genes 2 Torsion [C]-CA--CB-[CG] |==|  0.28078
USER: genes 3 Torsion [CA]-CB--CG-[OD1] |==|  0.53143
USER: genes 4 Torsion [N]-CA--C-[N] |==|  0.10233
USER: genes 5 Torsion [C]-N--CA-[CB] |==|  0.20556
USER: genes 6 Torsion [N]-CA--C-[N] |==|  0.57034
USER: genes 7 Torsion [C]-N--CA-[CB] |==|  0.82433
USER: genes 8 Torsion [N]-CA--CB-[CG] |==|  0.68166
USER: genes 9 Torsion [CA]-CB--CG-[SD] |==|  0.50288
USER: genes 10 Torsion [CB]-CG--SD-[CE] |==|  0.15804
USER: genes 11 Torsion [N]-CA--C-[O] |==|  0.10374
USER: genes 12 Torsion [N]-CA--CB-[CG] |==|  0.19394
USER: genes 13 Torsion [CA]-CB--CG-[OD1] |==|  0.41573
USER: genes 14 Torsion [CB]-CA--N-[C] |==|  0.80689
USER: genes 15 Torsion [N]-C--CA-[N] |==|  0.43163
USER: genes 16 Torsion [C]-CA--N-[C] |==|  0.66546
USER: genes 17 Torsion [N]-C--CA-[N] |==|  0.25254
USER: genes 18 Torsion [C]-CA--CB-[CG2] |==|  0.53714
USER: genes 19 Torsion [C]-CA--CB-[CG] |==|  0.33911
USER: genes 20 Torsion [CA]-CB--CG-[OD2] |==|  0.50497
ROOT
ATOM      1  CA  ASP E 180       4.505 -27.469  26.236  1.00 46.29 LIG 0.19  C 
ENDROOT
BRANCH 1 2
ATOM      2  CB  ASP E 180       4.545 -27.694  27.744  1.00 53.57 LIG 0.15  C 
BRANCH 2 3
ATOM      3  CG  ASP E 180       5.258 -26.583  28.478  1.00 52.91 LIG 0.17  C 
ATOM      4 OD1  ASP E 180       5.544 -26.754  29.684  1.00 53.16 LIG-0.65  OA
ATOM      5 OD2  ASP E 180       5.539 -25.542  27.849  1.00 39.91 LIG-0.65  OA
ENDBRANCH 2 3
ENDBRANCH 1 2
BRANCH 1 6
ATOM      6  C   ASP E 180       5.579 -28.327  25.553  1.00 46.16 LIG 0.24  C 
ATOM      7 O    ASP E 180       6.536 -28.763  26.196  1.00 47.92 LIG-0.27  OA
ATOM      8  N   ASP E 181       5.429 -28.574  24.255  1.00 48.75 LIG-0.34  N 
ATOM      9 H    ASP E 181       4.803 -28.248  23.764  1.00 48.75 LIG 0.16  HD
BRANCH 8 10
ATOM     10  CA  ASP E 181       6.366 -29.454  23.563  1.00 45.01 LIG 0.19  C 
BRANCH 10 11
ATOM     11  C   ASP E 181       6.315 -29.301  22.045  1.00 47.33 LIG 0.24  C 
ATOM     12 O    ASP E 181       5.916 -28.256  21.515  1.00 41.27 LIG-0.27  OA
ATOM     13  N   MET E 182       6.708 -30.370  21.359  1.00 63.00 LIG-0.35  N 
ATOM     14 H    MET E 182       6.924 -31.116  21.728  1.00 63.00 LIG 0.16  HD
BRANCH 13 15
ATOM     15  CA  MET E 182       6.813 -30.380  19.907  1.00 43.88 LIG 0.16  C 
BRANCH 15 16
ATOM     16  CB  MET E 182       5.435 -30.161  19.283  1.00 44.38 LIG 0.04  C 
BRANCH 16 17
ATOM     17  CG  MET E 182       4.922 -31.354  18.500  1.00 63.17 LIG 0.08  C 
BRANCH 17 18
ATOM     18 SD   MET E 182       3.311 -31.049  17.754  1.00101.17 LIG-0.17  SA
ATOM     19  CE  MET E 182       3.667 -29.592  16.774  1.00 68.91 LIG 0.09  C 
ENDBRANCH 17 18
ENDBRANCH 16 17
ENDBRANCH 15 16
BRANCH 15 20
ATOM     20  C   MET E 182       7.793 -29.316  19.410  1.00 60.82 LIG 0.22  C 
ATOM     21 O    MET E 182       8.829 -29.059  20.032  1.00 58.83 LIG-0.29  OA
ENDBRANCH 15 20
ENDBRANCH 13 15
ENDBRANCH 10 11
BRANCH 10 22
ATOM     22  CB  ASP E 181       6.101 -30.908  23.952  1.00 40.72 LIG 0.15  C 
BRANCH 22 23
ATOM     23  CG  ASP E 181       4.794 -31.424  23.387  1.00 40.82 LIG 0.17  C 
ATOM     24 OD1  ASP E 181       4.691 -32.641  23.110  1.00 47.44 LIG-0.65  OA
ATOM     25 OD2  ASP E 181       3.866 -30.606  23.232  1.00 24.37 LIG-0.65  OA
ENDBRANCH 22 23
ENDBRANCH 10 22
ENDBRANCH 8 10
ENDBRANCH 1 6
BRANCH 1 26
ATOM     26  N   ASP E 180       3.190 -27.791  25.674  1.00 48.48 LIG-0.34  N 
ATOM     27  C   ASP E 179       2.668 -29.016  25.571  1.00 52.76 LIG 0.24  C 
ATOM     28 O    ASP E 179       3.239 -30.051  25.916  1.00 54.54 LIG-0.27  OA
ATOM     29 H    ASP E 180       2.767 -27.092  25.405  1.00 48.48 LIG 0.16  HD
BRANCH 27 30
ATOM     30  CA  ASP E 179       1.262 -29.059  24.976  1.00 62.98 LIG 0.19  C 
BRANCH 30 31
ATOM     31  N   ASP E 179       0.888 -30.326  24.338  1.00 68.60 LIG-0.34  N 
ATOM     32  C   VAL E 178       0.541 -30.415  23.055  1.00 59.78 LIG 0.26  C 
ATOM     33 O    VAL E 178       0.293 -29.433  22.353  1.00 49.42 LIG-0.27  OA
ATOM     34 H    ASP E 179       0.914 -31.002  24.868  1.00 68.60 LIG 0.16  HD
BRANCH 32 35
ATOM     35  CA  VAL E 178       0.432 -31.833  22.486  1.00 59.92 LIG 0.40  C 
ATOM     36  N   VAL E 178      -0.918 -32.371  22.621  1.00 55.12 LIG 0.61  N 
BRANCH 35 37
ATOM     37  CB  VAL E 178       0.889 -31.820  21.005  1.00 50.97 LIG 0.03  C 
ATOM     38  CG2 VAL E 178       0.499 -33.110  20.297  1.00 47.22 LIG 0.01  C 
ATOM     39  CG1 VAL E 178       2.385 -31.603  20.923  1.00 50.59 LIG 0.01  C 
ENDBRANCH 35 37
ENDBRANCH 32 35
ENDBRANCH 30 31
BRANCH 30 40
ATOM     40  CB  ASP E 179       0.259 -28.729  26.080  1.00 47.75 LIG 0.15  C 
BRANCH 40 41
ATOM     41  CG  ASP E 179      -0.596 -27.533  25.742  1.00 48.80 LIG 0.17  C 
ATOM     42 OD2  ASP E 179      -1.438 -27.138  26.584  1.00 55.56 LIG-0.65  OA
ATOM     43 OD1  ASP E 179      -0.421 -26.990  24.633  1.00 40.87 LIG-0.65  OA
ENDBRANCH 40 41
ENDBRANCH 30 40
ENDBRANCH 27 30
ENDBRANCH 1 26
TORSDOF 19
ENDMDL
MODEL 105
USER: ADFR SOLUTION from run 57
USER: SCORE 12.493707 LL:  -3.254 LR: -11.185 RR:   0.000 FEB:  -5.517
USER: RMSD 9.038904
USER: SEED 56
USER: STATUS no improvement in best in 16 clusters for 5 generations
USER: GENES 21
USER: genes 0 Translation |==|  0.55736 0.57170 0.53703
USER: genes 1 Rotation |==|  0.64505 0.85717 0.21272 0.63733
USER: genes 2 Torsion [C]-CA--CB-[CG] |==|  0.20967
USER: genes 3 Torsion [CA]-CB--CG-[OD1] |==|  0.11338
USER: genes 4 Torsion [N]-CA--C-[N] |==|  0.18873
USER: genes 5 Torsion [C]-N--CA-[CB] |==|  0.22222
USER: genes 6 Torsion [N]-CA--C-[N] |==|  0.19087
USER: genes 7 Torsion [C]-N--CA-[CB] |==|  0.78101
USER: genes 8 Torsion [N]-CA--CB-[CG] |==|  0.43848
USER: genes 9 Torsion [CA]-CB--CG-[SD] |==|  0.53589
USER: genes 10 Torsion [CB]-CG--SD-[CE] |==|  0.15629
USER: genes 11 Torsion [N]-CA--C-[O] |==|  0.18909
USER: genes 12 Torsion [N]-CA--CB-[CG] |==|  0.08274
USER: genes 13 Torsion [CA]-CB--CG-[OD1] |==|  0.63444
USER: genes 14 Torsion [CB]-CA--N-[C] |==|  0.82175
USER: genes 15 Torsion [N]-C--CA-[N] |==|  0.28619
USER: genes 16 Torsion [C]-CA--N-[C] |==|  0.76108
USER: genes 17 Torsion [N]-C--CA-[N] |==|  0.92058
USER: genes 18 Torsion [C]-CA--CB-[CG2] |==|  0.52248
USER: genes 19 Torsion [C]-CA--CB-[CG] |==|  0.30925
USER: genes 20 Torsion [CA]-CB--CG-[OD2] |==|  0.99189
ROOT
ATOM      1  CA  ASP E 180       3.790 -26.353  27.281  1.00 46.29 LIG 0.19  C 
ENDROOT
BRANCH 1 2
ATOM      2  CB  ASP E 180       3.977 -26.166  28.783  1.00 53.57 LIG 0.15  C 
BRANCH 2 3
ATOM      3  CG  ASP E 180       5.383 -25.750  29.145  1.00 52.91 LIG 0.17  C 
ATOM      4 OD1  ASP E 180       5.960 -24.909  28.419  1.00 53.16 LIG-0.65  OA
ATOM      5 OD2  ASP E 180       5.910 -26.255  30.157  1.00 39.91 LIG-0.65  OA
ENDBRANCH 2 3
ENDBRANCH 1 2
BRANCH 1 6
ATOM      6  C   ASP E 180       4.438 -27.670  26.835  1.00 46.16 LIG 0.24  C 
ATOM      7 O    ASP E 180       4.823 -28.493  27.668  1.00 47.92 LIG-0.27  OA
ATOM      8  N   ASP E 181       4.563 -27.879  25.528  1.00 48.75 LIG-0.34  N 
ATOM      9 H    ASP E 181       4.352 -27.309  24.920  1.00 48.75 LIG 0.16  HD
BRANCH 8 10
ATOM     10  CA  ASP E 181       5.091 -29.146  25.033  1.00 45.01 LIG 0.19  C 
BRANCH 10 11
ATOM     11  C   ASP E 181       5.691 -29.036  23.635  1.00 47.33 LIG 0.24  C 
ATOM     12 O    ASP E 181       5.164 -29.589  22.661  1.00 41.27 LIG-0.27  OA
ATOM     13  N   MET E 182       6.814 -28.327  23.559  1.00 63.00 LIG-0.35  N 
ATOM     14 H    MET E 182       7.213 -27.999  24.246  1.00 63.00 LIG 0.16  HD
BRANCH 13 15
ATOM     15  CA  MET E 182       7.480 -28.039  22.298  1.00 43.88 LIG 0.16  C 
BRANCH 15 16
ATOM     16  CB  MET E 182       8.277 -29.259  21.837  1.00 44.38 LIG 0.04  C 
BRANCH 16 17
ATOM     17  CG  MET E 182       8.560 -29.278  20.348  1.00 63.17 LIG 0.08  C 
BRANCH 17 18
ATOM     18 SD   MET E 182       9.162 -30.878  19.779  1.00101.17 LIG-0.17  SA
ATOM     19  CE  MET E 182       7.835 -31.949  20.330  1.00 68.91 LIG 0.09  C 
ENDBRANCH 17 18
ENDBRANCH 16 17
ENDBRANCH 15 16
BRANCH 15 20
ATOM     20  C   MET E 182       6.479 -27.624  21.218  1.00 60.82 LIG 0.22  C 
ATOM     21 O    MET E 182       5.865 -26.555  21.292  1.00 58.83 LIG-0.29  OA
ENDBRANCH 15 20
ENDBRANCH 13 15
ENDBRANCH 10 11
BRANCH 10 22
ATOM     22  CB  ASP E 181       3.994 -30.210  25.051  1.00 40.72 LIG 0.15  C 
BRANCH 22 23
ATOM     23  CG  ASP E 181       2.615 -29.616  24.852  1.00 40.82 LIG 0.17  C 
ATOM     24 OD1  ASP E 181       1.693 -29.950  25.630  1.00 47.44 LIG-0.65  OA
ATOM     25 OD2  ASP E 181       2.463 -28.805  23.918  1.00 24.37 LIG-0.65  OA
ENDBRANCH 22 23
ENDBRANCH 10 22
ENDBRANCH 8 10
ENDBRANCH 1 6
BRANCH 1 26
ATOM     26  N   ASP E 180       2.372 -26.354  26.906  1.00 48.48 LIG-0.34  N 
ATOM     27  C   ASP E 179       1.469 -27.261  27.286  1.00 52.76 LIG 0.24  C 
ATOM     28 O    ASP E 179       1.716 -28.241  27.989  1.00 54.54 LIG-0.27  OA
ATOM     29 H    ASP E 180       2.165 -25.691  26.399  1.00 48.48 LIG 0.16  HD
BRANCH 27 30
ATOM     30  CA  ASP E 179       0.053 -27.000  26.777  1.00 62.98 LIG 0.19  C 
BRANCH 30 31
ATOM     31  N   ASP E 179      -0.373 -27.833  25.648  1.00 68.60 LIG-0.34  N 
ATOM     32  C   VAL E 178      -0.118 -27.518  24.379  1.00 59.78 LIG 0.26  C 
ATOM     33 O    VAL E 178       0.297 -26.411  24.029  1.00 49.42 LIG-0.27  OA
ATOM     34 H    ASP E 179      -0.801 -28.541  25.881  1.00 68.60 LIG 0.16  HD
BRANCH 32 35
ATOM     35  CA  VAL E 178      -0.401 -28.612  23.345  1.00 59.92 LIG 0.40  C 
ATOM     36  N   VAL E 178      -0.257 -29.949  23.914  1.00 55.12 LIG 0.61  N 
BRANCH 35 37
ATOM     37  CB  VAL E 178      -1.821 -28.399  22.760  1.00 50.97 LIG 0.03  C 
ATOM     38  CG2 VAL E 178      -2.233 -29.567  21.876  1.00 47.22 LIG 0.01  C 
ATOM     39  CG1 VAL E 178      -1.873 -27.101  21.981  1.00 50.59 LIG 0.01  C 
ENDBRANCH 35 37
ENDBRANCH 32 35
ENDBRANCH 30 31
BRANCH 30 40
ATOM     40  CB  ASP E 179      -0.920 -27.182  27.941  1.00 47.75 LIG 0.15  C 
BRANCH 40 41
ATOM     41  CG  ASP E 179      -1.551 -25.882  28.373  1.00 48.80 LIG 0.17  C 
ATOM     42 OD2  ASP E 179      -1.193 -24.822  27.805  1.00 55.56 LIG-0.65  OA
ATOM     43 OD1  ASP E 179      -2.406 -25.925  29.279  1.00 40.87 LIG-0.65  OA
ENDBRANCH 40 41
ENDBRANCH 30 40
ENDBRANCH 27 30
ENDBRANCH 1 26
TORSDOF 19
ENDMDL
MODEL 106
USER: ADFR SOLUTION from run 131
USER: SCORE 12.049291 LL:  -2.351 LR: -11.175 RR:   0.000 FEB:  -5.507
USER: RMSD 8.560945
USER: SEED 130
USER: STATUS no improvement in best in 23 clusters for 5 generations
USER: GENES 21
USER: genes 0 Translation |==|  0.51571 0.56694 0.55357
USER: genes 1 Rotation |==|  0.35894 0.13417 0.77979 0.63411
USER: genes 2 Torsion [C]-CA--CB-[CG] |==|  0.42274
USER: genes 3 Torsion [CA]-CB--CG-[OD1] |==|  0.39531
USER: genes 4 Torsion [N]-CA--C-[N] |==|  0.38796
USER: genes 5 Torsion [C]-N--CA-[CB] |==|  0.83165
USER: genes 6 Torsion [N]-CA--C-[N] |==|  0.47674
USER: genes 7 Torsion [C]-N--CA-[CB] |==|  0.80190
USER: genes 8 Torsion [N]-CA--CB-[CG] |==|  0.26688
USER: genes 9 Torsion [CA]-CB--CG-[SD] |==|  0.65422
USER: genes 10 Torsion [CB]-CG--SD-[CE] |==|  0.52368
USER: genes 11 Torsion [N]-CA--C-[O] |==|  0.05736
USER: genes 12 Torsion [N]-CA--CB-[CG] |==|  0.56336
USER: genes 13 Torsion [CA]-CB--CG-[OD1] |==|  0.51950
USER: genes 14 Torsion [CB]-CA--N-[C] |==|  0.23728
USER: genes 15 Torsion [N]-C--CA-[N] |==|  0.37326
USER: genes 16 Torsion [C]-CA--N-[C] |==|  0.85288
USER: genes 17 Torsion [N]-C--CA-[N] |==|  0.40141
USER: genes 18 Torsion [C]-CA--CB-[CG2] |==|  0.94398
USER: genes 19 Torsion [C]-CA--CB-[CG] |==|  0.22510
USER: genes 20 Torsion [CA]-CB--CG-[OD2] |==|  0.49456
ROOT
ATOM      1  CA  ASP E 180       2.884 -26.432  27.616  1.00 46.29 LIG 0.19  C 
ENDROOT
BRANCH 1 2
ATOM      2  CB  ASP E 180       3.949 -27.159  28.429  1.00 53.57 LIG 0.15  C 
BRANCH 2 3
ATOM      3  CG  ASP E 180       5.128 -26.275  28.764  1.00 52.91 LIG 0.17  C 
ATOM      4 OD1  ASP E 180       5.664 -26.399  29.887  1.00 53.16 LIG-0.65  OA
ATOM      5 OD2  ASP E 180       5.523 -25.462  27.902  1.00 39.91 LIG-0.65  OA
ENDBRANCH 2 3
ENDBRANCH 1 2
BRANCH 1 6
ATOM      6  C   ASP E 180       2.116 -27.436  26.745  1.00 46.16 LIG 0.24  C 
ATOM      7 O    ASP E 180       1.184 -28.090  27.217  1.00 47.92 LIG-0.27  OA
ATOM      8  N   ASP E 181       2.498 -27.563  25.478  1.00 48.75 LIG-0.34  N 
ATOM      9 H    ASP E 181       3.172 -27.161  25.128  1.00 48.75 LIG 0.16  HD
BRANCH 8 10
ATOM     10  CA  ASP E 181       1.757 -28.435  24.572  1.00 45.01 LIG 0.19  C 
BRANCH 10 11
ATOM     11  C   ASP E 181       0.314 -27.986  24.361  1.00 47.33 LIG 0.24  C 
ATOM     12 O    ASP E 181      -0.189 -27.086  25.045  1.00 41.27 LIG-0.27  OA
ATOM     13  N   MET E 182      -0.347 -28.645  23.413  1.00 63.00 LIG-0.35  N 
ATOM     14 H    MET E 182      -0.017 -29.312  22.983  1.00 63.00 LIG 0.16  HD
BRANCH 13 15
ATOM     15  CA  MET E 182      -1.701 -28.296  23.010  1.00 43.88 LIG 0.16  C 
BRANCH 15 16
ATOM     16  CB  MET E 182      -2.689 -28.680  24.111  1.00 44.38 LIG 0.04  C 
BRANCH 16 17
ATOM     17  CG  MET E 182      -3.044 -27.536  25.040  1.00 63.17 LIG 0.08  C 
BRANCH 17 18
ATOM     18 SD   MET E 182      -2.729 -27.927  26.770  1.00101.17 LIG-0.17  SA
ATOM     19  CE  MET E 182      -3.482 -26.513  27.574  1.00 68.91 LIG 0.09  C 
ENDBRANCH 17 18
ENDBRANCH 16 17
ENDBRANCH 15 16
BRANCH 15 20
ATOM     20  C   MET E 182      -1.823 -26.806  22.687  1.00 60.82 LIG 0.22  C 
ATOM     21 O    MET E 182      -0.828 -26.128  22.409  1.00 58.83 LIG-0.29  OA
ENDBRANCH 15 20
ENDBRANCH 13 15
ENDBRANCH 10 11
BRANCH 10 22
ATOM     22  CB  ASP E 181       1.788 -29.872  25.090  1.00 40.72 LIG 0.15  C 
BRANCH 22 23
ATOM     23  CG  ASP E 181       1.547 -30.885  23.990  1.00 40.82 LIG 0.17  C 
ATOM     24 OD1  ASP E 181       1.413 -32.092  24.294  1.00 47.44 LIG-0.65  OA
ATOM     25 OD2  ASP E 181       1.481 -30.462  22.819  1.00 24.37 LIG-0.65  OA
ENDBRANCH 22 23
ENDBRANCH 10 22
ENDBRANCH 8 10
ENDBRANCH 1 6
BRANCH 1 26
ATOM     26  N   ASP E 180       1.941 -25.710  28.477  1.00 48.48 LIG-0.34  N 
ATOM     27  C   ASP E 179       2.118 -24.478  28.960  1.00 52.76 LIG 0.24  C 
ATOM     28 O    ASP E 179       3.117 -23.786  28.764  1.00 54.54 LIG-0.27  OA
ATOM     29 H    ASP E 180       1.236 -26.170  28.651  1.00 48.48 LIG 0.16  HD
BRANCH 27 30
ATOM     30  CA  ASP E 179       0.958 -23.954  29.805  1.00 62.98 LIG 0.19  C 
BRANCH 30 31
ATOM     31  N   ASP E 179       1.339 -23.306  31.063  1.00 68.60 LIG-0.34  N 
ATOM     32  C   VAL E 178       2.128 -23.887  31.966  1.00 59.78 LIG 0.26  C 
ATOM     33 O    VAL E 178       2.426 -25.083  31.933  1.00 49.42 LIG-0.27  OA
ATOM     34 H    ASP E 179       1.008 -22.519  31.162  1.00 68.60 LIG 0.16  HD
BRANCH 32 35
ATOM     35  CA  VAL E 178       2.634 -22.983  33.095  1.00 59.92 LIG 0.40  C 
ATOM     36  N   VAL E 178       2.732 -23.699  34.363  1.00 55.12 LIG 0.61  N 
BRANCH 35 37
ATOM     37  CB  VAL E 178       4.001 -22.377  32.682  1.00 50.97 LIG 0.03  C 
ATOM     38  CG2 VAL E 178       4.654 -23.196  31.578  1.00 47.22 LIG 0.01  C 
ATOM     39  CG1 VAL E 178       4.915 -22.286  33.885  1.00 50.59 LIG 0.01  C 
ENDBRANCH 35 37
ENDBRANCH 32 35
ENDBRANCH 30 31
BRANCH 30 40
ATOM     40  CB  ASP E 179       0.143 -22.980  28.955  1.00 47.75 LIG 0.15  C 
BRANCH 40 41
ATOM     41  CG  ASP E 179      -0.817 -23.686  28.031  1.00 48.80 LIG 0.17  C 
ATOM     42 OD2  ASP E 179      -1.573 -22.995  27.305  1.00 55.56 LIG-0.65  OA
ATOM     43 OD1  ASP E 179      -0.812 -24.933  28.032  1.00 40.87 LIG-0.65  OA
ENDBRANCH 40 41
ENDBRANCH 30 40
ENDBRANCH 27 30
ENDBRANCH 1 26
TORSDOF 19
ENDMDL
MODEL 107
USER: ADFR SOLUTION from run 156
USER: SCORE 12.087530 LL:  -3.123 LR: -11.174 RR:   0.000 FEB:  -5.506
USER: RMSD 10.734090
USER: SEED 155
USER: STATUS no improvement in best in 5 clusters for 5 generations
USER: GENES 21
USER: genes 0 Translation |==|  0.54337 0.64121 0.69009
USER: genes 1 Rotation |==|  0.37483 0.33330 0.04939 0.55910
USER: genes 2 Torsion [C]-CA--CB-[CG] |==|  0.20033
USER: genes 3 Torsion [CA]-CB--CG-[OD1] |==|  0.94339
USER: genes 4 Torsion [N]-CA--C-[N] |==|  0.75907
USER: genes 5 Torsion [C]-N--CA-[CB] |==|  0.82599
USER: genes 6 Torsion [N]-CA--C-[N] |==|  0.28336
USER: genes 7 Torsion [C]-N--CA-[CB] |==|  0.28859
USER: genes 8 Torsion [N]-CA--CB-[CG] |==|  0.46399
USER: genes 9 Torsion [CA]-CB--CG-[SD] |==|  0.26178
USER: genes 10 Torsion [CB]-CG--SD-[CE] |==|  0.72276
USER: genes 11 Torsion [N]-CA--C-[O] |==|  0.79355
USER: genes 12 Torsion [N]-CA--CB-[CG] |==|  0.90091
USER: genes 13 Torsion [CA]-CB--CG-[OD1] |==|  0.37484
USER: genes 14 Torsion [CB]-CA--N-[C] |==|  0.11129
USER: genes 15 Torsion [N]-C--CA-[N] |==|  0.00640
USER: genes 16 Torsion [C]-CA--N-[C] |==|  0.19682
USER: genes 17 Torsion [N]-C--CA-[N] |==|  0.46332
USER: genes 18 Torsion [C]-CA--CB-[CG2] |==|  0.68735
USER: genes 19 Torsion [C]-CA--CB-[CG] |==|  0.22921
USER: genes 20 Torsion [CA]-CB--CG-[OD2] |==|  0.04469
ROOT
ATOM      1  CA  ASP E 180       3.485 -25.206  30.380  1.00 46.29 LIG 0.19  C 
ENDROOT
BRANCH 1 2
ATOM      2  CB  ASP E 180       4.017 -24.833  29.000  1.00 53.57 LIG 0.15  C 
BRANCH 2 3
ATOM      3  CG  ASP E 180       5.245 -25.627  28.618  1.00 52.91 LIG 0.17  C 
ATOM      4 OD1  ASP E 180       5.909 -26.169  29.529  1.00 53.16 LIG-0.65  OA
ATOM      5 OD2  ASP E 180       5.541 -25.715  27.409  1.00 39.91 LIG-0.65  OA
ENDBRANCH 2 3
ENDBRANCH 1 2
BRANCH 1 6
ATOM      6  C   ASP E 180       4.428 -24.668  31.465  1.00 46.16 LIG 0.24  C 
ATOM      7 O    ASP E 180       4.634 -25.317  32.494  1.00 47.92 LIG-0.27  OA
ATOM      8  N   ASP E 181       5.003 -23.490  31.247  1.00 48.75 LIG-0.34  N 
ATOM      9 H    ASP E 181       4.846 -22.988  30.566  1.00 48.75 LIG 0.16  HD
BRANCH 8 10
ATOM     10  CA  ASP E 181       5.977 -22.961  32.197  1.00 45.01 LIG 0.19  C 
BRANCH 10 11
ATOM     11  C   ASP E 181       7.200 -23.859  32.359  1.00 47.33 LIG 0.24  C 
ATOM     12 O    ASP E 181       7.164 -24.877  33.062  1.00 41.27 LIG-0.27  OA
ATOM     13  N   MET E 182       8.287 -23.451  31.709  1.00 63.00 LIG-0.35  N 
ATOM     14 H    MET E 182       8.327 -22.712  31.274  1.00 63.00 LIG 0.16  HD
BRANCH 13 15
ATOM     15  CA  MET E 182       9.519 -24.225  31.673  1.00 43.88 LIG 0.16  C 
BRANCH 15 16
ATOM     16  CB  MET E 182       9.666 -24.911  30.316  1.00 44.38 LIG 0.04  C 
BRANCH 16 17
ATOM     17  CG  MET E 182      11.048 -25.481  30.065  1.00 63.17 LIG 0.08  C 
BRANCH 17 18
ATOM     18 SD   MET E 182      11.170 -27.221  30.517  1.00101.17 LIG-0.17  SA
ATOM     19  CE  MET E 182      11.958 -27.094  32.121  1.00 68.91 LIG 0.09  C 
ENDBRANCH 17 18
ENDBRANCH 16 17
ENDBRANCH 15 16
BRANCH 15 20
ATOM     20  C   MET E 182      10.739 -23.347  31.956  1.00 60.82 LIG 0.22  C 
ATOM     21 O    MET E 182      11.172 -22.559  31.107  1.00 58.83 LIG-0.29  OA
ENDBRANCH 15 20
ENDBRANCH 13 15
ENDBRANCH 10 11
BRANCH 10 22
ATOM     22  CB  ASP E 181       5.311 -22.732  33.553  1.00 40.72 LIG 0.15  C 
BRANCH 22 23
ATOM     23  CG  ASP E 181       3.878 -22.262  33.417  1.00 40.82 LIG 0.17  C 
ATOM     24 OD1  ASP E 181       2.997 -22.783  34.138  1.00 47.44 LIG-0.65  OA
ATOM     25 OD2  ASP E 181       3.640 -21.359  32.591  1.00 24.37 LIG-0.65  OA
ENDBRANCH 22 23
ENDBRANCH 10 22
ENDBRANCH 8 10
ENDBRANCH 1 6
BRANCH 1 26
ATOM     26  N   ASP E 180       2.134 -24.681  30.602  1.00 48.48 LIG-0.34  N 
ATOM     27  C   ASP E 179       1.154 -24.653  29.696  1.00 52.76 LIG 0.24  C 
ATOM     28 O    ASP E 179       1.264 -25.047  28.534  1.00 54.54 LIG-0.27  OA
ATOM     29 H    ASP E 180       2.025 -24.380  31.400  1.00 48.48 LIG 0.16  HD
BRANCH 27 30
ATOM     30  CA  ASP E 179      -0.167 -24.081  30.206  1.00 62.98 LIG 0.19  C 
BRANCH 30 31
ATOM     31  N   ASP E 179      -0.151 -23.601  31.591  1.00 68.60 LIG-0.34  N 
ATOM     32  C   VAL E 178       0.495 -22.498  31.967  1.00 59.78 LIG 0.26  C 
ATOM     33 O    VAL E 178       1.305 -21.912  31.246  1.00 49.42 LIG-0.27  OA
ATOM     34 H    ASP E 179      -0.597 -24.096  32.135  1.00 68.60 LIG 0.16  HD
BRANCH 32 35
ATOM     35  CA  VAL E 178       0.201 -21.998  33.385  1.00 59.92 LIG 0.40  C 
ATOM     36  N   VAL E 178       1.163 -20.990  33.818  1.00 55.12 LIG 0.61  N 
BRANCH 35 37
ATOM     37  CB  VAL E 178      -1.250 -21.453  33.437  1.00 50.97 LIG 0.03  C 
ATOM     38  CG2 VAL E 178      -1.264 -19.947  33.652  1.00 47.22 LIG 0.01  C 
ATOM     39  CG1 VAL E 178      -2.030 -22.152  34.530  1.00 50.59 LIG 0.01  C 
ENDBRANCH 35 37
ENDBRANCH 32 35
ENDBRANCH 30 31
BRANCH 30 40
ATOM     40  CB  ASP E 179      -0.593 -22.946  29.277  1.00 47.75 LIG 0.15  C 
BRANCH 40 41
ATOM     41  CG  ASP E 179      -1.298 -23.446  28.041  1.00 48.80 LIG 0.17  C 
ATOM     42 OD2  ASP E 179      -1.733 -24.624  28.031  1.00 55.56 LIG-0.65  OA
ATOM     43 OD1  ASP E 179      -1.418 -22.658  27.082  1.00 40.87 LIG-0.65  OA
ENDBRANCH 40 41
ENDBRANCH 30 40
ENDBRANCH 27 30
ENDBRANCH 1 26
TORSDOF 19
ENDMDL
MODEL 108
USER: ADFR SOLUTION from run 2
USER: SCORE 11.053619 LL:  -2.834 LR: -11.173 RR:   0.000 FEB:  -5.506
USER: RMSD 6.503745
USER: SEED 856969
USER: STATUS no improvement in best in 13 clusters for 5 generations
USER: GENES 21
USER: genes 0 Translation |==|  0.58174 0.47603 0.56974
USER: genes 1 Rotation |==|  0.39522 0.86739 0.80936 0.59133
USER: genes 2 Torsion [C]-CA--CB-[CG] |==|  0.64401
USER: genes 3 Torsion [CA]-CB--CG-[OD1] |==|  0.83340
USER: genes 4 Torsion [N]-CA--C-[N] |==|  0.26937
USER: genes 5 Torsion [C]-N--CA-[CB] |==|  0.36649
USER: genes 6 Torsion [N]-CA--C-[N] |==|  0.25793
USER: genes 7 Torsion [C]-N--CA-[CB] |==|  0.38753
USER: genes 8 Torsion [N]-CA--CB-[CG] |==|  0.33487
USER: genes 9 Torsion [CA]-CB--CG-[SD] |==|  0.55707
USER: genes 10 Torsion [CB]-CG--SD-[CE] |==|  0.61208
USER: genes 11 Torsion [N]-CA--C-[O] |==|  0.10998
USER: genes 12 Torsion [N]-CA--CB-[CG] |==|  0.78450
USER: genes 13 Torsion [CA]-CB--CG-[OD1] |==|  0.40512
USER: genes 14 Torsion [CB]-CA--N-[C] |==|  0.53531
USER: genes 15 Torsion [N]-C--CA-[N] |==|  0.09840
USER: genes 16 Torsion [C]-CA--N-[C] |==|  0.76667
USER: genes 17 Torsion [N]-C--CA-[N] |==|  0.58996
USER: genes 18 Torsion [C]-CA--CB-[CG2] |==|  0.69507
USER: genes 19 Torsion [C]-CA--CB-[CG] |==|  0.42666
USER: genes 20 Torsion [CA]-CB--CG-[OD2] |==|  0.19447
ROOT
ATOM      1  CA  ASP E 180       4.320 -27.932  27.943  1.00 46.29 LIG 0.19  C 
ENDROOT
BRANCH 1 2
ATOM      2  CB  ASP E 180       5.770 -28.404  27.965  1.00 53.57 LIG 0.15  C 
BRANCH 2 3
ATOM      3  CG  ASP E 180       6.164 -29.128  26.699  1.00 52.91 LIG 0.17  C 
ATOM      4 OD1  ASP E 180       5.536 -30.164  26.388  1.00 53.16 LIG-0.65  OA
ATOM      5 OD2  ASP E 180       7.094 -28.659  26.012  1.00 39.91 LIG-0.65  OA
ENDBRANCH 2 3
ENDBRANCH 1 2
BRANCH 1 6
ATOM      6  C   ASP E 180       4.252 -26.438  28.289  1.00 46.16 LIG 0.24  C 
ATOM      7 O    ASP E 180       5.094 -25.654  27.846  1.00 47.92 LIG-0.27  OA
ATOM      8  N   ASP E 181       3.259 -26.037  29.076  1.00 48.75 LIG-0.34  N 
ATOM      9 H    ASP E 181       2.683 -26.560  29.442  1.00 48.75 LIG 0.16  HD
BRANCH 8 10
ATOM     10  CA  ASP E 181       3.085 -24.618  29.373  1.00 45.01 LIG 0.19  C 
BRANCH 10 11
ATOM     11  C   ASP E 181       3.538 -24.246  30.782  1.00 47.33 LIG 0.24  C 
ATOM     12 O    ASP E 181       2.767 -24.318  31.748  1.00 41.27 LIG-0.27  OA
ATOM     13  N   MET E 182       4.797 -23.828  30.876  1.00 63.00 LIG-0.35  N 
ATOM     14 H    MET E 182       5.311 -23.718  30.195  1.00 63.00 LIG 0.16  HD
BRANCH 13 15
ATOM     15  CA  MET E 182       5.431 -23.516  32.148  1.00 43.88 LIG 0.16  C 
BRANCH 15 16
ATOM     16  CB  MET E 182       6.870 -24.031  32.156  1.00 44.38 LIG 0.04  C 
BRANCH 16 17
ATOM     17  CG  MET E 182       7.907 -22.947  32.371  1.00 63.17 LIG 0.08  C 
BRANCH 17 18
ATOM     18 SD   MET E 182       9.545 -23.435  31.803  1.00101.17 LIG-0.17  SA
ATOM     19  CE  MET E 182      10.567 -22.760  33.112  1.00 68.91 LIG 0.09  C 
ENDBRANCH 17 18
ENDBRANCH 16 17
ENDBRANCH 15 16
BRANCH 15 20
ATOM     20  C   MET E 182       5.407 -22.013  32.431  1.00 60.82 LIG 0.22  C 
ATOM     21 O    MET E 182       4.418 -21.325  32.156  1.00 58.83 LIG-0.29  OA
ENDBRANCH 15 20
ENDBRANCH 13 15
ENDBRANCH 10 11
BRANCH 10 22
ATOM     22  CB  ASP E 181       1.625 -24.218  29.169  1.00 40.72 LIG 0.15  C 
BRANCH 22 23
ATOM     23  CG  ASP E 181       1.276 -24.043  27.706  1.00 40.82 LIG 0.17  C 
ATOM     24 OD1  ASP E 181       0.128 -24.352  27.314  1.00 47.44 LIG-0.65  OA
ATOM     25 OD2  ASP E 181       2.156 -23.583  26.952  1.00 24.37 LIG-0.65  OA
ENDBRANCH 22 23
ENDBRANCH 10 22
ENDBRANCH 8 10
ENDBRANCH 1 6
BRANCH 1 26
ATOM     26  N   ASP E 180       3.694 -28.160  26.637  1.00 48.48 LIG-0.34  N 
ATOM     27  C   ASP E 179       2.530 -27.646  26.233  1.00 52.76 LIG 0.24  C 
ATOM     28 O    ASP E 179       1.808 -26.923  26.921  1.00 54.54 LIG-0.27  OA
ATOM     29 H    ASP E 180       4.163 -28.676  26.133  1.00 48.48 LIG 0.16  HD
BRANCH 27 30
ATOM     30  CA  ASP E 179       2.130 -28.021  24.807  1.00 62.98 LIG 0.19  C 
BRANCH 30 31
ATOM     31  N   ASP E 179       2.504 -29.373  24.384  1.00 68.60 LIG-0.34  N 
ATOM     32  C   VAL E 178       3.711 -29.674  23.905  1.00 59.78 LIG 0.26  C 
ATOM     33 O    VAL E 178       4.536 -28.822  23.572  1.00 49.42 LIG-0.27  OA
ATOM     34 H    ASP E 179       1.875 -29.952  24.474  1.00 68.60 LIG 0.16  HD
BRANCH 32 35
ATOM     35  CA  VAL E 178       4.020 -31.167  23.754  1.00 59.92 LIG 0.40  C 
ATOM     36  N   VAL E 178       5.433 -31.455  23.973  1.00 55.12 LIG 0.61  N 
BRANCH 35 37
ATOM     37  CB  VAL E 178       3.122 -31.970  24.731  1.00 50.97 LIG 0.03  C 
ATOM     38  CG2 VAL E 178       3.941 -32.565  25.868  1.00 47.22 LIG 0.01  C 
ATOM     39  CG1 VAL E 178       2.383 -33.059  23.984  1.00 50.59 LIG 0.01  C 
ENDBRANCH 35 37
ENDBRANCH 32 35
ENDBRANCH 30 31
BRANCH 30 40
ATOM     40  CB  ASP E 179       0.619 -27.842  24.667  1.00 47.75 LIG 0.15  C 
BRANCH 40 41
ATOM     41  CG  ASP E 179       0.202 -27.559  23.246  1.00 48.80 LIG 0.17  C 
ATOM     42 OD2  ASP E 179       0.291 -28.480  22.397  1.00 55.56 LIG-0.65  OA
ATOM     43 OD1  ASP E 179      -0.217 -26.415  22.981  1.00 40.87 LIG-0.65  OA
ENDBRANCH 40 41
ENDBRANCH 30 40
ENDBRANCH 27 30
ENDBRANCH 1 26
TORSDOF 19
ENDMDL
MODEL 109
USER: ADFR SOLUTION from run 193
USER: SCORE 12.478881 LL:  -2.334 LR: -11.155 RR:   0.000 FEB:  -5.487
USER: RMSD 9.365386
USER: SEED 192
USER: STATUS no improvement in best in 6 clusters for 5 generations
USER: GENES 21
USER: genes 0 Translation |==|  0.60579 0.48886 0.49463
USER: genes 1 Rotation |==|  0.63246 0.90097 0.29072 0.66698
USER: genes 2 Torsion [C]-CA--CB-[CG] |==|  0.32701
USER: genes 3 Torsion [CA]-CB--CG-[OD1] |==|  0.52090
USER: genes 4 Torsion [N]-CA--C-[N] |==|  0.39589
USER: genes 5 Torsion [C]-N--CA-[CB] |==|  0.85138
USER: genes 6 Torsion [N]-CA--C-[N] |==|  0.28902
USER: genes 7 Torsion [C]-N--CA-[CB] |==|  0.82945
USER: genes 8 Torsion [N]-CA--CB-[CG] |==|  0.80959
USER: genes 9 Torsion [CA]-CB--CG-[SD] |==|  0.48530
USER: genes 10 Torsion [CB]-CG--SD-[CE] |==|  0.98675
USER: genes 11 Torsion [N]-CA--C-[O] |==|  0.20113
USER: genes 12 Torsion [N]-CA--CB-[CG] |==|  0.81914
USER: genes 13 Torsion [CA]-CB--CG-[OD1] |==|  0.26656
USER: genes 14 Torsion [CB]-CA--N-[C] |==|  0.56009
USER: genes 15 Torsion [N]-C--CA-[N] |==|  0.94217
USER: genes 16 Torsion [C]-CA--N-[C] |==|  0.82820
USER: genes 17 Torsion [N]-C--CA-[N] |==|  0.42649
USER: genes 18 Torsion [C]-CA--CB-[CG2] |==|  0.58556
USER: genes 19 Torsion [C]-CA--CB-[CG] |==|  0.52851
USER: genes 20 Torsion [CA]-CB--CG-[OD2] |==|  0.17521
ROOT
ATOM      1  CA  ASP E 180       4.843 -27.720  26.422  1.00 46.29 LIG 0.19  C 
ENDROOT
BRANCH 1 2
ATOM      2  CB  ASP E 180       4.882 -27.927  27.933  1.00 53.57 LIG 0.15  C 
BRANCH 2 3
ATOM      3  CG  ASP E 180       5.340 -26.695  28.676  1.00 52.91 LIG 0.17  C 
ATOM      4 OD1  ASP E 180       5.550 -26.786  29.906  1.00 53.16 LIG-0.65  OA
ATOM      5 OD2  ASP E 180       5.498 -25.637  28.031  1.00 39.91 LIG-0.65  OA
ENDBRANCH 2 3
ENDBRANCH 1 2
BRANCH 1 6
ATOM      6  C   ASP E 180       5.827 -28.679  25.738  1.00 46.16 LIG 0.24  C 
ATOM      7 O    ASP E 180       5.485 -29.828  25.451  1.00 47.92 LIG-0.27  OA
ATOM      8  N   ASP E 181       7.046 -28.218  25.475  1.00 48.75 LIG-0.34  N 
ATOM      9 H    ASP E 181       7.335 -27.442  25.703  1.00 48.75 LIG 0.16  HD
BRANCH 8 10
ATOM     10  CA  ASP E 181       8.003 -29.048  24.748  1.00 45.01 LIG 0.19  C 
BRANCH 10 11
ATOM     11  C   ASP E 181       7.629 -29.242  23.282  1.00 47.33 LIG 0.24  C 
ATOM     12 O    ASP E 181       6.737 -30.029  22.941  1.00 41.27 LIG-0.27  OA
ATOM     13  N   MET E 182       8.344 -28.523  22.420  1.00 63.00 LIG-0.35  N 
ATOM     14 H    MET E 182       9.005 -28.026  22.653  1.00 63.00 LIG 0.16  HD
BRANCH 13 15
ATOM     15  CA  MET E 182       8.071 -28.510  20.990  1.00 43.88 LIG 0.16  C 
BRANCH 15 16
ATOM     16  CB  MET E 182       8.239 -29.915  20.413  1.00 44.38 LIG 0.04  C 
BRANCH 16 17
ATOM     17  CG  MET E 182       9.672 -30.407  20.408  1.00 63.17 LIG 0.08  C 
BRANCH 17 18
ATOM     18 SD   MET E 182       9.813 -32.119  19.864  1.00101.17 LIG-0.17  SA
ATOM     19  CE  MET E 182       8.084 -32.557  19.688  1.00 68.91 LIG 0.09  C 
ENDBRANCH 17 18
ENDBRANCH 16 17
ENDBRANCH 15 16
BRANCH 15 20
ATOM     20  C   MET E 182       6.667 -27.981  20.693  1.00 60.82 LIG 0.22  C 
ATOM     21 O    MET E 182       6.394 -26.783  20.820  1.00 58.83 LIG-0.29  OA
ENDBRANCH 15 20
ENDBRANCH 13 15
ENDBRANCH 10 11
BRANCH 10 22
ATOM     22  CB  ASP E 181       8.145 -30.404  25.437  1.00 40.72 LIG 0.15  C 
BRANCH 22 23
ATOM     23  CG  ASP E 181       8.751 -30.285  26.820  1.00 40.82 LIG 0.17  C 
ATOM     24 OD1  ASP E 181       7.991 -30.238  27.814  1.00 47.44 LIG-0.65  OA
ATOM     25 OD2  ASP E 181       9.994 -30.250  26.907  1.00 24.37 LIG-0.65  OA
ENDBRANCH 22 23
ENDBRANCH 10 22
ENDBRANCH 8 10
ENDBRANCH 1 6
BRANCH 1 26
ATOM     26  N   ASP E 180       3.497 -27.931  25.880  1.00 48.48 LIG-0.34  N 
ATOM     27  C   ASP E 179       3.209 -28.224  24.609  1.00 52.76 LIG 0.24  C 
ATOM     28 O    ASP E 179       4.044 -28.333  23.710  1.00 54.54 LIG-0.27  OA
ATOM     29 H    ASP E 180       2.885 -27.845  26.477  1.00 48.48 LIG 0.16  HD
BRANCH 27 30
ATOM     30  CA  ASP E 179       1.723 -28.426  24.324  1.00 62.98 LIG 0.19  C 
BRANCH 30 31
ATOM     31  N   ASP E 179       0.896 -28.743  25.493  1.00 68.60 LIG-0.34  N 
ATOM     32  C   VAL E 178       1.074 -29.839  26.229  1.00 59.78 LIG 0.26  C 
ATOM     33 O    VAL E 178       1.790 -30.779  25.878  1.00 49.42 LIG-0.27  OA
ATOM     34 H    ASP E 179       0.288 -28.158  25.657  1.00 68.60 LIG 0.16  HD
BRANCH 32 35
ATOM     35  CA  VAL E 178       0.304 -29.890  27.553  1.00 59.92 LIG 0.40  C 
ATOM     36  N   VAL E 178       0.043 -31.262  27.978  1.00 55.12 LIG 0.61  N 
BRANCH 35 37
ATOM     37  CB  VAL E 178       1.098 -29.106  28.630  1.00 50.97 LIG 0.03  C 
ATOM     38  CG2 VAL E 178       0.870 -29.692  30.016  1.00 47.22 LIG 0.01  C 
ATOM     39  CG1 VAL E 178       0.709 -27.644  28.602  1.00 50.59 LIG 0.01  C 
ENDBRANCH 35 37
ENDBRANCH 32 35
ENDBRANCH 30 31
BRANCH 30 40
ATOM     40  CB  ASP E 179       1.186 -27.166  23.646  1.00 47.75 LIG 0.15  C 
BRANCH 40 41
ATOM     41  CG  ASP E 179      -0.319 -27.163  23.546  1.00 48.80 LIG 0.17  C 
ATOM     42 OD2  ASP E 179      -0.993 -27.161  24.604  1.00 55.56 LIG-0.65  OA
ATOM     43 OD1  ASP E 179      -0.825 -27.161  22.406  1.00 40.87 LIG-0.65  OA
ENDBRANCH 40 41
ENDBRANCH 30 40
ENDBRANCH 27 30
ENDBRANCH 1 26
TORSDOF 19
ENDMDL
MODEL 110
USER: ADFR SOLUTION from run 174
USER: SCORE 11.778543 LL:  -2.029 LR: -11.147 RR:   0.000 FEB:  -5.479
USER: RMSD 10.000308
USER: SEED 173
USER: STATUS no improvement in best in 12 clusters for 5 generations
USER: GENES 21
USER: genes 0 Translation |==|  0.52505 0.60867 0.56813
USER: genes 1 Rotation |==|  0.66292 0.85796 0.19129 0.50430
USER: genes 2 Torsion [C]-CA--CB-[CG] |==|  0.24885
USER: genes 3 Torsion [CA]-CB--CG-[OD1] |==|  0.52890
USER: genes 4 Torsion [N]-CA--C-[N] |==|  0.13794
USER: genes 5 Torsion [C]-N--CA-[CB] |==|  0.51111
USER: genes 6 Torsion [N]-CA--C-[N] |==|  0.91698
USER: genes 7 Torsion [C]-N--CA-[CB] |==|  0.84959
USER: genes 8 Torsion [N]-CA--CB-[CG] |==|  0.76727
USER: genes 9 Torsion [CA]-CB--CG-[SD] |==|  0.40340
USER: genes 10 Torsion [CB]-CG--SD-[CE] |==|  0.94057
USER: genes 11 Torsion [N]-CA--C-[O] |==|  0.19104
USER: genes 12 Torsion [N]-CA--CB-[CG] |==|  0.89710
USER: genes 13 Torsion [CA]-CB--CG-[OD1] |==|  0.91237
USER: genes 14 Torsion [CB]-CA--N-[C] |==|  0.14073
USER: genes 15 Torsion [N]-C--CA-[N] |==|  0.34108
USER: genes 16 Torsion [C]-CA--N-[C] |==|  0.83434
USER: genes 17 Torsion [N]-C--CA-[N] |==|  0.89135
USER: genes 18 Torsion [C]-CA--CB-[CG2] |==|  0.83083
USER: genes 19 Torsion [C]-CA--CB-[CG] |==|  0.41793
USER: genes 20 Torsion [CA]-CB--CG-[OD2] |==|  0.97365
ROOT
ATOM      1  CA  ASP E 180       3.087 -25.743  27.911  1.00 46.29 LIG 0.19  C 
ENDROOT
BRANCH 1 2
ATOM      2  CB  ASP E 180       3.815 -25.905  29.241  1.00 53.57 LIG 0.15  C 
BRANCH 2 3
ATOM      3  CG  ASP E 180       5.310 -25.730  29.109  1.00 52.91 LIG 0.17  C 
ATOM      4 OD1  ASP E 180       6.032 -26.033  30.084  1.00 53.16 LIG-0.65  OA
ATOM      5 OD2  ASP E 180       5.764 -25.298  28.029  1.00 39.91 LIG-0.65  OA
ENDBRANCH 2 3
ENDBRANCH 1 2
BRANCH 1 6
ATOM      6  C   ASP E 180       2.990 -27.100  27.201  1.00 46.16 LIG 0.24  C 
ATOM      7 O    ASP E 180       3.577 -28.086  27.651  1.00 47.92 LIG-0.27  OA
ATOM      8  N   ASP E 181       2.253 -27.161  26.096  1.00 48.75 LIG-0.34  N 
ATOM      9 H    ASP E 181       1.870 -26.486  25.726  1.00 48.75 LIG 0.16  HD
BRANCH 8 10
ATOM     10  CA  ASP E 181       2.047 -28.438  25.420  1.00 45.01 LIG 0.19  C 
BRANCH 10 11
ATOM     11  C   ASP E 181       3.352 -29.168  25.117  1.00 47.33 LIG 0.24  C 
ATOM     12 O    ASP E 181       3.409 -30.404  25.088  1.00 41.27 LIG-0.27  OA
ATOM     13  N   MET E 182       4.403 -28.379  24.910  1.00 63.00 LIG-0.35  N 
ATOM     14 H    MET E 182       4.375 -27.524  24.993  1.00 63.00 LIG 0.16  HD
BRANCH 13 15
ATOM     15  CA  MET E 182       5.708 -28.891  24.520  1.00 43.88 LIG 0.16  C 
BRANCH 15 16
ATOM     16  CB  MET E 182       6.168 -29.960  25.512  1.00 44.38 LIG 0.04  C 
BRANCH 16 17
ATOM     17  CG  MET E 182       6.835 -29.397  26.751  1.00 63.17 LIG 0.08  C 
BRANCH 17 18
ATOM     18 SD   MET E 182       6.481 -30.367  28.227  1.00101.17 LIG-0.17  SA
ATOM     19  CE  MET E 182       4.982 -31.210  27.721  1.00 68.91 LIG 0.09  C 
ENDBRANCH 17 18
ENDBRANCH 16 17
ENDBRANCH 15 16
BRANCH 15 20
ATOM     20  C   MET E 182       5.684 -29.464  23.102  1.00 60.82 LIG 0.22  C 
ATOM     21 O    MET E 182       5.542 -28.730  22.118  1.00 58.83 LIG-0.29  OA
ENDBRANCH 15 20
ENDBRANCH 13 15
ENDBRANCH 10 11
BRANCH 10 22
ATOM     22  CB  ASP E 181       1.254 -28.225  24.132  1.00 40.72 LIG 0.15  C 
BRANCH 22 23
ATOM     23  CG  ASP E 181       0.192 -27.155  24.282  1.00 40.82 LIG 0.17  C 
ATOM     24 OD1  ASP E 181      -0.355 -26.995  25.396  1.00 47.44 LIG-0.65  OA
ATOM     25 OD2  ASP E 181      -0.083 -26.467  23.279  1.00 24.37 LIG-0.65  OA
ENDBRANCH 22 23
ENDBRANCH 10 22
ENDBRANCH 8 10
ENDBRANCH 1 6
BRANCH 1 26
ATOM     26  N   ASP E 180       1.742 -25.188  28.092  1.00 48.48 LIG-0.34  N 
ATOM     27  C   ASP E 179       1.442 -24.092  28.793  1.00 52.76 LIG 0.24  C 
ATOM     28 O    ASP E 179       2.261 -23.409  29.407  1.00 54.54 LIG-0.27  OA
ATOM     29 H    ASP E 180       1.138 -25.650  27.690  1.00 48.48 LIG 0.16  HD
BRANCH 27 30
ATOM     30  CA  ASP E 179      -0.039 -23.719  28.787  1.00 62.98 LIG 0.19  C 
BRANCH 30 31
ATOM     31  N   ASP E 179      -0.668 -23.623  30.108  1.00 68.60 LIG-0.34  N 
ATOM     32  C   VAL E 178      -0.722 -24.646  30.960  1.00 59.78 LIG 0.26  C 
ATOM     33 O    VAL E 178      -0.451 -25.805  30.641  1.00 49.42 LIG-0.27  OA
ATOM     34 H    ASP E 179      -0.997 -22.848  30.280  1.00 68.60 LIG 0.16  HD
BRANCH 32 35
ATOM     35  CA  VAL E 178      -1.178 -24.310  32.384  1.00 59.92 LIG 0.40  C 
ATOM     36  N   VAL E 178      -0.634 -23.036  32.843  1.00 55.12 LIG 0.61  N 
BRANCH 35 37
ATOM     37  CB  VAL E 178      -2.728 -24.312  32.431  1.00 50.97 LIG 0.03  C 
ATOM     38  CG2 VAL E 178      -3.309 -23.267  31.489  1.00 47.22 LIG 0.01  C 
ATOM     39  CG1 VAL E 178      -3.206 -24.072  33.847  1.00 50.59 LIG 0.01  C 
ENDBRANCH 35 37
ENDBRANCH 32 35
ENDBRANCH 30 31
BRANCH 30 40
ATOM     40  CB  ASP E 179      -0.201 -22.392  28.047  1.00 47.75 LIG 0.15  C 
BRANCH 40 41
ATOM     41  CG  ASP E 179      -1.542 -22.271  27.368  1.00 48.80 LIG 0.17  C 
ATOM     42 OD2  ASP E 179      -2.283 -23.282  27.314  1.00 55.56 LIG-0.65  OA
ATOM     43 OD1  ASP E 179      -1.852 -21.161  26.891  1.00 40.87 LIG-0.65  OA
ENDBRANCH 40 41
ENDBRANCH 30 40
ENDBRANCH 27 30
ENDBRANCH 1 26
TORSDOF 19
ENDMDL
MODEL 111
USER: ADFR SOLUTION from run 96
USER: SCORE 11.992724 LL:  -2.026 LR: -11.148 RR:   0.000 FEB:  -5.480
USER: RMSD 9.036970
USER: SEED 95
USER: STATUS no improvement in best in 19 clusters for 5 generations
USER: GENES 21
USER: genes 0 Translation |==|  0.50885 0.64422 0.59393
USER: genes 1 Rotation |==|  0.31913 0.18420 0.78955 0.68363
USER: genes 2 Torsion [C]-CA--CB-[CG] |==|  0.37070
USER: genes 3 Torsion [CA]-CB--CG-[OD1] |==|  0.42619
USER: genes 4 Torsion [N]-CA--C-[N] |==|  0.70631
USER: genes 5 Torsion [C]-N--CA-[CB] |==|  0.85286
USER: genes 6 Torsion [N]-CA--C-[N] |==|  0.88761
USER: genes 7 Torsion [C]-N--CA-[CB] |==|  0.88246
USER: genes 8 Torsion [N]-CA--CB-[CG] |==|  0.79069
USER: genes 9 Torsion [CA]-CB--CG-[SD] |==|  0.01998
USER: genes 10 Torsion [CB]-CG--SD-[CE] |==|  0.36976
USER: genes 11 Torsion [N]-CA--C-[O] |==|  0.18059
USER: genes 12 Torsion [N]-CA--CB-[CG] |==|  0.40941
USER: genes 13 Torsion [CA]-CB--CG-[OD1] |==|  0.74420
USER: genes 14 Torsion [CB]-CA--N-[C] |==|  0.76665
USER: genes 15 Torsion [N]-C--CA-[N] |==|  0.88699
USER: genes 16 Torsion [C]-CA--N-[C] |==|  0.79568
USER: genes 17 Torsion [N]-C--CA-[N] |==|  0.40520
USER: genes 18 Torsion [C]-CA--CB-[CG2] |==|  0.94865
USER: genes 19 Torsion [C]-CA--CB-[CG] |==|  0.97396
USER: genes 20 Torsion [CA]-CB--CG-[OD2] |==|  0.75151
ROOT
ATOM      1  CA  ASP E 180       2.735 -25.156  28.433  1.00 46.29 LIG 0.19  C 
ENDROOT
BRANCH 1 2
ATOM      2  CB  ASP E 180       3.673 -26.058  29.229  1.00 53.57 LIG 0.15  C 
BRANCH 2 3
ATOM      3  CG  ASP E 180       5.129 -25.770  28.949  1.00 52.91 LIG 0.17  C 
ATOM      4 OD1  ASP E 180       5.969 -26.036  29.837  1.00 53.16 LIG-0.65  OA
ATOM      5 OD2  ASP E 180       5.436 -25.286  27.840  1.00 39.91 LIG-0.65  OA
ENDBRANCH 2 3
ENDBRANCH 1 2
BRANCH 1 6
ATOM      6  C   ASP E 180       1.620 -25.997  27.796  1.00 46.16 LIG 0.24  C 
ATOM      7 O    ASP E 180       0.947 -25.545  26.868  1.00 47.92 LIG-0.27  OA
ATOM      8  N   ASP E 181       1.418 -27.216  28.286  1.00 48.75 LIG-0.34  N 
ATOM      9 H    ASP E 181       1.833 -27.547  28.962  1.00 48.75 LIG 0.16  HD
BRANCH 8 10
ATOM     10  CA  ASP E 181       0.433 -28.101  27.670  1.00 45.01 LIG 0.19  C 
BRANCH 10 11
ATOM     11  C   ASP E 181       0.863 -28.606  26.296  1.00 47.33 LIG 0.24  C 
ATOM     12 O    ASP E 181       0.678 -29.781  25.953  1.00 41.27 LIG-0.27  OA
ATOM     13  N   MET E 182       1.458 -27.700  25.525  1.00 63.00 LIG-0.35  N 
ATOM     14 H    MET E 182       1.643 -26.903  25.789  1.00 63.00 LIG 0.16  HD
BRANCH 13 15
ATOM     15  CA  MET E 182       1.855 -27.973  24.152  1.00 43.88 LIG 0.16  C 
BRANCH 15 16
ATOM     16  CB  MET E 182       2.483 -29.363  24.056  1.00 44.38 LIG 0.04  C 
BRANCH 16 17
ATOM     17  CG  MET E 182       3.893 -29.436  24.606  1.00 63.17 LIG 0.08  C 
BRANCH 17 18
ATOM     18 SD   MET E 182       4.397 -27.911  25.422  1.00101.17 LIG-0.17  SA
ATOM     19  CE  MET E 182       5.105 -28.560  26.934  1.00 68.91 LIG 0.09  C 
ENDBRANCH 17 18
ENDBRANCH 16 17
ENDBRANCH 15 16
BRANCH 15 20
ATOM     20  C   MET E 182       0.667 -27.864  23.194  1.00 60.82 LIG 0.22  C 
ATOM     21 O    MET E 182       0.094 -26.786  23.005  1.00 58.83 LIG-0.29  OA
ENDBRANCH 15 20
ENDBRANCH 13 15
ENDBRANCH 10 11
BRANCH 10 22
ATOM     22  CB  ASP E 181      -0.915 -27.390  27.569  1.00 40.72 LIG 0.15  C 
BRANCH 22 23
ATOM     23  CG  ASP E 181      -1.701 -27.820  26.348  1.00 40.82 LIG 0.17  C 
ATOM     24 OD1  ASP E 181      -1.580 -27.167  25.287  1.00 47.44 LIG-0.65  OA
ATOM     25 OD2  ASP E 181      -2.434 -28.823  26.454  1.00 24.37 LIG-0.65  OA
ENDBRANCH 22 23
ENDBRANCH 10 22
ENDBRANCH 8 10
ENDBRANCH 1 6
BRANCH 1 26
ATOM     26  N   ASP E 180       2.141 -24.113  29.274  1.00 48.48 LIG-0.34  N 
ATOM     27  C   ASP E 179       1.057 -24.256  30.040  1.00 52.76 LIG 0.24  C 
ATOM     28 O    ASP E 179       0.391 -25.288  30.124  1.00 54.54 LIG-0.27  OA
ATOM     29 H    ASP E 180       2.570 -23.369  29.229  1.00 48.48 LIG 0.16  HD
BRANCH 27 30
ATOM     30  CA  ASP E 179       0.676 -23.013  30.842  1.00 62.98 LIG 0.19  C 
BRANCH 30 31
ATOM     31  N   ASP E 179       1.798 -22.277  31.432  1.00 68.60 LIG-0.34  N 
ATOM     32  C   VAL E 178       2.478 -22.720  32.489  1.00 59.78 LIG 0.26  C 
ATOM     33 O    VAL E 178       2.098 -23.660  33.191  1.00 49.42 LIG-0.27  OA
ATOM     34 H    ASP E 179       1.975 -21.536  31.034  1.00 68.60 LIG 0.16  HD
BRANCH 32 35
ATOM     35  CA  VAL E 178       3.771 -21.968  32.818  1.00 59.92 LIG 0.40  C 
ATOM     36  N   VAL E 178       4.017 -21.910  34.256  1.00 55.12 LIG 0.61  N 
BRANCH 35 37
ATOM     37  CB  VAL E 178       4.951 -22.641  32.070  1.00 50.97 LIG 0.03  C 
ATOM     38  CG2 VAL E 178       4.589 -24.051  31.628  1.00 47.22 LIG 0.01  C 
ATOM     39  CG1 VAL E 178       6.182 -22.661  32.951  1.00 50.59 LIG 0.01  C 
ENDBRANCH 35 37
ENDBRANCH 32 35
ENDBRANCH 30 31
BRANCH 30 40
ATOM     40  CB  ASP E 179      -0.126 -22.080  29.935  1.00 47.75 LIG 0.15  C 
BRANCH 40 41
ATOM     41  CG  ASP E 179      -0.113 -22.527  28.495  1.00 48.80 LIG 0.17  C 
ATOM     42 OD2  ASP E 179       0.801 -22.112  27.743  1.00 55.56 LIG-0.65  OA
ATOM     43 OD1  ASP E 179      -1.020 -23.297  28.119  1.00 40.87 LIG-0.65  OA
ENDBRANCH 40 41
ENDBRANCH 30 40
ENDBRANCH 27 30
ENDBRANCH 1 26
TORSDOF 19
ENDMDL
MODEL 112
USER: ADFR SOLUTION from run 117
USER: SCORE 10.763814 LL:  -1.814 LR: -11.153 RR:   0.000 FEB:  -5.486
USER: RMSD 8.239645
USER: SEED 116
USER: STATUS no improvement in best in 16 clusters for 5 generations
USER: GENES 21
USER: genes 0 Translation |==|  0.65074 0.65201 0.71989
USER: genes 1 Rotation |==|  0.02659 0.64572 0.52922 0.56157
USER: genes 2 Torsion [C]-CA--CB-[CG] |==|  0.19974
USER: genes 3 Torsion [CA]-CB--CG-[OD1] |==|  0.68373
USER: genes 4 Torsion [N]-CA--C-[N] |==|  0.49697
USER: genes 5 Torsion [C]-N--CA-[CB] |==|  0.25928
USER: genes 6 Torsion [N]-CA--C-[N] |==|  0.90766
USER: genes 7 Torsion [C]-N--CA-[CB] |==|  0.79521
USER: genes 8 Torsion [N]-CA--CB-[CG] |==|  0.28278
USER: genes 9 Torsion [CA]-CB--CG-[SD] |==|  0.45268
USER: genes 10 Torsion [CB]-CG--SD-[CE] |==|  0.79194
USER: genes 11 Torsion [N]-CA--C-[O] |==|  0.24990
USER: genes 12 Torsion [N]-CA--CB-[CG] |==|  0.78132
USER: genes 13 Torsion [CA]-CB--CG-[OD1] |==|  0.44840
USER: genes 14 Torsion [CB]-CA--N-[C] |==|  0.22146
USER: genes 15 Torsion [N]-C--CA-[N] |==|  0.33356
USER: genes 16 Torsion [C]-CA--N-[C] |==|  0.72269
USER: genes 17 Torsion [N]-C--CA-[N] |==|  0.35356
USER: genes 18 Torsion [C]-CA--CB-[CG2] |==|  0.51221
USER: genes 19 Torsion [C]-CA--CB-[CG] |==|  0.39598
USER: genes 20 Torsion [CA]-CB--CG-[OD2] |==|  0.58176
ROOT
ATOM      1  CA  ASP E 180       5.821 -25.028  30.984  1.00 46.29 LIG 0.19  C 
ENDROOT
BRANCH 1 2
ATOM      2  CB  ASP E 180       5.318 -23.845  31.806  1.00 53.57 LIG 0.15  C 
BRANCH 2 3
ATOM      3  CG  ASP E 180       3.854 -23.963  32.156  1.00 52.91 LIG 0.17  C 
ATOM      4 OD1  ASP E 180       3.056 -23.134  31.663  1.00 53.16 LIG-0.65  OA
ATOM      5 OD2  ASP E 180       3.497 -24.886  32.916  1.00 39.91 LIG-0.65  OA
ENDBRANCH 2 3
ENDBRANCH 1 2
BRANCH 1 6
ATOM      6  C   ASP E 180       5.254 -24.951  29.559  1.00 46.16 LIG 0.24  C 
ATOM      7 O    ASP E 180       6.010 -24.911  28.586  1.00 47.92 LIG-0.27  OA
ATOM      8  N   ASP E 181       3.932 -24.931  29.428  1.00 48.75 LIG-0.34  N 
ATOM      9 H    ASP E 181       3.375 -24.908  30.083  1.00 48.75 LIG 0.16  HD
BRANCH 8 10
ATOM     10  CA  ASP E 181       3.325 -24.946  28.100  1.00 45.01 LIG 0.19  C 
BRANCH 10 11
ATOM     11  C   ASP E 181       2.068 -24.086  28.010  1.00 47.33 LIG 0.24  C 
ATOM     12 O    ASP E 181       1.778 -23.474  26.974  1.00 41.27 LIG-0.27  OA
ATOM     13  N   MET E 182       1.340 -24.037  29.121  1.00 63.00 LIG-0.35  N 
ATOM     14 H    MET E 182       1.576 -24.410  29.858  1.00 63.00 LIG 0.16  HD
BRANCH 13 15
ATOM     15  CA  MET E 182       0.063 -23.341  29.196  1.00 43.88 LIG 0.16  C 
BRANCH 15 16
ATOM     16  CB  MET E 182       0.292 -21.830  29.213  1.00 44.38 LIG 0.04  C 
BRANCH 16 17
ATOM     17  CG  MET E 182       0.037 -21.158  27.879  1.00 63.17 LIG 0.08  C 
BRANCH 17 18
ATOM     18 SD   MET E 182      -0.167 -19.375  28.031  1.00101.17 LIG-0.17  SA
ATOM     19  CE  MET E 182      -1.817 -19.286  28.726  1.00 68.91 LIG 0.09  C 
ENDBRANCH 17 18
ENDBRANCH 16 17
ENDBRANCH 15 16
BRANCH 15 20
ATOM     20  C   MET E 182      -0.852 -23.724  28.032  1.00 60.82 LIG 0.22  C 
ATOM     21 O    MET E 182      -1.633 -24.677  28.118  1.00 58.83 LIG-0.29  OA
ENDBRANCH 15 20
ENDBRANCH 13 15
ENDBRANCH 10 11
BRANCH 10 22
ATOM     22  CB  ASP E 181       3.008 -26.383  27.688  1.00 40.72 LIG 0.15  C 
BRANCH 22 23
ATOM     23  CG  ASP E 181       4.236 -27.126  27.204  1.00 40.82 LIG 0.17  C 
ATOM     24 OD1  ASP E 181       4.214 -28.377  27.169  1.00 47.44 LIG-0.65  OA
ATOM     25 OD2  ASP E 181       5.220 -26.448  26.848  1.00 24.37 LIG-0.65  OA
ENDBRANCH 22 23
ENDBRANCH 10 22
ENDBRANCH 8 10
ENDBRANCH 1 6
BRANCH 1 26
ATOM     26  N   ASP E 180       7.285 -25.066  30.926  1.00 48.48 LIG-0.34  N 
ATOM     27  C   ASP E 179       8.088 -25.532  31.886  1.00 52.76 LIG 0.24  C 
ATOM     28 O    ASP E 179       7.701 -25.972  32.969  1.00 54.54 LIG-0.27  OA
ATOM     29 H    ASP E 180       7.594 -24.750  30.189  1.00 48.48 LIG 0.16  HD
BRANCH 27 30
ATOM     30  CA  ASP E 179       9.577 -25.485  31.548  1.00 62.98 LIG 0.19  C 
BRANCH 30 31
ATOM     31  N   ASP E 179      10.402 -24.679  32.453  1.00 68.60 LIG-0.34  N 
ATOM     32  C   VAL E 178      10.792 -23.438  32.164  1.00 59.78 LIG 0.26  C 
ATOM     33 O    VAL E 178      10.686 -22.942  31.040  1.00 49.42 LIG-0.27  OA
ATOM     34 H    ASP E 179      10.608 -25.080  33.185  1.00 68.60 LIG 0.16  HD
BRANCH 32 35
ATOM     35  CA  VAL E 178      11.425 -22.648  33.314  1.00 59.92 LIG 0.40  C 
ATOM     36  N   VAL E 178      12.724 -22.095  32.946  1.00 55.12 LIG 0.61  N 
BRANCH 35 37
ATOM     37  CB  VAL E 178      10.443 -21.534  33.761  1.00 50.97 LIG 0.03  C 
ATOM     38  CG2 VAL E 178      11.066 -20.649  34.831  1.00 47.22 LIG 0.01  C 
ATOM     39  CG1 VAL E 178       9.154 -22.146  34.264  1.00 50.59 LIG 0.01  C 
ENDBRANCH 35 37
ENDBRANCH 32 35
ENDBRANCH 30 31
BRANCH 30 40
ATOM     40  CB  ASP E 179      10.109 -26.917  31.513  1.00 47.75 LIG 0.15  C 
BRANCH 40 41
ATOM     41  CG  ASP E 179      11.133 -27.123  30.424  1.00 48.80 LIG 0.17  C 
ATOM     42 OD2  ASP E 179      11.241 -28.261  29.906  1.00 55.56 LIG-0.65  OA
ATOM     43 OD1  ASP E 179      11.827 -26.143  30.087  1.00 40.87 LIG-0.65  OA
ENDBRANCH 40 41
ENDBRANCH 30 40
ENDBRANCH 27 30
ENDBRANCH 1 26
TORSDOF 19
ENDMDL
MODEL 113
USER: ADFR SOLUTION from run 23
USER: SCORE 12.221612 LL:  -3.082 LR: -11.118 RR:   0.000 FEB:  -5.451
USER: RMSD 8.682418
USER: SEED 22
USER: STATUS no improvement in best in 7 clusters for 5 generations
USER: GENES 21
USER: genes 0 Translation |==|  0.37962 0.52371 0.59822
USER: genes 1 Rotation |==|  0.96946 0.50698 0.65235 0.57970
USER: genes 2 Torsion [C]-CA--CB-[CG] |==|  0.58113
USER: genes 3 Torsion [CA]-CB--CG-[OD1] |==|  0.84780
USER: genes 4 Torsion [N]-CA--C-[N] |==|  0.75288
USER: genes 5 Torsion [C]-N--CA-[CB] |==|  0.51125
USER: genes 6 Torsion [N]-CA--C-[N] |==|  0.83561
USER: genes 7 Torsion [C]-N--CA-[CB] |==|  0.25838
USER: genes 8 Torsion [N]-CA--CB-[CG] |==|  0.62064
USER: genes 9 Torsion [CA]-CB--CG-[SD] |==|  0.72765
USER: genes 10 Torsion [CB]-CG--SD-[CE] |==|  0.79803
USER: genes 11 Torsion [N]-CA--C-[O] |==|  0.90418
USER: genes 12 Torsion [N]-CA--CB-[CG] |==|  0.86088
USER: genes 13 Torsion [CA]-CB--CG-[OD1] |==|  0.02082
USER: genes 14 Torsion [CB]-CA--N-[C] |==|  0.73528
USER: genes 15 Torsion [N]-C--CA-[N] |==|  0.89585
USER: genes 16 Torsion [C]-CA--N-[C] |==|  0.84864
USER: genes 17 Torsion [N]-C--CA-[N] |==|  0.64032
USER: genes 18 Torsion [C]-CA--CB-[CG2] |==|  0.76796
USER: genes 19 Torsion [C]-CA--CB-[CG] |==|  0.33008
USER: genes 20 Torsion [CA]-CB--CG-[OD2] |==|  0.46658
ROOT
ATOM      1  CA  ASP E 180      -0.076 -27.145  28.520  1.00 46.29 LIG 0.19  C 
ENDROOT
BRANCH 1 2
ATOM      2  CB  ASP E 180      -1.257 -26.377  27.933  1.00 53.57 LIG 0.15  C 
BRANCH 2 3
ATOM      3  CG  ASP E 180      -1.427 -25.011  28.555  1.00 52.91 LIG 0.17  C 
ATOM      4 OD1  ASP E 180      -1.532 -24.933  29.799  1.00 53.16 LIG-0.65  OA
ATOM      5 OD2  ASP E 180      -1.448 -24.015  27.803  1.00 39.91 LIG-0.65  OA
ENDBRANCH 2 3
ENDBRANCH 1 2
BRANCH 1 6
ATOM      6  C   ASP E 180       0.499 -28.102  27.467  1.00 46.16 LIG 0.24  C 
ATOM      7 O    ASP E 180       0.967 -29.192  27.800  1.00 47.92 LIG-0.27  OA
ATOM      8  N   ASP E 181       0.468 -27.705  26.199  1.00 48.75 LIG-0.34  N 
ATOM      9 H    ASP E 181       0.195 -26.934  25.934  1.00 48.75 LIG 0.16  HD
BRANCH 8 10
ATOM     10  CA  ASP E 181       0.918 -28.601  25.138  1.00 45.01 LIG 0.19  C 
BRANCH 10 11
ATOM     11  C   ASP E 181       2.314 -29.165  25.387  1.00 47.33 LIG 0.24  C 
ATOM     12 O    ASP E 181       2.510 -30.383  25.485  1.00 41.27 LIG-0.27  OA
ATOM     13  N   MET E 182       3.275 -28.253  25.505  1.00 63.00 LIG-0.35  N 
ATOM     14 H    MET E 182       3.127 -27.406  25.501  1.00 63.00 LIG 0.16  HD
BRANCH 13 15
ATOM     15  CA  MET E 182       4.680 -28.604  25.656  1.00 43.88 LIG 0.16  C 
BRANCH 15 16
ATOM     16  CB  MET E 182       5.360 -28.638  24.288  1.00 44.38 LIG 0.04  C 
BRANCH 16 17
ATOM     17  CG  MET E 182       6.281 -29.825  24.091  1.00 63.17 LIG 0.08  C 
BRANCH 17 18
ATOM     18 SD   MET E 182       8.010 -29.415  24.391  1.00101.17 LIG-0.17  SA
ATOM     19  CE  MET E 182       8.377 -28.435  22.936  1.00 68.91 LIG 0.09  C 
ENDBRANCH 17 18
ENDBRANCH 16 17
ENDBRANCH 15 16
BRANCH 15 20
ATOM     20  C   MET E 182       5.405 -27.626  26.582  1.00 60.82 LIG 0.22  C 
ATOM     21 O    MET E 182       5.105 -26.428  26.610  1.00 58.83 LIG-0.29  OA
ENDBRANCH 15 20
ENDBRANCH 13 15
ENDBRANCH 10 11
BRANCH 10 22
ATOM     22  CB  ASP E 181       0.877 -27.878  23.792  1.00 40.72 LIG 0.15  C 
BRANCH 22 23
ATOM     23  CG  ASP E 181      -0.453 -27.197  23.546  1.00 40.82 LIG 0.17  C 
ATOM     24 OD1  ASP E 181      -1.297 -27.161  24.470  1.00 47.44 LIG-0.65  OA
ATOM     25 OD2  ASP E 181      -0.645 -26.689  22.424  1.00 24.37 LIG-0.65  OA
ENDBRANCH 22 23
ENDBRANCH 10 22
ENDBRANCH 8 10
ENDBRANCH 1 6
BRANCH 1 26
ATOM     26  N   ASP E 180       0.980 -26.242  28.989  1.00 48.48 LIG-0.34  N 
ATOM     27  C   ASP E 179       2.057 -25.877  28.290  1.00 52.76 LIG 0.24  C 
ATOM     28 O    ASP E 179       2.321 -26.274  27.155  1.00 54.54 LIG-0.27  OA
ATOM     29 H    ASP E 180       0.838 -25.957  29.787  1.00 48.48 LIG 0.16  HD
BRANCH 27 30
ATOM     30  CA  ASP E 179       2.980 -24.896  29.009  1.00 62.98 LIG 0.19  C 
BRANCH 30 31
ATOM     31  N   ASP E 179       2.306 -23.881  29.825  1.00 68.60 LIG-0.34  N 
ATOM     32  C   VAL E 178       1.365 -23.071  29.341  1.00 59.78 LIG 0.26  C 
ATOM     33 O    VAL E 178       1.133 -22.950  28.136  1.00 49.42 LIG-0.27  OA
ATOM     34 H    ASP E 179       2.574 -23.858  30.641  1.00 68.60 LIG 0.16  HD
BRANCH 32 35
ATOM     35  CA  VAL E 178       0.586 -22.253  30.376  1.00 59.92 LIG 0.40  C 
ATOM     36  N   VAL E 178      -0.856 -22.374  30.191  1.00 55.12 LIG 0.61  N 
BRANCH 35 37
ATOM     37  CB  VAL E 178       1.013 -22.701  31.798  1.00 50.97 LIG 0.03  C 
ATOM     38  CG2 VAL E 178       0.244 -23.938  32.239  1.00 47.22 LIG 0.01  C 
ATOM     39  CG1 VAL E 178       0.807 -21.570  32.783  1.00 50.59 LIG 0.01  C 
ENDBRANCH 35 37
ENDBRANCH 32 35
ENDBRANCH 30 31
BRANCH 30 40
ATOM     40  CB  ASP E 179       3.946 -25.694  29.884  1.00 47.75 LIG 0.15  C 
BRANCH 40 41
ATOM     41  CG  ASP E 179       5.386 -25.485  29.490  1.00 48.80 LIG 0.17  C 
ATOM     42 OD2  ASP E 179       6.287 -25.895  30.261  1.00 55.56 LIG-0.65  OA
ATOM     43 OD1  ASP E 179       5.613 -24.911  28.406  1.00 40.87 LIG-0.65  OA
ENDBRANCH 40 41
ENDBRANCH 30 40
ENDBRANCH 27 30
ENDBRANCH 1 26
TORSDOF 19
ENDMDL
MODEL 114
USER: ADFR SOLUTION from run 156
USER: SCORE 11.488228 LL:  -3.401 LR: -11.117 RR:   0.000 FEB:  -5.449
USER: RMSD 7.172999
USER: SEED 155
USER: STATUS no improvement in best in 5 clusters for 5 generations
USER: GENES 21
USER: genes 0 Translation |==|  0.59350 0.44335 0.50359
USER: genes 1 Rotation |==|  0.92687 0.31891 0.36650 0.63102
USER: genes 2 Torsion [C]-CA--CB-[CG] |==|  0.39527
USER: genes 3 Torsion [CA]-CB--CG-[OD1] |==|  0.95626
USER: genes 4 Torsion [N]-CA--C-[N] |==|  0.75019
USER: genes 5 Torsion [C]-N--CA-[CB] |==|  0.52362
USER: genes 6 Torsion [N]-CA--C-[N] |==|  0.89987
USER: genes 7 Torsion [C]-N--CA-[CB] |==|  0.28505
USER: genes 8 Torsion [N]-CA--CB-[CG] |==|  0.22350
USER: genes 9 Torsion [CA]-CB--CG-[SD] |==|  0.41108
USER: genes 10 Torsion [CB]-CG--SD-[CE] |==|  0.31444
USER: genes 11 Torsion [N]-CA--C-[O] |==|  0.95242
USER: genes 12 Torsion [N]-CA--CB-[CG] |==|  0.64202
USER: genes 13 Torsion [CA]-CB--CG-[OD1] |==|  0.03258
USER: genes 14 Torsion [CB]-CA--N-[C] |==|  0.77773
USER: genes 15 Torsion [N]-C--CA-[N] |==|  0.42770
USER: genes 16 Torsion [C]-CA--N-[C] |==|  0.18947
USER: genes 17 Torsion [N]-C--CA-[N] |==|  0.59564
USER: genes 18 Torsion [C]-CA--CB-[CG2] |==|  0.72689
USER: genes 19 Torsion [C]-CA--CB-[CG] |==|  0.50412
USER: genes 20 Torsion [CA]-CB--CG-[OD2] |==|  0.24645
ROOT
ATOM      1  CA  ASP E 180       4.576 -28.471  26.604  1.00 46.29 LIG 0.19  C 
ENDROOT
BRANCH 1 2
ATOM      2  CB  ASP E 180       4.551 -26.950  26.722  1.00 53.57 LIG 0.15  C 
BRANCH 2 3
ATOM      3  CG  ASP E 180       5.225 -26.456  27.981  1.00 52.91 LIG 0.17  C 
ATOM      4 OD1  ASP E 180       5.444 -27.277  28.899  1.00 53.16 LIG-0.65  OA
ATOM      5 OD2  ASP E 180       5.542 -25.250  28.050  1.00 39.91 LIG-0.65  OA
ENDBRANCH 2 3
ENDBRANCH 1 2
BRANCH 1 6
ATOM      6  C   ASP E 180       3.255 -28.968  25.999  1.00 46.16 LIG 0.24  C 
ATOM      7 O    ASP E 180       2.781 -30.054  26.339  1.00 47.92 LIG-0.27  OA
ATOM      8  N   ASP E 181       2.657 -28.184  25.108  1.00 48.75 LIG-0.34  N 
ATOM      9 H    ASP E 181       2.982 -27.445  24.811  1.00 48.75 LIG 0.16  HD
BRANCH 8 10
ATOM     10  CA  ASP E 181       1.357 -28.555  24.559  1.00 45.01 LIG 0.19  C 
BRANCH 10 11
ATOM     11  C   ASP E 181       1.303 -30.004  24.083  1.00 47.33 LIG 0.24  C 
ATOM     12 O    ASP E 181       0.284 -30.692  24.226  1.00 41.27 LIG-0.27  OA
ATOM     13  N   MET E 182       2.425 -30.457  23.532  1.00 63.00 LIG-0.35  N 
ATOM     14 H    MET E 182       3.151 -29.998  23.492  1.00 63.00 LIG 0.16  HD
BRANCH 13 15
ATOM     15  CA  MET E 182       2.533 -31.782  22.941  1.00 43.88 LIG 0.16  C 
BRANCH 15 16
ATOM     16  CB  MET E 182       2.474 -31.681  21.417  1.00 44.38 LIG 0.04  C 
BRANCH 16 17
ATOM     17  CG  MET E 182       3.789 -31.282  20.779  1.00 63.17 LIG 0.08  C 
BRANCH 17 18
ATOM     18 SD   MET E 182       4.015 -32.012  19.148  1.00101.17 LIG-0.17  SA
ATOM     19  CE  MET E 182       3.956 -30.548  18.116  1.00 68.91 LIG 0.09  C 
ENDBRANCH 17 18
ENDBRANCH 16 17
ENDBRANCH 15 16
BRANCH 15 20
ATOM     20  C   MET E 182       3.822 -32.485  23.374  1.00 60.82 LIG 0.22  C 
ATOM     21 O    MET E 182       4.763 -31.852  23.863  1.00 58.83 LIG-0.29  OA
ENDBRANCH 15 20
ENDBRANCH 13 15
ENDBRANCH 10 11
BRANCH 10 22
ATOM     22  CB  ASP E 181       0.986 -27.613  23.414  1.00 40.72 LIG 0.15  C 
BRANCH 22 23
ATOM     23  CG  ASP E 181      -0.400 -27.025  23.581  1.00 40.82 LIG 0.17  C 
ATOM     24 OD1  ASP E 181      -0.990 -27.161  24.676  1.00 47.44 LIG-0.65  OA
ATOM     25 OD2  ASP E 181      -0.890 -26.415  22.610  1.00 24.37 LIG-0.65  OA
ENDBRANCH 22 23
ENDBRANCH 10 22
ENDBRANCH 8 10
ENDBRANCH 1 6
BRANCH 1 26
ATOM     26  N   ASP E 180       5.696 -28.933  25.779  1.00 48.48 LIG-0.34  N 
ATOM     27  C   ASP E 179       5.726 -28.942  24.444  1.00 52.76 LIG 0.24  C 
ATOM     28 O    ASP E 179       4.797 -28.581  23.721  1.00 54.54 LIG-0.27  OA
ATOM     29 H    ASP E 180       6.360 -29.210  26.250  1.00 48.48 LIG 0.16  HD
BRANCH 27 30
ATOM     30  CA  ASP E 179       7.036 -29.445  23.841  1.00 62.98 LIG 0.19  C 
BRANCH 30 31
ATOM     31  N   ASP E 179       6.928 -30.023  22.498  1.00 68.60 LIG-0.34  N 
ATOM     32  C   VAL E 178       6.634 -29.298  21.419  1.00 59.78 LIG 0.26  C 
ATOM     33 O    VAL E 178       6.217 -28.139  21.478  1.00 49.42 LIG-0.27  OA
ATOM     34 H    ASP E 179       7.072 -30.870  22.472  1.00 68.60 LIG 0.16  HD
BRANCH 32 35
ATOM     35  CA  VAL E 178       6.814 -30.000  20.069  1.00 59.92 LIG 0.40  C 
ATOM     36  N   VAL E 178       7.264 -29.078  19.032  1.00 55.12 LIG 0.61  N 
BRANCH 35 37
ATOM     37  CB  VAL E 178       7.803 -31.182  20.243  1.00 50.97 LIG 0.03  C 
ATOM     38  CG2 VAL E 178       9.207 -30.792  19.803  1.00 47.22 LIG 0.01  C 
ATOM     39  CG1 VAL E 178       7.318 -32.385  19.463  1.00 50.59 LIG 0.01  C 
ENDBRANCH 35 37
ENDBRANCH 32 35
ENDBRANCH 30 31
BRANCH 30 40
ATOM     40  CB  ASP E 179       8.034 -28.288  23.819  1.00 47.75 LIG 0.15  C 
BRANCH 40 41
ATOM     41  CG  ASP E 179       9.355 -28.679  23.205  1.00 48.80 LIG 0.17  C 
ATOM     42 OD2  ASP E 179       9.502 -28.555  21.965  1.00 55.56 LIG-0.65  OA
ATOM     43 OD1  ASP E 179      10.245 -29.107  23.966  1.00 40.87 LIG-0.65  OA
ENDBRANCH 40 41
ENDBRANCH 30 40
ENDBRANCH 27 30
ENDBRANCH 1 26
TORSDOF 19
ENDMDL
MODEL 115
USER: ADFR SOLUTION from run 74
USER: SCORE 12.312136 LL:  -1.798 LR: -11.123 RR:   0.000 FEB:  -5.455
USER: RMSD 9.754406
USER: SEED 73
USER: STATUS no improvement in best in 21 clusters for 5 generations
USER: GENES 21
USER: genes 0 Translation |==|  0.62240 0.45384 0.42584
USER: genes 1 Rotation |==|  0.69446 0.94707 0.38969 0.51189
USER: genes 2 Torsion [C]-CA--CB-[CG] |==|  0.38451
USER: genes 3 Torsion [CA]-CB--CG-[OD1] |==|  0.08459
USER: genes 4 Torsion [N]-CA--C-[N] |==|  0.38808
USER: genes 5 Torsion [C]-N--CA-[CB] |==|  0.52905
USER: genes 6 Torsion [N]-CA--C-[N] |==|  0.35736
USER: genes 7 Torsion [C]-N--CA-[CB] |==|  0.51816
USER: genes 8 Torsion [N]-CA--CB-[CG] |==|  0.82061
USER: genes 9 Torsion [CA]-CB--CG-[SD] |==|  0.50257
USER: genes 10 Torsion [CB]-CG--SD-[CE] |==|  0.67688
USER: genes 11 Torsion [N]-CA--C-[O] |==|  0.93273
USER: genes 12 Torsion [N]-CA--CB-[CG] |==|  0.06248
USER: genes 13 Torsion [CA]-CB--CG-[OD1] |==|  0.66033
USER: genes 14 Torsion [CB]-CA--N-[C] |==|  0.82510
USER: genes 15 Torsion [N]-C--CA-[N] |==|  0.91581
USER: genes 16 Torsion [C]-CA--N-[C] |==|  0.79424
USER: genes 17 Torsion [N]-C--CA-[N] |==|  0.55299
USER: genes 18 Torsion [C]-CA--CB-[CG2] |==|  0.69706
USER: genes 19 Torsion [C]-CA--CB-[CG] |==|  0.47646
USER: genes 20 Torsion [CA]-CB--CG-[OD2] |==|  0.99180
ROOT
ATOM      1  CA  ASP E 180       5.204 -28.298  25.029  1.00 46.29 LIG 0.19  C 
ENDROOT
BRANCH 1 2
ATOM      2  CB  ASP E 180       5.516 -29.426  26.007  1.00 53.57 LIG 0.15  C 
BRANCH 2 3
ATOM      3  CG  ASP E 180       6.139 -28.926  27.289  1.00 52.91 LIG 0.17  C 
ATOM      4 OD1  ASP E 180       5.830 -27.784  27.695  1.00 53.16 LIG-0.65  OA
ATOM      5 OD2  ASP E 180       6.932 -29.676  27.895  1.00 39.91 LIG-0.65  OA
ENDBRANCH 2 3
ENDBRANCH 1 2
BRANCH 1 6
ATOM      6  C   ASP E 180       5.578 -28.726  23.603  1.00 46.16 LIG 0.24  C 
ATOM      7 O    ASP E 180       4.801 -29.405  22.930  1.00 47.92 LIG-0.27  OA
ATOM      8  N   ASP E 181       6.759 -28.334  23.137  1.00 48.75 LIG-0.34  N 
ATOM      9 H    ASP E 181       7.346 -27.902  23.594  1.00 48.75 LIG 0.16  HD
BRANCH 8 10
ATOM     10  CA  ASP E 181       7.141 -28.632  21.760  1.00 45.01 LIG 0.19  C 
BRANCH 10 11
ATOM     11  C   ASP E 181       6.853 -30.077  21.362  1.00 47.33 LIG 0.24  C 
ATOM     12 O    ASP E 181       7.259 -31.027  22.044  1.00 41.27 LIG-0.27  OA
ATOM     13  N   MET E 182       6.163 -30.223  20.235  1.00 63.00 LIG-0.35  N 
ATOM     14 H    MET E 182       5.938 -29.564  19.730  1.00 63.00 LIG 0.16  HD
BRANCH 13 15
ATOM     15  CA  MET E 182       5.718 -31.519  19.745  1.00 43.88 LIG 0.16  C 
BRANCH 15 16
ATOM     16  CB  MET E 182       5.097 -31.369  18.357  1.00 44.38 LIG 0.04  C 
BRANCH 16 17
ATOM     17  CG  MET E 182       3.831 -30.536  18.340  1.00 63.17 LIG 0.08  C 
BRANCH 17 18
ATOM     18 SD   MET E 182       3.114 -30.403  16.693  1.00101.17 LIG-0.17  SA
ATOM     19  CE  MET E 182       3.261 -28.640  16.406  1.00 68.91 LIG 0.09  C 
ENDBRANCH 17 18
ENDBRANCH 16 17
ENDBRANCH 15 16
BRANCH 15 20
ATOM     20  C   MET E 182       6.870 -32.526  19.703  1.00 60.82 LIG 0.22  C 
ATOM     21 O    MET E 182       8.044 -32.152  19.617  1.00 58.83 LIG-0.29  OA
ENDBRANCH 15 20
ENDBRANCH 13 15
ENDBRANCH 10 11
BRANCH 10 22
ATOM     22  CB  ASP E 181       8.621 -28.315  21.549  1.00 40.72 LIG 0.15  C 
BRANCH 22 23
ATOM     23  CG  ASP E 181       9.400 -28.318  22.848  1.00 40.82 LIG 0.17  C 
ATOM     24 OD1  ASP E 181      10.023 -27.285  23.184  1.00 47.44 LIG-0.65  OA
ATOM     25 OD2  ASP E 181       9.375 -29.357  23.536  1.00 24.37 LIG-0.65  OA
ENDBRANCH 22 23
ENDBRANCH 10 22
ENDBRANCH 8 10
ENDBRANCH 1 6
BRANCH 1 26
ATOM     26  N   ASP E 180       3.789 -27.918  25.071  1.00 48.48 LIG-0.34  N 
ATOM     27  C   ASP E 179       2.762 -28.709  24.751  1.00 52.76 LIG 0.24  C 
ATOM     28 O    ASP E 179       2.872 -29.869  24.350  1.00 54.54 LIG-0.27  OA
ATOM     29 H    ASP E 180       3.673 -27.106  25.331  1.00 48.48 LIG 0.16  HD
BRANCH 27 30
ATOM     30  CA  ASP E 179       1.387 -28.067  24.919  1.00 62.98 LIG 0.19  C 
BRANCH 30 31
ATOM     31  N   ASP E 179       1.290 -27.057  25.977  1.00 68.60 LIG-0.34  N 
ATOM     32  C   VAL E 178       1.266 -27.367  27.273  1.00 59.78 LIG 0.26  C 
ATOM     33 O    VAL E 178       1.105 -28.516  27.690  1.00 49.42 LIG-0.27  OA
ATOM     34 H    ASP E 179       1.249 -26.250  25.684  1.00 68.60 LIG 0.16  HD
BRANCH 32 35
ATOM     35  CA  VAL E 178       1.422 -26.194  28.246  1.00 59.92 LIG 0.40  C 
ATOM     36  N   VAL E 178       1.828 -26.639  29.575  1.00 55.12 LIG 0.61  N 
BRANCH 35 37
ATOM     37  CB  VAL E 178       2.436 -25.179  27.656  1.00 50.97 LIG 0.03  C 
ATOM     38  CG2 VAL E 178       3.743 -25.192  28.435  1.00 47.22 LIG 0.01  C 
ATOM     39  CG1 VAL E 178       1.837 -23.789  27.649  1.00 50.59 LIG 0.01  C 
ENDBRANCH 35 37
ENDBRANCH 32 35
ENDBRANCH 30 31
BRANCH 30 40
ATOM     40  CB  ASP E 179       0.977 -27.447  23.584  1.00 47.75 LIG 0.15  C 
BRANCH 40 41
ATOM     41  CG  ASP E 179      -0.452 -26.965  23.587  1.00 48.80 LIG 0.17  C 
ATOM     42 OD2  ASP E 179      -1.151 -27.161  24.611  1.00 55.56 LIG-0.65  OA
ATOM     43 OD1  ASP E 179      -0.873 -26.389  22.564  1.00 40.87 LIG-0.65  OA
ENDBRANCH 40 41
ENDBRANCH 30 40
ENDBRANCH 27 30
ENDBRANCH 1 26
TORSDOF 19
ENDMDL
MODEL 116
USER: ADFR SOLUTION from run 139
USER: SCORE 13.161867 LL:  -3.181 LR: -11.121 RR:   0.000 FEB:  -5.453
USER: RMSD 6.766347
USER: SEED 138
USER: STATUS no improvement in best in 12 clusters for 5 generations
USER: GENES 21
USER: genes 0 Translation |==|  0.49057 0.41024 0.38904
USER: genes 1 Rotation |==|  0.51853 0.67109 0.34006 0.94136
USER: genes 2 Torsion [C]-CA--CB-[CG] |==|  0.31690
USER: genes 3 Torsion [CA]-CB--CG-[OD1] |==|  0.57715
USER: genes 4 Torsion [N]-CA--C-[N] |==|  0.35604
USER: genes 5 Torsion [C]-N--CA-[CB] |==|  0.78868
USER: genes 6 Torsion [N]-CA--C-[N] |==|  0.17477
USER: genes 7 Torsion [C]-N--CA-[CB] |==|  0.48442
USER: genes 8 Torsion [N]-CA--CB-[CG] |==|  0.99197
USER: genes 9 Torsion [CA]-CB--CG-[SD] |==|  0.32770
USER: genes 10 Torsion [CB]-CG--SD-[CE] |==|  0.26962
USER: genes 11 Torsion [N]-CA--C-[O] |==|  0.22352
USER: genes 12 Torsion [N]-CA--CB-[CG] |==|  0.60633
USER: genes 13 Torsion [CA]-CB--CG-[OD1] |==|  0.64336
USER: genes 14 Torsion [CB]-CA--N-[C] |==|  0.50000
USER: genes 15 Torsion [N]-C--CA-[N] |==|  0.40651
USER: genes 16 Torsion [C]-CA--N-[C] |==|  0.80898
USER: genes 17 Torsion [N]-C--CA-[N] |==|  0.47606
USER: genes 18 Torsion [C]-CA--CB-[CG2] |==|  0.23941
USER: genes 19 Torsion [C]-CA--CB-[CG] |==|  0.82768
USER: genes 20 Torsion [CA]-CB--CG-[OD2] |==|  0.33016
ROOT
ATOM      1  CA  ASP E 180       2.337 -29.017  24.284  1.00 46.29 LIG 0.19  C 
ENDROOT
BRANCH 1 2
ATOM      2  CB  ASP E 180       0.913 -28.895  24.816  1.00 53.57 LIG 0.15  C 
BRANCH 2 3
ATOM      3  CG  ASP E 180       0.200 -27.672  24.288  1.00 52.91 LIG 0.17  C 
ATOM      4 OD1  ASP E 180      -0.703 -27.161  24.988  1.00 53.16 LIG-0.65  OA
ATOM      5 OD2  ASP E 180       0.545 -27.217  23.177  1.00 39.91 LIG-0.65  OA
ENDBRANCH 2 3
ENDBRANCH 1 2
BRANCH 1 6
ATOM      6  C   ASP E 180       3.339 -28.855  25.436  1.00 46.16 LIG 0.24  C 
ATOM      7 O    ASP E 180       3.465 -29.739  26.285  1.00 47.92 LIG-0.27  OA
ATOM      8  N   ASP E 181       4.053 -27.735  25.471  1.00 48.75 LIG-0.34  N 
ATOM      9 H    ASP E 181       3.958 -27.077  24.926  1.00 48.75 LIG 0.16  HD
BRANCH 8 10
ATOM     10  CA  ASP E 181       5.085 -27.553  26.488  1.00 45.01 LIG 0.19  C 
BRANCH 10 11
ATOM     11  C   ASP E 181       6.002 -28.764  26.627  1.00 47.33 LIG 0.24  C 
ATOM     12 O    ASP E 181       6.074 -29.402  27.686  1.00 41.27 LIG-0.27  OA
ATOM     13  N   MET E 182       6.717 -29.056  25.544  1.00 63.00 LIG-0.35  N 
ATOM     14 H    MET E 182       6.713 -28.574  24.832  1.00 63.00 LIG 0.16  HD
BRANCH 13 15
ATOM     15  CA  MET E 182       7.578 -30.226  25.459  1.00 43.88 LIG 0.16  C 
BRANCH 15 16
ATOM     16  CB  MET E 182       8.149 -30.355  24.047  1.00 44.38 LIG 0.04  C 
BRANCH 16 17
ATOM     17  CG  MET E 182       7.638 -29.303  23.083  1.00 63.17 LIG 0.08  C 
BRANCH 17 18
ATOM     18 SD   MET E 182       8.956 -28.253  22.446  1.00101.17 LIG-0.17  SA
ATOM     19  CE  MET E 182       9.292 -29.054  20.878  1.00 68.91 LIG 0.09  C 
ENDBRANCH 17 18
ENDBRANCH 16 17
ENDBRANCH 15 16
BRANCH 15 20
ATOM     20  C   MET E 182       8.712 -30.161  26.484  1.00 60.82 LIG 0.22  C 
ATOM     21 O    MET E 182       8.527 -30.471  27.665  1.00 58.83 LIG-0.29  OA
ENDBRANCH 15 20
ENDBRANCH 13 15
ENDBRANCH 10 11
BRANCH 10 22
ATOM     22  CB  ASP E 181       4.439 -27.228  27.834  1.00 40.72 LIG 0.15  C 
BRANCH 22 23
ATOM     23  CG  ASP E 181       5.228 -26.199  28.616  1.00 40.82 LIG 0.17  C 
ATOM     24 OD1  ASP E 181       5.542 -26.447  29.802  1.00 47.44 LIG-0.65  OA
ATOM     25 OD2  ASP E 181       5.542 -25.143  28.031  1.00 24.37 LIG-0.65  OA
ENDBRANCH 22 23
ENDBRANCH 10 22
ENDBRANCH 8 10
ENDBRANCH 1 6
BRANCH 1 26
ATOM     26  N   ASP E 180       2.560 -30.305  23.619  1.00 48.48 LIG-0.34  N 
ATOM     27  C   ASP E 179       3.704 -30.700  23.056  1.00 52.76 LIG 0.24  C 
ATOM     28 O    ASP E 179       4.727 -30.018  22.998  1.00 54.54 LIG-0.27  OA
ATOM     29 H    ASP E 180       1.859 -30.803  23.624  1.00 48.48 LIG 0.16  HD
BRANCH 27 30
ATOM     30  CA  ASP E 179       3.668 -32.107  22.463  1.00 62.98 LIG 0.19  C 
BRANCH 30 31
ATOM     31  N   ASP E 179       4.483 -32.304  21.261  1.00 68.60 LIG-0.34  N 
ATOM     32  C   VAL E 178       4.190 -31.742  20.088  1.00 59.78 LIG 0.26  C 
ATOM     33 O    VAL E 178       3.111 -31.196  19.852  1.00 49.42 LIG-0.27  OA
ATOM     34 H    ASP E 179       5.164 -32.814  21.383  1.00 68.60 LIG 0.16  HD
BRANCH 32 35
ATOM     35  CA  VAL E 178       5.274 -31.838  19.010  1.00 59.92 LIG 0.40  C 
ATOM     36  N   VAL E 178       4.792 -31.379  17.711  1.00 55.12 LIG 0.61  N 
BRANCH 35 37
ATOM     37  CB  VAL E 178       6.516 -31.030  19.469  1.00 50.97 LIG 0.03  C 
ATOM     38  CG2 VAL E 178       7.433 -31.878  20.338  1.00 47.22 LIG 0.01  C 
ATOM     39  CG1 VAL E 178       6.081 -29.785  20.213  1.00 50.59 LIG 0.01  C 
ENDBRANCH 35 37
ENDBRANCH 32 35
ENDBRANCH 30 31
BRANCH 30 40
ATOM     40  CB  ASP E 179       4.104 -33.097  23.543  1.00 47.75 LIG 0.15  C 
BRANCH 40 41
ATOM     41  CG  ASP E 179       5.517 -32.854  24.010  1.00 48.80 LIG 0.17  C 
ATOM     42 OD2  ASP E 179       5.712 -32.567  25.215  1.00 55.56 LIG-0.65  OA
ATOM     43 OD1  ASP E 179       6.431 -32.954  23.167  1.00 40.87 LIG-0.65  OA
ENDBRANCH 40 41
ENDBRANCH 30 40
ENDBRANCH 27 30
ENDBRANCH 1 26
TORSDOF 19
ENDMDL
MODEL 117
USER: ADFR SOLUTION from run 74
USER: SCORE 12.120545 LL:  -1.675 LR: -11.113 RR:   0.000 FEB:  -5.445
USER: RMSD 9.541693
USER: SEED 73
USER: STATUS no improvement in best in 21 clusters for 5 generations
USER: GENES 21
USER: genes 0 Translation |==|  0.61630 0.45243 0.41999
USER: genes 1 Rotation |==|  0.70331 0.94618 0.40459 0.52203
USER: genes 2 Torsion [C]-CA--CB-[CG] |==|  0.34430
USER: genes 3 Torsion [CA]-CB--CG-[OD1] |==|  0.16207
USER: genes 4 Torsion [N]-CA--C-[N] |==|  0.38163
USER: genes 5 Torsion [C]-N--CA-[CB] |==|  0.53795
USER: genes 6 Torsion [N]-CA--C-[N] |==|  0.32884
USER: genes 7 Torsion [C]-N--CA-[CB] |==|  0.50959
USER: genes 8 Torsion [N]-CA--CB-[CG] |==|  0.74311
USER: genes 9 Torsion [CA]-CB--CG-[SD] |==|  0.49482
USER: genes 10 Torsion [CB]-CG--SD-[CE] |==|  0.84952
USER: genes 11 Torsion [N]-CA--C-[O] |==|  0.95381
USER: genes 12 Torsion [N]-CA--CB-[CG] |==|  0.07722
USER: genes 13 Torsion [CA]-CB--CG-[OD1] |==|  0.30059
USER: genes 14 Torsion [CB]-CA--N-[C] |==|  0.83864
USER: genes 15 Torsion [N]-C--CA-[N] |==|  0.43485
USER: genes 16 Torsion [C]-CA--N-[C] |==|  0.65856
USER: genes 17 Torsion [N]-C--CA-[N] |==|  0.45786
USER: genes 18 Torsion [C]-CA--CB-[CG2] |==|  0.56663
USER: genes 19 Torsion [C]-CA--CB-[CG] |==|  0.47524
USER: genes 20 Torsion [CA]-CB--CG-[OD2] |==|  0.18323
ROOT
ATOM      1  CA  ASP E 180       5.072 -28.321  24.911  1.00 46.29 LIG 0.19  C 
ENDROOT
BRANCH 1 2
ATOM      2  CB  ASP E 180       5.292 -29.491  25.864  1.00 53.57 LIG 0.15  C 
BRANCH 2 3
ATOM      3  CG  ASP E 180       6.148 -29.119  27.051  1.00 52.91 LIG 0.17  C 
ATOM      4 OD1  ASP E 180       5.763 -28.189  27.794  1.00 53.16 LIG-0.65  OA
ATOM      5 OD2  ASP E 180       7.202 -29.760  27.247  1.00 39.91 LIG-0.65  OA
ENDBRANCH 2 3
ENDBRANCH 1 2
BRANCH 1 6
ATOM      6  C   ASP E 180       5.532 -28.705  23.498  1.00 46.16 LIG 0.24  C 
ATOM      7 O    ASP E 180       4.804 -29.377  22.763  1.00 47.92 LIG-0.27  OA
ATOM      8  N   ASP E 181       6.731 -28.285  23.110  1.00 48.75 LIG-0.34  N 
ATOM      9 H    ASP E 181       7.285 -27.857  23.610  1.00 48.75 LIG 0.16  HD
BRANCH 8 10
ATOM     10  CA  ASP E 181       7.194 -28.540  21.750  1.00 45.01 LIG 0.19  C 
BRANCH 10 11
ATOM     11  C   ASP E 181       6.883 -29.955  21.270  1.00 47.33 LIG 0.24  C 
ATOM     12 O    ASP E 181       7.364 -30.947  21.831  1.00 41.27 LIG-0.27  OA
ATOM     13  N   MET E 182       6.083 -30.025  20.210  1.00 63.00 LIG-0.35  N 
ATOM     14 H    MET E 182       5.801 -29.334  19.783  1.00 63.00 LIG 0.16  HD
BRANCH 13 15
ATOM     15  CA  MET E 182       5.604 -31.288  19.667  1.00 43.88 LIG 0.16  C 
BRANCH 15 16
ATOM     16  CB  MET E 182       4.780 -31.036  18.405  1.00 44.38 LIG 0.04  C 
BRANCH 16 17
ATOM     17  CG  MET E 182       3.294 -30.890  18.664  1.00 63.17 LIG 0.08  C 
BRANCH 17 18
ATOM     18 SD   MET E 182       2.362 -30.541  17.163  1.00101.17 LIG-0.17  SA
ATOM     19  CE  MET E 182       3.236 -29.100  16.554  1.00 68.91 LIG 0.09  C 
ENDBRANCH 17 18
ENDBRANCH 16 17
ENDBRANCH 15 16
BRANCH 15 20
ATOM     20  C   MET E 182       6.762 -32.239  19.359  1.00 60.82 LIG 0.22  C 
ATOM     21 O    MET E 182       7.924 -31.828  19.277  1.00 58.83 LIG-0.29  OA
ENDBRANCH 15 20
ENDBRANCH 13 15
ENDBRANCH 10 11
BRANCH 10 22
ATOM     22  CB  ASP E 181       8.696 -28.272  21.651  1.00 40.72 LIG 0.15  C 
BRANCH 22 23
ATOM     23  CG  ASP E 181       9.405 -28.485  22.972  1.00 40.82 LIG 0.17  C 
ATOM     24 OD1  ASP E 181      10.148 -29.482  23.109  1.00 47.44 LIG-0.65  OA
ATOM     25 OD2  ASP E 181       9.221 -27.640  23.870  1.00 24.37 LIG-0.65  OA
ENDBRANCH 22 23
ENDBRANCH 10 22
ENDBRANCH 8 10
ENDBRANCH 1 6
BRANCH 1 26
ATOM     26  N   ASP E 180       3.665 -27.909  24.872  1.00 48.48 LIG-0.34  N 
ATOM     27  C   ASP E 179       2.635 -28.692  24.542  1.00 52.76 LIG 0.24  C 
ATOM     28 O    ASP E 179       2.735 -29.870  24.198  1.00 54.54 LIG-0.27  OA
ATOM     29 H    ASP E 180       3.557 -27.085  25.091  1.00 48.48 LIG 0.16  HD
BRANCH 27 30
ATOM     30  CA  ASP E 179       1.269 -28.013  24.620  1.00 62.98 LIG 0.19  C 
BRANCH 30 31
ATOM     31  N   ASP E 179       0.221 -28.613  23.790  1.00 68.60 LIG-0.34  N 
ATOM     32  C   VAL E 178      -0.452 -27.927  22.866  1.00 59.78 LIG 0.26  C 
ATOM     33 O    VAL E 178      -0.413 -26.699  22.776  1.00 49.42 LIG-0.27  OA
ATOM     34 H    ASP E 179       0.082 -29.445  23.954  1.00 68.60 LIG 0.16  HD
BRANCH 32 35
ATOM     35  CA  VAL E 178      -1.324 -28.757  21.918  1.00 59.92 LIG 0.40  C 
ATOM     36  N   VAL E 178      -2.279 -27.927  21.191  1.00 55.12 LIG 0.61  N 
BRANCH 35 37
ATOM     37  CB  VAL E 178      -0.406 -29.544  20.947  1.00 50.97 LIG 0.03  C 
ATOM     38  CG2 VAL E 178      -1.140 -29.897  19.661  1.00 47.22 LIG 0.01  C 
ATOM     39  CG1 VAL E 178       0.114 -30.795  21.621  1.00 50.59 LIG 0.01  C 
ENDBRANCH 35 37
ENDBRANCH 32 35
ENDBRANCH 30 31
BRANCH 30 40
ATOM     40  CB  ASP E 179       0.819 -27.999  26.080  1.00 47.75 LIG 0.15  C 
BRANCH 40 41
ATOM     41  CG  ASP E 179      -0.417 -27.162  26.293  1.00 48.80 LIG 0.17  C 
ATOM     42 OD2  ASP E 179      -1.495 -27.535  25.771  1.00 55.56 LIG-0.65  OA
ATOM     43 OD1  ASP E 179      -0.306 -26.131  26.987  1.00 40.87 LIG-0.65  OA
ENDBRANCH 40 41
ENDBRANCH 30 40
ENDBRANCH 27 30
ENDBRANCH 1 26
TORSDOF 19
ENDMDL
MODEL 118
USER: ADFR SOLUTION from run 162
USER: SCORE 12.379719 LL:  -2.075 LR: -11.101 RR:   0.000 FEB:  -5.433
USER: RMSD 9.816483
USER: SEED 161
USER: STATUS searching
USER: GENES 21
USER: genes 0 Translation |==|  0.54440 0.58578 0.55912
USER: genes 1 Rotation |==|  0.33739 0.13193 0.79626 0.51763
USER: genes 2 Torsion [C]-CA--CB-[CG] |==|  0.33218
USER: genes 3 Torsion [CA]-CB--CG-[OD1] |==|  0.99038
USER: genes 4 Torsion [N]-CA--C-[N] |==|  0.12020
USER: genes 5 Torsion [C]-N--CA-[CB] |==|  0.52778
USER: genes 6 Torsion [N]-CA--C-[N] |==|  0.27964
USER: genes 7 Torsion [C]-N--CA-[CB] |==|  0.34906
USER: genes 8 Torsion [N]-CA--CB-[CG] |==|  0.70929
USER: genes 9 Torsion [CA]-CB--CG-[SD] |==|  0.07409
USER: genes 10 Torsion [CB]-CG--SD-[CE] |==|  0.65660
USER: genes 11 Torsion [N]-CA--C-[O] |==|  0.35597
USER: genes 12 Torsion [N]-CA--CB-[CG] |==|  0.89106
USER: genes 13 Torsion [CA]-CB--CG-[OD1] |==|  0.41708
USER: genes 14 Torsion [CB]-CA--N-[C] |==|  0.15346
USER: genes 15 Torsion [N]-C--CA-[N] |==|  0.37614
USER: genes 16 Torsion [C]-CA--N-[C] |==|  0.85960
USER: genes 17 Torsion [N]-C--CA-[N] |==|  0.42500
USER: genes 18 Torsion [C]-CA--CB-[CG2] |==|  0.24083
USER: genes 19 Torsion [C]-CA--CB-[CG] |==|  0.47863
USER: genes 20 Torsion [CA]-CB--CG-[OD2] |==|  0.34356
ROOT
ATOM      1  CA  ASP E 180       3.508 -26.121  27.728  1.00 46.29 LIG 0.19  C 
ENDROOT
BRANCH 1 2
ATOM      2  CB  ASP E 180       4.289 -26.429  29.001  1.00 53.57 LIG 0.15  C 
BRANCH 2 3
ATOM      3  CG  ASP E 180       5.587 -25.660  29.086  1.00 52.91 LIG 0.17  C 
ATOM      4 OD1  ASP E 180       5.912 -24.935  28.119  1.00 53.16 LIG-0.65  OA
ATOM      5 OD2  ASP E 180       6.278 -25.775  30.118  1.00 39.91 LIG-0.65  OA
ENDBRANCH 2 3
ENDBRANCH 1 2
BRANCH 1 6
ATOM      6  C   ASP E 180       3.322 -27.404  26.907  1.00 46.16 LIG 0.24  C 
ATOM      7 O    ASP E 180       3.977 -28.415  27.168  1.00 47.92 LIG-0.27  OA
ATOM      8  N   ASP E 181       2.434 -27.374  25.918  1.00 48.75 LIG-0.34  N 
ATOM      9 H    ASP E 181       1.996 -26.675  25.676  1.00 48.75 LIG 0.16  HD
BRANCH 8 10
ATOM     10  CA  ASP E 181       2.145 -28.583  25.154  1.00 45.01 LIG 0.19  C 
BRANCH 10 11
ATOM     11  C   ASP E 181       3.404 -29.329  24.720  1.00 47.33 LIG 0.24  C 
ATOM     12 O    ASP E 181       4.060 -28.968  23.735  1.00 41.27 LIG-0.27  OA
ATOM     13  N   MET E 182       3.715 -30.386  25.464  1.00 63.00 LIG-0.35  N 
ATOM     14 H    MET E 182       3.223 -30.672  26.109  1.00 63.00 LIG 0.16  HD
BRANCH 13 15
ATOM     15  CA  MET E 182       4.927 -31.165  25.257  1.00 43.88 LIG 0.16  C 
BRANCH 15 16
ATOM     16  CB  MET E 182       5.719 -31.256  26.561  1.00 44.38 LIG 0.04  C 
BRANCH 16 17
ATOM     17  CG  MET E 182       6.945 -30.365  26.595  1.00 63.17 LIG 0.08  C 
BRANCH 17 18
ATOM     18 SD   MET E 182       6.782 -28.924  25.527  1.00101.17 LIG-0.17  SA
ATOM     19  CE  MET E 182       8.224 -29.119  24.481  1.00 68.91 LIG 0.09  C 
ENDBRANCH 17 18
ENDBRANCH 16 17
ENDBRANCH 15 16
BRANCH 15 20
ATOM     20  C   MET E 182       4.608 -32.568  24.735  1.00 60.82 LIG 0.22  C 
ATOM     21 O    MET E 182       5.159 -33.015  23.724  1.00 58.83 LIG-0.29  OA
ENDBRANCH 15 20
ENDBRANCH 13 15
ENDBRANCH 10 11
BRANCH 10 22
ATOM     22  CB  ASP E 181       1.294 -28.237  23.933  1.00 40.72 LIG 0.15  C 
BRANCH 22 23
ATOM     23  CG  ASP E 181       0.248 -27.186  24.241  1.00 40.82 LIG 0.17  C 
ATOM     24 OD1  ASP E 181      -0.121 -26.411  23.330  1.00 47.44 LIG-0.65  OA
ATOM     25 OD2  ASP E 181      -0.212 -27.149  25.400  1.00 24.37 LIG-0.65  OA
ENDBRANCH 22 23
ENDBRANCH 10 22
ENDBRANCH 8 10
ENDBRANCH 1 6
BRANCH 1 26
ATOM     26  N   ASP E 180       2.197 -25.534  28.024  1.00 48.48 LIG-0.34  N 
ATOM     27  C   ASP E 179       1.983 -24.443  28.763  1.00 52.76 LIG 0.24  C 
ATOM     28 O    ASP E 179       2.866 -23.792  29.321  1.00 54.54 LIG-0.27  OA
ATOM     29 H    ASP E 180       1.551 -25.973  27.664  1.00 48.48 LIG 0.16  HD
BRANCH 27 30
ATOM     30  CA  ASP E 179       0.516 -24.032  28.881  1.00 62.98 LIG 0.19  C 
BRANCH 30 31
ATOM     31  N   ASP E 179       0.073 -23.663  30.228  1.00 68.60 LIG-0.34  N 
ATOM     32  C   VAL E 178       0.290 -24.429  31.297  1.00 59.78 LIG 0.26  C 
ATOM     33 O    VAL E 178       0.678 -25.596  31.222  1.00 49.42 LIG-0.27  OA
ATOM     34 H    ASP E 179      -0.338 -22.909  30.264  1.00 68.60 LIG 0.16  HD
BRANCH 32 35
ATOM     35  CA  VAL E 178      -0.005 -23.785  32.655  1.00 59.92 LIG 0.40  C 
ATOM     36  N   VAL E 178      -0.358 -24.778  33.664  1.00 55.12 LIG 0.61  N 
BRANCH 35 37
ATOM     37  CB  VAL E 178       1.224 -22.947  33.094  1.00 50.97 LIG 0.03  C 
ATOM     38  CG2 VAL E 178       1.159 -21.537  32.525  1.00 47.22 LIG 0.01  C 
ATOM     39  CG1 VAL E 178       2.503 -23.633  32.663  1.00 50.59 LIG 0.01  C 
ENDBRANCH 35 37
ENDBRANCH 32 35
ENDBRANCH 30 31
BRANCH 30 40
ATOM     40  CB  ASP E 179       0.263 -22.868  27.923  1.00 47.75 LIG 0.15  C 
BRANCH 40 41
ATOM     41  CG  ASP E 179      -1.199 -22.509  27.828  1.00 48.80 LIG 0.17  C 
ATOM     42 OD2  ASP E 179      -1.548 -21.332  28.084  1.00 55.56 LIG-0.65  OA
ATOM     43 OD1  ASP E 179      -1.996 -23.408  27.494  1.00 40.87 LIG-0.65  OA
ENDBRANCH 40 41
ENDBRANCH 30 40
ENDBRANCH 27 30
ENDBRANCH 1 26
TORSDOF 19
ENDMDL
MODEL 119
USER: ADFR SOLUTION from run 125
USER: SCORE 12.506082 LL:  -3.147 LR: -11.098 RR:   0.000 FEB:  -5.430
USER: RMSD 8.748530
USER: SEED 124
USER: STATUS no improvement in best in 13 clusters for 5 generations
USER: GENES 21
USER: genes 0 Translation |==|  0.45343 0.45703 0.45949
USER: genes 1 Rotation |==|  0.22880 0.45401 0.08355 0.53004
USER: genes 2 Torsion [C]-CA--CB-[CG] |==|  0.51364
USER: genes 3 Torsion [CA]-CB--CG-[OD1] |==|  0.55190
USER: genes 4 Torsion [N]-CA--C-[N] |==|  0.78454
USER: genes 5 Torsion [C]-N--CA-[CB] |==|  0.82784
USER: genes 6 Torsion [N]-CA--C-[N] |==|  0.38858
USER: genes 7 Torsion [C]-N--CA-[CB] |==|  0.37050
USER: genes 8 Torsion [N]-CA--CB-[CG] |==|  0.77972
USER: genes 9 Torsion [CA]-CB--CG-[SD] |==|  0.85033
USER: genes 10 Torsion [CB]-CG--SD-[CE] |==|  0.71037
USER: genes 11 Torsion [N]-CA--C-[O] |==|  0.03242
USER: genes 12 Torsion [N]-CA--CB-[CG] |==|  0.76943
USER: genes 13 Torsion [CA]-CB--CG-[OD1] |==|  0.47912
USER: genes 14 Torsion [CB]-CA--N-[C] |==|  0.36843
USER: genes 15 Torsion [N]-C--CA-[N] |==|  0.90116
USER: genes 16 Torsion [C]-CA--N-[C] |==|  0.84442
USER: genes 17 Torsion [N]-C--CA-[N] |==|  0.82449
USER: genes 18 Torsion [C]-CA--CB-[CG2] |==|  0.75343
USER: genes 19 Torsion [C]-CA--CB-[CG] |==|  0.60808
USER: genes 20 Torsion [CA]-CB--CG-[OD2] |==|  0.73713
ROOT
ATOM      1  CA  ASP E 180       1.529 -28.245  25.711  1.00 46.29 LIG 0.19  C 
ENDROOT
BRANCH 1 2
ATOM      2  CB  ASP E 180       1.442 -27.539  24.361  1.00 53.57 LIG 0.15  C 
BRANCH 2 3
ATOM      3  CG  ASP E 180       0.023 -27.185  23.983  1.00 52.91 LIG 0.17  C 
ATOM      4 OD1  ASP E 180      -0.227 -26.936  22.783  1.00 53.16 LIG-0.65  OA
ATOM      5 OD2  ASP E 180      -0.843 -27.161  24.882  1.00 39.91 LIG-0.65  OA
ENDBRANCH 2 3
ENDBRANCH 1 2
BRANCH 1 6
ATOM      6  C   ASP E 180       3.000 -28.466  26.090  1.00 46.16 LIG 0.24  C 
ATOM      7 O    ASP E 180       3.377 -29.555  26.527  1.00 47.92 LIG-0.27  OA
ATOM      8  N   ASP E 181       3.834 -27.444  25.926  1.00 48.75 LIG-0.34  N 
ATOM      9 H    ASP E 181       3.599 -26.657  25.671  1.00 48.75 LIG 0.16  HD
BRANCH 8 10
ATOM     10  CA  ASP E 181       5.260 -27.612  26.185  1.00 45.01 LIG 0.19  C 
BRANCH 10 11
ATOM     11  C   ASP E 181       5.911 -28.653  25.279  1.00 47.33 LIG 0.24  C 
ATOM     12 O    ASP E 181       5.342 -29.719  25.008  1.00 41.27 LIG-0.27  OA
ATOM     13  N   MET E 182       7.122 -28.333  24.833  1.00 63.00 LIG-0.35  N 
ATOM     14 H    MET E 182       7.541 -27.622  25.073  1.00 63.00 LIG 0.16  HD
BRANCH 13 15
ATOM     15  CA  MET E 182       7.858 -29.160  23.889  1.00 43.88 LIG 0.16  C 
BRANCH 15 16
ATOM     16  CB  MET E 182       8.439 -28.291  22.774  1.00 44.38 LIG 0.04  C 
BRANCH 16 17
ATOM     17  CG  MET E 182       7.432 -27.911  21.707  1.00 63.17 LIG 0.08  C 
BRANCH 17 18
ATOM     18 SD   MET E 182       6.598 -29.344  21.002  1.00101.17 LIG-0.17  SA
ATOM     19  CE  MET E 182       7.430 -29.471  19.421  1.00 68.91 LIG 0.09  C 
ENDBRANCH 17 18
ENDBRANCH 16 17
ENDBRANCH 15 16
BRANCH 15 20
ATOM     20  C   MET E 182       8.974 -29.944  24.582  1.00 60.82 LIG 0.22  C 
ATOM     21 O    MET E 182       9.040 -30.009  25.814  1.00 58.83 LIG-0.29  OA
ENDBRANCH 15 20
ENDBRANCH 13 15
ENDBRANCH 10 11
BRANCH 10 22
ATOM     22  CB  ASP E 181       5.485 -27.978  27.651  1.00 40.72 LIG 0.15  C 
BRANCH 22 23
ATOM     23  CG  ASP E 181       5.502 -26.760  28.551  1.00 40.82 LIG 0.17  C 
ATOM     24 OD1  ASP E 181       5.535 -26.922  29.792  1.00 47.44 LIG-0.65  OA
ATOM     25 OD2  ASP E 181       5.493 -25.638  28.007  1.00 24.37 LIG-0.65  OA
ENDBRANCH 22 23
ENDBRANCH 10 22
ENDBRANCH 8 10
ENDBRANCH 1 6
BRANCH 1 26
ATOM     26  N   ASP E 180       0.861 -27.480  26.768  1.00 48.48 LIG-0.34  N 
ATOM     27  C   ASP E 179       0.002 -27.977  27.661  1.00 52.76 LIG 0.24  C 
ATOM     28 O    ASP E 179      -0.366 -29.151  27.700  1.00 54.54 LIG-0.27  OA
ATOM     29 H    ASP E 180       1.081 -26.649  26.762  1.00 48.48 LIG 0.16  HD
BRANCH 27 30
ATOM     30  CA  ASP E 179      -0.520 -26.960  28.675  1.00 62.98 LIG 0.19  C 
BRANCH 30 31
ATOM     31  N   ASP E 179       0.446 -25.942  29.098  1.00 68.60 LIG-0.34  N 
ATOM     32  C   VAL E 178       1.632 -26.244  29.627  1.00 59.78 LIG 0.26  C 
ATOM     33 O    VAL E 178       1.932 -27.378  30.006  1.00 49.42 LIG-0.27  OA
ATOM     34 H    ASP E 179       0.177 -25.135  28.974  1.00 68.60 LIG 0.16  HD
BRANCH 32 35
ATOM     35  CA  VAL E 178       2.617 -25.080  29.774  1.00 59.92 LIG 0.40  C 
ATOM     36  N   VAL E 178       2.988 -24.515  28.480  1.00 55.12 LIG 0.61  N 
BRANCH 35 37
ATOM     37  CB  VAL E 178       1.994 -24.005  30.702  1.00 50.97 LIG 0.03  C 
ATOM     38  CG2 VAL E 178       1.165 -23.006  29.908  1.00 47.22 LIG 0.01  C 
ATOM     39  CG1 VAL E 178       3.082 -23.294  31.478  1.00 50.59 LIG 0.01  C 
ENDBRANCH 35 37
ENDBRANCH 32 35
ENDBRANCH 30 31
BRANCH 30 40
ATOM     40  CB  ASP E 179      -1.754 -26.279  28.086  1.00 47.75 LIG 0.15  C 
BRANCH 40 41
ATOM     41  CG  ASP E 179      -1.807 -24.807  28.407  1.00 48.80 LIG 0.17  C 
ATOM     42 OD2  ASP E 179      -2.465 -24.432  29.408  1.00 55.56 LIG-0.65  OA
ATOM     43 OD1  ASP E 179      -1.188 -24.027  27.656  1.00 40.87 LIG-0.65  OA
ENDBRANCH 40 41
ENDBRANCH 30 40
ENDBRANCH 27 30
ENDBRANCH 1 26
TORSDOF 19
ENDMDL
MODEL 120
USER: ADFR SOLUTION from run 102
USER: SCORE 11.836653 LL:  -3.240 LR: -11.102 RR:   0.000 FEB:  -5.435
USER: RMSD 9.637487
USER: SEED 101
USER: STATUS no improvement in best in 14 clusters for 5 generations
USER: GENES 21
USER: genes 0 Translation |==|  0.51148 0.65957 0.60413
USER: genes 1 Rotation |==|  0.45993 0.16180 0.86490 0.52939
USER: genes 2 Torsion [C]-CA--CB-[CG] |==|  0.10471
USER: genes 3 Torsion [CA]-CB--CG-[OD1] |==|  0.14217
USER: genes 4 Torsion [N]-CA--C-[N] |==|  0.32914
USER: genes 5 Torsion [C]-N--CA-[CB] |==|  0.25977
USER: genes 6 Torsion [N]-CA--C-[N] |==|  0.21792
USER: genes 7 Torsion [C]-N--CA-[CB] |==|  0.48692
USER: genes 8 Torsion [N]-CA--CB-[CG] |==|  0.43082
USER: genes 9 Torsion [CA]-CB--CG-[SD] |==|  0.26624
USER: genes 10 Torsion [CB]-CG--SD-[CE] |==|  0.75460
USER: genes 11 Torsion [N]-CA--C-[O] |==|  0.30221
USER: genes 12 Torsion [N]-CA--CB-[CG] |==|  0.06314
USER: genes 13 Torsion [CA]-CB--CG-[OD1] |==|  0.27499
USER: genes 14 Torsion [CB]-CA--N-[C] |==|  0.26353
USER: genes 15 Torsion [N]-C--CA-[N] |==|  0.89257
USER: genes 16 Torsion [C]-CA--N-[C] |==|  0.82589
USER: genes 17 Torsion [N]-C--CA-[N] |==|  0.57110
USER: genes 18 Torsion [C]-CA--CB-[CG2] |==|  0.74523
USER: genes 19 Torsion [C]-CA--CB-[CG] |==|  0.21232
USER: genes 20 Torsion [CA]-CB--CG-[OD2] |==|  0.58896
ROOT
ATOM      1  CA  ASP E 180       2.792 -24.903  28.640  1.00 46.29 LIG 0.19  C 
ENDROOT
BRANCH 1 2
ATOM      2  CB  ASP E 180       4.038 -24.626  29.474  1.00 53.57 LIG 0.15  C 
BRANCH 2 3
ATOM      3  CG  ASP E 180       5.250 -25.374  28.972  1.00 52.91 LIG 0.17  C 
ATOM      4 OD1  ASP E 180       5.543 -25.286  27.758  1.00 53.16 LIG-0.65  OA
ATOM      5 OD2  ASP E 180       5.915 -26.043  29.789  1.00 39.91 LIG-0.65  OA
ENDBRANCH 2 3
ENDBRANCH 1 2
BRANCH 1 6
ATOM      6  C   ASP E 180       2.769 -26.376  28.210  1.00 46.16 LIG 0.24  C 
ATOM      7 O    ASP E 180       2.725 -27.274  29.053  1.00 47.92 LIG-0.27  OA
ATOM      8  N   ASP E 181       2.798 -26.633  26.906  1.00 48.75 LIG-0.34  N 
ATOM      9 H    ASP E 181       2.878 -26.037  26.292  1.00 48.75 LIG 0.16  HD
BRANCH 8 10
ATOM     10  CA  ASP E 181       2.692 -28.007  26.426  1.00 45.01 LIG 0.19  C 
BRANCH 10 11
ATOM     11  C   ASP E 181       3.564 -28.280  25.204  1.00 47.33 LIG 0.24  C 
ATOM     12 O    ASP E 181       3.081 -28.336  24.065  1.00 41.27 LIG-0.27  OA
ATOM     13  N   MET E 182       4.854 -28.468  25.464  1.00 63.00 LIG-0.35  N 
ATOM     14 H    MET E 182       5.177 -28.493  26.261  1.00 63.00 LIG 0.16  HD
BRANCH 13 15
ATOM     15  CA  MET E 182       5.851 -28.652  24.419  1.00 43.88 LIG 0.16  C 
BRANCH 15 16
ATOM     16  CB  MET E 182       7.247 -28.726  25.035  1.00 44.38 LIG 0.04  C 
BRANCH 16 17
ATOM     17  CG  MET E 182       8.251 -29.481  24.187  1.00 63.17 LIG 0.08  C 
BRANCH 17 18
ATOM     18 SD   MET E 182       9.241 -28.389  23.151  1.00101.17 LIG-0.17  SA
ATOM     19  CE  MET E 182       8.207 -28.286  21.691  1.00 68.91 LIG 0.09  C 
ENDBRANCH 17 18
ENDBRANCH 16 17
ENDBRANCH 15 16
BRANCH 15 20
ATOM     20  C   MET E 182       5.571 -29.909  23.594  1.00 60.82 LIG 0.22  C 
ATOM     21 O    MET E 182       5.167 -29.833  22.428  1.00 58.83 LIG-0.29  OA
ENDBRANCH 15 20
ENDBRANCH 13 15
ENDBRANCH 10 11
BRANCH 10 22
ATOM     22  CB  ASP E 181       1.233 -28.339  26.114  1.00 40.72 LIG 0.15  C 
BRANCH 22 23
ATOM     23  CG  ASP E 181       0.407 -27.099  25.844  1.00 40.82 LIG 0.17  C 
ATOM     24 OD1  ASP E 181       0.178 -26.767  24.659  1.00 47.44 LIG-0.65  OA
ATOM     25 OD2  ASP E 181      -0.021 -26.463  26.828  1.00 24.37 LIG-0.65  OA
ENDBRANCH 22 23
ENDBRANCH 10 22
ENDBRANCH 8 10
ENDBRANCH 1 6
BRANCH 1 26
ATOM     26  N   ASP E 180       1.564 -24.590  29.377  1.00 48.48 LIG-0.34  N 
ATOM     27  C   ASP E 179       0.893 -23.437  29.313  1.00 52.76 LIG 0.24  C 
ATOM     28 O    ASP E 179       1.234 -22.465  28.639  1.00 54.54 LIG-0.27  OA
ATOM     29 H    ASP E 180       1.303 -25.241  29.874  1.00 48.48 LIG 0.16  HD
BRANCH 27 30
ATOM     30  CA  ASP E 179      -0.377 -23.393  30.161  1.00 62.98 LIG 0.19  C 
BRANCH 30 31
ATOM     31  N   ASP E 179      -1.159 -24.632  30.188  1.00 68.60 LIG-0.34  N 
ATOM     32  C   VAL E 178      -1.720 -25.157  29.099  1.00 59.78 LIG 0.26  C 
ATOM     33 O    VAL E 178      -1.819 -24.549  28.031  1.00 49.42 LIG-0.27  OA
ATOM     34 H    ASP E 179      -1.221 -24.987  30.968  1.00 68.60 LIG 0.16  HD
BRANCH 32 35
ATOM     35  CA  VAL E 178      -2.278 -26.576  29.249  1.00 59.92 LIG 0.40  C 
ATOM     36  N   VAL E 178      -2.314 -27.285  27.974  1.00 55.12 LIG 0.61  N 
BRANCH 35 37
ATOM     37  CB  VAL E 178      -1.431 -27.343  30.298  1.00 50.97 LIG 0.03  C 
ATOM     38  CG2 VAL E 178      -0.289 -28.099  29.635  1.00 47.22 LIG 0.01  C 
ATOM     39  CG1 VAL E 178      -2.311 -28.293  31.083  1.00 50.59 LIG 0.01  C 
ENDBRANCH 35 37
ENDBRANCH 32 35
ENDBRANCH 30 31
BRANCH 30 40
ATOM     40  CB  ASP E 179       0.008 -23.003  31.588  1.00 47.75 LIG 0.15  C 
BRANCH 40 41
ATOM     41  CG  ASP E 179       0.303 -21.530  31.722  1.00 48.80 LIG 0.17  C 
ATOM     42 OD2  ASP E 179       1.162 -21.161  32.559  1.00 55.56 LIG-0.65  OA
ATOM     43 OD1  ASP E 179      -0.324 -20.743  30.985  1.00 40.87 LIG-0.65  OA
ENDBRANCH 40 41
ENDBRANCH 30 40
ENDBRANCH 27 30
ENDBRANCH 1 26
TORSDOF 19
ENDMDL
MODEL 121
USER: ADFR SOLUTION from run 70
USER: SCORE 11.737807 LL:  -2.687 LR: -11.089 RR:   0.000 FEB:  -5.421
USER: RMSD 9.008593
USER: SEED 69
USER: STATUS no improvement in best in 23 clusters for 5 generations
USER: GENES 21
USER: genes 0 Translation |==|  0.49610 0.59756 0.59183
USER: genes 1 Rotation |==|  0.42881 0.10032 0.79133 0.51759
USER: genes 2 Torsion [C]-CA--CB-[CG] |==|  0.18335
USER: genes 3 Torsion [CA]-CB--CG-[OD1] |==|  0.52926
USER: genes 4 Torsion [N]-CA--C-[N] |==|  0.23790
USER: genes 5 Torsion [C]-N--CA-[CB] |==|  0.50616
USER: genes 6 Torsion [N]-CA--C-[N] |==|  0.90340
USER: genes 7 Torsion [C]-N--CA-[CB] |==|  0.81906
USER: genes 8 Torsion [N]-CA--CB-[CG] |==|  0.84153
USER: genes 9 Torsion [CA]-CB--CG-[SD] |==|  0.45724
USER: genes 10 Torsion [CB]-CG--SD-[CE] |==|  0.61502
USER: genes 11 Torsion [N]-CA--C-[O] |==|  0.07457
USER: genes 12 Torsion [N]-CA--CB-[CG] |==|  0.80999
USER: genes 13 Torsion [CA]-CB--CG-[OD1] |==|  0.98772
USER: genes 14 Torsion [CB]-CA--N-[C] |==|  0.53335
USER: genes 15 Torsion [N]-C--CA-[N] |==|  0.89256
USER: genes 16 Torsion [C]-CA--N-[C] |==|  0.84003
USER: genes 17 Torsion [N]-C--CA-[N] |==|  0.44879
USER: genes 18 Torsion [C]-CA--CB-[CG2] |==|  0.22084
USER: genes 19 Torsion [C]-CA--CB-[CG] |==|  0.16041
USER: genes 20 Torsion [CA]-CB--CG-[OD2] |==|  0.74961
ROOT
ATOM      1  CA  ASP E 180       2.457 -25.926  28.391  1.00 46.29 LIG 0.19  C 
ENDROOT
BRANCH 1 2
ATOM      2  CB  ASP E 180       3.552 -26.059  29.444  1.00 53.57 LIG 0.15  C 
BRANCH 2 3
ATOM      3  CG  ASP E 180       4.939 -25.999  28.850  1.00 52.91 LIG 0.17  C 
ATOM      4 OD1  ASP E 180       5.912 -26.296  29.579  1.00 53.16 LIG-0.65  OA
ATOM      5 OD2  ASP E 180       5.058 -25.663  27.653  1.00 39.91 LIG-0.65  OA
ENDBRANCH 2 3
ENDBRANCH 1 2
BRANCH 1 6
ATOM      6  C   ASP E 180       2.482 -27.144  27.456  1.00 46.16 LIG 0.24  C 
ATOM      7 O    ASP E 180       2.881 -28.237  27.862  1.00 47.92 LIG-0.27  OA
ATOM      8  N   ASP E 181       2.058 -26.966  26.209  1.00 48.75 LIG-0.34  N 
ATOM      9 H    ASP E 181       1.819 -26.209  25.877  1.00 48.75 LIG 0.16  HD
BRANCH 8 10
ATOM     10  CA  ASP E 181       1.973 -28.099  25.293  1.00 45.01 LIG 0.19  C 
BRANCH 10 11
ATOM     11  C   ASP E 181       3.287 -28.866  25.172  1.00 47.33 LIG 0.24  C 
ATOM     12 O    ASP E 181       3.306 -30.096  25.032  1.00 41.27 LIG-0.27  OA
ATOM     13  N   MET E 182       4.383 -28.117  25.247  1.00 63.00 LIG-0.35  N 
ATOM     14 H    MET E 182       4.369 -27.273  25.408  1.00 63.00 LIG 0.16  HD
BRANCH 13 15
ATOM     15  CA  MET E 182       5.721 -28.660  25.062  1.00 43.88 LIG 0.16  C 
BRANCH 15 16
ATOM     16  CB  MET E 182       6.045 -29.646  26.184  1.00 44.38 LIG 0.04  C 
BRANCH 16 17
ATOM     17  CG  MET E 182       5.935 -29.050  27.573  1.00 63.17 LIG 0.08  C 
BRANCH 17 18
ATOM     18 SD   MET E 182       5.882 -30.307  28.863  1.00101.17 LIG-0.17  SA
ATOM     19  CE  MET E 182       4.623 -29.626  29.941  1.00 68.91 LIG 0.09  C 
ENDBRANCH 17 18
ENDBRANCH 16 17
ENDBRANCH 15 16
BRANCH 15 20
ATOM     20  C   MET E 182       5.865 -29.343  23.701  1.00 60.82 LIG 0.22  C 
ATOM     21 O    MET E 182       5.170 -29.004  22.738  1.00 58.83 LIG-0.29  OA
ENDBRANCH 15 20
ENDBRANCH 13 15
ENDBRANCH 10 11
BRANCH 10 22
ATOM     22  CB  ASP E 181       1.514 -27.624  23.916  1.00 40.72 LIG 0.15  C 
BRANCH 22 23
ATOM     23  CG  ASP E 181       0.076 -27.149  23.922  1.00 40.82 LIG 0.17  C 
ATOM     24 OD1  ASP E 181      -0.597 -27.263  24.971  1.00 47.44 LIG-0.65  OA
ATOM     25 OD2  ASP E 181      -0.373 -26.649  22.872  1.00 24.37 LIG-0.65  OA
ENDBRANCH 22 23
ENDBRANCH 10 22
ENDBRANCH 8 10
ENDBRANCH 1 6
BRANCH 1 26
ATOM     26  N   ASP E 180       1.129 -25.804  29.000  1.00 48.48 LIG-0.34  N 
ATOM     27  C   ASP E 179      -0.034 -25.899  28.352  1.00 52.76 LIG 0.24  C 
ATOM     28 O    ASP E 179      -0.147 -26.080  27.139  1.00 54.54 LIG-0.27  OA
ATOM     29 H    ASP E 180       1.167 -25.659  29.846  1.00 48.48 LIG 0.16  HD
BRANCH 27 30
ATOM     30  CA  ASP E 179      -1.270 -25.766  29.240  1.00 62.98 LIG 0.19  C 
BRANCH 30 31
ATOM     31  N   ASP E 179      -1.171 -26.407  30.554  1.00 68.60 LIG-0.34  N 
ATOM     32  C   VAL E 178      -0.914 -27.706  30.708  1.00 59.78 LIG 0.26  C 
ATOM     33 O    VAL E 178      -0.953 -28.516  29.781  1.00 49.42 LIG-0.27  OA
ATOM     34 H    ASP E 179      -1.294 -25.869  31.213  1.00 68.60 LIG 0.16  HD
BRANCH 32 35
ATOM     35  CA  VAL E 178      -0.591 -28.161  32.135  1.00 59.92 LIG 0.40  C 
ATOM     36  N   VAL E 178      -0.748 -29.603  32.296  1.00 55.12 LIG 0.61  N 
BRANCH 35 37
ATOM     37  CB  VAL E 178       0.847 -27.706  32.497  1.00 50.97 LIG 0.03  C 
ATOM     38  CG2 VAL E 178       0.876 -26.236  32.889  1.00 47.22 LIG 0.01  C 
ATOM     39  CG1 VAL E 178       1.782 -27.963  31.334  1.00 50.59 LIG 0.01  C 
ENDBRANCH 35 37
ENDBRANCH 32 35
ENDBRANCH 30 31
BRANCH 30 40
ATOM     40  CB  ASP E 179      -1.578 -24.280  29.419  1.00 47.75 LIG 0.15  C 
BRANCH 40 41
ATOM     41  CG  ASP E 179      -1.800 -23.575  28.104  1.00 48.80 LIG 0.17  C 
ATOM     42 OD2  ASP E 179      -0.814 -23.062  27.522  1.00 55.56 LIG-0.65  OA
ATOM     43 OD1  ASP E 179      -2.962 -23.540  27.654  1.00 40.87 LIG-0.65  OA
ENDBRANCH 40 41
ENDBRANCH 30 40
ENDBRANCH 27 30
ENDBRANCH 1 26
TORSDOF 19
ENDMDL
MODEL 122
USER: ADFR SOLUTION from run 162
USER: SCORE 12.438961 LL:  -2.500 LR: -11.093 RR:   0.000 FEB:  -5.425
USER: RMSD 9.466920
USER: SEED 161
USER: STATUS searching
USER: GENES 21
USER: genes 0 Translation |==|  0.53925 0.58747 0.54959
USER: genes 1 Rotation |==|  0.68130 0.85992 0.20435 0.51334
USER: genes 2 Torsion [C]-CA--CB-[CG] |==|  0.29138
USER: genes 3 Torsion [CA]-CB--CG-[OD1] |==|  0.01397
USER: genes 4 Torsion [N]-CA--C-[N] |==|  0.08892
USER: genes 5 Torsion [C]-N--CA-[CB] |==|  0.47487
USER: genes 6 Torsion [N]-CA--C-[N] |==|  0.43426
USER: genes 7 Torsion [C]-N--CA-[CB] |==|  0.28764
USER: genes 8 Torsion [N]-CA--CB-[CG] |==|  0.71566
USER: genes 9 Torsion [CA]-CB--CG-[SD] |==|  0.25444
USER: genes 10 Torsion [CB]-CG--SD-[CE] |==|  0.65778
USER: genes 11 Torsion [N]-CA--C-[O] |==|  0.97191
USER: genes 12 Torsion [N]-CA--CB-[CG] |==|  0.01256
USER: genes 13 Torsion [CA]-CB--CG-[OD1] |==|  0.82940
USER: genes 14 Torsion [CB]-CA--N-[C] |==|  0.15649
USER: genes 15 Torsion [N]-C--CA-[N] |==|  0.22331
USER: genes 16 Torsion [C]-CA--N-[C] |==|  0.75241
USER: genes 17 Torsion [N]-C--CA-[N] |==|  0.34978
USER: genes 18 Torsion [C]-CA--CB-[CG2] |==|  0.08186
USER: genes 19 Torsion [C]-CA--CB-[CG] |==|  0.43112
USER: genes 20 Torsion [CA]-CB--CG-[OD2] |==|  0.03255
ROOT
ATOM      1  CA  ASP E 180       3.396 -26.093  27.535  1.00 46.29 LIG 0.19  C 
ENDROOT
BRANCH 1 2
ATOM      2  CB  ASP E 180       3.999 -26.315  28.918  1.00 53.57 LIG 0.15  C 
BRANCH 2 3
ATOM      3  CG  ASP E 180       5.426 -25.828  29.014  1.00 52.91 LIG 0.17  C 
ATOM      4 OD1  ASP E 180       5.917 -25.229  28.031  1.00 53.16 LIG-0.65  OA
ATOM      5 OD2  ASP E 180       6.054 -26.036  30.072  1.00 39.91 LIG-0.65  OA
ENDBRANCH 2 3
ENDBRANCH 1 2
BRANCH 1 6
ATOM      6  C   ASP E 180       3.327 -27.425  26.776  1.00 46.16 LIG 0.24  C 
ATOM      7 O    ASP E 180       4.096 -28.346  27.057  1.00 47.92 LIG-0.27  OA
ATOM      8  N   ASP E 181       2.412 -27.536  25.818  1.00 48.75 LIG-0.34  N 
ATOM      9 H    ASP E 181       1.893 -26.901  25.562  1.00 48.75 LIG 0.16  HD
BRANCH 8 10
ATOM     10  CA  ASP E 181       2.234 -28.803  25.116  1.00 45.01 LIG 0.19  C 
BRANCH 10 11
ATOM     11  C   ASP E 181       3.449 -29.197  24.281  1.00 47.33 LIG 0.24  C 
ATOM     12 O    ASP E 181       4.247 -28.349  23.861  1.00 41.27 LIG-0.27  OA
ATOM     13  N   MET E 182       3.562 -30.499  24.033  1.00 63.00 LIG-0.35  N 
ATOM     14 H    MET E 182       2.974 -31.079  24.270  1.00 63.00 LIG 0.16  HD
BRANCH 13 15
ATOM     15  CA  MET E 182       4.702 -31.070  23.330  1.00 43.88 LIG 0.16  C 
BRANCH 15 16
ATOM     16  CB  MET E 182       5.638 -31.757  24.324  1.00 44.38 LIG 0.04  C 
BRANCH 16 17
ATOM     17  CG  MET E 182       6.875 -30.947  24.659  1.00 63.17 LIG 0.08  C 
BRANCH 17 18
ATOM     18 SD   MET E 182       6.641 -29.893  26.101  1.00101.17 LIG-0.17  SA
ATOM     19  CE  MET E 182       7.025 -28.286  25.406  1.00 68.91 LIG 0.09  C 
ENDBRANCH 17 18
ENDBRANCH 16 17
ENDBRANCH 15 16
BRANCH 15 20
ATOM     20  C   MET E 182       4.256 -32.062  22.254  1.00 60.82 LIG 0.22  C 
ATOM     21 O    MET E 182       3.082 -32.441  22.180  1.00 58.83 LIG-0.29  OA
ENDBRANCH 15 20
ENDBRANCH 13 15
ENDBRANCH 10 11
BRANCH 10 22
ATOM     22  CB  ASP E 181       0.989 -28.740  24.233  1.00 40.72 LIG 0.15  C 
BRANCH 22 23
ATOM     23  CG  ASP E 181       0.351 -27.366  24.238  1.00 40.82 LIG 0.17  C 
ATOM     24 OD1  ASP E 181      -0.079 -26.901  25.318  1.00 47.44 LIG-0.65  OA
ATOM     25 OD2  ASP E 181       0.292 -26.751  23.156  1.00 24.37 LIG-0.65  OA
ENDBRANCH 22 23
ENDBRANCH 10 22
ENDBRANCH 8 10
ENDBRANCH 1 6
BRANCH 1 26
ATOM     26  N   ASP E 180       2.055 -25.505  27.616  1.00 48.48 LIG-0.34  N 
ATOM     27  C   ASP E 179       1.743 -24.364  28.234  1.00 52.76 LIG 0.24  C 
ATOM     28 O    ASP E 179       2.545 -23.659  28.847  1.00 54.54 LIG-0.27  OA
ATOM     29 H    ASP E 180       1.463 -25.980  27.212  1.00 48.48 LIG 0.16  HD
BRANCH 27 30
ATOM     30  CA  ASP E 179       0.271 -23.967  28.133  1.00 62.98 LIG 0.19  C 
BRANCH 30 31
ATOM     31  N   ASP E 179      -0.630 -24.649  29.066  1.00 68.60 LIG-0.34  N 
ATOM     32  C   VAL E 178      -1.228 -25.805  28.781  1.00 59.78 LIG 0.26  C 
ATOM     33 O    VAL E 178      -1.256 -26.289  27.648  1.00 49.42 LIG-0.27  OA
ATOM     34 H    ASP E 179      -0.735 -24.234  29.812  1.00 68.60 LIG 0.16  HD
BRANCH 32 35
ATOM     35  CA  VAL E 178      -1.926 -26.506  29.951  1.00 59.92 LIG 0.40  C 
ATOM     36  N   VAL E 178      -3.322 -26.807  29.651  1.00 55.12 LIG 0.61  N 
BRANCH 35 37
ATOM     37  CB  VAL E 178      -1.136 -27.791  30.313  1.00 50.97 LIG 0.03  C 
ATOM     38  CG2 VAL E 178       0.344 -27.635  29.993  1.00 47.22 LIG 0.01  C 
ATOM     39  CG1 VAL E 178      -1.714 -28.982  29.579  1.00 50.59 LIG 0.01  C 
ENDBRANCH 35 37
ENDBRANCH 32 35
ENDBRANCH 30 31
BRANCH 30 40
ATOM     40  CB  ASP E 179       0.164 -22.456  28.331  1.00 47.75 LIG 0.15  C 
BRANCH 40 41
ATOM     41  CG  ASP E 179      -1.070 -21.877  27.687  1.00 48.80 LIG 0.17  C 
ATOM     42 OD2  ASP E 179      -1.960 -22.661  27.276  1.00 55.56 LIG-0.65  OA
ATOM     43 OD1  ASP E 179      -1.148 -20.635  27.594  1.00 40.87 LIG-0.65  OA
ENDBRANCH 40 41
ENDBRANCH 30 40
ENDBRANCH 27 30
ENDBRANCH 1 26
TORSDOF 19
ENDMDL
MODEL 123
USER: ADFR SOLUTION from run 35
USER: SCORE 12.635382 LL:  -1.803 LR: -11.087 RR:   0.000 FEB:  -5.419
USER: RMSD 8.622130
USER: SEED 34
USER: STATUS no improvement in best in 15 clusters for 5 generations
USER: GENES 21
USER: genes 0 Translation |==|  0.45241 0.49436 0.41678
USER: genes 1 Rotation |==|  0.69025 0.84966 0.38209 0.77864
USER: genes 2 Torsion [C]-CA--CB-[CG] |==|  0.46447
USER: genes 3 Torsion [CA]-CB--CG-[OD1] |==|  0.77932
USER: genes 4 Torsion [N]-CA--C-[N] |==|  0.37271
USER: genes 5 Torsion [C]-N--CA-[CB] |==|  0.83888
USER: genes 6 Torsion [N]-CA--C-[N] |==|  0.35023
USER: genes 7 Torsion [C]-N--CA-[CB] |==|  0.81112
USER: genes 8 Torsion [N]-CA--CB-[CG] |==|  0.42914
USER: genes 9 Torsion [CA]-CB--CG-[SD] |==|  0.74109
USER: genes 10 Torsion [CB]-CG--SD-[CE] |==|  0.89777
USER: genes 11 Torsion [N]-CA--C-[O] |==|  0.20995
USER: genes 12 Torsion [N]-CA--CB-[CG] |==|  0.64733
USER: genes 13 Torsion [CA]-CB--CG-[OD1] |==|  0.02480
USER: genes 14 Torsion [CB]-CA--N-[C] |==|  0.84998
USER: genes 15 Torsion [N]-C--CA-[N] |==|  0.42782
USER: genes 16 Torsion [C]-CA--N-[C] |==|  0.56216
USER: genes 17 Torsion [N]-C--CA-[N] |==|  0.42261
USER: genes 18 Torsion [C]-CA--CB-[CG2] |==|  0.14607
USER: genes 19 Torsion [C]-CA--CB-[CG] |==|  0.19893
USER: genes 20 Torsion [CA]-CB--CG-[OD2] |==|  0.02930
ROOT
ATOM      1  CA  ASP E 180       1.507 -27.629  24.846  1.00 46.29 LIG 0.19  C 
ENDROOT
BRANCH 1 2
ATOM      2  CB  ASP E 180       0.684 -28.103  26.040  1.00 53.57 LIG 0.15  C 
BRANCH 2 3
ATOM      3  CG  ASP E 180      -0.449 -27.161  26.373  1.00 52.91 LIG 0.17  C 
ATOM      4 OD1  ASP E 180      -0.189 -26.122  27.019  1.00 53.16 LIG-0.65  OA
ATOM      5 OD2  ASP E 180      -1.598 -27.456  25.985  1.00 39.91 LIG-0.65  OA
ENDBRANCH 2 3
ENDBRANCH 1 2
BRANCH 1 6
ATOM      6  C   ASP E 180       2.809 -28.437  24.756  1.00 46.16 LIG 0.24  C 
ATOM      7 O    ASP E 180       2.805 -29.584  24.307  1.00 47.92 LIG-0.27  OA
ATOM      8  N   ASP E 181       3.923 -27.848  25.179  1.00 48.75 LIG-0.34  N 
ATOM      9 H    ASP E 181       3.958 -27.070  25.543  1.00 48.75 LIG 0.16  HD
BRANCH 8 10
ATOM     10  CA  ASP E 181       5.209 -28.526  25.042  1.00 45.01 LIG 0.19  C 
BRANCH 10 11
ATOM     11  C   ASP E 181       5.622 -28.730  23.587  1.00 47.33 LIG 0.24  C 
ATOM     12 O    ASP E 181       4.882 -29.308  22.781  1.00 41.27 LIG-0.27  OA
ATOM     13  N   MET E 182       6.827 -28.262  23.274  1.00 63.00 LIG-0.35  N 
ATOM     14 H    MET E 182       7.365 -27.919  23.850  1.00 63.00 LIG 0.16  HD
BRANCH 13 15
ATOM     15  CA  MET E 182       7.353 -28.286  21.917  1.00 43.88 LIG 0.16  C 
BRANCH 15 16
ATOM     16  CB  MET E 182       7.614 -29.728  21.483  1.00 44.38 LIG 0.04  C 
BRANCH 16 17
ATOM     17  CG  MET E 182       7.565 -29.933  19.982  1.00 63.17 LIG 0.08  C 
BRANCH 17 18
ATOM     18 SD   MET E 182       5.936 -30.440  19.406  1.00101.17 LIG-0.17  SA
ATOM     19  CE  MET E 182       5.421 -31.504  20.753  1.00 68.91 LIG 0.09  C 
ENDBRANCH 17 18
ENDBRANCH 16 17
ENDBRANCH 15 16
BRANCH 15 20
ATOM     20  C   MET E 182       6.399 -27.603  20.935  1.00 60.82 LIG 0.22  C 
ATOM     21 O    MET E 182       6.303 -26.372  20.888  1.00 58.83 LIG-0.29  OA
ENDBRANCH 15 20
ENDBRANCH 13 15
ENDBRANCH 10 11
BRANCH 10 22
ATOM     22  CB  ASP E 181       5.170 -29.869  25.769  1.00 40.72 LIG 0.15  C 
BRANCH 22 23
ATOM     23  CG  ASP E 181       6.315 -30.024  26.749  1.00 40.82 LIG 0.17  C 
ATOM     24 OD1  ASP E 181       7.042 -29.036  26.995  1.00 47.44 LIG-0.65  OA
ATOM     25 OD2  ASP E 181       6.475 -31.141  27.281  1.00 24.37 LIG-0.65  OA
ENDBRANCH 22 23
ENDBRANCH 10 22
ENDBRANCH 8 10
ENDBRANCH 1 6
BRANCH 1 26
ATOM     26  N   ASP E 180       0.763 -27.758  23.589  1.00 48.48 LIG-0.34  N 
ATOM     27  C   ASP E 179       0.187 -28.876  23.138  1.00 52.76 LIG 0.24  C 
ATOM     28 O    ASP E 179       0.226 -29.963  23.715  1.00 54.54 LIG-0.27  OA
ATOM     29 H    ASP E 180       0.730 -27.021  23.149  1.00 48.48 LIG 0.16  HD
BRANCH 27 30
ATOM     30  CA  ASP E 179      -0.554 -28.719  21.812  1.00 62.98 LIG 0.19  C 
BRANCH 30 31
ATOM     31  N   ASP E 179      -0.674 -29.941  21.011  1.00 68.60 LIG-0.34  N 
ATOM     32  C   VAL E 178      -0.881 -29.925  19.695  1.00 59.78 LIG 0.26  C 
ATOM     33 O    VAL E 178      -1.205 -28.911  19.074  1.00 49.42 LIG-0.27  OA
ATOM     34 H    ASP E 179      -0.598 -30.665  21.468  1.00 68.60 LIG 0.16  HD
BRANCH 32 35
ATOM     35  CA  VAL E 178      -0.725 -31.269  18.975  1.00 59.92 LIG 0.40  C 
ATOM     36  N   VAL E 178      -1.550 -31.342  17.774  1.00 55.12 LIG 0.61  N 
BRANCH 35 37
ATOM     37  CB  VAL E 178       0.774 -31.494  18.646  1.00 50.97 LIG 0.03  C 
ATOM     38  CG2 VAL E 178       1.639 -31.332  19.887  1.00 47.22 LIG 0.01  C 
ATOM     39  CG1 VAL E 178       1.218 -30.536  17.562  1.00 50.59 LIG 0.01  C 
ENDBRANCH 35 37
ENDBRANCH 32 35
ENDBRANCH 30 31
BRANCH 30 40
ATOM     40  CB  ASP E 179      -1.947 -28.159  22.101  1.00 47.75 LIG 0.15  C 
BRANCH 40 41
ATOM     41  CG  ASP E 179      -1.909 -26.712  22.521  1.00 48.80 LIG 0.17  C 
ATOM     42 OD2  ASP E 179      -0.833 -26.077  22.401  1.00 55.56 LIG-0.65  OA
ATOM     43 OD1  ASP E 179      -2.959 -26.211  22.971  1.00 40.87 LIG-0.65  OA
ENDBRANCH 40 41
ENDBRANCH 30 40
ENDBRANCH 27 30
ENDBRANCH 1 26
TORSDOF 19
ENDMDL
