MODEL 1
USER: ADFR SOLUTION from run 125
USER: SCORE 11.608543 LL:  -1.618 LR: -12.085 RR:   0.000 FEB:  -7.312
USER: RMSD 6.751443
USER: SEED 124
USER: STATUS no improvement in best in 12 clusters for 5 generations
USER: GENES 18
USER: genes 0 Translation |==|  0.53123 0.56479 0.56956
USER: genes 1 Rotation |==|  0.48377 0.16960 0.13171 0.57023
USER: genes 2 Torsion [N]-C--CA-[N] |==|  0.43335
USER: genes 3 Torsion [C]-CA--CB-[CG] |==|  0.00908
USER: genes 4 Torsion [CA]-CB--CG-[OD1] |==|  0.80709
USER: genes 5 Torsion [C]-CA--N-[C] |==|  0.60664
USER: genes 6 Torsion [N]-C--CA-[N] |==|  0.85182
USER: genes 7 Torsion [C]-CA--N-[C] |==|  0.64053
USER: genes 8 Torsion [N]-C--CA-[N] |==|  0.42359
USER: genes 9 Torsion [C]-CA--CB-[CG1] |==|  0.79488
USER: genes 10 Torsion [C]-N--CA-[CB] |==|  0.27640
USER: genes 11 Torsion [N]-CA--C-[N] |==|  0.19648
USER: genes 12 Torsion [C]-N--CA-[CB] |==|  0.45893
USER: genes 13 Torsion [N]-CA--CB-[CG] |==|  0.39251
USER: genes 14 Torsion [CA]-CB--CG-[OD2] |==|  0.72020
USER: genes 15 Torsion [N]-CA--C-[O] |==|  0.01913
USER: genes 16 Torsion [N]-CA--CB-[CG] |==|  0.75471
USER: genes 17 Torsion [CA]-CB--CG-[OD1] |==|  0.51512
ROOT
ATOM      1  C   ASP D 179      72.808 -24.292  80.071  1.00 41.71 LIG 0.24  C 
ATOM      2 O    ASP D 179      72.800 -23.435  79.188  1.00 47.20 LIG-0.27  OA
ATOM      3  N   ASP D 180      72.831 -24.010  81.373  1.00 48.22 LIG-0.34  N 
ATOM      4 H    ASP D 180      72.760 -24.613  81.983  1.00 48.22 LIG 0.16  HD
ENDROOT
BRANCH 1 5
ATOM      5  CA  ASP D 179      72.781 -25.784  79.734  1.00 44.60 LIG 0.19  C 
BRANCH 5 6
ATOM      6  CB  ASP D 179      74.165 -26.423  79.891  1.00 48.27 LIG 0.15  C 
BRANCH 6 7
ATOM      7  CG  ASP D 179      75.201 -25.433  80.417  1.00 46.68 LIG 0.17  C 
ATOM      8 OD1  ASP D 179      75.574 -24.498  79.673  1.00 58.91 LIG-0.65  OA
ATOM      9 OD2  ASP D 179      75.632 -25.570  81.580  1.00 62.78 LIG-0.65  OA
ENDBRANCH 6 7
ENDBRANCH 5 6
BRANCH 5 10
ATOM     10  N   ASP D 179      72.196 -25.977  78.401  1.00 43.40 LIG-0.34  N 
ATOM     11 H    ASP D 179      72.443 -25.362  77.852  1.00 43.40 LIG 0.16  HD
ATOM     12  C   VAL D 178      71.379 -26.955  78.017  1.00 52.66 LIG 0.24  C 
ATOM     13 O    VAL D 178      70.734 -27.675  78.786  1.00 53.52 LIG-0.27  OA
BRANCH 12 14
ATOM     14  CA  VAL D 178      71.288 -27.132  76.496  1.00 43.72 LIG 0.18  C 
BRANCH 14 15
ATOM     15  N   VAL D 178      70.952 -25.882  75.842  1.00 54.34 LIG-0.35  N 
ATOM     16  C   GLY D 177      69.964 -25.781  74.960  1.00 48.99 LIG 0.25  C 
ATOM     17 O    GLY D 177      69.676 -24.720  74.423  1.00 61.87 LIG-0.27  OA
ATOM     18 H    VAL D 178      71.449 -25.220  76.076  1.00 54.34 LIG 0.16  HD
BRANCH 16 19
ATOM     19  CA  GLY D 177      69.171 -27.038  74.639  1.00 38.66 LIG 0.47  C 
ATOM     20  N   GLY D 177      67.814 -26.730  74.221  1.00 37.02 LIG 0.61  N 
ENDBRANCH 16 19
ENDBRANCH 14 15
BRANCH 14 21
ATOM     21  CB  VAL D 178      72.599 -27.713  75.923  1.00 39.80 LIG 0.01  C 
ATOM     22  CG2 VAL D 178      73.063 -28.898  76.742  1.00 46.96 LIG 0.01  C 
ATOM     23  CG1 VAL D 178      73.681 -26.632  75.923  1.00 37.07 LIG 0.01  C 
ENDBRANCH 14 21
ENDBRANCH 12 14
ENDBRANCH 5 10
ENDBRANCH 1 5
BRANCH 3 24
ATOM     24  CA  ASP D 180      72.977 -22.657  81.904  1.00 47.37 LIG 0.19  C 
BRANCH 24 25
ATOM     25  C   ASP D 180      73.904 -22.698  83.116  1.00 52.09 LIG 0.24  C 
ATOM     26 O    ASP D 180      73.458 -22.505  84.250  1.00 46.90 LIG-0.27  OA
ATOM     27  N   ASP D 181      75.191 -22.933  82.887  1.00 56.67 LIG-0.35  N 
ATOM     28 H    ASP D 181      75.530 -23.061  82.107  1.00 56.67 LIG 0.16  HD
BRANCH 27 29
ATOM     29  CA  ASP D 181      76.146 -22.990  83.986  1.00 54.32 LIG 0.17  C 
BRANCH 29 30
ATOM     30  CB  ASP D 181      77.455 -23.623  83.519  1.00 57.98 LIG 0.15  C 
BRANCH 30 31
ATOM     31  CG  ASP D 181      78.670 -22.953  84.121  1.00 59.80 LIG 0.17  C 
ATOM     32 OD2  ASP D 181      79.305 -22.132  83.423  1.00 65.59 LIG-0.65  OA
ATOM     33 OD1  ASP D 181      78.993 -23.246  85.291  1.00 62.88 LIG-0.65  OA
ENDBRANCH 30 31
ENDBRANCH 29 30
BRANCH 29 34
ATOM     34  C   ASP D 181      76.407 -21.608  84.573  1.00 55.94 LIG 0.22  C 
ATOM     35 O    ASP D 181      75.748 -20.632  84.204  1.00 49.69 LIG-0.29  OA
ENDBRANCH 29 34
ENDBRANCH 27 29
ENDBRANCH 24 25
BRANCH 24 36
ATOM     36  CB  ASP D 180      71.625 -22.072  82.316  1.00 41.39 LIG 0.15  C 
BRANCH 36 37
ATOM     37  CG  ASP D 180      70.919 -21.360  81.180  1.00 35.24 LIG 0.17  C 
ATOM     38 OD1  ASP D 180      69.853 -20.750  81.417  1.00 51.10 LIG-0.65  OA
ATOM     39 OD2  ASP D 180      71.449 -21.391  80.049  1.00 19.64 LIG-0.65  OA
ENDBRANCH 36 37
ENDBRANCH 24 36
ENDBRANCH 3 24
TORSDOF 16
ENDMDL
MODEL 2
USER: ADFR SOLUTION from run 167
USER: SCORE 12.291348 LL:  -1.220 LR: -12.039 RR:   0.000 FEB:  -7.267
USER: RMSD 5.583453
USER: SEED 166
USER: STATUS no improvement in best in 17 clusters for 5 generations
USER: GENES 18
USER: genes 0 Translation |==|  0.52283 0.57843 0.59158
USER: genes 1 Rotation |==|  0.57473 0.20731 0.10212 0.52093
USER: genes 2 Torsion [N]-C--CA-[N] |==|  0.34387
USER: genes 3 Torsion [C]-CA--CB-[CG] |==|  0.07264
USER: genes 4 Torsion [CA]-CB--CG-[OD1] |==|  0.26473
USER: genes 5 Torsion [C]-CA--N-[C] |==|  0.76749
USER: genes 6 Torsion [N]-C--CA-[N] |==|  0.79287
USER: genes 7 Torsion [C]-CA--N-[C] |==|  0.61713
USER: genes 8 Torsion [N]-C--CA-[N] |==|  0.56867
USER: genes 9 Torsion [C]-CA--CB-[CG1] |==|  0.44023
USER: genes 10 Torsion [C]-N--CA-[CB] |==|  0.83333
USER: genes 11 Torsion [N]-CA--C-[N] |==|  0.32370
USER: genes 12 Torsion [C]-N--CA-[CB] |==|  0.80211
USER: genes 13 Torsion [N]-CA--CB-[CG] |==|  0.34423
USER: genes 14 Torsion [CA]-CB--CG-[OD2] |==|  0.17161
USER: genes 15 Torsion [N]-CA--C-[O] |==|  0.09393
USER: genes 16 Torsion [N]-CA--CB-[CG] |==|  0.54325
USER: genes 17 Torsion [CA]-CB--CG-[OD1] |==|  0.51978
ROOT
ATOM      1  C   ASP D 179      72.644 -24.036  80.434  1.00 41.71 LIG 0.24  C 
ATOM      2 O    ASP D 179      72.857 -22.991  79.820  1.00 47.20 LIG-0.27  OA
ATOM      3  N   ASP D 180      72.161 -24.078  81.675  1.00 48.22 LIG-0.34  N 
ATOM      4 H    ASP D 180      71.944 -24.811  82.068  1.00 48.22 LIG 0.16  HD
ENDROOT
BRANCH 1 5
ATOM      5  CA  ASP D 179      72.915 -25.403  79.802  1.00 44.60 LIG 0.19  C 
BRANCH 5 6
ATOM      6  CB  ASP D 179      74.417 -25.669  79.654  1.00 48.27 LIG 0.15  C 
BRANCH 6 7
ATOM      7  CG  ASP D 179      75.242 -24.898  80.680  1.00 46.68 LIG 0.17  C 
ATOM      8 OD1  ASP D 179      75.574 -25.471  81.742  1.00 58.91 LIG-0.65  OA
ATOM      9 OD2  ASP D 179      75.584 -23.724  80.423  1.00 62.78 LIG-0.65  OA
ENDBRANCH 6 7
ENDBRANCH 5 6
BRANCH 5 10
ATOM     10  N   ASP D 179      72.175 -25.515  78.538  1.00 43.40 LIG-0.34  N 
ATOM     11 H    ASP D 179      72.668 -25.316  77.861  1.00 43.40 LIG 0.16  HD
ATOM     12  C   VAL D 178      70.903 -25.872  78.382  1.00 52.66 LIG 0.24  C 
ATOM     13 O    VAL D 178      70.054 -25.864  79.280  1.00 53.52 LIG-0.27  OA
BRANCH 12 14
ATOM     14  CA  VAL D 178      70.547 -26.309  76.956  1.00 43.72 LIG 0.18  C 
BRANCH 14 15
ATOM     15  N   VAL D 178      70.456 -25.168  76.065  1.00 54.34 LIG-0.35  N 
ATOM     16  C   GLY D 177      69.493 -25.046  75.157  1.00 48.99 LIG 0.25  C 
ATOM     17 O    GLY D 177      69.413 -24.073  74.420  1.00 61.87 LIG-0.27  OA
ATOM     18 H    VAL D 178      71.078 -24.585  76.178  1.00 54.34 LIG 0.16  HD
BRANCH 16 19
ATOM     19  CA  GLY D 177      68.461 -26.158  75.067  1.00 38.66 LIG 0.47  C 
ATOM     20  N   GLY D 177      67.850 -26.223  73.750  1.00 37.02 LIG 0.61  N 
ENDBRANCH 16 19
ENDBRANCH 14 15
BRANCH 14 21
ATOM     21  CB  VAL D 178      71.562 -27.340  76.419  1.00 39.80 LIG 0.01  C 
ATOM     22  CG2 VAL D 178      72.815 -26.652  75.922  1.00 46.96 LIG 0.01  C 
ATOM     23  CG1 VAL D 178      70.927 -28.137  75.278  1.00 37.07 LIG 0.01  C 
ENDBRANCH 14 21
ENDBRANCH 12 14
ENDBRANCH 5 10
ENDBRANCH 1 5
BRANCH 3 24
ATOM     24  CA  ASP D 180      71.946 -22.889  82.498  1.00 47.37 LIG 0.19  C 
BRANCH 24 25
ATOM     25  C   ASP D 180      70.939 -21.978  81.798  1.00 52.09 LIG 0.24  C 
ATOM     26 O    ASP D 180      71.212 -21.466  80.709  1.00 46.90 LIG-0.27  OA
ATOM     27  N   ASP D 181      69.786 -21.761  82.418  1.00 56.67 LIG-0.35  N 
ATOM     28 H    ASP D 181      69.573 -22.097  83.181  1.00 56.67 LIG 0.16  HD
BRANCH 27 29
ATOM     29  CA  ASP D 181      68.768 -20.905  81.822  1.00 54.32 LIG 0.17  C 
BRANCH 29 30
ATOM     30  CB  ASP D 181      69.210 -19.444  81.867  1.00 57.98 LIG 0.15  C 
BRANCH 30 31
ATOM     31  CG  ASP D 181      69.219 -18.799  80.499  1.00 59.80 LIG 0.17  C 
ATOM     32 OD2  ASP D 181      68.140 -18.716  79.872  1.00 65.59 LIG-0.65  OA
ATOM     33 OD1  ASP D 181      70.304 -18.375  80.048  1.00 62.88 LIG-0.65  OA
ENDBRANCH 30 31
ENDBRANCH 29 30
BRANCH 29 34
ATOM     34  C   ASP D 181      68.458 -21.320  80.388  1.00 55.94 LIG 0.22  C 
ATOM     35 O    ASP D 181      68.499 -22.507  80.053  1.00 49.69 LIG-0.29  OA
ENDBRANCH 29 34
ENDBRANCH 27 29
ENDBRANCH 24 25
BRANCH 24 36
ATOM     36  CB  ASP D 180      73.252 -22.126  82.725  1.00 41.39 LIG 0.15  C 
BRANCH 36 37
ATOM     37  CG  ASP D 180      73.159 -21.121  83.856  1.00 35.24 LIG 0.17  C 
ATOM     38 OD1  ASP D 180      74.116 -20.341  84.052  1.00 51.10 LIG-0.65  OA
ATOM     39 OD2  ASP D 180      72.110 -21.098  84.535  1.00 19.64 LIG-0.65  OA
ENDBRANCH 36 37
ENDBRANCH 24 36
ENDBRANCH 3 24
TORSDOF 16
ENDMDL
MODEL 3
USER: ADFR SOLUTION from run 162
USER: SCORE 12.547546 LL:  -1.747 LR: -12.019 RR:   0.000 FEB:  -7.246
USER: RMSD 5.204458
USER: SEED 161
USER: STATUS no improvement in best in 10 clusters for 5 generations
USER: GENES 18
USER: genes 0 Translation |==|  0.45938 0.61582 0.59080
USER: genes 1 Rotation |==|  0.76246 0.23369 0.17025 0.53813
USER: genes 2 Torsion [N]-C--CA-[N] |==|  0.29642
USER: genes 3 Torsion [C]-CA--CB-[CG] |==|  0.50834
USER: genes 4 Torsion [CA]-CB--CG-[OD1] |==|  0.22648
USER: genes 5 Torsion [C]-CA--N-[C] |==|  0.76976
USER: genes 6 Torsion [N]-C--CA-[N] |==|  0.75000
USER: genes 7 Torsion [C]-CA--N-[C] |==|  0.67183
USER: genes 8 Torsion [N]-C--CA-[N] |==|  0.63694
USER: genes 9 Torsion [C]-CA--CB-[CG1] |==|  0.19128
USER: genes 10 Torsion [C]-N--CA-[CB] |==|  0.51690
USER: genes 11 Torsion [N]-CA--C-[N] |==|  0.47785
USER: genes 12 Torsion [C]-N--CA-[CB] |==|  0.34324
USER: genes 13 Torsion [N]-CA--CB-[CG] |==|  0.85999
USER: genes 14 Torsion [CA]-CB--CG-[OD2] |==|  0.24532
USER: genes 15 Torsion [N]-CA--C-[O] |==|  0.01923
USER: genes 16 Torsion [N]-CA--CB-[CG] |==|  0.12800
USER: genes 17 Torsion [CA]-CB--CG-[OD1] |==|  0.77796
ROOT
ATOM      1  C   ASP D 179      71.407 -23.335  80.421  1.00 41.71 LIG 0.24  C 
ATOM      2 O    ASP D 179      71.413 -22.264  79.815  1.00 47.20 LIG-0.27  OA
ATOM      3  N   ASP D 180      70.399 -23.741  81.193  1.00 48.22 LIG-0.34  N 
ATOM      4 H    ASP D 180      70.370 -24.522  81.552  1.00 48.22 LIG 0.16  HD
ENDROOT
BRANCH 1 5
ATOM      5  CA  ASP D 179      72.579 -24.314  80.325  1.00 44.60 LIG 0.19  C 
BRANCH 5 6
ATOM      6  CB  ASP D 179      73.909 -23.636  80.670  1.00 48.27 LIG 0.15  C 
BRANCH 6 7
ATOM      7  CG  ASP D 179      75.097 -24.580  80.507  1.00 46.68 LIG 0.17  C 
ATOM      8 OD1  ASP D 179      75.574 -24.757  79.364  1.00 58.91 LIG-0.65  OA
ATOM      9 OD2  ASP D 179      75.574 -25.132  81.520  1.00 62.78 LIG-0.65  OA
ENDBRANCH 6 7
ENDBRANCH 5 6
BRANCH 5 10
ATOM     10  N   ASP D 179      72.576 -24.956  79.003  1.00 43.40 LIG-0.34  N 
ATOM     11 H    ASP D 179      73.116 -24.567  78.459  1.00 43.40 LIG 0.16  HD
ATOM     12  C   VAL D 178      71.855 -26.008  78.625  1.00 52.66 LIG 0.24  C 
ATOM     13 O    VAL D 178      70.850 -26.421  79.213  1.00 53.52 LIG-0.27  OA
BRANCH 12 14
ATOM     14  CA  VAL D 178      72.375 -26.698  77.358  1.00 43.72 LIG 0.18  C 
BRANCH 14 15
ATOM     15  N   VAL D 178      71.776 -26.129  76.166  1.00 54.34 LIG-0.35  N 
ATOM     16  C   GLY D 177      71.022 -26.842  75.336  1.00 48.99 LIG 0.25  C 
ATOM     17 O    GLY D 177      70.507 -26.351  74.341  1.00 61.87 LIG-0.27  OA
ATOM     18 H    VAL D 178      71.953 -25.296  76.050  1.00 54.34 LIG 0.16  HD
BRANCH 16 19
ATOM     19  CA  GLY D 177      70.796 -28.307  75.667  1.00 38.66 LIG 0.47  C 
ATOM     20  N   GLY D 177      71.052 -29.166  74.524  1.00 37.02 LIG 0.61  N 
ENDBRANCH 16 19
ENDBRANCH 14 15
BRANCH 14 21
ATOM     21  CB  VAL D 178      73.915 -26.632  77.279  1.00 39.80 LIG 0.01  C 
ATOM     22  CG2 VAL D 178      74.403 -27.094  75.923  1.00 46.96 LIG 0.01  C 
ATOM     23  CG1 VAL D 178      74.522 -27.514  78.372  1.00 37.07 LIG 0.01  C 
ENDBRANCH 14 21
ENDBRANCH 12 14
ENDBRANCH 5 10
ENDBRANCH 1 5
BRANCH 3 24
ATOM     24  CA  ASP D 180      69.242 -22.908  81.512  1.00 47.37 LIG 0.19  C 
BRANCH 24 25
ATOM     25  C   ASP D 180      69.730 -21.575  82.075  1.00 52.09 LIG 0.24  C 
ATOM     26 O    ASP D 180      70.923 -21.410  82.343  1.00 46.90 LIG-0.27  OA
ATOM     27  N   ASP D 181      68.819 -20.629  82.269  1.00 56.67 LIG-0.35  N 
ATOM     28 H    ASP D 181      67.980 -20.720  82.100  1.00 56.67 LIG 0.16  HD
BRANCH 27 29
ATOM     29  CA  ASP D 181      69.197 -19.326  82.801  1.00 54.32 LIG 0.17  C 
BRANCH 29 30
ATOM     30  CB  ASP D 181      68.760 -18.216  81.848  1.00 57.98 LIG 0.15  C 
BRANCH 30 31
ATOM     31  CG  ASP D 181      69.199 -18.469  80.423  1.00 59.80 LIG 0.17  C 
ATOM     32 OD2  ASP D 181      68.447 -19.132  79.677  1.00 65.59 LIG-0.65  OA
ATOM     33 OD1  ASP D 181      70.297 -18.007  80.048  1.00 62.88 LIG-0.65  OA
ENDBRANCH 30 31
ENDBRANCH 29 30
BRANCH 29 34
ATOM     34  C   ASP D 181      68.607 -19.096  84.188  1.00 55.94 LIG 0.22  C 
ATOM     35 O    ASP D 181      68.013 -20.002  84.778  1.00 49.69 LIG-0.29  OA
ENDBRANCH 29 34
ENDBRANCH 27 29
ENDBRANCH 24 25
BRANCH 24 36
ATOM     36  CB  ASP D 180      68.331 -23.589  82.535  1.00 41.39 LIG 0.15  C 
BRANCH 36 37
ATOM     37  CG  ASP D 180      69.094 -24.181  83.703  1.00 35.24 LIG 0.17  C 
ATOM     38 OD1  ASP D 180      69.659 -25.287  83.558  1.00 51.10 LIG-0.65  OA
ATOM     39 OD2  ASP D 180      69.149 -23.521  84.763  1.00 19.64 LIG-0.65  OA
ENDBRANCH 36 37
ENDBRANCH 24 36
ENDBRANCH 3 24
TORSDOF 16
ENDMDL
MODEL 4
USER: ADFR SOLUTION from run 56
USER: SCORE 11.708574 LL:  -1.567 LR: -11.654 RR:   0.000 FEB:  -6.881
USER: RMSD 8.684331
USER: SEED 55
USER: STATUS no improvement in best in 4 clusters for 5 generations
USER: GENES 18
USER: genes 0 Translation |==|  0.35831 0.53349 0.40104
USER: genes 1 Rotation |==|  0.59766 0.78174 0.77322 0.79399
USER: genes 2 Torsion [N]-C--CA-[N] |==|  0.17525
USER: genes 3 Torsion [C]-CA--CB-[CG] |==|  0.82766
USER: genes 4 Torsion [CA]-CB--CG-[OD1] |==|  0.90065
USER: genes 5 Torsion [C]-CA--N-[C] |==|  0.77930
USER: genes 6 Torsion [N]-C--CA-[N] |==|  0.81191
USER: genes 7 Torsion [C]-CA--N-[C] |==|  0.61165
USER: genes 8 Torsion [N]-C--CA-[N] |==|  0.52293
USER: genes 9 Torsion [C]-CA--CB-[CG1] |==|  0.40530
USER: genes 10 Torsion [C]-N--CA-[CB] |==|  0.53333
USER: genes 11 Torsion [N]-CA--C-[N] |==|  0.30943
USER: genes 12 Torsion [C]-N--CA-[CB] |==|  0.80165
USER: genes 13 Torsion [N]-CA--CB-[CG] |==|  0.72487
USER: genes 14 Torsion [CA]-CB--CG-[OD2] |==|  0.57060
USER: genes 15 Torsion [N]-CA--C-[O] |==|  0.22662
USER: genes 16 Torsion [N]-CA--CB-[CG] |==|  0.64238
USER: genes 17 Torsion [CA]-CB--CG-[OD1] |==|  0.93269
ROOT
ATOM      1  C   ASP D 179      69.436 -24.879  77.290  1.00 41.71 LIG 0.24  C 
ATOM      2 O    ASP D 179      70.550 -25.191  76.870  1.00 47.20 LIG-0.27  OA
ATOM      3  N   ASP D 180      69.241 -24.103  78.356  1.00 48.22 LIG-0.34  N 
ATOM      4 H    ASP D 180      68.462 -23.829  78.598  1.00 48.22 LIG 0.16  HD
ENDROOT
BRANCH 1 5
ATOM      5  CA  ASP D 179      68.159 -25.360  76.600  1.00 44.60 LIG 0.19  C 
BRANCH 5 6
ATOM      6  CB  ASP D 179      68.457 -26.425  75.540  1.00 48.27 LIG 0.15  C 
BRANCH 6 7
ATOM      7  CG  ASP D 179      69.345 -25.891  74.419  1.00 46.68 LIG 0.17  C 
ATOM      8 OD1  ASP D 179      69.199 -24.705  74.047  1.00 58.91 LIG-0.65  OA
ATOM      9 OD2  ASP D 179      70.207 -26.644  73.919  1.00 62.78 LIG-0.65  OA
ENDBRANCH 6 7
ENDBRANCH 5 6
BRANCH 5 10
ATOM     10  N   ASP D 179      67.419 -24.204  76.075  1.00 43.40 LIG-0.34  N 
ATOM     11 H    ASP D 179      67.545 -24.102  75.230  1.00 43.40 LIG 0.16  HD
ATOM     12  C   VAL D 178      66.635 -23.375  76.759  1.00 52.66 LIG 0.24  C 
ATOM     13 O    VAL D 178      66.647 -23.249  77.988  1.00 53.52 LIG-0.27  OA
BRANCH 12 14
ATOM     14  CA  VAL D 178      65.681 -22.553  75.884  1.00 43.72 LIG 0.18  C 
BRANCH 14 15
ATOM     15  N   VAL D 178      66.407 -21.600  75.068  1.00 54.34 LIG-0.35  N 
ATOM     16  C   GLY D 177      65.971 -20.363  74.854  1.00 48.99 LIG 0.25  C 
ATOM     17 O    GLY D 177      66.597 -19.560  74.177  1.00 61.87 LIG-0.27  OA
ATOM     18 H    VAL D 178      67.139 -21.908  74.738  1.00 54.34 LIG 0.16  HD
BRANCH 16 19
ATOM     19  CA  GLY D 177      64.657 -19.956  75.499  1.00 38.66 LIG 0.47  C 
ATOM     20  N   GLY D 177      64.204 -18.657  75.033  1.00 37.02 LIG 0.61  N 
ENDBRANCH 16 19
ENDBRANCH 14 15
BRANCH 14 21
ATOM     21  CB  VAL D 178      64.803 -23.468  75.004  1.00 39.80 LIG 0.01  C 
ATOM     22  CG2 VAL D 178      65.440 -23.680  73.648  1.00 46.96 LIG 0.01  C 
ATOM     23  CG1 VAL D 178      63.420 -22.837  74.830  1.00 37.07 LIG 0.01  C 
ENDBRANCH 14 21
ENDBRANCH 12 14
ENDBRANCH 5 10
ENDBRANCH 1 5
BRANCH 3 24
ATOM     24  CA  ASP D 180      70.320 -23.637  79.224  1.00 47.37 LIG 0.19  C 
BRANCH 24 25
ATOM     25  C   ASP D 180      71.223 -24.819  79.569  1.00 52.09 LIG 0.24  C 
ATOM     26 O    ASP D 180      70.815 -25.723  80.303  1.00 46.90 LIG-0.27  OA
ATOM     27  N   ASP D 181      72.449 -24.813  79.059  1.00 56.67 LIG-0.35  N 
ATOM     28 H    ASP D 181      72.762 -24.192  78.553  1.00 56.67 LIG 0.16  HD
BRANCH 27 29
ATOM     29  CA  ASP D 181      73.377 -25.902  79.336  1.00 54.32 LIG 0.17  C 
BRANCH 29 30
ATOM     30  CB  ASP D 181      73.850 -25.839  80.787  1.00 57.98 LIG 0.15  C 
BRANCH 30 31
ATOM     31  CG  ASP D 181      75.210 -25.191  80.926  1.00 59.80 LIG 0.17  C 
ATOM     32 OD2  ASP D 181      75.914 -25.489  81.915  1.00 65.59 LIG-0.65  OA
ATOM     33 OD1  ASP D 181      75.574 -24.380  80.048  1.00 62.88 LIG-0.65  OA
ENDBRANCH 30 31
ENDBRANCH 29 30
BRANCH 29 34
ATOM     34  C   ASP D 181      72.751 -27.260  79.042  1.00 55.94 LIG 0.22  C 
ATOM     35 O    ASP D 181      72.714 -27.701  77.890  1.00 49.69 LIG-0.29  OA
ENDBRANCH 29 34
ENDBRANCH 27 29
ENDBRANCH 24 25
BRANCH 24 36
ATOM     36  CB  ASP D 180      69.772 -23.021  80.512  1.00 41.39 LIG 0.15  C 
BRANCH 36 37
ATOM     37  CG  ASP D 180      70.341 -21.646  80.798  1.00 35.24 LIG 0.17  C 
ATOM     38 OD1  ASP D 180      71.450 -21.337  80.310  1.00 51.10 LIG-0.65  OA
ATOM     39 OD2  ASP D 180      69.660 -20.862  81.493  1.00 19.64 LIG-0.65  OA
ENDBRANCH 36 37
ENDBRANCH 24 36
ENDBRANCH 3 24
TORSDOF 16
ENDMDL
MODEL 5
USER: ADFR SOLUTION from run 81
USER: SCORE 12.262223 LL:  -1.672 LR: -11.579 RR:   0.000 FEB:  -6.806
USER: RMSD 8.519599
USER: SEED 80
USER: STATUS no improvement in best in 8 clusters for 5 generations
USER: GENES 18
USER: genes 0 Translation |==|  0.37468 0.53643 0.40067
USER: genes 1 Rotation |==|  0.61179 0.77198 0.77296 0.79837
USER: genes 2 Torsion [N]-C--CA-[N] |==|  0.20734
USER: genes 3 Torsion [C]-CA--CB-[CG] |==|  0.79959
USER: genes 4 Torsion [CA]-CB--CG-[OD1] |==|  0.37825
USER: genes 5 Torsion [C]-CA--N-[C] |==|  0.75858
USER: genes 6 Torsion [N]-C--CA-[N] |==|  0.32222
USER: genes 7 Torsion [C]-CA--N-[C] |==|  0.70035
USER: genes 8 Torsion [N]-C--CA-[N] |==|  0.40308
USER: genes 9 Torsion [C]-CA--CB-[CG1] |==|  0.47408
USER: genes 10 Torsion [C]-N--CA-[CB] |==|  0.53598
USER: genes 11 Torsion [N]-CA--C-[N] |==|  0.29536
USER: genes 12 Torsion [C]-N--CA-[CB] |==|  0.81677
USER: genes 13 Torsion [N]-CA--CB-[CG] |==|  0.77240
USER: genes 14 Torsion [CA]-CB--CG-[OD2] |==|  0.54883
USER: genes 15 Torsion [N]-CA--C-[O] |==|  0.65400
USER: genes 16 Torsion [N]-CA--CB-[CG] |==|  0.68540
USER: genes 17 Torsion [CA]-CB--CG-[OD1] |==|  0.44144
ROOT
ATOM      1  C   ASP D 179      69.755 -24.824  77.284  1.00 41.71 LIG 0.24  C 
ATOM      2 O    ASP D 179      70.854 -25.169  76.849  1.00 47.20 LIG-0.27  OA
ATOM      3  N   ASP D 180      69.595 -24.094  78.388  1.00 48.22 LIG-0.34  N 
ATOM      4 H    ASP D 180      68.831 -23.794  78.643  1.00 48.22 LIG 0.16  HD
ENDROOT
BRANCH 1 5
ATOM      5  CA  ASP D 179      68.458 -25.205  76.570  1.00 44.60 LIG 0.19  C 
BRANCH 5 6
ATOM      6  CB  ASP D 179      68.651 -26.423  75.661  1.00 48.27 LIG 0.15  C 
BRANCH 6 7
ATOM      7  CG  ASP D 179      69.464 -26.089  74.414  1.00 46.68 LIG 0.17  C 
ATOM      8 OD1  ASP D 179      70.361 -26.882  74.048  1.00 58.91 LIG-0.65  OA
ATOM      9 OD2  ASP D 179      69.199 -25.047  73.779  1.00 62.78 LIG-0.65  OA
ENDBRANCH 6 7
ENDBRANCH 5 6
BRANCH 5 10
ATOM     10  N   ASP D 179      67.920 -24.032  75.867  1.00 43.40 LIG-0.34  N 
ATOM     11 H    ASP D 179      68.187 -23.999  75.051  1.00 43.40 LIG 0.16  HD
ATOM     12  C   VAL D 178      67.117 -23.096  76.368  1.00 52.66 LIG 0.24  C 
ATOM     13 O    VAL D 178      66.945 -22.887  77.573  1.00 53.52 LIG-0.27  OA
BRANCH 12 14
ATOM     14  CA  VAL D 178      66.393 -22.261  75.304  1.00 43.72 LIG 0.18  C 
BRANCH 14 15
ATOM     15  N   VAL D 178      64.958 -22.456  75.372  1.00 54.34 LIG-0.35  N 
ATOM     16  C   GLY D 177      64.286 -23.143  74.454  1.00 48.99 LIG 0.25  C 
ATOM     17 O    GLY D 177      63.077 -23.316  74.526  1.00 61.87 LIG-0.27  OA
ATOM     18 H    VAL D 178      64.587 -22.087  76.055  1.00 54.34 LIG 0.16  HD
BRANCH 16 19
ATOM     19  CA  GLY D 177      65.074 -23.735  73.298  1.00 38.66 LIG 0.47  C 
ATOM     20  N   GLY D 177      64.530 -25.013  72.871  1.00 37.02 LIG 0.61  N 
ENDBRANCH 16 19
ENDBRANCH 14 15
BRANCH 14 21
ATOM     21  CB  VAL D 178      66.748 -20.764  75.434  1.00 39.80 LIG 0.01  C 
ATOM     22  CG2 VAL D 178      66.171 -20.185  76.708  1.00 46.96 LIG 0.01  C 
ATOM     23  CG1 VAL D 178      66.199 -20.002  74.227  1.00 37.07 LIG 0.01  C 
ENDBRANCH 14 21
ENDBRANCH 12 14
ENDBRANCH 5 10
ENDBRANCH 1 5
BRANCH 3 24
ATOM     24  CA  ASP D 180      70.694 -23.726  79.278  1.00 47.37 LIG 0.19  C 
BRANCH 24 25
ATOM     25  C   ASP D 180      71.550 -24.963  79.545  1.00 52.09 LIG 0.24  C 
ATOM     26 O    ASP D 180      71.145 -25.852  80.298  1.00 46.90 LIG-0.27  OA
ATOM     27  N   ASP D 181      72.734 -25.020  78.946  1.00 56.67 LIG-0.35  N 
ATOM     28 H    ASP D 181      73.045 -24.410  78.425  1.00 56.67 LIG 0.16  HD
BRANCH 27 29
ATOM     29  CA  ASP D 181      73.615 -26.163  79.144  1.00 54.32 LIG 0.17  C 
BRANCH 29 30
ATOM     30  CB  ASP D 181      74.089 -26.224  80.595  1.00 57.98 LIG 0.15  C 
BRANCH 30 31
ATOM     31  CG  ASP D 181      75.256 -25.300  80.863  1.00 59.80 LIG 0.17  C 
ATOM     32 OD2  ASP D 181      75.943 -25.490  81.890  1.00 65.59 LIG-0.65  OA
ATOM     33 OD1  ASP D 181      75.487 -24.382  80.048  1.00 62.88 LIG-0.65  OA
ENDBRANCH 30 31
ENDBRANCH 29 30
BRANCH 29 34
ATOM     34  C   ASP D 181      72.933 -27.469  78.755  1.00 55.94 LIG 0.22  C 
ATOM     35 O    ASP D 181      72.851 -28.401  79.560  1.00 49.69 LIG-0.29  OA
ENDBRANCH 29 34
ENDBRANCH 27 29
ENDBRANCH 24 25
BRANCH 24 36
ATOM     36  CB  ASP D 180      70.173 -23.172  80.606  1.00 41.39 LIG 0.15  C 
BRANCH 36 37
ATOM     37  CG  ASP D 180      70.494 -21.704  80.798  1.00 35.24 LIG 0.17  C 
ATOM     38 OD1  ASP D 180      69.813 -21.037  81.608  1.00 51.10 LIG-0.65  OA
ATOM     39 OD2  ASP D 180      71.449 -21.222  80.152  1.00 19.64 LIG-0.65  OA
ENDBRANCH 36 37
ENDBRANCH 24 36
ENDBRANCH 3 24
TORSDOF 16
ENDMDL
MODEL 6
USER: ADFR SOLUTION from run 187
USER: SCORE 11.228258 LL:  -1.260 LR: -11.555 RR:   0.000 FEB:  -6.782
USER: RMSD 7.141509
USER: SEED 186
USER: STATUS no improvement in best in 7 clusters for 5 generations
USER: GENES 18
USER: genes 0 Translation |==|  0.40576 0.45002 0.40602
USER: genes 1 Rotation |==|  0.62439 0.74809 0.35020 0.88799
USER: genes 2 Torsion [N]-C--CA-[N] |==|  0.34595
USER: genes 3 Torsion [C]-CA--CB-[CG] |==|  0.17023
USER: genes 4 Torsion [CA]-CB--CG-[OD1] |==|  0.49146
USER: genes 5 Torsion [C]-CA--N-[C] |==|  0.66349
USER: genes 6 Torsion [N]-C--CA-[N] |==|  0.42447
USER: genes 7 Torsion [C]-CA--N-[C] |==|  0.71144
USER: genes 8 Torsion [N]-C--CA-[N] |==|  0.43699
USER: genes 9 Torsion [C]-CA--CB-[CG1] |==|  0.44871
USER: genes 10 Torsion [C]-N--CA-[CB] |==|  0.40629
USER: genes 11 Torsion [N]-CA--C-[N] |==|  0.86194
USER: genes 12 Torsion [C]-N--CA-[CB] |==|  0.27726
USER: genes 13 Torsion [N]-CA--CB-[CG] |==|  0.88804
USER: genes 14 Torsion [CA]-CB--CG-[OD2] |==|  0.73276
USER: genes 15 Torsion [N]-CA--C-[O] |==|  0.83729
USER: genes 16 Torsion [N]-CA--CB-[CG] |==|  0.61033
USER: genes 17 Torsion [CA]-CB--CG-[OD1] |==|  0.16635
ROOT
ATOM      1  C   ASP D 179      70.361 -26.444  77.372  1.00 41.71 LIG 0.24  C 
ATOM      2 O    ASP D 179      70.045 -27.518  77.883  1.00 47.20 LIG-0.27  OA
ATOM      3  N   ASP D 180      71.590 -25.932  77.433  1.00 48.22 LIG-0.34  N 
ATOM      4 H    ASP D 180      71.821 -25.219  77.010  1.00 48.22 LIG 0.16  HD
ENDROOT
BRANCH 1 5
ATOM      5  CA  ASP D 179      69.347 -25.598  76.601  1.00 44.60 LIG 0.19  C 
BRANCH 5 6
ATOM      6  CB  ASP D 179      68.319 -24.956  77.538  1.00 48.27 LIG 0.15  C 
BRANCH 6 7
ATOM      7  CG  ASP D 179      68.968 -24.014  78.547  1.00 46.68 LIG 0.17  C 
ATOM      8 OD1  ASP D 179      68.235 -23.377  79.337  1.00 58.91 LIG-0.65  OA
ATOM      9 OD2  ASP D 179      70.213 -23.920  78.574  1.00 62.78 LIG-0.65  OA
ENDBRANCH 6 7
ENDBRANCH 5 6
BRANCH 5 10
ATOM     10  N   ASP D 179      68.740 -26.408  75.536  1.00 43.40 LIG-0.34  N 
ATOM     11 H    ASP D 179      68.346 -27.105  75.850  1.00 43.40 LIG 0.16  HD
ATOM     12  C   VAL D 178      68.758 -26.158  74.229  1.00 52.66 LIG 0.24  C 
ATOM     13 O    VAL D 178      69.544 -25.384  73.671  1.00 53.52 LIG-0.27  OA
BRANCH 12 14
ATOM     14  CA  VAL D 178      67.698 -26.926  73.432  1.00 43.72 LIG 0.18  C 
BRANCH 14 15
ATOM     15  N   VAL D 178      67.324 -26.209  72.228  1.00 54.34 LIG-0.35  N 
ATOM     16  C   GLY D 177      66.182 -25.538  72.122  1.00 48.99 LIG 0.25  C 
ATOM     17 O    GLY D 177      65.880 -24.922  71.109  1.00 61.87 LIG-0.27  OA
ATOM     18 H    VAL D 178      67.906 -26.258  71.596  1.00 54.34 LIG 0.16  HD
BRANCH 16 19
ATOM     19  CA  GLY D 177      65.247 -25.540  73.319  1.00 38.66 LIG 0.47  C 
ATOM     20  N   GLY D 177      64.342 -24.404  73.301  1.00 37.02 LIG 0.61  N 
ENDBRANCH 16 19
ENDBRANCH 14 15
BRANCH 14 21
ATOM     21  CB  VAL D 178      68.181 -28.351  73.089  1.00 39.80 LIG 0.01  C 
ATOM     22  CG2 VAL D 178      69.163 -28.322  71.937  1.00 46.96 LIG 0.01  C 
ATOM     23  CG1 VAL D 178      66.981 -29.225  72.720  1.00 37.07 LIG 0.01  C 
ENDBRANCH 14 21
ENDBRANCH 12 14
ENDBRANCH 5 10
ENDBRANCH 1 5
BRANCH 3 24
ATOM     24  CA  ASP D 180      72.673 -26.521  78.218  1.00 47.37 LIG 0.19  C 
BRANCH 24 25
ATOM     25  C   ASP D 180      72.696 -25.866  79.597  1.00 52.09 LIG 0.24  C 
ATOM     26 O    ASP D 180      72.719 -26.560  80.617  1.00 46.90 LIG-0.27  OA
ATOM     27  N   ASP D 181      72.677 -24.539  79.638  1.00 56.67 LIG-0.35  N 
ATOM     28 H    ASP D 181      72.652 -24.031  78.944  1.00 56.67 LIG 0.16  HD
BRANCH 27 29
ATOM     29  CA  ASP D 181      72.699 -23.831  80.912  1.00 54.32 LIG 0.17  C 
BRANCH 29 30
ATOM     30  CB  ASP D 181      74.111 -23.339  81.223  1.00 57.98 LIG 0.15  C 
BRANCH 30 31
ATOM     31  CG  ASP D 181      75.172 -24.353  80.855  1.00 59.80 LIG 0.17  C 
ATOM     32 OD2  ASP D 181      75.606 -25.112  81.748  1.00 65.59 LIG-0.65  OA
ATOM     33 OD1  ASP D 181      75.574 -24.390  79.673  1.00 62.88 LIG-0.65  OA
ENDBRANCH 30 31
ENDBRANCH 29 30
BRANCH 29 34
ATOM     34  C   ASP D 181      71.718 -22.664  80.921  1.00 55.94 LIG 0.22  C 
ATOM     35 O    ASP D 181      71.813 -21.756  80.091  1.00 49.69 LIG-0.29  OA
ENDBRANCH 29 34
ENDBRANCH 27 29
ENDBRANCH 24 25
BRANCH 24 36
ATOM     36  CB  ASP D 180      74.027 -26.321  77.536  1.00 41.39 LIG 0.15  C 
BRANCH 36 37
ATOM     37  CG  ASP D 180      74.927 -27.535  77.645  1.00 35.24 LIG 0.17  C 
ATOM     38 OD1  ASP D 180      74.539 -28.621  77.162  1.00 51.10 LIG-0.65  OA
ATOM     39 OD2  ASP D 180      76.040 -27.393  78.196  1.00 19.64 LIG-0.65  OA
ENDBRANCH 36 37
ENDBRANCH 24 36
ENDBRANCH 3 24
TORSDOF 16
ENDMDL
MODEL 7
USER: ADFR SOLUTION from run 63
USER: SCORE 11.041441 LL:  -1.585 LR: -11.544 RR:   0.000 FEB:  -6.772
USER: RMSD 6.895252
USER: SEED 62
USER: STATUS no improvement in best in 9 clusters for 5 generations
USER: GENES 18
USER: genes 0 Translation |==|  0.62024 0.54816 0.58876
USER: genes 1 Rotation |==|  0.89066 0.24497 0.66917 0.56101
USER: genes 2 Torsion [N]-C--CA-[N] |==|  0.39819
USER: genes 3 Torsion [C]-CA--CB-[CG] |==|  0.11409
USER: genes 4 Torsion [CA]-CB--CG-[OD1] |==|  0.14210
USER: genes 5 Torsion [C]-CA--N-[C] |==|  0.80394
USER: genes 6 Torsion [N]-C--CA-[N] |==|  0.81017
USER: genes 7 Torsion [C]-CA--N-[C] |==|  0.59444
USER: genes 8 Torsion [N]-C--CA-[N] |==|  0.48153
USER: genes 9 Torsion [C]-CA--CB-[CG1] |==|  0.76019
USER: genes 10 Torsion [C]-N--CA-[CB] |==|  0.26345
USER: genes 11 Torsion [N]-CA--C-[N] |==|  0.18691
USER: genes 12 Torsion [C]-N--CA-[CB] |==|  0.83576
USER: genes 13 Torsion [N]-CA--CB-[CG] |==|  0.69323
USER: genes 14 Torsion [CA]-CB--CG-[OD2] |==|  0.51716
USER: genes 15 Torsion [N]-CA--C-[O] |==|  0.09041
USER: genes 16 Torsion [N]-CA--CB-[CG] |==|  0.76110
USER: genes 17 Torsion [CA]-CB--CG-[OD1] |==|  0.39881
ROOT
ATOM      1  C   ASP D 179      74.544 -24.604  80.388  1.00 41.71 LIG 0.24  C 
ATOM      2 O    ASP D 179      75.572 -24.338  79.765  1.00 47.20 LIG-0.27  OA
ATOM      3  N   ASP D 180      73.691 -25.563  80.027  1.00 48.22 LIG-0.34  N 
ATOM      4 H    ASP D 180      73.016 -25.793  80.508  1.00 48.22 LIG 0.16  HD
ENDROOT
BRANCH 1 5
ATOM      5  CA  ASP D 179      74.161 -23.845  81.659  1.00 44.60 LIG 0.19  C 
BRANCH 5 6
ATOM      6  CB  ASP D 179      73.295 -22.620  81.345  1.00 48.27 LIG 0.15  C 
BRANCH 6 7
ATOM      7  CG  ASP D 179      72.253 -22.911  80.269  1.00 46.68 LIG 0.17  C 
ATOM      8 OD1  ASP D 179      71.513 -23.912  80.401  1.00 58.91 LIG-0.65  OA
ATOM      9 OD2  ASP D 179      72.151 -22.132  79.299  1.00 62.78 LIG-0.65  OA
ENDBRANCH 6 7
ENDBRANCH 5 6
BRANCH 5 10
ATOM     10  N   ASP D 179      75.373 -23.522  82.423  1.00 43.40 LIG-0.34  N 
ATOM     11 H    ASP D 179      75.549 -22.681  82.402  1.00 43.40 LIG 0.16  HD
ATOM     12  C   VAL D 178      76.152 -24.372  83.088  1.00 52.66 LIG 0.24  C 
ATOM     13 O    VAL D 178      76.166 -25.596  82.916  1.00 53.52 LIG-0.27  OA
BRANCH 12 14
ATOM     14  CA  VAL D 178      77.068 -23.703  84.119  1.00 43.72 LIG 0.18  C 
BRANCH 14 15
ATOM     15  N   VAL D 178      78.086 -22.897  83.473  1.00 54.34 LIG-0.35  N 
ATOM     16  C   GLY D 177      79.312 -22.763  83.968  1.00 48.99 LIG 0.25  C 
ATOM     17 O    GLY D 177      80.170 -22.094  83.409  1.00 61.87 LIG-0.27  OA
ATOM     18 H    VAL D 178      77.824 -22.519  82.746  1.00 54.34 LIG 0.16  HD
BRANCH 16 19
ATOM     19  CA  GLY D 177      79.634 -23.488  85.264  1.00 38.66 LIG 0.47  C 
ATOM     20  N   GLY D 177      81.042 -23.382  85.607  1.00 37.02 LIG 0.61  N 
ENDBRANCH 16 19
ENDBRANCH 14 15
BRANCH 14 21
ATOM     21  CB  VAL D 178      76.256 -22.855  85.121  1.00 39.80 LIG 0.01  C 
ATOM     22  CG2 VAL D 178      74.915 -23.498  85.405  1.00 46.96 LIG 0.01  C 
ATOM     23  CG1 VAL D 178      76.042 -21.452  84.548  1.00 37.07 LIG 0.01  C 
ENDBRANCH 14 21
ENDBRANCH 12 14
ENDBRANCH 5 10
ENDBRANCH 1 5
BRANCH 3 24
ATOM     24  CA  ASP D 180      73.809 -26.323  78.786  1.00 47.37 LIG 0.19  C 
BRANCH 24 25
ATOM     25  C   ASP D 180      72.410 -26.619  78.251  1.00 52.09 LIG 0.24  C 
ATOM     26 O    ASP D 180      71.988 -27.777  78.212  1.00 46.90 LIG-0.27  OA
ATOM     27  N   ASP D 181      71.693 -25.584  77.826  1.00 56.67 LIG-0.35  N 
ATOM     28 H    ASP D 181      71.966 -24.769  77.832  1.00 56.67 LIG 0.16  HD
BRANCH 27 29
ATOM     29  CA  ASP D 181      70.347 -25.775  77.301  1.00 54.32 LIG 0.17  C 
BRANCH 29 30
ATOM     30  CB  ASP D 181      70.376 -26.712  76.095  1.00 57.98 LIG 0.15  C 
BRANCH 30 31
ATOM     31  CG  ASP D 181      70.067 -25.998  74.798  1.00 59.80 LIG 0.17  C 
ATOM     32 OD2  ASP D 181      69.945 -26.679  73.757  1.00 65.59 LIG-0.65  OA
ATOM     33 OD1  ASP D 181      69.949 -24.755  74.818  1.00 62.88 LIG-0.65  OA
ENDBRANCH 30 31
ENDBRANCH 29 30
BRANCH 29 34
ATOM     34  C   ASP D 181      69.402 -26.314  78.367  1.00 55.94 LIG 0.22  C 
ATOM     35 O    ASP D 181      69.545 -26.002  79.553  1.00 49.69 LIG-0.29  OA
ENDBRANCH 29 34
ENDBRANCH 27 29
ENDBRANCH 24 25
BRANCH 24 36
ATOM     36  CB  ASP D 180      74.557 -27.639  79.007  1.00 41.39 LIG 0.15  C 
BRANCH 36 37
ATOM     37  CG  ASP D 180      76.062 -27.486  78.911  1.00 35.24 LIG 0.17  C 
ATOM     38 OD1  ASP D 180      76.789 -28.161  79.672  1.00 51.10 LIG-0.65  OA
ATOM     39 OD2  ASP D 180      76.518 -26.703  78.050  1.00 19.64 LIG-0.65  OA
ENDBRANCH 36 37
ENDBRANCH 24 36
ENDBRANCH 3 24
TORSDOF 16
ENDMDL
MODEL 8
USER: ADFR SOLUTION from run 177
USER: SCORE 12.525670 LL:  -2.801 LR: -11.490 RR:   0.000 FEB:  -6.717
USER: RMSD 6.772567
USER: SEED 176
USER: STATUS no improvement in best in 4 clusters for 5 generations
USER: GENES 18
USER: genes 0 Translation |==|  0.40023 0.47099 0.43254
USER: genes 1 Rotation |==|  0.58654 0.72321 0.24643 0.85831
USER: genes 2 Torsion [N]-C--CA-[N] |==|  0.28181
USER: genes 3 Torsion [C]-CA--CB-[CG] |==|  0.56464
USER: genes 4 Torsion [CA]-CB--CG-[OD1] |==|  0.20916
USER: genes 5 Torsion [C]-CA--N-[C] |==|  0.63553
USER: genes 6 Torsion [N]-C--CA-[N] |==|  0.41693
USER: genes 7 Torsion [C]-CA--N-[C] |==|  0.72420
USER: genes 8 Torsion [N]-C--CA-[N] |==|  0.34863
USER: genes 9 Torsion [C]-CA--CB-[CG1] |==|  0.66986
USER: genes 10 Torsion [C]-N--CA-[CB] |==|  0.42591
USER: genes 11 Torsion [N]-CA--C-[N] |==|  0.86113
USER: genes 12 Torsion [C]-N--CA-[CB] |==|  0.82126
USER: genes 13 Torsion [N]-CA--CB-[CG] |==|  0.74243
USER: genes 14 Torsion [CA]-CB--CG-[OD2] |==|  0.57299
USER: genes 15 Torsion [N]-CA--C-[O] |==|  0.18355
USER: genes 16 Torsion [N]-CA--CB-[CG] |==|  0.39131
USER: genes 17 Torsion [CA]-CB--CG-[OD1] |==|  0.76439
ROOT
ATOM      1  C   ASP D 179      70.253 -26.051  77.810  1.00 41.71 LIG 0.24  C 
ATOM      2 O    ASP D 179      69.747 -26.766  78.674  1.00 47.20 LIG-0.27  OA
ATOM      3  N   ASP D 180      71.567 -25.965  77.600  1.00 48.22 LIG-0.34  N 
ATOM      4 H    ASP D 180      71.908 -25.522  76.947  1.00 48.22 LIG 0.16  HD
ENDROOT
BRANCH 1 5
ATOM      5  CA  ASP D 179      69.395 -25.192  76.880  1.00 44.60 LIG 0.19  C 
BRANCH 5 6
ATOM      6  CB  ASP D 179      68.347 -24.391  77.660  1.00 48.27 LIG 0.15  C 
BRANCH 6 7
ATOM      7  CG  ASP D 179      67.158 -23.996  76.790  1.00 46.68 LIG 0.17  C 
ATOM      8 OD1  ASP D 179      66.312 -24.869  76.491  1.00 58.91 LIG-0.65  OA
ATOM      9 OD2  ASP D 179      67.048 -22.809  76.417  1.00 62.78 LIG-0.65  OA
ENDBRANCH 6 7
ENDBRANCH 5 6
BRANCH 5 10
ATOM     10  N   ASP D 179      68.818 -26.036  75.825  1.00 43.40 LIG-0.34  N 
ATOM     11 H    ASP D 179      68.454 -26.745  76.147  1.00 43.40 LIG 0.16  HD
ATOM     12  C   VAL D 178      68.822 -25.797  74.516  1.00 52.66 LIG 0.24  C 
ATOM     13 O    VAL D 178      69.574 -24.998  73.948  1.00 53.52 LIG-0.27  OA
BRANCH 12 14
ATOM     14  CA  VAL D 178      67.791 -26.616  73.729  1.00 43.72 LIG 0.18  C 
BRANCH 14 15
ATOM     15  N   VAL D 178      67.338 -25.898  72.553  1.00 54.34 LIG-0.35  N 
ATOM     16  C   GLY D 177      66.192 -25.226  72.524  1.00 48.99 LIG 0.25  C 
ATOM     17 O    GLY D 177      65.824 -24.610  71.533  1.00 61.87 LIG-0.27  OA
ATOM     18 H    VAL D 178      67.876 -25.947  71.883  1.00 54.34 LIG 0.16  HD
BRANCH 16 19
ATOM     19  CA  GLY D 177      65.340 -25.228  73.782  1.00 38.66 LIG 0.47  C 
ATOM     20  N   GLY D 177      65.022 -23.880  74.222  1.00 37.02 LIG 0.61  N 
ENDBRANCH 16 19
ENDBRANCH 14 15
BRANCH 14 21
ATOM     21  CB  VAL D 178      68.357 -27.998  73.339  1.00 39.80 LIG 0.01  C 
ATOM     22  CG2 VAL D 178      69.754 -28.181  73.891  1.00 46.96 LIG 0.01  C 
ATOM     23  CG1 VAL D 178      68.384 -28.129  71.815  1.00 37.07 LIG 0.01  C 
ENDBRANCH 14 21
ENDBRANCH 12 14
ENDBRANCH 5 10
ENDBRANCH 1 5
BRANCH 3 24
ATOM     24  CA  ASP D 180      72.564 -26.610  78.451  1.00 47.37 LIG 0.19  C 
BRANCH 24 25
ATOM     25  C   ASP D 180      72.881 -25.689  79.628  1.00 52.09 LIG 0.24  C 
ATOM     26 O    ASP D 180      72.849 -26.118  80.783  1.00 46.90 LIG-0.27  OA
ATOM     27  N   ASP D 181      73.175 -24.425  79.344  1.00 56.67 LIG-0.35  N 
ATOM     28 H    ASP D 181      73.196 -24.097  78.549  1.00 56.67 LIG 0.16  HD
BRANCH 27 29
ATOM     29  CA  ASP D 181      73.492 -23.477  80.405  1.00 54.32 LIG 0.17  C 
BRANCH 29 30
ATOM     30  CB  ASP D 181      72.278 -23.268  81.309  1.00 57.98 LIG 0.15  C 
BRANCH 30 31
ATOM     31  CG  ASP D 181      71.429 -22.093  80.876  1.00 59.80 LIG 0.17  C 
ATOM     32 OD2  ASP D 181      70.739 -21.506  81.737  1.00 65.59 LIG-0.65  OA
ATOM     33 OD1  ASP D 181      71.449 -21.757  79.673  1.00 62.88 LIG-0.65  OA
ENDBRANCH 30 31
ENDBRANCH 29 30
BRANCH 29 34
ATOM     34  C   ASP D 181      74.690 -23.938  81.227  1.00 55.94 LIG 0.22  C 
ATOM     35 O    ASP D 181      75.813 -24.005  80.720  1.00 49.69 LIG-0.29  OA
ENDBRANCH 29 34
ENDBRANCH 27 29
ENDBRANCH 24 25
BRANCH 24 36
ATOM     36  CB  ASP D 180      73.849 -26.908  77.677  1.00 41.39 LIG 0.15  C 
BRANCH 36 37
ATOM     37  CG  ASP D 180      75.101 -26.664  78.495  1.00 35.24 LIG 0.17  C 
ATOM     38 OD1  ASP D 180      75.573 -25.507  78.548  1.00 51.10 LIG-0.65  OA
ATOM     39 OD2  ASP D 180      75.599 -27.632  79.108  1.00 19.64 LIG-0.65  OA
ENDBRANCH 36 37
ENDBRANCH 24 36
ENDBRANCH 3 24
TORSDOF 16
ENDMDL
MODEL 9
USER: ADFR SOLUTION from run 167
USER: SCORE 12.891768 LL:  -2.895 LR: -11.440 RR:   0.000 FEB:  -6.668
USER: RMSD 5.359053
USER: SEED 166
USER: STATUS no improvement in best in 17 clusters for 5 generations
USER: GENES 18
USER: genes 0 Translation |==|  0.46530 0.62683 0.57147
USER: genes 1 Rotation |==|  0.16990 0.70942 0.79715 0.59422
USER: genes 2 Torsion [N]-C--CA-[N] |==|  0.19606
USER: genes 3 Torsion [C]-CA--CB-[CG] |==|  0.53448
USER: genes 4 Torsion [CA]-CB--CG-[OD1] |==|  0.21685
USER: genes 5 Torsion [C]-CA--N-[C] |==|  0.75627
USER: genes 6 Torsion [N]-C--CA-[N] |==|  0.76111
USER: genes 7 Torsion [C]-CA--N-[C] |==|  0.77682
USER: genes 8 Torsion [N]-C--CA-[N] |==|  0.28737
USER: genes 9 Torsion [C]-CA--CB-[CG1] |==|  0.20285
USER: genes 10 Torsion [C]-N--CA-[CB] |==|  0.51669
USER: genes 11 Torsion [N]-CA--C-[N] |==|  0.46412
USER: genes 12 Torsion [C]-N--CA-[CB] |==|  0.31540
USER: genes 13 Torsion [N]-CA--CB-[CG] |==|  0.99753
USER: genes 14 Torsion [CA]-CB--CG-[OD2] |==|  0.65906
USER: genes 15 Torsion [N]-CA--C-[O] |==|  0.15895
USER: genes 16 Torsion [N]-CA--CB-[CG] |==|  0.83091
USER: genes 17 Torsion [CA]-CB--CG-[OD1] |==|  0.97558
ROOT
ATOM      1  C   ASP D 179      71.522 -23.129  80.102  1.00 41.71 LIG 0.24  C 
ATOM      2 O    ASP D 179      71.803 -21.933  80.027  1.00 47.20 LIG-0.27  OA
ATOM      3  N   ASP D 180      70.274 -23.596  80.091  1.00 48.22 LIG-0.34  N 
ATOM      4 H    ASP D 180      70.090 -24.436  80.067  1.00 48.22 LIG 0.16  HD
ENDROOT
BRANCH 1 5
ATOM      5  CA  ASP D 179      72.610 -24.199  80.206  1.00 44.60 LIG 0.19  C 
BRANCH 5 6
ATOM      6  CB  ASP D 179      73.954 -23.597  80.631  1.00 48.27 LIG 0.15  C 
BRANCH 6 7
ATOM      7  CG  ASP D 179      75.108 -24.578  80.448  1.00 46.68 LIG 0.17  C 
ATOM      8 OD1  ASP D 179      75.572 -24.757  79.300  1.00 58.91 LIG-0.65  OA
ATOM      9 OD2  ASP D 179      75.574 -25.158  81.451  1.00 62.78 LIG-0.65  OA
ENDBRANCH 6 7
ENDBRANCH 5 6
BRANCH 5 10
ATOM     10  N   ASP D 179      72.680 -24.953  78.947  1.00 43.40 LIG-0.34  N 
ATOM     11 H    ASP D 179      73.255 -24.615  78.404  1.00 43.40 LIG 0.16  HD
ATOM     12  C   VAL D 178      71.973 -26.031  78.618  1.00 52.66 LIG 0.24  C 
ATOM     13 O    VAL D 178      70.931 -26.388  79.178  1.00 53.52 LIG-0.27  OA
BRANCH 12 14
ATOM     14  CA  VAL D 178      72.561 -26.831  77.449  1.00 43.72 LIG 0.18  C 
BRANCH 14 15
ATOM     15  N   VAL D 178      72.112 -26.305  76.175  1.00 54.34 LIG-0.35  N 
ATOM     16  C   GLY D 177      70.920 -26.593  75.663  1.00 48.99 LIG 0.25  C 
ATOM     17 O    GLY D 177      70.541 -26.133  74.595  1.00 61.87 LIG-0.27  OA
ATOM     18 H    VAL D 178      72.684 -25.794  75.786  1.00 54.34 LIG 0.16  HD
BRANCH 16 19
ATOM     19  CA  GLY D 177      70.012 -27.514  76.461  1.00 38.66 LIG 0.47  C 
ATOM     20  N   GLY D 177      68.955 -26.780  77.135  1.00 37.02 LIG 0.61  N 
ENDBRANCH 16 19
ENDBRANCH 14 15
BRANCH 14 21
ATOM     21  CB  VAL D 178      74.103 -26.861  77.514  1.00 39.80 LIG 0.01  C 
ATOM     22  CG2 VAL D 178      74.685 -27.341  76.202  1.00 46.96 LIG 0.01  C 
ATOM     23  CG1 VAL D 178      74.550 -27.789  78.646  1.00 37.07 LIG 0.01  C 
ENDBRANCH 14 21
ENDBRANCH 12 14
ENDBRANCH 5 10
ENDBRANCH 1 5
BRANCH 3 24
ATOM     24  CA  ASP D 180      69.091 -22.739  80.116  1.00 47.37 LIG 0.19  C 
BRANCH 24 25
ATOM     25  C   ASP D 180      69.199 -21.781  81.300  1.00 52.09 LIG 0.24  C 
ATOM     26 O    ASP D 180      70.036 -21.974  82.185  1.00 46.90 LIG-0.27  OA
ATOM     27  N   ASP D 181      68.352 -20.758  81.331  1.00 56.67 LIG-0.35  N 
ATOM     28 H    ASP D 181      67.753 -20.605  80.733  1.00 56.67 LIG 0.16  HD
BRANCH 27 29
ATOM     29  CA  ASP D 181      68.386 -19.795  82.423  1.00 54.32 LIG 0.17  C 
BRANCH 29 30
ATOM     30  CB  ASP D 181      68.824 -18.424  81.909  1.00 57.98 LIG 0.15  C 
BRANCH 30 31
ATOM     31  CG  ASP D 181      69.125 -18.431  80.427  1.00 59.80 LIG 0.17  C 
ATOM     32 OD2  ASP D 181      70.260 -18.069  80.048  1.00 65.59 LIG-0.65  OA
ATOM     33 OD1  ASP D 181      68.227 -18.795  79.640  1.00 62.88 LIG-0.65  OA
ENDBRANCH 30 31
ENDBRANCH 29 30
BRANCH 29 34
ATOM     34  C   ASP D 181      67.034 -19.691  83.119  1.00 55.94 LIG 0.22  C 
ATOM     35 O    ASP D 181      66.500 -20.688  83.612  1.00 49.69 LIG-0.29  OA
ENDBRANCH 29 34
ENDBRANCH 27 29
ENDBRANCH 24 25
BRANCH 24 36
ATOM     36  CB  ASP D 180      67.809 -23.563  80.244  1.00 41.39 LIG 0.15  C 
BRANCH 36 37
ATOM     37  CG  ASP D 180      67.606 -24.522  79.088  1.00 35.24 LIG 0.17  C 
ATOM     38 OD1  ASP D 180      68.364 -24.443  78.096  1.00 51.10 LIG-0.65  OA
ATOM     39 OD2  ASP D 180      66.698 -25.375  79.185  1.00 19.64 LIG-0.65  OA
ENDBRANCH 36 37
ENDBRANCH 24 36
ENDBRANCH 3 24
TORSDOF 16
ENDMDL
MODEL 10
USER: ADFR SOLUTION from run 8
USER: SCORE 13.263893 LL:  -2.744 LR: -11.376 RR:   0.000 FEB:  -6.603
USER: RMSD 6.515409
USER: SEED 219228
USER: STATUS no improvement in best in 5 clusters for 5 generations
USER: GENES 18
USER: genes 0 Translation |==|  0.62373 0.40166 0.34820
USER: genes 1 Rotation |==|  0.23344 0.57311 0.81476 0.77300
USER: genes 2 Torsion [N]-C--CA-[N] |==|  0.99445
USER: genes 3 Torsion [C]-CA--CB-[CG] |==|  0.75378
USER: genes 4 Torsion [CA]-CB--CG-[OD1] |==|  0.77878
USER: genes 5 Torsion [C]-CA--N-[C] |==|  0.65677
USER: genes 6 Torsion [N]-C--CA-[N] |==|  0.35249
USER: genes 7 Torsion [C]-CA--N-[C] |==|  0.67837
USER: genes 8 Torsion [N]-C--CA-[N] |==|  0.31204
USER: genes 9 Torsion [C]-CA--CB-[CG1] |==|  0.12633
USER: genes 10 Torsion [C]-N--CA-[CB] |==|  0.55734
USER: genes 11 Torsion [N]-CA--C-[N] |==|  0.30570
USER: genes 12 Torsion [C]-N--CA-[CB] |==|  0.20886
USER: genes 13 Torsion [N]-CA--CB-[CG] |==|  0.27130
USER: genes 14 Torsion [CA]-CB--CG-[OD2] |==|  0.34961
USER: genes 15 Torsion [N]-CA--C-[O] |==|  0.02347
USER: genes 16 Torsion [N]-CA--CB-[CG] |==|  0.73646
USER: genes 17 Torsion [CA]-CB--CG-[OD1] |==|  0.30929
ROOT
ATOM      1  C   ASP D 179      74.612 -27.351  76.418  1.00 41.71 LIG 0.24  C 
ATOM      2 O    ASP D 179      74.963 -26.634  77.355  1.00 47.20 LIG-0.27  OA
ATOM      3  N   ASP D 180      73.384 -27.338  75.899  1.00 48.22 LIG-0.34  N 
ATOM      4 H    ASP D 180      73.169 -27.786  75.198  1.00 48.22 LIG 0.16  HD
ENDROOT
BRANCH 1 5
ATOM      5  CA  ASP D 179      75.582 -28.329  75.754  1.00 44.60 LIG 0.19  C 
BRANCH 5 6
ATOM      6  CB  ASP D 179      76.849 -27.620  75.263  1.00 48.27 LIG 0.15  C 
BRANCH 6 7
ATOM      7  CG  ASP D 179      76.698 -27.087  73.842  1.00 46.68 LIG 0.17  C 
ATOM      8 OD1  ASP D 179      76.827 -27.882  72.883  1.00 58.91 LIG-0.65  OA
ATOM      9 OD2  ASP D 179      76.430 -25.880  73.673  1.00 62.78 LIG-0.65  OA
ENDBRANCH 6 7
ENDBRANCH 5 6
BRANCH 5 10
ATOM     10  N   ASP D 179      74.884 -29.074  74.698  1.00 43.40 LIG-0.34  N 
ATOM     11 H    ASP D 179      74.529 -28.548  74.118  1.00 43.40 LIG 0.16  HD
ATOM     12  C   VAL D 178      74.772 -30.395  74.589  1.00 52.66 LIG 0.24  C 
ATOM     13 O    VAL D 178      74.963 -31.197  75.509  1.00 53.52 LIG-0.27  OA
BRANCH 12 14
ATOM     14  CA  VAL D 178      74.372 -30.874  73.188  1.00 43.72 LIG 0.18  C 
BRANCH 14 15
ATOM     15  N   VAL D 178      75.299 -31.873  72.690  1.00 54.34 LIG-0.35  N 
ATOM     16  C   GLY D 177      76.063 -31.669  71.622  1.00 48.99 LIG 0.25  C 
ATOM     17 O    GLY D 177      76.854 -32.511  71.218  1.00 61.87 LIG-0.27  OA
ATOM     18 H    VAL D 178      75.306 -32.602  73.147  1.00 54.34 LIG 0.16  HD
BRANCH 16 19
ATOM     19  CA  GLY D 177      75.941 -30.333  70.911  1.00 38.66 LIG 0.47  C 
ATOM     20  N   GLY D 177      77.148 -29.535  71.048  1.00 37.02 LIG 0.61  N 
ENDBRANCH 16 19
ENDBRANCH 14 15
BRANCH 14 21
ATOM     21  CB  VAL D 178      72.927 -31.416  73.175  1.00 39.80 LIG 0.01  C 
ATOM     22  CG2 VAL D 178      72.428 -31.578  71.755  1.00 46.96 LIG 0.01  C 
ATOM     23  CG1 VAL D 178      72.013 -30.455  73.936  1.00 37.07 LIG 0.01  C 
ENDBRANCH 14 21
ENDBRANCH 12 14
ENDBRANCH 5 10
ENDBRANCH 1 5
BRANCH 3 24
ATOM     24  CA  ASP D 180      72.279 -26.565  76.461  1.00 47.37 LIG 0.19  C 
BRANCH 24 25
ATOM     25  C   ASP D 180      72.359 -26.622  77.985  1.00 52.09 LIG 0.24  C 
ATOM     26 O    ASP D 180      72.105 -27.670  78.585  1.00 46.90 LIG-0.27  OA
ATOM     27  N   ASP D 181      72.695 -25.503  78.616  1.00 56.67 LIG-0.35  N 
ATOM     28 H    ASP D 181      72.868 -24.757  78.224  1.00 56.67 LIG 0.16  HD
BRANCH 27 29
ATOM     29  CA  ASP D 181      72.796 -25.468  80.069  1.00 54.32 LIG 0.17  C 
BRANCH 29 30
ATOM     30  CB  ASP D 181      74.076 -26.163  80.529  1.00 57.98 LIG 0.15  C 
BRANCH 30 31
ATOM     31  CG  ASP D 181      75.199 -25.187  80.805  1.00 59.80 LIG 0.17  C 
ATOM     32 OD2  ASP D 181      75.760 -25.224  81.921  1.00 65.59 LIG-0.65  OA
ATOM     33 OD1  ASP D 181      75.520 -24.382  79.906  1.00 62.88 LIG-0.65  OA
ENDBRANCH 30 31
ENDBRANCH 29 30
BRANCH 29 34
ATOM     34  C   ASP D 181      72.751 -24.039  80.599  1.00 55.94 LIG 0.22  C 
ATOM     35 O    ASP D 181      72.486 -23.097  79.847  1.00 49.69 LIG-0.29  OA
ENDBRANCH 29 34
ENDBRANCH 27 29
ENDBRANCH 24 25
BRANCH 24 36
ATOM     36  CB  ASP D 180      70.926 -27.113  76.001  1.00 41.39 LIG 0.15  C 
BRANCH 36 37
ATOM     37  CG  ASP D 180      70.381 -26.394  74.784  1.00 35.24 LIG 0.17  C 
ATOM     38 OD1  ASP D 180      70.318 -27.008  73.697  1.00 51.10 LIG-0.65  OA
ATOM     39 OD2  ASP D 180      69.991 -25.215  74.925  1.00 19.64 LIG-0.65  OA
ENDBRANCH 36 37
ENDBRANCH 24 36
ENDBRANCH 3 24
TORSDOF 16
ENDMDL
MODEL 11
USER: ADFR SOLUTION from run 191
USER: SCORE 11.658912 LL:  -1.754 LR: -11.313 RR:   0.000 FEB:  -6.541
USER: RMSD 5.981915
USER: SEED 190
USER: STATUS no improvement in best in 10 clusters for 5 generations
USER: GENES 18
USER: genes 0 Translation |==|  0.48602 0.64595 0.58516
USER: genes 1 Rotation |==|  0.63400 0.14562 0.19203 0.60777
USER: genes 2 Torsion [N]-C--CA-[N] |==|  0.39874
USER: genes 3 Torsion [C]-CA--CB-[CG] |==|  0.54594
USER: genes 4 Torsion [CA]-CB--CG-[OD1] |==|  0.20609
USER: genes 5 Torsion [C]-CA--N-[C] |==|  0.77778
USER: genes 6 Torsion [N]-C--CA-[N] |==|  0.71719
USER: genes 7 Torsion [C]-CA--N-[C] |==|  0.66485
USER: genes 8 Torsion [N]-C--CA-[N] |==|  0.28308
USER: genes 9 Torsion [C]-CA--CB-[CG1] |==|  0.23390
USER: genes 10 Torsion [C]-N--CA-[CB] |==|  0.24403
USER: genes 11 Torsion [N]-CA--C-[N] |==|  0.96573
USER: genes 12 Torsion [C]-N--CA-[CB] |==|  0.80588
USER: genes 13 Torsion [N]-CA--CB-[CG] |==|  0.86163
USER: genes 14 Torsion [CA]-CB--CG-[OD2] |==|  0.32204
USER: genes 15 Torsion [N]-CA--C-[O] |==|  0.09953
USER: genes 16 Torsion [N]-CA--CB-[CG] |==|  0.62528
USER: genes 17 Torsion [CA]-CB--CG-[OD1] |==|  0.96882
ROOT
ATOM      1  C   ASP D 179      71.926 -22.771  80.328  1.00 41.71 LIG 0.24  C 
ATOM      2 O    ASP D 179      71.825 -22.086  79.310  1.00 47.20 LIG-0.27  OA
ATOM      3  N   ASP D 180      71.328 -22.472  81.481  1.00 48.22 LIG-0.34  N 
ATOM      4 H    ASP D 180      71.342 -22.994  82.164  1.00 48.22 LIG 0.16  HD
ENDROOT
BRANCH 1 5
ATOM      5  CA  ASP D 179      72.759 -24.053  80.348  1.00 44.60 LIG 0.19  C 
BRANCH 5 6
ATOM      6  CB  ASP D 179      74.210 -23.778  80.756  1.00 48.27 LIG 0.15  C 
BRANCH 6 7
ATOM      7  CG  ASP D 179      75.139 -24.934  80.399  1.00 46.68 LIG 0.17  C 
ATOM      8 OD1  ASP D 179      75.457 -25.106  79.201  1.00 58.91 LIG-0.65  OA
ATOM      9 OD2  ASP D 179      75.574 -25.665  81.314  1.00 62.78 LIG-0.65  OA
ENDBRANCH 6 7
ENDBRANCH 5 6
BRANCH 5 10
ATOM     10  N   ASP D 179      72.636 -24.739  79.054  1.00 43.40 LIG-0.34  N 
ATOM     11 H    ASP D 179      73.315 -24.589  78.548  1.00 43.40 LIG 0.16  HD
ATOM     12  C   VAL D 178      71.631 -25.510  78.648  1.00 52.66 LIG 0.24  C 
ATOM     13 O    VAL D 178      70.504 -25.525  79.156  1.00 53.52 LIG-0.27  OA
BRANCH 12 14
ATOM     14  CA  VAL D 178      71.978 -26.414  77.458  1.00 43.72 LIG 0.18  C 
BRANCH 14 15
ATOM     15  N   VAL D 178      71.449 -25.876  76.219  1.00 54.34 LIG-0.35  N 
ATOM     16  C   GLY D 177      70.591 -26.547  75.459  1.00 48.99 LIG 0.25  C 
ATOM     17 O    GLY D 177      70.137 -26.081  74.423  1.00 61.87 LIG-0.27  OA
ATOM     18 H    VAL D 178      71.741 -25.091  76.026  1.00 54.34 LIG 0.16  HD
BRANCH 16 19
ATOM     19  CA  GLY D 177      70.164 -27.930  75.924  1.00 38.66 LIG 0.47  C 
ATOM     20  N   GLY D 177      68.844 -27.913  76.530  1.00 37.02 LIG 0.61  N 
ENDBRANCH 16 19
ENDBRANCH 14 15
BRANCH 14 21
ATOM     21  CB  VAL D 178      73.502 -26.633  77.351  1.00 39.80 LIG 0.01  C 
ATOM     22  CG2 VAL D 178      73.897 -26.961  75.927  1.00 46.96 LIG 0.01  C 
ATOM     23  CG1 VAL D 178      73.921 -27.776  78.277  1.00 37.07 LIG 0.01  C 
ENDBRANCH 14 21
ENDBRANCH 12 14
ENDBRANCH 5 10
ENDBRANCH 1 5
BRANCH 3 24
ATOM     24  CA  ASP D 180      70.585 -21.234  81.707  1.00 47.37 LIG 0.19  C 
BRANCH 24 25
ATOM     25  C   ASP D 180      70.657 -20.879  83.191  1.00 52.09 LIG 0.24  C 
ATOM     26 O    ASP D 180      70.312 -19.761  83.583  1.00 46.90 LIG-0.27  OA
ATOM     27  N   ASP D 181      71.113 -21.814  84.016  1.00 56.67 LIG-0.35  N 
ATOM     28 H    ASP D 181      71.369 -22.597  83.769  1.00 56.67 LIG 0.16  HD
BRANCH 27 29
ATOM     29  CA  ASP D 181      71.214 -21.561  85.448  1.00 54.32 LIG 0.17  C 
BRANCH 29 30
ATOM     30  CB  ASP D 181      72.325 -20.552  85.732  1.00 57.98 LIG 0.15  C 
BRANCH 30 31
ATOM     31  CG  ASP D 181      73.625 -20.915  85.049  1.00 59.80 LIG 0.17  C 
ATOM     32 OD2  ASP D 181      74.074 -20.145  84.173  1.00 65.59 LIG-0.65  OA
ATOM     33 OD1  ASP D 181      74.199 -21.972  85.387  1.00 62.88 LIG-0.65  OA
ENDBRANCH 30 31
ENDBRANCH 29 30
BRANCH 29 34
ATOM     34  C   ASP D 181      69.891 -21.066  86.023  1.00 55.94 LIG 0.22  C 
ATOM     35 O    ASP D 181      68.818 -21.499  85.595  1.00 49.69 LIG-0.29  OA
ENDBRANCH 29 34
ENDBRANCH 27 29
ENDBRANCH 24 25
BRANCH 24 36
ATOM     36  CB  ASP D 180      69.121 -21.377  81.288  1.00 41.39 LIG 0.15  C 
BRANCH 36 37
ATOM     37  CG  ASP D 180      68.619 -20.194  80.485  1.00 35.24 LIG 0.17  C 
ATOM     38 OD1  ASP D 180      69.323 -19.163  80.423  1.00 51.10 LIG-0.65  OA
ATOM     39 OD2  ASP D 180      67.525 -20.310  79.892  1.00 19.64 LIG-0.65  OA
ENDBRANCH 36 37
ENDBRANCH 24 36
ENDBRANCH 3 24
TORSDOF 16
ENDMDL
MODEL 12
USER: ADFR SOLUTION from run 167
USER: SCORE 11.571098 LL:  -1.099 LR: -11.314 RR:   0.000 FEB:  -6.541
USER: RMSD 5.423380
USER: SEED 166
USER: STATUS no improvement in best in 17 clusters for 5 generations
USER: GENES 18
USER: genes 0 Translation |==|  0.47063 0.63165 0.60888
USER: genes 1 Rotation |==|  0.70888 0.20204 0.16430 0.56994
USER: genes 2 Torsion [N]-C--CA-[N] |==|  0.33026
USER: genes 3 Torsion [C]-CA--CB-[CG] |==|  0.51909
USER: genes 4 Torsion [CA]-CB--CG-[OD1] |==|  0.24205
USER: genes 5 Torsion [C]-CA--N-[C] |==|  0.76151
USER: genes 6 Torsion [N]-C--CA-[N] |==|  0.76185
USER: genes 7 Torsion [C]-CA--N-[C] |==|  0.63442
USER: genes 8 Torsion [N]-C--CA-[N] |==|  0.64156
USER: genes 9 Torsion [C]-CA--CB-[CG1] |==|  0.20386
USER: genes 10 Torsion [C]-N--CA-[CB] |==|  0.86100
USER: genes 11 Torsion [N]-CA--C-[N] |==|  0.37073
USER: genes 12 Torsion [C]-N--CA-[CB] |==|  0.76636
USER: genes 13 Torsion [N]-CA--CB-[CG] |==|  0.26982
USER: genes 14 Torsion [CA]-CB--CG-[OD2] |==|  0.20846
USER: genes 15 Torsion [N]-CA--C-[O] |==|  0.17036
USER: genes 16 Torsion [N]-CA--CB-[CG] |==|  0.38737
USER: genes 17 Torsion [CA]-CB--CG-[OD1] |==|  0.68974
ROOT
ATOM      1  C   ASP D 179      71.626 -23.039  80.719  1.00 41.71 LIG 0.24  C 
ATOM      2 O    ASP D 179      71.587 -22.072  79.959  1.00 47.20 LIG-0.27  OA
ATOM      3  N   ASP D 180      70.781 -23.213  81.735  1.00 48.22 LIG-0.34  N 
ATOM      4 H    ASP D 180      70.767 -23.926  82.215  1.00 48.22 LIG 0.16  HD
ENDROOT
BRANCH 1 5
ATOM      5  CA  ASP D 179      72.666 -24.148  80.549  1.00 44.60 LIG 0.19  C 
BRANCH 5 6
ATOM      6  CB  ASP D 179      74.087 -23.632  80.801  1.00 48.27 LIG 0.15  C 
BRANCH 6 7
ATOM      7  CG  ASP D 179      75.146 -24.679  80.472  1.00 46.68 LIG 0.17  C 
ATOM      8 OD1  ASP D 179      75.574 -24.757  79.298  1.00 58.91 LIG-0.65  OA
ATOM      9 OD2  ASP D 179      75.575 -25.415  81.385  1.00 62.78 LIG-0.65  OA
ENDBRANCH 6 7
ENDBRANCH 5 6
BRANCH 5 10
ATOM     10  N   ASP D 179      72.498 -24.780  79.233  1.00 43.40 LIG-0.34  N 
ATOM     11 H    ASP D 179      73.014 -24.427  78.642  1.00 43.40 LIG 0.16  HD
ATOM     12  C   VAL D 178      71.673 -25.776  78.921  1.00 52.66 LIG 0.24  C 
ATOM     13 O    VAL D 178      70.698 -26.120  79.597  1.00 53.52 LIG-0.27  OA
BRANCH 12 14
ATOM     14  CA  VAL D 178      72.027 -26.494  77.613  1.00 43.72 LIG 0.18  C 
BRANCH 14 15
ATOM     15  N   VAL D 178      71.446 -25.817  76.469  1.00 54.34 LIG-0.35  N 
ATOM     16  C   GLY D 177      70.770 -26.463  75.525  1.00 48.99 LIG 0.25  C 
ATOM     17 O    GLY D 177      70.270 -25.884  74.571  1.00 61.87 LIG-0.27  OA
ATOM     18 H    VAL D 178      71.579 -24.968  76.461  1.00 54.34 LIG 0.16  HD
BRANCH 16 19
ATOM     19  CA  GLY D 177      70.616 -27.968  75.670  1.00 38.66 LIG 0.47  C 
ATOM     20  N   GLY D 177      71.006 -28.671  74.459  1.00 37.02 LIG 0.61  N 
ENDBRANCH 16 19
ENDBRANCH 14 15
BRANCH 14 21
ATOM     21  CB  VAL D 178      73.555 -26.631  77.448  1.00 39.80 LIG 0.01  C 
ATOM     22  CG2 VAL D 178      73.909 -27.008  76.026  1.00 46.96 LIG 0.01  C 
ATOM     23  CG1 VAL D 178      74.081 -27.698  78.410  1.00 37.07 LIG 0.01  C 
ENDBRANCH 14 21
ENDBRANCH 12 14
ENDBRANCH 5 10
ENDBRANCH 1 5
BRANCH 3 24
ATOM     24  CA  ASP D 180      69.792 -22.217  82.142  1.00 47.37 LIG 0.19  C 
BRANCH 24 25
ATOM     25  C   ASP D 180      68.697 -22.145  81.080  1.00 52.09 LIG 0.24  C 
ATOM     26 O    ASP D 180      68.990 -22.071  79.884  1.00 46.90 LIG-0.27  OA
ATOM     27  N   ASP D 181      67.439 -22.151  81.506  1.00 56.67 LIG-0.35  N 
ATOM     28 H    ASP D 181      67.206 -22.193  82.333  1.00 56.67 LIG 0.16  HD
BRANCH 27 29
ATOM     29  CA  ASP D 181      66.331 -22.086  80.561  1.00 54.32 LIG 0.17  C 
BRANCH 29 30
ATOM     30  CB  ASP D 181      66.042 -20.635  80.182  1.00 57.98 LIG 0.15  C 
BRANCH 30 31
ATOM     31  CG  ASP D 181      66.697 -20.235  78.879  1.00 59.80 LIG 0.17  C 
ATOM     32 OD2  ASP D 181      66.200 -20.649  77.809  1.00 65.59 LIG-0.65  OA
ATOM     33 OD1  ASP D 181      67.711 -19.507  78.923  1.00 62.88 LIG-0.65  OA
ENDBRANCH 30 31
ENDBRANCH 29 30
BRANCH 29 34
ATOM     34  C   ASP D 181      66.612 -22.914  79.312  1.00 55.94 LIG 0.22  C 
ATOM     35 O    ASP D 181      66.792 -24.132  79.390  1.00 49.69 LIG-0.29  OA
ENDBRANCH 29 34
ENDBRANCH 27 29
ENDBRANCH 24 25
BRANCH 24 36
ATOM     36  CB  ASP D 180      70.429 -20.836  82.311  1.00 41.39 LIG 0.15  C 
BRANCH 36 37
ATOM     37  CG  ASP D 180      69.559 -19.716  81.775  1.00 35.24 LIG 0.17  C 
ATOM     38 OD1  ASP D 180      69.935 -19.091  80.760  1.00 51.10 LIG-0.65  OA
ATOM     39 OD2  ASP D 180      68.482 -19.479  82.362  1.00 19.64 LIG-0.65  OA
ENDBRANCH 36 37
ENDBRANCH 24 36
ENDBRANCH 3 24
TORSDOF 16
ENDMDL
MODEL 13
USER: ADFR SOLUTION from run 167
USER: SCORE 11.494121 LL:  -1.665 LR: -11.196 RR:   0.000 FEB:  -6.424
USER: RMSD 5.855175
USER: SEED 166
USER: STATUS no improvement in best in 17 clusters for 5 generations
USER: GENES 18
USER: genes 0 Translation |==|  0.62459 0.47945 0.49084
USER: genes 1 Rotation |==|  0.30555 0.74880 0.82163 0.71643
USER: genes 2 Torsion [N]-C--CA-[N] |==|  0.07616
USER: genes 3 Torsion [C]-CA--CB-[CG] |==|  0.28564
USER: genes 4 Torsion [CA]-CB--CG-[OD1] |==|  0.00313
USER: genes 5 Torsion [C]-CA--N-[C] |==|  0.17778
USER: genes 6 Torsion [N]-C--CA-[N] |==|  0.48172
USER: genes 7 Torsion [C]-CA--N-[C] |==|  0.64702
USER: genes 8 Torsion [N]-C--CA-[N] |==|  0.28658
USER: genes 9 Torsion [C]-CA--CB-[CG1] |==|  0.91593
USER: genes 10 Torsion [C]-N--CA-[CB] |==|  0.45639
USER: genes 11 Torsion [N]-CA--C-[N] |==|  0.40104
USER: genes 12 Torsion [C]-N--CA-[CB] |==|  0.26756
USER: genes 13 Torsion [N]-CA--CB-[CG] |==|  0.89314
USER: genes 14 Torsion [CA]-CB--CG-[OD2] |==|  0.72199
USER: genes 15 Torsion [N]-CA--C-[O] |==|  0.07347
USER: genes 16 Torsion [N]-CA--CB-[CG] |==|  0.55165
USER: genes 17 Torsion [CA]-CB--CG-[OD1] |==|  0.60630
ROOT
ATOM      1  C   ASP D 179      74.628 -25.892  78.772  1.00 41.71 LIG 0.24  C 
ATOM      2 O    ASP D 179      75.563 -25.112  78.954  1.00 47.20 LIG-0.27  OA
ATOM      3  N   ASP D 180      73.354 -25.587  79.016  1.00 48.22 LIG-0.34  N 
ATOM      4 H    ASP D 180      72.702 -26.110  78.815  1.00 48.22 LIG 0.16  HD
ENDROOT
BRANCH 1 5
ATOM      5  CA  ASP D 179      74.861 -27.303  78.228  1.00 44.60 LIG 0.19  C 
BRANCH 5 6
ATOM      6  CB  ASP D 179      76.145 -27.381  77.395  1.00 48.27 LIG 0.15  C 
BRANCH 6 7
ATOM      7  CG  ASP D 179      77.291 -28.035  78.161  1.00 46.68 LIG 0.17  C 
ATOM      8 OD1  ASP D 179      77.082 -28.443  79.325  1.00 58.91 LIG-0.65  OA
ATOM      9 OD2  ASP D 179      78.398 -28.164  77.599  1.00 62.78 LIG-0.65  OA
ENDBRANCH 6 7
ENDBRANCH 5 6
BRANCH 5 10
ATOM     10  N   ASP D 179      73.665 -27.753  77.502  1.00 43.40 LIG-0.34  N 
ATOM     11 H    ASP D 179      73.300 -28.433  77.881  1.00 43.40 LIG 0.16  HD
ATOM     12  C   VAL D 178      73.154 -27.225  76.393  1.00 52.66 LIG 0.24  C 
ATOM     13 O    VAL D 178      73.765 -26.477  75.623  1.00 53.52 LIG-0.27  OA
BRANCH 12 14
ATOM     14  CA  VAL D 178      71.698 -27.625  76.125  1.00 43.72 LIG 0.18  C 
BRANCH 14 15
ATOM     15  N   VAL D 178      71.154 -26.899  74.993  1.00 54.34 LIG-0.35  N 
ATOM     16  C   GLY D 177      70.018 -26.214  75.063  1.00 48.99 LIG 0.25  C 
ATOM     17 O    GLY D 177      69.574 -25.591  74.108  1.00 61.87 LIG-0.27  OA
ATOM     18 H    VAL D 178      71.633 -26.954  74.280  1.00 54.34 LIG 0.16  HD
BRANCH 16 19
ATOM     19  CA  GLY D 177      69.276 -26.209  76.389  1.00 38.66 LIG 0.47  C 
ATOM     20  N   GLY D 177      69.461 -24.959  77.107  1.00 37.02 LIG 0.61  N 
ENDBRANCH 16 19
ENDBRANCH 14 15
BRANCH 14 21
ATOM     21  CB  VAL D 178      71.569 -29.148  75.909  1.00 39.80 LIG 0.01  C 
ATOM     22  CG2 VAL D 178      71.297 -29.854  77.220  1.00 46.96 LIG 0.01  C 
ATOM     23  CG1 VAL D 178      72.859 -29.689  75.291  1.00 37.07 LIG 0.01  C 
ENDBRANCH 14 21
ENDBRANCH 12 14
ENDBRANCH 5 10
ENDBRANCH 1 5
BRANCH 3 24
ATOM     24  CA  ASP D 180      72.930 -24.339  79.646  1.00 47.37 LIG 0.19  C 
BRANCH 24 25
ATOM     25  C   ASP D 180      73.240 -24.409  81.140  1.00 52.09 LIG 0.24  C 
ATOM     26 O    ASP D 180      73.122 -25.472  81.754  1.00 46.90 LIG-0.27  OA
ATOM     27  N   ASP D 181      73.623 -23.283  81.732  1.00 56.67 LIG-0.35  N 
ATOM     28 H    ASP D 181      73.706 -22.527  81.330  1.00 56.67 LIG 0.16  HD
BRANCH 27 29
ATOM     29  CA  ASP D 181      73.941 -23.258  83.154  1.00 54.32 LIG 0.17  C 
BRANCH 29 30
ATOM     30  CB  ASP D 181      75.447 -23.401  83.364  1.00 57.98 LIG 0.15  C 
BRANCH 30 31
ATOM     31  CG  ASP D 181      76.077 -24.377  82.396  1.00 59.80 LIG 0.17  C 
ATOM     32 OD2  ASP D 181      76.324 -25.536  82.793  1.00 65.59 LIG-0.65  OA
ATOM     33 OD1  ASP D 181      76.329 -23.985  81.237  1.00 62.88 LIG-0.65  OA
ENDBRANCH 30 31
ENDBRANCH 29 30
BRANCH 29 34
ATOM     34  C   ASP D 181      73.432 -21.984  83.818  1.00 55.94 LIG 0.22  C 
ATOM     35 O    ASP D 181      72.464 -21.375  83.355  1.00 49.69 LIG-0.29  OA
ENDBRANCH 29 34
ENDBRANCH 27 29
ENDBRANCH 24 25
BRANCH 24 36
ATOM     36  CB  ASP D 180      71.432 -24.097  79.449  1.00 41.39 LIG 0.15  C 
BRANCH 36 37
ATOM     37  CG  ASP D 180      71.034 -22.652  79.675  1.00 35.24 LIG 0.17  C 
ATOM     38 OD1  ASP D 180      69.949 -22.407  80.246  1.00 51.10 LIG-0.65  OA
ATOM     39 OD2  ASP D 180      71.824 -21.760  79.300  1.00 19.64 LIG-0.65  OA
ENDBRANCH 36 37
ENDBRANCH 24 36
ENDBRANCH 3 24
TORSDOF 16
ENDMDL
MODEL 14
USER: ADFR SOLUTION from run 9
USER: SCORE 11.816730 LL:  -1.516 LR: -11.123 RR:   0.000 FEB:  -6.351
USER: RMSD 9.886490
USER: SEED 437567
USER: STATUS no improvement in best in 7 clusters for 5 generations
USER: GENES 18
USER: genes 0 Translation |==|  0.29051 0.68014 0.60273
USER: genes 1 Rotation |==|  0.73573 0.69693 0.20100 0.75738
USER: genes 2 Torsion [N]-C--CA-[N] |==|  0.37142
USER: genes 3 Torsion [C]-CA--CB-[CG] |==|  0.44413
USER: genes 4 Torsion [CA]-CB--CG-[OD1] |==|  0.83508
USER: genes 5 Torsion [C]-CA--N-[C] |==|  0.84461
USER: genes 6 Torsion [N]-C--CA-[N] |==|  0.08184
USER: genes 7 Torsion [C]-CA--N-[C] |==|  0.61668
USER: genes 8 Torsion [N]-C--CA-[N] |==|  0.39006
USER: genes 9 Torsion [C]-CA--CB-[CG1] |==|  0.41297
USER: genes 10 Torsion [C]-N--CA-[CB] |==|  0.18258
USER: genes 11 Torsion [N]-CA--C-[N] |==|  0.01274
USER: genes 12 Torsion [C]-N--CA-[CB] |==|  0.81899
USER: genes 13 Torsion [N]-CA--CB-[CG] |==|  0.50207
USER: genes 14 Torsion [CA]-CB--CG-[OD2] |==|  0.58876
USER: genes 15 Torsion [N]-CA--C-[O] |==|  0.43431
USER: genes 16 Torsion [N]-CA--CB-[CG] |==|  0.11587
USER: genes 17 Torsion [CA]-CB--CG-[OD1] |==|  0.09417
ROOT
ATOM      1  C   ASP D 179      68.114 -22.129  80.618  1.00 41.71 LIG 0.24  C 
ATOM      2 O    ASP D 179      67.090 -22.600  81.113  1.00 47.20 LIG-0.27  OA
ATOM      3  N   ASP D 180      69.260 -22.802  80.514  1.00 48.22 LIG-0.34  N 
ATOM      4 H    ASP D 180      69.947 -22.493  80.099  1.00 48.22 LIG 0.16  HD
ENDROOT
BRANCH 1 5
ATOM      5  CA  ASP D 179      68.149 -20.706  80.060  1.00 44.60 LIG 0.19  C 
BRANCH 5 6
ATOM      6  CB  ASP D 179      68.326 -19.668  81.174  1.00 48.27 LIG 0.15  C 
BRANCH 6 7
ATOM      7  CG  ASP D 179      68.847 -18.336  80.643  1.00 46.68 LIG 0.17  C 
ATOM      8 OD1  ASP D 179      69.948 -18.312  80.049  1.00 58.91 LIG-0.65  OA
ATOM      9 OD2  ASP D 179      68.152 -17.310  80.797  1.00 62.78 LIG-0.65  OA
ENDBRANCH 6 7
ENDBRANCH 5 6
BRANCH 5 10
ATOM     10  N   ASP D 179      66.960 -20.474  79.230  1.00 43.40 LIG-0.34  N 
ATOM     11 H    ASP D 179      66.512 -19.790  79.498  1.00 43.40 LIG 0.16  HD
ATOM     12  C   VAL D 178      66.563 -21.189  78.180  1.00 52.66 LIG 0.24  C 
ATOM     13 O    VAL D 178      66.946 -22.335  77.923  1.00 53.52 LIG-0.27  OA
BRANCH 12 14
ATOM     14  CA  VAL D 178      65.556 -20.466  77.277  1.00 43.72 LIG 0.18  C 
BRANCH 14 15
ATOM     15  N   VAL D 178      65.752 -19.030  77.316  1.00 54.34 LIG-0.35  N 
ATOM     16  C   GLY D 177      64.739 -18.172  77.375  1.00 48.99 LIG 0.25  C 
ATOM     17 O    GLY D 177      64.913 -16.962  77.423  1.00 61.87 LIG-0.27  OA
ATOM     18 H    VAL D 178      66.577 -18.789  77.297  1.00 54.34 LIG 0.16  HD
BRANCH 16 19
ATOM     19  CA  GLY D 177      63.331 -18.742  77.398  1.00 38.66 LIG 0.47  C 
ATOM     20  N   GLY D 177      62.466 -18.010  78.308  1.00 37.02 LIG 0.61  N 
ENDBRANCH 16 19
ENDBRANCH 14 15
BRANCH 14 21
ATOM     21  CB  VAL D 178      65.633 -20.988  75.826  1.00 39.80 LIG 0.01  C 
ATOM     22  CG2 VAL D 178      66.630 -20.184  75.020  1.00 46.96 LIG 0.01  C 
ATOM     23  CG1 VAL D 178      64.252 -20.898  75.175  1.00 37.07 LIG 0.01  C 
ENDBRANCH 14 21
ENDBRANCH 12 14
ENDBRANCH 5 10
ENDBRANCH 1 5
BRANCH 3 24
ATOM     24  CA  ASP D 180      69.472 -24.128  81.088  1.00 47.37 LIG 0.19  C 
BRANCH 24 25
ATOM     25  C   ASP D 180      70.940 -24.514  80.913  1.00 52.09 LIG 0.24  C 
ATOM     26 O    ASP D 180      71.338 -25.629  81.260  1.00 46.90 LIG-0.27  OA
ATOM     27  N   ASP D 181      71.749 -23.599  80.391  1.00 56.67 LIG-0.35  N 
ATOM     28 H    ASP D 181      71.500 -22.812  80.149  1.00 56.67 LIG 0.16  HD
BRANCH 27 29
ATOM     29  CA  ASP D 181      73.163 -23.883  80.188  1.00 54.32 LIG 0.17  C 
BRANCH 29 30
ATOM     30  CB  ASP D 181      73.861 -24.090  81.531  1.00 57.98 LIG 0.15  C 
BRANCH 30 31
ATOM     31  CG  ASP D 181      75.340 -24.371  81.378  1.00 59.80 LIG 0.17  C 
ATOM     32 OD2  ASP D 181      75.894 -25.117  82.214  1.00 65.59 LIG-0.65  OA
ATOM     33 OD1  ASP D 181      75.949 -23.845  80.423  1.00 62.88 LIG-0.65  OA
ENDBRANCH 30 31
ENDBRANCH 29 30
BRANCH 29 34
ATOM     34  C   ASP D 181      73.367 -25.100  79.293  1.00 55.94 LIG 0.22  C 
ATOM     35 O    ASP D 181      74.415 -25.248  78.660  1.00 49.69 LIG-0.29  OA
ENDBRANCH 29 34
ENDBRANCH 27 29
ENDBRANCH 24 25
BRANCH 24 36
ATOM     36  CB  ASP D 180      68.586 -25.176  80.412  1.00 41.39 LIG 0.15  C 
BRANCH 36 37
ATOM     37  CG  ASP D 180      68.515 -25.006  78.908  1.00 35.24 LIG 0.17  C 
ATOM     38 OD1  ASP D 180      69.522 -24.587  78.298  1.00 51.10 LIG-0.65  OA
ATOM     39 OD2  ASP D 180      67.450 -25.319  78.333  1.00 19.64 LIG-0.65  OA
ENDBRANCH 36 37
ENDBRANCH 24 36
ENDBRANCH 3 24
TORSDOF 16
ENDMDL
MODEL 15
USER: ADFR SOLUTION from run 97
USER: SCORE 12.799754 LL:  -2.161 LR: -11.116 RR:   0.000 FEB:  -6.343
USER: RMSD 6.239414
USER: SEED 96
USER: STATUS no improvement in best in 7 clusters for 5 generations
USER: GENES 18
USER: genes 0 Translation |==|  0.58850 0.39014 0.33802
USER: genes 1 Rotation |==|  0.25785 0.61792 0.79222 0.80343
USER: genes 2 Torsion [N]-C--CA-[N] |==|  0.40472
USER: genes 3 Torsion [C]-CA--CB-[CG] |==|  0.51450
USER: genes 4 Torsion [CA]-CB--CG-[OD1] |==|  0.36688
USER: genes 5 Torsion [C]-CA--N-[C] |==|  0.79819
USER: genes 6 Torsion [N]-C--CA-[N] |==|  0.41449
USER: genes 7 Torsion [C]-CA--N-[C] |==|  0.79360
USER: genes 8 Torsion [N]-C--CA-[N] |==|  0.38968
USER: genes 9 Torsion [C]-CA--CB-[CG1] |==|  0.16605
USER: genes 10 Torsion [C]-N--CA-[CB] |==|  0.55594
USER: genes 11 Torsion [N]-CA--C-[N] |==|  0.33343
USER: genes 12 Torsion [C]-N--CA-[CB] |==|  0.20926
USER: genes 13 Torsion [N]-CA--CB-[CG] |==|  0.27186
USER: genes 14 Torsion [CA]-CB--CG-[OD2] |==|  0.34085
USER: genes 15 Torsion [N]-CA--C-[O] |==|  0.03017
USER: genes 16 Torsion [N]-CA--CB-[CG] |==|  0.77434
USER: genes 17 Torsion [CA]-CB--CG-[OD1] |==|  0.26582
ROOT
ATOM      1  C   ASP D 179      73.925 -27.567  76.250  1.00 41.71 LIG 0.24  C 
ATOM      2 O    ASP D 179      74.520 -26.955  77.137  1.00 47.20 LIG-0.27  OA
ATOM      3  N   ASP D 180      72.691 -27.265  75.846  1.00 48.22 LIG-0.34  N 
ATOM      4 H    ASP D 180      72.312 -27.648  75.176  1.00 48.22 LIG 0.16  HD
ENDROOT
BRANCH 1 5
ATOM      5  CA  ASP D 179      74.574 -28.743  75.518  1.00 44.60 LIG 0.19  C 
BRANCH 5 6
ATOM      6  CB  ASP D 179      74.232 -30.080  76.185  1.00 48.27 LIG 0.15  C 
BRANCH 6 7
ATOM      7  CG  ASP D 179      74.973 -31.249  75.544  1.00 46.68 LIG 0.17  C 
ATOM      8 OD1  ASP D 179      75.559 -32.070  76.285  1.00 58.91 LIG-0.65  OA
ATOM      9 OD2  ASP D 179      74.958 -31.368  74.302  1.00 62.78 LIG-0.65  OA
ENDBRANCH 6 7
ENDBRANCH 5 6
BRANCH 5 10
ATOM     10  N   ASP D 179      76.018 -28.506  75.390  1.00 43.40 LIG-0.34  N 
ATOM     11 H    ASP D 179      76.472 -29.013  75.916  1.00 43.40 LIG 0.16  HD
ATOM     12  C   VAL D 178      76.619 -27.633  74.585  1.00 52.66 LIG 0.24  C 
ATOM     13 O    VAL D 178      76.061 -26.671  74.048  1.00 53.52 LIG-0.27  OA
BRANCH 12 14
ATOM     14  CA  VAL D 178      78.110 -27.914  74.363  1.00 43.72 LIG 0.18  C 
BRANCH 14 15
ATOM     15  N   VAL D 178      78.536 -27.478  73.047  1.00 54.34 LIG-0.35  N 
ATOM     16  C   GLY D 177      78.221 -28.140  71.939  1.00 48.99 LIG 0.25  C 
ATOM     17 O    GLY D 177      78.570 -27.757  70.830  1.00 61.87 LIG-0.27  OA
ATOM     18 H    VAL D 178      79.006 -26.758  73.052  1.00 54.34 LIG 0.16  HD
BRANCH 16 19
ATOM     19  CA  GLY D 177      77.385 -29.400  72.081  1.00 38.66 LIG 0.47  C 
ATOM     20  N   GLY D 177      76.390 -29.512  71.028  1.00 37.02 LIG 0.61  N 
ENDBRANCH 16 19
ENDBRANCH 14 15
BRANCH 14 21
ATOM     21  CB  VAL D 178      78.972 -27.255  75.461  1.00 39.80 LIG 0.01  C 
ATOM     22  CG2 VAL D 178      80.442 -27.520  75.220  1.00 46.96 LIG 0.01  C 
ATOM     23  CG1 VAL D 178      78.567 -27.806  76.829  1.00 37.07 LIG 0.01  C 
ENDBRANCH 14 21
ENDBRANCH 12 14
ENDBRANCH 5 10
ENDBRANCH 1 5
BRANCH 3 24
ATOM     24  CA  ASP D 180      71.854 -26.257  76.492  1.00 47.37 LIG 0.19  C 
BRANCH 24 25
ATOM     25  C   ASP D 180      72.051 -26.345  78.004  1.00 52.09 LIG 0.24  C 
ATOM     26 O    ASP D 180      71.777 -27.383  78.610  1.00 46.90 LIG-0.27  OA
ATOM     27  N   ASP D 181      72.511 -25.261  78.618  1.00 56.67 LIG-0.35  N 
ATOM     28 H    ASP D 181      72.702 -24.521  78.222  1.00 56.67 LIG 0.16  HD
BRANCH 27 29
ATOM     29  CA  ASP D 181      72.730 -25.256  80.059  1.00 54.32 LIG 0.17  C 
BRANCH 29 30
ATOM     30  CB  ASP D 181      73.995 -26.039  80.406  1.00 57.98 LIG 0.15  C 
BRANCH 30 31
ATOM     31  CG  ASP D 181      75.196 -25.141  80.606  1.00 59.80 LIG 0.17  C 
ATOM     32 OD2  ASP D 181      75.803 -25.191  81.698  1.00 65.59 LIG-0.65  OA
ATOM     33 OD1  ASP D 181      75.532 -24.382  79.673  1.00 62.88 LIG-0.65  OA
ENDBRANCH 30 31
ENDBRANCH 29 30
BRANCH 29 34
ATOM     34  C   ASP D 181      72.819 -23.837  80.607  1.00 55.94 LIG 0.22  C 
ATOM     35 O    ASP D 181      72.514 -22.870  79.904  1.00 49.69 LIG-0.29  OA
ENDBRANCH 29 34
ENDBRANCH 27 29
ENDBRANCH 24 25
BRANCH 24 36
ATOM     36  CB  ASP D 180      70.375 -26.464  76.159  1.00 41.39 LIG 0.15  C 
BRANCH 36 37
ATOM     37  CG  ASP D 180      69.990 -25.895  74.809  1.00 35.24 LIG 0.17  C 
ATOM     38 OD1  ASP D 180      69.973 -26.654  73.815  1.00 51.10 LIG-0.65  OA
ATOM     39 OD2  ASP D 180      69.677 -24.687  74.749  1.00 19.64 LIG-0.65  OA
ENDBRANCH 36 37
ENDBRANCH 24 36
ENDBRANCH 3 24
TORSDOF 16
ENDMDL
MODEL 16
USER: ADFR SOLUTION from run 114
USER: SCORE 12.887108 LL:  -2.552 LR: -11.120 RR:   0.000 FEB:  -6.347
USER: RMSD 5.723001
USER: SEED 113
USER: STATUS no improvement in best in 8 clusters for 5 generations
USER: GENES 18
USER: genes 0 Translation |==|  0.63446 0.38814 0.36592
USER: genes 1 Rotation |==|  0.65699 0.30210 0.11898 0.70252
USER: genes 2 Torsion [N]-C--CA-[N] |==|  0.32703
USER: genes 3 Torsion [C]-CA--CB-[CG] |==|  0.70562
USER: genes 4 Torsion [CA]-CB--CG-[OD1] |==|  0.30969
USER: genes 5 Torsion [C]-CA--N-[C] |==|  0.72859
USER: genes 6 Torsion [N]-C--CA-[N] |==|  0.31296
USER: genes 7 Torsion [C]-CA--N-[C] |==|  0.69406
USER: genes 8 Torsion [N]-C--CA-[N] |==|  0.35935
USER: genes 9 Torsion [C]-CA--CB-[CG1] |==|  0.78572
USER: genes 10 Torsion [C]-N--CA-[CB] |==|  0.51111
USER: genes 11 Torsion [N]-CA--C-[N] |==|  0.45470
USER: genes 12 Torsion [C]-N--CA-[CB] |==|  0.47579
USER: genes 13 Torsion [N]-CA--CB-[CG] |==|  0.65104
USER: genes 14 Torsion [CA]-CB--CG-[OD2] |==|  0.54382
USER: genes 15 Torsion [N]-CA--C-[O] |==|  0.22746
USER: genes 16 Torsion [N]-CA--CB-[CG] |==|  0.20968
USER: genes 17 Torsion [CA]-CB--CG-[OD1] |==|  0.24825
ROOT
ATOM      1  C   ASP D 179      74.821 -27.604  76.711  1.00 41.71 LIG 0.24  C 
ATOM      2 O    ASP D 179      74.053 -26.722  76.328  1.00 47.20 LIG-0.27  OA
ATOM      3  N   ASP D 180      74.817 -28.100  77.948  1.00 48.22 LIG-0.34  N 
ATOM      4 H    ASP D 180      75.304 -28.768  78.186  1.00 48.22 LIG 0.16  HD
ENDROOT
BRANCH 1 5
ATOM      5  CA  ASP D 179      75.858 -28.223  75.772  1.00 44.60 LIG 0.19  C 
BRANCH 5 6
ATOM      6  CB  ASP D 179      76.901 -27.193  75.326  1.00 48.27 LIG 0.15  C 
BRANCH 6 7
ATOM      7  CG  ASP D 179      76.698 -26.756  73.879  1.00 46.68 LIG 0.17  C 
ATOM      8 OD1  ASP D 179      76.324 -25.583  73.650  1.00 58.91 LIG-0.65  OA
ATOM      9 OD2  ASP D 179      76.931 -27.570  72.962  1.00 62.78 LIG-0.65  OA
ENDBRANCH 6 7
ENDBRANCH 5 6
BRANCH 5 10
ATOM     10  N   ASP D 179      75.174 -28.884  74.652  1.00 43.40 LIG-0.34  N 
ATOM     11 H    ASP D 179      74.958 -28.325  74.036  1.00 43.40 LIG 0.16  HD
ATOM     12  C   VAL D 178      74.891 -30.179  74.537  1.00 52.66 LIG 0.24  C 
ATOM     13 O    VAL D 178      74.872 -30.982  75.476  1.00 53.52 LIG-0.27  OA
BRANCH 12 14
ATOM     14  CA  VAL D 178      74.575 -30.625  73.104  1.00 43.72 LIG 0.18  C 
BRANCH 14 15
ATOM     15  N   VAL D 178      75.601 -31.512  72.592  1.00 54.34 LIG-0.35  N 
ATOM     16  C   GLY D 177      76.444 -31.149  71.631  1.00 48.99 LIG 0.25  C 
ATOM     17 O    GLY D 177      77.317 -31.898  71.215  1.00 61.87 LIG-0.27  OA
ATOM     18 H    VAL D 178      75.611 -32.287  72.965  1.00 54.34 LIG 0.16  HD
BRANCH 16 19
ATOM     19  CA  GLY D 177      76.306 -29.748  71.062  1.00 38.66 LIG 0.47  C 
ATOM     20  N   GLY D 177      77.577 -29.042  71.048  1.00 37.02 LIG 0.61  N 
ENDBRANCH 16 19
ENDBRANCH 14 15
BRANCH 14 21
ATOM     21  CB  VAL D 178      73.185 -31.292  73.022  1.00 39.80 LIG 0.01  C 
ATOM     22  CG2 VAL D 178      72.163 -30.504  73.812  1.00 46.96 LIG 0.01  C 
ATOM     23  CG1 VAL D 178      73.269 -32.719  73.569  1.00 37.07 LIG 0.01  C 
ENDBRANCH 14 21
ENDBRANCH 12 14
ENDBRANCH 5 10
ENDBRANCH 1 5
BRANCH 3 24
ATOM     24  CA  ASP D 180      73.988 -27.568  79.028  1.00 47.37 LIG 0.19  C 
BRANCH 24 25
ATOM     25  C   ASP D 180      74.274 -26.076  79.182  1.00 52.09 LIG 0.24  C 
ATOM     26 O    ASP D 180      75.291 -25.581  78.689  1.00 46.90 LIG-0.27  OA
ATOM     27  N   ASP D 181      73.395 -25.359  79.872  1.00 56.67 LIG-0.35  N 
ATOM     28 H    ASP D 181      72.683 -25.679  80.233  1.00 56.67 LIG 0.16  HD
BRANCH 27 29
ATOM     29  CA  ASP D 181      73.588 -23.928  80.067  1.00 54.32 LIG 0.17  C 
BRANCH 29 30
ATOM     30  CB  ASP D 181      72.345 -23.305  80.698  1.00 57.98 LIG 0.15  C 
BRANCH 30 31
ATOM     31  CG  ASP D 181      71.808 -22.141  79.896  1.00 59.80 LIG 0.17  C 
ATOM     32 OD2  ASP D 181      70.993 -21.366  80.441  1.00 65.59 LIG-0.65  OA
ATOM     33 OD1  ASP D 181      72.199 -22.001  78.718  1.00 62.88 LIG-0.65  OA
ENDBRANCH 30 31
ENDBRANCH 29 30
BRANCH 29 34
ATOM     34  C   ASP D 181      74.816 -23.641  80.923  1.00 55.94 LIG 0.22  C 
ATOM     35 O    ASP D 181      75.945 -23.632  80.423  1.00 49.69 LIG-0.29  OA
ENDBRANCH 29 34
ENDBRANCH 27 29
ENDBRANCH 24 25
BRANCH 24 36
ATOM     36  CB  ASP D 180      74.274 -28.280  80.351  1.00 41.39 LIG 0.15  C 
BRANCH 36 37
ATOM     37  CG  ASP D 180      75.579 -27.843  80.986  1.00 35.24 LIG 0.17  C 
ATOM     38 OD1  ASP D 180      75.574 -26.870  81.770  1.00 51.10 LIG-0.65  OA
ATOM     39 OD2  ASP D 180      76.610 -28.496  80.717  1.00 19.64 LIG-0.65  OA
ENDBRANCH 36 37
ENDBRANCH 24 36
ENDBRANCH 3 24
TORSDOF 16
ENDMDL
MODEL 17
USER: ADFR SOLUTION from run 115
USER: SCORE 11.352196 LL:  -2.367 LR: -11.107 RR:   0.000 FEB:  -6.335
USER: RMSD 6.021227
USER: SEED 114
USER: STATUS no improvement in best in 27 clusters for 5 generations
USER: GENES 18
USER: genes 0 Translation |==|  0.48566 0.61184 0.56575
USER: genes 1 Rotation |==|  0.46681 0.83940 0.86566 0.50149
USER: genes 2 Torsion [N]-C--CA-[N] |==|  0.41336
USER: genes 3 Torsion [C]-CA--CB-[CG] |==|  0.80767
USER: genes 4 Torsion [CA]-CB--CG-[OD1] |==|  0.28611
USER: genes 5 Torsion [C]-CA--N-[C] |==|  0.76852
USER: genes 6 Torsion [N]-C--CA-[N] |==|  0.18889
USER: genes 7 Torsion [C]-CA--N-[C] |==|  0.73592
USER: genes 8 Torsion [N]-C--CA-[N] |==|  0.46074
USER: genes 9 Torsion [C]-CA--CB-[CG1] |==|  0.46241
USER: genes 10 Torsion [C]-N--CA-[CB] |==|  0.32616
USER: genes 11 Torsion [N]-CA--C-[N] |==|  0.15448
USER: genes 12 Torsion [C]-N--CA-[CB] |==|  0.45457
USER: genes 13 Torsion [N]-CA--CB-[CG] |==|  0.86728
USER: genes 14 Torsion [CA]-CB--CG-[OD2] |==|  0.45519
USER: genes 15 Torsion [N]-CA--C-[O] |==|  0.07065
USER: genes 16 Torsion [N]-CA--CB-[CG] |==|  0.74432
USER: genes 17 Torsion [CA]-CB--CG-[OD1] |==|  0.28726
ROOT
ATOM      1  C   ASP D 179      71.919 -23.410  80.008  1.00 41.71 LIG 0.24  C 
ATOM      2 O    ASP D 179      72.275 -22.579  79.172  1.00 47.20 LIG-0.27  OA
ATOM      3  N   ASP D 180      71.528 -23.094  81.242  1.00 48.22 LIG-0.34  N 
ATOM      4 H    ASP D 180      71.210 -23.672  81.794  1.00 48.22 LIG 0.16  HD
ENDROOT
BRANCH 1 5
ATOM      5  CA  ASP D 179      71.888 -24.904  79.684  1.00 44.60 LIG 0.19  C 
BRANCH 5 6
ATOM      6  CB  ASP D 179      73.170 -25.608  80.142  1.00 48.27 LIG 0.15  C 
BRANCH 6 7
ATOM      7  CG  ASP D 179      74.382 -25.195  79.313  1.00 46.68 LIG 0.17  C 
ATOM      8 OD1  ASP D 179      75.199 -24.382  79.802  1.00 58.91 LIG-0.65  OA
ATOM      9 OD2  ASP D 179      74.539 -25.694  78.180  1.00 62.78 LIG-0.65  OA
ENDBRANCH 6 7
ENDBRANCH 5 6
BRANCH 5 10
ATOM     10  N   ASP D 179      71.597 -25.092  78.257  1.00 43.40 LIG-0.34  N 
ATOM     11 H    ASP D 179      72.315 -25.206  77.797  1.00 43.40 LIG 0.16  HD
ATOM     12  C   VAL D 178      70.400 -25.097  77.676  1.00 52.66 LIG 0.24  C 
ATOM     13 O    VAL D 178      69.370 -24.638  78.182  1.00 53.52 LIG-0.27  OA
BRANCH 12 14
ATOM     14  CA  VAL D 178      70.384 -25.734  76.282  1.00 43.72 LIG 0.18  C 
BRANCH 14 15
ATOM     15  N   VAL D 178      70.631 -27.162  76.354  1.00 54.34 LIG-0.35  N 
ATOM     16  C   GLY D 177      71.842 -27.686  76.194  1.00 48.99 LIG 0.25  C 
ATOM     17 O    GLY D 177      72.046 -28.889  76.272  1.00 61.87 LIG-0.27  OA
ATOM     18 H    VAL D 178      69.927 -27.631  76.508  1.00 54.34 LIG 0.16  HD
BRANCH 16 19
ATOM     19  CA  GLY D 177      72.995 -26.733  75.924  1.00 38.66 LIG 0.47  C 
ATOM     20  N   GLY D 177      74.284 -27.381  76.096  1.00 37.02 LIG 0.61  N 
ENDBRANCH 16 19
ENDBRANCH 14 15
BRANCH 14 21
ATOM     21  CB  VAL D 178      69.054 -25.448  75.552  1.00 39.80 LIG 0.01  C 
ATOM     22  CG2 VAL D 178      67.926 -26.254  76.157  1.00 46.96 LIG 0.01  C 
ATOM     23  CG1 VAL D 178      69.199 -25.796  74.069  1.00 37.07 LIG 0.01  C 
ENDBRANCH 14 21
ENDBRANCH 12 14
ENDBRANCH 5 10
ENDBRANCH 1 5
BRANCH 3 24
ATOM     24  CA  ASP D 180      71.595 -21.741  81.789  1.00 47.37 LIG 0.19  C 
BRANCH 24 25
ATOM     25  C   ASP D 180      72.459 -21.758  83.048  1.00 52.09 LIG 0.24  C 
ATOM     26 O    ASP D 180      72.017 -21.324  84.115  1.00 46.90 LIG-0.27  OA
ATOM     27  N   ASP D 181      73.691 -22.242  82.931  1.00 56.67 LIG-0.35  N 
ATOM     28 H    ASP D 181      74.027 -22.542  82.199  1.00 56.67 LIG 0.16  HD
BRANCH 27 29
ATOM     29  CA  ASP D 181      74.583 -22.296  84.082  1.00 54.32 LIG 0.17  C 
BRANCH 29 30
ATOM     30  CB  ASP D 181      75.753 -23.237  83.802  1.00 57.98 LIG 0.15  C 
BRANCH 30 31
ATOM     31  CG  ASP D 181      75.306 -24.563  83.226  1.00 59.80 LIG 0.17  C 
ATOM     32 OD2  ASP D 181      76.159 -25.291  82.674  1.00 65.59 LIG-0.65  OA
ATOM     33 OD1  ASP D 181      74.101 -24.877  83.323  1.00 62.88 LIG-0.65  OA
ENDBRANCH 30 31
ENDBRANCH 29 30
BRANCH 29 34
ATOM     34  C   ASP D 181      75.096 -20.911  84.458  1.00 55.94 LIG 0.22  C 
ATOM     35 O    ASP D 181      74.449 -19.900  84.172  1.00 49.69 LIG-0.29  OA
ENDBRANCH 29 34
ENDBRANCH 27 29
ENDBRANCH 24 25
BRANCH 24 36
ATOM     36  CB  ASP D 180      70.203 -21.210  82.134  1.00 41.39 LIG 0.15  C 
BRANCH 36 37
ATOM     37  CG  ASP D 180      69.568 -20.437  80.996  1.00 35.24 LIG 0.17  C 
ATOM     38 OD1  ASP D 180      68.674 -20.986  80.316  1.00 51.10 LIG-0.65  OA
ATOM     39 OD2  ASP D 180      69.949 -19.263  80.799  1.00 19.64 LIG-0.65  OA
ENDBRANCH 36 37
ENDBRANCH 24 36
ENDBRANCH 3 24
TORSDOF 16
ENDMDL
MODEL 18
USER: ADFR SOLUTION from run 91
USER: SCORE 12.089468 LL:  -2.383 LR: -11.066 RR:   0.000 FEB:  -6.293
USER: RMSD 5.587095
USER: SEED 90
USER: STATUS no improvement in best in 13 clusters for 5 generations
USER: GENES 18
USER: genes 0 Translation |==|  0.53262 0.41584 0.34466
USER: genes 1 Rotation |==|  0.66777 0.70323 0.61837 0.90809
USER: genes 2 Torsion [N]-C--CA-[N] |==|  0.55142
USER: genes 3 Torsion [C]-CA--CB-[CG] |==|  0.50106
USER: genes 4 Torsion [CA]-CB--CG-[OD1] |==|  0.51044
USER: genes 5 Torsion [C]-CA--N-[C] |==|  0.20224
USER: genes 6 Torsion [N]-C--CA-[N] |==|  0.91679
USER: genes 7 Torsion [C]-CA--N-[C] |==|  0.80596
USER: genes 8 Torsion [N]-C--CA-[N] |==|  0.38096
USER: genes 9 Torsion [C]-CA--CB-[CG1] |==|  0.78904
USER: genes 10 Torsion [C]-N--CA-[CB] |==|  0.14444
USER: genes 11 Torsion [N]-CA--C-[N] |==|  0.17749
USER: genes 12 Torsion [C]-N--CA-[CB] |==|  0.46152
USER: genes 13 Torsion [N]-CA--CB-[CG] |==|  0.75817
USER: genes 14 Torsion [CA]-CB--CG-[OD2] |==|  0.55080
USER: genes 15 Torsion [N]-CA--C-[O] |==|  0.13962
USER: genes 16 Torsion [N]-CA--CB-[CG] |==|  0.52798
USER: genes 17 Torsion [CA]-CB--CG-[OD1] |==|  0.49195
ROOT
ATOM      1  C   ASP D 179      72.835 -27.085  76.360  1.00 41.71 LIG 0.24  C 
ATOM      2 O    ASP D 179      73.355 -28.184  76.170  1.00 47.20 LIG-0.27  OA
ATOM      3  N   ASP D 180      73.185 -26.265  77.350  1.00 48.22 LIG-0.34  N 
ATOM      4 H    ASP D 180      72.870 -25.468  77.430  1.00 48.22 LIG 0.16  HD
ENDROOT
BRANCH 1 5
ATOM      5  CA  ASP D 179      71.728 -26.557  75.446  1.00 44.60 LIG 0.19  C 
BRANCH 5 6
ATOM      6  CB  ASP D 179      70.702 -25.727  76.224  1.00 48.27 LIG 0.15  C 
BRANCH 6 7
ATOM      7  CG  ASP D 179      69.586 -25.201  75.327  1.00 46.68 LIG 0.17  C 
ATOM      8 OD1  ASP D 179      68.718 -24.448  75.823  1.00 58.91 LIG-0.65  OA
ATOM      9 OD2  ASP D 179      69.579 -25.518  74.120  1.00 62.78 LIG-0.65  OA
ENDBRANCH 6 7
ENDBRANCH 5 6
BRANCH 5 10
ATOM     10  N   ASP D 179      71.132 -27.674  74.701  1.00 43.40 LIG-0.34  N 
ATOM     11 H    ASP D 179      71.364 -27.666  73.873  1.00 43.40 LIG 0.16  HD
ATOM     12  C   VAL D 178      70.324 -28.617  75.180  1.00 52.66 LIG 0.24  C 
ATOM     13 O    VAL D 178      69.697 -28.535  76.241  1.00 53.52 LIG-0.27  OA
BRANCH 12 14
ATOM     14  CA  VAL D 178      70.220 -29.861  74.289  1.00 43.72 LIG 0.18  C 
BRANCH 14 15
ATOM     15  N   VAL D 178      70.406 -29.523  72.891  1.00 54.34 LIG-0.35  N 
ATOM     16  C   GLY D 177      69.510 -28.827  72.199  1.00 48.99 LIG 0.25  C 
ATOM     17 O    GLY D 177      69.681 -28.532  71.024  1.00 61.87 LIG-0.27  OA
ATOM     18 H    VAL D 178      71.143 -29.812  72.556  1.00 54.34 LIG 0.16  HD
BRANCH 16 19
ATOM     19  CA  GLY D 177      68.249 -28.382  72.921  1.00 38.66 LIG 0.47  C 
ATOM     20  N   GLY D 177      67.894 -27.011  72.596  1.00 37.02 LIG 0.61  N 
ENDBRANCH 16 19
ENDBRANCH 14 15
BRANCH 14 21
ATOM     21  CB  VAL D 178      71.226 -30.947  74.726  1.00 39.80 LIG 0.01  C 
ATOM     22  CG2 VAL D 178      71.215 -31.114  76.230  1.00 46.96 LIG 0.01  C 
ATOM     23  CG1 VAL D 178      72.631 -30.559  74.262  1.00 37.07 LIG 0.01  C 
ENDBRANCH 14 21
ENDBRANCH 12 14
ENDBRANCH 5 10
ENDBRANCH 1 5
BRANCH 3 24
ATOM     24  CA  ASP D 180      74.135 -26.625  78.400  1.00 47.37 LIG 0.19  C 
BRANCH 24 25
ATOM     25  C   ASP D 180      74.426 -25.390  79.249  1.00 52.09 LIG 0.24  C 
ATOM     26 O    ASP D 180      75.565 -24.918  79.294  1.00 46.90 LIG-0.27  OA
ATOM     27  N   ASP D 181      73.412 -24.872  79.933  1.00 56.67 LIG-0.35  N 
ATOM     28 H    ASP D 181      72.612 -25.186  79.928  1.00 56.67 LIG 0.16  HD
BRANCH 27 29
ATOM     29  CA  ASP D 181      73.601 -23.693  80.769  1.00 54.32 LIG 0.17  C 
BRANCH 29 30
ATOM     30  CB  ASP D 181      72.250 -23.101  81.165  1.00 57.98 LIG 0.15  C 
BRANCH 30 31
ATOM     31  CG  ASP D 181      71.722 -22.124  80.138  1.00 59.80 LIG 0.17  C 
ATOM     32 OD2  ASP D 181      70.827 -21.323  80.483  1.00 65.59 LIG-0.65  OA
ATOM     33 OD1  ASP D 181      72.201 -22.156  78.985  1.00 62.88 LIG-0.65  OA
ENDBRANCH 30 31
ENDBRANCH 29 30
BRANCH 29 34
ATOM     34  C   ASP D 181      74.423 -24.014  82.012  1.00 55.94 LIG 0.22  C 
ATOM     35 O    ASP D 181      75.497 -24.615  81.919  1.00 49.69 LIG-0.29  OA
ENDBRANCH 29 34
ENDBRANCH 27 29
ENDBRANCH 24 25
BRANCH 24 36
ATOM     36  CB  ASP D 180      75.442 -27.157  77.810  1.00 41.39 LIG 0.15  C 
BRANCH 36 37
ATOM     37  CG  ASP D 180      76.355 -27.767  78.854  1.00 35.24 LIG 0.17  C 
ATOM     38 OD1  ASP D 180      77.432 -28.286  78.486  1.00 51.10 LIG-0.65  OA
ATOM     39 OD2  ASP D 180      76.004 -27.702  80.051  1.00 19.64 LIG-0.65  OA
ENDBRANCH 36 37
ENDBRANCH 24 36
ENDBRANCH 3 24
TORSDOF 16
ENDMDL
MODEL 19
USER: ADFR SOLUTION from run 20
USER: SCORE 11.824646 LL:  -2.296 LR: -11.046 RR:   0.000 FEB:  -6.273
USER: RMSD 5.958489
USER: SEED 19
USER: STATUS no improvement in best in 9 clusters for 5 generations
USER: GENES 18
USER: genes 0 Translation |==|  0.52672 0.42220 0.33737
USER: genes 1 Rotation |==|  0.68311 0.67245 0.66452 0.89958
USER: genes 2 Torsion [N]-C--CA-[N] |==|  0.58889
USER: genes 3 Torsion [C]-CA--CB-[CG] |==|  0.53134
USER: genes 4 Torsion [CA]-CB--CG-[OD1] |==|  0.49369
USER: genes 5 Torsion [C]-CA--N-[C] |==|  0.19342
USER: genes 6 Torsion [N]-C--CA-[N] |==|  0.90132
USER: genes 7 Torsion [C]-CA--N-[C] |==|  0.81708
USER: genes 8 Torsion [N]-C--CA-[N] |==|  0.39869
USER: genes 9 Torsion [C]-CA--CB-[CG1] |==|  0.19804
USER: genes 10 Torsion [C]-N--CA-[CB] |==|  0.20707
USER: genes 11 Torsion [N]-CA--C-[N] |==|  0.86421
USER: genes 12 Torsion [C]-N--CA-[CB] |==|  0.25198
USER: genes 13 Torsion [N]-CA--CB-[CG] |==|  0.95487
USER: genes 14 Torsion [CA]-CB--CG-[OD2] |==|  0.71215
USER: genes 15 Torsion [N]-CA--C-[O] |==|  0.92533
USER: genes 16 Torsion [N]-CA--CB-[CG] |==|  0.59723
USER: genes 17 Torsion [CA]-CB--CG-[OD1] |==|  0.91179
ROOT
ATOM      1  C   ASP D 179      72.720 -26.966  76.240  1.00 41.71 LIG 0.24  C 
ATOM      2 O    ASP D 179      73.370 -27.971  75.953  1.00 47.20 LIG-0.27  OA
ATOM      3  N   ASP D 180      72.856 -26.301  77.386  1.00 48.22 LIG-0.34  N 
ATOM      4 H    ASP D 180      72.454 -25.558  77.547  1.00 48.22 LIG 0.16  HD
ENDROOT
BRANCH 1 5
ATOM      5  CA  ASP D 179      71.688 -26.381  75.274  1.00 44.60 LIG 0.19  C 
BRANCH 5 6
ATOM      6  CB  ASP D 179      70.670 -25.498  76.004  1.00 48.27 LIG 0.15  C 
BRANCH 6 7
ATOM      7  CG  ASP D 179      69.484 -25.132  75.117  1.00 46.68 LIG 0.17  C 
ATOM      8 OD1  ASP D 179      68.555 -24.449  75.604  1.00 58.91 LIG-0.65  OA
ATOM      9 OD2  ASP D 179      69.481 -25.505  73.925  1.00 62.78 LIG-0.65  OA
ENDBRANCH 6 7
ENDBRANCH 5 6
BRANCH 5 10
ATOM     10  N   ASP D 179      71.071 -27.465  74.498  1.00 43.40 LIG-0.34  N 
ATOM     11 H    ASP D 179      71.310 -27.442  73.672  1.00 43.40 LIG 0.16  HD
ATOM     12  C   VAL D 178      70.239 -28.400  74.948  1.00 52.66 LIG 0.24  C 
ATOM     13 O    VAL D 178      69.605 -28.329  76.006  1.00 53.52 LIG-0.27  OA
BRANCH 12 14
ATOM     14  CA  VAL D 178      70.111 -29.619  74.026  1.00 43.72 LIG 0.18  C 
BRANCH 14 15
ATOM     15  N   VAL D 178      70.187 -29.232  72.631  1.00 54.34 LIG-0.35  N 
ATOM     16  C   GLY D 177      69.259 -28.481  72.047  1.00 48.99 LIG 0.25  C 
ATOM     17 O    GLY D 177      69.337 -28.146  70.873  1.00 61.87 LIG-0.27  OA
ATOM     18 H    VAL D 178      70.881 -29.532  72.221  1.00 54.34 LIG 0.16  HD
BRANCH 16 19
ATOM     19  CA  GLY D 177      68.082 -28.026  72.893  1.00 38.66 LIG 0.47  C 
ATOM     20  N   GLY D 177      67.653 -26.682  72.545  1.00 37.02 LIG 0.61  N 
ENDBRANCH 16 19
ENDBRANCH 14 15
BRANCH 14 21
ATOM     21  CB  VAL D 178      71.181 -30.682  74.356  1.00 39.80 LIG 0.01  C 
ATOM     22  CG2 VAL D 178      71.248 -31.731  73.267  1.00 46.96 LIG 0.01  C 
ATOM     23  CG1 VAL D 178      70.847 -31.348  75.692  1.00 37.07 LIG 0.01  C 
ENDBRANCH 14 21
ENDBRANCH 12 14
ENDBRANCH 5 10
ENDBRANCH 1 5
BRANCH 3 24
ATOM     24  CA  ASP D 180      73.699 -26.758  78.489  1.00 47.37 LIG 0.19  C 
BRANCH 24 25
ATOM     25  C   ASP D 180      73.327 -25.982  79.751  1.00 52.09 LIG 0.24  C 
ATOM     26 O    ASP D 180      73.104 -26.578  80.808  1.00 46.90 LIG-0.27  OA
ATOM     27  N   ASP D 181      73.245 -24.660  79.647  1.00 56.67 LIG-0.35  N 
ATOM     28 H    ASP D 181      73.386 -24.220  78.921  1.00 56.67 LIG 0.16  HD
BRANCH 27 29
ATOM     29  CA  ASP D 181      72.897 -23.842  80.801  1.00 54.32 LIG 0.17  C 
BRANCH 29 30
ATOM     30  CB  ASP D 181      74.158 -23.416  81.550  1.00 57.98 LIG 0.15  C 
BRANCH 30 31
ATOM     31  CG  ASP D 181      75.367 -24.241  81.166  1.00 59.80 LIG 0.17  C 
ATOM     32 OD2  ASP D 181      75.761 -25.124  81.957  1.00 65.59 LIG-0.65  OA
ATOM     33 OD1  ASP D 181      75.924 -24.006  80.073  1.00 62.88 LIG-0.65  OA
ENDBRANCH 30 31
ENDBRANCH 29 30
BRANCH 29 34
ATOM     34  C   ASP D 181      72.085 -22.617  80.394  1.00 55.94 LIG 0.22  C 
ATOM     35 O    ASP D 181      72.199 -22.133  79.265  1.00 49.69 LIG-0.29  OA
ENDBRANCH 29 34
ENDBRANCH 27 29
ENDBRANCH 24 25
BRANCH 24 36
ATOM     36  CB  ASP D 180      75.182 -26.547  78.181  1.00 41.39 LIG 0.15  C 
BRANCH 36 37
ATOM     37  CG  ASP D 180      76.064 -27.640  78.749  1.00 35.24 LIG 0.17  C 
ATOM     38 OD1  ASP D 180      75.724 -28.199  79.815  1.00 51.10 LIG-0.65  OA
ATOM     39 OD2  ASP D 180      77.090 -27.958  78.111  1.00 19.64 LIG-0.65  OA
ENDBRANCH 36 37
ENDBRANCH 24 36
ENDBRANCH 3 24
TORSDOF 16
ENDMDL
MODEL 20
USER: ADFR SOLUTION from run 3
USER: SCORE 11.004724 LL:  -2.248 LR: -11.005 RR:   0.000 FEB:  -6.232
USER: RMSD 8.539865
USER: SEED 500724
USER: STATUS no improvement in best in 5 clusters for 5 generations
USER: GENES 18
USER: genes 0 Translation |==|  0.32028 0.54054 0.41175
USER: genes 1 Rotation |==|  0.32928 0.42512 0.09598 0.72806
USER: genes 2 Torsion [N]-C--CA-[N] |==|  0.57777
USER: genes 3 Torsion [C]-CA--CB-[CG] |==|  0.79729
USER: genes 4 Torsion [CA]-CB--CG-[OD1] |==|  0.80911
USER: genes 5 Torsion [C]-CA--N-[C] |==|  0.54767
USER: genes 6 Torsion [N]-C--CA-[N] |==|  0.45027
USER: genes 7 Torsion [C]-CA--N-[C] |==|  0.76383
USER: genes 8 Torsion [N]-C--CA-[N] |==|  0.36142
USER: genes 9 Torsion [C]-CA--CB-[CG1] |==|  0.91421
USER: genes 10 Torsion [C]-N--CA-[CB] |==|  0.13700
USER: genes 11 Torsion [N]-CA--C-[N] |==|  0.32500
USER: genes 12 Torsion [C]-N--CA-[CB] |==|  0.81414
USER: genes 13 Torsion [N]-CA--CB-[CG] |==|  0.77033
USER: genes 14 Torsion [CA]-CB--CG-[OD2] |==|  0.04693
USER: genes 15 Torsion [N]-CA--C-[O] |==|  0.27466
USER: genes 16 Torsion [N]-CA--CB-[CG] |==|  0.63935
USER: genes 17 Torsion [CA]-CB--CG-[OD1] |==|  0.91124
ROOT
ATOM      1  C   ASP D 179      68.694 -24.747  77.467  1.00 41.71 LIG 0.24  C 
ATOM      2 O    ASP D 179      68.339 -23.625  77.828  1.00 47.20 LIG-0.27  OA
ATOM      3  N   ASP D 180      69.831 -25.322  77.858  1.00 48.22 LIG-0.34  N 
ATOM      4 H    ASP D 180      70.036 -26.134  77.662  1.00 48.22 LIG 0.16  HD
ENDROOT
BRANCH 1 5
ATOM      5  CA  ASP D 179      67.834 -25.593  76.527  1.00 44.60 LIG 0.19  C 
BRANCH 5 6
ATOM      6  CB  ASP D 179      68.679 -26.604  75.746  1.00 48.27 LIG 0.15  C 
BRANCH 6 7
ATOM      7  CG  ASP D 179      69.517 -25.938  74.659  1.00 46.68 LIG 0.17  C 
ATOM      8 OD1  ASP D 179      68.936 -25.445  73.666  1.00 58.91 LIG-0.65  OA
ATOM      9 OD2  ASP D 179      70.757 -25.883  74.798  1.00 62.78 LIG-0.65  OA
ENDBRANCH 6 7
ENDBRANCH 5 6
BRANCH 5 10
ATOM     10  N   ASP D 179      67.034 -24.712  75.666  1.00 43.40 LIG-0.34  N 
ATOM     11 H    ASP D 179      67.341 -23.908  75.659  1.00 43.40 LIG 0.16  HD
ATOM     12  C   VAL D 178      65.957 -25.044  74.958  1.00 52.66 LIG 0.24  C 
ATOM     13 O    VAL D 178      65.274 -26.055  75.149  1.00 53.52 LIG-0.27  OA
BRANCH 12 14
ATOM     14  CA  VAL D 178      65.608 -24.046  73.848  1.00 43.72 LIG 0.18  C 
BRANCH 14 15
ATOM     15  N   VAL D 178      64.719 -24.641  72.868  1.00 54.34 LIG-0.35  N 
ATOM     16  C   GLY D 177      65.164 -25.365  71.846  1.00 48.99 LIG 0.25  C 
ATOM     17 O    GLY D 177      64.408 -25.876  71.033  1.00 61.87 LIG-0.27  OA
ATOM     18 H    VAL D 178      63.886 -24.482  73.010  1.00 54.34 LIG 0.16  HD
BRANCH 16 19
ATOM     19  CA  GLY D 177      66.666 -25.560  71.719  1.00 38.66 LIG 0.47  C 
ATOM     20  N   GLY D 177      67.016 -26.957  71.534  1.00 37.02 LIG 0.61  N 
ENDBRANCH 16 19
ENDBRANCH 14 15
BRANCH 14 21
ATOM     21  CB  VAL D 178      64.992 -22.756  74.430  1.00 39.80 LIG 0.01  C 
ATOM     22  CG2 VAL D 178      66.069 -21.737  74.733  1.00 46.96 LIG 0.01  C 
ATOM     23  CG1 VAL D 178      64.224 -23.088  75.710  1.00 37.07 LIG 0.01  C 
ENDBRANCH 14 21
ENDBRANCH 12 14
ENDBRANCH 5 10
ENDBRANCH 1 5
BRANCH 3 24
ATOM     24  CA  ASP D 180      70.847 -24.641  78.658  1.00 47.37 LIG 0.19  C 
BRANCH 24 25
ATOM     25  C   ASP D 180      71.880 -25.666  79.122  1.00 52.09 LIG 0.24  C 
ATOM     26 O    ASP D 180      71.552 -26.586  79.876  1.00 46.90 LIG-0.27  OA
ATOM     27  N   ASP D 181      73.126 -25.507  78.691  1.00 56.67 LIG-0.35  N 
ATOM     28 H    ASP D 181      73.384 -24.870  78.173  1.00 56.67 LIG 0.16  HD
BRANCH 27 29
ATOM     29  CA  ASP D 181      74.176 -26.438  79.084  1.00 54.32 LIG 0.17  C 
BRANCH 29 30
ATOM     30  CB  ASP D 181      74.455 -26.323  80.581  1.00 57.98 LIG 0.15  C 
BRANCH 30 31
ATOM     31  CG  ASP D 181      75.392 -25.182  80.910  1.00 59.80 LIG 0.17  C 
ATOM     32 OD2  ASP D 181      75.574 -24.294  80.050  1.00 65.59 LIG-0.65  OA
ATOM     33 OD1  ASP D 181      75.949 -25.174  82.028  1.00 62.88 LIG-0.65  OA
ENDBRANCH 30 31
ENDBRANCH 29 30
BRANCH 29 34
ATOM     34  C   ASP D 181      73.813 -27.874  78.722  1.00 55.94 LIG 0.22  C 
ATOM     35 O    ASP D 181      74.263 -28.399  77.700  1.00 49.69 LIG-0.29  OA
ENDBRANCH 29 34
ENDBRANCH 27 29
ENDBRANCH 24 25
BRANCH 24 36
ATOM     36  CB  ASP D 180      70.228 -23.954  79.877  1.00 41.39 LIG 0.15  C 
BRANCH 36 37
ATOM     37  CG  ASP D 180      70.654 -22.507  80.017  1.00 35.24 LIG 0.17  C 
ATOM     38 OD1  ASP D 180      71.794 -22.171  79.629  1.00 51.10 LIG-0.65  OA
ATOM     39 OD2  ASP D 180      69.831 -21.697  80.496  1.00 19.64 LIG-0.65  OA
ENDBRANCH 36 37
ENDBRANCH 24 36
ENDBRANCH 3 24
TORSDOF 16
ENDMDL
MODEL 21
USER: ADFR SOLUTION from run 114
USER: SCORE 11.769792 LL:  -1.771 LR: -11.012 RR:   0.000 FEB:  -6.239
USER: RMSD 5.734741
USER: SEED 113
USER: STATUS no improvement in best in 8 clusters for 5 generations
USER: GENES 18
USER: genes 0 Translation |==|  0.64854 0.38508 0.35480
USER: genes 1 Rotation |==|  0.67238 0.30292 0.12820 0.70788
USER: genes 2 Torsion [N]-C--CA-[N] |==|  0.31364
USER: genes 3 Torsion [C]-CA--CB-[CG] |==|  0.72781
USER: genes 4 Torsion [CA]-CB--CG-[OD1] |==|  0.29866
USER: genes 5 Torsion [C]-CA--N-[C] |==|  0.68871
USER: genes 6 Torsion [N]-C--CA-[N] |==|  0.88248
USER: genes 7 Torsion [C]-CA--N-[C] |==|  0.71131
USER: genes 8 Torsion [N]-C--CA-[N] |==|  0.67218
USER: genes 9 Torsion [C]-CA--CB-[CG1] |==|  0.70148
USER: genes 10 Torsion [C]-N--CA-[CB] |==|  0.50642
USER: genes 11 Torsion [N]-CA--C-[N] |==|  0.45826
USER: genes 12 Torsion [C]-N--CA-[CB] |==|  0.47398
USER: genes 13 Torsion [N]-CA--CB-[CG] |==|  0.63279
USER: genes 14 Torsion [CA]-CB--CG-[OD2] |==|  0.06421
USER: genes 15 Torsion [N]-CA--C-[O] |==|  0.21236
USER: genes 16 Torsion [N]-CA--CB-[CG] |==|  0.20717
USER: genes 17 Torsion [CA]-CB--CG-[OD1] |==|  0.25191
ROOT
ATOM      1  C   ASP D 179      75.095 -27.662  76.527  1.00 41.71 LIG 0.24  C 
ATOM      2 O    ASP D 179      74.298 -26.821  76.111  1.00 47.20 LIG-0.27  OA
ATOM      3  N   ASP D 180      75.059 -28.166  77.760  1.00 48.22 LIG-0.34  N 
ATOM      4 H    ASP D 180      75.572 -28.807  78.018  1.00 48.22 LIG 0.16  HD
ENDROOT
BRANCH 1 5
ATOM      5  CA  ASP D 179      76.210 -28.214  75.637  1.00 44.60 LIG 0.19  C 
BRANCH 5 6
ATOM      6  CB  ASP D 179      77.146 -27.103  75.151  1.00 48.27 LIG 0.15  C 
BRANCH 6 7
ATOM      7  CG  ASP D 179      76.798 -26.630  73.743  1.00 46.68 LIG 0.17  C 
ATOM      8 OD1  ASP D 179      76.264 -25.507  73.598  1.00 58.91 LIG-0.65  OA
ATOM      9 OD2  ASP D 179      77.074 -27.364  72.772  1.00 62.78 LIG-0.65  OA
ENDBRANCH 6 7
ENDBRANCH 5 6
BRANCH 5 10
ATOM     10  N   ASP D 179      75.622 -29.002  74.545  1.00 43.40 LIG-0.34  N 
ATOM     11 H    ASP D 179      75.185 -28.507  73.994  1.00 43.40 LIG 0.16  HD
ATOM     12  C   VAL D 178      75.712 -30.317  74.367  1.00 52.66 LIG 0.24  C 
ATOM     13 O    VAL D 178      76.032 -31.126  75.244  1.00 53.52 LIG-0.27  OA
BRANCH 12 14
ATOM     14  CA  VAL D 178      75.376 -30.779  72.944  1.00 43.72 LIG 0.18  C 
BRANCH 14 15
ATOM     15  N   VAL D 178      74.215 -30.081  72.426  1.00 54.34 LIG-0.35  N 
ATOM     16  C   GLY D 177      73.017 -30.650  72.345  1.00 48.99 LIG 0.25  C 
ATOM     17 O    GLY D 177      72.039 -30.050  71.921  1.00 61.87 LIG-0.27  OA
ATOM     18 H    VAL D 178      74.374 -29.273  72.179  1.00 54.34 LIG 0.16  HD
BRANCH 16 19
ATOM     19  CA  GLY D 177      72.884 -32.089  72.816  1.00 38.66 LIG 0.47  C 
ATOM     20  N   GLY D 177      72.477 -32.975  71.739  1.00 37.02 LIG 0.61  N 
ENDBRANCH 16 19
ENDBRANCH 14 15
BRANCH 14 21
ATOM     21  CB  VAL D 178      76.584 -30.603  72.000  1.00 39.80 LIG 0.01  C 
ATOM     22  CG2 VAL D 178      77.849 -30.344  72.790  1.00 46.96 LIG 0.01  C 
ATOM     23  CG1 VAL D 178      76.324 -29.434  71.048  1.00 37.07 LIG 0.01  C 
ENDBRANCH 14 21
ENDBRANCH 12 14
ENDBRANCH 5 10
ENDBRANCH 1 5
BRANCH 3 24
ATOM     24  CA  ASP D 180      74.151 -27.690  78.801  1.00 47.37 LIG 0.19  C 
BRANCH 24 25
ATOM     25  C   ASP D 180      74.374 -26.193  79.005  1.00 52.09 LIG 0.24  C 
ATOM     26 O    ASP D 180      75.388 -25.646  78.564  1.00 46.90 LIG-0.27  OA
ATOM     27  N   ASP D 181      73.442 -25.529  79.680  1.00 56.67 LIG-0.35  N 
ATOM     28 H    ASP D 181      72.731 -25.886  80.007  1.00 56.67 LIG 0.16  HD
BRANCH 27 29
ATOM     29  CA  ASP D 181      73.574 -24.098  79.921  1.00 54.32 LIG 0.17  C 
BRANCH 29 30
ATOM     30  CB  ASP D 181      72.279 -23.537  80.507  1.00 57.98 LIG 0.15  C 
BRANCH 30 31
ATOM     31  CG  ASP D 181      71.824 -22.276  79.806  1.00 59.80 LIG 0.17  C 
ATOM     32 OD2  ASP D 181      72.216 -22.069  78.637  1.00 65.59 LIG-0.65  OA
ATOM     33 OD1  ASP D 181      71.075 -21.491  80.423  1.00 62.88 LIG-0.65  OA
ENDBRANCH 30 31
ENDBRANCH 29 30
BRANCH 29 34
ATOM     34  C   ASP D 181      74.748 -23.791  80.843  1.00 55.94 LIG 0.22  C 
ATOM     35 O    ASP D 181      75.907 -23.826  80.420  1.00 49.69 LIG-0.29  OA
ENDBRANCH 29 34
ENDBRANCH 27 29
ENDBRANCH 24 25
BRANCH 24 36
ATOM     36  CB  ASP D 180      74.384 -28.424  80.122  1.00 41.39 LIG 0.15  C 
BRANCH 36 37
ATOM     37  CG  ASP D 180      75.645 -27.973  80.833  1.00 35.24 LIG 0.17  C 
ATOM     38 OD1  ASP D 180      75.574 -27.033  81.654  1.00 51.10 LIG-0.65  OA
ATOM     39 OD2  ASP D 180      76.708 -28.582  80.585  1.00 19.64 LIG-0.65  OA
ENDBRANCH 36 37
ENDBRANCH 24 36
ENDBRANCH 3 24
TORSDOF 16
ENDMDL
MODEL 22
USER: ADFR SOLUTION from run 37
USER: SCORE 11.451404 LL:  -2.221 LR: -10.996 RR:   0.000 FEB:  -6.223
USER: RMSD 5.416850
USER: SEED 36
USER: STATUS no improvement in best in 8 clusters for 5 generations
USER: GENES 18
USER: genes 0 Translation |==|  0.62771 0.49194 0.54930
USER: genes 1 Rotation |==|  0.32900 0.83019 0.81059 0.62354
USER: genes 2 Torsion [N]-C--CA-[N] |==|  0.40064
USER: genes 3 Torsion [C]-CA--CB-[CG] |==|  0.58135
USER: genes 4 Torsion [CA]-CB--CG-[OD1] |==|  0.72960
USER: genes 5 Torsion [C]-CA--N-[C] |==|  0.80565
USER: genes 6 Torsion [N]-C--CA-[N] |==|  0.37738
USER: genes 7 Torsion [C]-CA--N-[C] |==|  0.78316
USER: genes 8 Torsion [N]-C--CA-[N] |==|  0.79569
USER: genes 9 Torsion [C]-CA--CB-[CG1] |==|  0.27110
USER: genes 10 Torsion [C]-N--CA-[CB] |==|  0.39468
USER: genes 11 Torsion [N]-CA--C-[N] |==|  0.30064
USER: genes 12 Torsion [C]-N--CA-[CB] |==|  0.28726
USER: genes 13 Torsion [N]-CA--CB-[CG] |==|  0.98567
USER: genes 14 Torsion [CA]-CB--CG-[OD2] |==|  0.21376
USER: genes 15 Torsion [N]-CA--C-[O] |==|  0.21757
USER: genes 16 Torsion [N]-CA--CB-[CG] |==|  0.59752
USER: genes 17 Torsion [CA]-CB--CG-[OD1] |==|  0.14004
ROOT
ATOM      1  C   ASP D 179      74.689 -25.658  79.736  1.00 41.71 LIG 0.24  C 
ATOM      2 O    ASP D 179      75.539 -24.878  79.309  1.00 47.20 LIG-0.27  OA
ATOM      3  N   ASP D 180      73.556 -25.268  80.319  1.00 48.22 LIG-0.34  N 
ATOM      4 H    ASP D 180      72.934 -25.817  80.546  1.00 48.22 LIG 0.16  HD
ENDROOT
BRANCH 1 5
ATOM      5  CA  ASP D 179      74.866 -27.173  79.621  1.00 44.60 LIG 0.19  C 
BRANCH 5 6
ATOM      6  CB  ASP D 179      75.562 -27.755  80.856  1.00 48.27 LIG 0.15  C 
BRANCH 6 7
ATOM      7  CG  ASP D 179      76.370 -29.006  80.527  1.00 46.68 LIG 0.17  C 
ATOM      8 OD1  ASP D 179      75.855 -30.129  80.732  1.00 58.91 LIG-0.65  OA
ATOM      9 OD2  ASP D 179      77.513 -28.878  80.042  1.00 62.78 LIG-0.65  OA
ENDBRANCH 6 7
ENDBRANCH 5 6
BRANCH 5 10
ATOM     10  N   ASP D 179      75.550 -27.493  78.361  1.00 43.40 LIG-0.34  N 
ATOM     11 H    ASP D 179      76.350 -27.778  78.495  1.00 43.40 LIG 0.16  HD
ATOM     12  C   VAL D 178      75.056 -27.382  77.130  1.00 52.66 LIG 0.24  C 
ATOM     13 O    VAL D 178      74.070 -26.704  76.826  1.00 53.52 LIG-0.27  OA
BRANCH 12 14
ATOM     14  CA  VAL D 178      75.828 -28.182  76.073  1.00 43.72 LIG 0.18  C 
BRANCH 14 15
ATOM     15  N   VAL D 178      74.923 -28.884  75.183  1.00 54.34 LIG-0.35  N 
ATOM     16  C   GLY D 177      74.313 -30.012  75.530  1.00 48.99 LIG 0.25  C 
ATOM     17 O    GLY D 177      73.539 -30.591  74.780  1.00 61.87 LIG-0.27  OA
ATOM     18 H    VAL D 178      74.821 -28.505  74.418  1.00 54.34 LIG 0.16  HD
BRANCH 16 19
ATOM     19  CA  GLY D 177      74.591 -30.570  76.916  1.00 38.66 LIG 0.47  C 
ATOM     20  N   GLY D 177      75.916 -31.158  77.007  1.00 37.02 LIG 0.61  N 
ENDBRANCH 16 19
ENDBRANCH 14 15
BRANCH 14 21
ATOM     21  CB  VAL D 178      76.784 -27.272  75.273  1.00 39.80 LIG 0.01  C 
ATOM     22  CG2 VAL D 178      76.805 -27.669  73.812  1.00 46.96 LIG 0.01  C 
ATOM     23  CG1 VAL D 178      78.195 -27.374  75.854  1.00 37.07 LIG 0.01  C 
ENDBRANCH 14 21
ENDBRANCH 12 14
ENDBRANCH 5 10
ENDBRANCH 1 5
BRANCH 3 24
ATOM     24  CA  ASP D 180      73.247 -23.874  80.632  1.00 47.37 LIG 0.19  C 
BRANCH 24 25
ATOM     25  C   ASP D 180      73.593 -23.607  82.095  1.00 52.09 LIG 0.24  C 
ATOM     26 O    ASP D 180      72.892 -24.071  82.997  1.00 46.90 LIG-0.27  OA
ATOM     27  N   ASP D 181      74.659 -22.853  82.337  1.00 56.67 LIG-0.35  N 
ATOM     28 H    ASP D 181      75.160 -22.509  81.728  1.00 56.67 LIG 0.16  HD
BRANCH 27 29
ATOM     29  CA  ASP D 181      75.062 -22.548  83.704  1.00 54.32 LIG 0.17  C 
BRANCH 29 30
ATOM     30  CB  ASP D 181      76.267 -23.398  84.104  1.00 57.98 LIG 0.15  C 
BRANCH 30 31
ATOM     31  CG  ASP D 181      76.643 -24.407  83.042  1.00 59.80 LIG 0.17  C 
ATOM     32 OD2  ASP D 181      77.260 -24.007  82.032  1.00 65.59 LIG-0.65  OA
ATOM     33 OD1  ASP D 181      76.320 -25.601  83.216  1.00 62.88 LIG-0.65  OA
ENDBRANCH 30 31
ENDBRANCH 29 30
BRANCH 29 34
ATOM     34  C   ASP D 181      75.379 -21.067  83.877  1.00 55.94 LIG 0.22  C 
ATOM     35 O    ASP D 181      74.472 -20.239  83.993  1.00 49.69 LIG-0.29  OA
ENDBRANCH 29 34
ENDBRANCH 27 29
ENDBRANCH 24 25
BRANCH 24 36
ATOM     36  CB  ASP D 180      71.768 -23.564  80.393  1.00 41.39 LIG 0.15  C 
BRANCH 36 37
ATOM     37  CG  ASP D 180      71.536 -22.159  79.876  1.00 35.24 LIG 0.17  C 
ATOM     38 OD1  ASP D 180      72.199 -21.759  78.894  1.00 51.10 LIG-0.65  OA
ATOM     39 OD2  ASP D 180      70.667 -21.462  80.441  1.00 19.64 LIG-0.65  OA
ENDBRANCH 36 37
ENDBRANCH 24 36
ENDBRANCH 3 24
TORSDOF 16
ENDMDL
MODEL 23
USER: ADFR SOLUTION from run 19
USER: SCORE 11.063003 LL:  -1.879 LR: -10.989 RR:   0.000 FEB:  -6.217
USER: RMSD 8.487002
USER: SEED 18
USER: STATUS no improvement in best in 8 clusters for 5 generations
USER: GENES 18
USER: genes 0 Translation |==|  0.32982 0.53387 0.41286
USER: genes 1 Rotation |==|  0.32490 0.37506 0.10324 0.71519
USER: genes 2 Torsion [N]-C--CA-[N] |==|  0.53839
USER: genes 3 Torsion [C]-CA--CB-[CG] |==|  0.83621
USER: genes 4 Torsion [CA]-CB--CG-[OD1] |==|  0.80096
USER: genes 5 Torsion [C]-CA--N-[C] |==|  0.56667
USER: genes 6 Torsion [N]-C--CA-[N] |==|  0.96006
USER: genes 7 Torsion [C]-CA--N-[C] |==|  0.66752
USER: genes 8 Torsion [N]-C--CA-[N] |==|  0.52024
USER: genes 9 Torsion [C]-CA--CB-[CG1] |==|  0.56065
USER: genes 10 Torsion [C]-N--CA-[CB] |==|  0.14277
USER: genes 11 Torsion [N]-CA--C-[N] |==|  0.25440
USER: genes 12 Torsion [C]-N--CA-[CB] |==|  0.40614
USER: genes 13 Torsion [N]-CA--CB-[CG] |==|  0.41058
USER: genes 14 Torsion [CA]-CB--CG-[OD2] |==|  0.17728
USER: genes 15 Torsion [N]-CA--C-[O] |==|  0.91076
USER: genes 16 Torsion [N]-CA--CB-[CG] |==|  0.58841
USER: genes 17 Torsion [CA]-CB--CG-[OD1] |==|  0.51257
ROOT
ATOM      1  C   ASP D 179      68.881 -24.872  77.485  1.00 41.71 LIG 0.24  C 
ATOM      2 O    ASP D 179      68.465 -23.719  77.598  1.00 47.20 LIG-0.27  OA
ATOM      3  N   ASP D 180      70.000 -25.312  78.059  1.00 48.22 LIG-0.34  N 
ATOM      4 H    ASP D 180      70.243 -26.136  78.038  1.00 48.22 LIG 0.16  HD
ENDROOT
BRANCH 1 5
ATOM      5  CA  ASP D 179      68.122 -25.918  76.667  1.00 44.60 LIG 0.19  C 
BRANCH 5 6
ATOM      6  CB  ASP D 179      69.078 -26.814  75.872  1.00 48.27 LIG 0.15  C 
BRANCH 6 7
ATOM      7  CG  ASP D 179      69.951 -26.015  74.910  1.00 46.68 LIG 0.17  C 
ATOM      8 OD1  ASP D 179      69.425 -25.516  73.890  1.00 58.91 LIG-0.65  OA
ATOM      9 OD2  ASP D 179      71.162 -25.863  75.176  1.00 62.78 LIG-0.65  OA
ENDBRANCH 6 7
ENDBRANCH 5 6
BRANCH 5 10
ATOM     10  N   ASP D 179      67.115 -25.252  75.830  1.00 43.40 LIG-0.34  N 
ATOM     11 H    ASP D 179      67.320 -24.431  75.676  1.00 43.40 LIG 0.16  HD
ATOM     12  C   VAL D 178      66.001 -25.787  75.337  1.00 52.66 LIG 0.24  C 
ATOM     13 O    VAL D 178      65.474 -26.824  75.752  1.00 53.52 LIG-0.27  OA
BRANCH 12 14
ATOM     14  CA  VAL D 178      65.390 -24.996  74.174  1.00 43.72 LIG 0.18  C 
BRANCH 14 15
ATOM     15  N   VAL D 178      65.966 -23.668  74.082  1.00 54.34 LIG-0.35  N 
ATOM     16  C   GLY D 177      65.236 -22.564  74.194  1.00 48.99 LIG 0.25  C 
ATOM     17 O    GLY D 177      65.732 -21.447  74.131  1.00 61.87 LIG-0.27  OA
ATOM     18 H    VAL D 178      66.816 -23.664  73.950  1.00 54.34 LIG 0.16  HD
BRANCH 16 19
ATOM     19  CA  GLY D 177      63.743 -22.723  74.423  1.00 38.66 LIG 0.47  C 
ATOM     20  N   GLY D 177      63.046 -21.450  74.356  1.00 37.02 LIG 0.61  N 
ENDBRANCH 16 19
ENDBRANCH 14 15
BRANCH 14 21
ATOM     21  CB  VAL D 178      65.551 -25.754  72.838  1.00 39.80 LIG 0.01  C 
ATOM     22  CG2 VAL D 178      66.884 -26.468  72.785  1.00 46.96 LIG 0.01  C 
ATOM     23  CG1 VAL D 178      65.449 -24.767  71.674  1.00 37.07 LIG 0.01  C 
ENDBRANCH 14 21
ENDBRANCH 12 14
ENDBRANCH 5 10
ENDBRANCH 1 5
BRANCH 3 24
ATOM     24  CA  ASP D 180      70.929 -24.447  78.783  1.00 47.37 LIG 0.19  C 
BRANCH 24 25
ATOM     25  C   ASP D 180      71.984 -25.316  79.466  1.00 52.09 LIG 0.24  C 
ATOM     26 O    ASP D 180      71.794 -25.751  80.604  1.00 46.90 LIG-0.27  OA
ATOM     27  N   ASP D 181      73.098 -25.561  78.786  1.00 56.67 LIG-0.35  N 
ATOM     28 H    ASP D 181      73.261 -25.263  77.995  1.00 56.67 LIG 0.16  HD
BRANCH 27 29
ATOM     29  CA  ASP D 181      74.157 -26.381  79.360  1.00 54.32 LIG 0.17  C 
BRANCH 29 30
ATOM     30  CB  ASP D 181      74.856 -27.187  78.268  1.00 57.98 LIG 0.15  C 
BRANCH 30 31
ATOM     31  CG  ASP D 181      76.322 -27.416  78.563  1.00 59.80 LIG 0.17  C 
ATOM     32 OD2  ASP D 181      76.629 -28.095  79.567  1.00 65.59 LIG-0.65  OA
ATOM     33 OD1  ASP D 181      77.168 -26.916  77.793  1.00 62.88 LIG-0.65  OA
ENDBRANCH 30 31
ENDBRANCH 29 30
BRANCH 29 34
ATOM     34  C   ASP D 181      75.170 -25.534  80.122  1.00 55.94 LIG 0.22  C 
ATOM     35 O    ASP D 181      75.426 -24.382  79.761  1.00 49.69 LIG-0.29  OA
ENDBRANCH 29 34
ENDBRANCH 27 29
ENDBRANCH 24 25
BRANCH 24 36
ATOM     36  CB  ASP D 180      70.203 -23.607  79.836  1.00 41.39 LIG 0.15  C 
BRANCH 36 37
ATOM     37  CG  ASP D 180      70.847 -22.253  80.056  1.00 35.24 LIG 0.17  C 
ATOM     38 OD1  ASP D 180      70.396 -21.508  80.953  1.00 51.10 LIG-0.65  OA
ATOM     39 OD2  ASP D 180      71.825 -21.945  79.342  1.00 19.64 LIG-0.65  OA
ENDBRANCH 36 37
ENDBRANCH 24 36
ENDBRANCH 3 24
TORSDOF 16
ENDMDL
MODEL 24
USER: ADFR SOLUTION from run 98
USER: SCORE 11.411217 LL:  -2.225 LR: -10.970 RR:   0.000 FEB:  -6.198
USER: RMSD 6.095086
USER: SEED 97
USER: STATUS no improvement in best in 18 clusters for 5 generations
USER: GENES 18
USER: genes 0 Translation |==|  0.62630 0.46272 0.49304
USER: genes 1 Rotation |==|  0.33086 0.82021 0.80163 0.66697
USER: genes 2 Torsion [N]-C--CA-[N] |==|  0.15497
USER: genes 3 Torsion [C]-CA--CB-[CG] |==|  0.24924
USER: genes 4 Torsion [CA]-CB--CG-[OD1] |==|  0.02131
USER: genes 5 Torsion [C]-CA--N-[C] |==|  0.12244
USER: genes 6 Torsion [N]-C--CA-[N] |==|  0.45301
USER: genes 7 Torsion [C]-CA--N-[C] |==|  0.70067
USER: genes 8 Torsion [N]-C--CA-[N] |==|  0.34806
USER: genes 9 Torsion [C]-CA--CB-[CG1] |==|  0.23973
USER: genes 10 Torsion [C]-N--CA-[CB] |==|  0.51807
USER: genes 11 Torsion [N]-CA--C-[N] |==|  0.69604
USER: genes 12 Torsion [C]-N--CA-[CB] |==|  0.44030
USER: genes 13 Torsion [N]-CA--CB-[CG] |==|  0.65619
USER: genes 14 Torsion [CA]-CB--CG-[OD2] |==|  0.32002
USER: genes 15 Torsion [N]-CA--C-[O] |==|  0.06448
USER: genes 16 Torsion [N]-CA--CB-[CG] |==|  0.63313
USER: genes 17 Torsion [CA]-CB--CG-[OD1] |==|  0.89165
ROOT
ATOM      1  C   ASP D 179      74.662 -26.206  78.808  1.00 41.71 LIG 0.24  C 
ATOM      2 O    ASP D 179      75.638 -25.503  78.548  1.00 47.20 LIG-0.27  OA
ATOM      3  N   ASP D 180      73.507 -25.724  79.266  1.00 48.22 LIG-0.34  N 
ATOM      4 H    ASP D 180      72.807 -26.212  79.373  1.00 48.22 LIG 0.16  HD
ENDROOT
BRANCH 1 5
ATOM      5  CA  ASP D 179      74.695 -27.722  78.612  1.00 44.60 LIG 0.19  C 
BRANCH 5 6
ATOM      6  CB  ASP D 179      76.072 -28.199  78.138  1.00 48.27 LIG 0.15  C 
BRANCH 6 7
ATOM      7  CG  ASP D 179      76.998 -28.538  79.302  1.00 46.68 LIG 0.17  C 
ATOM      8 OD1  ASP D 179      76.530 -28.543  80.463  1.00 58.91 LIG-0.65  OA
ATOM      9 OD2  ASP D 179      78.190 -28.822  79.065  1.00 62.78 LIG-0.65  OA
ENDBRANCH 6 7
ENDBRANCH 5 6
BRANCH 5 10
ATOM     10  N   ASP D 179      73.599 -28.127  77.722  1.00 43.40 LIG-0.34  N 
ATOM     11 H    ASP D 179      73.193 -28.827  78.013  1.00 43.40 LIG 0.16  HD
ATOM     12  C   VAL D 178      73.224 -27.534  76.591  1.00 52.66 LIG 0.24  C 
ATOM     13 O    VAL D 178      73.920 -26.745  75.945  1.00 53.52 LIG-0.27  OA
BRANCH 12 14
ATOM     14  CA  VAL D 178      71.813 -27.915  76.125  1.00 43.72 LIG 0.18  C 
BRANCH 14 15
ATOM     15  N   VAL D 178      71.312 -26.971  75.144  1.00 54.34 LIG-0.35  N 
ATOM     16  C   GLY D 177      70.356 -26.092  75.422  1.00 48.99 LIG 0.25  C 
ATOM     17 O    GLY D 177      69.949 -25.289  74.594  1.00 61.87 LIG-0.27  OA
ATOM     18 H    VAL D 178      71.689 -27.035  74.373  1.00 54.34 LIG 0.16  HD
BRANCH 16 19
ATOM     19  CA  GLY D 177      69.779 -26.096  76.828  1.00 38.66 LIG 0.47  C 
ATOM     20  N   GLY D 177      69.857 -24.785  77.449  1.00 37.02 LIG 0.61  N 
ENDBRANCH 16 19
ENDBRANCH 14 15
BRANCH 14 21
ATOM     21  CB  VAL D 178      71.779 -29.353  75.566  1.00 39.80 LIG 0.01  C 
ATOM     22  CG2 VAL D 178      70.673 -29.505  74.544  1.00 46.96 LIG 0.01  C 
ATOM     23  CG1 VAL D 178      71.560 -30.343  76.711  1.00 37.07 LIG 0.01  C 
ENDBRANCH 14 21
ENDBRANCH 12 14
ENDBRANCH 5 10
ENDBRANCH 1 5
BRANCH 3 24
ATOM     24  CA  ASP D 180      73.305 -24.324  79.632  1.00 47.37 LIG 0.19  C 
BRANCH 24 25
ATOM     25  C   ASP D 180      74.395 -23.908  80.618  1.00 52.09 LIG 0.24  C 
ATOM     26 O    ASP D 180      75.564 -23.791  80.243  1.00 46.90 LIG-0.27  OA
ATOM     27  N   ASP D 181      74.025 -23.698  81.876  1.00 56.67 LIG-0.35  N 
ATOM     28 H    ASP D 181      73.220 -23.781  82.166  1.00 56.67 LIG 0.16  HD
BRANCH 27 29
ATOM     29  CA  ASP D 181      74.999 -23.297  82.882  1.00 54.32 LIG 0.17  C 
BRANCH 29 30
ATOM     30  CB  ASP D 181      74.299 -22.619  84.059  1.00 57.98 LIG 0.15  C 
BRANCH 30 31
ATOM     31  CG  ASP D 181      74.837 -21.232  84.332  1.00 59.80 LIG 0.17  C 
ATOM     32 OD2  ASP D 181      74.074 -20.255  84.173  1.00 65.59 LIG-0.65  OA
ATOM     33 OD1  ASP D 181      76.024 -21.117  84.705  1.00 62.88 LIG-0.65  OA
ENDBRANCH 30 31
ENDBRANCH 29 30
BRANCH 29 34
ATOM     34  C   ASP D 181      75.822 -24.485  83.369  1.00 55.94 LIG 0.22  C 
ATOM     35 O    ASP D 181      75.949 -25.492  82.668  1.00 49.69 LIG-0.29  OA
ENDBRANCH 29 34
ENDBRANCH 27 29
ENDBRANCH 24 25
BRANCH 24 36
ATOM     36  CB  ASP D 180      71.931 -24.108  80.271  1.00 41.39 LIG 0.15  C 
BRANCH 36 37
ATOM     37  CG  ASP D 180      71.186 -22.928  79.681  1.00 35.24 LIG 0.17  C 
ATOM     38 OD1  ASP D 180      71.824 -21.893  79.391  1.00 51.10 LIG-0.65  OA
ATOM     39 OD2  ASP D 180      69.958 -23.049  79.484  1.00 19.64 LIG-0.65  OA
ENDBRANCH 36 37
ENDBRANCH 24 36
ENDBRANCH 3 24
TORSDOF 16
ENDMDL
MODEL 25
USER: ADFR SOLUTION from run 91
USER: SCORE 10.998743 LL:  -1.475 LR: -10.952 RR:   0.000 FEB:  -6.179
USER: RMSD 5.379565
USER: SEED 90
USER: STATUS no improvement in best in 13 clusters for 5 generations
USER: GENES 18
USER: genes 0 Translation |==|  0.51869 0.41271 0.33351
USER: genes 1 Rotation |==|  0.67220 0.70662 0.59632 0.91034
USER: genes 2 Torsion [N]-C--CA-[N] |==|  0.50445
USER: genes 3 Torsion [C]-CA--CB-[CG] |==|  0.46709
USER: genes 4 Torsion [CA]-CB--CG-[OD1] |==|  0.53066
USER: genes 5 Torsion [C]-CA--N-[C] |==|  0.21226
USER: genes 6 Torsion [N]-C--CA-[N] |==|  0.36249
USER: genes 7 Torsion [C]-CA--N-[C] |==|  0.76585
USER: genes 8 Torsion [N]-C--CA-[N] |==|  0.62443
USER: genes 9 Torsion [C]-CA--CB-[CG1] |==|  0.15042
USER: genes 10 Torsion [C]-N--CA-[CB] |==|  0.14443
USER: genes 11 Torsion [N]-CA--C-[N] |==|  0.17587
USER: genes 12 Torsion [C]-N--CA-[CB] |==|  0.48212
USER: genes 13 Torsion [N]-CA--CB-[CG] |==|  0.76070
USER: genes 14 Torsion [CA]-CB--CG-[OD2] |==|  0.53695
USER: genes 15 Torsion [N]-CA--C-[O] |==|  0.21488
USER: genes 16 Torsion [N]-CA--CB-[CG] |==|  0.49711
USER: genes 17 Torsion [CA]-CB--CG-[OD1] |==|  0.58692
ROOT
ATOM      1  C   ASP D 179      72.563 -27.144  76.176  1.00 41.71 LIG 0.24  C 
ATOM      2 O    ASP D 179      72.990 -28.284  75.998  1.00 47.20 LIG-0.27  OA
ATOM      3  N   ASP D 180      73.016 -26.327  77.127  1.00 48.22 LIG-0.34  N 
ATOM      4 H    ASP D 180      72.766 -25.507  77.197  1.00 48.22 LIG 0.16  HD
ENDROOT
BRANCH 1 5
ATOM      5  CA  ASP D 179      71.462 -26.556  75.292  1.00 44.60 LIG 0.19  C 
BRANCH 5 6
ATOM      6  CB  ASP D 179      70.314 -25.982  76.129  1.00 48.27 LIG 0.15  C 
BRANCH 6 7
ATOM      7  CG  ASP D 179      69.354 -25.142  75.291  1.00 46.68 LIG 0.17  C 
ATOM      8 OD1  ASP D 179      68.495 -24.445  75.877  1.00 58.91 LIG-0.65  OA
ATOM      9 OD2  ASP D 179      69.465 -25.155  74.048  1.00 62.78 LIG-0.65  OA
ENDBRANCH 6 7
ENDBRANCH 5 6
BRANCH 5 10
ATOM     10  N   ASP D 179      71.027 -27.563  74.315  1.00 43.40 LIG-0.34  N 
ATOM     11 H    ASP D 179      71.345 -27.406  73.532  1.00 43.40 LIG 0.16  HD
ATOM     12  C   VAL D 178      70.239 -28.611  74.541  1.00 52.66 LIG 0.24  C 
ATOM     13 O    VAL D 178      69.498 -28.737  75.521  1.00 53.52 LIG-0.27  OA
BRANCH 12 14
ATOM     14  CA  VAL D 178      70.315 -29.694  73.458  1.00 43.72 LIG 0.18  C 
BRANCH 14 15
ATOM     15  N   VAL D 178      70.515 -31.007  74.041  1.00 54.34 LIG-0.35  N 
ATOM     16  C   GLY D 177      71.717 -31.468  74.368  1.00 48.99 LIG 0.25  C 
ATOM     17 O    GLY D 177      71.876 -32.570  74.874  1.00 61.87 LIG-0.27  OA
ATOM     18 H    VAL D 178      69.788 -31.454  74.154  1.00 54.34 LIG 0.16  HD
BRANCH 16 19
ATOM     19  CA  GLY D 177      72.914 -30.569  74.108  1.00 38.66 LIG 0.47  C 
ATOM     20  N   GLY D 177      74.015 -31.295  73.499  1.00 37.02 LIG 0.61  N 
ENDBRANCH 16 19
ENDBRANCH 14 15
BRANCH 14 21
ATOM     21  CB  VAL D 178      69.056 -29.680  72.565  1.00 39.80 LIG 0.01  C 
ATOM     22  CG2 VAL D 178      69.192 -30.672  71.430  1.00 46.96 LIG 0.01  C 
ATOM     23  CG1 VAL D 178      68.847 -28.275  71.998  1.00 37.07 LIG 0.01  C 
ENDBRANCH 14 21
ENDBRANCH 12 14
ENDBRANCH 5 10
ENDBRANCH 1 5
BRANCH 3 24
ATOM     24  CA  ASP D 180      73.979 -26.733  78.148  1.00 47.37 LIG 0.19  C 
BRANCH 24 25
ATOM     25  C   ASP D 180      74.400 -25.502  78.949  1.00 52.09 LIG 0.24  C 
ATOM     26 O    ASP D 180      75.574 -25.124  78.942  1.00 46.90 LIG-0.27  OA
ATOM     27  N   ASP D 181      73.456 -24.883  79.648  1.00 56.67 LIG-0.35  N 
ATOM     28 H    ASP D 181      72.632 -25.129  79.678  1.00 56.67 LIG 0.16  HD
BRANCH 27 29
ATOM     29  CA  ASP D 181      73.769 -23.700  80.439  1.00 54.32 LIG 0.17  C 
BRANCH 29 30
ATOM     30  CB  ASP D 181      72.490 -23.091  81.013  1.00 57.98 LIG 0.15  C 
BRANCH 30 31
ATOM     31  CG  ASP D 181      71.823 -22.132  80.052  1.00 59.80 LIG 0.17  C 
ATOM     32 OD2  ASP D 181      70.922 -21.383  80.486  1.00 65.59 LIG-0.65  OA
ATOM     33 OD1  ASP D 181      72.199 -22.127  78.860  1.00 62.88 LIG-0.65  OA
ENDBRANCH 30 31
ENDBRANCH 29 30
BRANCH 29 34
ATOM     34  C   ASP D 181      74.751 -24.021  81.560  1.00 55.94 LIG 0.22  C 
ATOM     35 O    ASP D 181      75.953 -24.162  81.323  1.00 49.69 LIG-0.29  OA
ENDBRANCH 29 34
ENDBRANCH 27 29
ENDBRANCH 24 25
BRANCH 24 36
ATOM     36  CB  ASP D 180      75.216 -27.380  77.522  1.00 41.39 LIG 0.15  C 
BRANCH 36 37
ATOM     37  CG  ASP D 180      76.251 -27.791  78.549  1.00 35.24 LIG 0.17  C 
ATOM     38 OD1  ASP D 180      77.460 -27.767  78.233  1.00 51.10 LIG-0.65  OA
ATOM     39 OD2  ASP D 180      75.850 -28.117  79.687  1.00 19.64 LIG-0.65  OA
ENDBRANCH 36 37
ENDBRANCH 24 36
ENDBRANCH 3 24
TORSDOF 16
ENDMDL
MODEL 26
USER: ADFR SOLUTION from run 29
USER: SCORE 12.378972 LL:  -2.265 LR: -10.910 RR:   0.000 FEB:  -6.137
USER: RMSD 6.225593
USER: SEED 28
USER: STATUS no improvement in best in 6 clusters for 5 generations
USER: GENES 18
USER: genes 0 Translation |==|  0.63871 0.40019 0.34384
USER: genes 1 Rotation |==|  0.23201 0.57188 0.81727 0.76899
USER: genes 2 Torsion [N]-C--CA-[N] |==|  0.98394
USER: genes 3 Torsion [C]-CA--CB-[CG] |==|  0.77311
USER: genes 4 Torsion [CA]-CB--CG-[OD1] |==|  0.24575
USER: genes 5 Torsion [C]-CA--N-[C] |==|  0.64680
USER: genes 6 Torsion [N]-C--CA-[N] |==|  0.88221
USER: genes 7 Torsion [C]-CA--N-[C] |==|  0.81199
USER: genes 8 Torsion [N]-C--CA-[N] |==|  0.36098
USER: genes 9 Torsion [C]-CA--CB-[CG1] |==|  0.38102
USER: genes 10 Torsion [C]-N--CA-[CB] |==|  0.55557
USER: genes 11 Torsion [N]-CA--C-[N] |==|  0.33340
USER: genes 12 Torsion [C]-N--CA-[CB] |==|  0.18345
USER: genes 13 Torsion [N]-CA--CB-[CG] |==|  0.26982
USER: genes 14 Torsion [CA]-CB--CG-[OD2] |==|  0.84162
USER: genes 15 Torsion [N]-CA--C-[O] |==|  0.03748
USER: genes 16 Torsion [N]-CA--CB-[CG] |==|  0.70634
USER: genes 17 Torsion [CA]-CB--CG-[OD1] |==|  0.84699
ROOT
ATOM      1  C   ASP D 179      74.904 -27.378  76.346  1.00 41.71 LIG 0.24  C 
ATOM      2 O    ASP D 179      75.243 -26.648  77.277  1.00 47.20 LIG-0.27  OA
ATOM      3  N   ASP D 180      73.676 -27.393  75.829  1.00 48.22 LIG-0.34  N 
ATOM      4 H    ASP D 180      73.468 -27.850  75.131  1.00 48.22 LIG 0.16  HD
ENDROOT
BRANCH 1 5
ATOM      5  CA  ASP D 179      75.892 -28.342  75.688  1.00 44.60 LIG 0.19  C 
BRANCH 5 6
ATOM      6  CB  ASP D 179      77.101 -27.601  75.107  1.00 48.27 LIG 0.15  C 
BRANCH 6 7
ATOM      7  CG  ASP D 179      76.806 -27.001  73.736  1.00 46.68 LIG 0.17  C 
ATOM      8 OD1  ASP D 179      76.324 -25.848  73.673  1.00 58.91 LIG-0.65  OA
ATOM      9 OD2  ASP D 179      77.074 -27.667  72.714  1.00 62.78 LIG-0.65  OA
ENDBRANCH 6 7
ENDBRANCH 5 6
BRANCH 5 10
ATOM     10  N   ASP D 179      75.186 -29.171  74.701  1.00 43.40 LIG-0.34  N 
ATOM     11 H    ASP D 179      74.742 -28.693  74.142  1.00 43.40 LIG 0.16  HD
ATOM     12  C   VAL D 178      75.189 -30.499  74.622  1.00 52.66 LIG 0.24  C 
ATOM     13 O    VAL D 178      75.521 -31.259  75.537  1.00 53.52 LIG-0.27  OA
BRANCH 12 14
ATOM     14  CA  VAL D 178      74.729 -31.044  73.264  1.00 43.72 LIG 0.18  C 
BRANCH 14 15
ATOM     15  N   VAL D 178      73.576 -30.317  72.769  1.00 54.34 LIG-0.35  N 
ATOM     16  C   GLY D 177      72.385 -30.384  73.354  1.00 48.99 LIG 0.25  C 
ATOM     17 O    GLY D 177      71.421 -29.755  72.940  1.00 61.87 LIG-0.27  OA
ATOM     18 H    VAL D 178      73.735 -29.845  72.068  1.00 54.34 LIG 0.16  HD
BRANCH 16 19
ATOM     19  CA  GLY D 177      72.251 -31.264  74.586  1.00 38.66 LIG 0.47  C 
ATOM     20  N   GLY D 177      71.617 -30.559  75.687  1.00 37.02 LIG 0.61  N 
ENDBRANCH 16 19
ENDBRANCH 14 15
BRANCH 14 21
ATOM     21  CB  VAL D 178      75.878 -31.012  72.232  1.00 39.80 LIG 0.01  C 
ATOM     22  CG2 VAL D 178      75.721 -29.838  71.291  1.00 46.96 LIG 0.01  C 
ATOM     23  CG1 VAL D 178      75.883 -32.316  71.432  1.00 37.07 LIG 0.01  C 
ENDBRANCH 14 21
ENDBRANCH 12 14
ENDBRANCH 5 10
ENDBRANCH 1 5
BRANCH 3 24
ATOM     24  CA  ASP D 180      72.556 -26.637  76.387  1.00 47.37 LIG 0.19  C 
BRANCH 24 25
ATOM     25  C   ASP D 180      72.630 -26.695  77.911  1.00 52.09 LIG 0.24  C 
ATOM     26 O    ASP D 180      72.572 -27.778  78.498  1.00 46.90 LIG-0.27  OA
ATOM     27  N   ASP D 181      72.745 -25.540  78.556  1.00 56.67 LIG-0.35  N 
ATOM     28 H    ASP D 181      72.779 -24.770  78.173  1.00 56.67 LIG 0.16  HD
BRANCH 27 29
ATOM     29  CA  ASP D 181      72.823 -25.502  80.011  1.00 54.32 LIG 0.17  C 
BRANCH 29 30
ATOM     30  CB  ASP D 181      74.116 -26.160  80.490  1.00 57.98 LIG 0.15  C 
BRANCH 30 31
ATOM     31  CG  ASP D 181      75.209 -25.153  80.770  1.00 59.80 LIG 0.17  C 
ATOM     32 OD2  ASP D 181      75.559 -24.382  79.851  1.00 65.59 LIG-0.65  OA
ATOM     33 OD1  ASP D 181      75.721 -25.133  81.909  1.00 62.88 LIG-0.65  OA
ENDBRANCH 30 31
ENDBRANCH 29 30
BRANCH 29 34
ATOM     34  C   ASP D 181      72.728 -24.076  80.540  1.00 55.94 LIG 0.22  C 
ATOM     35 O    ASP D 181      72.357 -23.155  79.806  1.00 49.69 LIG-0.29  OA
ENDBRANCH 29 34
ENDBRANCH 27 29
ENDBRANCH 24 25
BRANCH 24 36
ATOM     36  CB  ASP D 180      71.214 -27.204  75.921  1.00 41.39 LIG 0.15  C 
BRANCH 36 37
ATOM     37  CG  ASP D 180      70.538 -26.338  74.877  1.00 35.24 LIG 0.17  C 
ATOM     38 OD1  ASP D 180      70.329 -25.133  75.134  1.00 51.10 LIG-0.65  OA
ATOM     39 OD2  ASP D 180      70.239 -26.863  73.783  1.00 19.64 LIG-0.65  OA
ENDBRANCH 36 37
ENDBRANCH 24 36
ENDBRANCH 3 24
TORSDOF 16
ENDMDL
MODEL 27
USER: ADFR SOLUTION from run 98
USER: SCORE 11.159724 LL:  -2.152 LR: -10.904 RR:   0.000 FEB:  -6.132
USER: RMSD 6.256761
USER: SEED 97
USER: STATUS no improvement in best in 18 clusters for 5 generations
USER: GENES 18
USER: genes 0 Translation |==|  0.61722 0.54951 0.57637
USER: genes 1 Rotation |==|  0.37080 0.75411 0.82189 0.75520
USER: genes 2 Torsion [N]-C--CA-[N] |==|  0.10000
USER: genes 3 Torsion [C]-CA--CB-[CG] |==|  0.33914
USER: genes 4 Torsion [CA]-CB--CG-[OD1] |==|  0.51794
USER: genes 5 Torsion [C]-CA--N-[C] |==|  0.62263
USER: genes 6 Torsion [N]-C--CA-[N] |==|  0.84748
USER: genes 7 Torsion [C]-CA--N-[C] |==|  0.78288
USER: genes 8 Torsion [N]-C--CA-[N] |==|  0.28515
USER: genes 9 Torsion [C]-CA--CB-[CG1] |==|  0.12187
USER: genes 10 Torsion [C]-N--CA-[CB] |==|  0.48388
USER: genes 11 Torsion [N]-CA--C-[N] |==|  0.31334
USER: genes 12 Torsion [C]-N--CA-[CB] |==|  0.38572
USER: genes 13 Torsion [N]-CA--CB-[CG] |==|  0.83219
USER: genes 14 Torsion [CA]-CB--CG-[OD2] |==|  0.94356
USER: genes 15 Torsion [N]-CA--C-[O] |==|  0.05367
USER: genes 16 Torsion [N]-CA--CB-[CG] |==|  0.83164
USER: genes 17 Torsion [CA]-CB--CG-[OD1] |==|  0.48668
ROOT
ATOM      1  C   ASP D 179      74.485 -24.579  80.183  1.00 41.71 LIG 0.24  C 
ATOM      2 O    ASP D 179      75.592 -24.073  80.366  1.00 47.20 LIG-0.27  OA
ATOM      3  N   ASP D 180      73.347 -24.039  80.618  1.00 48.22 LIG-0.34  N 
ATOM      4 H    ASP D 180      72.573 -24.358  80.421  1.00 48.22 LIG 0.16  HD
ENDROOT
BRANCH 1 5
ATOM      5  CA  ASP D 179      74.323 -25.891  79.415  1.00 44.60 LIG 0.19  C 
BRANCH 5 6
ATOM      6  CB  ASP D 179      75.574 -26.221  78.593  1.00 48.27 LIG 0.15  C 
BRANCH 6 7
ATOM      7  CG  ASP D 179      76.171 -27.574  78.968  1.00 46.68 LIG 0.17  C 
ATOM      8 OD1  ASP D 179      77.264 -27.912  78.460  1.00 58.91 LIG-0.65  OA
ATOM      9 OD2  ASP D 179      75.566 -28.297  79.786  1.00 62.78 LIG-0.65  OA
ENDBRANCH 6 7
ENDBRANCH 5 6
BRANCH 5 10
ATOM     10  N   ASP D 179      73.093 -25.844  78.613  1.00 43.40 LIG-0.34  N 
ATOM     11 H    ASP D 179      73.006 -25.091  78.208  1.00 43.40 LIG 0.16  HD
ATOM     12  C   VAL D 178      72.183 -26.806  78.484  1.00 52.66 LIG 0.24  C 
ATOM     13 O    VAL D 178      72.059 -27.766  79.252  1.00 53.52 LIG-0.27  OA
BRANCH 12 14
ATOM     14  CA  VAL D 178      71.260 -26.633  77.271  1.00 43.72 LIG 0.18  C 
BRANCH 14 15
ATOM     15  N   VAL D 178      70.612 -25.336  77.285  1.00 54.34 LIG-0.35  N 
ATOM     16  C   GLY D 177      69.569 -25.067  78.062  1.00 48.99 LIG 0.25  C 
ATOM     17 O    GLY D 177      69.037 -23.965  78.079  1.00 61.87 LIG-0.27  OA
ATOM     18 H    VAL D 178      70.965 -24.763  76.748  1.00 54.34 LIG 0.16  HD
BRANCH 16 19
ATOM     19  CA  GLY D 177      69.050 -26.178  78.959  1.00 38.66 LIG 0.47  C 
ATOM     20  N   GLY D 177      69.469 -25.999  80.339  1.00 37.02 LIG 0.61  N 
ENDBRANCH 16 19
ENDBRANCH 14 15
BRANCH 14 21
ATOM     21  CB  VAL D 178      72.030 -26.845  75.950  1.00 39.80 LIG 0.01  C 
ATOM     22  CG2 VAL D 178      71.070 -27.039  74.796  1.00 46.96 LIG 0.01  C 
ATOM     23  CG1 VAL D 178      72.937 -28.070  76.077  1.00 37.07 LIG 0.01  C 
ENDBRANCH 14 21
ENDBRANCH 12 14
ENDBRANCH 5 10
ENDBRANCH 1 5
BRANCH 3 24
ATOM     24  CA  ASP D 180      73.289 -22.853  81.470  1.00 47.37 LIG 0.19  C 
BRANCH 24 25
ATOM     25  C   ASP D 180      73.924 -23.183  82.820  1.00 52.09 LIG 0.24  C 
ATOM     26 O    ASP D 180      73.379 -23.979  83.588  1.00 46.90 LIG-0.27  OA
ATOM     27  N   ASP D 181      75.062 -22.567  83.120  1.00 56.67 LIG-0.35  N 
ATOM     28 H    ASP D 181      75.458 -22.002  82.608  1.00 56.67 LIG 0.16  HD
BRANCH 27 29
ATOM     29  CA  ASP D 181      75.736 -22.823  84.386  1.00 54.32 LIG 0.17  C 
BRANCH 29 30
ATOM     30  CB  ASP D 181      77.245 -22.924  84.173  1.00 57.98 LIG 0.15  C 
BRANCH 30 31
ATOM     31  CG  ASP D 181      77.624 -24.046  83.233  1.00 59.80 LIG 0.17  C 
ATOM     32 OD2  ASP D 181      76.804 -24.971  83.048  1.00 65.59 LIG-0.65  OA
ATOM     33 OD1  ASP D 181      78.743 -24.005  82.679  1.00 62.88 LIG-0.65  OA
ENDBRANCH 30 31
ENDBRANCH 29 30
BRANCH 29 34
ATOM     34  C   ASP D 181      75.418 -21.745  85.417  1.00 55.94 LIG 0.22  C 
ATOM     35 O    ASP D 181      74.430 -21.019  85.284  1.00 49.69 LIG-0.29  OA
ENDBRANCH 29 34
ENDBRANCH 27 29
ENDBRANCH 24 25
BRANCH 24 36
ATOM     36  CB  ASP D 180      71.847 -22.391  81.685  1.00 41.39 LIG 0.15  C 
BRANCH 36 37
ATOM     37  CG  ASP D 180      71.149 -22.018  80.392  1.00 35.24 LIG 0.17  C 
ATOM     38 OD1  ASP D 180      69.937 -21.710  80.426  1.00 51.10 LIG-0.65  OA
ATOM     39 OD2  ASP D 180      71.825 -22.008  79.342  1.00 19.64 LIG-0.65  OA
ENDBRANCH 36 37
ENDBRANCH 24 36
ENDBRANCH 3 24
TORSDOF 16
ENDMDL
MODEL 28
USER: ADFR SOLUTION from run 164
USER: SCORE 12.015299 LL:  -1.955 LR: -10.887 RR:   0.000 FEB:  -6.114
USER: RMSD 9.083037
USER: SEED 163
USER: STATUS no improvement in best in 6 clusters for 5 generations
USER: GENES 18
USER: genes 0 Translation |==|  0.29580 0.53987 0.36338
USER: genes 1 Rotation |==|  0.84525 0.72908 0.50967 0.77970
USER: genes 2 Torsion [N]-C--CA-[N] |==|  0.44793
USER: genes 3 Torsion [C]-CA--CB-[CG] |==|  0.33204
USER: genes 4 Torsion [CA]-CB--CG-[OD1] |==|  0.66710
USER: genes 5 Torsion [C]-CA--N-[C] |==|  0.69515
USER: genes 6 Torsion [N]-C--CA-[N] |==|  0.95991
USER: genes 7 Torsion [C]-CA--N-[C] |==|  0.78600
USER: genes 8 Torsion [N]-C--CA-[N] |==|  0.65358
USER: genes 9 Torsion [C]-CA--CB-[CG1] |==|  0.83630
USER: genes 10 Torsion [C]-N--CA-[CB] |==|  0.21619
USER: genes 11 Torsion [N]-CA--C-[N] |==|  0.85065
USER: genes 12 Torsion [C]-N--CA-[CB] |==|  0.22605
USER: genes 13 Torsion [N]-CA--CB-[CG] |==|  0.43052
USER: genes 14 Torsion [CA]-CB--CG-[OD2] |==|  0.26830
USER: genes 15 Torsion [N]-CA--C-[O] |==|  0.00556
USER: genes 16 Torsion [N]-CA--CB-[CG] |==|  0.73491
USER: genes 17 Torsion [CA]-CB--CG-[OD1] |==|  0.80156
ROOT
ATOM      1  C   ASP D 179      68.217 -24.759  76.669  1.00 41.71 LIG 0.24  C 
ATOM      2 O    ASP D 179      67.850 -25.578  75.826  1.00 47.20 LIG-0.27  OA
ATOM      3  N   ASP D 180      69.345 -24.878  77.369  1.00 48.22 LIG-0.34  N 
ATOM      4 H    ASP D 180      69.632 -24.265  77.900  1.00 48.22 LIG 0.16  HD
ENDROOT
BRANCH 1 5
ATOM      5  CA  ASP D 179      67.394 -23.508  76.978  1.00 44.60 LIG 0.19  C 
BRANCH 5 6
ATOM      6  CB  ASP D 179      66.717 -23.603  78.349  1.00 48.27 LIG 0.15  C 
BRANCH 6 7
ATOM      7  CG  ASP D 179      67.165 -22.491  79.293  1.00 46.68 LIG 0.17  C 
ATOM      8 OD1  ASP D 179      67.726 -22.802  80.368  1.00 58.91 LIG-0.65  OA
ATOM      9 OD2  ASP D 179      66.981 -21.302  78.958  1.00 62.78 LIG-0.65  OA
ENDBRANCH 6 7
ENDBRANCH 5 6
BRANCH 5 10
ATOM     10  N   ASP D 179      66.454 -23.253  75.879  1.00 43.40 LIG-0.34  N 
ATOM     11 H    ASP D 179      65.826 -23.840  75.854  1.00 43.40 LIG 0.16  HD
ATOM     12  C   VAL D 178      66.504 -22.261  74.994  1.00 52.66 LIG 0.24  C 
ATOM     13 O    VAL D 178      67.507 -21.579  74.756  1.00 53.52 LIG-0.27  OA
BRANCH 12 14
ATOM     14  CA  VAL D 178      65.182 -22.011  74.259  1.00 43.72 LIG 0.18  C 
BRANCH 14 15
ATOM     15  N   VAL D 178      64.263 -23.119  74.441  1.00 54.34 LIG-0.35  N 
ATOM     16  C   GLY D 177      64.387 -24.265  73.780  1.00 48.99 LIG 0.25  C 
ATOM     17 O    GLY D 177      63.617 -25.200  73.950  1.00 61.87 LIG-0.27  OA
ATOM     18 H    VAL D 178      63.638 -22.965  75.011  1.00 54.34 LIG 0.16  HD
BRANCH 16 19
ATOM     19  CA  GLY D 177      65.540 -24.395  72.800  1.00 38.66 LIG 0.47  C 
ATOM     20  N   GLY D 177      65.081 -24.757  71.469  1.00 37.02 LIG 0.61  N 
ENDBRANCH 16 19
ENDBRANCH 14 15
BRANCH 14 21
ATOM     21  CB  VAL D 178      64.533 -20.685  74.711  1.00 39.80 LIG 0.01  C 
ATOM     22  CG2 VAL D 178      65.429 -19.511  74.381  1.00 46.96 LIG 0.01  C 
ATOM     23  CG1 VAL D 178      64.277 -20.729  76.219  1.00 37.07 LIG 0.01  C 
ENDBRANCH 14 21
ENDBRANCH 12 14
ENDBRANCH 5 10
ENDBRANCH 1 5
BRANCH 3 24
ATOM     24  CA  ASP D 180      70.212 -26.052  77.310  1.00 47.37 LIG 0.19  C 
BRANCH 24 25
ATOM     25  C   ASP D 180      71.122 -26.057  78.537  1.00 52.09 LIG 0.24  C 
ATOM     26 O    ASP D 180      71.165 -27.042  79.278  1.00 46.90 LIG-0.27  OA
ATOM     27  N   ASP D 181      71.838 -24.962  78.764  1.00 56.67 LIG-0.35  N 
ATOM     28 H    ASP D 181      71.821 -24.259  78.269  1.00 56.67 LIG 0.16  HD
BRANCH 27 29
ATOM     29  CA  ASP D 181      72.733 -24.881  79.911  1.00 54.32 LIG 0.17  C 
BRANCH 29 30
ATOM     30  CB  ASP D 181      74.058 -25.577  79.601  1.00 57.98 LIG 0.15  C 
BRANCH 30 31
ATOM     31  CG  ASP D 181      75.201 -25.043  80.435  1.00 59.80 LIG 0.17  C 
ATOM     32 OD2  ASP D 181      75.519 -25.659  81.475  1.00 65.59 LIG-0.65  OA
ATOM     33 OD1  ASP D 181      75.783 -24.007  80.051  1.00 62.88 LIG-0.65  OA
ENDBRANCH 30 31
ENDBRANCH 29 30
BRANCH 29 34
ATOM     34  C   ASP D 181      72.980 -23.435  80.327  1.00 55.94 LIG 0.22  C 
ATOM     35 O    ASP D 181      72.421 -22.506  79.738  1.00 49.69 LIG-0.29  OA
ENDBRANCH 29 34
ENDBRANCH 27 29
ENDBRANCH 24 25
BRANCH 24 36
ATOM     36  CB  ASP D 180      71.067 -26.051  76.042  1.00 41.39 LIG 0.15  C 
BRANCH 36 37
ATOM     37  CG  ASP D 180      70.457 -26.865  74.919  1.00 35.24 LIG 0.17  C 
ATOM     38 OD1  ASP D 180      70.446 -28.112  75.013  1.00 51.10 LIG-0.65  OA
ATOM     39 OD2  ASP D 180      69.965 -26.250  73.949  1.00 19.64 LIG-0.65  OA
ENDBRANCH 36 37
ENDBRANCH 24 36
ENDBRANCH 3 24
TORSDOF 16
ENDMDL
MODEL 29
USER: ADFR SOLUTION from run 95
USER: SCORE 11.581291 LL:  -1.688 LR: -10.872 RR:   0.000 FEB:  -6.099
USER: RMSD 5.848697
USER: SEED 94
USER: STATUS no improvement in best in 4 clusters for 5 generations
USER: GENES 18
USER: genes 0 Translation |==|  0.61226 0.41159 0.37579
USER: genes 1 Rotation |==|  0.20063 0.58135 0.79414 0.75931
USER: genes 2 Torsion [N]-C--CA-[N] |==|  0.28189
USER: genes 3 Torsion [C]-CA--CB-[CG] |==|  0.73768
USER: genes 4 Torsion [CA]-CB--CG-[OD1] |==|  0.07203
USER: genes 5 Torsion [C]-CA--N-[C] |==|  0.66339
USER: genes 6 Torsion [N]-C--CA-[N] |==|  0.07948
USER: genes 7 Torsion [C]-CA--N-[C] |==|  0.17155
USER: genes 8 Torsion [N]-C--CA-[N] |==|  0.55632
USER: genes 9 Torsion [C]-CA--CB-[CG1] |==|  0.22263
USER: genes 10 Torsion [C]-N--CA-[CB] |==|  0.55556
USER: genes 11 Torsion [N]-CA--C-[N] |==|  0.27573
USER: genes 12 Torsion [C]-N--CA-[CB] |==|  0.21516
USER: genes 13 Torsion [N]-CA--CB-[CG] |==|  0.23312
USER: genes 14 Torsion [CA]-CB--CG-[OD2] |==|  0.89385
USER: genes 15 Torsion [N]-CA--C-[O] |==|  0.08367
USER: genes 16 Torsion [N]-CA--CB-[CG] |==|  0.72307
USER: genes 17 Torsion [CA]-CB--CG-[OD1] |==|  0.31652
ROOT
ATOM      1  C   ASP D 179      74.388 -27.165  76.874  1.00 41.71 LIG 0.24  C 
ATOM      2 O    ASP D 179      74.656 -26.330  77.737  1.00 47.20 LIG-0.27  OA
ATOM      3  N   ASP D 180      73.219 -27.219  76.236  1.00 48.22 LIG-0.34  N 
ATOM      4 H    ASP D 180      73.067 -27.756  75.583  1.00 48.22 LIG 0.16  HD
ENDROOT
BRANCH 1 5
ATOM      5  CA  ASP D 179      75.405 -28.225  76.446  1.00 44.60 LIG 0.19  C 
BRANCH 5 6
ATOM      6  CB  ASP D 179      76.035 -28.922  77.657  1.00 48.27 LIG 0.15  C 
BRANCH 6 7
ATOM      7  CG  ASP D 179      77.354 -28.278  78.072  1.00 46.68 LIG 0.17  C 
ATOM      8 OD1  ASP D 179      77.548 -27.072  77.798  1.00 58.91 LIG-0.65  OA
ATOM      9 OD2  ASP D 179      78.193 -28.963  78.692  1.00 62.78 LIG-0.65  OA
ENDBRANCH 6 7
ENDBRANCH 5 6
BRANCH 5 10
ATOM     10  N   ASP D 179      76.391 -27.622  75.540  1.00 43.40 LIG-0.34  N 
ATOM     11 H    ASP D 179      76.806 -26.966  75.911  1.00 43.40 LIG 0.16  HD
ATOM     12  C   VAL D 178      76.664 -27.992  74.291  1.00 52.66 LIG 0.24  C 
ATOM     13 O    VAL D 178      75.926 -28.688  73.586  1.00 53.52 LIG-0.27  OA
BRANCH 12 14
ATOM     14  CA  VAL D 178      78.008 -27.473  73.766  1.00 43.72 LIG 0.18  C 
BRANCH 14 15
ATOM     15  N   VAL D 178      78.958 -27.288  74.846  1.00 54.34 LIG-0.35  N 
ATOM     16  C   GLY D 177      79.376 -28.293  75.609  1.00 48.99 LIG 0.25  C 
ATOM     17 O    GLY D 177      80.189 -28.132  76.509  1.00 61.87 LIG-0.27  OA
ATOM     18 H    VAL D 178      79.223 -26.476  74.944  1.00 54.34 LIG 0.16  HD
BRANCH 16 19
ATOM     19  CA  GLY D 177      78.820 -29.677  75.322  1.00 38.66 LIG 0.47  C 
ATOM     20  N   GLY D 177      78.962 -30.565  76.464  1.00 37.02 LIG 0.61  N 
ENDBRANCH 16 19
ENDBRANCH 14 15
BRANCH 14 21
ATOM     21  CB  VAL D 178      78.586 -28.413  72.686  1.00 39.80 LIG 0.01  C 
ATOM     22  CG2 VAL D 178      80.080 -28.216  72.547  1.00 46.96 LIG 0.01  C 
ATOM     23  CG1 VAL D 178      77.902 -28.134  71.346  1.00 37.07 LIG 0.01  C 
ENDBRANCH 14 21
ENDBRANCH 12 14
ENDBRANCH 5 10
ENDBRANCH 1 5
BRANCH 3 24
ATOM     24  CA  ASP D 180      72.075 -26.375  76.576  1.00 47.37 LIG 0.19  C 
BRANCH 24 25
ATOM     25  C   ASP D 180      71.992 -26.241  78.095  1.00 52.09 LIG 0.24  C 
ATOM     26 O    ASP D 180      71.472 -27.131  78.773  1.00 46.90 LIG-0.27  OA
ATOM     27  N   ASP D 181      72.489 -25.133  78.633  1.00 56.67 LIG-0.35  N 
ATOM     28 H    ASP D 181      72.848 -24.494  78.184  1.00 56.67 LIG 0.16  HD
BRANCH 27 29
ATOM     29  CA  ASP D 181      72.452 -24.923  80.075  1.00 54.32 LIG 0.17  C 
BRANCH 29 30
ATOM     30  CB  ASP D 181      73.548 -25.740  80.758  1.00 57.98 LIG 0.15  C 
BRANCH 30 31
ATOM     31  CG  ASP D 181      74.886 -25.034  80.752  1.00 59.80 LIG 0.17  C 
ATOM     32 OD2  ASP D 181      75.212 -24.382  79.737  1.00 65.59 LIG-0.65  OA
ATOM     33 OD1  ASP D 181      75.613 -25.132  81.762  1.00 62.88 LIG-0.65  OA
ENDBRANCH 30 31
ENDBRANCH 29 30
BRANCH 29 34
ATOM     34  C   ASP D 181      72.594 -23.447  80.429  1.00 55.94 LIG 0.22  C 
ATOM     35 O    ASP D 181      72.182 -22.573  79.662  1.00 49.69 LIG-0.29  OA
ENDBRANCH 29 34
ENDBRANCH 27 29
ENDBRANCH 24 25
BRANCH 24 36
ATOM     36  CB  ASP D 180      70.769 -26.969  76.046  1.00 41.39 LIG 0.15  C 
BRANCH 36 37
ATOM     37  CG  ASP D 180      70.308 -26.322  74.755  1.00 35.24 LIG 0.17  C 
ATOM     38 OD1  ASP D 180      70.289 -27.006  73.709  1.00 51.10 LIG-0.65  OA
ATOM     39 OD2  ASP D 180      69.940 -25.129  74.796  1.00 19.64 LIG-0.65  OA
ENDBRANCH 36 37
ENDBRANCH 24 36
ENDBRANCH 3 24
TORSDOF 16
ENDMDL
MODEL 30
USER: ADFR SOLUTION from run 65
USER: SCORE 11.058885 LL:  -2.204 LR: -10.861 RR:   0.000 FEB:  -6.089
USER: RMSD 8.529148
USER: SEED 64
USER: STATUS no improvement in best in 9 clusters for 5 generations
USER: GENES 18
USER: genes 0 Translation |==|  0.29695 0.54721 0.41967
USER: genes 1 Rotation |==|  0.63062 0.70260 0.69944 0.89002
USER: genes 2 Torsion [N]-C--CA-[N] |==|  0.11074
USER: genes 3 Torsion [C]-CA--CB-[CG] |==|  0.82900
USER: genes 4 Torsion [CA]-CB--CG-[OD1] |==|  0.36446
USER: genes 5 Torsion [C]-CA--N-[C] |==|  0.74986
USER: genes 6 Torsion [N]-C--CA-[N] |==|  0.68889
USER: genes 7 Torsion [C]-CA--N-[C] |==|  0.69718
USER: genes 8 Torsion [N]-C--CA-[N] |==|  0.58522
USER: genes 9 Torsion [C]-CA--CB-[CG1] |==|  0.21427
USER: genes 10 Torsion [C]-N--CA-[CB] |==|  0.19274
USER: genes 11 Torsion [N]-CA--C-[N] |==|  0.89635
USER: genes 12 Torsion [C]-N--CA-[CB] |==|  0.27971
USER: genes 13 Torsion [N]-CA--CB-[CG] |==|  0.15823
USER: genes 14 Torsion [CA]-CB--CG-[OD2] |==|  0.04550
USER: genes 15 Torsion [N]-CA--C-[O] |==|  0.36393
USER: genes 16 Torsion [N]-CA--CB-[CG] |==|  0.37637
USER: genes 17 Torsion [CA]-CB--CG-[OD1] |==|  0.18300
ROOT
ATOM      1  C   ASP D 179      68.239 -24.622  77.598  1.00 41.71 LIG 0.24  C 
ATOM      2 O    ASP D 179      69.118 -25.472  77.456  1.00 47.20 LIG-0.27  OA
ATOM      3  N   ASP D 180      68.181 -23.787  78.635  1.00 48.22 LIG-0.34  N 
ATOM      4 H    ASP D 180      67.610 -23.147  78.689  1.00 48.22 LIG 0.16  HD
ENDROOT
BRANCH 1 5
ATOM      5  CA  ASP D 179      67.126 -24.444  76.565  1.00 44.60 LIG 0.19  C 
BRANCH 5 6
ATOM      6  CB  ASP D 179      67.441 -25.188  75.262  1.00 48.27 LIG 0.15  C 
BRANCH 6 7
ATOM      7  CG  ASP D 179      68.710 -24.670  74.594  1.00 46.68 LIG 0.17  C 
ATOM      8 OD1  ASP D 179      69.574 -25.494  74.218  1.00 58.91 LIG-0.65  OA
ATOM      9 OD2  ASP D 179      68.844 -23.441  74.420  1.00 62.78 LIG-0.65  OA
ENDBRANCH 6 7
ENDBRANCH 5 6
BRANCH 5 10
ATOM     10  N   ASP D 179      66.859 -23.013  76.370  1.00 43.40 LIG-0.34  N 
ATOM     11 H    ASP D 179      67.347 -22.680  75.744  1.00 43.40 LIG 0.16  HD
ATOM     12  C   VAL D 178      65.989 -22.261  77.038  1.00 52.66 LIG 0.24  C 
ATOM     13 O    VAL D 178      65.493 -22.560  78.130  1.00 53.52 LIG-0.27  OA
BRANCH 12 14
ATOM     14  CA  VAL D 178      65.631 -20.945  76.336  1.00 43.72 LIG 0.18  C 
BRANCH 14 15
ATOM     15  N   VAL D 178      66.146 -19.803  77.067  1.00 54.34 LIG-0.35  N 
ATOM     16  C   GLY D 177      65.356 -18.966  77.731  1.00 48.99 LIG 0.25  C 
ATOM     17 O    GLY D 177      65.799 -18.013  78.358  1.00 61.87 LIG-0.27  OA
ATOM     18 H    VAL D 178      67.001 -19.721  77.030  1.00 54.34 LIG 0.16  HD
BRANCH 16 19
ATOM     19  CA  GLY D 177      63.861 -19.234  77.706  1.00 38.66 LIG 0.47  C 
ATOM     20  N   GLY D 177      63.090 -18.006  77.798  1.00 37.02 LIG 0.61  N 
ENDBRANCH 16 19
ENDBRANCH 14 15
BRANCH 14 21
ATOM     21  CB  VAL D 178      66.140 -20.935  74.879  1.00 39.80 LIG 0.01  C 
ATOM     22  CG2 VAL D 178      66.192 -19.522  74.339  1.00 46.96 LIG 0.01  C 
ATOM     23  CG1 VAL D 178      65.215 -21.785  74.007  1.00 37.07 LIG 0.01  C 
ENDBRANCH 14 21
ENDBRANCH 12 14
ENDBRANCH 5 10
ENDBRANCH 1 5
BRANCH 3 24
ATOM     24  CA  ASP D 180      69.077 -23.867  79.786  1.00 47.37 LIG 0.19  C 
BRANCH 24 25
ATOM     25  C   ASP D 180      68.565 -22.930  80.879  1.00 52.09 LIG 0.24  C 
ATOM     26 O    ASP D 180      68.634 -23.259  82.065  1.00 46.90 LIG-0.27  OA
ATOM     27  N   ASP D 181      68.040 -21.775  80.488  1.00 56.67 LIG-0.35  N 
ATOM     28 H    ASP D 181      67.971 -21.525  79.668  1.00 56.67 LIG 0.16  HD
BRANCH 27 29
ATOM     29  CA  ASP D 181      67.528 -20.821  81.463  1.00 54.32 LIG 0.17  C 
BRANCH 29 30
ATOM     30  CB  ASP D 181      68.544 -19.705  81.698  1.00 57.98 LIG 0.15  C 
BRANCH 30 31
ATOM     31  CG  ASP D 181      68.918 -18.983  80.423  1.00 59.80 LIG 0.17  C 
ATOM     32 OD2  ASP D 181      68.184 -19.123  79.421  1.00 65.59 LIG-0.65  OA
ATOM     33 OD1  ASP D 181      69.949 -18.277  80.420  1.00 62.88 LIG-0.65  OA
ENDBRANCH 30 31
ENDBRANCH 29 30
BRANCH 29 34
ATOM     34  C   ASP D 181      66.191 -20.235  81.023  1.00 55.94 LIG 0.22  C 
ATOM     35 O    ASP D 181      65.232 -20.200  81.799  1.00 49.69 LIG-0.29  OA
ENDBRANCH 29 34
ENDBRANCH 27 29
ENDBRANCH 24 25
BRANCH 24 36
ATOM     36  CB  ASP D 180      70.507 -23.474  79.408  1.00 41.39 LIG 0.15  C 
BRANCH 36 37
ATOM     37  CG  ASP D 180      71.151 -22.549  80.420  1.00 35.24 LIG 0.17  C 
ATOM     38 OD1  ASP D 180      71.385 -22.979  81.571  1.00 51.10 LIG-0.65  OA
ATOM     39 OD2  ASP D 180      71.448 -21.392  80.052  1.00 19.64 LIG-0.65  OA
ENDBRANCH 36 37
ENDBRANCH 24 36
ENDBRANCH 3 24
TORSDOF 16
ENDMDL
MODEL 31
USER: ADFR SOLUTION from run 109
USER: SCORE 11.690153 LL:  -2.981 LR: -10.816 RR:   0.000 FEB:  -6.043
USER: RMSD 6.266210
USER: SEED 108
USER: STATUS no improvement in best in 10 clusters for 5 generations
USER: GENES 18
USER: genes 0 Translation |==|  0.36083 0.53910 0.45340
USER: genes 1 Rotation |==|  0.54109 0.65818 0.27906 0.91770
USER: genes 2 Torsion [N]-C--CA-[N] |==|  0.28513
USER: genes 3 Torsion [C]-CA--CB-[CG] |==|  0.54679
USER: genes 4 Torsion [CA]-CB--CG-[OD1] |==|  0.32384
USER: genes 5 Torsion [C]-CA--N-[C] |==|  0.63710
USER: genes 6 Torsion [N]-C--CA-[N] |==|  0.40500
USER: genes 7 Torsion [C]-CA--N-[C] |==|  0.76685
USER: genes 8 Torsion [N]-C--CA-[N] |==|  0.40427
USER: genes 9 Torsion [C]-CA--CB-[CG1] |==|  0.63669
USER: genes 10 Torsion [C]-N--CA-[CB] |==|  0.36783
USER: genes 11 Torsion [N]-CA--C-[N] |==|  0.36112
USER: genes 12 Torsion [C]-N--CA-[CB] |==|  0.28898
USER: genes 13 Torsion [N]-CA--CB-[CG] |==|  0.79836
USER: genes 14 Torsion [CA]-CB--CG-[OD2] |==|  0.74273
USER: genes 15 Torsion [N]-CA--C-[O] |==|  0.47635
USER: genes 16 Torsion [N]-CA--CB-[CG] |==|  0.45361
USER: genes 17 Torsion [CA]-CB--CG-[OD1] |==|  0.62011
ROOT
ATOM      1  C   ASP D 179      69.485 -24.774  78.154  1.00 41.71 LIG 0.24  C 
ATOM      2 O    ASP D 179      68.948 -25.400  79.067  1.00 47.20 LIG-0.27  OA
ATOM      3  N   ASP D 180      70.758 -24.380  78.179  1.00 48.22 LIG-0.34  N 
ATOM      4 H    ASP D 180      71.146 -24.010  77.507  1.00 48.22 LIG 0.16  HD
ENDROOT
BRANCH 1 5
ATOM      5  CA  ASP D 179      68.719 -24.398  76.885  1.00 44.60 LIG 0.19  C 
BRANCH 5 6
ATOM      6  CB  ASP D 179      67.375 -23.739  77.211  1.00 48.27 LIG 0.15  C 
BRANCH 6 7
ATOM      7  CG  ASP D 179      66.430 -23.732  76.014  1.00 46.68 LIG 0.17  C 
ATOM      8 OD1  ASP D 179      65.357 -24.372  76.088  1.00 58.91 LIG-0.65  OA
ATOM      9 OD2  ASP D 179      66.741 -23.072  75.001  1.00 62.78 LIG-0.65  OA
ENDBRANCH 6 7
ENDBRANCH 5 6
BRANCH 5 10
ATOM     10  N   ASP D 179      68.596 -25.578  76.018  1.00 43.40 LIG-0.34  N 
ATOM     11 H    ASP D 179      68.309 -26.263  76.451  1.00 43.40 LIG 0.16  HD
ATOM     12  C   VAL D 178      68.876 -25.651  74.719  1.00 52.66 LIG 0.24  C 
ATOM     13 O    VAL D 178      69.573 -24.839  74.102  1.00 53.52 LIG-0.27  OA
BRANCH 12 14
ATOM     14  CA  VAL D 178      68.250 -26.860  74.013  1.00 43.72 LIG 0.18  C 
BRANCH 14 15
ATOM     15  N   VAL D 178      67.877 -26.536  72.649  1.00 54.34 LIG-0.35  N 
ATOM     16  C   GLY D 177      66.725 -25.950  72.344  1.00 48.99 LIG 0.25  C 
ATOM     17 O    GLY D 177      66.424 -25.666  71.193  1.00 61.87 LIG-0.27  OA
ATOM     18 H    VAL D 178      68.467 -26.758  72.063  1.00 54.34 LIG 0.16  HD
BRANCH 16 19
ATOM     19  CA  GLY D 177      65.777 -25.618  73.484  1.00 38.66 LIG 0.47  C 
ATOM     20  N   GLY D 177      65.043 -24.388  73.237  1.00 37.02 LIG 0.61  N 
ENDBRANCH 16 19
ENDBRANCH 14 15
BRANCH 14 21
ATOM     21  CB  VAL D 178      69.199 -28.077  74.044  1.00 39.80 LIG 0.01  C 
ATOM     22  CG2 VAL D 178      70.568 -27.676  74.549  1.00 46.96 LIG 0.01  C 
ATOM     23  CG1 VAL D 178      69.321 -28.668  72.638  1.00 37.07 LIG 0.01  C 
ENDBRANCH 14 21
ENDBRANCH 12 14
ENDBRANCH 5 10
ENDBRANCH 1 5
BRANCH 3 24
ATOM     24  CA  ASP D 180      71.628 -24.534  79.343  1.00 47.37 LIG 0.19  C 
BRANCH 24 25
ATOM     25  C   ASP D 180      71.843 -23.165  79.985  1.00 52.09 LIG 0.24  C 
ATOM     26 O    ASP D 180      72.199 -22.203  79.300  1.00 46.90 LIG-0.27  OA
ATOM     27  N   ASP D 181      71.644 -23.073  81.295  1.00 56.67 LIG-0.35  N 
ATOM     28 H    ASP D 181      71.405 -23.728  81.798  1.00 56.67 LIG 0.16  HD
BRANCH 27 29
ATOM     29  CA  ASP D 181      71.826 -21.804  81.989  1.00 54.32 LIG 0.17  C 
BRANCH 29 30
ATOM     30  CB  ASP D 181      70.471 -21.180  82.317  1.00 57.98 LIG 0.15  C 
BRANCH 30 31
ATOM     31  CG  ASP D 181      69.775 -20.629  81.092  1.00 59.80 LIG 0.17  C 
ATOM     32 OD2  ASP D 181      69.949 -19.427  80.798  1.00 65.59 LIG-0.65  OA
ATOM     33 OD1  ASP D 181      69.053 -21.397  80.423  1.00 62.88 LIG-0.65  OA
ENDBRANCH 30 31
ENDBRANCH 29 30
BRANCH 29 34
ATOM     34  C   ASP D 181      72.651 -21.975  83.259  1.00 55.94 LIG 0.22  C 
ATOM     35 O    ASP D 181      73.040 -20.991  83.894  1.00 49.69 LIG-0.29  OA
ENDBRANCH 29 34
ENDBRANCH 27 29
ENDBRANCH 24 25
BRANCH 24 36
ATOM     36  CB  ASP D 180      72.981 -25.132  78.952  1.00 41.39 LIG 0.15  C 
BRANCH 36 37
ATOM     37  CG  ASP D 180      74.040 -24.940  80.019  1.00 35.24 LIG 0.17  C 
ATOM     38 OD1  ASP D 180      75.191 -24.592  79.673  1.00 51.10 LIG-0.65  OA
ATOM     39 OD2  ASP D 180      73.711 -25.115  81.211  1.00 19.64 LIG-0.65  OA
ENDBRANCH 36 37
ENDBRANCH 24 36
ENDBRANCH 3 24
TORSDOF 16
ENDMDL
MODEL 32
USER: ADFR SOLUTION from run 125
USER: SCORE 10.796585 LL:  -1.495 LR: -10.814 RR:   0.000 FEB:  -6.042
USER: RMSD 6.582120
USER: SEED 124
USER: STATUS no improvement in best in 12 clusters for 5 generations
USER: GENES 18
USER: genes 0 Translation |==|  0.52589 0.56676 0.55508
USER: genes 1 Rotation |==|  0.48063 0.19334 0.12609 0.62562
USER: genes 2 Torsion [N]-C--CA-[N] |==|  0.43476
USER: genes 3 Torsion [C]-CA--CB-[CG] |==|  0.08443
USER: genes 4 Torsion [CA]-CB--CG-[OD1] |==|  0.77653
USER: genes 5 Torsion [C]-CA--N-[C] |==|  0.60556
USER: genes 6 Torsion [N]-C--CA-[N] |==|  0.49274
USER: genes 7 Torsion [C]-CA--N-[C] |==|  0.77011
USER: genes 8 Torsion [N]-C--CA-[N] |==|  0.63919
USER: genes 9 Torsion [C]-CA--CB-[CG1] |==|  0.55000
USER: genes 10 Torsion [C]-N--CA-[CB] |==|  0.24375
USER: genes 11 Torsion [N]-CA--C-[N] |==|  0.19728
USER: genes 12 Torsion [C]-N--CA-[CB] |==|  0.44738
USER: genes 13 Torsion [N]-CA--CB-[CG] |==|  0.40410
USER: genes 14 Torsion [CA]-CB--CG-[OD2] |==|  0.72407
USER: genes 15 Torsion [N]-CA--C-[O] |==|  0.02247
USER: genes 16 Torsion [N]-CA--CB-[CG] |==|  0.73958
USER: genes 17 Torsion [CA]-CB--CG-[OD1] |==|  0.52085
ROOT
ATOM      1  C   ASP D 179      72.704 -24.255  79.832  1.00 41.71 LIG 0.24  C 
ATOM      2 O    ASP D 179      72.423 -23.344  79.054  1.00 47.20 LIG-0.27  OA
ATOM      3  N   ASP D 180      72.913 -24.075  81.136  1.00 48.22 LIG-0.34  N 
ATOM      4 H    ASP D 180      73.034 -24.726  81.684  1.00 48.22 LIG 0.16  HD
ENDROOT
BRANCH 1 5
ATOM      5  CA  ASP D 179      72.828 -25.703  79.354  1.00 44.60 LIG 0.19  C 
BRANCH 5 6
ATOM      6  CB  ASP D 179      74.294 -26.133  79.232  1.00 48.27 LIG 0.15  C 
BRANCH 6 7
ATOM      7  CG  ASP D 179      75.191 -25.415  80.235  1.00 46.68 LIG 0.17  C 
ATOM      8 OD1  ASP D 179      75.573 -24.251  79.978  1.00 58.91 LIG-0.65  OA
ATOM      9 OD2  ASP D 179      75.502 -25.998  81.295  1.00 62.78 LIG-0.65  OA
ENDBRANCH 6 7
ENDBRANCH 5 6
BRANCH 5 10
ATOM     10  N   ASP D 179      72.063 -25.877  78.112  1.00 43.40 LIG-0.34  N 
ATOM     11 H    ASP D 179      72.124 -25.189  77.600  1.00 43.40 LIG 0.16  HD
ATOM     12  C   VAL D 178      71.343 -26.938  77.756  1.00 52.66 LIG 0.24  C 
ATOM     13 O    VAL D 178      70.945 -27.812  78.534  1.00 53.52 LIG-0.27  OA
BRANCH 12 14
ATOM     14  CA  VAL D 178      71.026 -27.004  76.257  1.00 43.72 LIG 0.18  C 
BRANCH 14 15
ATOM     15  N   VAL D 178      70.294 -28.212  75.928  1.00 54.34 LIG-0.35  N 
ATOM     16  C   GLY D 177      70.896 -29.378  75.722  1.00 48.99 LIG 0.25  C 
ATOM     17 O    GLY D 177      70.270 -30.396  75.460  1.00 61.87 LIG-0.27  OA
ATOM     18 H    VAL D 178      69.442 -28.102  75.879  1.00 54.34 LIG 0.16  HD
BRANCH 16 19
ATOM     19  CA  GLY D 177      72.410 -29.423  75.839  1.00 38.66 LIG 0.47  C 
ATOM     20  N   GLY D 177      73.024 -30.062  74.688  1.00 37.02 LIG 0.61  N 
ENDBRANCH 16 19
ENDBRANCH 14 15
BRANCH 14 21
ATOM     21  CB  VAL D 178      70.250 -25.753  75.795  1.00 39.80 LIG 0.01  C 
ATOM     22  CG2 VAL D 178      69.208 -25.360  76.820  1.00 46.96 LIG 0.01  C 
ATOM     23  CG1 VAL D 178      69.571 -26.037  74.454  1.00 37.07 LIG 0.01  C 
ENDBRANCH 14 21
ENDBRANCH 12 14
ENDBRANCH 5 10
ENDBRANCH 1 5
BRANCH 3 24
ATOM     24  CA  ASP D 180      72.958 -22.760  81.771  1.00 47.37 LIG 0.19  C 
BRANCH 24 25
ATOM     25  C   ASP D 180      73.866 -22.833  82.997  1.00 52.09 LIG 0.24  C 
ATOM     26 O    ASP D 180      73.388 -22.765  84.132  1.00 46.90 LIG-0.27  OA
ATOM     27  N   ASP D 181      75.170 -22.958  82.778  1.00 56.67 LIG-0.35  N 
ATOM     28 H    ASP D 181      75.530 -22.999  81.998  1.00 56.67 LIG 0.16  HD
BRANCH 27 29
ATOM     29  CA  ASP D 181      76.108 -23.037  83.890  1.00 54.32 LIG 0.17  C 
BRANCH 29 30
ATOM     30  CB  ASP D 181      77.435 -23.633  83.424  1.00 57.98 LIG 0.15  C 
BRANCH 30 31
ATOM     31  CG  ASP D 181      78.624 -23.033  84.141  1.00 59.80 LIG 0.17  C 
ATOM     32 OD2  ASP D 181      79.277 -22.136  83.565  1.00 65.59 LIG-0.65  OA
ATOM     33 OD1  ASP D 181      78.907 -23.459  85.281  1.00 62.88 LIG-0.65  OA
ENDBRANCH 30 31
ENDBRANCH 29 30
BRANCH 29 34
ATOM     34  C   ASP D 181      76.337 -21.670  84.527  1.00 55.94 LIG 0.22  C 
ATOM     35 O    ASP D 181      75.653 -20.698  84.195  1.00 49.69 LIG-0.29  OA
ENDBRANCH 29 34
ENDBRANCH 27 29
ENDBRANCH 24 25
BRANCH 24 36
ATOM     36  CB  ASP D 180      71.563 -22.299  82.198  1.00 41.39 LIG 0.15  C 
BRANCH 36 37
ATOM     37  CG  ASP D 180      70.881 -21.438  81.154  1.00 35.24 LIG 0.17  C 
ATOM     38 OD1  ASP D 180      69.798 -20.883  81.441  1.00 51.10 LIG-0.65  OA
ATOM     39 OD2  ASP D 180      71.447 -21.297  80.049  1.00 19.64 LIG-0.65  OA
ENDBRANCH 36 37
ENDBRANCH 24 36
ENDBRANCH 3 24
TORSDOF 16
ENDMDL
MODEL 33
USER: ADFR SOLUTION from run 104
USER: SCORE 11.899899 LL:  -3.137 LR: -10.783 RR:   0.000 FEB:  -6.010
USER: RMSD 4.960955
USER: SEED 103
USER: STATUS no improvement in best in 18 clusters for 5 generations
USER: GENES 18
USER: genes 0 Translation |==|  0.49351 0.52909 0.55114
USER: genes 1 Rotation |==|  0.25619 0.45107 0.69746 0.88623
USER: genes 2 Torsion [N]-C--CA-[N] |==|  0.89333
USER: genes 3 Torsion [C]-CA--CB-[CG] |==|  0.20247
USER: genes 4 Torsion [CA]-CB--CG-[OD1] |==|  0.12369
USER: genes 5 Torsion [C]-CA--N-[C] |==|  0.74011
USER: genes 6 Torsion [N]-C--CA-[N] |==|  0.88333
USER: genes 7 Torsion [C]-CA--N-[C] |==|  0.81559
USER: genes 8 Torsion [N]-C--CA-[N] |==|  0.53448
USER: genes 9 Torsion [C]-CA--CB-[CG1] |==|  0.82545
USER: genes 10 Torsion [C]-N--CA-[CB] |==|  0.83233
USER: genes 11 Torsion [N]-CA--C-[N] |==|  0.61786
USER: genes 12 Torsion [C]-N--CA-[CB] |==|  0.30662
USER: genes 13 Torsion [N]-CA--CB-[CG] |==|  0.86837
USER: genes 14 Torsion [CA]-CB--CG-[OD2] |==|  0.22239
USER: genes 15 Torsion [N]-CA--C-[O] |==|  0.01266
USER: genes 16 Torsion [N]-CA--CB-[CG] |==|  0.80736
USER: genes 17 Torsion [CA]-CB--CG-[OD1] |==|  0.33335
ROOT
ATOM      1  C   ASP D 179      72.072 -24.962  79.767  1.00 41.71 LIG 0.24  C 
ATOM      2 O    ASP D 179      71.930 -24.902  80.988  1.00 47.20 LIG-0.27  OA
ATOM      3  N   ASP D 180      71.360 -24.237  78.904  1.00 48.22 LIG-0.34  N 
ATOM      4 H    ASP D 180      71.517 -24.229  78.059  1.00 48.22 LIG 0.16  HD
ENDROOT
BRANCH 1 5
ATOM      5  CA  ASP D 179      73.111 -25.886  79.129  1.00 44.60 LIG 0.19  C 
BRANCH 5 6
ATOM      6  CB  ASP D 179      74.451 -25.171  78.922  1.00 48.27 LIG 0.15  C 
BRANCH 6 7
ATOM      7  CG  ASP D 179      75.196 -24.951  80.234  1.00 46.68 LIG 0.17  C 
ATOM      8 OD1  ASP D 179      75.258 -25.892  81.058  1.00 58.91 LIG-0.65  OA
ATOM      9 OD2  ASP D 179      75.742 -23.848  80.443  1.00 62.78 LIG-0.65  OA
ENDBRANCH 6 7
ENDBRANCH 5 6
BRANCH 5 10
ATOM     10  N   ASP D 179      72.562 -26.465  77.896  1.00 43.40 LIG-0.34  N 
ATOM     11 H    ASP D 179      72.690 -25.952  77.218  1.00 43.40 LIG 0.16  HD
ATOM     12  C   VAL D 178      71.933 -27.631  77.769  1.00 52.66 LIG 0.24  C 
ATOM     13 O    VAL D 178      71.434 -28.267  78.702  1.00 53.52 LIG-0.27  OA
BRANCH 12 14
ATOM     14  CA  VAL D 178      71.866 -28.150  76.327  1.00 43.72 LIG 0.18  C 
BRANCH 14 15
ATOM     15  N   VAL D 178      71.559 -27.080  75.398  1.00 54.34 LIG-0.35  N 
ATOM     16  C   GLY D 177      70.389 -26.449  75.395  1.00 48.99 LIG 0.25  C 
ATOM     17 O    GLY D 177      70.144 -25.537  74.619  1.00 61.87 LIG-0.27  OA
ATOM     18 H    VAL D 178      72.199 -26.895  74.854  1.00 54.34 LIG 0.16  HD
BRANCH 16 19
ATOM     19  CA  GLY D 177      69.349 -26.886  76.413  1.00 38.66 LIG 0.47  C 
ATOM     20  N   GLY D 177      68.039 -26.329  76.120  1.00 37.02 LIG 0.61  N 
ENDBRANCH 16 19
ENDBRANCH 14 15
BRANCH 14 21
ATOM     21  CB  VAL D 178      73.177 -28.860  75.928  1.00 39.80 LIG 0.01  C 
ATOM     22  CG2 VAL D 178      73.468 -30.014  76.863  1.00 46.96 LIG 0.01  C 
ATOM     23  CG1 VAL D 178      74.334 -27.860  75.969  1.00 37.07 LIG 0.01  C 
ENDBRANCH 14 21
ENDBRANCH 12 14
ENDBRANCH 5 10
ENDBRANCH 1 5
BRANCH 3 24
ATOM     24  CA  ASP D 180      70.241 -23.384  79.298  1.00 47.37 LIG 0.19  C 
BRANCH 24 25
ATOM     25  C   ASP D 180      70.749 -22.319  80.269  1.00 52.09 LIG 0.24  C 
ATOM     26 O    ASP D 180      71.826 -21.753  80.068  1.00 46.90 LIG-0.27  OA
ATOM     27  N   ASP D 181      69.990 -22.053  81.326  1.00 56.67 LIG-0.35  N 
ATOM     28 H    ASP D 181      69.240 -22.438  81.495  1.00 56.67 LIG 0.16  HD
BRANCH 27 29
ATOM     29  CA  ASP D 181      70.397 -21.051  82.303  1.00 54.32 LIG 0.17  C 
BRANCH 29 30
ATOM     30  CB  ASP D 181      69.486 -19.828  82.220  1.00 57.98 LIG 0.15  C 
BRANCH 30 31
ATOM     31  CG  ASP D 181      69.279 -19.355  80.798  1.00 59.80 LIG 0.17  C 
ATOM     32 OD2  ASP D 181      68.447 -19.956  80.085  1.00 65.59 LIG-0.65  OA
ATOM     33 OD1  ASP D 181      69.949 -18.382  80.392  1.00 62.88 LIG-0.65  OA
ENDBRANCH 30 31
ENDBRANCH 29 30
BRANCH 29 34
ATOM     34  C   ASP D 181      70.395 -21.617  83.718  1.00 55.94 LIG 0.22  C 
ATOM     35 O    ASP D 181      70.157 -22.811  83.919  1.00 49.69 LIG-0.29  OA
ENDBRANCH 29 34
ENDBRANCH 27 29
ENDBRANCH 24 25
BRANCH 24 36
ATOM     36  CB  ASP D 180      69.130 -24.195  79.967  1.00 41.39 LIG 0.15  C 
BRANCH 36 37
ATOM     37  CG  ASP D 180      68.408 -25.114  79.003  1.00 35.24 LIG 0.17  C 
ATOM     38 OD1  ASP D 180      68.418 -26.345  79.218  1.00 51.10 LIG-0.65  OA
ATOM     39 OD2  ASP D 180      67.806 -24.595  78.038  1.00 19.64 LIG-0.65  OA
ENDBRANCH 36 37
ENDBRANCH 24 36
ENDBRANCH 3 24
TORSDOF 16
ENDMDL
MODEL 34
USER: ADFR SOLUTION from run 145
USER: SCORE 12.226861 LL:  -2.895 LR: -10.776 RR:   0.000 FEB:  -6.003
USER: RMSD 3.163935
USER: SEED 144
USER: STATUS no improvement in best in 3 clusters for 5 generations
USER: GENES 18
USER: genes 0 Translation |==|  0.45834 0.50828 0.49111
USER: genes 1 Rotation |==|  0.47448 0.45386 0.25997 0.93544
USER: genes 2 Torsion [N]-C--CA-[N] |==|  0.17411
USER: genes 3 Torsion [C]-CA--CB-[CG] |==|  0.46119
USER: genes 4 Torsion [CA]-CB--CG-[OD1] |==|  0.26154
USER: genes 5 Torsion [C]-CA--N-[C] |==|  0.62655
USER: genes 6 Torsion [N]-C--CA-[N] |==|  0.29506
USER: genes 7 Torsion [C]-CA--N-[C] |==|  0.75682
USER: genes 8 Torsion [N]-C--CA-[N] |==|  0.39038
USER: genes 9 Torsion [C]-CA--CB-[CG1] |==|  0.78968
USER: genes 10 Torsion [C]-N--CA-[CB] |==|  0.50562
USER: genes 11 Torsion [N]-CA--C-[N] |==|  0.33815
USER: genes 12 Torsion [C]-N--CA-[CB] |==|  0.83251
USER: genes 13 Torsion [N]-CA--CB-[CG] |==|  0.42294
USER: genes 14 Torsion [CA]-CB--CG-[OD2] |==|  0.17180
USER: genes 15 Torsion [N]-CA--C-[O] |==|  0.03450
USER: genes 16 Torsion [N]-CA--CB-[CG] |==|  0.86658
USER: genes 17 Torsion [CA]-CB--CG-[OD1] |==|  0.72559
ROOT
ATOM      1  C   ASP D 179      71.387 -25.352  78.776  1.00 41.71 LIG 0.24  C 
ATOM      2 O    ASP D 179      70.343 -25.437  79.423  1.00 47.20 LIG-0.27  OA
ATOM      3  N   ASP D 180      72.507 -24.809  79.252  1.00 48.22 LIG-0.34  N 
ATOM      4 H    ASP D 180      73.252 -24.822  78.822  1.00 48.22 LIG 0.16  HD
ENDROOT
BRANCH 1 5
ATOM      5  CA  ASP D 179      71.485 -25.885  77.346  1.00 44.60 LIG 0.19  C 
BRANCH 5 6
ATOM      6  CB  ASP D 179      70.111 -26.283  76.797  1.00 48.27 LIG 0.15  C 
BRANCH 6 7
ATOM      7  CG  ASP D 179      70.131 -26.490  75.286  1.00 46.68 LIG 0.17  C 
ATOM      8 OD1  ASP D 179      70.309 -27.645  74.837  1.00 58.91 LIG-0.65  OA
ATOM      9 OD2  ASP D 179      69.949 -25.507  74.538  1.00 62.78 LIG-0.65  OA
ENDBRANCH 6 7
ENDBRANCH 5 6
BRANCH 5 10
ATOM     10  N   ASP D 179      72.472 -26.971  77.293  1.00 43.40 LIG-0.34  N 
ATOM     11 H    ASP D 179      72.372 -27.526  77.942  1.00 43.40 LIG 0.16  HD
ATOM     12  C   VAL D 178      73.431 -27.140  76.386  1.00 52.66 LIG 0.24  C 
ATOM     13 O    VAL D 178      73.847 -26.257  75.628  1.00 53.52 LIG-0.27  OA
BRANCH 12 14
ATOM     14  CA  VAL D 178      74.009 -28.560  76.344  1.00 43.72 LIG 0.18  C 
BRANCH 14 15
ATOM     15  N   VAL D 178      73.549 -29.280  75.173  1.00 54.34 LIG-0.35  N 
ATOM     16  C   GLY D 177      72.414 -29.972  75.160  1.00 48.99 LIG 0.25  C 
ATOM     17 O    GLY D 177      72.025 -30.565  74.163  1.00 61.87 LIG-0.27  OA
ATOM     18 H    VAL D 178      74.074 -29.217  74.495  1.00 54.34 LIG 0.16  HD
BRANCH 16 19
ATOM     19  CA  GLY D 177      71.587 -29.997  76.434  1.00 38.66 LIG 0.47  C 
ATOM     20  N   GLY D 177      70.164 -29.912  76.157  1.00 37.02 LIG 0.61  N 
ENDBRANCH 16 19
ENDBRANCH 14 15
BRANCH 14 21
ATOM     21  CB  VAL D 178      75.552 -28.536  76.399  1.00 39.80 LIG 0.01  C 
ATOM     22  CG2 VAL D 178      76.036 -27.578  77.465  1.00 46.96 LIG 0.01  C 
ATOM     23  CG1 VAL D 178      76.105 -28.113  75.037  1.00 37.07 LIG 0.01  C 
ENDBRANCH 14 21
ENDBRANCH 12 14
ENDBRANCH 5 10
ENDBRANCH 1 5
BRANCH 3 24
ATOM     24  CA  ASP D 180      72.593 -24.139  80.547  1.00 47.37 LIG 0.19  C 
BRANCH 24 25
ATOM     25  C   ASP D 180      71.575 -23.000  80.583  1.00 52.09 LIG 0.24  C 
ATOM     26 O    ASP D 180      71.626 -22.091  79.752  1.00 46.90 LIG-0.27  OA
ATOM     27  N   ASP D 181      70.662 -23.035  81.547  1.00 56.67 LIG-0.35  N 
ATOM     28 H    ASP D 181      70.609 -23.651  82.144  1.00 56.67 LIG 0.16  HD
BRANCH 27 29
ATOM     29  CA  ASP D 181      69.652 -21.990  81.655  1.00 54.32 LIG 0.17  C 
BRANCH 29 30
ATOM     30  CB  ASP D 181      70.316 -20.631  81.868  1.00 57.98 LIG 0.15  C 
BRANCH 30 31
ATOM     31  CG  ASP D 181      69.479 -19.487  81.340  1.00 59.80 LIG 0.17  C 
ATOM     32 OD2  ASP D 181      68.350 -19.295  81.839  1.00 65.59 LIG-0.65  OA
ATOM     33 OD1  ASP D 181      69.949 -18.781  80.423  1.00 62.88 LIG-0.65  OA
ENDBRANCH 30 31
ENDBRANCH 29 30
BRANCH 29 34
ATOM     34  C   ASP D 181      68.752 -21.951  80.426  1.00 55.94 LIG 0.22  C 
ATOM     35 O    ASP D 181      68.768 -22.872  79.605  1.00 49.69 LIG-0.29  OA
ENDBRANCH 29 34
ENDBRANCH 27 29
ENDBRANCH 24 25
BRANCH 24 36
ATOM     36  CB  ASP D 180      73.994 -23.577  80.792  1.00 41.39 LIG 0.15  C 
BRANCH 36 37
ATOM     37  CG  ASP D 180      75.091 -24.581  80.501  1.00 35.24 LIG 0.17  C 
ATOM     38 OD1  ASP D 180      75.603 -25.211  81.452  1.00 51.10 LIG-0.65  OA
ATOM     39 OD2  ASP D 180      75.424 -24.757  79.309  1.00 19.64 LIG-0.65  OA
ENDBRANCH 36 37
ENDBRANCH 24 36
ENDBRANCH 3 24
TORSDOF 16
ENDMDL
MODEL 35
USER: ADFR SOLUTION from run 146
USER: SCORE 11.304355 LL:  -1.825 LR: -10.755 RR:   0.000 FEB:  -5.983
USER: RMSD 7.632241
USER: SEED 145
USER: STATUS no improvement in best in 2 clusters for 5 generations
USER: GENES 18
USER: genes 0 Translation |==|  0.35752 0.53300 0.41483
USER: genes 1 Rotation |==|  0.28769 0.57529 0.05602 0.54626
USER: genes 2 Torsion [N]-C--CA-[N] |==|  0.92473
USER: genes 3 Torsion [C]-CA--CB-[CG] |==|  0.18412
USER: genes 4 Torsion [CA]-CB--CG-[OD1] |==|  0.77036
USER: genes 5 Torsion [C]-CA--N-[C] |==|  0.76153
USER: genes 6 Torsion [N]-C--CA-[N] |==|  0.39021
USER: genes 7 Torsion [C]-CA--N-[C] |==|  0.69937
USER: genes 8 Torsion [N]-C--CA-[N] |==|  0.62073
USER: genes 9 Torsion [C]-CA--CB-[CG1] |==|  0.78764
USER: genes 10 Torsion [C]-N--CA-[CB] |==|  0.78553
USER: genes 11 Torsion [N]-CA--C-[N] |==|  0.73889
USER: genes 12 Torsion [C]-N--CA-[CB] |==|  0.26639
USER: genes 13 Torsion [N]-CA--CB-[CG] |==|  0.19698
USER: genes 14 Torsion [CA]-CB--CG-[OD2] |==|  0.78940
USER: genes 15 Torsion [N]-CA--C-[O] |==|  0.06387
USER: genes 16 Torsion [N]-CA--CB-[CG] |==|  0.85749
USER: genes 17 Torsion [CA]-CB--CG-[OD1] |==|  0.76844
ROOT
ATOM      1  C   ASP D 179      69.421 -24.888  77.518  1.00 41.71 LIG 0.24  C 
ATOM      2 O    ASP D 179      70.172 -24.058  78.029  1.00 47.20 LIG-0.27  OA
ATOM      3  N   ASP D 180      69.660 -26.199  77.520  1.00 48.22 LIG-0.34  N 
ATOM      4 H    ASP D 180      69.095 -26.778  77.228  1.00 48.22 LIG 0.16  HD
ENDROOT
BRANCH 1 5
ATOM      5  CA  ASP D 179      68.118 -24.472  76.833  1.00 44.60 LIG 0.19  C 
BRANCH 5 6
ATOM      6  CB  ASP D 179      67.002 -24.218  77.852  1.00 48.27 LIG 0.15  C 
BRANCH 6 7
ATOM      7  CG  ASP D 179      67.292 -23.011  78.738  1.00 46.68 LIG 0.17  C 
ATOM      8 OD1  ASP D 179      68.034 -23.160  79.736  1.00 58.91 LIG-0.65  OA
ATOM      9 OD2  ASP D 179      66.802 -21.904  78.433  1.00 62.78 LIG-0.65  OA
ENDBRANCH 6 7
ENDBRANCH 5 6
BRANCH 5 10
ATOM     10  N   ASP D 179      67.761 -25.464  75.811  1.00 43.40 LIG-0.34  N 
ATOM     11 H    ASP D 179      67.221 -26.059  76.118  1.00 43.40 LIG 0.16  HD
ATOM     12  C   VAL D 178      68.182 -25.502  74.549  1.00 52.66 LIG 0.24  C 
ATOM     13 O    VAL D 178      69.173 -24.903  74.119  1.00 53.52 LIG-0.27  OA
BRANCH 12 14
ATOM     14  CA  VAL D 178      67.320 -26.377  73.629  1.00 43.72 LIG 0.18  C 
BRANCH 14 15
ATOM     15  N   VAL D 178      67.154 -25.763  72.326  1.00 54.34 LIG-0.35  N 
ATOM     16  C   GLY D 177      66.002 -25.235  71.927  1.00 48.99 LIG 0.25  C 
ATOM     17 O    GLY D 177      65.874 -24.705  70.831  1.00 61.87 LIG-0.27  OA
ATOM     18 H    VAL D 178      67.865 -25.774  71.841  1.00 54.34 LIG 0.16  HD
BRANCH 16 19
ATOM     19  CA  GLY D 177      64.828 -25.290  72.889  1.00 38.66 LIG 0.47  C 
ATOM     20  N   GLY D 177      63.596 -25.670  72.218  1.00 37.02 LIG 0.61  N 
ENDBRANCH 16 19
ENDBRANCH 14 15
BRANCH 14 21
ATOM     21  CB  VAL D 178      67.912 -27.796  73.493  1.00 39.80 LIG 0.01  C 
ATOM     22  CG2 VAL D 178      68.341 -28.330  74.843  1.00 46.96 LIG 0.01  C 
ATOM     23  CG1 VAL D 178      69.115 -27.760  72.548  1.00 37.07 LIG 0.01  C 
ENDBRANCH 14 21
ENDBRANCH 12 14
ENDBRANCH 5 10
ENDBRANCH 1 5
BRANCH 3 24
ATOM     24  CA  ASP D 180      70.900 -26.793  78.016  1.00 47.37 LIG 0.19  C 
BRANCH 24 25
ATOM     25  C   ASP D 180      71.285 -26.111  79.327  1.00 52.09 LIG 0.24  C 
ATOM     26 O    ASP D 180      70.812 -26.502  80.397  1.00 46.90 LIG-0.27  OA
ATOM     27  N   ASP D 181      72.128 -25.087  79.252  1.00 56.67 LIG-0.35  N 
ATOM     28 H    ASP D 181      72.466 -24.788  78.520  1.00 56.67 LIG 0.16  HD
BRANCH 27 29
ATOM     29  CA  ASP D 181      72.550 -24.380  80.454  1.00 54.32 LIG 0.17  C 
BRANCH 29 30
ATOM     30  CB  ASP D 181      73.887 -24.927  80.951  1.00 57.98 LIG 0.15  C 
BRANCH 30 31
ATOM     31  CG  ASP D 181      75.040 -24.550  80.048  1.00 59.80 LIG 0.17  C 
ATOM     32 OD2  ASP D 181      75.172 -25.156  78.963  1.00 65.59 LIG-0.65  OA
ATOM     33 OD1  ASP D 181      75.817 -23.646  80.423  1.00 62.88 LIG-0.65  OA
ENDBRANCH 30 31
ENDBRANCH 29 30
BRANCH 29 34
ATOM     34  C   ASP D 181      72.651 -22.878  80.212  1.00 55.94 LIG 0.22  C 
ATOM     35 O    ASP D 181      72.018 -22.343  79.298  1.00 49.69 LIG-0.29  OA
ENDBRANCH 29 34
ENDBRANCH 27 29
ENDBRANCH 24 25
BRANCH 24 36
ATOM     36  CB  ASP D 180      72.037 -26.633  77.005  1.00 41.39 LIG 0.15  C 
BRANCH 36 37
ATOM     37  CG  ASP D 180      71.661 -27.105  75.615  1.00 35.24 LIG 0.17  C 
ATOM     38 OD1  ASP D 180      71.753 -28.323  75.345  1.00 51.10 LIG-0.65  OA
ATOM     39 OD2  ASP D 180      71.249 -26.255  74.798  1.00 19.64 LIG-0.65  OA
ENDBRANCH 36 37
ENDBRANCH 24 36
ENDBRANCH 3 24
TORSDOF 16
ENDMDL
MODEL 36
USER: ADFR SOLUTION from run 77
USER: SCORE 12.483705 LL:  -2.944 LR: -10.727 RR:   0.000 FEB:  -5.954
USER: RMSD 3.981015
USER: SEED 76
USER: STATUS no improvement in best in 8 clusters for 5 generations
USER: GENES 18
USER: genes 0 Translation |==|  0.43767 0.54232 0.49937
USER: genes 1 Rotation |==|  0.46174 0.50145 0.21926 0.91197
USER: genes 2 Torsion [N]-C--CA-[N] |==|  0.21037
USER: genes 3 Torsion [C]-CA--CB-[CG] |==|  0.49968
USER: genes 4 Torsion [CA]-CB--CG-[OD1] |==|  0.42969
USER: genes 5 Torsion [C]-CA--N-[C] |==|  0.63157
USER: genes 6 Torsion [N]-C--CA-[N] |==|  0.38591
USER: genes 7 Torsion [C]-CA--N-[C] |==|  0.77942
USER: genes 8 Torsion [N]-C--CA-[N] |==|  0.41248
USER: genes 9 Torsion [C]-CA--CB-[CG1] |==|  0.78303
USER: genes 10 Torsion [C]-N--CA-[CB] |==|  0.50585
USER: genes 11 Torsion [N]-CA--C-[N] |==|  0.38069
USER: genes 12 Torsion [C]-N--CA-[CB] |==|  0.19898
USER: genes 13 Torsion [N]-CA--CB-[CG] |==|  0.65555
USER: genes 14 Torsion [CA]-CB--CG-[OD2] |==|  0.46875
USER: genes 15 Torsion [N]-CA--C-[O] |==|  0.37910
USER: genes 16 Torsion [N]-CA--CB-[CG] |==|  0.84294
USER: genes 17 Torsion [CA]-CB--CG-[OD1] |==|  0.23216
ROOT
ATOM      1  C   ASP D 179      70.984 -24.714  78.913  1.00 41.71 LIG 0.24  C 
ATOM      2 O    ASP D 179      70.067 -24.642  79.731  1.00 47.20 LIG-0.27  OA
ATOM      3  N   ASP D 180      72.254 -24.436  79.203  1.00 48.22 LIG-0.34  N 
ATOM      4 H    ASP D 180      72.899 -24.561  78.647  1.00 48.22 LIG 0.16  HD
ENDROOT
BRANCH 1 5
ATOM      5  CA  ASP D 179      70.732 -25.148  77.468  1.00 44.60 LIG 0.19  C 
BRANCH 5 6
ATOM      6  CB  ASP D 179      69.273 -24.924  77.057  1.00 48.27 LIG 0.15  C 
BRANCH 6 7
ATOM      7  CG  ASP D 179      69.007 -25.350  75.617  1.00 46.68 LIG 0.17  C 
ATOM      8 OD1  ASP D 179      67.845 -25.680  75.291  1.00 58.91 LIG-0.65  OA
ATOM      9 OD2  ASP D 179      69.949 -25.337  74.798  1.00 62.78 LIG-0.65  OA
ENDBRANCH 6 7
ENDBRANCH 5 6
BRANCH 5 10
ATOM     10  N   ASP D 179      71.184 -26.534  77.286  1.00 43.40 LIG-0.34  N 
ATOM     11 H    ASP D 179      70.902 -27.047  77.916  1.00 43.40 LIG 0.16  HD
ATOM     12  C   VAL D 178      71.936 -27.009  76.296  1.00 52.66 LIG 0.24  C 
ATOM     13 O    VAL D 178      72.633 -26.316  75.547  1.00 53.52 LIG-0.27  OA
BRANCH 12 14
ATOM     14  CA  VAL D 178      71.879 -28.534  76.144  1.00 43.72 LIG 0.18  C 
BRANCH 14 15
ATOM     15  N   VAL D 178      71.822 -28.920  74.748  1.00 54.34 LIG-0.35  N 
ATOM     16  C   GLY D 177      70.699 -28.875  74.039  1.00 48.99 LIG 0.25  C 
ATOM     17 O    GLY D 177      70.662 -29.188  72.857  1.00 61.87 LIG-0.27  OA
ATOM     18 H    VAL D 178      72.576 -29.180  74.425  1.00 54.34 LIG 0.16  HD
BRANCH 16 19
ATOM     19  CA  GLY D 177      69.439 -28.398  74.741  1.00 38.66 LIG 0.47  C 
ATOM     20  N   GLY D 177      68.539 -27.710  73.831  1.00 37.02 LIG 0.61  N 
ENDBRANCH 16 19
ENDBRANCH 14 15
BRANCH 14 21
ATOM     21  CB  VAL D 178      73.074 -29.209  76.849  1.00 39.80 LIG 0.01  C 
ATOM     22  CG2 VAL D 178      73.327 -28.577  78.201  1.00 46.96 LIG 0.01  C 
ATOM     23  CG1 VAL D 178      74.324 -29.077  75.977  1.00 37.07 LIG 0.01  C 
ENDBRANCH 14 21
ENDBRANCH 12 14
ENDBRANCH 5 10
ENDBRANCH 1 5
BRANCH 3 24
ATOM     24  CA  ASP D 180      72.689 -23.893  80.488  1.00 47.37 LIG 0.19  C 
BRANCH 24 25
ATOM     25  C   ASP D 180      71.945 -22.585  80.749  1.00 52.09 LIG 0.24  C 
ATOM     26 O    ASP D 180      71.804 -21.755  79.848  1.00 46.90 LIG-0.27  OA
ATOM     27  N   ASP D 181      71.479 -22.389  81.978  1.00 56.67 LIG-0.35  N 
ATOM     28 H    ASP D 181      71.571 -22.945  82.627  1.00 56.67 LIG 0.16  HD
BRANCH 27 29
ATOM     29  CA  ASP D 181      70.757 -21.169  82.315  1.00 54.32 LIG 0.17  C 
BRANCH 29 30
ATOM     30  CB  ASP D 181      69.374 -21.175  81.666  1.00 57.98 LIG 0.15  C 
BRANCH 30 31
ATOM     31  CG  ASP D 181      69.135 -19.960  80.798  1.00 59.80 LIG 0.17  C 
ATOM     32 OD2  ASP D 181      68.136 -19.950  80.048  1.00 65.59 LIG-0.65  OA
ATOM     33 OD1  ASP D 181      69.949 -19.014  80.863  1.00 62.88 LIG-0.65  OA
ENDBRANCH 30 31
ENDBRANCH 29 30
BRANCH 29 34
ATOM     34  C   ASP D 181      70.632 -20.992  83.824  1.00 55.94 LIG 0.22  C 
ATOM     35 O    ASP D 181      70.825 -19.891  84.347  1.00 49.69 LIG-0.29  OA
ENDBRANCH 29 34
ENDBRANCH 27 29
ENDBRANCH 24 25
BRANCH 24 36
ATOM     36  CB  ASP D 180      74.196 -23.632  80.501  1.00 41.39 LIG 0.15  C 
BRANCH 36 37
ATOM     37  CG  ASP D 180      75.011 -24.868  80.177  1.00 35.24 LIG 0.17  C 
ATOM     38 OD1  ASP D 180      75.199 -25.171  78.978  1.00 51.10 LIG-0.65  OA
ATOM     39 OD2  ASP D 180      75.487 -25.523  81.128  1.00 19.64 LIG-0.65  OA
ENDBRANCH 36 37
ENDBRANCH 24 36
ENDBRANCH 3 24
TORSDOF 16
ENDMDL
MODEL 37
USER: ADFR SOLUTION from run 186
USER: SCORE 11.525103 LL:  -1.472 LR: -10.713 RR:   0.000 FEB:  -5.940
USER: RMSD 8.836357
USER: SEED 185
USER: STATUS no improvement in best in 13 clusters for 5 generations
USER: GENES 18
USER: genes 0 Translation |==|  0.70240 0.40641 0.41602
USER: genes 1 Rotation |==|  0.23418 0.77531 0.20243 0.62247
USER: genes 2 Torsion [N]-C--CA-[N] |==|  0.03333
USER: genes 3 Torsion [C]-CA--CB-[CG] |==|  0.24522
USER: genes 4 Torsion [CA]-CB--CG-[OD1] |==|  0.56385
USER: genes 5 Torsion [C]-CA--N-[C] |==|  0.75070
USER: genes 6 Torsion [N]-C--CA-[N] |==|  0.47060
USER: genes 7 Torsion [C]-CA--N-[C] |==|  0.73141
USER: genes 8 Torsion [N]-C--CA-[N] |==|  0.61849
USER: genes 9 Torsion [C]-CA--CB-[CG1] |==|  0.27461
USER: genes 10 Torsion [C]-N--CA-[CB] |==|  0.77377
USER: genes 11 Torsion [N]-CA--C-[N] |==|  0.15162
USER: genes 12 Torsion [C]-N--CA-[CB] |==|  0.31675
USER: genes 13 Torsion [N]-CA--CB-[CG] |==|  0.62482
USER: genes 14 Torsion [CA]-CB--CG-[OD2] |==|  0.50171
USER: genes 15 Torsion [N]-CA--C-[O] |==|  0.80919
USER: genes 16 Torsion [N]-CA--CB-[CG] |==|  0.79714
USER: genes 17 Torsion [CA]-CB--CG-[OD1] |==|  0.36280
ROOT
ATOM      1  C   ASP D 179      76.146 -27.262  77.537  1.00 41.71 LIG 0.24  C 
ATOM      2 O    ASP D 179      77.188 -27.001  78.138  1.00 47.20 LIG-0.27  OA
ATOM      3  N   ASP D 180      76.101 -27.980  76.415  1.00 48.22 LIG-0.34  N 
ATOM      4 H    ASP D 180      75.364 -28.221  76.044  1.00 48.22 LIG 0.16  HD
ENDROOT
BRANCH 1 5
ATOM      5  CA  ASP D 179      74.787 -26.781  78.049  1.00 44.60 LIG 0.19  C 
BRANCH 5 6
ATOM      6  CB  ASP D 179      74.678 -26.917  79.572  1.00 48.27 LIG 0.15  C 
BRANCH 6 7
ATOM      7  CG  ASP D 179      75.195 -25.681  80.300  1.00 46.68 LIG 0.17  C 
ATOM      8 OD1  ASP D 179      75.574 -25.795  81.488  1.00 58.91 LIG-0.65  OA
ATOM      9 OD2  ASP D 179      75.247 -24.595  79.687  1.00 62.78 LIG-0.65  OA
ENDBRANCH 6 7
ENDBRANCH 5 6
BRANCH 5 10
ATOM     10  N   ASP D 179      73.715 -27.474  77.322  1.00 43.40 LIG-0.34  N 
ATOM     11 H    ASP D 179      73.482 -28.202  77.716  1.00 43.40 LIG 0.16  HD
ATOM     12  C   VAL D 178      73.130 -27.084  76.193  1.00 52.66 LIG 0.24  C 
ATOM     13 O    VAL D 178      73.598 -26.251  75.409  1.00 53.52 LIG-0.27  OA
BRANCH 12 14
ATOM     14  CA  VAL D 178      71.784 -27.766  75.918  1.00 43.72 LIG 0.18  C 
BRANCH 14 15
ATOM     15  N   VAL D 178      71.087 -27.129  74.818  1.00 54.34 LIG-0.35  N 
ATOM     16  C   GLY D 177      70.148 -26.207  75.005  1.00 48.99 LIG 0.25  C 
ATOM     17 O    GLY D 177      69.576 -25.662  74.072  1.00 61.87 LIG-0.27  OA
ATOM     18 H    VAL D 178      71.337 -27.401  74.041  1.00 54.34 LIG 0.16  HD
BRANCH 16 19
ATOM     19  CA  GLY D 177      69.808 -25.827  76.436  1.00 38.66 LIG 0.47  C 
ATOM     20  N   GLY D 177      68.374 -25.699  76.635  1.00 37.02 LIG 0.61  N 
ENDBRANCH 16 19
ENDBRANCH 14 15
BRANCH 14 21
ATOM     21  CB  VAL D 178      71.969 -29.275  75.645  1.00 39.80 LIG 0.01  C 
ATOM     22  CG2 VAL D 178      71.056 -29.734  74.529  1.00 46.96 LIG 0.01  C 
ATOM     23  CG1 VAL D 178      71.664 -30.066  76.918  1.00 37.07 LIG 0.01  C 
ENDBRANCH 14 21
ENDBRANCH 12 14
ENDBRANCH 5 10
ENDBRANCH 1 5
BRANCH 3 24
ATOM     24  CA  ASP D 180      77.292 -28.432  75.699  1.00 47.37 LIG 0.19  C 
BRANCH 24 25
ATOM     25  C   ASP D 180      78.347 -28.864  76.715  1.00 52.09 LIG 0.24  C 
ATOM     26 O    ASP D 180      79.483 -28.384  76.678  1.00 46.90 LIG-0.27  OA
ATOM     27  N   ASP D 181      77.986 -29.774  77.613  1.00 56.67 LIG-0.35  N 
ATOM     28 H    ASP D 181      77.205 -30.132  77.655  1.00 56.67 LIG 0.16  HD
BRANCH 27 29
ATOM     29  CA  ASP D 181      78.929 -30.243  78.620  1.00 54.32 LIG 0.17  C 
BRANCH 29 30
ATOM     30  CB  ASP D 181      78.474 -29.816  80.013  1.00 57.98 LIG 0.15  C 
BRANCH 30 31
ATOM     31  CG  ASP D 181      79.605 -29.257  80.847  1.00 59.80 LIG 0.17  C 
ATOM     32 OD2  ASP D 181      79.357 -28.883  82.014  1.00 65.59 LIG-0.65  OA
ATOM     33 OD1  ASP D 181      80.742 -29.189  80.336  1.00 62.88 LIG-0.65  OA
ENDBRANCH 30 31
ENDBRANCH 29 30
BRANCH 29 34
ATOM     34  C   ASP D 181      79.105 -31.756  78.561  1.00 55.94 LIG 0.22  C 
ATOM     35 O    ASP D 181      78.184 -32.510  78.888  1.00 49.69 LIG-0.29  OA
ENDBRANCH 29 34
ENDBRANCH 27 29
ENDBRANCH 24 25
BRANCH 24 36
ATOM     36  CB  ASP D 180      77.863 -27.324  74.812  1.00 41.39 LIG 0.15  C 
BRANCH 36 37
ATOM     37  CG  ASP D 180      77.020 -27.061  73.581  1.00 35.24 LIG 0.17  C 
ATOM     38 OD1  ASP D 180      76.699 -25.883  73.307  1.00 51.10 LIG-0.65  OA
ATOM     39 OD2  ASP D 180      76.698 -28.037  72.870  1.00 19.64 LIG-0.65  OA
ENDBRANCH 36 37
ENDBRANCH 24 36
ENDBRANCH 3 24
TORSDOF 16
ENDMDL
MODEL 38
USER: ADFR SOLUTION from run 91
USER: SCORE 10.983193 LL:  -1.547 LR: -10.699 RR:   0.000 FEB:  -5.926
USER: RMSD 3.897150
USER: SEED 90
USER: STATUS no improvement in best in 13 clusters for 5 generations
USER: GENES 18
USER: genes 0 Translation |==|  0.58087 0.45712 0.42052
USER: genes 1 Rotation |==|  0.52104 0.60302 0.96853 0.63937
USER: genes 2 Torsion [N]-C--CA-[N] |==|  0.67661
USER: genes 3 Torsion [C]-CA--CB-[CG] |==|  0.25764
USER: genes 4 Torsion [CA]-CB--CG-[OD1] |==|  0.75467
USER: genes 5 Torsion [C]-CA--N-[C] |==|  0.12780
USER: genes 6 Torsion [N]-C--CA-[N] |==|  0.99797
USER: genes 7 Torsion [C]-CA--N-[C] |==|  0.66004
USER: genes 8 Torsion [N]-C--CA-[N] |==|  0.44463
USER: genes 9 Torsion [C]-CA--CB-[CG1] |==|  0.60265
USER: genes 10 Torsion [C]-N--CA-[CB] |==|  0.88324
USER: genes 11 Torsion [N]-CA--C-[N] |==|  0.89061
USER: genes 12 Torsion [C]-N--CA-[CB] |==|  0.79304
USER: genes 13 Torsion [N]-CA--CB-[CG] |==|  0.49515
USER: genes 14 Torsion [CA]-CB--CG-[OD2] |==|  0.59580
USER: genes 15 Torsion [N]-CA--C-[O] |==|  0.22879
USER: genes 16 Torsion [N]-CA--CB-[CG] |==|  0.31519
USER: genes 17 Torsion [CA]-CB--CG-[OD1] |==|  0.28746
ROOT
ATOM      1  C   ASP D 179      73.776 -26.311  77.612  1.00 41.71 LIG 0.24  C 
ATOM      2 O    ASP D 179      74.672 -25.523  77.913  1.00 47.20 LIG-0.27  OA
ATOM      3  N   ASP D 180      73.037 -26.965  78.507  1.00 48.22 LIG-0.34  N 
ATOM      4 H    ASP D 180      72.365 -27.455  78.290  1.00 48.22 LIG 0.16  HD
ENDROOT
BRANCH 1 5
ATOM      5  CA  ASP D 179      73.425 -26.600  76.151  1.00 44.60 LIG 0.19  C 
BRANCH 5 6
ATOM      6  CB  ASP D 179      72.124 -27.402  76.032  1.00 48.27 LIG 0.15  C 
BRANCH 6 7
ATOM      7  CG  ASP D 179      70.905 -26.502  75.859  1.00 46.68 LIG 0.17  C 
ATOM      8 OD1  ASP D 179      70.317 -26.080  76.880  1.00 58.91 LIG-0.65  OA
ATOM      9 OD2  ASP D 179      70.539 -26.194  74.706  1.00 62.78 LIG-0.65  OA
ENDBRANCH 6 7
ENDBRANCH 5 6
BRANCH 5 10
ATOM     10  N   ASP D 179      74.568 -27.240  75.488  1.00 43.40 LIG-0.34  N 
ATOM     11 H    ASP D 179      74.730 -26.888  74.720  1.00 43.40 LIG 0.16  HD
ATOM     12  C   VAL D 178      75.308 -28.242  75.955  1.00 52.66 LIG 0.24  C 
ATOM     13 O    VAL D 178      74.970 -29.001  76.870  1.00 53.52 LIG-0.27  OA
BRANCH 12 14
ATOM     14  CA  VAL D 178      76.662 -28.399  75.253  1.00 43.72 LIG 0.18  C 
BRANCH 14 15
ATOM     15  N   VAL D 178      76.828 -27.411  74.204  1.00 54.34 LIG-0.35  N 
ATOM     16  C   GLY D 177      77.059 -27.743  72.939  1.00 48.99 LIG 0.25  C 
ATOM     17 O    GLY D 177      77.182 -26.904  72.058  1.00 61.87 LIG-0.27  OA
ATOM     18 H    VAL D 178      76.763 -26.597  74.477  1.00 54.34 LIG 0.16  HD
BRANCH 16 19
ATOM     19  CA  GLY D 177      77.152 -29.222  72.602  1.00 38.66 LIG 0.47  C 
ATOM     20  N   GLY D 177      76.941 -29.469  71.186  1.00 37.02 LIG 0.61  N 
ENDBRANCH 16 19
ENDBRANCH 14 15
BRANCH 14 21
ATOM     21  CB  VAL D 178      77.827 -28.323  76.263  1.00 39.80 LIG 0.01  C 
ATOM     22  CG2 VAL D 178      77.398 -27.604  77.523  1.00 46.96 LIG 0.01  C 
ATOM     23  CG1 VAL D 178      79.009 -27.588  75.627  1.00 37.07 LIG 0.01  C 
ENDBRANCH 14 21
ENDBRANCH 12 14
ENDBRANCH 5 10
ENDBRANCH 1 5
BRANCH 3 24
ATOM     24  CA  ASP D 180      73.287 -26.921  79.946  1.00 47.37 LIG 0.19  C 
BRANCH 24 25
ATOM     25  C   ASP D 180      72.735 -25.611  80.505  1.00 52.09 LIG 0.24  C 
ATOM     26 O    ASP D 180      72.154 -25.592  81.593  1.00 46.90 LIG-0.27  OA
ATOM     27  N   ASP D 181      72.899 -24.521  79.764  1.00 56.67 LIG-0.35  N 
ATOM     28 H    ASP D 181      73.291 -24.507  78.999  1.00 56.67 LIG 0.16  HD
BRANCH 27 29
ATOM     29  CA  ASP D 181      72.404 -23.229  80.221  1.00 54.32 LIG 0.17  C 
BRANCH 29 30
ATOM     30  CB  ASP D 181      70.884 -23.163  80.083  1.00 57.98 LIG 0.15  C 
BRANCH 30 31
ATOM     31  CG  ASP D 181      70.313 -21.855  80.584  1.00 59.80 LIG 0.17  C 
ATOM     32 OD2  ASP D 181      69.192 -21.867  81.137  1.00 65.59 LIG-0.65  OA
ATOM     33 OD1  ASP D 181      70.983 -20.813  80.423  1.00 62.88 LIG-0.65  OA
ENDBRANCH 30 31
ENDBRANCH 29 30
BRANCH 29 34
ATOM     34  C   ASP D 181      72.817 -22.949  81.662  1.00 55.94 LIG 0.22  C 
ATOM     35 O    ASP D 181      73.937 -22.498  81.920  1.00 49.69 LIG-0.29  OA
ENDBRANCH 29 34
ENDBRANCH 27 29
ENDBRANCH 24 25
BRANCH 24 36
ATOM     36  CB  ASP D 180      74.782 -27.017  80.255  1.00 41.39 LIG 0.15  C 
BRANCH 36 37
ATOM     37  CG  ASP D 180      75.340 -25.746  80.863  1.00 35.24 LIG 0.17  C 
ATOM     38 OD1  ASP D 180      75.570 -25.713  82.092  1.00 51.10 LIG-0.65  OA
ATOM     39 OD2  ASP D 180      75.574 -24.784  80.101  1.00 19.64 LIG-0.65  OA
ENDBRANCH 36 37
ENDBRANCH 24 36
ENDBRANCH 3 24
TORSDOF 16
ENDMDL
MODEL 39
USER: ADFR SOLUTION from run 19
USER: SCORE 12.150091 LL:  -2.783 LR: -10.685 RR:   0.000 FEB:  -5.912
USER: RMSD 7.030728
USER: SEED 18
USER: STATUS no improvement in best in 8 clusters for 5 generations
USER: GENES 18
USER: genes 0 Translation |==|  0.38040 0.54035 0.47652
USER: genes 1 Rotation |==|  0.40882 0.51375 0.15014 0.84510
USER: genes 2 Torsion [N]-C--CA-[N] |==|  0.63359
USER: genes 3 Torsion [C]-CA--CB-[CG] |==|  0.58509
USER: genes 4 Torsion [CA]-CB--CG-[OD1] |==|  0.15397
USER: genes 5 Torsion [C]-CA--N-[C] |==|  0.69772
USER: genes 6 Torsion [N]-C--CA-[N] |==|  0.39142
USER: genes 7 Torsion [C]-CA--N-[C] |==|  0.79492
USER: genes 8 Torsion [N]-C--CA-[N] |==|  0.59446
USER: genes 9 Torsion [C]-CA--CB-[CG1] |==|  0.99910
USER: genes 10 Torsion [C]-N--CA-[CB] |==|  0.53889
USER: genes 11 Torsion [N]-CA--C-[N] |==|  0.30749
USER: genes 12 Torsion [C]-N--CA-[CB] |==|  0.27305
USER: genes 13 Torsion [N]-CA--CB-[CG] |==|  0.61833
USER: genes 14 Torsion [CA]-CB--CG-[OD2] |==|  0.91635
USER: genes 15 Torsion [N]-CA--C-[O] |==|  0.16002
USER: genes 16 Torsion [N]-CA--CB-[CG] |==|  0.52206
USER: genes 17 Torsion [CA]-CB--CG-[OD1] |==|  0.52942
ROOT
ATOM      1  C   ASP D 179      69.867 -24.750  78.536  1.00 41.71 LIG 0.24  C 
ATOM      2 O    ASP D 179      69.188 -24.221  79.415  1.00 47.20 LIG-0.27  OA
ATOM      3  N   ASP D 180      71.181 -24.944  78.634  1.00 48.22 LIG-0.34  N 
ATOM      4 H    ASP D 180      71.635 -25.382  78.049  1.00 48.22 LIG 0.16  HD
ENDROOT
BRANCH 1 5
ATOM      5  CA  ASP D 179      69.237 -25.249  77.234  1.00 44.60 LIG 0.19  C 
BRANCH 5 6
ATOM      6  CB  ASP D 179      70.299 -25.755  76.252  1.00 48.27 LIG 0.15  C 
BRANCH 6 7
ATOM      7  CG  ASP D 179      69.884 -25.553  74.798  1.00 46.68 LIG 0.17  C 
ATOM      8 OD1  ASP D 179      69.574 -24.402  74.414  1.00 58.91 LIG-0.65  OA
ATOM      9 OD2  ASP D 179      69.884 -26.534  74.026  1.00 62.78 LIG-0.65  OA
ENDBRANCH 6 7
ENDBRANCH 5 6
BRANCH 5 10
ATOM     10  N   ASP D 179      68.374 -24.202  76.672  1.00 43.40 LIG-0.34  N 
ATOM     11 H    ASP D 179      68.832 -23.545  76.359  1.00 43.40 LIG 0.16  HD
ATOM     12  C   VAL D 178      67.045 -24.201  76.620  1.00 52.66 LIG 0.24  C 
ATOM     13 O    VAL D 178      66.312 -24.922  77.307  1.00 53.52 LIG-0.27  OA
BRANCH 12 14
ATOM     14  CA  VAL D 178      66.460 -23.204  75.612  1.00 43.72 LIG 0.18  C 
BRANCH 14 15
ATOM     15  N   VAL D 178      65.313 -23.765  74.924  1.00 54.34 LIG-0.35  N 
ATOM     16  C   GLY D 177      65.431 -24.697  73.984  1.00 48.99 LIG 0.25  C 
ATOM     17 O    GLY D 177      64.458 -25.177  73.418  1.00 61.87 LIG-0.27  OA
ATOM     18 H    VAL D 178      64.558 -23.441  75.179  1.00 54.34 LIG 0.16  HD
BRANCH 16 19
ATOM     19  CA  GLY D 177      66.829 -25.174  73.632  1.00 38.66 LIG 0.47  C 
ATOM     20  N   GLY D 177      66.949 -25.508  72.223  1.00 37.02 LIG 0.61  N 
ENDBRANCH 16 19
ENDBRANCH 14 15
BRANCH 14 21
ATOM     21  CB  VAL D 178      66.086 -21.872  76.298  1.00 39.80 LIG 0.01  C 
ATOM     22  CG2 VAL D 178      66.844 -20.719  75.677  1.00 46.96 LIG 0.01  C 
ATOM     23  CG1 VAL D 178      66.409 -21.957  77.791  1.00 37.07 LIG 0.01  C 
ENDBRANCH 14 21
ENDBRANCH 12 14
ENDBRANCH 5 10
ENDBRANCH 1 5
BRANCH 3 24
ATOM     24  CA  ASP D 180      71.991 -24.438  79.740  1.00 47.37 LIG 0.19  C 
BRANCH 24 25
ATOM     25  C   ASP D 180      71.602 -22.987  80.015  1.00 52.09 LIG 0.24  C 
ATOM     26 O    ASP D 180      71.892 -22.100  79.209  1.00 46.90 LIG-0.27  OA
ATOM     27  N   ASP D 181      70.962 -22.737  81.151  1.00 56.67 LIG-0.35  N 
ATOM     28 H    ASP D 181      70.756 -23.334  81.735  1.00 56.67 LIG 0.16  HD
BRANCH 27 29
ATOM     29  CA  ASP D 181      70.552 -21.381  81.494  1.00 54.32 LIG 0.17  C 
BRANCH 29 30
ATOM     30  CB  ASP D 181      69.081 -21.166  81.142  1.00 57.98 LIG 0.15  C 
BRANCH 30 31
ATOM     31  CG  ASP D 181      68.831 -19.824  80.490  1.00 59.80 LIG 0.17  C 
ATOM     32 OD2  ASP D 181      69.573 -18.866  80.796  1.00 65.59 LIG-0.65  OA
ATOM     33 OD1  ASP D 181      67.892 -19.727  79.672  1.00 62.88 LIG-0.65  OA
ENDBRANCH 30 31
ENDBRANCH 29 30
BRANCH 29 34
ATOM     34  C   ASP D 181      70.793 -21.079  82.968  1.00 55.94 LIG 0.22  C 
ATOM     35 O    ASP D 181      71.922 -21.181  83.456  1.00 49.69 LIG-0.29  OA
ENDBRANCH 29 34
ENDBRANCH 27 29
ENDBRANCH 24 25
BRANCH 24 36
ATOM     36  CB  ASP D 180      73.485 -24.512  79.416  1.00 41.39 LIG 0.15  C 
BRANCH 36 37
ATOM     37  CG  ASP D 180      74.363 -24.178  80.605  1.00 35.24 LIG 0.17  C 
ATOM     38 OD1  ASP D 180      75.588 -24.007  80.423  1.00 51.10 LIG-0.65  OA
ATOM     39 OD2  ASP D 180      73.818 -24.061  81.723  1.00 19.64 LIG-0.65  OA
ENDBRANCH 36 37
ENDBRANCH 24 36
ENDBRANCH 3 24
TORSDOF 16
ENDMDL
MODEL 40
USER: ADFR SOLUTION from run 115
USER: SCORE 10.749031 LL:  -1.731 LR: -10.686 RR:   0.000 FEB:  -5.913
USER: RMSD 5.478582
USER: SEED 114
USER: STATUS no improvement in best in 27 clusters for 5 generations
USER: GENES 18
USER: genes 0 Translation |==|  0.48019 0.63688 0.61767
USER: genes 1 Rotation |==|  0.68080 0.19841 0.15274 0.57592
USER: genes 2 Torsion [N]-C--CA-[N] |==|  0.34044
USER: genes 3 Torsion [C]-CA--CB-[CG] |==|  0.50876
USER: genes 4 Torsion [CA]-CB--CG-[OD1] |==|  0.24150
USER: genes 5 Torsion [C]-CA--N-[C] |==|  0.77303
USER: genes 6 Torsion [N]-C--CA-[N] |==|  0.76037
USER: genes 7 Torsion [C]-CA--N-[C] |==|  0.63601
USER: genes 8 Torsion [N]-C--CA-[N] |==|  0.70384
USER: genes 9 Torsion [C]-CA--CB-[CG1] |==|  0.23349
USER: genes 10 Torsion [C]-N--CA-[CB] |==|  0.78274
USER: genes 11 Torsion [N]-CA--C-[N] |==|  0.58332
USER: genes 12 Torsion [C]-N--CA-[CB] |==|  0.25202
USER: genes 13 Torsion [N]-CA--CB-[CG] |==|  0.66712
USER: genes 14 Torsion [CA]-CB--CG-[OD2] |==|  0.92080
USER: genes 15 Torsion [N]-CA--C-[O] |==|  0.19151
USER: genes 16 Torsion [N]-CA--CB-[CG] |==|  0.57598
USER: genes 17 Torsion [CA]-CB--CG-[OD1] |==|  0.23304
ROOT
ATOM      1  C   ASP D 179      71.813 -22.940  80.865  1.00 41.71 LIG 0.24  C 
ATOM      2 O    ASP D 179      71.753 -21.977  80.101  1.00 47.20 LIG-0.27  OA
ATOM      3  N   ASP D 180      71.072 -23.056  81.966  1.00 48.22 LIG-0.34  N 
ATOM      4 H    ASP D 180      71.064 -23.765  82.453  1.00 48.22 LIG 0.16  HD
ENDROOT
BRANCH 1 5
ATOM      5  CA  ASP D 179      72.756 -24.114  80.597  1.00 44.60 LIG 0.19  C 
BRANCH 5 6
ATOM      6  CB  ASP D 179      74.223 -23.711  80.778  1.00 48.27 LIG 0.15  C 
BRANCH 6 7
ATOM      7  CG  ASP D 179      75.180 -24.850  80.440  1.00 46.68 LIG 0.17  C 
ATOM      8 OD1  ASP D 179      75.549 -24.995  79.253  1.00 58.91 LIG-0.65  OA
ATOM      9 OD2  ASP D 179      75.587 -25.592  81.358  1.00 62.78 LIG-0.65  OA
ENDBRANCH 6 7
ENDBRANCH 5 6
BRANCH 5 10
ATOM     10  N   ASP D 179      72.467 -24.685  79.275  1.00 43.40 LIG-0.34  N 
ATOM     11 H    ASP D 179      73.009 -24.393  78.675  1.00 43.40 LIG 0.16  HD
ATOM     12  C   VAL D 178      71.504 -25.551  78.968  1.00 52.66 LIG 0.24  C 
ATOM     13 O    VAL D 178      70.510 -25.775  79.667  1.00 53.52 LIG-0.27  OA
BRANCH 12 14
ATOM     14  CA  VAL D 178      71.719 -26.279  77.636  1.00 43.72 LIG 0.18  C 
BRANCH 14 15
ATOM     15  N   VAL D 178      71.194 -25.507  76.525  1.00 54.34 LIG-0.35  N 
ATOM     16  C   GLY D 177      70.401 -26.036  75.600  1.00 48.99 LIG 0.25  C 
ATOM     17 O    GLY D 177      69.950 -25.375  74.675  1.00 61.87 LIG-0.27  OA
ATOM     18 H    VAL D 178      71.443 -24.684  76.523  1.00 54.34 LIG 0.16  HD
BRANCH 16 19
ATOM     19  CA  GLY D 177      70.047 -27.508  75.729  1.00 38.66 LIG 0.47  C 
ATOM     20  N   GLY D 177      70.743 -28.321  74.746  1.00 37.02 LIG 0.61  N 
ENDBRANCH 16 19
ENDBRANCH 14 15
BRANCH 14 21
ATOM     21  CB  VAL D 178      73.211 -26.608  77.414  1.00 39.80 LIG 0.01  C 
ATOM     22  CG2 VAL D 178      73.517 -26.740  75.938  1.00 46.96 LIG 0.01  C 
ATOM     23  CG1 VAL D 178      73.559 -27.914  78.131  1.00 37.07 LIG 0.01  C 
ENDBRANCH 14 21
ENDBRANCH 12 14
ENDBRANCH 5 10
ENDBRANCH 1 5
BRANCH 3 24
ATOM     24  CA  ASP D 180      70.197 -21.997  82.465  1.00 47.37 LIG 0.19  C 
BRANCH 24 25
ATOM     25  C   ASP D 180      69.451 -21.375  81.286  1.00 52.09 LIG 0.24  C 
ATOM     26 O    ASP D 180      69.194 -22.048  80.285  1.00 46.90 LIG-0.27  OA
ATOM     27  N   ASP D 181      69.114 -20.095  81.389  1.00 56.67 LIG-0.35  N 
ATOM     28 H    ASP D 181      69.289 -19.600  82.071  1.00 56.67 LIG 0.16  HD
BRANCH 27 29
ATOM     29  CA  ASP D 181      68.400 -19.422  80.312  1.00 54.32 LIG 0.17  C 
BRANCH 29 30
ATOM     30  CB  ASP D 181      66.892 -19.537  80.522  1.00 57.98 LIG 0.15  C 
BRANCH 30 31
ATOM     31  CG  ASP D 181      66.201 -20.250  79.381  1.00 59.80 LIG 0.17  C 
ATOM     32 OD2  ASP D 181      66.708 -20.182  78.241  1.00 65.59 LIG-0.65  OA
ATOM     33 OD1  ASP D 181      65.148 -20.878  79.622  1.00 62.88 LIG-0.65  OA
ENDBRANCH 30 31
ENDBRANCH 29 30
BRANCH 29 34
ATOM     34  C   ASP D 181      68.808 -17.957  80.200  1.00 55.94 LIG 0.22  C 
ATOM     35 O    ASP D 181      69.937 -17.646  79.813  1.00 49.69 LIG-0.29  OA
ENDBRANCH 29 34
ENDBRANCH 27 29
ENDBRANCH 24 25
BRANCH 24 36
ATOM     36  CB  ASP D 180      70.993 -20.912  83.192  1.00 41.39 LIG 0.15  C 
BRANCH 36 37
ATOM     37  CG  ASP D 180      70.179 -20.192  84.249  1.00 35.24 LIG 0.17  C 
ATOM     38 OD1  ASP D 180      70.079 -20.701  85.386  1.00 51.10 LIG-0.65  OA
ATOM     39 OD2  ASP D 180      69.659 -19.098  83.943  1.00 19.64 LIG-0.65  OA
ENDBRANCH 36 37
ENDBRANCH 24 36
ENDBRANCH 3 24
TORSDOF 16
ENDMDL
MODEL 41
USER: ADFR SOLUTION from run 173
USER: SCORE 11.630488 LL:  -1.802 LR: -10.693 RR:   0.000 FEB:  -5.920
USER: RMSD 6.218005
USER: SEED 172
USER: STATUS no improvement in best in 19 clusters for 5 generations
USER: GENES 18
USER: genes 0 Translation |==|  0.61703 0.36609 0.45573
USER: genes 1 Rotation |==|  0.24883 0.31632 0.65700 0.85851
USER: genes 2 Torsion [N]-C--CA-[N] |==|  0.01377
USER: genes 3 Torsion [C]-CA--CB-[CG] |==|  0.49945
USER: genes 4 Torsion [CA]-CB--CG-[OD1] |==|  0.66691
USER: genes 5 Torsion [C]-CA--N-[C] |==|  0.70700
USER: genes 6 Torsion [N]-C--CA-[N] |==|  0.80609
USER: genes 7 Torsion [C]-CA--N-[C] |==|  0.65044
USER: genes 8 Torsion [N]-C--CA-[N] |==|  0.26900
USER: genes 9 Torsion [C]-CA--CB-[CG1] |==|  0.25904
USER: genes 10 Torsion [C]-N--CA-[CB] |==|  0.77777
USER: genes 11 Torsion [N]-CA--C-[N] |==|  0.18599
USER: genes 12 Torsion [C]-N--CA-[CB] |==|  0.28887
USER: genes 13 Torsion [N]-CA--CB-[CG] |==|  0.13012
USER: genes 14 Torsion [CA]-CB--CG-[OD2] |==|  0.00644
USER: genes 15 Torsion [N]-CA--C-[O] |==|  0.13312
USER: genes 16 Torsion [N]-CA--CB-[CG] |==|  0.63606
USER: genes 17 Torsion [CA]-CB--CG-[OD1] |==|  0.97503
ROOT
ATOM      1  C   ASP D 179      74.481 -28.018  78.193  1.00 41.71 LIG 0.24  C 
ATOM      2 O    ASP D 179      73.758 -28.213  79.169  1.00 47.20 LIG-0.27  OA
ATOM      3  N   ASP D 180      74.139 -27.242  77.164  1.00 48.22 LIG-0.34  N 
ATOM      4 H    ASP D 180      74.679 -27.051  76.523  1.00 48.22 LIG 0.16  HD
ENDROOT
BRANCH 1 5
ATOM      5  CA  ASP D 179      75.866 -28.657  78.085  1.00 44.60 LIG 0.19  C 
BRANCH 5 6
ATOM      6  CB  ASP D 179      76.675 -28.470  79.373  1.00 48.27 LIG 0.15  C 
BRANCH 6 7
ATOM      7  CG  ASP D 179      78.059 -29.106  79.284  1.00 46.68 LIG 0.17  C 
ATOM      8 OD1  ASP D 179      78.362 -30.007  80.098  1.00 58.91 LIG-0.65  OA
ATOM      9 OD2  ASP D 179      78.842 -28.728  78.388  1.00 62.78 LIG-0.65  OA
ENDBRANCH 6 7
ENDBRANCH 5 6
BRANCH 5 10
ATOM     10  N   ASP D 179      76.550 -28.150  76.888  1.00 43.40 LIG-0.34  N 
ATOM     11 H    ASP D 179      76.827 -27.343  76.996  1.00 43.40 LIG 0.16  HD
ATOM     12  C   VAL D 178      76.753 -28.801  75.745  1.00 52.66 LIG 0.24  C 
ATOM     13 O    VAL D 178      76.135 -29.810  75.390  1.00 53.52 LIG-0.27  OA
BRANCH 12 14
ATOM     14  CA  VAL D 178      77.847 -28.187  74.862  1.00 43.72 LIG 0.18  C 
BRANCH 14 15
ATOM     15  N   VAL D 178      77.423 -26.914  74.311  1.00 54.34 LIG-0.35  N 
ATOM     16  C   GLY D 177      77.447 -26.658  73.007  1.00 48.99 LIG 0.25  C 
ATOM     17 O    GLY D 177      77.074 -25.587  72.548  1.00 61.87 LIG-0.27  OA
ATOM     18 H    VAL D 178      77.158 -26.348  74.901  1.00 54.34 LIG 0.16  HD
BRANCH 16 19
ATOM     19  CA  GLY D 177      77.944 -27.754  72.080  1.00 38.66 LIG 0.47  C 
ATOM     20  N   GLY D 177      76.848 -28.517  71.507  1.00 37.02 LIG 0.61  N 
ENDBRANCH 16 19
ENDBRANCH 14 15
BRANCH 14 21
ATOM     21  CB  VAL D 178      79.170 -28.030  75.642  1.00 39.80 LIG 0.01  C 
ATOM     22  CG2 VAL D 178      79.912 -26.790  75.195  1.00 46.96 LIG 0.01  C 
ATOM     23  CG1 VAL D 178      80.046 -29.264  75.416  1.00 37.07 LIG 0.01  C 
ENDBRANCH 14 21
ENDBRANCH 12 14
ENDBRANCH 5 10
ENDBRANCH 1 5
BRANCH 3 24
ATOM     24  CA  ASP D 180      72.818 -26.635  77.015  1.00 47.37 LIG 0.19  C 
BRANCH 24 25
ATOM     25  C   ASP D 180      72.348 -26.133  78.379  1.00 52.09 LIG 0.24  C 
ATOM     26 O    ASP D 180      71.376 -26.651  78.933  1.00 46.90 LIG-0.27  OA
ATOM     27  N   ASP D 181      73.019 -25.120  78.915  1.00 56.67 LIG-0.35  N 
ATOM     28 H    ASP D 181      73.694 -24.735  78.547  1.00 56.67 LIG 0.16  HD
BRANCH 27 29
ATOM     29  CA  ASP D 181      72.639 -24.579  80.214  1.00 54.32 LIG 0.17  C 
BRANCH 29 30
ATOM     30  CB  ASP D 181      73.614 -25.050  81.292  1.00 57.98 LIG 0.15  C 
BRANCH 30 31
ATOM     31  CG  ASP D 181      75.059 -24.900  80.872  1.00 59.80 LIG 0.17  C 
ATOM     32 OD2  ASP D 181      75.307 -24.387  79.760  1.00 65.59 LIG-0.65  OA
ATOM     33 OD1  ASP D 181      75.949 -25.295  81.654  1.00 62.88 LIG-0.65  OA
ENDBRANCH 30 31
ENDBRANCH 29 30
BRANCH 29 34
ATOM     34  C   ASP D 181      72.576 -23.056  80.187  1.00 55.94 LIG 0.22  C 
ATOM     35 O    ASP D 181      71.979 -22.466  79.283  1.00 49.69 LIG-0.29  OA
ENDBRANCH 29 34
ENDBRANCH 27 29
ENDBRANCH 24 25
BRANCH 24 36
ATOM     36  CB  ASP D 180      71.803 -27.638  76.464  1.00 41.39 LIG 0.15  C 
BRANCH 36 37
ATOM     37  CG  ASP D 180      71.005 -27.090  75.299  1.00 35.24 LIG 0.17  C 
ATOM     38 OD1  ASP D 180      71.107 -25.877  75.013  1.00 51.10 LIG-0.65  OA
ATOM     39 OD2  ASP D 180      70.292 -27.885  74.650  1.00 19.64 LIG-0.65  OA
ENDBRANCH 36 37
ENDBRANCH 24 36
ENDBRANCH 3 24
TORSDOF 16
ENDMDL
MODEL 42
USER: ADFR SOLUTION from run 9
USER: SCORE 10.910474 LL:  -2.202 LR: -10.674 RR:   0.000 FEB:  -5.901
USER: RMSD 9.594911
USER: SEED 437567
USER: STATUS no improvement in best in 7 clusters for 5 generations
USER: GENES 18
USER: genes 0 Translation |==|  0.27552 0.56466 0.41881
USER: genes 1 Rotation |==|  0.77236 0.77832 0.33159 0.76457
USER: genes 2 Torsion [N]-C--CA-[N] |==|  0.37273
USER: genes 3 Torsion [C]-CA--CB-[CG] |==|  0.44639
USER: genes 4 Torsion [CA]-CB--CG-[OD1] |==|  0.24903
USER: genes 5 Torsion [C]-CA--N-[C] |==|  0.67138
USER: genes 6 Torsion [N]-C--CA-[N] |==|  0.42149
USER: genes 7 Torsion [C]-CA--N-[C] |==|  0.75373
USER: genes 8 Torsion [N]-C--CA-[N] |==|  0.52351
USER: genes 9 Torsion [C]-CA--CB-[CG1] |==|  0.97944
USER: genes 10 Torsion [C]-N--CA-[CB] |==|  0.34373
USER: genes 11 Torsion [N]-CA--C-[N] |==|  0.81936
USER: genes 12 Torsion [C]-N--CA-[CB] |==|  0.25227
USER: genes 13 Torsion [N]-CA--CB-[CG] |==|  0.38054
USER: genes 14 Torsion [CA]-CB--CG-[OD2] |==|  0.79855
USER: genes 15 Torsion [N]-CA--C-[O] |==|  0.33697
USER: genes 16 Torsion [N]-CA--CB-[CG] |==|  0.86510
USER: genes 17 Torsion [CA]-CB--CG-[OD1] |==|  0.65788
ROOT
ATOM      1  C   ASP D 179      67.822 -24.295  77.583  1.00 41.71 LIG 0.24  C 
ATOM      2 O    ASP D 179      67.039 -25.244  77.564  1.00 47.20 LIG-0.27  OA
ATOM      3  N   ASP D 180      69.146 -24.428  77.514  1.00 48.22 LIG-0.34  N 
ATOM      4 H    ASP D 180      69.681 -23.758  77.452  1.00 48.22 LIG 0.16  HD
ENDROOT
BRANCH 1 5
ATOM      5  CA  ASP D 179      67.324 -22.852  77.680  1.00 44.60 LIG 0.19  C 
BRANCH 5 6
ATOM      6  CB  ASP D 179      66.987 -22.467  79.125  1.00 48.27 LIG 0.15  C 
BRANCH 6 7
ATOM      7  CG  ASP D 179      66.948 -20.955  79.324  1.00 46.68 LIG 0.17  C 
ATOM      8 OD1  ASP D 179      65.866 -20.351  79.147  1.00 58.91 LIG-0.65  OA
ATOM      9 OD2  ASP D 179      67.989 -20.364  79.680  1.00 62.78 LIG-0.65  OA
ENDBRANCH 6 7
ENDBRANCH 5 6
BRANCH 5 10
ATOM     10  N   ASP D 179      66.206 -22.654  76.748  1.00 43.40 LIG-0.34  N 
ATOM     11 H    ASP D 179      65.538 -23.163  76.937  1.00 43.40 LIG 0.16  HD
ATOM     12  C   VAL D 178      66.160 -21.814  75.717  1.00 52.66 LIG 0.24  C 
ATOM     13 O    VAL D 178      67.148 -21.294  75.188  1.00 53.52 LIG-0.27  OA
BRANCH 12 14
ATOM     14  CA  VAL D 178      64.742 -21.524  75.210  1.00 43.72 LIG 0.18  C 
BRANCH 14 15
ATOM     15  N   VAL D 178      64.659 -20.208  74.607  1.00 54.34 LIG-0.35  N 
ATOM     16  C   GLY D 177      64.377 -19.117  75.311  1.00 48.99 LIG 0.25  C 
ATOM     17 O    GLY D 177      64.324 -18.007  74.798  1.00 61.87 LIG-0.27  OA
ATOM     18 H    VAL D 178      64.807 -20.201  73.760  1.00 54.34 LIG 0.16  HD
BRANCH 16 19
ATOM     19  CA  GLY D 177      64.133 -19.280  76.801  1.00 38.66 LIG 0.47  C 
ATOM     20  N   GLY D 177      63.646 -18.053  77.408  1.00 37.02 LIG 0.61  N 
ENDBRANCH 16 19
ENDBRANCH 14 15
BRANCH 14 21
ATOM     21  CB  VAL D 178      64.272 -22.609  74.217  1.00 39.80 LIG 0.01  C 
ATOM     22  CG2 VAL D 178      63.120 -23.403  74.796  1.00 46.96 LIG 0.01  C 
ATOM     23  CG1 VAL D 178      65.436 -23.550  73.898  1.00 37.07 LIG 0.01  C 
ENDBRANCH 14 21
ENDBRANCH 12 14
ENDBRANCH 5 10
ENDBRANCH 1 5
BRANCH 3 24
ATOM     24  CA  ASP D 180      69.829 -25.720  77.535  1.00 47.37 LIG 0.19  C 
BRANCH 24 25
ATOM     25  C   ASP D 180      70.683 -25.807  78.798  1.00 52.09 LIG 0.24  C 
ATOM     26 O    ASP D 180      70.417 -26.632  79.676  1.00 46.90 LIG-0.27  OA
ATOM     27  N   ASP D 181      71.698 -24.957  78.903  1.00 56.67 LIG-0.35  N 
ATOM     28 H    ASP D 181      71.900 -24.367  78.312  1.00 56.67 LIG 0.16  HD
BRANCH 27 29
ATOM     29  CA  ASP D 181      72.565 -24.972  80.074  1.00 54.32 LIG 0.17  C 
BRANCH 29 30
ATOM     30  CB  ASP D 181      73.751 -25.907  79.845  1.00 57.98 LIG 0.15  C 
BRANCH 30 31
ATOM     31  CG  ASP D 181      75.056 -25.316  80.329  1.00 59.80 LIG 0.17  C 
ATOM     32 OD2  ASP D 181      75.567 -24.382  79.673  1.00 65.59 LIG-0.65  OA
ATOM     33 OD1  ASP D 181      75.574 -25.785  81.364  1.00 62.88 LIG-0.65  OA
ENDBRANCH 30 31
ENDBRANCH 29 30
BRANCH 29 34
ATOM     34  C   ASP D 181      73.055 -23.572  80.425  1.00 55.94 LIG 0.22  C 
ATOM     35 O    ASP D 181      72.819 -23.080  81.532  1.00 49.69 LIG-0.29  OA
ENDBRANCH 29 34
ENDBRANCH 27 29
ENDBRANCH 24 25
BRANCH 24 36
ATOM     36  CB  ASP D 180      70.720 -25.898  76.305  1.00 41.39 LIG 0.15  C 
BRANCH 36 37
ATOM     37  CG  ASP D 180      70.010 -25.565  75.008  1.00 35.24 LIG 0.17  C 
ATOM     38 OD1  ASP D 180      69.948 -26.433  74.111  1.00 51.10 LIG-0.65  OA
ATOM     39 OD2  ASP D 180      69.489 -24.434  74.899  1.00 19.64 LIG-0.65  OA
ENDBRANCH 36 37
ENDBRANCH 24 36
ENDBRANCH 3 24
TORSDOF 16
ENDMDL
MODEL 43
USER: ADFR SOLUTION from run 176
USER: SCORE 11.484107 LL:  -2.694 LR: -10.631 RR:   0.000 FEB:  -5.858
USER: RMSD 8.159791
USER: SEED 175
USER: STATUS no improvement in best in 4 clusters for 5 generations
USER: GENES 18
USER: genes 0 Translation |==|  0.44687 0.65593 0.58793
USER: genes 1 Rotation |==|  0.94065 0.44147 0.72641 0.53384
USER: genes 2 Torsion [N]-C--CA-[N] |==|  0.27612
USER: genes 3 Torsion [C]-CA--CB-[CG] |==|  0.71032
USER: genes 4 Torsion [CA]-CB--CG-[OD1] |==|  0.82977
USER: genes 5 Torsion [C]-CA--N-[C] |==|  0.74941
USER: genes 6 Torsion [N]-C--CA-[N] |==|  0.86291
USER: genes 7 Torsion [C]-CA--N-[C] |==|  0.78929
USER: genes 8 Torsion [N]-C--CA-[N] |==|  0.35575
USER: genes 9 Torsion [C]-CA--CB-[CG1] |==|  0.69178
USER: genes 10 Torsion [C]-N--CA-[CB] |==|  0.31013
USER: genes 11 Torsion [N]-CA--C-[N] |==|  0.36718
USER: genes 12 Torsion [C]-N--CA-[CB] |==|  0.28125
USER: genes 13 Torsion [N]-CA--CB-[CG] |==|  0.25726
USER: genes 14 Torsion [CA]-CB--CG-[OD2] |==|  0.70470
USER: genes 15 Torsion [N]-CA--C-[O] |==|  0.18390
USER: genes 16 Torsion [N]-CA--CB-[CG] |==|  0.79970
USER: genes 17 Torsion [CA]-CB--CG-[OD1] |==|  0.14969
ROOT
ATOM      1  C   ASP D 179      71.163 -22.583  80.374  1.00 41.71 LIG 0.24  C 
ATOM      2 O    ASP D 179      71.795 -21.805  79.659  1.00 47.20 LIG-0.27  OA
ATOM      3  N   ASP D 180      71.306 -23.907  80.329  1.00 48.22 LIG-0.34  N 
ATOM      4 H    ASP D 180      70.917 -24.439  80.883  1.00 48.22 LIG 0.16  HD
ENDROOT
BRANCH 1 5
ATOM      5  CA  ASP D 179      70.148 -22.079  81.401  1.00 44.60 LIG 0.19  C 
BRANCH 5 6
ATOM      6  CB  ASP D 179      69.223 -21.013  80.803  1.00 48.27 LIG 0.15  C 
BRANCH 6 7
ATOM      7  CG  ASP D 179      69.585 -19.607  81.269  1.00 46.68 LIG 0.17  C 
ATOM      8 OD1  ASP D 179      69.530 -19.343  82.491  1.00 58.91 LIG-0.65  OA
ATOM      9 OD2  ASP D 179      69.949 -18.764  80.423  1.00 62.78 LIG-0.65  OA
ENDBRANCH 6 7
ENDBRANCH 5 6
BRANCH 5 10
ATOM     10  N   ASP D 179      70.853 -21.628  82.608  1.00 43.40 LIG-0.34  N 
ATOM     11 H    ASP D 179      71.065 -20.796  82.563  1.00 43.40 LIG 0.16  HD
ATOM     12  C   VAL D 178      71.161 -22.359  83.677  1.00 52.66 LIG 0.24  C 
ATOM     13 O    VAL D 178      71.186 -23.594  83.702  1.00 53.52 LIG-0.27  OA
BRANCH 12 14
ATOM     14  CA  VAL D 178      71.498 -21.532  84.923  1.00 43.72 LIG 0.18  C 
BRANCH 14 15
ATOM     15  N   VAL D 178      72.464 -20.495  84.620  1.00 54.34 LIG-0.35  N 
ATOM     16  C   GLY D 177      73.756 -20.751  84.445  1.00 48.99 LIG 0.25  C 
ATOM     17 O    GLY D 177      74.563 -19.873  84.173  1.00 61.87 LIG-0.27  OA
ATOM     18 H    VAL D 178      72.125 -19.706  84.564  1.00 54.34 LIG 0.16  HD
BRANCH 16 19
ATOM     19  CA  GLY D 177      74.215 -22.194  84.576  1.00 38.66 LIG 0.47  C 
ATOM     20  N   GLY D 177      74.989 -22.622  83.424  1.00 37.02 LIG 0.61  N 
ENDBRANCH 16 19
ENDBRANCH 14 15
BRANCH 14 21
ATOM     21  CB  VAL D 178      70.225 -20.925  85.551  1.00 39.80 LIG 0.01  C 
ATOM     22  CG2 VAL D 178      68.982 -21.510  84.915  1.00 46.96 LIG 0.01  C 
ATOM     23  CG1 VAL D 178      70.234 -19.407  85.360  1.00 37.07 LIG 0.01  C 
ENDBRANCH 14 21
ENDBRANCH 12 14
ENDBRANCH 5 10
ENDBRANCH 1 5
BRANCH 3 24
ATOM     24  CA  ASP D 180      72.133 -24.597  79.342  1.00 47.37 LIG 0.19  C 
BRANCH 24 25
ATOM     25  C   ASP D 180      71.296 -25.679  78.663  1.00 52.09 LIG 0.24  C 
ATOM     26 O    ASP D 180      70.625 -26.465  79.338  1.00 46.90 LIG-0.27  OA
ATOM     27  N   ASP D 181      71.339 -25.735  77.337  1.00 56.67 LIG-0.35  N 
ATOM     28 H    ASP D 181      71.805 -25.207  76.843  1.00 56.67 LIG 0.16  HD
BRANCH 27 29
ATOM     29  CA  ASP D 181      70.571 -26.736  76.608  1.00 54.32 LIG 0.17  C 
BRANCH 29 30
ATOM     30  CB  ASP D 181      69.303 -26.112  76.027  1.00 57.98 LIG 0.15  C 
BRANCH 30 31
ATOM     31  CG  ASP D 181      69.498 -25.611  74.613  1.00 59.80 LIG 0.17  C 
ATOM     32 OD2  ASP D 181      69.574 -24.378  74.422  1.00 65.59 LIG-0.65  OA
ATOM     33 OD1  ASP D 181      69.575 -26.450  73.691  1.00 62.88 LIG-0.65  OA
ENDBRANCH 30 31
ENDBRANCH 29 30
BRANCH 29 34
ATOM     34  C   ASP D 181      71.398 -27.379  75.501  1.00 55.94 LIG 0.22  C 
ATOM     35 O    ASP D 181      72.374 -28.084  75.772  1.00 49.69 LIG-0.29  OA
ENDBRANCH 29 34
ENDBRANCH 27 29
ENDBRANCH 24 25
BRANCH 24 36
ATOM     36  CB  ASP D 180      73.360 -25.237  79.994  1.00 41.39 LIG 0.15  C 
BRANCH 36 37
ATOM     37  CG  ASP D 180      74.397 -24.220  80.425  1.00 35.24 LIG 0.17  C 
ATOM     38 OD1  ASP D 180      74.047 -23.277  81.168  1.00 51.10 LIG-0.65  OA
ATOM     39 OD2  ASP D 180      75.574 -24.381  80.037  1.00 19.64 LIG-0.65  OA
ENDBRANCH 36 37
ENDBRANCH 24 36
ENDBRANCH 3 24
TORSDOF 16
ENDMDL
MODEL 44
USER: ADFR SOLUTION from run 84
USER: SCORE 10.155648 LL:  -1.628 LR: -10.602 RR:   0.000 FEB:  -5.829
USER: RMSD 7.395298
USER: SEED 83
USER: STATUS no improvement in best in 9 clusters for 5 generations
USER: GENES 18
USER: genes 0 Translation |==|  0.61642 0.51996 0.55977
USER: genes 1 Rotation |==|  0.10066 0.70309 0.28044 0.53273
USER: genes 2 Torsion [N]-C--CA-[N] |==|  0.44880
USER: genes 3 Torsion [C]-CA--CB-[CG] |==|  0.73636
USER: genes 4 Torsion [CA]-CB--CG-[OD1] |==|  0.80912
USER: genes 5 Torsion [C]-CA--N-[C] |==|  0.81296
USER: genes 6 Torsion [N]-C--CA-[N] |==|  0.64311
USER: genes 7 Torsion [C]-CA--N-[C] |==|  0.65619
USER: genes 8 Torsion [N]-C--CA-[N] |==|  0.40054
USER: genes 9 Torsion [C]-CA--CB-[CG1] |==|  0.26985
USER: genes 10 Torsion [C]-N--CA-[CB] |==|  0.30174
USER: genes 11 Torsion [N]-CA--C-[N] |==|  0.95556
USER: genes 12 Torsion [C]-N--CA-[CB] |==|  0.83247
USER: genes 13 Torsion [N]-CA--CB-[CG] |==|  0.66284
USER: genes 14 Torsion [CA]-CB--CG-[OD2] |==|  0.64805
USER: genes 15 Torsion [N]-CA--C-[O] |==|  0.26632
USER: genes 16 Torsion [N]-CA--CB-[CG] |==|  0.67528
USER: genes 17 Torsion [CA]-CB--CG-[OD1] |==|  0.93331
ROOT
ATOM      1  C   ASP D 179      74.469 -25.133  79.909  1.00 41.71 LIG 0.24  C 
ATOM      2 O    ASP D 179      75.476 -24.465  79.673  1.00 47.20 LIG-0.27  OA
ATOM      3  N   ASP D 180      74.134 -26.228  79.228  1.00 48.22 LIG-0.34  N 
ATOM      4 H    ASP D 180      73.472 -26.730  79.447  1.00 48.22 LIG 0.16  HD
ENDROOT
BRANCH 1 5
ATOM      5  CA  ASP D 179      73.508 -24.756  81.038  1.00 44.60 LIG 0.19  C 
BRANCH 5 6
ATOM      6  CB  ASP D 179      72.185 -24.208  80.492  1.00 48.27 LIG 0.15  C 
BRANCH 6 7
ATOM      7  CG  ASP D 179      72.178 -22.685  80.418  1.00 46.68 LIG 0.17  C 
ATOM      8 OD1  ASP D 179      72.172 -22.029  81.484  1.00 58.91 LIG-0.65  OA
ATOM      9 OD2  ASP D 179      72.200 -22.133  79.298  1.00 62.78 LIG-0.65  OA
ENDBRANCH 6 7
ENDBRANCH 5 6
BRANCH 5 10
ATOM     10  N   ASP D 179      74.179 -23.841  81.970  1.00 43.40 LIG-0.34  N 
ATOM     11 H    ASP D 179      73.832 -23.054  81.949  1.00 43.40 LIG 0.16  HD
ATOM     12  C   VAL D 178      75.200 -24.122  82.775  1.00 52.66 LIG 0.24  C 
ATOM     13 O    VAL D 178      75.948 -25.097  82.649  1.00 53.52 LIG-0.27  OA
BRANCH 12 14
ATOM     14  CA  VAL D 178      75.393 -23.114  83.914  1.00 43.72 LIG 0.18  C 
BRANCH 14 15
ATOM     15  N   VAL D 178      76.762 -22.638  83.968  1.00 54.34 LIG-0.35  N 
ATOM     16  C   GLY D 177      77.512 -22.740  85.060  1.00 48.99 LIG 0.25  C 
ATOM     17 O    GLY D 177      78.671 -22.351  85.092  1.00 61.87 LIG-0.27  OA
ATOM     18 H    VAL D 178      77.040 -22.288  83.233  1.00 54.34 LIG 0.16  HD
BRANCH 16 19
ATOM     19  CA  GLY D 177      76.888 -23.381  86.288  1.00 38.66 LIG 0.47  C 
ATOM     20  N   GLY D 177      77.852 -24.169  87.037  1.00 37.02 LIG 0.61  N 
ENDBRANCH 16 19
ENDBRANCH 14 15
BRANCH 14 21
ATOM     21  CB  VAL D 178      74.410 -21.931  83.786  1.00 39.80 LIG 0.01  C 
ATOM     22  CG2 VAL D 178      75.079 -20.632  84.178  1.00 46.96 LIG 0.01  C 
ATOM     23  CG1 VAL D 178      73.195 -22.176  84.683  1.00 37.07 LIG 0.01  C 
ENDBRANCH 14 21
ENDBRANCH 12 14
ENDBRANCH 5 10
ENDBRANCH 1 5
BRANCH 3 24
ATOM     24  CA  ASP D 180      74.850 -26.691  78.041  1.00 47.37 LIG 0.19  C 
BRANCH 24 25
ATOM     25  C   ASP D 180      73.839 -26.978  76.933  1.00 52.09 LIG 0.24  C 
ATOM     26 O    ASP D 180      74.210 -27.084  75.762  1.00 46.90 LIG-0.27  OA
ATOM     27  N   ASP D 181      72.565 -27.092  77.290  1.00 56.67 LIG-0.35  N 
ATOM     28 H    ASP D 181      72.278 -27.014  78.097  1.00 56.67 LIG 0.16  HD
BRANCH 27 29
ATOM     29  CA  ASP D 181      71.534 -27.367  76.298  1.00 54.32 LIG 0.17  C 
BRANCH 29 30
ATOM     30  CB  ASP D 181      71.494 -26.253  75.253  1.00 57.98 LIG 0.15  C 
BRANCH 30 31
ATOM     31  CG  ASP D 181      70.141 -25.581  75.175  1.00 59.80 LIG 0.17  C 
ATOM     32 OD2  ASP D 181      69.579 -25.501  74.061  1.00 65.59 LIG-0.65  OA
ATOM     33 OD1  ASP D 181      69.640 -25.129  76.226  1.00 62.88 LIG-0.65  OA
ENDBRANCH 30 31
ENDBRANCH 29 30
BRANCH 29 34
ATOM     34  C   ASP D 181      71.751 -28.717  75.625  1.00 55.94 LIG 0.22  C 
ATOM     35 O    ASP D 181      71.162 -29.723  76.027  1.00 49.69 LIG-0.29  OA
ENDBRANCH 29 34
ENDBRANCH 27 29
ENDBRANCH 24 25
BRANCH 24 36
ATOM     36  CB  ASP D 180      75.656 -27.958  78.336  1.00 41.39 LIG 0.15  C 
BRANCH 36 37
ATOM     37  CG  ASP D 180      77.149 -27.759  78.171  1.00 35.24 LIG 0.17  C 
ATOM     38 OD1  ASP D 180      77.558 -26.845  77.423  1.00 51.10 LIG-0.65  OA
ATOM     39 OD2  ASP D 180      77.915 -28.507  78.816  1.00 19.64 LIG-0.65  OA
ENDBRANCH 36 37
ENDBRANCH 24 36
ENDBRANCH 3 24
TORSDOF 16
ENDMDL
MODEL 45
USER: ADFR SOLUTION from run 49
USER: SCORE 11.517075 LL:  -2.559 LR: -10.507 RR:   0.000 FEB:  -5.735
USER: RMSD 8.611598
USER: SEED 48
USER: STATUS no improvement in best in 8 clusters for 5 generations
USER: GENES 18
USER: genes 0 Translation |==|  0.54183 0.46551 0.50106
USER: genes 1 Rotation |==|  0.53464 0.08686 0.77074 0.56941
USER: genes 2 Torsion [N]-C--CA-[N] |==|  0.14305
USER: genes 3 Torsion [C]-CA--CB-[CG] |==|  0.27862
USER: genes 4 Torsion [CA]-CB--CG-[OD1] |==|  0.53447
USER: genes 5 Torsion [C]-CA--N-[C] |==|  0.62545
USER: genes 6 Torsion [N]-C--CA-[N] |==|  0.98701
USER: genes 7 Torsion [C]-CA--N-[C] |==|  0.77714
USER: genes 8 Torsion [N]-C--CA-[N] |==|  0.48308
USER: genes 9 Torsion [C]-CA--CB-[CG1] |==|  0.39209
USER: genes 10 Torsion [C]-N--CA-[CB] |==|  0.54444
USER: genes 11 Torsion [N]-CA--C-[N] |==|  0.73376
USER: genes 12 Torsion [C]-N--CA-[CB] |==|  0.41793
USER: genes 13 Torsion [N]-CA--CB-[CG] |==|  0.27828
USER: genes 14 Torsion [CA]-CB--CG-[OD2] |==|  0.73231
USER: genes 15 Torsion [N]-CA--C-[O] |==|  0.15076
USER: genes 16 Torsion [N]-CA--CB-[CG] |==|  0.84305
USER: genes 17 Torsion [CA]-CB--CG-[OD1] |==|  0.09425
ROOT
ATOM      1  C   ASP D 179      73.015 -26.154  78.940  1.00 41.71 LIG 0.24  C 
ATOM      2 O    ASP D 179      73.470 -27.212  79.374  1.00 47.20 LIG-0.27  OA
ATOM      3  N   ASP D 180      72.395 -26.044  77.766  1.00 48.22 LIG-0.34  N 
ATOM      4 H    ASP D 180      72.014 -25.319  77.504  1.00 48.22 LIG 0.16  HD
ENDROOT
BRANCH 1 5
ATOM      5  CA  ASP D 179      73.117 -24.853  79.739  1.00 44.60 LIG 0.19  C 
BRANCH 5 6
ATOM      6  CB  ASP D 179      73.796 -25.076  81.095  1.00 48.27 LIG 0.15  C 
BRANCH 6 7
ATOM      7  CG  ASP D 179      75.263 -24.657  81.081  1.00 46.68 LIG 0.17  C 
ATOM      8 OD1  ASP D 179      75.996 -24.998  82.036  1.00 58.91 LIG-0.65  OA
ATOM      9 OD2  ASP D 179      75.698 -24.007  80.108  1.00 62.78 LIG-0.65  OA
ENDBRANCH 6 7
ENDBRANCH 5 6
BRANCH 5 10
ATOM     10  N   ASP D 179      71.789 -24.236  79.846  1.00 43.40 LIG-0.34  N 
ATOM     11 H    ASP D 179      71.184 -24.813  80.050  1.00 43.40 LIG 0.16  HD
ATOM     12  C   VAL D 178      71.483 -22.954  79.663  1.00 52.66 LIG 0.24  C 
ATOM     13 O    VAL D 178      72.198 -22.137  79.073  1.00 53.52 LIG-0.27  OA
BRANCH 12 14
ATOM     14  CA  VAL D 178      70.129 -22.544  80.255  1.00 43.72 LIG 0.18  C 
BRANCH 14 15
ATOM     15  N   VAL D 178      69.425 -23.689  80.797  1.00 54.34 LIG-0.35  N 
ATOM     16  C   GLY D 177      68.742 -24.535  80.033  1.00 48.99 LIG 0.25  C 
ATOM     17 O    GLY D 177      68.164 -25.509  80.496  1.00 61.87 LIG-0.27  OA
ATOM     18 H    VAL D 178      69.490 -23.768  81.651  1.00 54.34 LIG 0.16  HD
BRANCH 16 19
ATOM     19  CA  GLY D 177      68.711 -24.270  78.537  1.00 38.66 LIG 0.47  C 
ATOM     20  N   GLY D 177      68.054 -25.343  77.811  1.00 37.02 LIG 0.61  N 
ENDBRANCH 16 19
ENDBRANCH 14 15
BRANCH 14 21
ATOM     21  CB  VAL D 178      70.299 -21.449  81.330  1.00 39.80 LIG 0.01  C 
ATOM     22  CG2 VAL D 178      70.301 -22.055  82.716  1.00 46.96 LIG 0.01  C 
ATOM     23  CG1 VAL D 178      69.160 -20.435  81.212  1.00 37.07 LIG 0.01  C 
ENDBRANCH 14 21
ENDBRANCH 12 14
ENDBRANCH 5 10
ENDBRANCH 1 5
BRANCH 3 24
ATOM     24  CA  ASP D 180      72.295 -27.137  76.801  1.00 47.37 LIG 0.19  C 
BRANCH 24 25
ATOM     25  C   ASP D 180      73.648 -27.839  76.707  1.00 52.09 LIG 0.24  C 
ATOM     26 O    ASP D 180      73.958 -28.708  77.525  1.00 46.90 LIG-0.27  OA
ATOM     27  N   ASP D 181      74.460 -27.462  75.726  1.00 56.67 LIG-0.35  N 
ATOM     28 H    ASP D 181      74.273 -26.853  75.148  1.00 56.67 LIG 0.16  HD
BRANCH 27 29
ATOM     29  CA  ASP D 181      75.769 -28.080  75.561  1.00 54.32 LIG 0.17  C 
BRANCH 29 30
ATOM     30  CB  ASP D 181      76.182 -28.067  74.091  1.00 57.98 LIG 0.15  C 
BRANCH 30 31
ATOM     31  CG  ASP D 181      77.151 -26.950  73.770  1.00 59.80 LIG 0.17  C 
ATOM     32 OD2  ASP D 181      76.698 -25.885  73.299  1.00 65.59 LIG-0.65  OA
ATOM     33 OD1  ASP D 181      78.366 -27.137  73.988  1.00 62.88 LIG-0.65  OA
ENDBRANCH 30 31
ENDBRANCH 29 30
BRANCH 29 34
ATOM     34  C   ASP D 181      76.826 -27.386  76.413  1.00 55.94 LIG 0.22  C 
ATOM     35 O    ASP D 181      76.662 -27.243  77.628  1.00 49.69 LIG-0.29  OA
ENDBRANCH 29 34
ENDBRANCH 27 29
ENDBRANCH 24 25
BRANCH 24 36
ATOM     36  CB  ASP D 180      71.892 -26.623  75.417  1.00 41.39 LIG 0.15  C 
BRANCH 36 37
ATOM     37  CG  ASP D 180      70.591 -25.846  75.434  1.00 35.24 LIG 0.17  C 
ATOM     38 OD1  ASP D 180      70.312 -25.153  76.437  1.00 51.10 LIG-0.65  OA
ATOM     39 OD2  ASP D 180      69.856 -25.910  74.425  1.00 19.64 LIG-0.65  OA
ENDBRANCH 36 37
ENDBRANCH 24 36
ENDBRANCH 3 24
TORSDOF 16
ENDMDL
MODEL 46
USER: ADFR SOLUTION from run 40
USER: SCORE 11.474867 LL:  -2.309 LR: -10.492 RR:   0.000 FEB:  -5.719
USER: RMSD 7.666205
USER: SEED 39
USER: STATUS no improvement in best in 10 clusters for 5 generations
USER: GENES 18
USER: genes 0 Translation |==|  0.60299 0.63986 0.72746
USER: genes 1 Rotation |==|  0.36230 0.50149 0.02364 0.56417
USER: genes 2 Torsion [N]-C--CA-[N] |==|  0.95870
USER: genes 3 Torsion [C]-CA--CB-[CG] |==|  0.42984
USER: genes 4 Torsion [CA]-CB--CG-[OD1] |==|  0.59415
USER: genes 5 Torsion [C]-CA--N-[C] |==|  0.79422
USER: genes 6 Torsion [N]-C--CA-[N] |==|  0.14125
USER: genes 7 Torsion [C]-CA--N-[C] |==|  0.73515
USER: genes 8 Torsion [N]-C--CA-[N] |==|  0.46369
USER: genes 9 Torsion [C]-CA--CB-[CG1] |==|  0.21555
USER: genes 10 Torsion [C]-N--CA-[CB] |==|  0.47227
USER: genes 11 Torsion [N]-CA--C-[N] |==|  0.42308
USER: genes 12 Torsion [C]-N--CA-[CB] |==|  0.47295
USER: genes 13 Torsion [N]-CA--CB-[CG] |==|  0.58455
USER: genes 14 Torsion [CA]-CB--CG-[OD2] |==|  0.51269
USER: genes 15 Torsion [N]-CA--C-[O] |==|  0.40824
USER: genes 16 Torsion [N]-CA--CB-[CG] |==|  0.18092
USER: genes 17 Torsion [CA]-CB--CG-[OD1] |==|  0.40551
ROOT
ATOM      1  C   ASP D 179      74.207 -22.885  82.676  1.00 41.71 LIG 0.24  C 
ATOM      2 O    ASP D 179      74.644 -21.856  83.192  1.00 47.20 LIG-0.27  OA
ATOM      3  N   ASP D 180      74.544 -24.111  83.075  1.00 48.22 LIG-0.34  N 
ATOM      4 H    ASP D 180      74.178 -24.822  82.760  1.00 48.22 LIG 0.16  HD
ENDROOT
BRANCH 1 5
ATOM      5  CA  ASP D 179      73.211 -22.835  81.516  1.00 44.60 LIG 0.19  C 
BRANCH 5 6
ATOM      6  CB  ASP D 179      71.852 -22.289  81.963  1.00 48.27 LIG 0.15  C 
BRANCH 6 7
ATOM      7  CG  ASP D 179      71.075 -21.659  80.811  1.00 46.68 LIG 0.17  C 
ATOM      8 OD1  ASP D 179      70.343 -20.672  81.045  1.00 58.91 LIG-0.65  OA
ATOM      9 OD2  ASP D 179      71.208 -22.131  79.662  1.00 62.78 LIG-0.65  OA
ENDBRANCH 6 7
ENDBRANCH 5 6
BRANCH 5 10
ATOM     10  N   ASP D 179      73.129 -24.158  80.882  1.00 43.40 LIG-0.34  N 
ATOM     11 H    ASP D 179      72.397 -24.562  81.081  1.00 43.40 LIG 0.16  HD
ATOM     12  C   VAL D 178      74.035 -24.724  80.089  1.00 52.66 LIG 0.24  C 
ATOM     13 O    VAL D 178      75.217 -24.374  80.007  1.00 53.52 LIG-0.27  OA
BRANCH 12 14
ATOM     14  CA  VAL D 178      73.491 -25.889  79.252  1.00 43.72 LIG 0.18  C 
BRANCH 14 15
ATOM     15  N   VAL D 178      72.281 -25.510  78.549  1.00 54.34 LIG-0.35  N 
ATOM     16  C   GLY D 177      71.067 -25.758  79.031  1.00 48.99 LIG 0.25  C 
ATOM     17 O    GLY D 177      70.051 -25.421  78.439  1.00 61.87 LIG-0.27  OA
ATOM     18 H    VAL D 178      72.421 -25.114  77.799  1.00 54.34 LIG 0.16  HD
BRANCH 16 19
ATOM     19  CA  GLY D 177      70.970 -26.469  80.370  1.00 38.66 LIG 0.47  C 
ATOM     20  N   GLY D 177      69.627 -26.407  80.920  1.00 37.02 LIG 0.61  N 
ENDBRANCH 16 19
ENDBRANCH 14 15
BRANCH 14 21
ATOM     21  CB  VAL D 178      74.556 -26.411  78.264  1.00 39.80 LIG 0.01  C 
ATOM     22  CG2 VAL D 178      73.910 -27.215  77.156  1.00 46.96 LIG 0.01  C 
ATOM     23  CG1 VAL D 178      75.565 -27.283  79.012  1.00 37.07 LIG 0.01  C 
ENDBRANCH 14 21
ENDBRANCH 12 14
ENDBRANCH 5 10
ENDBRANCH 1 5
BRANCH 3 24
ATOM     24  CA  ASP D 180      75.566 -24.378  84.085  1.00 47.37 LIG 0.19  C 
BRANCH 24 25
ATOM     25  C   ASP D 180      76.936 -24.021  83.510  1.00 52.09 LIG 0.24  C 
ATOM     26 O    ASP D 180      77.140 -24.091  82.296  1.00 46.90 LIG-0.27  OA
ATOM     27  N   ASP D 181      77.877 -23.654  84.372  1.00 56.67 LIG-0.35  N 
ATOM     28 H    ASP D 181      77.764 -23.606  85.224  1.00 56.67 LIG 0.16  HD
BRANCH 27 29
ATOM     29  CA  ASP D 181      79.212 -23.296  83.911  1.00 54.32 LIG 0.17  C 
BRANCH 29 30
ATOM     30  CB  ASP D 181      80.022 -22.686  85.053  1.00 57.98 LIG 0.15  C 
BRANCH 30 31
ATOM     31  CG  ASP D 181      81.036 -21.673  84.569  1.00 59.80 LIG 0.17  C 
ATOM     32 OD2  ASP D 181      81.819 -21.169  85.402  1.00 65.59 LIG-0.65  OA
ATOM     33 OD1  ASP D 181      81.048 -21.379  83.355  1.00 62.88 LIG-0.65  OA
ENDBRANCH 30 31
ENDBRANCH 29 30
BRANCH 29 34
ATOM     34  C   ASP D 181      79.943 -24.498  83.326  1.00 55.94 LIG 0.22  C 
ATOM     35 O    ASP D 181      80.739 -24.359  82.393  1.00 49.69 LIG-0.29  OA
ENDBRANCH 29 34
ENDBRANCH 27 29
ENDBRANCH 24 25
BRANCH 24 36
ATOM     36  CB  ASP D 180      75.559 -25.848  84.508  1.00 41.39 LIG 0.15  C 
BRANCH 36 37
ATOM     37  CG  ASP D 180      75.949 -26.787  83.384  1.00 35.24 LIG 0.17  C 
ATOM     38 OD1  ASP D 180      76.589 -27.826  83.658  1.00 51.10 LIG-0.65  OA
ATOM     39 OD2  ASP D 180      75.589 -26.495  82.224  1.00 19.64 LIG-0.65  OA
ENDBRANCH 36 37
ENDBRANCH 24 36
ENDBRANCH 3 24
TORSDOF 16
ENDMDL
MODEL 47
USER: ADFR SOLUTION from run 28
USER: SCORE 11.677577 LL:  -3.214 LR: -10.485 RR:   0.000 FEB:  -5.713
USER: RMSD 5.961894
USER: SEED 27
USER: STATUS no improvement in best in 6 clusters for 5 generations
USER: GENES 18
USER: genes 0 Translation |==|  0.61176 0.54716 0.57645
USER: genes 1 Rotation |==|  0.37222 0.77798 0.83063 0.71699
USER: genes 2 Torsion [N]-C--CA-[N] |==|  0.15482
USER: genes 3 Torsion [C]-CA--CB-[CG] |==|  0.55193
USER: genes 4 Torsion [CA]-CB--CG-[OD1] |==|  0.32197
USER: genes 5 Torsion [C]-CA--N-[C] |==|  0.66371
USER: genes 6 Torsion [N]-C--CA-[N] |==|  0.37769
USER: genes 7 Torsion [C]-CA--N-[C] |==|  0.76225
USER: genes 8 Torsion [N]-C--CA-[N] |==|  0.41495
USER: genes 9 Torsion [C]-CA--CB-[CG1] |==|  0.06341
USER: genes 10 Torsion [C]-N--CA-[CB] |==|  0.45640
USER: genes 11 Torsion [N]-CA--C-[N] |==|  0.31093
USER: genes 12 Torsion [C]-N--CA-[CB] |==|  0.22460
USER: genes 13 Torsion [N]-CA--CB-[CG] |==|  0.04976
USER: genes 14 Torsion [CA]-CB--CG-[OD2] |==|  0.70888
USER: genes 15 Torsion [N]-CA--C-[O] |==|  0.78429
USER: genes 16 Torsion [N]-CA--CB-[CG] |==|  0.78490
USER: genes 17 Torsion [CA]-CB--CG-[OD1] |==|  0.03992
ROOT
ATOM      1  C   ASP D 179      74.378 -24.623  80.184  1.00 41.71 LIG 0.24  C 
ATOM      2 O    ASP D 179      75.448 -24.014  80.170  1.00 47.20 LIG-0.27  OA
ATOM      3  N   ASP D 180      73.264 -24.143  80.735  1.00 48.22 LIG-0.34  N 
ATOM      4 H    ASP D 180      72.504 -24.541  80.675  1.00 48.22 LIG 0.16  HD
ENDROOT
BRANCH 1 5
ATOM      5  CA  ASP D 179      74.239 -26.005  79.546  1.00 44.60 LIG 0.19  C 
BRANCH 5 6
ATOM      6  CB  ASP D 179      75.574 -26.505  78.985  1.00 48.27 LIG 0.15  C 
BRANCH 6 7
ATOM      7  CG  ASP D 179      75.390 -27.628  77.969  1.00 46.68 LIG 0.17  C 
ATOM      8 OD1  ASP D 179      75.736 -27.431  76.782  1.00 58.91 LIG-0.65  OA
ATOM      9 OD2  ASP D 179      74.919 -28.719  78.351  1.00 62.78 LIG-0.65  OA
ENDBRANCH 6 7
ENDBRANCH 5 6
BRANCH 5 10
ATOM     10  N   ASP D 179      73.160 -25.980  78.549  1.00 43.40 LIG-0.34  N 
ATOM     11 H    ASP D 179      73.308 -25.399  77.933  1.00 43.40 LIG 0.16  HD
ATOM     12  C   VAL D 178      72.062 -26.732  78.537  1.00 52.66 LIG 0.24  C 
ATOM     13 O    VAL D 178      71.617 -27.344  79.513  1.00 53.52 LIG-0.27  OA
BRANCH 12 14
ATOM     14  CA  VAL D 178      71.357 -26.785  77.176  1.00 43.72 LIG 0.18  C 
BRANCH 14 15
ATOM     15  N   VAL D 178      70.952 -28.139  76.848  1.00 54.34 LIG-0.35  N 
ATOM     16  C   GLY D 177      71.769 -29.006  76.259  1.00 48.99 LIG 0.25  C 
ATOM     17 O    GLY D 177      71.425 -30.151  75.999  1.00 61.87 LIG-0.27  OA
ATOM     18 H    VAL D 178      70.142 -28.325  77.068  1.00 54.34 LIG 0.16  HD
BRANCH 16 19
ATOM     19  CA  GLY D 177      73.175 -28.537  75.923  1.00 38.66 LIG 0.47  C 
ATOM     20  N   GLY D 177      74.135 -29.626  75.972  1.00 37.02 LIG 0.61  N 
ENDBRANCH 16 19
ENDBRANCH 14 15
BRANCH 14 21
ATOM     21  CB  VAL D 178      70.146 -25.829  77.137  1.00 39.80 LIG 0.01  C 
ATOM     22  CG2 VAL D 178      70.002 -25.203  75.767  1.00 46.96 LIG 0.01  C 
ATOM     23  CG1 VAL D 178      70.325 -24.732  78.188  1.00 37.07 LIG 0.01  C 
ENDBRANCH 14 21
ENDBRANCH 12 14
ENDBRANCH 5 10
ENDBRANCH 1 5
BRANCH 3 24
ATOM     24  CA  ASP D 180      73.211 -22.898  81.497  1.00 47.37 LIG 0.19  C 
BRANCH 24 25
ATOM     25  C   ASP D 180      73.837 -23.130  82.871  1.00 52.09 LIG 0.24  C 
ATOM     26 O    ASP D 180      73.276 -23.851  83.699  1.00 46.90 LIG-0.27  OA
ATOM     27  N   ASP D 181      74.987 -22.516  83.123  1.00 56.67 LIG-0.35  N 
ATOM     28 H    ASP D 181      75.395 -22.001  82.568  1.00 56.67 LIG 0.16  HD
BRANCH 27 29
ATOM     29  CA  ASP D 181      75.655 -22.682  84.408  1.00 54.32 LIG 0.17  C 
BRANCH 29 30
ATOM     30  CB  ASP D 181      76.438 -23.994  84.433  1.00 57.98 LIG 0.15  C 
BRANCH 30 31
ATOM     31  CG  ASP D 181      76.684 -24.549  83.048  1.00 59.80 LIG 0.17  C 
ATOM     32 OD2  ASP D 181      76.006 -25.529  82.669  1.00 65.59 LIG-0.65  OA
ATOM     33 OD1  ASP D 181      77.556 -24.007  82.336  1.00 62.88 LIG-0.65  OA
ENDBRANCH 30 31
ENDBRANCH 29 30
BRANCH 29 34
ATOM     34  C   ASP D 181      76.579 -21.509  84.715  1.00 55.94 LIG 0.22  C 
ATOM     35 O    ASP D 181      77.684 -21.420  84.174  1.00 49.69 LIG-0.29  OA
ENDBRANCH 29 34
ENDBRANCH 27 29
ENDBRANCH 24 25
BRANCH 24 36
ATOM     36  CB  ASP D 180      71.771 -22.411  81.670  1.00 41.39 LIG 0.15  C 
BRANCH 36 37
ATOM     37  CG  ASP D 180      71.217 -21.752  80.423  1.00 35.24 LIG 0.17  C 
ATOM     38 OD1  ASP D 180      71.824 -21.901  79.340  1.00 51.10 LIG-0.65  OA
ATOM     39 OD2  ASP D 180      70.154 -21.103  80.525  1.00 19.64 LIG-0.65  OA
ENDBRANCH 36 37
ENDBRANCH 24 36
ENDBRANCH 3 24
TORSDOF 16
ENDMDL
MODEL 48
USER: ADFR SOLUTION from run 188
USER: SCORE 11.078530 LL:  -1.587 LR: -10.475 RR:   0.000 FEB:  -5.703
USER: RMSD 6.455383
USER: SEED 187
USER: STATUS no improvement in best in 11 clusters for 5 generations
USER: GENES 18
USER: genes 0 Translation |==|  0.43381 0.52711 0.47660
USER: genes 1 Rotation |==|  0.32417 0.32097 0.07407 0.57492
USER: genes 2 Torsion [N]-C--CA-[N] |==|  0.45252
USER: genes 3 Torsion [C]-CA--CB-[CG] |==|  0.80877
USER: genes 4 Torsion [CA]-CB--CG-[OD1] |==|  0.79663
USER: genes 5 Torsion [C]-CA--N-[C] |==|  0.61337
USER: genes 6 Torsion [N]-C--CA-[N] |==|  0.88866
USER: genes 7 Torsion [C]-CA--N-[C] |==|  0.60556
USER: genes 8 Torsion [N]-C--CA-[N] |==|  0.72328
USER: genes 9 Torsion [C]-CA--CB-[CG1] |==|  0.73112
USER: genes 10 Torsion [C]-N--CA-[CB] |==|  0.77595
USER: genes 11 Torsion [N]-CA--C-[N] |==|  0.24070
USER: genes 12 Torsion [C]-N--CA-[CB] |==|  0.30473
USER: genes 13 Torsion [N]-CA--CB-[CG] |==|  0.63346
USER: genes 14 Torsion [CA]-CB--CG-[OD2] |==|  0.91695
USER: genes 15 Torsion [N]-CA--C-[O] |==|  0.20262
USER: genes 16 Torsion [N]-CA--CB-[CG] |==|  0.56566
USER: genes 17 Torsion [CA]-CB--CG-[OD1] |==|  0.21687
ROOT
ATOM      1  C   ASP D 179      70.908 -24.999  78.537  1.00 41.71 LIG 0.24  C 
ATOM      2 O    ASP D 179      71.039 -23.824  78.193  1.00 47.20 LIG-0.27  OA
ATOM      3  N   ASP D 180      71.583 -25.552  79.544  1.00 48.22 LIG-0.34  N 
ATOM      4 H    ASP D 180      71.431 -26.350  79.826  1.00 48.22 LIG 0.16  HD
ENDROOT
BRANCH 1 5
ATOM      5  CA  ASP D 179      69.931 -25.935  77.825  1.00 44.60 LIG 0.19  C 
BRANCH 5 6
ATOM      6  CB  ASP D 179      70.666 -26.998  77.001  1.00 48.27 LIG 0.15  C 
BRANCH 6 7
ATOM      7  CG  ASP D 179      71.381 -26.399  75.794  1.00 46.68 LIG 0.17  C 
ATOM      8 OD1  ASP D 179      70.699 -26.019  74.816  1.00 58.91 LIG-0.65  OA
ATOM      9 OD2  ASP D 179      72.624 -26.284  75.822  1.00 62.78 LIG-0.65  OA
ENDBRANCH 6 7
ENDBRANCH 5 6
BRANCH 5 10
ATOM     10  N   ASP D 179      68.977 -25.143  77.037  1.00 43.40 LIG-0.34  N 
ATOM     11 H    ASP D 179      69.361 -24.484  76.639  1.00 43.40 LIG 0.16  HD
ATOM     12  C   VAL D 178      67.669 -25.357  76.910  1.00 52.66 LIG 0.24  C 
ATOM     13 O    VAL D 178      66.993 -26.057  77.671  1.00 53.52 LIG-0.27  OA
BRANCH 12 14
ATOM     14  CA  VAL D 178      67.034 -24.645  75.709  1.00 43.72 LIG 0.18  C 
BRANCH 14 15
ATOM     15  N   VAL D 178      67.576 -23.310  75.543  1.00 54.34 LIG-0.35  N 
ATOM     16  C   GLY D 177      66.828 -22.278  75.170  1.00 48.99 LIG 0.25  C 
ATOM     17 O    GLY D 177      67.289 -21.151  75.047  1.00 61.87 LIG-0.27  OA
ATOM     18 H    VAL D 178      68.418 -23.252  75.708  1.00 54.34 LIG 0.16  HD
BRANCH 16 19
ATOM     19  CA  GLY D 177      65.353 -22.530  74.909  1.00 38.66 LIG 0.47  C 
ATOM     20  N   GLY D 177      65.069 -22.668  73.491  1.00 37.02 LIG 0.61  N 
ENDBRANCH 16 19
ENDBRANCH 14 15
BRANCH 14 21
ATOM     21  CB  VAL D 178      67.209 -25.470  74.416  1.00 39.80 LIG 0.01  C 
ATOM     22  CG2 VAL D 178      67.396 -26.937  74.736  1.00 46.96 LIG 0.01  C 
ATOM     23  CG1 VAL D 178      68.422 -24.954  73.640  1.00 37.07 LIG 0.01  C 
ENDBRANCH 14 21
ENDBRANCH 12 14
ENDBRANCH 5 10
ENDBRANCH 1 5
BRANCH 3 24
ATOM     24  CA  ASP D 180      72.646 -24.867  80.276  1.00 47.37 LIG 0.19  C 
BRANCH 24 25
ATOM     25  C   ASP D 180      72.240 -23.410  80.491  1.00 52.09 LIG 0.24  C 
ATOM     26 O    ASP D 180      72.600 -22.538  79.696  1.00 46.90 LIG-0.27  OA
ATOM     27  N   ASP D 181      71.507 -23.138  81.564  1.00 56.67 LIG-0.35  N 
ATOM     28 H    ASP D 181      71.250 -23.724  82.139  1.00 56.67 LIG 0.16  HD
BRANCH 27 29
ATOM     29  CA  ASP D 181      71.075 -21.776  81.846  1.00 54.32 LIG 0.17  C 
BRANCH 29 30
ATOM     30  CB  ASP D 181      69.568 -21.641  81.631  1.00 57.98 LIG 0.15  C 
BRANCH 30 31
ATOM     31  CG  ASP D 181      69.207 -20.432  80.798  1.00 59.80 LIG 0.17  C 
ATOM     32 OD2  ASP D 181      69.949 -19.428  80.852  1.00 65.59 LIG-0.65  OA
ATOM     33 OD1  ASP D 181      68.179 -20.483  80.090  1.00 62.88 LIG-0.65  OA
ENDBRANCH 30 31
ENDBRANCH 29 30
BRANCH 29 34
ATOM     34  C   ASP D 181      71.447 -21.352  83.262  1.00 55.94 LIG 0.22  C 
ATOM     35 O    ASP D 181      72.619 -21.104  83.558  1.00 49.69 LIG-0.29  OA
ENDBRANCH 29 34
ENDBRANCH 27 29
ENDBRANCH 24 25
BRANCH 24 36
ATOM     36  CB  ASP D 180      73.971 -24.919  79.512  1.00 41.39 LIG 0.15  C 
BRANCH 36 37
ATOM     37  CG  ASP D 180      75.178 -24.758  80.414  1.00 35.24 LIG 0.17  C 
ATOM     38 OD1  ASP D 180      75.562 -25.735  81.092  1.00 51.10 LIG-0.65  OA
ATOM     39 OD2  ASP D 180      75.760 -23.652  80.423  1.00 19.64 LIG-0.65  OA
ENDBRANCH 36 37
ENDBRANCH 24 36
ENDBRANCH 3 24
TORSDOF 16
ENDMDL
MODEL 49
USER: ADFR SOLUTION from run 137
USER: SCORE 12.146615 LL:  -1.915 LR: -10.440 RR:   0.000 FEB:  -5.667
USER: RMSD 5.328864
USER: SEED 136
USER: STATUS no improvement in best in 3 clusters for 5 generations
USER: GENES 18
USER: genes 0 Translation |==|  0.65529 0.39159 0.39995
USER: genes 1 Rotation |==|  0.46988 0.62370 0.90266 0.76768
USER: genes 2 Torsion [N]-C--CA-[N] |==|  0.00170
USER: genes 3 Torsion [C]-CA--CB-[CG] |==|  0.34018
USER: genes 4 Torsion [CA]-CB--CG-[OD1] |==|  0.44602
USER: genes 5 Torsion [C]-CA--N-[C] |==|  0.78627
USER: genes 6 Torsion [N]-C--CA-[N] |==|  0.95588
USER: genes 7 Torsion [C]-CA--N-[C] |==|  0.78439
USER: genes 8 Torsion [N]-C--CA-[N] |==|  0.39740
USER: genes 9 Torsion [C]-CA--CB-[CG1] |==|  0.58446
USER: genes 10 Torsion [C]-N--CA-[CB] |==|  0.86620
USER: genes 11 Torsion [N]-CA--C-[N] |==|  0.36240
USER: genes 12 Torsion [C]-N--CA-[CB] |==|  0.46164
USER: genes 13 Torsion [N]-CA--CB-[CG] |==|  0.69260
USER: genes 14 Torsion [CA]-CB--CG-[OD2] |==|  0.53774
USER: genes 15 Torsion [N]-CA--C-[O] |==|  0.17517
USER: genes 16 Torsion [N]-CA--CB-[CG] |==|  0.48848
USER: genes 17 Torsion [CA]-CB--CG-[OD1] |==|  0.77635
ROOT
ATOM      1  C   ASP D 179      75.227 -27.540  77.272  1.00 41.71 LIG 0.24  C 
ATOM      2 O    ASP D 179      76.321 -27.200  77.724  1.00 47.20 LIG-0.27  OA
ATOM      3  N   ASP D 180      74.098 -27.518  77.979  1.00 48.22 LIG-0.34  N 
ATOM      4 H    ASP D 180      73.328 -27.685  77.635  1.00 48.22 LIG 0.16  HD
ENDROOT
BRANCH 1 5
ATOM      5  CA  ASP D 179      75.074 -28.015  75.827  1.00 44.60 LIG 0.19  C 
BRANCH 5 6
ATOM      6  CB  ASP D 179      75.672 -27.011  74.836  1.00 48.27 LIG 0.15  C 
BRANCH 6 7
ATOM      7  CG  ASP D 179      76.750 -27.639  73.958  1.00 46.68 LIG 0.17  C 
ATOM      8 OD1  ASP D 179      77.060 -27.072  72.886  1.00 58.91 LIG-0.65  OA
ATOM      9 OD2  ASP D 179      77.308 -28.688  74.341  1.00 62.78 LIG-0.65  OA
ENDBRANCH 6 7
ENDBRANCH 5 6
BRANCH 5 10
ATOM     10  N   ASP D 179      73.664 -28.329  75.560  1.00 43.40 LIG-0.34  N 
ATOM     11 H    ASP D 179      73.279 -27.709  75.104  1.00 43.40 LIG 0.16  HD
ATOM     12  C   VAL D 178      72.997 -29.415  75.943  1.00 52.66 LIG 0.24  C 
ATOM     13 O    VAL D 178      73.358 -30.182  76.842  1.00 53.52 LIG-0.27  OA
BRANCH 12 14
ATOM     14  CA  VAL D 178      71.699 -29.658  75.164  1.00 43.72 LIG 0.18  C 
BRANCH 14 15
ATOM     15  N   VAL D 178      71.290 -28.469  74.441  1.00 54.34 LIG-0.35  N 
ATOM     16  C   GLY D 177      70.699 -27.439  75.037  1.00 48.99 LIG 0.25  C 
ATOM     17 O    GLY D 177      70.371 -26.433  74.423  1.00 61.87 LIG-0.27  OA
ATOM     18 H    VAL D 178      71.464 -28.495  73.599  1.00 54.34 LIG 0.16  HD
BRANCH 16 19
ATOM     19  CA  GLY D 177      70.450 -27.535  76.533  1.00 38.66 LIG 0.47  C 
ATOM     20  N   GLY D 177      70.638 -26.255  77.195  1.00 37.02 LIG 0.61  N 
ENDBRANCH 16 19
ENDBRANCH 14 15
BRANCH 14 21
ATOM     21  CB  VAL D 178      71.840 -30.859  74.204  1.00 39.80 LIG 0.01  C 
ATOM     22  CG2 VAL D 178      73.278 -31.024  73.760  1.00 46.96 LIG 0.01  C 
ATOM     23  CG1 VAL D 178      70.946 -30.645  72.982  1.00 37.07 LIG 0.01  C 
ENDBRANCH 14 21
ENDBRANCH 12 14
ENDBRANCH 5 10
ENDBRANCH 1 5
BRANCH 3 24
ATOM     24  CA  ASP D 180      74.045 -27.210  79.407  1.00 47.37 LIG 0.19  C 
BRANCH 24 25
ATOM     25  C   ASP D 180      74.298 -25.716  79.600  1.00 52.09 LIG 0.24  C 
ATOM     26 O    ASP D 180      75.268 -25.172  79.067  1.00 46.90 LIG-0.27  OA
ATOM     27  N   ASP D 181      73.442 -25.052  80.369  1.00 56.67 LIG-0.35  N 
ATOM     28 H    ASP D 181      72.763 -25.407  80.761  1.00 56.67 LIG 0.16  HD
BRANCH 27 29
ATOM     29  CA  ASP D 181      73.607 -23.624  80.608  1.00 54.32 LIG 0.17  C 
BRANCH 29 30
ATOM     30  CB  ASP D 181      72.337 -23.038  81.222  1.00 57.98 LIG 0.15  C 
BRANCH 30 31
ATOM     31  CG  ASP D 181      71.604 -22.118  80.272  1.00 59.80 LIG 0.17  C 
ATOM     32 OD2  ASP D 181      70.704 -21.381  80.731  1.00 65.59 LIG-0.65  OA
ATOM     33 OD1  ASP D 181      71.925 -22.132  79.065  1.00 62.88 LIG-0.65  OA
ENDBRANCH 30 31
ENDBRANCH 29 30
BRANCH 29 34
ATOM     34  C   ASP D 181      74.807 -23.341  81.503  1.00 55.94 LIG 0.22  C 
ATOM     35 O    ASP D 181      75.949 -23.632  81.137  1.00 49.69 LIG-0.29  OA
ENDBRANCH 29 34
ENDBRANCH 27 29
ENDBRANCH 24 25
BRANCH 24 36
ATOM     36  CB  ASP D 180      75.090 -28.008  80.188  1.00 41.39 LIG 0.15  C 
BRANCH 36 37
ATOM     37  CG  ASP D 180      75.134 -27.642  81.658  1.00 35.24 LIG 0.17  C 
ATOM     38 OD1  ASP D 180      75.758 -26.617  82.007  1.00 51.10 LIG-0.65  OA
ATOM     39 OD2  ASP D 180      74.519 -28.374  82.463  1.00 19.64 LIG-0.65  OA
ENDBRANCH 36 37
ENDBRANCH 24 36
ENDBRANCH 3 24
TORSDOF 16
ENDMDL
MODEL 50
USER: ADFR SOLUTION from run 56
USER: SCORE 10.810557 LL:  -1.791 LR: -10.433 RR:   0.000 FEB:  -5.660
USER: RMSD 8.916766
USER: SEED 55
USER: STATUS no improvement in best in 4 clusters for 5 generations
USER: GENES 18
USER: genes 0 Translation |==|  0.30482 0.55983 0.42903
USER: genes 1 Rotation |==|  0.42408 0.54021 0.01403 0.58032
USER: genes 2 Torsion [N]-C--CA-[N] |==|  0.45631
USER: genes 3 Torsion [C]-CA--CB-[CG] |==|  0.19738
USER: genes 4 Torsion [CA]-CB--CG-[OD1] |==|  0.07332
USER: genes 5 Torsion [C]-CA--N-[C] |==|  0.71812
USER: genes 6 Torsion [N]-C--CA-[N] |==|  0.79449
USER: genes 7 Torsion [C]-CA--N-[C] |==|  0.60747
USER: genes 8 Torsion [N]-C--CA-[N] |==|  0.41674
USER: genes 9 Torsion [C]-CA--CB-[CG1] |==|  0.39172
USER: genes 10 Torsion [C]-N--CA-[CB] |==|  0.50556
USER: genes 11 Torsion [N]-CA--C-[N] |==|  0.38014
USER: genes 12 Torsion [C]-N--CA-[CB] |==|  0.82314
USER: genes 13 Torsion [N]-CA--CB-[CG] |==|  0.57202
USER: genes 14 Torsion [CA]-CB--CG-[OD2] |==|  0.27611
USER: genes 15 Torsion [N]-CA--C-[O] |==|  0.17288
USER: genes 16 Torsion [N]-CA--CB-[CG] |==|  0.55608
USER: genes 17 Torsion [CA]-CB--CG-[OD1] |==|  0.01915
ROOT
ATOM      1  C   ASP D 179      68.393 -24.385  77.752  1.00 41.71 LIG 0.24  C 
ATOM      2 O    ASP D 179      68.667 -23.482  78.542  1.00 47.20 LIG-0.27  OA
ATOM      3  N   ASP D 180      68.676 -25.669  77.972  1.00 48.22 LIG-0.34  N 
ATOM      4 H    ASP D 180      68.414 -26.301  77.451  1.00 48.22 LIG 0.16  HD
ENDROOT
BRANCH 1 5
ATOM      5  CA  ASP D 179      67.679 -24.100  76.430  1.00 44.60 LIG 0.19  C 
BRANCH 5 6
ATOM      6  CB  ASP D 179      68.603 -24.330  75.229  1.00 48.27 LIG 0.15  C 
BRANCH 6 7
ATOM      7  CG  ASP D 179      68.894 -25.810  75.000  1.00 46.68 LIG 0.17  C 
ATOM      8 OD1  ASP D 179      68.057 -26.656  75.388  1.00 58.91 LIG-0.65  OA
ATOM      9 OD2  ASP D 179      69.946 -26.137  74.414  1.00 62.78 LIG-0.65  OA
ENDBRANCH 6 7
ENDBRANCH 5 6
BRANCH 5 10
ATOM     10  N   ASP D 179      67.095 -22.753  76.467  1.00 43.40 LIG-0.34  N 
ATOM     11 H    ASP D 179      67.687 -22.144  76.329  1.00 43.40 LIG 0.16  HD
ATOM     12  C   VAL D 178      65.820 -22.437  76.683  1.00 52.66 LIG 0.24  C 
ATOM     13 O    VAL D 178      64.985 -23.191  77.192  1.00 53.52 LIG-0.27  OA
BRANCH 12 14
ATOM     14  CA  VAL D 178      65.445 -21.018  76.240  1.00 43.72 LIG 0.18  C 
BRANCH 14 15
ATOM     15  N   VAL D 178      65.978 -20.025  77.154  1.00 54.34 LIG-0.35  N 
ATOM     16  C   GLY D 177      65.299 -18.936  77.500  1.00 48.99 LIG 0.25  C 
ATOM     17 O    GLY D 177      65.749 -18.111  78.283  1.00 61.87 LIG-0.27  OA
ATOM     18 H    VAL D 178      66.766 -20.206  77.446  1.00 54.34 LIG 0.16  HD
BRANCH 16 19
ATOM     19  CA  GLY D 177      63.916 -18.745  76.901  1.00 38.66 LIG 0.47  C 
ATOM     20  N   GLY D 177      63.038 -18.007  77.793  1.00 37.02 LIG 0.61  N 
ENDBRANCH 16 19
ENDBRANCH 14 15
BRANCH 14 21
ATOM     21  CB  VAL D 178      65.917 -20.740  74.797  1.00 39.80 LIG 0.01  C 
ATOM     22  CG2 VAL D 178      67.230 -19.987  74.798  1.00 46.96 LIG 0.01  C 
ATOM     23  CG1 VAL D 178      64.856 -19.922  74.059  1.00 37.07 LIG 0.01  C 
ENDBRANCH 14 21
ENDBRANCH 12 14
ENDBRANCH 5 10
ENDBRANCH 1 5
BRANCH 3 24
ATOM     24  CA  ASP D 180      69.456 -26.139  79.115  1.00 47.37 LIG 0.19  C 
BRANCH 24 25
ATOM     25  C   ASP D 180      70.818 -25.448  79.102  1.00 52.09 LIG 0.24  C 
ATOM     26 O    ASP D 180      71.450 -25.331  78.049  1.00 46.90 LIG-0.27  OA
ATOM     27  N   ASP D 181      71.281 -25.001  80.264  1.00 56.67 LIG-0.35  N 
ATOM     28 H    ASP D 181      70.867 -25.077  81.014  1.00 56.67 LIG 0.16  HD
BRANCH 27 29
ATOM     29  CA  ASP D 181      72.572 -24.329  80.344  1.00 54.32 LIG 0.17  C 
BRANCH 29 30
ATOM     30  CB  ASP D 181      73.695 -25.287  79.951  1.00 57.98 LIG 0.15  C 
BRANCH 30 31
ATOM     31  CG  ASP D 181      75.020 -24.914  80.577  1.00 59.80 LIG 0.17  C 
ATOM     32 OD2  ASP D 181      75.389 -25.529  81.601  1.00 65.59 LIG-0.65  OA
ATOM     33 OD1  ASP D 181      75.693 -24.005  80.048  1.00 62.88 LIG-0.65  OA
ENDBRANCH 30 31
ENDBRANCH 29 30
BRANCH 29 34
ATOM     34  C   ASP D 181      72.608 -23.083  79.466  1.00 55.94 LIG 0.22  C 
ATOM     35 O    ASP D 181      71.845 -22.138  79.681  1.00 49.69 LIG-0.29  OA
ENDBRANCH 29 34
ENDBRANCH 27 29
ENDBRANCH 24 25
BRANCH 24 36
ATOM     36  CB  ASP D 180      69.654 -27.655  79.068  1.00 41.39 LIG 0.15  C 
BRANCH 36 37
ATOM     37  CG  ASP D 180      70.010 -28.245  80.418  1.00 35.24 LIG 0.17  C 
ATOM     38 OD1  ASP D 180      69.979 -27.508  81.427  1.00 51.10 LIG-0.65  OA
ATOM     39 OD2  ASP D 180      70.297 -29.460  80.469  1.00 19.64 LIG-0.65  OA
ENDBRANCH 36 37
ENDBRANCH 24 36
ENDBRANCH 3 24
TORSDOF 16
ENDMDL
MODEL 51
USER: ADFR SOLUTION from run 97
USER: SCORE 12.365119 LL:  -2.955 LR: -10.416 RR:   0.000 FEB:  -5.644
USER: RMSD 5.457543
USER: SEED 96
USER: STATUS no improvement in best in 7 clusters for 5 generations
USER: GENES 18
USER: genes 0 Translation |==|  0.59100 0.37116 0.37666
USER: genes 1 Rotation |==|  0.56051 0.36887 0.11693 0.78705
USER: genes 2 Torsion [N]-C--CA-[N] |==|  0.88281
USER: genes 3 Torsion [C]-CA--CB-[CG] |==|  0.59187
USER: genes 4 Torsion [CA]-CB--CG-[OD1] |==|  0.23641
USER: genes 5 Torsion [C]-CA--N-[C] |==|  0.67951
USER: genes 6 Torsion [N]-C--CA-[N] |==|  0.42264
USER: genes 7 Torsion [C]-CA--N-[C] |==|  0.79959
USER: genes 8 Torsion [N]-C--CA-[N] |==|  0.41518
USER: genes 9 Torsion [C]-CA--CB-[CG1] |==|  0.20481
USER: genes 10 Torsion [C]-N--CA-[CB] |==|  0.51124
USER: genes 11 Torsion [N]-CA--C-[N] |==|  0.37301
USER: genes 12 Torsion [C]-N--CA-[CB] |==|  0.46527
USER: genes 13 Torsion [N]-CA--CB-[CG] |==|  0.56452
USER: genes 14 Torsion [CA]-CB--CG-[OD2] |==|  0.08612
USER: genes 15 Torsion [N]-CA--C-[O] |==|  0.18793
USER: genes 16 Torsion [N]-CA--CB-[CG] |==|  0.50591
USER: genes 17 Torsion [CA]-CB--CG-[OD1] |==|  0.28521
ROOT
ATOM      1  C   ASP D 179      73.974 -27.923  76.888  1.00 41.71 LIG 0.24  C 
ATOM      2 O    ASP D 179      72.965 -27.221  76.958  1.00 47.20 LIG-0.27  OA
ATOM      3  N   ASP D 180      74.698 -28.282  77.947  1.00 48.22 LIG-0.34  N 
ATOM      4 H    ASP D 180      75.356 -28.833  77.899  1.00 48.22 LIG 0.16  HD
ENDROOT
BRANCH 1 5
ATOM      5  CA  ASP D 179      74.482 -28.458  75.548  1.00 44.60 LIG 0.19  C 
BRANCH 5 6
ATOM      6  CB  ASP D 179      73.971 -29.878  75.279  1.00 48.27 LIG 0.15  C 
BRANCH 6 7
ATOM      7  CG  ASP D 179      74.979 -30.714  74.497  1.00 46.68 LIG 0.17  C 
ATOM      8 OD1  ASP D 179      75.884 -31.311  75.123  1.00 58.91 LIG-0.65  OA
ATOM      9 OD2  ASP D 179      74.863 -30.799  73.256  1.00 62.78 LIG-0.65  OA
ENDBRANCH 6 7
ENDBRANCH 5 6
BRANCH 5 10
ATOM     10  N   ASP D 179      75.945 -28.344  75.496  1.00 43.40 LIG-0.34  N 
ATOM     11 H    ASP D 179      76.325 -28.841  76.086  1.00 43.40 LIG 0.16  HD
ATOM     12  C   VAL D 178      76.661 -27.587  74.669  1.00 52.66 LIG 0.24  C 
ATOM     13 O    VAL D 178      76.216 -26.629  74.028  1.00 53.52 LIG-0.27  OA
BRANCH 12 14
ATOM     14  CA  VAL D 178      78.135 -27.998  74.564  1.00 43.72 LIG 0.18  C 
BRANCH 14 15
ATOM     15  N   VAL D 178      78.690 -27.639  73.273  1.00 54.34 LIG-0.35  N 
ATOM     16  C   GLY D 177      78.367 -28.279  72.154  1.00 48.99 LIG 0.25  C 
ATOM     17 O    GLY D 177      78.827 -27.960  71.066  1.00 61.87 LIG-0.27  OA
ATOM     18 H    VAL D 178      79.241 -26.979  73.301  1.00 54.34 LIG 0.16  HD
BRANCH 16 19
ATOM     19  CA  GLY D 177      77.380 -29.429  72.257  1.00 38.66 LIG 0.47  C 
ATOM     20  N   GLY D 177      76.588 -29.572  71.048  1.00 37.02 LIG 0.61  N 
ENDBRANCH 16 19
ENDBRANCH 14 15
BRANCH 14 21
ATOM     21  CB  VAL D 178      78.969 -27.381  75.707  1.00 39.80 LIG 0.01  C 
ATOM     22  CG2 VAL D 178      80.449 -27.482  75.406  1.00 46.96 LIG 0.01  C 
ATOM     23  CG1 VAL D 178      78.660 -28.108  77.017  1.00 37.07 LIG 0.01  C 
ENDBRANCH 14 21
ENDBRANCH 12 14
ENDBRANCH 5 10
ENDBRANCH 1 5
BRANCH 3 24
ATOM     24  CA  ASP D 180      74.453 -27.783  79.299  1.00 47.37 LIG 0.19  C 
BRANCH 24 25
ATOM     25  C   ASP D 180      74.483 -26.256  79.276  1.00 52.09 LIG 0.24  C 
ATOM     26 O    ASP D 180      75.386 -25.658  78.687  1.00 46.90 LIG-0.27  OA
ATOM     27  N   ASP D 181      73.511 -25.622  79.922  1.00 56.67 LIG-0.35  N 
ATOM     28 H    ASP D 181      72.875 -26.014  80.349  1.00 56.67 LIG 0.16  HD
BRANCH 27 29
ATOM     29  CA  ASP D 181      73.461 -24.166  79.951  1.00 54.32 LIG 0.17  C 
BRANCH 29 30
ATOM     30  CB  ASP D 181      72.109 -23.692  80.480  1.00 57.98 LIG 0.15  C 
BRANCH 30 31
ATOM     31  CG  ASP D 181      71.771 -22.288  80.029  1.00 59.80 LIG 0.17  C 
ATOM     32 OD2  ASP D 181      72.199 -21.898  78.922  1.00 65.59 LIG-0.65  OA
ATOM     33 OD1  ASP D 181      71.077 -21.573  80.783  1.00 62.88 LIG-0.65  OA
ENDBRANCH 30 31
ENDBRANCH 29 30
BRANCH 29 34
ATOM     34  C   ASP D 181      74.591 -23.584  80.792  1.00 55.94 LIG 0.22  C 
ATOM     35 O    ASP D 181      75.765 -23.681  80.424  1.00 49.69 LIG-0.29  OA
ENDBRANCH 29 34
ENDBRANCH 27 29
ENDBRANCH 24 25
BRANCH 24 36
ATOM     36  CB  ASP D 180      75.507 -28.298  80.281  1.00 41.39 LIG 0.15  C 
BRANCH 36 37
ATOM     37  CG  ASP D 180      75.257 -27.843  81.705  1.00 35.24 LIG 0.17  C 
ATOM     38 OD1  ASP D 180      74.764 -28.652  82.521  1.00 51.10 LIG-0.65  OA
ATOM     39 OD2  ASP D 180      75.581 -26.676  82.014  1.00 19.64 LIG-0.65  OA
ENDBRANCH 36 37
ENDBRANCH 24 36
ENDBRANCH 3 24
TORSDOF 16
ENDMDL
MODEL 52
USER: ADFR SOLUTION from run 14
USER: SCORE 12.126788 LL:  -2.631 LR: -10.409 RR:   0.000 FEB:  -5.636
USER: RMSD 7.558965
USER: SEED 96931
USER: STATUS no improvement in best in 7 clusters for 5 generations
USER: GENES 18
USER: genes 0 Translation |==|  0.58719 0.62808 0.76086
USER: genes 1 Rotation |==|  0.53011 0.56513 0.17816 0.87586
USER: genes 2 Torsion [N]-C--CA-[N] |==|  0.22298
USER: genes 3 Torsion [C]-CA--CB-[CG] |==|  0.55748
USER: genes 4 Torsion [CA]-CB--CG-[OD1] |==|  0.81017
USER: genes 5 Torsion [C]-CA--N-[C] |==|  0.69767
USER: genes 6 Torsion [N]-C--CA-[N] |==|  0.17737
USER: genes 7 Torsion [C]-CA--N-[C] |==|  0.73357
USER: genes 8 Torsion [N]-C--CA-[N] |==|  0.32949
USER: genes 9 Torsion [C]-CA--CB-[CG1] |==|  0.25968
USER: genes 10 Torsion [C]-N--CA-[CB] |==|  0.14711
USER: genes 11 Torsion [N]-CA--C-[N] |==|  0.11531
USER: genes 12 Torsion [C]-N--CA-[CB] |==|  0.39279
USER: genes 13 Torsion [N]-CA--CB-[CG] |==|  0.55816
USER: genes 14 Torsion [CA]-CB--CG-[OD2] |==|  0.65468
USER: genes 15 Torsion [N]-CA--C-[O] |==|  0.75671
USER: genes 16 Torsion [N]-CA--CB-[CG] |==|  0.12911
USER: genes 17 Torsion [CA]-CB--CG-[OD1] |==|  0.06918
ROOT
ATOM      1  C   ASP D 179      73.899 -23.106  83.227  1.00 41.71 LIG 0.24  C 
ATOM      2 O    ASP D 179      73.027 -23.125  84.095  1.00 47.20 LIG-0.27  OA
ATOM      3  N   ASP D 180      75.200 -23.240  83.485  1.00 48.22 LIG-0.34  N 
ATOM      4 H    ASP D 180      75.795 -23.301  82.868  1.00 48.22 LIG 0.16  HD
ENDROOT
BRANCH 1 5
ATOM      5  CA  ASP D 179      73.550 -22.933  81.748  1.00 44.60 LIG 0.19  C 
BRANCH 5 6
ATOM      6  CB  ASP D 179      72.240 -22.159  81.565  1.00 48.27 LIG 0.15  C 
BRANCH 6 7
ATOM      7  CG  ASP D 179      71.615 -22.400  80.194  1.00 46.68 LIG 0.17  C 
ATOM      8 OD1  ASP D 179      72.194 -21.951  79.179  1.00 58.91 LIG-0.65  OA
ATOM      9 OD2  ASP D 179      70.555 -23.057  80.119  1.00 62.78 LIG-0.65  OA
ENDBRANCH 6 7
ENDBRANCH 5 6
BRANCH 5 10
ATOM     10  N   ASP D 179      73.551 -24.244  81.087  1.00 43.40 LIG-0.34  N 
ATOM     11 H    ASP D 179      72.881 -24.725  81.330  1.00 43.40 LIG 0.16  HD
ATOM     12  C   VAL D 178      74.443 -24.700  80.211  1.00 52.66 LIG 0.24  C 
ATOM     13 O    VAL D 178      75.574 -24.230  80.048  1.00 53.52 LIG-0.27  OA
BRANCH 12 14
ATOM     14  CA  VAL D 178      73.954 -25.898  79.387  1.00 43.72 LIG 0.18  C 
BRANCH 14 15
ATOM     15  N   VAL D 178      72.827 -25.534  78.551  1.00 54.34 LIG-0.35  N 
ATOM     16  C   GLY D 177      71.567 -25.743  78.920  1.00 48.99 LIG 0.25  C 
ATOM     17 O    GLY D 177      70.621 -25.420  78.216  1.00 61.87 LIG-0.27  OA
ATOM     18 H    VAL D 178      73.049 -25.175  77.801  1.00 54.34 LIG 0.16  HD
BRANCH 16 19
ATOM     19  CA  GLY D 177      71.325 -26.391  80.272  1.00 38.66 LIG 0.47  C 
ATOM     20  N   GLY D 177      70.573 -25.522  81.162  1.00 37.02 LIG 0.61  N 
ENDBRANCH 16 19
ENDBRANCH 14 15
BRANCH 14 21
ATOM     21  CB  VAL D 178      75.096 -26.492  78.535  1.00 39.80 LIG 0.01  C 
ATOM     22  CG2 VAL D 178      74.567 -27.007  77.214  1.00 46.96 LIG 0.01  C 
ATOM     23  CG1 VAL D 178      75.766 -27.634  79.302  1.00 37.07 LIG 0.01  C 
ENDBRANCH 14 21
ENDBRANCH 12 14
ENDBRANCH 5 10
ENDBRANCH 1 5
BRANCH 3 24
ATOM     24  CA  ASP D 180      75.753 -23.298  84.837  1.00 47.37 LIG 0.19  C 
BRANCH 24 25
ATOM     25  C   ASP D 180      77.245 -23.610  84.748  1.00 52.09 LIG 0.24  C 
ATOM     26 O    ASP D 180      77.767 -24.396  85.542  1.00 46.90 LIG-0.27  OA
ATOM     27  N   ASP D 181      77.938 -22.992  83.798  1.00 56.67 LIG-0.35  N 
ATOM     28 H    ASP D 181      77.602 -22.434  83.237  1.00 56.67 LIG 0.16  HD
BRANCH 27 29
ATOM     29  CA  ASP D 181      79.366 -23.232  83.641  1.00 54.32 LIG 0.17  C 
BRANCH 29 30
ATOM     30  CB  ASP D 181      79.738 -23.275  82.160  1.00 57.98 LIG 0.15  C 
BRANCH 30 31
ATOM     31  CG  ASP D 181      81.042 -23.999  81.910  1.00 59.80 LIG 0.17  C 
ATOM     32 OD2  ASP D 181      81.949 -23.398  81.294  1.00 65.59 LIG-0.65  OA
ATOM     33 OD1  ASP D 181      81.161 -25.170  82.327  1.00 62.88 LIG-0.65  OA
ENDBRANCH 30 31
ENDBRANCH 29 30
BRANCH 29 34
ATOM     34  C   ASP D 181      80.194 -22.176  84.363  1.00 55.94 LIG 0.22  C 
ATOM     35 O    ASP D 181      80.502 -21.122  83.799  1.00 49.69 LIG-0.29  OA
ENDBRANCH 29 34
ENDBRANCH 27 29
ENDBRANCH 24 25
BRANCH 24 36
ATOM     36  CB  ASP D 180      75.057 -24.370  85.677  1.00 41.39 LIG 0.15  C 
BRANCH 36 37
ATOM     37  CG  ASP D 180      74.909 -25.689  84.945  1.00 35.24 LIG 0.17  C 
ATOM     38 OD1  ASP D 180      75.707 -25.962  84.022  1.00 51.10 LIG-0.65  OA
ATOM     39 OD2  ASP D 180      74.003 -26.466  85.315  1.00 19.64 LIG-0.65  OA
ENDBRANCH 36 37
ENDBRANCH 24 36
ENDBRANCH 3 24
TORSDOF 16
ENDMDL
MODEL 53
USER: ADFR SOLUTION from run 134
USER: SCORE 10.346707 LL:  -1.643 LR: -10.400 RR:   0.000 FEB:  -5.627
USER: RMSD 9.213297
USER: SEED 133
USER: STATUS no improvement in best in 8 clusters for 5 generations
USER: GENES 18
USER: genes 0 Translation |==|  0.26192 0.65990 0.54326
USER: genes 1 Rotation |==|  0.25622 0.37799 0.13477 0.70565
USER: genes 2 Torsion [N]-C--CA-[N] |==|  0.59745
USER: genes 3 Torsion [C]-CA--CB-[CG] |==|  0.82085
USER: genes 4 Torsion [CA]-CB--CG-[OD1] |==|  0.25481
USER: genes 5 Torsion [C]-CA--N-[C] |==|  0.11337
USER: genes 6 Torsion [N]-C--CA-[N] |==|  0.40152
USER: genes 7 Torsion [C]-CA--N-[C] |==|  0.66840
USER: genes 8 Torsion [N]-C--CA-[N] |==|  0.50803
USER: genes 9 Torsion [C]-CA--CB-[CG1] |==|  0.86861
USER: genes 10 Torsion [C]-N--CA-[CB] |==|  0.22628
USER: genes 11 Torsion [N]-CA--C-[N] |==|  0.83411
USER: genes 12 Torsion [C]-N--CA-[CB] |==|  0.18702
USER: genes 13 Torsion [N]-CA--CB-[CG] |==|  0.52917
USER: genes 14 Torsion [CA]-CB--CG-[OD2] |==|  0.21496
USER: genes 15 Torsion [N]-CA--C-[O] |==|  0.10490
USER: genes 16 Torsion [N]-CA--CB-[CG] |==|  0.66861
USER: genes 17 Torsion [CA]-CB--CG-[OD1] |==|  0.50670
ROOT
ATOM      1  C   ASP D 179      67.556 -22.509  79.637  1.00 41.71 LIG 0.24  C 
ATOM      2 O    ASP D 179      67.217 -21.326  79.666  1.00 47.20 LIG-0.27  OA
ATOM      3  N   ASP D 180      68.773 -22.935  79.974  1.00 48.22 LIG-0.34  N 
ATOM      4 H    ASP D 180      68.979 -23.769  80.023  1.00 48.22 LIG 0.16  HD
ENDROOT
BRANCH 1 5
ATOM      5  CA  ASP D 179      66.583 -23.609  79.211  1.00 44.60 LIG 0.19  C 
BRANCH 5 6
ATOM      6  CB  ASP D 179      67.319 -24.897  78.828  1.00 48.27 LIG 0.15  C 
BRANCH 6 7
ATOM      7  CG  ASP D 179      68.203 -24.713  77.599  1.00 46.68 LIG 0.17  C 
ATOM      8 OD1  ASP D 179      69.400 -24.384  77.760  1.00 58.91 LIG-0.65  OA
ATOM      9 OD2  ASP D 179      67.716 -24.915  76.467  1.00 62.78 LIG-0.65  OA
ENDBRANCH 6 7
ENDBRANCH 5 6
BRANCH 5 10
ATOM     10  N   ASP D 179      65.702 -23.102  78.150  1.00 43.40 LIG-0.34  N 
ATOM     11 H    ASP D 179      64.890 -23.366  78.256  1.00 43.40 LIG 0.16  HD
ATOM     12  C   VAL D 178      66.047 -22.330  77.123  1.00 52.66 LIG 0.24  C 
ATOM     13 O    VAL D 178      67.203 -22.171  76.718  1.00 53.52 LIG-0.27  OA
BRANCH 12 14
ATOM     14  CA  VAL D 178      64.864 -21.625  76.447  1.00 43.72 LIG 0.18  C 
BRANCH 14 15
ATOM     15  N   VAL D 178      65.235 -20.301  75.988  1.00 54.34 LIG-0.35  N 
ATOM     16  C   GLY D 177      64.639 -19.198  76.430  1.00 48.99 LIG 0.25  C 
ATOM     17 O    GLY D 177      64.969 -18.083  76.050  1.00 61.87 LIG-0.27  OA
ATOM     18 H    VAL D 178      65.870 -20.297  75.408  1.00 54.34 LIG 0.16  HD
BRANCH 16 19
ATOM     19  CA  GLY D 177      63.528 -19.358  77.454  1.00 38.66 LIG 0.47  C 
ATOM     20  N   GLY D 177      62.923 -18.083  77.798  1.00 37.02 LIG 0.61  N 
ENDBRANCH 16 19
ENDBRANCH 14 15
BRANCH 14 21
ATOM     21  CB  VAL D 178      64.303 -22.469  75.282  1.00 39.80 LIG 0.01  C 
ATOM     22  CG2 VAL D 178      63.523 -23.655  75.807  1.00 46.96 LIG 0.01  C 
ATOM     23  CG1 VAL D 178      65.456 -22.959  74.404  1.00 37.07 LIG 0.01  C 
ENDBRANCH 14 21
ENDBRANCH 12 14
ENDBRANCH 5 10
ENDBRANCH 1 5
BRANCH 3 24
ATOM     24  CA  ASP D 180      69.882 -22.040  80.295  1.00 47.37 LIG 0.19  C 
BRANCH 24 25
ATOM     25  C   ASP D 180      71.198 -22.787  80.089  1.00 52.09 LIG 0.24  C 
ATOM     26 O    ASP D 180      72.027 -22.379  79.272  1.00 46.90 LIG-0.27  OA
ATOM     27  N   ASP D 181      71.390 -23.885  80.811  1.00 56.67 LIG-0.35  N 
ATOM     28 H    ASP D 181      70.826 -24.197  81.381  1.00 56.67 LIG 0.16  HD
BRANCH 27 29
ATOM     29  CA  ASP D 181      72.618 -24.659  80.679  1.00 54.32 LIG 0.17  C 
BRANCH 29 30
ATOM     30  CB  ASP D 181      73.809 -23.860  81.203  1.00 57.98 LIG 0.15  C 
BRANCH 30 31
ATOM     31  CG  ASP D 181      75.134 -24.504  80.862  1.00 59.80 LIG 0.17  C 
ATOM     32 OD2  ASP D 181      75.574 -24.382  79.698  1.00 65.59 LIG-0.65  OA
ATOM     33 OD1  ASP D 181      75.737 -25.133  81.757  1.00 62.88 LIG-0.65  OA
ENDBRANCH 30 31
ENDBRANCH 29 30
BRANCH 29 34
ATOM     34  C   ASP D 181      72.517 -25.996  81.405  1.00 55.94 LIG 0.22  C 
ATOM     35 O    ASP D 181      71.462 -26.635  81.404  1.00 49.69 LIG-0.29  OA
ENDBRANCH 29 34
ENDBRANCH 27 29
ENDBRANCH 24 25
BRANCH 24 36
ATOM     36  CB  ASP D 180      69.798 -21.546  81.741  1.00 41.39 LIG 0.15  C 
BRANCH 36 37
ATOM     37  CG  ASP D 180      69.673 -20.040  81.843  1.00 35.24 LIG 0.17  C 
ATOM     38 OD1  ASP D 180      69.642 -19.511  82.976  1.00 51.10 LIG-0.65  OA
ATOM     39 OD2  ASP D 180      69.631 -19.381  80.782  1.00 19.64 LIG-0.65  OA
ENDBRANCH 36 37
ENDBRANCH 24 36
ENDBRANCH 3 24
TORSDOF 16
ENDMDL
MODEL 54
USER: ADFR SOLUTION from run 183
USER: SCORE 10.672675 LL:  -2.650 LR: -10.396 RR:   0.000 FEB:  -5.624
USER: RMSD 9.319236
USER: SEED 182
USER: STATUS no improvement in best in 16 clusters for 5 generations
USER: GENES 18
USER: genes 0 Translation |==|  0.44608 0.68547 0.62304
USER: genes 1 Rotation |==|  0.92179 0.53416 0.75525 0.57599
USER: genes 2 Torsion [N]-C--CA-[N] |==|  0.23067
USER: genes 3 Torsion [C]-CA--CB-[CG] |==|  0.71666
USER: genes 4 Torsion [CA]-CB--CG-[OD1] |==|  0.28856
USER: genes 5 Torsion [C]-CA--N-[C] |==|  0.59088
USER: genes 6 Torsion [N]-C--CA-[N] |==|  0.42253
USER: genes 7 Torsion [C]-CA--N-[C] |==|  0.71522
USER: genes 8 Torsion [N]-C--CA-[N] |==|  0.36844
USER: genes 9 Torsion [C]-CA--CB-[CG1] |==|  0.16786
USER: genes 10 Torsion [C]-N--CA-[CB] |==|  0.35296
USER: genes 11 Torsion [N]-CA--C-[N] |==|  0.33350
USER: genes 12 Torsion [C]-N--CA-[CB] |==|  0.46822
USER: genes 13 Torsion [N]-CA--CB-[CG] |==|  0.76271
USER: genes 14 Torsion [CA]-CB--CG-[OD2] |==|  0.54044
USER: genes 15 Torsion [N]-CA--C-[O] |==|  0.92054
USER: genes 16 Torsion [N]-CA--CB-[CG] |==|  0.54961
USER: genes 17 Torsion [CA]-CB--CG-[OD1] |==|  0.54330
ROOT
ATOM      1  C   ASP D 179      71.148 -22.029  80.953  1.00 41.71 LIG 0.24  C 
ATOM      2 O    ASP D 179      71.673 -21.382  80.048  1.00 47.20 LIG-0.27  OA
ATOM      3  N   ASP D 180      71.594 -23.215  81.366  1.00 48.22 LIG-0.34  N 
ATOM      4 H    ASP D 180      71.268 -23.626  82.048  1.00 48.22 LIG 0.16  HD
ENDROOT
BRANCH 1 5
ATOM      5  CA  ASP D 179      69.919 -21.507  81.700  1.00 44.60 LIG 0.19  C 
BRANCH 5 6
ATOM      6  CB  ASP D 179      69.054 -20.613  80.805  1.00 48.27 LIG 0.15  C 
BRANCH 6 7
ATOM      7  CG  ASP D 179      69.259 -19.131  81.099  1.00 46.68 LIG 0.17  C 
ATOM      8 OD1  ASP D 179      69.947 -18.448  80.307  1.00 58.91 LIG-0.65  OA
ATOM      9 OD2  ASP D 179      68.718 -18.633  82.109  1.00 62.78 LIG-0.65  OA
ENDBRANCH 6 7
ENDBRANCH 5 6
BRANCH 5 10
ATOM     10  N   ASP D 179      70.342 -20.852  82.945  1.00 43.40 LIG-0.34  N 
ATOM     11 H    ASP D 179      71.109 -20.471  82.860  1.00 43.40 LIG 0.16  HD
ATOM     12  C   VAL D 178      69.676 -20.812  84.096  1.00 52.66 LIG 0.24  C 
ATOM     13 O    VAL D 178      68.753 -21.574  84.402  1.00 53.52 LIG-0.27  OA
BRANCH 12 14
ATOM     14  CA  VAL D 178      70.154 -19.716  85.056  1.00 43.72 LIG 0.18  C 
BRANCH 14 15
ATOM     15  N   VAL D 178      69.081 -19.279  85.929  1.00 54.34 LIG-0.35  N 
ATOM     16  C   GLY D 177      68.421 -18.143  85.735  1.00 48.99 LIG 0.25  C 
ATOM     17 O    GLY D 177      67.507 -17.789  86.467  1.00 61.87 LIG-0.27  OA
ATOM     18 H    VAL D 178      68.916 -19.820  86.578  1.00 54.34 LIG 0.16  HD
BRANCH 16 19
ATOM     19  CA  GLY D 177      68.824 -17.284  84.548  1.00 38.66 LIG 0.47  C 
ATOM     20  N   GLY D 177      67.671 -16.846  83.780  1.00 37.02 LIG 0.61  N 
ENDBRANCH 16 19
ENDBRANCH 14 15
BRANCH 14 21
ATOM     21  CB  VAL D 178      71.371 -20.188  85.881  1.00 39.80 LIG 0.01  C 
ATOM     22  CG2 VAL D 178      71.811 -19.113  86.851  1.00 46.96 LIG 0.01  C 
ATOM     23  CG1 VAL D 178      72.525 -20.534  84.938  1.00 37.07 LIG 0.01  C 
ENDBRANCH 14 21
ENDBRANCH 12 14
ENDBRANCH 5 10
ENDBRANCH 1 5
BRANCH 3 24
ATOM     24  CA  ASP D 180      72.678 -23.943  80.711  1.00 47.37 LIG 0.19  C 
BRANCH 24 25
ATOM     25  C   ASP D 180      72.108 -25.202  80.061  1.00 52.09 LIG 0.24  C 
ATOM     26 O    ASP D 180      71.553 -26.063  80.748  1.00 46.90 LIG-0.27  OA
ATOM     27  N   ASP D 181      72.253 -25.322  78.746  1.00 56.67 LIG-0.35  N 
ATOM     28 H    ASP D 181      72.643 -24.743  78.245  1.00 56.67 LIG 0.16  HD
BRANCH 27 29
ATOM     29  CA  ASP D 181      71.738 -26.491  78.044  1.00 54.32 LIG 0.17  C 
BRANCH 29 30
ATOM     30  CB  ASP D 181      71.775 -26.261  76.534  1.00 57.98 LIG 0.15  C 
BRANCH 30 31
ATOM     31  CG  ASP D 181      70.547 -25.537  76.027  1.00 59.80 LIG 0.17  C 
ATOM     32 OD2  ASP D 181      70.323 -25.533  74.798  1.00 65.59 LIG-0.65  OA
ATOM     33 OD1  ASP D 181      69.807 -24.971  76.858  1.00 62.88 LIG-0.65  OA
ENDBRANCH 30 31
ENDBRANCH 29 30
BRANCH 29 34
ATOM     34  C   ASP D 181      72.517 -27.750  78.407  1.00 55.94 LIG 0.22  C 
ATOM     35 O    ASP D 181      73.702 -27.682  78.744  1.00 49.69 LIG-0.29  OA
ENDBRANCH 29 34
ENDBRANCH 27 29
ENDBRANCH 24 25
BRANCH 24 36
ATOM     36  CB  ASP D 180      73.769 -24.335  81.710  1.00 41.39 LIG 0.15  C 
BRANCH 36 37
ATOM     37  CG  ASP D 180      75.080 -24.693  81.041  1.00 35.24 LIG 0.17  C 
ATOM     38 OD1  ASP D 180      75.949 -25.305  81.700  1.00 51.10 LIG-0.65  OA
ATOM     39 OD2  ASP D 180      75.231 -24.382  79.840  1.00 19.64 LIG-0.65  OA
ENDBRANCH 36 37
ENDBRANCH 24 36
ENDBRANCH 3 24
TORSDOF 16
ENDMDL
MODEL 55
USER: ADFR SOLUTION from run 9
USER: SCORE 10.859238 LL:  -1.558 LR: -10.385 RR:   0.000 FEB:  -5.612
USER: RMSD 10.071090
USER: SEED 437567
USER: STATUS no improvement in best in 7 clusters for 5 generations
USER: GENES 18
USER: genes 0 Translation |==|  0.29011 0.72416 0.60928
USER: genes 1 Rotation |==|  0.63656 0.73265 0.17967 0.77315
USER: genes 2 Torsion [N]-C--CA-[N] |==|  0.35565
USER: genes 3 Torsion [C]-CA--CB-[CG] |==|  0.30050
USER: genes 4 Torsion [CA]-CB--CG-[OD1] |==|  0.39120
USER: genes 5 Torsion [C]-CA--N-[C] |==|  0.81422
USER: genes 6 Torsion [N]-C--CA-[N] |==|  0.43340
USER: genes 7 Torsion [C]-CA--N-[C] |==|  0.66685
USER: genes 8 Torsion [N]-C--CA-[N] |==|  0.48173
USER: genes 9 Torsion [C]-CA--CB-[CG1] |==|  0.97085
USER: genes 10 Torsion [C]-N--CA-[CB] |==|  0.21476
USER: genes 11 Torsion [N]-CA--C-[N] |==|  0.46469
USER: genes 12 Torsion [C]-N--CA-[CB] |==|  0.38983
USER: genes 13 Torsion [N]-CA--CB-[CG] |==|  0.40991
USER: genes 14 Torsion [CA]-CB--CG-[OD2] |==|  0.68329
USER: genes 15 Torsion [N]-CA--C-[O] |==|  0.43048
USER: genes 16 Torsion [N]-CA--CB-[CG] |==|  0.56197
USER: genes 17 Torsion [CA]-CB--CG-[OD1] |==|  0.00972
ROOT
ATOM      1  C   ASP D 179      68.106 -21.304  80.726  1.00 41.71 LIG 0.24  C 
ATOM      2 O    ASP D 179      67.423 -21.837  81.600  1.00 47.20 LIG-0.27  OA
ATOM      3  N   ASP D 180      69.296 -21.762  80.337  1.00 48.22 LIG-0.34  N 
ATOM      4 H    ASP D 180      69.731 -21.429  79.675  1.00 48.22 LIG 0.16  HD
ENDROOT
BRANCH 1 5
ATOM      5  CA  ASP D 179      67.627 -20.050  79.993  1.00 44.60 LIG 0.19  C 
BRANCH 5 6
ATOM      6  CB  ASP D 179      67.743 -18.802  80.875  1.00 48.27 LIG 0.15  C 
BRANCH 6 7
ATOM      7  CG  ASP D 179      68.869 -17.878  80.422  1.00 46.68 LIG 0.17  C 
ATOM      8 OD1  ASP D 179      68.686 -16.641  80.459  1.00 58.91 LIG-0.65  OA
ATOM      9 OD2  ASP D 179      69.950 -18.379  80.048  1.00 62.78 LIG-0.65  OA
ENDBRANCH 6 7
ENDBRANCH 5 6
BRANCH 5 10
ATOM     10  N   ASP D 179      66.272 -20.273  79.471  1.00 43.40 LIG-0.34  N 
ATOM     11 H    ASP D 179      65.693 -19.774  79.865  1.00 43.40 LIG 0.16  HD
ATOM     12  C   VAL D 178      65.912 -21.123  78.513  1.00 52.66 LIG 0.24  C 
ATOM     13 O    VAL D 178      66.593 -22.078  78.126  1.00 53.52 LIG-0.27  OA
BRANCH 12 14
ATOM     14  CA  VAL D 178      64.538 -20.826  77.899  1.00 43.72 LIG 0.18  C 
BRANCH 14 15
ATOM     15  N   VAL D 178      64.432 -21.372  76.560  1.00 54.34 LIG-0.35  N 
ATOM     16  C   GLY D 177      64.202 -20.612  75.495  1.00 48.99 LIG 0.25  C 
ATOM     17 O    GLY D 177      64.130 -21.078  74.366  1.00 61.87 LIG-0.27  OA
ATOM     18 H    VAL D 178      64.531 -22.226  76.522  1.00 54.34 LIG 0.16  HD
BRANCH 16 19
ATOM     19  CA  GLY D 177      64.044 -19.117  75.714  1.00 38.66 LIG 0.47  C 
ATOM     20  N   GLY D 177      63.951 -18.393  74.458  1.00 37.02 LIG 0.61  N 
ENDBRANCH 16 19
ENDBRANCH 14 15
BRANCH 14 21
ATOM     21  CB  VAL D 178      63.400 -21.357  78.796  1.00 39.80 LIG 0.01  C 
ATOM     22  CG2 VAL D 178      62.633 -20.213  79.423  1.00 46.96 LIG 0.01  C 
ATOM     23  CG1 VAL D 178      63.986 -22.246  79.895  1.00 37.07 LIG 0.01  C 
ENDBRANCH 14 21
ENDBRANCH 12 14
ENDBRANCH 5 10
ENDBRANCH 1 5
BRANCH 3 24
ATOM     24  CA  ASP D 180      69.984 -22.874  80.988  1.00 47.37 LIG 0.19  C 
BRANCH 24 25
ATOM     25  C   ASP D 180      71.461 -22.837  80.601  1.00 52.09 LIG 0.24  C 
ATOM     26 O    ASP D 180      71.845 -22.124  79.671  1.00 46.90 LIG-0.27  OA
ATOM     27  N   ASP D 181      72.289 -23.608  81.296  1.00 56.67 LIG-0.35  N 
ATOM     28 H    ASP D 181      72.048 -24.122  81.943  1.00 56.67 LIG 0.16  HD
BRANCH 27 29
ATOM     29  CA  ASP D 181      73.715 -23.634  80.995  1.00 54.32 LIG 0.17  C 
BRANCH 29 30
ATOM     30  CB  ASP D 181      74.529 -23.695  82.285  1.00 57.98 LIG 0.15  C 
BRANCH 30 31
ATOM     31  CG  ASP D 181      75.817 -24.471  82.122  1.00 59.80 LIG 0.17  C 
ATOM     32 OD2  ASP D 181      75.949 -25.545  82.747  1.00 65.59 LIG-0.65  OA
ATOM     33 OD1  ASP D 181      76.699 -24.007  81.369  1.00 62.88 LIG-0.65  OA
ENDBRANCH 30 31
ENDBRANCH 29 30
BRANCH 29 34
ATOM     34  C   ASP D 181      74.074 -24.805  80.087  1.00 55.94 LIG 0.22  C 
ATOM     35 O    ASP D 181      75.072 -24.758  79.364  1.00 49.69 LIG-0.29  OA
ENDBRANCH 29 34
ENDBRANCH 27 29
ENDBRANCH 24 25
BRANCH 24 36
ATOM     36  CB  ASP D 180      69.384 -24.220  80.576  1.00 41.39 LIG 0.15  C 
BRANCH 36 37
ATOM     37  CG  ASP D 180      69.665 -25.322  81.577  1.00 35.24 LIG 0.17  C 
ATOM     38 OD1  ASP D 180      70.271 -25.040  82.634  1.00 51.10 LIG-0.65  OA
ATOM     39 OD2  ASP D 180      69.252 -26.472  81.314  1.00 19.64 LIG-0.65  OA
ENDBRANCH 36 37
ENDBRANCH 24 36
ENDBRANCH 3 24
TORSDOF 16
ENDMDL
MODEL 56
USER: ADFR SOLUTION from run 30
USER: SCORE 10.622412 LL:  -1.622 LR: -10.391 RR:   0.000 FEB:  -5.618
USER: RMSD 5.360927
USER: SEED 29
USER: STATUS no improvement in best in 19 clusters for 5 generations
USER: GENES 18
USER: genes 0 Translation |==|  0.61630 0.48884 0.52785
USER: genes 1 Rotation |==|  0.36095 0.80025 0.81847 0.69772
USER: genes 2 Torsion [N]-C--CA-[N] |==|  0.42235
USER: genes 3 Torsion [C]-CA--CB-[CG] |==|  0.80861
USER: genes 4 Torsion [CA]-CB--CG-[OD1] |==|  0.34652
USER: genes 5 Torsion [C]-CA--N-[C] |==|  0.71418
USER: genes 6 Torsion [N]-C--CA-[N] |==|  0.43668
USER: genes 7 Torsion [C]-CA--N-[C] |==|  0.67203
USER: genes 8 Torsion [N]-C--CA-[N] |==|  0.53337
USER: genes 9 Torsion [C]-CA--CB-[CG1] |==|  0.28747
USER: genes 10 Torsion [C]-N--CA-[CB] |==|  0.45689
USER: genes 11 Torsion [N]-CA--C-[N] |==|  0.37517
USER: genes 12 Torsion [C]-N--CA-[CB] |==|  0.80462
USER: genes 13 Torsion [N]-CA--CB-[CG] |==|  0.86048
USER: genes 14 Torsion [CA]-CB--CG-[OD2] |==|  0.82361
USER: genes 15 Torsion [N]-CA--C-[O] |==|  0.07277
USER: genes 16 Torsion [N]-CA--CB-[CG] |==|  0.66172
USER: genes 17 Torsion [CA]-CB--CG-[OD1] |==|  0.07901
ROOT
ATOM      1  C   ASP D 179      74.467 -25.716  79.383  1.00 41.71 LIG 0.24  C 
ATOM      2 O    ASP D 179      75.513 -25.082  79.249  1.00 47.20 LIG-0.27  OA
ATOM      3  N   ASP D 180      73.357 -25.205  79.915  1.00 48.22 LIG-0.34  N 
ATOM      4 H    ASP D 180      72.610 -25.630  79.936  1.00 48.22 LIG 0.16  HD
ENDROOT
BRANCH 1 5
ATOM      5  CA  ASP D 179      74.351 -27.172  78.927  1.00 44.60 LIG 0.19  C 
BRANCH 5 6
ATOM      6  CB  ASP D 179      74.522 -28.145  80.099  1.00 48.27 LIG 0.15  C 
BRANCH 6 7
ATOM      7  CG  ASP D 179      75.948 -28.153  80.639  1.00 46.68 LIG 0.17  C 
ATOM      8 OD1  ASP D 179      76.134 -27.926  81.856  1.00 58.91 LIG-0.65  OA
ATOM      9 OD2  ASP D 179      76.889 -28.408  79.860  1.00 62.78 LIG-0.65  OA
ENDBRANCH 6 7
ENDBRANCH 5 6
BRANCH 5 10
ATOM     10  N   ASP D 179      75.289 -27.417  77.824  1.00 43.40 LIG-0.34  N 
ATOM     11 H    ASP D 179      76.097 -27.505  78.105  1.00 43.40 LIG 0.16  HD
ATOM     12  C   VAL D 178      74.998 -27.506  76.528  1.00 52.66 LIG 0.24  C 
ATOM     13 O    VAL D 178      73.956 -27.089  76.011  1.00 53.52 LIG-0.27  OA
BRANCH 12 14
ATOM     14  CA  VAL D 178      76.087 -28.184  75.688  1.00 43.72 LIG 0.18  C 
BRANCH 14 15
ATOM     15  N   VAL D 178      75.540 -28.726  74.459  1.00 54.34 LIG-0.35  N 
ATOM     16  C   GLY D 177      75.570 -30.024  74.176  1.00 48.99 LIG 0.25  C 
ATOM     17 O    GLY D 177      75.093 -30.475  73.144  1.00 61.87 LIG-0.27  OA
ATOM     18 H    VAL D 178      75.199 -28.133  73.937  1.00 54.34 LIG 0.16  HD
BRANCH 16 19
ATOM     19  CA  GLY D 177      76.208 -30.955  75.192  1.00 38.66 LIG 0.47  C 
ATOM     20  N   GLY D 177      76.426 -32.284  74.647  1.00 37.02 LIG 0.61  N 
ENDBRANCH 16 19
ENDBRANCH 14 15
BRANCH 14 21
ATOM     21  CB  VAL D 178      77.246 -27.210  75.386  1.00 39.80 LIG 0.01  C 
ATOM     22  CG2 VAL D 178      77.663 -27.305  73.934  1.00 46.96 LIG 0.01  C 
ATOM     23  CG1 VAL D 178      78.438 -27.538  76.287  1.00 37.07 LIG 0.01  C 
ENDBRANCH 14 21
ENDBRANCH 12 14
ENDBRANCH 5 10
ENDBRANCH 1 5
BRANCH 3 24
ATOM     24  CA  ASP D 180      73.290 -23.875  80.518  1.00 47.37 LIG 0.19  C 
BRANCH 24 25
ATOM     25  C   ASP D 180      73.978 -23.914  81.881  1.00 52.09 LIG 0.24  C 
ATOM     26 O    ASP D 180      73.751 -24.834  82.669  1.00 46.90 LIG-0.27  OA
ATOM     27  N   ASP D 181      74.807 -22.917  82.169  1.00 56.67 LIG-0.35  N 
ATOM     28 H    ASP D 181      74.977 -22.258  81.642  1.00 56.67 LIG 0.16  HD
BRANCH 27 29
ATOM     29  CA  ASP D 181      75.507 -22.874  83.446  1.00 54.32 LIG 0.17  C 
BRANCH 29 30
ATOM     30  CB  ASP D 181      74.526 -22.577  84.579  1.00 57.98 LIG 0.15  C 
BRANCH 30 31
ATOM     31  CG  ASP D 181      73.655 -21.375  84.290  1.00 59.80 LIG 0.17  C 
ATOM     32 OD2  ASP D 181      74.202 -20.258  84.168  1.00 65.59 LIG-0.65  OA
ATOM     33 OD1  ASP D 181      72.422 -21.546  84.188  1.00 62.88 LIG-0.65  OA
ENDBRANCH 30 31
ENDBRANCH 29 30
BRANCH 29 34
ATOM     34  C   ASP D 181      76.252 -24.176  83.719  1.00 55.94 LIG 0.22  C 
ATOM     35 O    ASP D 181      76.631 -24.892  82.789  1.00 49.69 LIG-0.29  OA
ENDBRANCH 29 34
ENDBRANCH 27 29
ENDBRANCH 24 25
BRANCH 24 36
ATOM     36  CB  ASP D 180      71.841 -23.416  80.692  1.00 41.39 LIG 0.15  C 
BRANCH 36 37
ATOM     37  CG  ASP D 180      71.544 -22.116  79.972  1.00 35.24 LIG 0.17  C 
ATOM     38 OD1  ASP D 180      72.199 -21.829  78.946  1.00 51.10 LIG-0.65  OA
ATOM     39 OD2  ASP D 180      70.632 -21.390  80.423  1.00 19.64 LIG-0.65  OA
ENDBRANCH 36 37
ENDBRANCH 24 36
ENDBRANCH 3 24
TORSDOF 16
ENDMDL
MODEL 57
USER: ADFR SOLUTION from run 115
USER: SCORE 10.893712 LL:  -1.924 LR: -10.383 RR:   0.000 FEB:  -5.611
USER: RMSD 5.815054
USER: SEED 114
USER: STATUS no improvement in best in 27 clusters for 5 generations
USER: GENES 18
USER: genes 0 Translation |==|  0.48465 0.65053 0.60251
USER: genes 1 Rotation |==|  0.64951 0.15542 0.18530 0.59937
USER: genes 2 Torsion [N]-C--CA-[N] |==|  0.38168
USER: genes 3 Torsion [C]-CA--CB-[CG] |==|  0.55129
USER: genes 4 Torsion [CA]-CB--CG-[OD1] |==|  0.22650
USER: genes 5 Torsion [C]-CA--N-[C] |==|  0.77568
USER: genes 6 Torsion [N]-C--CA-[N] |==|  0.73373
USER: genes 7 Torsion [C]-CA--N-[C] |==|  0.63595
USER: genes 8 Torsion [N]-C--CA-[N] |==|  0.71731
USER: genes 9 Torsion [C]-CA--CB-[CG1] |==|  0.24175
USER: genes 10 Torsion [C]-N--CA-[CB] |==|  0.14249
USER: genes 11 Torsion [N]-CA--C-[N] |==|  0.66084
USER: genes 12 Torsion [C]-N--CA-[CB] |==|  0.20585
USER: genes 13 Torsion [N]-CA--CB-[CG] |==|  0.44126
USER: genes 14 Torsion [CA]-CB--CG-[OD2] |==|  0.15917
USER: genes 15 Torsion [N]-CA--C-[O] |==|  0.08524
USER: genes 16 Torsion [N]-CA--CB-[CG] |==|  0.57029
USER: genes 17 Torsion [CA]-CB--CG-[OD1] |==|  0.19186
ROOT
ATOM      1  C   ASP D 179      71.900 -22.685  80.614  1.00 41.71 LIG 0.24  C 
ATOM      2 O    ASP D 179      71.824 -21.937  79.639  1.00 47.20 LIG-0.27  OA
ATOM      3  N   ASP D 180      71.241 -22.479  81.754  1.00 48.22 LIG-0.34  N 
ATOM      4 H    ASP D 180      71.239 -23.044  82.402  1.00 48.22 LIG 0.16  HD
ENDROOT
BRANCH 1 5
ATOM      5  CA  ASP D 179      72.768 -23.944  80.590  1.00 44.60 LIG 0.19  C 
BRANCH 5 6
ATOM      6  CB  ASP D 179      74.227 -23.629  80.938  1.00 48.27 LIG 0.15  C 
BRANCH 6 7
ATOM      7  CG  ASP D 179      75.177 -24.736  80.492  1.00 46.68 LIG 0.17  C 
ATOM      8 OD1  ASP D 179      75.551 -24.766  79.298  1.00 58.91 LIG-0.65  OA
ATOM      9 OD2  ASP D 179      75.574 -25.569  81.334  1.00 62.78 LIG-0.65  OA
ENDBRANCH 6 7
ENDBRANCH 5 6
BRANCH 5 10
ATOM     10  N   ASP D 179      72.609 -24.625  79.299  1.00 43.40 LIG-0.34  N 
ATOM     11 H    ASP D 179      73.255 -24.445  78.761  1.00 43.40 LIG 0.16  HD
ATOM     12  C   VAL D 178      71.616 -25.434  78.936  1.00 52.66 LIG 0.24  C 
ATOM     13 O    VAL D 178      70.518 -25.496  79.497  1.00 53.52 LIG-0.27  OA
BRANCH 12 14
ATOM     14  CA  VAL D 178      71.940 -26.315  77.723  1.00 43.72 LIG 0.18  C 
BRANCH 14 15
ATOM     15  N   VAL D 178      71.449 -25.719  76.495  1.00 54.34 LIG-0.35  N 
ATOM     16  C   GLY D 177      70.736 -26.402  75.606  1.00 48.99 LIG 0.25  C 
ATOM     17 O    GLY D 177      70.311 -25.888  74.580  1.00 61.87 LIG-0.27  OA
ATOM     18 H    VAL D 178      71.662 -24.891  76.398  1.00 54.34 LIG 0.16  HD
BRANCH 16 19
ATOM     19  CA  GLY D 177      70.438 -27.861  75.908  1.00 38.66 LIG 0.47  C 
ATOM     20  N   GLY D 177      71.304 -28.756  75.160  1.00 37.02 LIG 0.61  N 
ENDBRANCH 16 19
ENDBRANCH 14 15
BRANCH 14 21
ATOM     21  CB  VAL D 178      73.455 -26.594  77.625  1.00 39.80 LIG 0.01  C 
ATOM     22  CG2 VAL D 178      73.866 -26.828  76.188  1.00 46.96 LIG 0.01  C 
ATOM     23  CG1 VAL D 178      73.804 -27.824  78.466  1.00 37.07 LIG 0.01  C 
ENDBRANCH 14 21
ENDBRANCH 12 14
ENDBRANCH 5 10
ENDBRANCH 1 5
BRANCH 3 24
ATOM     24  CA  ASP D 180      70.453 -21.278  82.026  1.00 47.37 LIG 0.19  C 
BRANCH 24 25
ATOM     25  C   ASP D 180      69.687 -21.474  83.333  1.00 52.09 LIG 0.24  C 
ATOM     26 O    ASP D 180      70.290 -21.731  84.377  1.00 46.90 LIG-0.27  OA
ATOM     27  N   ASP D 181      68.364 -21.368  83.281  1.00 56.67 LIG-0.35  N 
ATOM     28 H    ASP D 181      67.917 -21.200  82.565  1.00 56.67 LIG 0.16  HD
BRANCH 27 29
ATOM     29  CA  ASP D 181      67.555 -21.539  84.480  1.00 54.32 LIG 0.17  C 
BRANCH 29 30
ATOM     30  CB  ASP D 181      67.683 -20.316  85.386  1.00 57.98 LIG 0.15  C 
BRANCH 30 31
ATOM     31  CG  ASP D 181      66.527 -20.187  86.353  1.00 59.80 LIG 0.17  C 
ATOM     32 OD2  ASP D 181      66.292 -21.137  87.131  1.00 65.59 LIG-0.65  OA
ATOM     33 OD1  ASP D 181      65.851 -19.137  86.336  1.00 62.88 LIG-0.65  OA
ENDBRANCH 30 31
ENDBRANCH 29 30
BRANCH 29 34
ATOM     34  C   ASP D 181      66.091 -21.792  84.137  1.00 55.94 LIG 0.22  C 
ATOM     35 O    ASP D 181      65.781 -22.375  83.094  1.00 49.69 LIG-0.29  OA
ENDBRANCH 29 34
ENDBRANCH 27 29
ENDBRANCH 24 25
BRANCH 24 36
ATOM     36  CB  ASP D 180      69.464 -20.994  80.894  1.00 41.39 LIG 0.15  C 
BRANCH 36 37
ATOM     37  CG  ASP D 180      69.082 -19.530  80.798  1.00 35.24 LIG 0.17  C 
ATOM     38 OD1  ASP D 180      69.943 -18.704  80.423  1.00 51.10 LIG-0.65  OA
ATOM     39 OD2  ASP D 180      67.907 -19.211  81.077  1.00 19.64 LIG-0.65  OA
ENDBRANCH 36 37
ENDBRANCH 24 36
ENDBRANCH 3 24
TORSDOF 16
ENDMDL
MODEL 58
USER: ADFR SOLUTION from run 52
USER: SCORE 10.181819 LL:  -1.786 LR: -10.361 RR:   0.000 FEB:  -5.588
USER: RMSD 8.879861
USER: SEED 51
USER: STATUS no improvement in best in 20 clusters for 5 generations
USER: GENES 18
USER: genes 0 Translation |==|  0.51777 0.47502 0.51354
USER: genes 1 Rotation |==|  0.72755 0.88626 0.27899 0.51335
USER: genes 2 Torsion [N]-C--CA-[N] |==|  0.34034
USER: genes 3 Torsion [C]-CA--CB-[CG] |==|  0.27753
USER: genes 4 Torsion [CA]-CB--CG-[OD1] |==|  0.98828
USER: genes 5 Torsion [C]-CA--N-[C] |==|  0.65204
USER: genes 6 Torsion [N]-C--CA-[N] |==|  0.35556
USER: genes 7 Torsion [C]-CA--N-[C] |==|  0.79423
USER: genes 8 Torsion [N]-C--CA-[N] |==|  0.32901
USER: genes 9 Torsion [C]-CA--CB-[CG1] |==|  0.20054
USER: genes 10 Torsion [C]-N--CA-[CB] |==|  0.33253
USER: genes 11 Torsion [N]-CA--C-[N] |==|  0.55176
USER: genes 12 Torsion [C]-N--CA-[CB] |==|  0.81480
USER: genes 13 Torsion [N]-CA--CB-[CG] |==|  0.76208
USER: genes 14 Torsion [CA]-CB--CG-[OD2] |==|  0.35074
USER: genes 15 Torsion [N]-CA--C-[O] |==|  0.10933
USER: genes 16 Torsion [N]-CA--CB-[CG] |==|  0.81379
USER: genes 17 Torsion [CA]-CB--CG-[OD1] |==|  0.52801
ROOT
ATOM      1  C   ASP D 179      72.546 -25.975  79.146  1.00 41.71 LIG 0.24  C 
ATOM      2 O    ASP D 179      71.804 -26.906  79.462  1.00 47.20 LIG-0.27  OA
ATOM      3  N   ASP D 180      73.149 -25.882  77.962  1.00 48.22 LIG-0.34  N 
ATOM      4 H    ASP D 180      73.604 -25.193  77.722  1.00 48.22 LIG 0.16  HD
ENDROOT
BRANCH 1 5
ATOM      5  CA  ASP D 179      72.830 -24.820  80.108  1.00 44.60 LIG 0.19  C 
BRANCH 5 6
ATOM      6  CB  ASP D 179      73.685 -25.274  81.297  1.00 48.27 LIG 0.15  C 
BRANCH 6 7
ATOM      7  CG  ASP D 179      75.156 -24.910  81.121  1.00 46.68 LIG 0.17  C 
ATOM      8 OD1  ASP D 179      75.523 -24.381  80.048  1.00 58.91 LIG-0.65  OA
ATOM      9 OD2  ASP D 179      75.949 -25.129  82.060  1.00 62.78 LIG-0.65  OA
ENDBRANCH 6 7
ENDBRANCH 5 6
BRANCH 5 10
ATOM     10  N   ASP D 179      71.565 -24.188  80.505  1.00 43.40 LIG-0.34  N 
ATOM     11 H    ASP D 179      71.013 -24.759  80.834  1.00 43.40 LIG 0.16  HD
ATOM     12  C   VAL D 178      71.244 -22.901  80.400  1.00 52.66 LIG 0.24  C 
ATOM     13 O    VAL D 178      71.824 -22.088  79.673  1.00 53.52 LIG-0.27  OA
BRANCH 12 14
ATOM     14  CA  VAL D 178      70.058 -22.480  81.276  1.00 43.72 LIG 0.18  C 
BRANCH 14 15
ATOM     15  N   VAL D 178      70.388 -21.324  82.087  1.00 54.34 LIG-0.35  N 
ATOM     16  C   GLY D 177      71.181 -21.402  83.150  1.00 48.99 LIG 0.25  C 
ATOM     17 O    GLY D 177      71.468 -20.420  83.821  1.00 61.87 LIG-0.27  OA
ATOM     18 H    VAL D 178      70.025 -20.592  81.818  1.00 54.34 LIG 0.16  HD
BRANCH 16 19
ATOM     19  CA  GLY D 177      71.749 -22.764  83.511  1.00 38.66 LIG 0.47  C 
ATOM     20  N   GLY D 177      73.201 -22.778  83.452  1.00 37.02 LIG 0.61  N 
ENDBRANCH 16 19
ENDBRANCH 14 15
BRANCH 14 21
ATOM     21  CB  VAL D 178      68.803 -22.205  80.420  1.00 39.80 LIG 0.01  C 
ATOM     22  CG2 VAL D 178      67.747 -21.487  81.232  1.00 46.96 LIG 0.01  C 
ATOM     23  CG1 VAL D 178      68.240 -23.527  79.896  1.00 37.07 LIG 0.01  C 
ENDBRANCH 14 21
ENDBRANCH 12 14
ENDBRANCH 5 10
ENDBRANCH 1 5
BRANCH 3 24
ATOM     24  CA  ASP D 180      73.104 -26.933  76.948  1.00 47.37 LIG 0.19  C 
BRANCH 24 25
ATOM     25  C   ASP D 180      74.528 -27.406  76.661  1.00 52.09 LIG 0.24  C 
ATOM     26 O    ASP D 180      75.438 -27.163  77.457  1.00 46.90 LIG-0.27  OA
ATOM     27  N   ASP D 181      74.729 -28.066  75.526  1.00 56.67 LIG-0.35  N 
ATOM     28 H    ASP D 181      74.115 -28.240  74.950  1.00 56.67 LIG 0.16  HD
BRANCH 27 29
ATOM     29  CA  ASP D 181      76.056 -28.554  75.173  1.00 54.32 LIG 0.17  C 
BRANCH 29 30
ATOM     30  CB  ASP D 181      77.001 -27.382  74.912  1.00 57.98 LIG 0.15  C 
BRANCH 30 31
ATOM     31  CG  ASP D 181      76.919 -26.878  73.488  1.00 59.80 LIG 0.17  C 
ATOM     32 OD2  ASP D 181      76.699 -25.662  73.298  1.00 65.59 LIG-0.65  OA
ATOM     33 OD1  ASP D 181      77.074 -27.697  72.558  1.00 62.88 LIG-0.65  OA
ENDBRANCH 30 31
ENDBRANCH 29 30
BRANCH 29 34
ATOM     34  C   ASP D 181      76.626 -29.460  76.258  1.00 55.94 LIG 0.22  C 
ATOM     35 O    ASP D 181      75.902 -30.267  76.849  1.00 49.69 LIG-0.29  OA
ENDBRANCH 29 34
ENDBRANCH 27 29
ENDBRANCH 24 25
BRANCH 24 36
ATOM     36  CB  ASP D 180      72.464 -26.430  75.653  1.00 41.39 LIG 0.15  C 
BRANCH 36 37
ATOM     37  CG  ASP D 180      70.991 -26.111  75.809  1.00 35.24 LIG 0.17  C 
ATOM     38 OD1  ASP D 180      70.311 -25.875  74.786  1.00 51.10 LIG-0.65  OA
ATOM     39 OD2  ASP D 180      70.507 -26.121  76.961  1.00 19.64 LIG-0.65  OA
ENDBRANCH 36 37
ENDBRANCH 24 36
ENDBRANCH 3 24
TORSDOF 16
ENDMDL
MODEL 59
USER: ADFR SOLUTION from run 63
USER: SCORE 10.125690 LL:  -1.523 LR: -10.338 RR:   0.000 FEB:  -5.565
USER: RMSD 6.825057
USER: SEED 62
USER: STATUS no improvement in best in 9 clusters for 5 generations
USER: GENES 18
USER: genes 0 Translation |==|  0.61712 0.54714 0.58897
USER: genes 1 Rotation |==|  0.89025 0.23727 0.66130 0.55158
USER: genes 2 Torsion [N]-C--CA-[N] |==|  0.39794
USER: genes 3 Torsion [C]-CA--CB-[CG] |==|  0.12269
USER: genes 4 Torsion [CA]-CB--CG-[OD1] |==|  0.14392
USER: genes 5 Torsion [C]-CA--N-[C] |==|  0.79817
USER: genes 6 Torsion [N]-C--CA-[N] |==|  0.83925
USER: genes 7 Torsion [C]-CA--N-[C] |==|  0.62406
USER: genes 8 Torsion [N]-C--CA-[N] |==|  0.68643
USER: genes 9 Torsion [C]-CA--CB-[CG1] |==|  0.05361
USER: genes 10 Torsion [C]-N--CA-[CB] |==|  0.23530
USER: genes 11 Torsion [N]-CA--C-[N] |==|  0.24064
USER: genes 12 Torsion [C]-N--CA-[CB] |==|  0.26426
USER: genes 13 Torsion [N]-CA--CB-[CG] |==|  0.66024
USER: genes 14 Torsion [CA]-CB--CG-[OD2] |==|  0.49290
USER: genes 15 Torsion [N]-CA--C-[O] |==|  0.15717
USER: genes 16 Torsion [N]-CA--CB-[CG] |==|  0.65847
USER: genes 17 Torsion [CA]-CB--CG-[OD1] |==|  0.82362
ROOT
ATOM      1  C   ASP D 179      74.483 -24.623  80.391  1.00 41.71 LIG 0.24  C 
ATOM      2 O    ASP D 179      75.515 -24.339  79.783  1.00 47.20 LIG-0.27  OA
ATOM      3  N   ASP D 180      73.615 -25.546  79.979  1.00 48.22 LIG-0.34  N 
ATOM      4 H    ASP D 180      72.936 -25.792  80.447  1.00 48.22 LIG 0.16  HD
ENDROOT
BRANCH 1 5
ATOM      5  CA  ASP D 179      74.113 -23.930  81.703  1.00 44.60 LIG 0.19  C 
BRANCH 5 6
ATOM      6  CB  ASP D 179      73.268 -22.675  81.459  1.00 48.27 LIG 0.15  C 
BRANCH 6 7
ATOM      7  CG  ASP D 179      72.173 -22.909  80.424  1.00 46.68 LIG 0.17  C 
ATOM      8 OD1  ASP D 179      71.404 -23.886  80.569  1.00 58.91 LIG-0.65  OA
ATOM      9 OD2  ASP D 179      72.058 -22.109  79.472  1.00 62.78 LIG-0.65  OA
ENDBRANCH 6 7
ENDBRANCH 5 6
BRANCH 5 10
ATOM     10  N   ASP D 179      75.331 -23.672  82.483  1.00 43.40 LIG-0.34  N 
ATOM     11 H    ASP D 179      75.537 -22.837  82.486  1.00 43.40 LIG 0.16  HD
ATOM     12  C   VAL D 178      76.073 -24.567  83.130  1.00 52.66 LIG 0.24  C 
ATOM     13 O    VAL D 178      76.044 -25.785  82.927  1.00 53.52 LIG-0.27  OA
BRANCH 12 14
ATOM     14  CA  VAL D 178      77.006 -23.959  84.185  1.00 43.72 LIG 0.18  C 
BRANCH 14 15
ATOM     15  N   VAL D 178      77.902 -22.984  83.594  1.00 54.34 LIG-0.35  N 
ATOM     16  C   GLY D 177      79.199 -22.941  83.879  1.00 48.99 LIG 0.25  C 
ATOM     17 O    GLY D 177      79.952 -22.126  83.364  1.00 61.87 LIG-0.27  OA
ATOM     18 H    VAL D 178      77.518 -22.441  83.048  1.00 54.34 LIG 0.16  HD
BRANCH 16 19
ATOM     19  CA  GLY D 177      79.740 -23.962  84.866  1.00 38.66 LIG 0.47  C 
ATOM     20  N   GLY D 177      80.182 -23.337  86.101  1.00 37.02 LIG 0.61  N 
ENDBRANCH 16 19
ENDBRANCH 14 15
BRANCH 14 21
ATOM     21  CB  VAL D 178      76.203 -23.329  85.343  1.00 39.80 LIG 0.01  C 
ATOM     22  CG2 VAL D 178      76.871 -23.607  86.673  1.00 46.96 LIG 0.01  C 
ATOM     23  CG1 VAL D 178      74.783 -23.900  85.352  1.00 37.07 LIG 0.01  C 
ENDBRANCH 14 21
ENDBRANCH 12 14
ENDBRANCH 5 10
ENDBRANCH 1 5
BRANCH 3 24
ATOM     24  CA  ASP D 180      73.720 -26.239  78.697  1.00 47.37 LIG 0.19  C 
BRANCH 24 25
ATOM     25  C   ASP D 180      72.330 -26.705  78.270  1.00 52.09 LIG 0.24  C 
ATOM     26 O    ASP D 180      71.943 -27.844  78.542  1.00 46.90 LIG-0.27  OA
ATOM     27  N   ASP D 181      71.582 -25.841  77.594  1.00 56.67 LIG-0.35  N 
ATOM     28 H    ASP D 181      71.830 -25.044  77.383  1.00 56.67 LIG 0.16  HD
BRANCH 27 29
ATOM     29  CA  ASP D 181      70.243 -26.202  77.148  1.00 54.32 LIG 0.17  C 
BRANCH 29 30
ATOM     30  CB  ASP D 181      69.201 -25.725  78.159  1.00 57.98 LIG 0.15  C 
BRANCH 30 31
ATOM     31  CG  ASP D 181      68.349 -26.856  78.690  1.00 59.80 LIG 0.17  C 
ATOM     32 OD2  ASP D 181      67.491 -26.598  79.562  1.00 65.59 LIG-0.65  OA
ATOM     33 OD1  ASP D 181      68.537 -28.005  78.237  1.00 62.88 LIG-0.65  OA
ENDBRANCH 30 31
ENDBRANCH 29 30
BRANCH 29 34
ATOM     34  C   ASP D 181      69.939 -25.632  75.767  1.00 55.94 LIG 0.22  C 
ATOM     35 O    ASP D 181      70.668 -25.890  74.806  1.00 49.69 LIG-0.29  OA
ENDBRANCH 29 34
ENDBRANCH 27 29
ENDBRANCH 24 25
BRANCH 24 36
ATOM     36  CB  ASP D 180      74.655 -27.446  78.790  1.00 41.39 LIG 0.15  C 
BRANCH 36 37
ATOM     37  CG  ASP D 180      75.801 -27.382  77.800  1.00 35.24 LIG 0.17  C 
ATOM     38 OD1  ASP D 180      75.544 -27.404  76.576  1.00 51.10 LIG-0.65  OA
ATOM     39 OD2  ASP D 180      76.962 -27.285  78.251  1.00 19.64 LIG-0.65  OA
ENDBRANCH 36 37
ENDBRANCH 24 36
ENDBRANCH 3 24
TORSDOF 16
ENDMDL
MODEL 60
USER: ADFR SOLUTION from run 11
USER: SCORE 11.452299 LL:  -2.118 LR: -10.334 RR:   0.000 FEB:  -5.561
USER: RMSD 6.638380
USER: SEED 647262
USER: STATUS no improvement in best in 9 clusters for 5 generations
USER: GENES 18
USER: genes 0 Translation |==|  0.64402 0.40136 0.35592
USER: genes 1 Rotation |==|  0.22267 0.55172 0.80519 0.77798
USER: genes 2 Torsion [N]-C--CA-[N] |==|  0.01556
USER: genes 3 Torsion [C]-CA--CB-[CG] |==|  0.37846
USER: genes 4 Torsion [CA]-CB--CG-[OD1] |==|  0.28432
USER: genes 5 Torsion [C]-CA--N-[C] |==|  0.60000
USER: genes 6 Torsion [N]-C--CA-[N] |==|  0.10863
USER: genes 7 Torsion [C]-CA--N-[C] |==|  0.17087
USER: genes 8 Torsion [N]-C--CA-[N] |==|  0.52455
USER: genes 9 Torsion [C]-CA--CB-[CG1] |==|  0.20213
USER: genes 10 Torsion [C]-N--CA-[CB] |==|  0.56582
USER: genes 11 Torsion [N]-CA--C-[N] |==|  0.31532
USER: genes 12 Torsion [C]-N--CA-[CB] |==|  0.19482
USER: genes 13 Torsion [N]-CA--CB-[CG] |==|  0.25575
USER: genes 14 Torsion [CA]-CB--CG-[OD2] |==|  0.85217
USER: genes 15 Torsion [N]-CA--C-[O] |==|  0.03971
USER: genes 16 Torsion [N]-CA--CB-[CG] |==|  0.64171
USER: genes 17 Torsion [CA]-CB--CG-[OD1] |==|  0.36491
ROOT
ATOM      1  C   ASP D 179      75.007 -27.357  76.546  1.00 41.71 LIG 0.24  C 
ATOM      2 O    ASP D 179      75.252 -26.668  77.536  1.00 47.20 LIG-0.27  OA
ATOM      3  N   ASP D 180      73.836 -27.345  75.910  1.00 48.22 LIG-0.34  N 
ATOM      4 H    ASP D 180      73.698 -27.772  75.176  1.00 48.22 LIG 0.16  HD
ENDROOT
BRANCH 1 5
ATOM      5  CA  ASP D 179      76.057 -28.293  75.946  1.00 44.60 LIG 0.19  C 
BRANCH 5 6
ATOM      6  CB  ASP D 179      77.409 -27.592  75.779  1.00 48.27 LIG 0.15  C 
BRANCH 6 7
ATOM      7  CG  ASP D 179      78.574 -28.470  76.227  1.00 46.68 LIG 0.17  C 
ATOM      8 OD1  ASP D 179      79.268 -29.042  75.357  1.00 58.91 LIG-0.65  OA
ATOM      9 OD2  ASP D 179      78.817 -28.576  77.447  1.00 62.78 LIG-0.65  OA
ENDBRANCH 6 7
ENDBRANCH 5 6
BRANCH 5 10
ATOM     10  N   ASP D 179      75.543 -28.874  74.698  1.00 43.40 LIG-0.34  N 
ATOM     11 H    ASP D 179      75.061 -28.312  74.260  1.00 43.40 LIG 0.16  HD
ATOM     12  C   VAL D 178      75.752 -30.105  74.241  1.00 52.66 LIG 0.24  C 
ATOM     13 O    VAL D 178      76.146 -31.054  74.927  1.00 53.52 LIG-0.27  OA
BRANCH 12 14
ATOM     14  CA  VAL D 178      75.458 -30.275  72.745  1.00 43.72 LIG 0.18  C 
BRANCH 14 15
ATOM     15  N   VAL D 178      75.893 -29.116  71.990  1.00 54.34 LIG-0.35  N 
ATOM     16  C   GLY D 177      77.164 -28.731  71.942  1.00 48.99 LIG 0.25  C 
ATOM     17 O    GLY D 177      77.527 -27.761  71.290  1.00 61.87 LIG-0.27  OA
ATOM     18 H    VAL D 178      75.257 -28.705  71.581  1.00 54.34 LIG 0.16  HD
BRANCH 16 19
ATOM     19  CA  GLY D 177      78.181 -29.551  72.718  1.00 38.66 LIG 0.47  C 
ATOM     20  N   GLY D 177      79.484 -28.909  72.749  1.00 37.02 LIG 0.61  N 
ENDBRANCH 16 19
ENDBRANCH 14 15
BRANCH 14 21
ATOM     21  CB  VAL D 178      76.105 -31.562  72.191  1.00 39.80 LIG 0.01  C 
ATOM     22  CG2 VAL D 178      76.105 -31.553  70.678  1.00 46.96 LIG 0.01  C 
ATOM     23  CG1 VAL D 178      75.336 -32.782  72.699  1.00 37.07 LIG 0.01  C 
ENDBRANCH 14 21
ENDBRANCH 12 14
ENDBRANCH 5 10
ENDBRANCH 1 5
BRANCH 3 24
ATOM     24  CA  ASP D 180      72.666 -26.612  76.388  1.00 47.37 LIG 0.19  C 
BRANCH 24 25
ATOM     25  C   ASP D 180      72.641 -26.659  77.914  1.00 52.09 LIG 0.24  C 
ATOM     26 O    ASP D 180      72.449 -27.725  78.503  1.00 46.90 LIG-0.27  OA
ATOM     27  N   ASP D 181      72.821 -25.511  78.558  1.00 56.67 LIG-0.35  N 
ATOM     28 H    ASP D 181      72.948 -24.752  78.173  1.00 56.67 LIG 0.16  HD
BRANCH 27 29
ATOM     29  CA  ASP D 181      72.814 -25.464  80.014  1.00 54.32 LIG 0.17  C 
BRANCH 29 30
ATOM     30  CB  ASP D 181      74.062 -26.142  80.574  1.00 57.98 LIG 0.15  C 
BRANCH 30 31
ATOM     31  CG  ASP D 181      75.200 -25.170  80.797  1.00 59.80 LIG 0.17  C 
ATOM     32 OD2  ASP D 181      75.558 -24.443  79.846  1.00 65.59 LIG-0.65  OA
ATOM     33 OD1  ASP D 181      75.738 -25.134  81.924  1.00 62.88 LIG-0.65  OA
ENDBRANCH 30 31
ENDBRANCH 29 30
BRANCH 29 34
ATOM     34  C   ASP D 181      72.715 -24.031  80.527  1.00 55.94 LIG 0.22  C 
ATOM     35 O    ASP D 181      72.393 -23.112  79.770  1.00 49.69 LIG-0.29  OA
ENDBRANCH 29 34
ENDBRANCH 27 29
ENDBRANCH 24 25
BRANCH 24 36
ATOM     36  CB  ASP D 180      71.370 -27.213  75.840  1.00 41.39 LIG 0.15  C 
BRANCH 36 37
ATOM     37  CG  ASP D 180      70.466 -26.180  75.198  1.00 35.24 LIG 0.17  C 
ATOM     38 OD1  ASP D 180      69.989 -26.413  74.066  1.00 51.10 LIG-0.65  OA
ATOM     39 OD2  ASP D 180      70.213 -25.140  75.843  1.00 19.64 LIG-0.65  OA
ENDBRANCH 36 37
ENDBRANCH 24 36
ENDBRANCH 3 24
TORSDOF 16
ENDMDL
MODEL 61
USER: ADFR SOLUTION from run 115
USER: SCORE 11.295942 LL:  -1.821 LR: -10.324 RR:   0.000 FEB:  -5.551
USER: RMSD 5.773769
USER: SEED 114
USER: STATUS no improvement in best in 27 clusters for 5 generations
USER: GENES 18
USER: genes 0 Translation |==|  0.47767 0.64459 0.61134
USER: genes 1 Rotation |==|  0.68134 0.18983 0.15797 0.56265
USER: genes 2 Torsion [N]-C--CA-[N] |==|  0.33488
USER: genes 3 Torsion [C]-CA--CB-[CG] |==|  0.51260
USER: genes 4 Torsion [CA]-CB--CG-[OD1] |==|  0.21529
USER: genes 5 Torsion [C]-CA--N-[C] |==|  0.77030
USER: genes 6 Torsion [N]-C--CA-[N] |==|  0.76111
USER: genes 7 Torsion [C]-CA--N-[C] |==|  0.62786
USER: genes 8 Torsion [N]-C--CA-[N] |==|  0.64139
USER: genes 9 Torsion [C]-CA--CB-[CG1] |==|  0.23094
USER: genes 10 Torsion [C]-N--CA-[CB] |==|  0.14057
USER: genes 11 Torsion [N]-CA--C-[N] |==|  0.11736
USER: genes 12 Torsion [C]-N--CA-[CB] |==|  0.19655
USER: genes 13 Torsion [N]-CA--CB-[CG] |==|  0.52878
USER: genes 14 Torsion [CA]-CB--CG-[OD2] |==|  0.74269
USER: genes 15 Torsion [N]-CA--C-[O] |==|  0.95579
USER: genes 16 Torsion [N]-CA--CB-[CG] |==|  0.61769
USER: genes 17 Torsion [CA]-CB--CG-[OD1] |==|  0.95808
ROOT
ATOM      1  C   ASP D 179      71.763 -22.796  80.760  1.00 41.71 LIG 0.24  C 
ATOM      2 O    ASP D 179      71.783 -21.844  79.980  1.00 47.20 LIG-0.27  OA
ATOM      3  N   ASP D 180      70.968 -22.858  81.828  1.00 48.22 LIG-0.34  N 
ATOM      4 H    ASP D 180      70.906 -23.558  82.324  1.00 48.22 LIG 0.16  HD
ENDROOT
BRANCH 1 5
ATOM      5  CA  ASP D 179      72.664 -24.015  80.555  1.00 44.60 LIG 0.19  C 
BRANCH 5 6
ATOM      6  CB  ASP D 179      74.143 -23.663  80.750  1.00 48.27 LIG 0.15  C 
BRANCH 6 7
ATOM      7  CG  ASP D 179      75.062 -24.841  80.441  1.00 46.68 LIG 0.17  C 
ATOM      8 OD1  ASP D 179      75.296 -25.125  79.245  1.00 58.91 LIG-0.65  OA
ATOM      9 OD2  ASP D 179      75.572 -25.475  81.388  1.00 62.78 LIG-0.65  OA
ENDBRANCH 6 7
ENDBRANCH 5 6
BRANCH 5 10
ATOM     10  N   ASP D 179      72.376 -24.625  79.250  1.00 43.40 LIG-0.34  N 
ATOM     11 H    ASP D 179      72.933 -24.366  78.647  1.00 43.40 LIG 0.16  HD
ATOM     12  C   VAL D 178      71.396 -25.477  78.962  1.00 52.66 LIG 0.24  C 
ATOM     13 O    VAL D 178      70.389 -25.653  79.655  1.00 53.52 LIG-0.27  OA
BRANCH 12 14
ATOM     14  CA  VAL D 178      71.609 -26.256  77.658  1.00 43.72 LIG 0.18  C 
BRANCH 14 15
ATOM     15  N   VAL D 178      71.122 -25.509  76.514  1.00 54.34 LIG-0.35  N 
ATOM     16  C   GLY D 177      70.374 -26.062  75.566  1.00 48.99 LIG 0.25  C 
ATOM     17 O    GLY D 177      69.954 -25.421  74.612  1.00 61.87 LIG-0.27  OA
ATOM     18 H    VAL D 178      71.361 -24.682  76.509  1.00 54.34 LIG 0.16  HD
BRANCH 16 19
ATOM     19  CA  GLY D 177      70.032 -27.535  75.705  1.00 38.66 LIG 0.47  C 
ATOM     20  N   GLY D 177      70.334 -28.278  74.492  1.00 37.02 LIG 0.61  N 
ENDBRANCH 16 19
ENDBRANCH 14 15
BRANCH 14 21
ATOM     21  CB  VAL D 178      73.094 -26.634  77.470  1.00 39.80 LIG 0.01  C 
ATOM     22  CG2 VAL D 178      73.412 -26.847  76.005  1.00 46.96 LIG 0.01  C 
ATOM     23  CG1 VAL D 178      73.401 -27.911  78.254  1.00 37.07 LIG 0.01  C 
ENDBRANCH 14 21
ENDBRANCH 12 14
ENDBRANCH 5 10
ENDBRANCH 1 5
BRANCH 3 24
ATOM     24  CA  ASP D 180      70.120 -21.753  82.268  1.00 47.37 LIG 0.19  C 
BRANCH 24 25
ATOM     25  C   ASP D 180      69.198 -22.249  83.380  1.00 52.09 LIG 0.24  C 
ATOM     26 O    ASP D 180      68.013 -21.907  83.408  1.00 46.90 LIG-0.27  OA
ATOM     27  N   ASP D 181      69.734 -23.040  84.303  1.00 56.67 LIG-0.35  N 
ATOM     28 H    ASP D 181      70.558 -23.286  84.313  1.00 56.67 LIG 0.16  HD
BRANCH 27 29
ATOM     29  CA  ASP D 181      68.927 -23.560  85.399  1.00 54.32 LIG 0.17  C 
BRANCH 29 30
ATOM     30  CB  ASP D 181      67.941 -24.606  84.883  1.00 57.98 LIG 0.15  C 
BRANCH 30 31
ATOM     31  CG  ASP D 181      66.914 -24.996  85.923  1.00 59.80 LIG 0.17  C 
ATOM     32 OD2  ASP D 181      67.150 -25.982  86.654  1.00 65.59 LIG-0.65  OA
ATOM     33 OD1  ASP D 181      65.868 -24.319  86.008  1.00 62.88 LIG-0.65  OA
ENDBRANCH 30 31
ENDBRANCH 29 30
BRANCH 29 34
ATOM     34  C   ASP D 181      69.797 -24.152  86.502  1.00 55.94 LIG 0.22  C 
ATOM     35 O    ASP D 181      70.983 -24.422  86.292  1.00 49.69 LIG-0.29  OA
ENDBRANCH 29 34
ENDBRANCH 27 29
ENDBRANCH 24 25
BRANCH 24 36
ATOM     36  CB  ASP D 180      69.277 -21.205  81.115  1.00 41.39 LIG 0.15  C 
BRANCH 36 37
ATOM     37  CG  ASP D 180      69.215 -19.691  81.097  1.00 35.24 LIG 0.17  C 
ATOM     38 OD1  ASP D 180      69.574 -19.059  82.115  1.00 51.10 LIG-0.65  OA
ATOM     39 OD2  ASP D 180      68.830 -19.132  80.048  1.00 19.64 LIG-0.65  OA
ENDBRANCH 36 37
ENDBRANCH 24 36
ENDBRANCH 3 24
TORSDOF 16
ENDMDL
MODEL 62
USER: ADFR SOLUTION from run 24
USER: SCORE 12.322117 LL:  -3.081 LR: -10.319 RR:   0.000 FEB:  -5.546
USER: RMSD 8.127555
USER: SEED 23
USER: STATUS no improvement in best in 9 clusters for 5 generations
USER: GENES 18
USER: genes 0 Translation |==|  0.39280 0.49850 0.38950
USER: genes 1 Rotation |==|  0.56902 0.78937 0.75953 0.80683
USER: genes 2 Torsion [N]-C--CA-[N] |==|  0.19608
USER: genes 3 Torsion [C]-CA--CB-[CG] |==|  0.67852
USER: genes 4 Torsion [CA]-CB--CG-[OD1] |==|  0.65350
USER: genes 5 Torsion [C]-CA--N-[C] |==|  0.74445
USER: genes 6 Torsion [N]-C--CA-[N] |==|  0.24776
USER: genes 7 Torsion [C]-CA--N-[C] |==|  0.73809
USER: genes 8 Torsion [N]-C--CA-[N] |==|  0.47467
USER: genes 9 Torsion [C]-CA--CB-[CG1] |==|  0.22298
USER: genes 10 Torsion [C]-N--CA-[CB] |==|  0.54001
USER: genes 11 Torsion [N]-CA--C-[N] |==|  0.32176
USER: genes 12 Torsion [C]-N--CA-[CB] |==|  0.32770
USER: genes 13 Torsion [N]-CA--CB-[CG] |==|  0.41316
USER: genes 14 Torsion [CA]-CB--CG-[OD2] |==|  0.67209
USER: genes 15 Torsion [N]-CA--C-[O] |==|  0.90978
USER: genes 16 Torsion [N]-CA--CB-[CG] |==|  0.61719
USER: genes 17 Torsion [CA]-CB--CG-[OD1] |==|  0.50789
ROOT
ATOM      1  C   ASP D 179      70.109 -25.535  77.100  1.00 41.71 LIG 0.24  C 
ATOM      2 O    ASP D 179      71.249 -25.881  76.792  1.00 47.20 LIG-0.27  OA
ATOM      3  N   ASP D 180      69.841 -24.636  78.046  1.00 48.22 LIG-0.34  N 
ATOM      4 H    ASP D 180      69.047 -24.344  78.203  1.00 48.22 LIG 0.16  HD
ENDROOT
BRANCH 1 5
ATOM      5  CA  ASP D 179      68.881 -26.116  76.397  1.00 44.60 LIG 0.19  C 
BRANCH 5 6
ATOM      6  CB  ASP D 179      69.219 -27.409  75.647  1.00 48.27 LIG 0.15  C 
BRANCH 6 7
ATOM      7  CG  ASP D 179      69.039 -27.265  74.139  1.00 46.68 LIG 0.17  C 
ATOM      8 OD1  ASP D 179      68.291 -28.070  73.541  1.00 58.91 LIG-0.65  OA
ATOM      9 OD2  ASP D 179      69.626 -26.336  73.545  1.00 62.78 LIG-0.65  OA
ENDBRANCH 6 7
ENDBRANCH 5 6
BRANCH 5 10
ATOM     10  N   ASP D 179      68.271 -25.088  75.543  1.00 43.40 LIG-0.34  N 
ATOM     11 H    ASP D 179      68.618 -25.080  74.756  1.00 43.40 LIG 0.16  HD
ATOM     12  C   VAL D 178      67.301 -24.240  75.877  1.00 52.66 LIG 0.24  C 
ATOM     13 O    VAL D 178      66.973 -23.966  77.036  1.00 53.52 LIG-0.27  OA
BRANCH 12 14
ATOM     14  CA  VAL D 178      66.591 -23.599  74.678  1.00 43.72 LIG 0.18  C 
BRANCH 14 15
ATOM     15  N   VAL D 178      65.467 -24.405  74.241  1.00 54.34 LIG-0.35  N 
ATOM     16  C   GLY D 177      65.569 -25.306  73.269  1.00 48.99 LIG 0.25  C 
ATOM     17 O    GLY D 177      64.620 -25.993  72.917  1.00 61.87 LIG-0.27  OA
ATOM     18 H    VAL D 178      64.737 -24.246  74.666  1.00 54.34 LIG 0.16  HD
BRANCH 16 19
ATOM     19  CA  GLY D 177      66.924 -25.478  72.604  1.00 38.66 LIG 0.47  C 
ATOM     20  N   GLY D 177      66.949 -26.628  71.717  1.00 37.02 LIG 0.61  N 
ENDBRANCH 16 19
ENDBRANCH 14 15
BRANCH 14 21
ATOM     21  CB  VAL D 178      66.138 -22.160  75.002  1.00 39.80 LIG 0.01  C 
ATOM     22  CG2 VAL D 178      65.025 -21.727  74.073  1.00 46.96 LIG 0.01  C 
ATOM     23  CG1 VAL D 178      67.325 -21.205  74.864  1.00 37.07 LIG 0.01  C 
ENDBRANCH 14 21
ENDBRANCH 12 14
ENDBRANCH 5 10
ENDBRANCH 1 5
BRANCH 3 24
ATOM     24  CA  ASP D 180      70.860 -24.050  78.914  1.00 47.37 LIG 0.19  C 
BRANCH 24 25
ATOM     25  C   ASP D 180      71.784 -25.160  79.412  1.00 52.09 LIG 0.24  C 
ATOM     26 O    ASP D 180      71.349 -26.052  80.145  1.00 46.90 LIG-0.27  OA
ATOM     27  N   ASP D 181      73.055 -25.105  79.033  1.00 56.67 LIG-0.35  N 
ATOM     28 H    ASP D 181      73.387 -24.490  78.531  1.00 56.67 LIG 0.16  HD
BRANCH 27 29
ATOM     29  CA  ASP D 181      74.006 -26.123  79.461  1.00 54.32 LIG 0.17  C 
BRANCH 29 30
ATOM     30  CB  ASP D 181      74.564 -26.871  78.251  1.00 57.98 LIG 0.15  C 
BRANCH 30 31
ATOM     31  CG  ASP D 181      75.984 -27.345  78.468  1.00 59.80 LIG 0.17  C 
ATOM     32 OD2  ASP D 181      76.881 -26.904  77.718  1.00 65.59 LIG-0.65  OA
ATOM     33 OD1  ASP D 181      76.204 -28.162  79.387  1.00 62.88 LIG-0.65  OA
ENDBRANCH 30 31
ENDBRANCH 29 30
BRANCH 29 34
ATOM     34  C   ASP D 181      75.141 -25.520  80.280  1.00 55.94 LIG 0.22  C 
ATOM     35 O    ASP D 181      75.547 -24.378  80.048  1.00 49.69 LIG-0.29  OA
ENDBRANCH 29 34
ENDBRANCH 27 29
ENDBRANCH 24 25
BRANCH 24 36
ATOM     36  CB  ASP D 180      70.229 -23.337  80.111  1.00 41.39 LIG 0.15  C 
BRANCH 36 37
ATOM     37  CG  ASP D 180      70.890 -22.009  80.423  1.00 35.24 LIG 0.17  C 
ATOM     38 OD1  ASP D 180      70.497 -21.356  81.414  1.00 51.10 LIG-0.65  OA
ATOM     39 OD2  ASP D 180      71.824 -21.631  79.684  1.00 19.64 LIG-0.65  OA
ENDBRANCH 36 37
ENDBRANCH 24 36
ENDBRANCH 3 24
TORSDOF 16
ENDMDL
MODEL 63
USER: ADFR SOLUTION from run 125
USER: SCORE 10.428070 LL:  -1.173 LR: -10.309 RR:   0.000 FEB:  -5.536
USER: RMSD 6.441076
USER: SEED 124
USER: STATUS no improvement in best in 12 clusters for 5 generations
USER: GENES 18
USER: genes 0 Translation |==|  0.52122 0.56733 0.54444
USER: genes 1 Rotation |==|  0.47894 0.20219 0.12700 0.64744
USER: genes 2 Torsion [N]-C--CA-[N] |==|  0.42444
USER: genes 3 Torsion [C]-CA--CB-[CG] |==|  0.12323
USER: genes 4 Torsion [CA]-CB--CG-[OD1] |==|  0.76654
USER: genes 5 Torsion [C]-CA--N-[C] |==|  0.67202
USER: genes 6 Torsion [N]-C--CA-[N] |==|  0.90556
USER: genes 7 Torsion [C]-CA--N-[C] |==|  0.65002
USER: genes 8 Torsion [N]-C--CA-[N] |==|  0.44291
USER: genes 9 Torsion [C]-CA--CB-[CG1] |==|  0.15163
USER: genes 10 Torsion [C]-N--CA-[CB] |==|  0.23245
USER: genes 11 Torsion [N]-CA--C-[N] |==|  0.98959
USER: genes 12 Torsion [C]-N--CA-[CB] |==|  0.38262
USER: genes 13 Torsion [N]-CA--CB-[CG] |==|  0.14103
USER: genes 14 Torsion [CA]-CB--CG-[OD2] |==|  0.28591
USER: genes 15 Torsion [N]-CA--C-[O] |==|  0.94799
USER: genes 16 Torsion [N]-CA--CB-[CG] |==|  0.72072
USER: genes 17 Torsion [CA]-CB--CG-[OD1] |==|  0.52245
ROOT
ATOM      1  C   ASP D 179      72.613 -24.245  79.656  1.00 41.71 LIG 0.24  C 
ATOM      2 O    ASP D 179      72.225 -23.334  78.925  1.00 47.20 LIG-0.27  OA
ATOM      3  N   ASP D 180      72.899 -24.082  80.948  1.00 48.22 LIG-0.34  N 
ATOM      4 H    ASP D 180      73.096 -24.738  81.469  1.00 48.22 LIG 0.16  HD
ENDROOT
BRANCH 1 5
ATOM      5  CA  ASP D 179      72.790 -25.670  79.131  1.00 44.60 LIG 0.19  C 
BRANCH 5 6
ATOM      6  CB  ASP D 179      74.258 -25.975  78.813  1.00 48.27 LIG 0.15  C 
BRANCH 6 7
ATOM      7  CG  ASP D 179      75.200 -25.482  79.906  1.00 46.68 LIG 0.17  C 
ATOM      8 OD1  ASP D 179      75.572 -24.287  79.888  1.00 58.91 LIG-0.65  OA
ATOM      9 OD2  ASP D 179      75.556 -26.275  80.802  1.00 62.78 LIG-0.65  OA
ENDBRANCH 6 7
ENDBRANCH 5 6
BRANCH 5 10
ATOM     10  N   ASP D 179      71.888 -25.890  77.992  1.00 43.40 LIG-0.34  N 
ATOM     11 H    ASP D 179      72.065 -25.361  77.338  1.00 43.40 LIG 0.16  HD
ATOM     12  C   VAL D 178      70.899 -26.777  77.913  1.00 52.66 LIG 0.24  C 
ATOM     13 O    VAL D 178      70.378 -27.339  78.881  1.00 53.52 LIG-0.27  OA
BRANCH 12 14
ATOM     14  CA  VAL D 178      70.431 -27.063  76.480  1.00 43.72 LIG 0.18  C 
BRANCH 14 15
ATOM     15  N   VAL D 178      70.524 -25.877  75.651  1.00 54.34 LIG-0.35  N 
ATOM     16  C   GLY D 177      69.492 -25.406  74.960  1.00 48.99 LIG 0.25  C 
ATOM     17 O    GLY D 177      69.574 -24.396  74.274  1.00 61.87 LIG-0.27  OA
ATOM     18 H    VAL D 178      71.303 -25.512  75.648  1.00 54.34 LIG 0.16  HD
BRANCH 16 19
ATOM     19  CA  GLY D 177      68.175 -26.157  75.057  1.00 38.66 LIG 0.47  C 
ATOM     20  N   GLY D 177      67.047 -25.323  74.677  1.00 37.02 LIG 0.61  N 
ENDBRANCH 16 19
ENDBRANCH 14 15
BRANCH 14 21
ATOM     21  CB  VAL D 178      71.227 -28.229  75.856  1.00 39.80 LIG 0.01  C 
ATOM     22  CG2 VAL D 178      70.687 -28.573  74.485  1.00 46.96 LIG 0.01  C 
ATOM     23  CG1 VAL D 178      71.137 -29.455  76.767  1.00 37.07 LIG 0.01  C 
ENDBRANCH 14 21
ENDBRANCH 12 14
ENDBRANCH 5 10
ENDBRANCH 1 5
BRANCH 3 24
ATOM     24  CA  ASP D 180      72.909 -22.783  81.615  1.00 47.37 LIG 0.19  C 
BRANCH 24 25
ATOM     25  C   ASP D 180      73.824 -22.860  82.836  1.00 52.09 LIG 0.24  C 
ATOM     26 O    ASP D 180      74.051 -21.853  83.510  1.00 46.90 LIG-0.27  OA
ATOM     27  N   ASP D 181      74.361 -24.042  83.116  1.00 56.67 LIG-0.35  N 
ATOM     28 H    ASP D 181      74.227 -24.758  82.658  1.00 56.67 LIG 0.16  HD
BRANCH 27 29
ATOM     29  CA  ASP D 181      75.245 -24.206  84.263  1.00 54.32 LIG 0.17  C 
BRANCH 29 30
ATOM     30  CB  ASP D 181      74.924 -25.506  84.999  1.00 57.98 LIG 0.15  C 
BRANCH 30 31
ATOM     31  CG  ASP D 181      74.872 -26.699  84.071  1.00 59.80 LIG 0.17  C 
ATOM     32 OD2  ASP D 181      75.845 -27.484  84.054  1.00 65.59 LIG-0.65  OA
ATOM     33 OD1  ASP D 181      73.859 -26.853  83.357  1.00 62.88 LIG-0.65  OA
ENDBRANCH 30 31
ENDBRANCH 29 30
BRANCH 29 34
ATOM     34  C   ASP D 181      76.711 -24.182  83.846  1.00 55.94 LIG 0.22  C 
ATOM     35 O    ASP D 181      77.036 -24.382  82.673  1.00 49.69 LIG-0.29  OA
ENDBRANCH 29 34
ENDBRANCH 27 29
ENDBRANCH 24 25
BRANCH 24 36
ATOM     36  CB  ASP D 180      71.503 -22.374  82.058  1.00 41.39 LIG 0.15  C 
BRANCH 36 37
ATOM     37  CG  ASP D 180      70.855 -21.377  81.118  1.00 35.24 LIG 0.17  C 
ATOM     38 OD1  ASP D 180      69.771 -20.850  81.450  1.00 51.10 LIG-0.65  OA
ATOM     39 OD2  ASP D 180      71.449 -21.103  80.054  1.00 19.64 LIG-0.65  OA
ENDBRANCH 36 37
ENDBRANCH 24 36
ENDBRANCH 3 24
TORSDOF 16
ENDMDL
MODEL 64
USER: ADFR SOLUTION from run 37
USER: SCORE 11.549764 LL:  -2.711 LR: -10.306 RR:   0.000 FEB:  -5.533
USER: RMSD 7.582282
USER: SEED 36
USER: STATUS no improvement in best in 8 clusters for 5 generations
USER: GENES 18
USER: genes 0 Translation |==|  0.39982 0.47664 0.27513
USER: genes 1 Rotation |==|  0.77771 0.66786 0.64498 0.85168
USER: genes 2 Torsion [N]-C--CA-[N] |==|  0.58514
USER: genes 3 Torsion [C]-CA--CB-[CG] |==|  0.51334
USER: genes 4 Torsion [CA]-CB--CG-[OD1] |==|  0.16846
USER: genes 5 Torsion [C]-CA--N-[C] |==|  0.14611
USER: genes 6 Torsion [N]-C--CA-[N] |==|  0.93621
USER: genes 7 Torsion [C]-CA--N-[C] |==|  0.78295
USER: genes 8 Torsion [N]-C--CA-[N] |==|  0.37487
USER: genes 9 Torsion [C]-CA--CB-[CG1] |==|  0.53849
USER: genes 10 Torsion [C]-N--CA-[CB] |==|  0.18511
USER: genes 11 Torsion [N]-CA--C-[N] |==|  0.84359
USER: genes 12 Torsion [C]-N--CA-[CB] |==|  0.19095
USER: genes 13 Torsion [N]-CA--CB-[CG] |==|  0.29042
USER: genes 14 Torsion [CA]-CB--CG-[OD2] |==|  0.73719
USER: genes 15 Torsion [N]-CA--C-[O] |==|  0.04277
USER: genes 16 Torsion [N]-CA--CB-[CG] |==|  0.56274
USER: genes 17 Torsion [CA]-CB--CG-[OD1] |==|  0.11788
ROOT
ATOM      1  C   ASP D 179      70.246 -25.945  75.213  1.00 41.71 LIG 0.24  C 
ATOM      2 O    ASP D 179      70.655 -26.840  74.473  1.00 47.20 LIG-0.27  OA
ATOM      3  N   ASP D 180      70.692 -25.751  76.453  1.00 48.22 LIG-0.34  N 
ATOM      4 H    ASP D 180      70.455 -25.079  76.935  1.00 48.22 LIG 0.16  HD
ENDROOT
BRANCH 1 5
ATOM      5  CA  ASP D 179      69.174 -24.956  74.751  1.00 44.60 LIG 0.19  C 
BRANCH 5 6
ATOM      6  CB  ASP D 179      68.442 -24.323  75.938  1.00 48.27 LIG 0.15  C 
BRANCH 6 7
ATOM      7  CG  ASP D 179      67.293 -23.423  75.494  1.00 46.68 LIG 0.17  C 
ATOM      8 OD1  ASP D 179      66.354 -23.924  74.835  1.00 58.91 LIG-0.65  OA
ATOM      9 OD2  ASP D 179      67.307 -22.217  75.818  1.00 62.78 LIG-0.65  OA
ENDBRANCH 6 7
ENDBRANCH 5 6
BRANCH 5 10
ATOM     10  N   ASP D 179      68.275 -25.616  73.795  1.00 43.40 LIG-0.34  N 
ATOM     11 H    ASP D 179      68.199 -25.167  73.065  1.00 43.40 LIG 0.16  HD
ATOM     12  C   VAL D 178      67.625 -26.765  73.967  1.00 52.66 LIG 0.24  C 
ATOM     13 O    VAL D 178      67.422 -27.302  75.061  1.00 53.52 LIG-0.27  OA
BRANCH 12 14
ATOM     14  CA  VAL D 178      67.124 -27.400  72.664  1.00 43.72 LIG 0.18  C 
BRANCH 14 15
ATOM     15  N   VAL D 178      66.982 -26.407  71.616  1.00 54.34 LIG-0.35  N 
ATOM     16  C   GLY D 177      65.948 -25.574  71.557  1.00 48.99 LIG 0.25  C 
ATOM     17 O    GLY D 177      65.843 -24.728  70.679  1.00 61.87 LIG-0.27  OA
ATOM     18 H    VAL D 178      67.624 -26.408  71.044  1.00 54.34 LIG 0.16  HD
BRANCH 16 19
ATOM     19  CA  GLY D 177      64.886 -25.688  72.637  1.00 38.66 LIG 0.47  C 
ATOM     20  N   GLY D 177      64.497 -24.386  73.153  1.00 37.02 LIG 0.61  N 
ENDBRANCH 16 19
ENDBRANCH 14 15
BRANCH 14 21
ATOM     21  CB  VAL D 178      68.053 -28.545  72.208  1.00 39.80 LIG 0.01  C 
ATOM     22  CG2 VAL D 178      69.505 -28.132  72.317  1.00 46.96 LIG 0.01  C 
ATOM     23  CG1 VAL D 178      67.732 -28.918  70.759  1.00 37.07 LIG 0.01  C 
ENDBRANCH 14 21
ENDBRANCH 12 14
ENDBRANCH 5 10
ENDBRANCH 1 5
BRANCH 3 24
ATOM     24  CA  ASP D 180      71.625 -26.651  77.125  1.00 47.37 LIG 0.19  C 
BRANCH 24 25
ATOM     25  C   ASP D 180      71.767 -26.219  78.583  1.00 52.09 LIG 0.24  C 
ATOM     26 O    ASP D 180      71.521 -27.011  79.496  1.00 46.90 LIG-0.27  OA
ATOM     27  N   ASP D 181      72.149 -24.967  78.809  1.00 56.67 LIG-0.35  N 
ATOM     28 H    ASP D 181      72.318 -24.392  78.193  1.00 56.67 LIG 0.16  HD
BRANCH 27 29
ATOM     29  CA  ASP D 181      72.310 -24.471  80.170  1.00 54.32 LIG 0.17  C 
BRANCH 29 30
ATOM     30  CB  ASP D 181      73.507 -25.142  80.841  1.00 57.98 LIG 0.15  C 
BRANCH 30 31
ATOM     31  CG  ASP D 181      74.708 -24.227  80.933  1.00 59.80 LIG 0.17  C 
ATOM     32 OD2  ASP D 181      75.574 -24.288  80.034  1.00 65.59 LIG-0.65  OA
ATOM     33 OD1  ASP D 181      74.788 -23.447  81.906  1.00 62.88 LIG-0.65  OA
ENDBRANCH 30 31
ENDBRANCH 29 30
BRANCH 29 34
ATOM     34  C   ASP D 181      72.470 -22.955  80.197  1.00 55.94 LIG 0.22  C 
ATOM     35 O    ASP D 181      72.176 -22.273  79.212  1.00 49.69 LIG-0.29  OA
ENDBRANCH 29 34
ENDBRANCH 27 29
ENDBRANCH 24 25
BRANCH 24 36
ATOM     36  CB  ASP D 180      72.999 -26.633  76.453  1.00 41.39 LIG 0.15  C 
BRANCH 36 37
ATOM     37  CG  ASP D 180      73.808 -27.884  76.729  1.00 35.24 LIG 0.17  C 
ATOM     38 OD1  ASP D 180      73.236 -28.995  76.686  1.00 51.10 LIG-0.65  OA
ATOM     39 OD2  ASP D 180      75.028 -27.754  76.964  1.00 19.64 LIG-0.65  OA
ENDBRANCH 36 37
ENDBRANCH 24 36
ENDBRANCH 3 24
TORSDOF 16
ENDMDL
MODEL 65
USER: ADFR SOLUTION from run 58
USER: SCORE 10.163152 LL:  -1.680 LR: -10.257 RR:   0.000 FEB:  -5.484
USER: RMSD 7.733495
USER: SEED 57
USER: STATUS no improvement in best in 21 clusters for 5 generations
USER: GENES 18
USER: genes 0 Translation |==|  0.27626 0.59279 0.52429
USER: genes 1 Rotation |==|  0.28530 0.33077 0.17158 0.75964
USER: genes 2 Torsion [N]-C--CA-[N] |==|  0.70398
USER: genes 3 Torsion [C]-CA--CB-[CG] |==|  0.44100
USER: genes 4 Torsion [CA]-CB--CG-[OD1] |==|  0.90849
USER: genes 5 Torsion [C]-CA--N-[C] |==|  0.13975
USER: genes 6 Torsion [N]-C--CA-[N] |==|  0.30755
USER: genes 7 Torsion [C]-CA--N-[C] |==|  0.70899
USER: genes 8 Torsion [N]-C--CA-[N] |==|  0.60737
USER: genes 9 Torsion [C]-CA--CB-[CG1] |==|  0.08197
USER: genes 10 Torsion [C]-N--CA-[CB] |==|  0.23333
USER: genes 11 Torsion [N]-CA--C-[N] |==|  0.88536
USER: genes 12 Torsion [C]-N--CA-[CB] |==|  0.32807
USER: genes 13 Torsion [N]-CA--CB-[CG] |==|  0.53421
USER: genes 14 Torsion [CA]-CB--CG-[OD2] |==|  0.06110
USER: genes 15 Torsion [N]-CA--C-[O] |==|  0.42445
USER: genes 16 Torsion [N]-CA--CB-[CG] |==|  0.56912
USER: genes 17 Torsion [CA]-CB--CG-[OD1] |==|  0.58535
ROOT
ATOM      1  C   ASP D 179      67.836 -23.767  79.324  1.00 41.71 LIG 0.24  C 
ATOM      2 O    ASP D 179      67.120 -22.766  79.310  1.00 47.20 LIG-0.27  OA
ATOM      3  N   ASP D 180      69.110 -23.758  79.713  1.00 48.22 LIG-0.34  N 
ATOM      4 H    ASP D 180      69.580 -24.474  79.792  1.00 48.22 LIG 0.16  HD
ENDROOT
BRANCH 1 5
ATOM      5  CA  ASP D 179      67.303 -25.135  78.895  1.00 44.60 LIG 0.19  C 
BRANCH 5 6
ATOM      6  CB  ASP D 179      68.164 -26.275  79.450  1.00 48.27 LIG 0.15  C 
BRANCH 6 7
ATOM      7  CG  ASP D 179      67.409 -27.600  79.493  1.00 46.68 LIG 0.17  C 
ATOM      8 OD1  ASP D 179      66.176 -27.585  79.711  1.00 58.91 LIG-0.65  OA
ATOM      9 OD2  ASP D 179      68.035 -28.660  79.287  1.00 62.78 LIG-0.65  OA
ENDBRANCH 6 7
ENDBRANCH 5 6
BRANCH 5 10
ATOM     10  N   ASP D 179      67.159 -25.171  77.433  1.00 43.40 LIG-0.34  N 
ATOM     11 H    ASP D 179      66.381 -25.450  77.196  1.00 43.40 LIG 0.16  HD
ATOM     12  C   VAL D 178      68.074 -24.829  76.529  1.00 52.66 LIG 0.24  C 
ATOM     13 O    VAL D 178      69.284 -24.727  76.756  1.00 53.52 LIG-0.27  OA
BRANCH 12 14
ATOM     14  CA  VAL D 178      67.501 -24.563  75.132  1.00 43.72 LIG 0.18  C 
BRANCH 14 15
ATOM     15  N   VAL D 178      67.584 -23.156  74.790  1.00 54.34 LIG-0.35  N 
ATOM     16  C   GLY D 177      66.524 -22.355  74.801  1.00 48.99 LIG 0.25  C 
ATOM     17 O    GLY D 177      66.605 -21.165  74.526  1.00 61.87 LIG-0.27  OA
ATOM     18 H    VAL D 178      68.376 -22.893  74.581  1.00 54.34 LIG 0.16  HD
BRANCH 16 19
ATOM     19  CA  GLY D 177      65.185 -22.959  75.187  1.00 38.66 LIG 0.47  C 
ATOM     20  N   GLY D 177      64.098 -22.423  74.386  1.00 37.02 LIG 0.61  N 
ENDBRANCH 16 19
ENDBRANCH 14 15
BRANCH 14 21
ATOM     21  CB  VAL D 178      68.209 -25.426  74.065  1.00 39.80 LIG 0.01  C 
ATOM     22  CG2 VAL D 178      67.273 -25.733  72.916  1.00 46.96 LIG 0.01  C 
ATOM     23  CG1 VAL D 178      68.689 -26.732  74.700  1.00 37.07 LIG 0.01  C 
ENDBRANCH 14 21
ENDBRANCH 12 14
ENDBRANCH 5 10
ENDBRANCH 1 5
BRANCH 3 24
ATOM     24  CA  ASP D 180      69.843 -22.539  80.048  1.00 47.37 LIG 0.19  C 
BRANCH 24 25
ATOM     25  C   ASP D 180      71.336 -22.787  79.846  1.00 52.09 LIG 0.24  C 
ATOM     26 O    ASP D 180      72.046 -21.929  79.317  1.00 46.90 LIG-0.27  OA
ATOM     27  N   ASP D 181      71.815 -23.959  80.250  1.00 56.67 LIG-0.35  N 
ATOM     28 H    ASP D 181      71.342 -24.578  80.613  1.00 56.67 LIG 0.16  HD
BRANCH 27 29
ATOM     29  CA  ASP D 181      73.228 -24.279  80.096  1.00 54.32 LIG 0.17  C 
BRANCH 29 30
ATOM     30  CB  ASP D 181      73.872 -24.510  81.462  1.00 57.98 LIG 0.15  C 
BRANCH 30 31
ATOM     31  CG  ASP D 181      75.382 -24.552  81.392  1.00 59.80 LIG 0.17  C 
ATOM     32 OD2  ASP D 181      75.949 -24.007  80.421  1.00 65.59 LIG-0.65  OA
ATOM     33 OD1  ASP D 181      76.004 -25.132  82.307  1.00 62.88 LIG-0.65  OA
ENDBRANCH 30 31
ENDBRANCH 29 30
BRANCH 29 34
ATOM     34  C   ASP D 181      73.432 -25.497  79.203  1.00 55.94 LIG 0.22  C 
ATOM     35 O    ASP D 181      74.473 -25.637  78.556  1.00 49.69 LIG-0.29  OA
ENDBRANCH 29 34
ENDBRANCH 27 29
ENDBRANCH 24 25
BRANCH 24 36
ATOM     36  CB  ASP D 180      69.589 -22.116  81.496  1.00 41.39 LIG 0.15  C 
BRANCH 36 37
ATOM     37  CG  ASP D 180      69.797 -20.632  81.723  1.00 35.24 LIG 0.17  C 
ATOM     38 OD1  ASP D 180      70.193 -20.241  82.842  1.00 51.10 LIG-0.65  OA
ATOM     39 OD2  ASP D 180      69.586 -19.858  80.766  1.00 19.64 LIG-0.65  OA
ENDBRANCH 36 37
ENDBRANCH 24 36
ENDBRANCH 3 24
TORSDOF 16
ENDMDL
MODEL 66
USER: ADFR SOLUTION from run 153
USER: SCORE 11.518389 LL:  -2.560 LR: -10.263 RR:   0.000 FEB:  -5.490
USER: RMSD 3.819918
USER: SEED 152
USER: STATUS no improvement in best in 9 clusters for 5 generations
USER: GENES 18
USER: genes 0 Translation |==|  0.58591 0.41940 0.43306
USER: genes 1 Rotation |==|  0.57419 0.56220 0.56969 0.98556
USER: genes 2 Torsion [N]-C--CA-[N] |==|  0.38109
USER: genes 3 Torsion [C]-CA--CB-[CG] |==|  0.75831
USER: genes 4 Torsion [CA]-CB--CG-[OD1] |==|  0.07036
USER: genes 5 Torsion [C]-CA--N-[C] |==|  0.84444
USER: genes 6 Torsion [N]-C--CA-[N] |==|  0.97172
USER: genes 7 Torsion [C]-CA--N-[C] |==|  0.77847
USER: genes 8 Torsion [N]-C--CA-[N] |==|  0.32597
USER: genes 9 Torsion [C]-CA--CB-[CG1] |==|  0.23120
USER: genes 10 Torsion [C]-N--CA-[CB] |==|  0.15137
USER: genes 11 Torsion [N]-CA--C-[N] |==|  0.31355
USER: genes 12 Torsion [C]-N--CA-[CB] |==|  0.43883
USER: genes 13 Torsion [N]-CA--CB-[CG] |==|  0.76344
USER: genes 14 Torsion [CA]-CB--CG-[OD2] |==|  0.54807
USER: genes 15 Torsion [N]-CA--C-[O] |==|  0.45650
USER: genes 16 Torsion [N]-CA--CB-[CG] |==|  0.49942
USER: genes 17 Torsion [CA]-CB--CG-[OD1] |==|  0.75384
ROOT
ATOM      1  C   ASP D 179      73.874 -27.018  77.818  1.00 41.71 LIG 0.24  C 
ATOM      2 O    ASP D 179      73.984 -28.160  78.266  1.00 47.20 LIG-0.27  OA
ATOM      3  N   ASP D 180      73.928 -25.922  78.574  1.00 48.22 LIG-0.34  N 
ATOM      4 H    ASP D 180      73.927 -25.127  78.245  1.00 48.22 LIG 0.16  HD
ENDROOT
BRANCH 1 5
ATOM      5  CA  ASP D 179      73.674 -26.762  76.324  1.00 44.60 LIG 0.19  C 
BRANCH 5 6
ATOM      6  CB  ASP D 179      72.199 -26.877  75.924  1.00 48.27 LIG 0.15  C 
BRANCH 6 7
ATOM      7  CG  ASP D 179      71.804 -28.311  75.585  1.00 46.68 LIG 0.17  C 
ATOM      8 OD1  ASP D 179      72.458 -29.252  76.088  1.00 58.91 LIG-0.65  OA
ATOM      9 OD2  ASP D 179      70.827 -28.507  74.832  1.00 62.78 LIG-0.65  OA
ENDBRANCH 6 7
ENDBRANCH 5 6
BRANCH 5 10
ATOM     10  N   ASP D 179      74.559 -27.644  75.551  1.00 43.40 LIG-0.34  N 
ATOM     11 H    ASP D 179      74.120 -28.124  74.988  1.00 43.40 LIG 0.16  HD
ATOM     12  C   VAL D 178      75.882 -27.744  75.655  1.00 52.66 LIG 0.24  C 
ATOM     13 O    VAL D 178      76.544 -27.349  76.620  1.00 53.52 LIG-0.27  OA
BRANCH 12 14
ATOM     14  CA  VAL D 178      76.555 -28.411  74.449  1.00 43.72 LIG 0.18  C 
BRANCH 14 15
ATOM     15  N   VAL D 178      75.573 -29.002  73.561  1.00 54.34 LIG-0.35  N 
ATOM     16  C   GLY D 177      75.006 -30.179  73.804  1.00 48.99 LIG 0.25  C 
ATOM     17 O    GLY D 177      74.167 -30.664  73.057  1.00 61.87 LIG-0.27  OA
ATOM     18 H    VAL D 178      75.394 -28.523  72.869  1.00 54.34 LIG 0.16  HD
BRANCH 16 19
ATOM     19  CA  GLY D 177      75.422 -30.917  75.065  1.00 38.66 LIG 0.47  C 
ATOM     20  N   GLY D 177      74.308 -31.095  75.980  1.00 37.02 LIG 0.61  N 
ENDBRANCH 16 19
ENDBRANCH 14 15
BRANCH 14 21
ATOM     21  CB  VAL D 178      77.449 -27.411  73.686  1.00 39.80 LIG 0.01  C 
ATOM     22  CG2 VAL D 178      77.624 -27.840  72.245  1.00 46.96 LIG 0.01  C 
ATOM     23  CG1 VAL D 178      78.816 -27.324  74.367  1.00 37.07 LIG 0.01  C 
ENDBRANCH 14 21
ENDBRANCH 12 14
ENDBRANCH 5 10
ENDBRANCH 1 5
BRANCH 3 24
ATOM     24  CA  ASP D 180      73.995 -25.949  80.033  1.00 47.37 LIG 0.19  C 
BRANCH 24 25
ATOM     25  C   ASP D 180      74.163 -24.521  80.548  1.00 52.09 LIG 0.24  C 
ATOM     26 O    ASP D 180      75.206 -23.899  80.333  1.00 46.90 LIG-0.27  OA
ATOM     27  N   ASP D 181      73.152 -24.003  81.237  1.00 56.67 LIG-0.35  N 
ATOM     28 H    ASP D 181      72.419 -24.418  81.409  1.00 56.67 LIG 0.16  HD
BRANCH 27 29
ATOM     29  CA  ASP D 181      73.227 -22.647  81.764  1.00 54.32 LIG 0.17  C 
BRANCH 29 30
ATOM     30  CB  ASP D 181      71.824 -22.097  82.016  1.00 57.98 LIG 0.15  C 
BRANCH 30 31
ATOM     31  CG  ASP D 181      71.211 -21.484  80.776  1.00 59.80 LIG 0.17  C 
ATOM     32 OD2  ASP D 181      70.231 -20.720  80.912  1.00 65.59 LIG-0.65  OA
ATOM     33 OD1  ASP D 181      71.708 -21.766  79.666  1.00 62.88 LIG-0.65  OA
ENDBRANCH 30 31
ENDBRANCH 29 30
BRANCH 29 34
ATOM     34  C   ASP D 181      74.055 -22.589  83.043  1.00 55.94 LIG 0.22  C 
ATOM     35 O    ASP D 181      74.470 -21.511  83.476  1.00 49.69 LIG-0.29  OA
ENDBRANCH 29 34
ENDBRANCH 27 29
ENDBRANCH 24 25
BRANCH 24 36
ATOM     36  CB  ASP D 180      75.165 -26.807  80.521  1.00 41.39 LIG 0.15  C 
BRANCH 36 37
ATOM     37  CG  ASP D 180      75.271 -26.856  82.032  1.00 35.24 LIG 0.17  C 
ATOM     38 OD1  ASP D 180      75.943 -25.981  82.619  1.00 51.10 LIG-0.65  OA
ATOM     39 OD2  ASP D 180      74.656 -27.761  82.634  1.00 19.64 LIG-0.65  OA
ENDBRANCH 36 37
ENDBRANCH 24 36
ENDBRANCH 3 24
TORSDOF 16
ENDMDL
MODEL 67
USER: ADFR SOLUTION from run 177
USER: SCORE 11.459229 LL:  -2.610 LR: -10.250 RR:   0.000 FEB:  -5.477
USER: RMSD 7.436371
USER: SEED 176
USER: STATUS no improvement in best in 4 clusters for 5 generations
USER: GENES 18
USER: genes 0 Translation |==|  0.36259 0.51982 0.38352
USER: genes 1 Rotation |==|  0.64925 0.78611 0.78160 0.75800
USER: genes 2 Torsion [N]-C--CA-[N] |==|  0.54175
USER: genes 3 Torsion [C]-CA--CB-[CG] |==|  0.53183
USER: genes 4 Torsion [CA]-CB--CG-[OD1] |==|  0.23374
USER: genes 5 Torsion [C]-CA--N-[C] |==|  0.79310
USER: genes 6 Torsion [N]-C--CA-[N] |==|  0.33580
USER: genes 7 Torsion [C]-CA--N-[C] |==|  0.78252
USER: genes 8 Torsion [N]-C--CA-[N] |==|  0.37763
USER: genes 9 Torsion [C]-CA--CB-[CG1] |==|  0.22727
USER: genes 10 Torsion [C]-N--CA-[CB] |==|  0.51111
USER: genes 11 Torsion [N]-CA--C-[N] |==|  0.34521
USER: genes 12 Torsion [C]-N--CA-[CB] |==|  0.79083
USER: genes 13 Torsion [N]-CA--CB-[CG] |==|  0.81856
USER: genes 14 Torsion [CA]-CB--CG-[OD2] |==|  0.50040
USER: genes 15 Torsion [N]-CA--C-[O] |==|  0.16331
USER: genes 16 Torsion [N]-CA--CB-[CG] |==|  0.68141
USER: genes 17 Torsion [CA]-CB--CG-[OD1] |==|  0.44576
ROOT
ATOM      1  C   ASP D 179      69.520 -25.135  77.001  1.00 41.71 LIG 0.24  C 
ATOM      2 O    ASP D 179      70.520 -25.375  76.326  1.00 47.20 LIG-0.27  OA
ATOM      3  N   ASP D 180      69.559 -24.539  78.192  1.00 48.22 LIG-0.34  N 
ATOM      4 H    ASP D 180      68.851 -24.307  78.623  1.00 48.22 LIG 0.16  HD
ENDROOT
BRANCH 1 5
ATOM      5  CA  ASP D 179      68.118 -25.502  76.510  1.00 44.60 LIG 0.19  C 
BRANCH 5 6
ATOM      6  CB  ASP D 179      67.232 -26.003  77.655  1.00 48.27 LIG 0.15  C 
BRANCH 6 7
ATOM      7  CG  ASP D 179      65.937 -26.632  77.150  1.00 46.68 LIG 0.17  C 
ATOM      8 OD1  ASP D 179      65.947 -27.833  76.799  1.00 58.91 LIG-0.65  OA
ATOM      9 OD2  ASP D 179      64.899 -25.940  77.121  1.00 62.78 LIG-0.65  OA
ENDBRANCH 6 7
ENDBRANCH 5 6
BRANCH 5 10
ATOM     10  N   ASP D 179      68.221 -26.451  75.393  1.00 43.40 LIG-0.34  N 
ATOM     11 H    ASP D 179      68.010 -27.250  75.633  1.00 43.40 LIG 0.16  HD
ATOM     12  C   VAL D 178      68.589 -26.181  74.143  1.00 52.66 LIG 0.24  C 
ATOM     13 O    VAL D 178      69.198 -25.166  73.791  1.00 53.52 LIG-0.27  OA
BRANCH 12 14
ATOM     14  CA  VAL D 178      68.190 -27.260  73.128  1.00 43.72 LIG 0.18  C 
BRANCH 14 15
ATOM     15  N   VAL D 178      67.334 -26.715  72.092  1.00 54.34 LIG-0.35  N 
ATOM     16  C   GLY D 177      66.039 -26.484  72.284  1.00 48.99 LIG 0.25  C 
ATOM     17 O    GLY D 177      65.327 -26.010  71.410  1.00 61.87 LIG-0.27  OA
ATOM     18 H    VAL D 178      67.739 -26.559  71.350  1.00 54.34 LIG 0.16  HD
BRANCH 16 19
ATOM     19  CA  GLY D 177      65.457 -26.813  73.648  1.00 38.66 LIG 0.47  C 
ATOM     20  N   GLY D 177      64.577 -25.761  74.129  1.00 37.02 LIG 0.61  N 
ENDBRANCH 16 19
ENDBRANCH 14 15
BRANCH 14 21
ATOM     21  CB  VAL D 178      69.435 -27.932  72.510  1.00 39.80 LIG 0.01  C 
ATOM     22  CG2 VAL D 178      69.100 -28.552  71.171  1.00 46.96 LIG 0.01  C 
ATOM     23  CG1 VAL D 178      69.960 -29.010  73.460  1.00 37.07 LIG 0.01  C 
ENDBRANCH 14 21
ENDBRANCH 12 14
ENDBRANCH 5 10
ENDBRANCH 1 5
BRANCH 3 24
ATOM     24  CA  ASP D 180      70.800 -24.215  78.892  1.00 47.37 LIG 0.19  C 
BRANCH 24 25
ATOM     25  C   ASP D 180      71.632 -25.487  79.039  1.00 52.09 LIG 0.24  C 
ATOM     26 O    ASP D 180      71.160 -26.481  79.596  1.00 46.90 LIG-0.27  OA
ATOM     27  N   ASP D 181      72.870 -25.461  78.557  1.00 56.67 LIG-0.35  N 
ATOM     28 H    ASP D 181      73.227 -24.779  78.173  1.00 56.67 LIG 0.16  HD
BRANCH 27 29
ATOM     29  CA  ASP D 181      73.733 -26.631  78.654  1.00 54.32 LIG 0.17  C 
BRANCH 29 30
ATOM     30  CB  ASP D 181      74.249 -26.793  80.082  1.00 57.98 LIG 0.15  C 
BRANCH 30 31
ATOM     31  CG  ASP D 181      75.156 -25.658  80.503  1.00 59.80 LIG 0.17  C 
ATOM     32 OD2  ASP D 181      75.645 -25.681  81.653  1.00 65.59 LIG-0.65  OA
ATOM     33 OD1  ASP D 181      75.381 -24.742  79.684  1.00 62.88 LIG-0.65  OA
ENDBRANCH 30 31
ENDBRANCH 29 30
BRANCH 29 34
ATOM     34  C   ASP D 181      73.012 -27.897  78.205  1.00 55.94 LIG 0.22  C 
ATOM     35 O    ASP D 181      72.545 -27.986  77.066  1.00 49.69 LIG-0.29  OA
ENDBRANCH 29 34
ENDBRANCH 27 29
ENDBRANCH 24 25
BRANCH 24 36
ATOM     36  CB  ASP D 180      70.522 -23.626  80.276  1.00 41.39 LIG 0.15  C 
BRANCH 36 37
ATOM     37  CG  ASP D 180      70.965 -22.183  80.403  1.00 35.24 LIG 0.17  C 
ATOM     38 OD1  ASP D 180      70.482 -21.480  81.317  1.00 51.10 LIG-0.65  OA
ATOM     39 OD2  ASP D 180      71.822 -21.760  79.598  1.00 19.64 LIG-0.65  OA
ENDBRANCH 36 37
ENDBRANCH 24 36
ENDBRANCH 3 24
TORSDOF 16
ENDMDL
MODEL 68
USER: ADFR SOLUTION from run 82
USER: SCORE 10.592664 LL:  -1.842 LR: -10.249 RR:   0.000 FEB:  -5.477
USER: RMSD 6.390044
USER: SEED 81
USER: STATUS no improvement in best in 5 clusters for 5 generations
USER: GENES 18
USER: genes 0 Translation |==|  0.50147 0.47999 0.45495
USER: genes 1 Rotation |==|  0.41548 0.27319 0.22002 0.83619
USER: genes 2 Torsion [N]-C--CA-[N] |==|  0.54059
USER: genes 3 Torsion [C]-CA--CB-[CG] |==|  0.21734
USER: genes 4 Torsion [CA]-CB--CG-[OD1] |==|  0.03686
USER: genes 5 Torsion [C]-CA--N-[C] |==|  0.17506
USER: genes 6 Torsion [N]-C--CA-[N] |==|  0.41836
USER: genes 7 Torsion [C]-CA--N-[C] |==|  0.79721
USER: genes 8 Torsion [N]-C--CA-[N] |==|  0.70725
USER: genes 9 Torsion [C]-CA--CB-[CG1] |==|  0.20464
USER: genes 10 Torsion [C]-N--CA-[CB] |==|  0.13889
USER: genes 11 Torsion [N]-CA--C-[N] |==|  0.62673
USER: genes 12 Torsion [C]-N--CA-[CB] |==|  0.44992
USER: genes 13 Torsion [N]-CA--CB-[CG] |==|  0.64535
USER: genes 14 Torsion [CA]-CB--CG-[OD2] |==|  0.80257
USER: genes 15 Torsion [N]-CA--C-[O] |==|  0.19848
USER: genes 16 Torsion [N]-CA--CB-[CG] |==|  0.63644
USER: genes 17 Torsion [CA]-CB--CG-[OD1] |==|  0.38038
ROOT
ATOM      1  C   ASP D 179      72.228 -25.882  78.180  1.00 41.71 LIG 0.24  C 
ATOM      2 O    ASP D 179      71.091 -25.432  78.038  1.00 47.20 LIG-0.27  OA
ATOM      3  N   ASP D 180      73.156 -25.312  78.947  1.00 48.22 LIG-0.34  N 
ATOM      4 H    ASP D 180      73.922 -25.673  79.100  1.00 48.22 LIG 0.16  HD
ENDROOT
BRANCH 1 5
ATOM      5  CA  ASP D 179      72.671 -27.167  77.478  1.00 44.60 LIG 0.19  C 
BRANCH 5 6
ATOM      6  CB  ASP D 179      74.119 -27.070  76.986  1.00 48.27 LIG 0.15  C 
BRANCH 6 7
ATOM      7  CG  ASP D 179      75.126 -27.273  78.114  1.00 46.68 LIG 0.17  C 
ATOM      8 OD1  ASP D 179      74.723 -27.732  79.207  1.00 58.91 LIG-0.65  OA
ATOM      9 OD2  ASP D 179      76.327 -26.998  77.911  1.00 62.78 LIG-0.65  OA
ENDBRANCH 6 7
ENDBRANCH 5 6
BRANCH 5 10
ATOM     10  N   ASP D 179      71.714 -27.501  76.414  1.00 43.40 LIG-0.34  N 
ATOM     11 H    ASP D 179      71.321 -28.251  76.562  1.00 43.40 LIG 0.16  HD
ATOM     12  C   VAL D 178      71.439 -26.782  75.329  1.00 52.66 LIG 0.24  C 
ATOM     13 O    VAL D 178      72.156 -25.882  74.879  1.00 53.52 LIG-0.27  OA
BRANCH 12 14
ATOM     14  CA  VAL D 178      70.119 -27.162  74.646  1.00 43.72 LIG 0.18  C 
BRANCH 14 15
ATOM     15  N   VAL D 178      69.530 -26.023  73.970  1.00 54.34 LIG-0.35  N 
ATOM     16  C   GLY D 177      68.956 -25.021  74.627  1.00 48.99 LIG 0.25  C 
ATOM     17 O    GLY D 177      68.475 -24.055  74.050  1.00 61.87 LIG-0.27  OA
ATOM     18 H    VAL D 178      69.588 -26.057  73.112  1.00 54.34 LIG 0.16  HD
BRANCH 16 19
ATOM     19  CA  GLY D 177      68.924 -25.096  76.144  1.00 38.66 LIG 0.47  C 
ATOM     20  N   GLY D 177      67.600 -25.427  76.642  1.00 37.02 LIG 0.61  N 
ENDBRANCH 16 19
ENDBRANCH 14 15
BRANCH 14 21
ATOM     21  CB  VAL D 178      70.317 -28.337  73.664  1.00 39.80 LIG 0.01  C 
ATOM     22  CG2 VAL D 178      69.125 -28.472  72.742  1.00 46.96 LIG 0.01  C 
ATOM     23  CG1 VAL D 178      70.509 -29.635  74.451  1.00 37.07 LIG 0.01  C 
ENDBRANCH 14 21
ENDBRANCH 12 14
ENDBRANCH 5 10
ENDBRANCH 1 5
BRANCH 3 24
ATOM     24  CA  ASP D 180      72.976 -24.022  79.609  1.00 47.37 LIG 0.19  C 
BRANCH 24 25
ATOM     25  C   ASP D 180      74.137 -23.796  80.576  1.00 52.09 LIG 0.24  C 
ATOM     26 O    ASP D 180      75.296 -24.032  80.227  1.00 46.90 LIG-0.27  OA
ATOM     27  N   ASP D 181      73.834 -23.353  81.791  1.00 56.67 LIG-0.35  N 
ATOM     28 H    ASP D 181      73.035 -23.189  82.064  1.00 56.67 LIG 0.16  HD
BRANCH 27 29
ATOM     29  CA  ASP D 181      74.879 -23.109  82.777  1.00 54.32 LIG 0.17  C 
BRANCH 29 30
ATOM     30  CB  ASP D 181      74.354 -22.209  83.895  1.00 57.98 LIG 0.15  C 
BRANCH 30 31
ATOM     31  CG  ASP D 181      75.242 -21.009  84.138  1.00 59.80 LIG 0.17  C 
ATOM     32 OD2  ASP D 181      76.357 -21.191  84.671  1.00 65.59 LIG-0.65  OA
ATOM     33 OD1  ASP D 181      74.824 -19.882  83.798  1.00 62.88 LIG-0.65  OA
ENDBRANCH 30 31
ENDBRANCH 29 30
BRANCH 29 34
ATOM     34  C   ASP D 181      75.417 -24.412  83.356  1.00 55.94 LIG 0.22  C 
ATOM     35 O    ASP D 181      76.121 -25.161  82.673  1.00 49.69 LIG-0.29  OA
ENDBRANCH 29 34
ENDBRANCH 27 29
ENDBRANCH 24 25
BRANCH 24 36
ATOM     36  CB  ASP D 180      71.655 -23.970  80.378  1.00 41.39 LIG 0.15  C 
BRANCH 36 37
ATOM     37  CG  ASP D 180      70.848 -22.723  80.079  1.00 35.24 LIG 0.17  C 
ATOM     38 OD1  ASP D 180      69.615 -22.828  79.901  1.00 51.10 LIG-0.65  OA
ATOM     39 OD2  ASP D 180      71.449 -21.628  80.048  1.00 19.64 LIG-0.65  OA
ENDBRANCH 36 37
ENDBRANCH 24 36
ENDBRANCH 3 24
TORSDOF 16
ENDMDL
MODEL 69
USER: ADFR SOLUTION from run 125
USER: SCORE 11.710736 LL:  -2.286 LR: -10.242 RR:   0.000 FEB:  -5.470
USER: RMSD 5.758156
USER: SEED 124
USER: STATUS no improvement in best in 12 clusters for 5 generations
USER: GENES 18
USER: genes 0 Translation |==|  0.51050 0.56502 0.56905
USER: genes 1 Rotation |==|  0.45637 0.19562 0.15688 0.69422
USER: genes 2 Torsion [N]-C--CA-[N] |==|  0.55304
USER: genes 3 Torsion [C]-CA--CB-[CG] |==|  0.81575
USER: genes 4 Torsion [CA]-CB--CG-[OD1] |==|  0.73377
USER: genes 5 Torsion [C]-CA--N-[C] |==|  0.58442
USER: genes 6 Torsion [N]-C--CA-[N] |==|  0.40158
USER: genes 7 Torsion [C]-CA--N-[C] |==|  0.81616
USER: genes 8 Torsion [N]-C--CA-[N] |==|  0.75920
USER: genes 9 Torsion [C]-CA--CB-[CG1] |==|  0.73653
USER: genes 10 Torsion [C]-N--CA-[CB] |==|  0.19433
USER: genes 11 Torsion [N]-CA--C-[N] |==|  0.04358
USER: genes 12 Torsion [C]-N--CA-[CB] |==|  0.41715
USER: genes 13 Torsion [N]-CA--CB-[CG] |==|  0.17576
USER: genes 14 Torsion [CA]-CB--CG-[OD2] |==|  0.32298
USER: genes 15 Torsion [N]-CA--C-[O] |==|  0.24743
USER: genes 16 Torsion [N]-CA--CB-[CG] |==|  0.72847
USER: genes 17 Torsion [CA]-CB--CG-[OD1] |==|  0.48714
ROOT
ATOM      1  C   ASP D 179      72.404 -24.288  80.062  1.00 41.71 LIG 0.24  C 
ATOM      2 O    ASP D 179      71.783 -23.520  79.328  1.00 47.20 LIG-0.27  OA
ATOM      3  N   ASP D 180      72.879 -23.942  81.258  1.00 48.22 LIG-0.34  N 
ATOM      4 H    ASP D 180      73.245 -24.504  81.796  1.00 48.22 LIG 0.16  HD
ENDROOT
BRANCH 1 5
ATOM      5  CA  ASP D 179      72.675 -25.737  79.655  1.00 44.60 LIG 0.19  C 
BRANCH 5 6
ATOM      6  CB  ASP D 179      74.029 -26.226  80.181  1.00 48.27 LIG 0.15  C 
BRANCH 6 7
ATOM      7  CG  ASP D 179      75.199 -25.493  79.533  1.00 46.68 LIG 0.17  C 
ATOM      8 OD1  ASP D 179      75.768 -26.016  78.548  1.00 58.91 LIG-0.65  OA
ATOM      9 OD2  ASP D 179      75.544 -24.382  79.987  1.00 62.78 LIG-0.65  OA
ENDBRANCH 6 7
ENDBRANCH 5 6
BRANCH 5 10
ATOM     10  N   ASP D 179      72.530 -25.874  78.200  1.00 43.40 LIG-0.34  N 
ATOM     11 H    ASP D 179      72.735 -25.148  77.789  1.00 43.40 LIG 0.16  HD
ATOM     12  C   VAL D 178      72.134 -26.955  77.532  1.00 52.66 LIG 0.24  C 
ATOM     13 O    VAL D 178      71.530 -27.910  78.032  1.00 53.52 LIG-0.27  OA
BRANCH 12 14
ATOM     14  CA  VAL D 178      72.491 -26.933  76.041  1.00 43.72 LIG 0.18  C 
BRANCH 14 15
ATOM     15  N   VAL D 178      72.824 -28.261  75.562  1.00 54.34 LIG-0.35  N 
ATOM     16  C   GLY D 177      73.900 -28.921  75.977  1.00 48.99 LIG 0.25  C 
ATOM     17 O    GLY D 177      74.166 -30.047  75.580  1.00 61.87 LIG-0.27  OA
ATOM     18 H    VAL D 178      72.266 -28.577  74.989  1.00 54.34 LIG 0.16  HD
BRANCH 16 19
ATOM     19  CA  GLY D 177      74.801 -28.238  76.992  1.00 38.66 LIG 0.47  C 
ATOM     20  N   GLY D 177      75.794 -27.392  76.350  1.00 37.02 LIG 0.61  N 
ENDBRANCH 16 19
ENDBRANCH 14 15
BRANCH 14 21
ATOM     21  CB  VAL D 178      71.348 -26.322  75.203  1.00 39.80 LIG 0.01  C 
ATOM     22  CG2 VAL D 178      70.523 -25.366  76.038  1.00 46.96 LIG 0.01  C 
ATOM     23  CG1 VAL D 178      70.453 -27.440  74.665  1.00 37.07 LIG 0.01  C 
ENDBRANCH 14 21
ENDBRANCH 12 14
ENDBRANCH 5 10
ENDBRANCH 1 5
BRANCH 3 24
ATOM     24  CA  ASP D 180      72.831 -22.579  81.782  1.00 47.37 LIG 0.19  C 
BRANCH 24 25
ATOM     25  C   ASP D 180      73.694 -22.501  83.040  1.00 52.09 LIG 0.24  C 
ATOM     26 O    ASP D 180      73.593 -21.541  83.808  1.00 46.90 LIG-0.27  OA
ATOM     27  N   ASP D 181      74.549 -23.495  83.250  1.00 56.67 LIG-0.35  N 
ATOM     28 H    ASP D 181      74.647 -24.171  82.727  1.00 56.67 LIG 0.16  HD
BRANCH 27 29
ATOM     29  CA  ASP D 181      75.410 -23.502  84.425  1.00 54.32 LIG 0.17  C 
BRANCH 29 30
ATOM     30  CB  ASP D 181      75.718 -24.937  84.849  1.00 57.98 LIG 0.15  C 
BRANCH 30 31
ATOM     31  CG  ASP D 181      76.493 -25.699  83.796  1.00 59.80 LIG 0.17  C 
ATOM     32 OD2  ASP D 181      77.647 -26.090  84.073  1.00 65.59 LIG-0.65  OA
ATOM     33 OD1  ASP D 181      75.949 -25.904  82.691  1.00 62.88 LIG-0.65  OA
ENDBRANCH 30 31
ENDBRANCH 29 30
BRANCH 29 34
ATOM     34  C   ASP D 181      76.704 -22.735  84.176  1.00 55.94 LIG 0.22  C 
ATOM     35 O    ASP D 181      76.771 -21.524  84.401  1.00 49.69 LIG-0.29  OA
ENDBRANCH 29 34
ENDBRANCH 27 29
ENDBRANCH 24 25
BRANCH 24 36
ATOM     36  CB  ASP D 180      71.398 -22.163  82.121  1.00 41.39 LIG 0.15  C 
BRANCH 36 37
ATOM     37  CG  ASP D 180      70.746 -21.346  81.024  1.00 35.24 LIG 0.17  C 
ATOM     38 OD1  ASP D 180      69.545 -21.021  81.145  1.00 51.10 LIG-0.65  OA
ATOM     39 OD2  ASP D 180      71.449 -21.007  80.048  1.00 19.64 LIG-0.65  OA
ENDBRANCH 36 37
ENDBRANCH 24 36
ENDBRANCH 3 24
TORSDOF 16
ENDMDL
MODEL 70
USER: ADFR SOLUTION from run 175
USER: SCORE 11.479664 LL:  -2.063 LR: -10.243 RR:   0.000 FEB:  -5.470
USER: RMSD 6.349032
USER: SEED 174
USER: STATUS no improvement in best in 7 clusters for 5 generations
USER: GENES 18
USER: genes 0 Translation |==|  0.42381 0.44974 0.36811
USER: genes 1 Rotation |==|  0.71096 0.72407 0.53470 0.89253
USER: genes 2 Torsion [N]-C--CA-[N] |==|  0.46875
USER: genes 3 Torsion [C]-CA--CB-[CG] |==|  0.81184
USER: genes 4 Torsion [CA]-CB--CG-[OD1] |==|  0.84603
USER: genes 5 Torsion [C]-CA--N-[C] |==|  0.62548
USER: genes 6 Torsion [N]-C--CA-[N] |==|  0.97086
USER: genes 7 Torsion [C]-CA--N-[C] |==|  0.79118
USER: genes 8 Torsion [N]-C--CA-[N] |==|  0.31923
USER: genes 9 Torsion [C]-CA--CB-[CG1] |==|  0.94465
USER: genes 10 Torsion [C]-N--CA-[CB] |==|  0.22305
USER: genes 11 Torsion [N]-CA--C-[N] |==|  0.84426
USER: genes 12 Torsion [C]-N--CA-[CB] |==|  0.80974
USER: genes 13 Torsion [N]-CA--CB-[CG] |==|  0.78886
USER: genes 14 Torsion [CA]-CB--CG-[OD2] |==|  0.02027
USER: genes 15 Torsion [N]-CA--C-[O] |==|  0.21717
USER: genes 16 Torsion [N]-CA--CB-[CG] |==|  0.40461
USER: genes 17 Torsion [CA]-CB--CG-[OD1] |==|  0.26978
ROOT
ATOM      1  C   ASP D 179      70.713 -26.449  76.747  1.00 41.71 LIG 0.24  C 
ATOM      2 O    ASP D 179      70.823 -27.644  76.471  1.00 47.20 LIG-0.27  OA
ATOM      3  N   ASP D 180      71.518 -25.811  77.597  1.00 48.22 LIG-0.34  N 
ATOM      4 H    ASP D 180      71.482 -24.962  77.726  1.00 48.22 LIG 0.16  HD
ENDROOT
BRANCH 1 5
ATOM      5  CA  ASP D 179      69.626 -25.580  76.113  1.00 44.60 LIG 0.19  C 
BRANCH 5 6
ATOM      6  CB  ASP D 179      68.631 -25.069  77.160  1.00 48.27 LIG 0.15  C 
BRANCH 6 7
ATOM      7  CG  ASP D 179      67.788 -26.193  77.753  1.00 46.68 LIG 0.17  C 
ATOM      8 OD1  ASP D 179      67.132 -26.927  76.980  1.00 58.91 LIG-0.65  OA
ATOM      9 OD2  ASP D 179      67.791 -26.365  78.990  1.00 62.78 LIG-0.65  OA
ENDBRANCH 6 7
ENDBRANCH 5 6
BRANCH 5 10
ATOM     10  N   ASP D 179      68.988 -26.316  75.012  1.00 43.40 LIG-0.34  N 
ATOM     11 H    ASP D 179      68.808 -27.127  75.233  1.00 43.40 LIG 0.16  HD
ATOM     12  C   VAL D 178      68.697 -25.851  73.800  1.00 52.66 LIG 0.24  C 
ATOM     13 O    VAL D 178      69.190 -24.835  73.298  1.00 53.52 LIG-0.27  OA
BRANCH 12 14
ATOM     14  CA  VAL D 178      67.669 -26.696  73.038  1.00 43.72 LIG 0.18  C 
BRANCH 14 15
ATOM     15  N   VAL D 178      67.420 -27.955  73.713  1.00 54.34 LIG-0.35  N 
ATOM     16  C   GLY D 177      68.284 -28.964  73.683  1.00 48.99 LIG 0.25  C 
ATOM     17 O    GLY D 177      68.075 -30.018  74.268  1.00 61.87 LIG-0.27  OA
ATOM     18 H    VAL D 178      66.668 -27.986  74.129  1.00 54.34 LIG 0.16  HD
BRANCH 16 19
ATOM     19  CA  GLY D 177      69.573 -28.768  72.903  1.00 38.66 LIG 0.47  C 
ATOM     20  N   GLY D 177      70.739 -28.789  73.770  1.00 37.02 LIG 0.61  N 
ENDBRANCH 16 19
ENDBRANCH 14 15
BRANCH 14 21
ATOM     21  CB  VAL D 178      66.351 -25.918  72.832  1.00 39.80 LIG 0.01  C 
ATOM     22  CG2 VAL D 178      66.270 -25.365  71.425  1.00 46.96 LIG 0.01  C 
ATOM     23  CG1 VAL D 178      66.270 -24.772  73.841  1.00 37.07 LIG 0.01  C 
ENDBRANCH 14 21
ENDBRANCH 12 14
ENDBRANCH 5 10
ENDBRANCH 1 5
BRANCH 3 24
ATOM     24  CA  ASP D 180      72.542 -26.481  78.395  1.00 47.37 LIG 0.19  C 
BRANCH 24 25
ATOM     25  C   ASP D 180      72.894 -25.597  79.590  1.00 52.09 LIG 0.24  C 
ATOM     26 O    ASP D 180      72.790 -26.031  80.740  1.00 46.90 LIG-0.27  OA
ATOM     27  N   ASP D 181      73.296 -24.358  79.330  1.00 56.67 LIG-0.35  N 
ATOM     28 H    ASP D 181      73.368 -24.027  78.539  1.00 56.67 LIG 0.16  HD
BRANCH 27 29
ATOM     29  CA  ASP D 181      73.652 -23.447  80.410  1.00 54.32 LIG 0.17  C 
BRANCH 29 30
ATOM     30  CB  ASP D 181      72.411 -23.068  81.215  1.00 57.98 LIG 0.15  C 
BRANCH 30 31
ATOM     31  CG  ASP D 181      71.540 -22.060  80.498  1.00 59.80 LIG 0.17  C 
ATOM     32 OD2  ASP D 181      71.824 -21.760  79.319  1.00 65.59 LIG-0.65  OA
ATOM     33 OD1  ASP D 181      70.572 -21.567  81.114  1.00 62.88 LIG-0.65  OA
ENDBRANCH 30 31
ENDBRANCH 29 30
BRANCH 29 34
ATOM     34  C   ASP D 181      74.712 -24.051  81.324  1.00 55.94 LIG 0.22  C 
ATOM     35 O    ASP D 181      75.899 -24.069  80.986  1.00 49.69 LIG-0.29  OA
ENDBRANCH 29 34
ENDBRANCH 27 29
ENDBRANCH 24 25
BRANCH 24 36
ATOM     36  CB  ASP D 180      73.803 -26.749  77.572  1.00 41.39 LIG 0.15  C 
BRANCH 36 37
ATOM     37  CG  ASP D 180      75.075 -26.640  78.389  1.00 35.24 LIG 0.17  C 
ATOM     38 OD1  ASP D 180      75.590 -27.683  78.848  1.00 51.10 LIG-0.65  OA
ATOM     39 OD2  ASP D 180      75.574 -25.506  78.549  1.00 19.64 LIG-0.65  OA
ENDBRANCH 36 37
ENDBRANCH 24 36
ENDBRANCH 3 24
TORSDOF 16
ENDMDL
MODEL 71
USER: ADFR SOLUTION from run 195
USER: SCORE 10.778897 LL:  -2.636 LR: -10.228 RR:   0.000 FEB:  -5.456
USER: RMSD 8.355909
USER: SEED 194
USER: STATUS no improvement in best in 10 clusters for 5 generations
USER: GENES 18
USER: genes 0 Translation |==|  0.45861 0.65262 0.60155
USER: genes 1 Rotation |==|  0.94362 0.53023 0.71465 0.57880
USER: genes 2 Torsion [N]-C--CA-[N] |==|  0.22378
USER: genes 3 Torsion [C]-CA--CB-[CG] |==|  0.69393
USER: genes 4 Torsion [CA]-CB--CG-[OD1] |==|  0.33996
USER: genes 5 Torsion [C]-CA--N-[C] |==|  0.77641
USER: genes 6 Torsion [N]-C--CA-[N] |==|  0.32234
USER: genes 7 Torsion [C]-CA--N-[C] |==|  0.78271
USER: genes 8 Torsion [N]-C--CA-[N] |==|  0.77028
USER: genes 9 Torsion [C]-CA--CB-[CG1] |==|  0.19068
USER: genes 10 Torsion [C]-N--CA-[CB] |==|  0.39978
USER: genes 11 Torsion [N]-CA--C-[N] |==|  0.23460
USER: genes 12 Torsion [C]-N--CA-[CB] |==|  0.42413
USER: genes 13 Torsion [N]-CA--CB-[CG] |==|  0.44002
USER: genes 14 Torsion [CA]-CB--CG-[OD2] |==|  0.65651
USER: genes 15 Torsion [N]-CA--C-[O] |==|  0.85778
USER: genes 16 Torsion [N]-CA--CB-[CG] |==|  0.68777
USER: genes 17 Torsion [CA]-CB--CG-[OD1] |==|  0.92152
ROOT
ATOM      1  C   ASP D 179      71.392 -22.645  80.599  1.00 41.71 LIG 0.24  C 
ATOM      2 O    ASP D 179      71.780 -22.020  79.612  1.00 47.20 LIG-0.27  OA
ATOM      3  N   ASP D 180      71.845 -23.854  80.930  1.00 48.22 LIG-0.34  N 
ATOM      4 H    ASP D 180      71.625 -24.251  81.661  1.00 48.22 LIG 0.16  HD
ENDROOT
BRANCH 1 5
ATOM      5  CA  ASP D 179      70.343 -22.067  81.549  1.00 44.60 LIG 0.19  C 
BRANCH 5 6
ATOM      6  CB  ASP D 179      69.415 -21.080  80.833  1.00 48.27 LIG 0.15  C 
BRANCH 6 7
ATOM      7  CG  ASP D 179      69.646 -19.641  81.282  1.00 46.68 LIG 0.17  C 
ATOM      8 OD1  ASP D 179      69.948 -18.782  80.423  1.00 58.91 LIG-0.65  OA
ATOM      9 OD2  ASP D 179      69.507 -19.353  82.489  1.00 62.78 LIG-0.65  OA
ENDBRANCH 6 7
ENDBRANCH 5 6
BRANCH 5 10
ATOM     10  N   ASP D 179      71.009 -21.492  82.726  1.00 43.40 LIG-0.34  N 
ATOM     11 H    ASP D 179      71.087 -20.638  82.663  1.00 43.40 LIG 0.16  HD
ATOM     12  C   VAL D 178      71.462 -22.149  83.791  1.00 52.66 LIG 0.24  C 
ATOM     13 O    VAL D 178      71.680 -23.364  83.829  1.00 53.52 LIG-0.27  OA
BRANCH 12 14
ATOM     14  CA  VAL D 178      71.708 -21.259  85.015  1.00 43.72 LIG 0.18  C 
BRANCH 14 15
ATOM     15  N   VAL D 178      70.829 -21.619  86.111  1.00 54.34 LIG-0.35  N 
ATOM     16  C   GLY D 177      69.554 -21.250  86.155  1.00 48.99 LIG 0.25  C 
ATOM     17 O    GLY D 177      68.814 -21.571  87.075  1.00 61.87 LIG-0.27  OA
ATOM     18 H    VAL D 178      71.209 -22.090  86.723  1.00 54.34 LIG 0.16  HD
BRANCH 16 19
ATOM     19  CA  GLY D 177      69.019 -20.415  85.003  1.00 38.66 LIG 0.47  C 
ATOM     20  N   GLY D 177      69.329 -19.005  85.167  1.00 37.02 LIG 0.61  N 
ENDBRANCH 16 19
ENDBRANCH 14 15
BRANCH 14 21
ATOM     21  CB  VAL D 178      73.185 -21.316  85.459  1.00 39.80 LIG 0.01  C 
ATOM     22  CG2 VAL D 178      73.370 -20.632  86.796  1.00 46.96 LIG 0.01  C 
ATOM     23  CG1 VAL D 178      74.063 -20.636  84.407  1.00 37.07 LIG 0.01  C 
ENDBRANCH 14 21
ENDBRANCH 12 14
ENDBRANCH 5 10
ENDBRANCH 1 5
BRANCH 3 24
ATOM     24  CA  ASP D 180      72.759 -24.631  80.096  1.00 47.37 LIG 0.19  C 
BRANCH 24 25
ATOM     25  C   ASP D 180      71.945 -25.596  79.236  1.00 52.09 LIG 0.24  C 
ATOM     26 O    ASP D 180      71.779 -26.764  79.596  1.00 46.90 LIG-0.27  OA
ATOM     27  N   ASP D 181      71.449 -25.123  78.099  1.00 56.67 LIG-0.35  N 
ATOM     28 H    ASP D 181      71.557 -24.317  77.819  1.00 56.67 LIG 0.16  HD
BRANCH 27 29
ATOM     29  CA  ASP D 181      70.660 -25.975  77.218  1.00 54.32 LIG 0.17  C 
BRANCH 29 30
ATOM     30  CB  ASP D 181      69.682 -25.133  76.401  1.00 57.98 LIG 0.15  C 
BRANCH 30 31
ATOM     31  CG  ASP D 181      69.223 -25.835  75.143  1.00 59.80 LIG 0.17  C 
ATOM     32 OD2  ASP D 181      69.397 -25.265  74.044  1.00 65.59 LIG-0.65  OA
ATOM     33 OD1  ASP D 181      68.686 -26.958  75.251  1.00 62.88 LIG-0.65  OA
ENDBRANCH 30 31
ENDBRANCH 29 30
BRANCH 29 34
ATOM     34  C   ASP D 181      71.548 -26.799  76.294  1.00 55.94 LIG 0.22  C 
ATOM     35 O    ASP D 181      72.431 -26.259  75.621  1.00 49.69 LIG-0.29  OA
ENDBRANCH 29 34
ENDBRANCH 27 29
ENDBRANCH 24 25
BRANCH 24 36
ATOM     36  CB  ASP D 180      73.754 -25.421  80.946  1.00 41.39 LIG 0.15  C 
BRANCH 36 37
ATOM     37  CG  ASP D 180      75.179 -24.925  80.801  1.00 35.24 LIG 0.17  C 
ATOM     38 OD1  ASP D 180      75.524 -24.382  79.729  1.00 51.10 LIG-0.65  OA
ATOM     39 OD2  ASP D 180      75.949 -25.058  81.777  1.00 19.64 LIG-0.65  OA
ENDBRANCH 36 37
ENDBRANCH 24 36
ENDBRANCH 3 24
TORSDOF 16
ENDMDL
MODEL 72
USER: ADFR SOLUTION from run 44
USER: SCORE 10.618656 LL:  -2.615 LR: -10.205 RR:   0.000 FEB:  -5.432
USER: RMSD 5.316096
USER: SEED 43
USER: STATUS no improvement in best in 8 clusters for 5 generations
USER: GENES 18
USER: genes 0 Translation |==|  0.50776 0.39007 0.37415
USER: genes 1 Rotation |==|  0.59981 0.64893 0.45583 0.96466
USER: genes 2 Torsion [N]-C--CA-[N] |==|  0.43953
USER: genes 3 Torsion [C]-CA--CB-[CG] |==|  0.49529
USER: genes 4 Torsion [CA]-CB--CG-[OD1] |==|  0.12731
USER: genes 5 Torsion [C]-CA--N-[C] |==|  0.20588
USER: genes 6 Torsion [N]-C--CA-[N] |==|  0.89129
USER: genes 7 Torsion [C]-CA--N-[C] |==|  0.80291
USER: genes 8 Torsion [N]-C--CA-[N] |==|  0.36991
USER: genes 9 Torsion [C]-CA--CB-[CG1] |==|  0.17641
USER: genes 10 Torsion [C]-N--CA-[CB] |==|  0.40231
USER: genes 11 Torsion [N]-CA--C-[N] |==|  0.90323
USER: genes 12 Torsion [C]-N--CA-[CB] |==|  0.29392
USER: genes 13 Torsion [N]-CA--CB-[CG] |==|  0.22518
USER: genes 14 Torsion [CA]-CB--CG-[OD2] |==|  0.32913
USER: genes 15 Torsion [N]-CA--C-[O] |==|  0.35245
USER: genes 16 Torsion [N]-CA--CB-[CG] |==|  0.39037
USER: genes 17 Torsion [CA]-CB--CG-[OD1] |==|  0.17741
ROOT
ATOM      1  C   ASP D 179      72.350 -27.568  76.846  1.00 41.71 LIG 0.24  C 
ATOM      2 O    ASP D 179      72.194 -28.703  77.296  1.00 47.20 LIG-0.27  OA
ATOM      3  N   ASP D 180      73.117 -26.644  77.425  1.00 48.22 LIG-0.34  N 
ATOM      4 H    ASP D 180      73.280 -25.880  77.066  1.00 48.22 LIG 0.16  HD
ENDROOT
BRANCH 1 5
ATOM      5  CA  ASP D 179      71.669 -27.122  75.552  1.00 44.60 LIG 0.19  C 
BRANCH 5 6
ATOM      6  CB  ASP D 179      70.488 -26.186  75.831  1.00 48.27 LIG 0.15  C 
BRANCH 6 7
ATOM      7  CG  ASP D 179      69.823 -25.699  74.547  1.00 46.68 LIG 0.17  C 
ATOM      8 OD1  ASP D 179      69.574 -26.529  73.644  1.00 58.91 LIG-0.65  OA
ATOM      9 OD2  ASP D 179      69.525 -24.491  74.440  1.00 62.78 LIG-0.65  OA
ENDBRANCH 6 7
ENDBRANCH 5 6
BRANCH 5 10
ATOM     10  N   ASP D 179      71.304 -28.301  74.756  1.00 43.40 LIG-0.34  N 
ATOM     11 H    ASP D 179      71.824 -28.401  74.078  1.00 43.40 LIG 0.16  HD
ATOM     12  C   VAL D 178      70.309 -29.152  74.993  1.00 52.66 LIG 0.24  C 
ATOM     13 O    VAL D 178      69.345 -28.920  75.730  1.00 53.52 LIG-0.27  OA
BRANCH 12 14
ATOM     14  CA  VAL D 178      70.445 -30.491  74.258  1.00 43.72 LIG 0.18  C 
BRANCH 14 15
ATOM     15  N   VAL D 178      70.959 -30.304  72.915  1.00 54.34 LIG-0.35  N 
ATOM     16  C   GLY D 177      70.240 -29.750  71.946  1.00 48.99 LIG 0.25  C 
ATOM     17 O    GLY D 177      70.686 -29.581  70.819  1.00 61.87 LIG-0.27  OA
ATOM     18 H    VAL D 178      71.766 -30.582  72.808  1.00 54.34 LIG 0.16  HD
BRANCH 16 19
ATOM     19  CA  GLY D 177      68.825 -29.307  72.280  1.00 38.66 LIG 0.47  C 
ATOM     20  N   GLY D 177      68.546 -27.969  71.787  1.00 37.02 LIG 0.61  N 
ENDBRANCH 16 19
ENDBRANCH 14 15
BRANCH 14 21
ATOM     21  CB  VAL D 178      71.332 -31.475  75.050  1.00 39.80 LIG 0.01  C 
ATOM     22  CG2 VAL D 178      71.551 -32.751  74.266  1.00 46.96 LIG 0.01  C 
ATOM     23  CG1 VAL D 178      70.667 -31.801  76.389  1.00 37.07 LIG 0.01  C 
ENDBRANCH 14 21
ENDBRANCH 12 14
ENDBRANCH 5 10
ENDBRANCH 1 5
BRANCH 3 24
ATOM     24  CA  ASP D 180      73.760 -26.828  78.724  1.00 47.37 LIG 0.19  C 
BRANCH 24 25
ATOM     25  C   ASP D 180      72.863 -26.234  79.809  1.00 52.09 LIG 0.24  C 
ATOM     26 O    ASP D 180      72.789 -26.767  80.919  1.00 46.90 LIG-0.27  OA
ATOM     27  N   ASP D 181      72.170 -25.146  79.493  1.00 56.67 LIG-0.35  N 
ATOM     28 H    ASP D 181      72.195 -24.759  78.725  1.00 56.67 LIG 0.16  HD
BRANCH 27 29
ATOM     29  CA  ASP D 181      71.290 -24.513  80.467  1.00 54.32 LIG 0.17  C 
BRANCH 29 30
ATOM     30  CB  ASP D 181      71.918 -23.222  80.990  1.00 57.98 LIG 0.15  C 
BRANCH 30 31
ATOM     31  CG  ASP D 181      71.716 -22.057  80.048  1.00 59.80 LIG 0.17  C 
ATOM     32 OD2  ASP D 181      71.072 -21.066  80.455  1.00 65.59 LIG-0.65  OA
ATOM     33 OD1  ASP D 181      72.199 -22.131  78.899  1.00 62.88 LIG-0.65  OA
ENDBRANCH 30 31
ENDBRANCH 29 30
BRANCH 29 34
ATOM     34  C   ASP D 181      69.914 -24.231  79.877  1.00 55.94 LIG 0.22  C 
ATOM     35 O    ASP D 181      68.892 -24.628  80.444  1.00 49.69 LIG-0.29  OA
ENDBRANCH 29 34
ENDBRANCH 27 29
ENDBRANCH 24 25
BRANCH 24 36
ATOM     36  CB  ASP D 180      75.129 -26.148  78.769  1.00 41.39 LIG 0.15  C 
BRANCH 36 37
ATOM     37  CG  ASP D 180      75.409 -25.471  80.096  1.00 35.24 LIG 0.17  C 
ATOM     38 OD1  ASP D 180      75.492 -26.174  81.127  1.00 51.10 LIG-0.65  OA
ATOM     39 OD2  ASP D 180      75.573 -24.233  80.100  1.00 19.64 LIG-0.65  OA
ENDBRANCH 36 37
ENDBRANCH 24 36
ENDBRANCH 3 24
TORSDOF 16
ENDMDL
MODEL 73
USER: ADFR SOLUTION from run 183
USER: SCORE 11.348036 LL:  -2.917 LR: -10.201 RR:   0.000 FEB:  -5.428
USER: RMSD 7.716966
USER: SEED 182
USER: STATUS no improvement in best in 16 clusters for 5 generations
USER: GENES 18
USER: genes 0 Translation |==|  0.46116 0.64264 0.56068
USER: genes 1 Rotation |==|  0.89191 0.49607 0.80480 0.55906
USER: genes 2 Torsion [N]-C--CA-[N] |==|  0.98498
USER: genes 3 Torsion [C]-CA--CB-[CG] |==|  0.34592
USER: genes 4 Torsion [CA]-CB--CG-[OD1] |==|  0.61927
USER: genes 5 Torsion [C]-CA--N-[C] |==|  0.77065
USER: genes 6 Torsion [N]-C--CA-[N] |==|  0.35556
USER: genes 7 Torsion [C]-CA--N-[C] |==|  0.78834
USER: genes 8 Torsion [N]-C--CA-[N] |==|  0.33950
USER: genes 9 Torsion [C]-CA--CB-[CG1] |==|  0.11567
USER: genes 10 Torsion [C]-N--CA-[CB] |==|  0.35772
USER: genes 11 Torsion [N]-CA--C-[N] |==|  0.14859
USER: genes 12 Torsion [C]-N--CA-[CB] |==|  0.39985
USER: genes 13 Torsion [N]-CA--CB-[CG] |==|  0.31114
USER: genes 14 Torsion [CA]-CB--CG-[OD2] |==|  0.20218
USER: genes 15 Torsion [N]-CA--C-[O] |==|  0.06193
USER: genes 16 Torsion [N]-CA--CB-[CG] |==|  0.65019
USER: genes 17 Torsion [CA]-CB--CG-[OD1] |==|  0.49016
ROOT
ATOM      1  C   ASP D 179      71.442 -22.832  79.924  1.00 41.71 LIG 0.24  C 
ATOM      2 O    ASP D 179      72.200 -22.118  79.269  1.00 47.20 LIG-0.27  OA
ATOM      3  N   ASP D 180      71.725 -24.089  80.268  1.00 48.22 LIG-0.34  N 
ATOM      4 H    ASP D 180      71.224 -24.555  80.789  1.00 48.22 LIG 0.16  HD
ENDROOT
BRANCH 1 5
ATOM      5  CA  ASP D 179      70.088 -22.319  80.417  1.00 44.60 LIG 0.19  C 
BRANCH 5 6
ATOM      6  CB  ASP D 179      70.244 -21.081  81.307  1.00 48.27 LIG 0.15  C 
BRANCH 6 7
ATOM      7  CG  ASP D 179      69.427 -19.898  80.798  1.00 46.68 LIG 0.17  C 
ATOM      8 OD1  ASP D 179      69.949 -18.760  80.797  1.00 58.91 LIG-0.65  OA
ATOM      9 OD2  ASP D 179      68.269 -20.098  80.376  1.00 62.78 LIG-0.65  OA
ENDBRANCH 6 7
ENDBRANCH 5 6
BRANCH 5 10
ATOM     10  N   ASP D 179      69.352 -23.414  81.064  1.00 43.40 LIG-0.34  N 
ATOM     11 H    ASP D 179      69.440 -23.396  81.919  1.00 43.40 LIG 0.16  HD
ATOM     12  C   VAL D 178      68.622 -24.352  80.466  1.00 52.66 LIG 0.24  C 
ATOM     13 O    VAL D 178      68.695 -24.644  79.268  1.00 53.52 LIG-0.27  OA
BRANCH 12 14
ATOM     14  CA  VAL D 178      67.648 -25.076  81.403  1.00 43.72 LIG 0.18  C 
BRANCH 14 15
ATOM     15  N   VAL D 178      66.300 -25.067  80.867  1.00 54.34 LIG-0.35  N 
ATOM     16  C   GLY D 177      65.523 -23.990  80.907  1.00 48.99 LIG 0.25  C 
ATOM     17 O    GLY D 177      64.393 -23.985  80.439  1.00 61.87 LIG-0.27  OA
ATOM     18 H    VAL D 178      66.054 -25.817  80.526  1.00 54.34 LIG 0.16  HD
BRANCH 16 19
ATOM     19  CA  GLY D 177      66.089 -22.733  81.545  1.00 38.66 LIG 0.47  C 
ATOM     20  N   GLY D 177      66.082 -21.608  80.624  1.00 37.02 LIG 0.61  N 
ENDBRANCH 16 19
ENDBRANCH 14 15
BRANCH 14 21
ATOM     21  CB  VAL D 178      68.113 -26.521  81.684  1.00 39.80 LIG 0.01  C 
ATOM     22  CG2 VAL D 178      67.415 -27.081  82.904  1.00 46.96 LIG 0.01  C 
ATOM     23  CG1 VAL D 178      69.627 -26.537  81.904  1.00 37.07 LIG 0.01  C 
ENDBRANCH 14 21
ENDBRANCH 12 14
ENDBRANCH 5 10
ENDBRANCH 1 5
BRANCH 3 24
ATOM     24  CA  ASP D 180      72.909 -24.806  79.800  1.00 47.37 LIG 0.19  C 
BRANCH 24 25
ATOM     25  C   ASP D 180      72.472 -25.905  78.834  1.00 52.09 LIG 0.24  C 
ATOM     26 O    ASP D 180      72.835 -27.071  79.009  1.00 46.90 LIG-0.27  OA
ATOM     27  N   ASP D 181      71.709 -25.542  77.809  1.00 56.67 LIG-0.35  N 
ATOM     28 H    ASP D 181      71.449 -24.737  77.658  1.00 56.67 LIG 0.16  HD
BRANCH 27 29
ATOM     29  CA  ASP D 181      71.246 -26.526  76.839  1.00 54.32 LIG 0.17  C 
BRANCH 29 30
ATOM     30  CB  ASP D 181      69.832 -26.186  76.371  1.00 57.98 LIG 0.15  C 
BRANCH 30 31
ATOM     31  CG  ASP D 181      69.789 -25.761  74.920  1.00 59.80 LIG 0.17  C 
ATOM     32 OD2  ASP D 181      69.949 -26.632  74.039  1.00 65.59 LIG-0.65  OA
ATOM     33 OD1  ASP D 181      69.596 -24.555  74.660  1.00 62.88 LIG-0.65  OA
ENDBRANCH 30 31
ENDBRANCH 29 30
BRANCH 29 34
ATOM     34  C   ASP D 181      72.190 -26.622  75.646  1.00 55.94 LIG 0.22  C 
ATOM     35 O    ASP D 181      73.365 -26.259  75.741  1.00 49.69 LIG-0.29  OA
ENDBRANCH 29 34
ENDBRANCH 27 29
ENDBRANCH 24 25
BRANCH 24 36
ATOM     36  CB  ASP D 180      73.678 -25.429  80.966  1.00 41.39 LIG 0.15  C 
BRANCH 36 37
ATOM     37  CG  ASP D 180      75.139 -25.026  80.991  1.00 35.24 LIG 0.17  C 
ATOM     38 OD1  ASP D 180      75.859 -25.418  81.936  1.00 51.10 LIG-0.65  OA
ATOM     39 OD2  ASP D 180      75.573 -24.334  80.046  1.00 19.64 LIG-0.65  OA
ENDBRANCH 36 37
ENDBRANCH 24 36
ENDBRANCH 3 24
TORSDOF 16
ENDMDL
MODEL 74
USER: ADFR SOLUTION from run 42
USER: SCORE 12.511143 LL:  -2.666 LR: -10.179 RR:   0.000 FEB:  -5.406
USER: RMSD 5.112666
USER: SEED 41
USER: STATUS no improvement in best in 8 clusters for 5 generations
USER: GENES 18
USER: genes 0 Translation |==|  0.51200 0.55712 0.54212
USER: genes 1 Rotation |==|  0.45520 0.23177 0.08066 0.51426
USER: genes 2 Torsion [N]-C--CA-[N] |==|  0.37741
USER: genes 3 Torsion [C]-CA--CB-[CG] |==|  0.58728
USER: genes 4 Torsion [CA]-CB--CG-[OD1] |==|  0.24629
USER: genes 5 Torsion [C]-CA--N-[C] |==|  0.66563
USER: genes 6 Torsion [N]-C--CA-[N] |==|  0.37638
USER: genes 7 Torsion [C]-CA--N-[C] |==|  0.74685
USER: genes 8 Torsion [N]-C--CA-[N] |==|  0.40424
USER: genes 9 Torsion [C]-CA--CB-[CG1] |==|  0.46833
USER: genes 10 Torsion [C]-N--CA-[CB] |==|  0.84124
USER: genes 11 Torsion [N]-CA--C-[N] |==|  0.34578
USER: genes 12 Torsion [C]-N--CA-[CB] |==|  0.16313
USER: genes 13 Torsion [N]-CA--CB-[CG] |==|  0.63524
USER: genes 14 Torsion [CA]-CB--CG-[OD2] |==|  0.51252
USER: genes 15 Torsion [N]-CA--C-[O] |==|  0.31664
USER: genes 16 Torsion [N]-CA--CB-[CG] |==|  0.89904
USER: genes 17 Torsion [CA]-CB--CG-[OD1] |==|  0.29695
ROOT
ATOM      1  C   ASP D 179      72.433 -24.436  79.618  1.00 41.71 LIG 0.24  C 
ATOM      2 O    ASP D 179      72.720 -23.396  79.026  1.00 47.20 LIG-0.27  OA
ATOM      3  N   ASP D 180      72.431 -24.553  80.946  1.00 48.22 LIG-0.34  N 
ATOM      4 H    ASP D 180      72.157 -25.259  81.352  1.00 48.22 LIG 0.16  HD
ENDROOT
BRANCH 1 5
ATOM      5  CA  ASP D 179      72.035 -25.703  78.859  1.00 44.60 LIG 0.19  C 
BRANCH 5 6
ATOM      6  CB  ASP D 179      73.265 -26.482  78.380  1.00 48.27 LIG 0.15  C 
BRANCH 6 7
ATOM      7  CG  ASP D 179      73.003 -27.227  77.074  1.00 46.68 LIG 0.17  C 
ATOM      8 OD1  ASP D 179      73.210 -26.636  75.991  1.00 58.91 LIG-0.65  OA
ATOM      9 OD2  ASP D 179      72.610 -28.411  77.121  1.00 62.78 LIG-0.65  OA
ENDBRANCH 6 7
ENDBRANCH 5 6
BRANCH 5 10
ATOM     10  N   ASP D 179      71.106 -25.355  77.776  1.00 43.40 LIG-0.34  N 
ATOM     11 H    ASP D 179      71.457 -24.801  77.220  1.00 43.40 LIG 0.16  HD
ATOM     12  C   VAL D 178      69.863 -25.802  77.612  1.00 52.66 LIG 0.24  C 
ATOM     13 O    VAL D 178      69.181 -26.329  78.497  1.00 53.52 LIG-0.27  OA
BRANCH 12 14
ATOM     14  CA  VAL D 178      69.312 -25.608  76.194  1.00 43.72 LIG 0.18  C 
BRANCH 14 15
ATOM     15  N   VAL D 178      68.630 -26.800  75.728  1.00 54.34 LIG-0.35  N 
ATOM     16  C   GLY D 177      69.252 -27.761  75.053  1.00 48.99 LIG 0.25  C 
ATOM     17 O    GLY D 177      68.673 -28.771  74.677  1.00 61.87 LIG-0.27  OA
ATOM     18 H    VAL D 178      67.794 -26.826  75.928  1.00 54.34 LIG 0.16  HD
BRANCH 16 19
ATOM     19  CA  GLY D 177      70.733 -27.580  74.768  1.00 38.66 LIG 0.47  C 
ATOM     20  N   GLY D 177      71.448 -28.844  74.794  1.00 37.02 LIG 0.61  N 
ENDBRANCH 16 19
ENDBRANCH 14 15
BRANCH 14 21
ATOM     21  CB  VAL D 178      68.377 -24.382  76.121  1.00 39.80 LIG 0.01  C 
ATOM     22  CG2 VAL D 178      67.083 -24.650  76.859  1.00 46.96 LIG 0.01  C 
ATOM     23  CG1 VAL D 178      68.077 -24.053  74.658  1.00 37.07 LIG 0.01  C 
ENDBRANCH 14 21
ENDBRANCH 12 14
ENDBRANCH 5 10
ENDBRANCH 1 5
BRANCH 3 24
ATOM     24  CA  ASP D 180      72.892 -23.501  81.849  1.00 47.37 LIG 0.19  C 
BRANCH 24 25
ATOM     25  C   ASP D 180      71.985 -22.282  81.693  1.00 52.09 LIG 0.24  C 
ATOM     26 O    ASP D 180      71.826 -21.760  80.587  1.00 46.90 LIG-0.27  OA
ATOM     27  N   ASP D 181      71.400 -21.818  82.791  1.00 56.67 LIG-0.35  N 
ATOM     28 H    ASP D 181      71.500 -22.157  83.575  1.00 56.67 LIG 0.16  HD
BRANCH 27 29
ATOM     29  CA  ASP D 181      70.518 -20.659  82.733  1.00 54.32 LIG 0.17  C 
BRANCH 29 30
ATOM     30  CB  ASP D 181      69.353 -20.926  81.782  1.00 57.98 LIG 0.15  C 
BRANCH 30 31
ATOM     31  CG  ASP D 181      69.139 -19.797  80.798  1.00 59.80 LIG 0.17  C 
ATOM     32 OD2  ASP D 181      68.160 -19.860  80.023  1.00 65.59 LIG-0.65  OA
ATOM     33 OD1  ASP D 181      69.949 -18.847  80.798  1.00 62.88 LIG-0.65  OA
ENDBRANCH 30 31
ENDBRANCH 29 30
BRANCH 29 34
ATOM     34  C   ASP D 181      69.997 -20.284  84.116  1.00 55.94 LIG 0.22  C 
ATOM     35 O    ASP D 181      70.320 -19.216  84.642  1.00 49.69 LIG-0.29  OA
ENDBRANCH 29 34
ENDBRANCH 27 29
ENDBRANCH 24 25
BRANCH 24 36
ATOM     36  CB  ASP D 180      74.337 -23.102  81.548  1.00 41.39 LIG 0.15  C 
BRANCH 36 37
ATOM     37  CG  ASP D 180      75.199 -24.276  81.131  1.00 35.24 LIG 0.17  C 
ATOM     38 OD1  ASP D 180      75.538 -24.382  79.932  1.00 51.10 LIG-0.65  OA
ATOM     39 OD2  ASP D 180      75.559 -25.084  82.014  1.00 19.64 LIG-0.65  OA
ENDBRANCH 36 37
ENDBRANCH 24 36
ENDBRANCH 3 24
TORSDOF 16
ENDMDL
MODEL 75
USER: ADFR SOLUTION from run 159
USER: SCORE 12.119667 LL:  -3.100 LR: -10.158 RR:   0.000 FEB:  -5.385
USER: RMSD 7.354138
USER: SEED 158
USER: STATUS 1 or 2 clusters left
USER: GENES 18
USER: genes 0 Translation |==|  0.54302 0.49823 0.53283
USER: genes 1 Rotation |==|  0.73600 0.87850 0.28290 0.56257
USER: genes 2 Torsion [N]-C--CA-[N] |==|  0.35846
USER: genes 3 Torsion [C]-CA--CB-[CG] |==|  0.21647
USER: genes 4 Torsion [CA]-CB--CG-[OD1] |==|  0.55436
USER: genes 5 Torsion [C]-CA--N-[C] |==|  0.65545
USER: genes 6 Torsion [N]-C--CA-[N] |==|  0.04876
USER: genes 7 Torsion [C]-CA--N-[C] |==|  0.67983
USER: genes 8 Torsion [N]-C--CA-[N] |==|  0.36382
USER: genes 9 Torsion [C]-CA--CB-[CG1] |==|  0.36664
USER: genes 10 Torsion [C]-N--CA-[CB] |==|  0.81511
USER: genes 11 Torsion [N]-CA--C-[N] |==|  0.10000
USER: genes 12 Torsion [C]-N--CA-[CB] |==|  0.43734
USER: genes 13 Torsion [N]-CA--CB-[CG] |==|  0.83225
USER: genes 14 Torsion [CA]-CB--CG-[OD2] |==|  0.88711
USER: genes 15 Torsion [N]-CA--C-[O] |==|  0.68429
USER: genes 16 Torsion [N]-CA--CB-[CG] |==|  0.81118
USER: genes 17 Torsion [CA]-CB--CG-[OD1] |==|  0.87884
ROOT
ATOM      1  C   ASP D 179      73.038 -25.540  79.465  1.00 41.71 LIG 0.24  C 
ATOM      2 O    ASP D 179      72.289 -26.480  79.734  1.00 47.20 LIG-0.27  OA
ATOM      3  N   ASP D 180      73.837 -25.516  78.398  1.00 48.22 LIG-0.34  N 
ATOM      4 H    ASP D 180      74.300 -24.826  78.176  1.00 48.22 LIG 0.16  HD
ENDROOT
BRANCH 1 5
ATOM      5  CA  ASP D 179      73.104 -24.293  80.348  1.00 44.60 LIG 0.19  C 
BRANCH 5 6
ATOM      6  CB  ASP D 179      73.893 -24.554  81.635  1.00 48.27 LIG 0.15  C 
BRANCH 6 7
ATOM      7  CG  ASP D 179      75.401 -24.543  81.399  1.00 46.68 LIG 0.17  C 
ATOM      8 OD1  ASP D 179      76.147 -25.093  82.240  1.00 58.91 LIG-0.65  OA
ATOM      9 OD2  ASP D 179      75.847 -24.006  80.364  1.00 62.78 LIG-0.65  OA
ENDBRANCH 6 7
ENDBRANCH 5 6
BRANCH 5 10
ATOM     10  N   ASP D 179      71.745 -23.789  80.589  1.00 43.40 LIG-0.34  N 
ATOM     11 H    ASP D 179      71.237 -24.392  80.933  1.00 43.40 LIG 0.16  HD
ATOM     12  C   VAL D 178      71.286 -22.567  80.332  1.00 52.66 LIG 0.24  C 
ATOM     13 O    VAL D 178      71.824 -21.758  79.569  1.00 53.52 LIG-0.27  OA
BRANCH 12 14
ATOM     14  CA  VAL D 178      69.990 -22.218  81.074  1.00 43.72 LIG 0.18  C 
BRANCH 14 15
ATOM     15  N   VAL D 178      69.765 -23.117  82.190  1.00 54.34 LIG-0.35  N 
ATOM     16  C   GLY D 177      68.734 -23.954  82.237  1.00 48.99 LIG 0.25  C 
ATOM     17 O    GLY D 177      68.560 -24.720  83.175  1.00 61.87 LIG-0.27  OA
ATOM     18 H    VAL D 178      70.357 -23.057  82.811  1.00 54.34 LIG 0.16  HD
BRANCH 16 19
ATOM     19  CA  GLY D 177      67.765 -23.948  81.067  1.00 38.66 LIG 0.47  C 
ATOM     20  N   GLY D 177      67.498 -25.290  80.579  1.00 37.02 LIG 0.61  N 
ENDBRANCH 16 19
ENDBRANCH 14 15
BRANCH 14 21
ATOM     21  CB  VAL D 178      69.997 -20.750  81.549  1.00 39.80 LIG 0.01  C 
ATOM     22  CG2 VAL D 178      70.192 -20.672  83.048  1.00 46.96 LIG 0.01  C 
ATOM     23  CG1 VAL D 178      68.675 -20.081  81.167  1.00 37.07 LIG 0.01  C 
ENDBRANCH 14 21
ENDBRANCH 12 14
ENDBRANCH 5 10
ENDBRANCH 1 5
BRANCH 3 24
ATOM     24  CA  ASP D 180      74.012 -26.651  77.495  1.00 47.37 LIG 0.19  C 
BRANCH 24 25
ATOM     25  C   ASP D 180      72.641 -27.103  76.996  1.00 52.09 LIG 0.24  C 
ATOM     26 O    ASP D 180      72.411 -28.299  76.799  1.00 46.90 LIG-0.27  OA
ATOM     27  N   ASP D 181      71.734 -26.158  76.778  1.00 56.67 LIG-0.35  N 
ATOM     28 H    ASP D 181      71.870 -25.317  76.898  1.00 56.67 LIG 0.16  HD
BRANCH 27 29
ATOM     29  CA  ASP D 181      70.400 -26.500  76.303  1.00 54.32 LIG 0.17  C 
BRANCH 29 30
ATOM     30  CB  ASP D 181      69.411 -25.390  76.653  1.00 57.98 LIG 0.15  C 
BRANCH 30 31
ATOM     31  CG  ASP D 181      69.306 -25.156  78.144  1.00 59.80 LIG 0.17  C 
ATOM     32 OD2  ASP D 181      69.298 -26.148  78.904  1.00 65.59 LIG-0.65  OA
ATOM     33 OD1  ASP D 181      69.230 -23.980  78.557  1.00 62.88 LIG-0.65  OA
ENDBRANCH 30 31
ENDBRANCH 29 30
BRANCH 29 34
ATOM     34  C   ASP D 181      70.391 -26.761  74.801  1.00 55.94 LIG 0.22  C 
ATOM     35 O    ASP D 181      69.786 -26.007  74.034  1.00 49.69 LIG-0.29  OA
ENDBRANCH 29 34
ENDBRANCH 27 29
ENDBRANCH 24 25
BRANCH 24 36
ATOM     36  CB  ASP D 180      74.709 -27.818  78.196  1.00 41.39 LIG 0.15  C 
BRANCH 36 37
ATOM     37  CG  ASP D 180      76.154 -27.520  78.543  1.00 35.24 LIG 0.17  C 
ATOM     38 OD1  ASP D 180      76.875 -26.952  77.695  1.00 51.10 LIG-0.65  OA
ATOM     39 OD2  ASP D 180      76.560 -27.835  79.682  1.00 19.64 LIG-0.65  OA
ENDBRANCH 36 37
ENDBRANCH 24 36
ENDBRANCH 3 24
TORSDOF 16
ENDMDL
MODEL 76
USER: ADFR SOLUTION from run 191
USER: SCORE 11.339360 LL:  -2.026 LR: -10.147 RR:   0.000 FEB:  -5.374
USER: RMSD 5.318451
USER: SEED 190
USER: STATUS no improvement in best in 10 clusters for 5 generations
USER: GENES 18
USER: genes 0 Translation |==|  0.46846 0.62935 0.59714
USER: genes 1 Rotation |==|  0.70922 0.19423 0.17465 0.58294
USER: genes 2 Torsion [N]-C--CA-[N] |==|  0.34458
USER: genes 3 Torsion [C]-CA--CB-[CG] |==|  0.52114
USER: genes 4 Torsion [CA]-CB--CG-[OD1] |==|  0.22884
USER: genes 5 Torsion [C]-CA--N-[C] |==|  0.78484
USER: genes 6 Torsion [N]-C--CA-[N] |==|  0.73917
USER: genes 7 Torsion [C]-CA--N-[C] |==|  0.69166
USER: genes 8 Torsion [N]-C--CA-[N] |==|  0.27979
USER: genes 9 Torsion [C]-CA--CB-[CG1] |==|  0.19510
USER: genes 10 Torsion [C]-N--CA-[CB] |==|  0.86653
USER: genes 11 Torsion [N]-CA--C-[N] |==|  0.36860
USER: genes 12 Torsion [C]-N--CA-[CB] |==|  0.29756
USER: genes 13 Torsion [N]-CA--CB-[CG] |==|  0.24285
USER: genes 14 Torsion [CA]-CB--CG-[OD2] |==|  0.24415
USER: genes 15 Torsion [N]-CA--C-[O] |==|  0.21664
USER: genes 16 Torsion [N]-CA--CB-[CG] |==|  0.40850
USER: genes 17 Torsion [CA]-CB--CG-[OD1] |==|  0.19009
ROOT
ATOM      1  C   ASP D 179      71.584 -23.082  80.526  1.00 41.71 LIG 0.24  C 
ATOM      2 O    ASP D 179      71.512 -22.170  79.702  1.00 47.20 LIG-0.27  OA
ATOM      3  N   ASP D 180      70.752 -23.211  81.559  1.00 48.22 LIG-0.34  N 
ATOM      4 H    ASP D 180      70.762 -23.891  82.085  1.00 48.22 LIG 0.16  HD
ENDROOT
BRANCH 1 5
ATOM      5  CA  ASP D 179      72.653 -24.170  80.420  1.00 44.60 LIG 0.19  C 
BRANCH 5 6
ATOM      6  CB  ASP D 179      74.047 -23.625  80.748  1.00 48.27 LIG 0.15  C 
BRANCH 6 7
ATOM      7  CG  ASP D 179      75.147 -24.645  80.469  1.00 46.68 LIG 0.17  C 
ATOM      8 OD1  ASP D 179      75.573 -24.767  79.298  1.00 58.91 LIG-0.65  OA
ATOM      9 OD2  ASP D 179      75.606 -25.314  81.417  1.00 62.78 LIG-0.65  OA
ENDBRANCH 6 7
ENDBRANCH 5 6
BRANCH 5 10
ATOM     10  N   ASP D 179      72.573 -24.811  79.101  1.00 43.40 LIG-0.34  N 
ATOM     11 H    ASP D 179      73.191 -24.532  78.572  1.00 43.40 LIG 0.16  HD
ATOM     12  C   VAL D 178      71.684 -25.718  78.703  1.00 52.66 LIG 0.24  C 
ATOM     13 O    VAL D 178      70.604 -25.937  79.260  1.00 53.52 LIG-0.27  OA
BRANCH 12 14
ATOM     14  CA  VAL D 178      72.108 -26.502  77.455  1.00 43.72 LIG 0.18  C 
BRANCH 14 15
ATOM     15  N   VAL D 178      71.581 -25.893  76.248  1.00 54.34 LIG-0.35  N 
ATOM     16  C   GLY D 177      70.637 -26.468  75.512  1.00 48.99 LIG 0.25  C 
ATOM     17 O    GLY D 177      70.186 -25.941  74.504  1.00 61.87 LIG-0.27  OA
ATOM     18 H    VAL D 178      71.935 -25.132  76.057  1.00 54.34 LIG 0.16  HD
BRANCH 16 19
ATOM     19  CA  GLY D 177      70.106 -27.816  75.969  1.00 38.66 LIG 0.47  C 
ATOM     20  N   GLY D 177      68.830 -27.692  76.653  1.00 37.02 LIG 0.61  N 
ENDBRANCH 16 19
ENDBRANCH 14 15
BRANCH 14 21
ATOM     21  CB  VAL D 178      73.644 -26.633  77.373  1.00 39.80 LIG 0.01  C 
ATOM     22  CG2 VAL D 178      74.066 -27.157  76.017  1.00 46.96 LIG 0.01  C 
ATOM     23  CG1 VAL D 178      74.135 -27.583  78.467  1.00 37.07 LIG 0.01  C 
ENDBRANCH 14 21
ENDBRANCH 12 14
ENDBRANCH 5 10
ENDBRANCH 1 5
BRANCH 3 24
ATOM     24  CA  ASP D 180      69.738 -22.218  81.907  1.00 47.37 LIG 0.19  C 
BRANCH 24 25
ATOM     25  C   ASP D 180      68.609 -22.283  80.880  1.00 52.09 LIG 0.24  C 
ATOM     26 O    ASP D 180      68.862 -22.294  79.673  1.00 46.90 LIG-0.27  OA
ATOM     27  N   ASP D 181      67.366 -22.311  81.348  1.00 56.67 LIG-0.35  N 
ATOM     28 H    ASP D 181      67.160 -22.295  82.183  1.00 56.67 LIG 0.16  HD
BRANCH 27 29
ATOM     29  CA  ASP D 181      66.228 -22.374  80.439  1.00 54.32 LIG 0.17  C 
BRANCH 29 30
ATOM     30  CB  ASP D 181      65.596 -23.764  80.475  1.00 57.98 LIG 0.15  C 
BRANCH 30 31
ATOM     31  CG  ASP D 181      64.553 -23.899  81.561  1.00 59.80 LIG 0.17  C 
ATOM     32 OD2  ASP D 181      63.374 -23.579  81.298  1.00 65.59 LIG-0.65  OA
ATOM     33 OD1  ASP D 181      64.911 -24.322  82.680  1.00 62.88 LIG-0.65  OA
ENDBRANCH 30 31
ENDBRANCH 29 30
BRANCH 29 34
ATOM     34  C   ASP D 181      65.187 -21.311  80.771  1.00 55.94 LIG 0.22  C 
ATOM     35 O    ASP D 181      65.358 -20.136  80.436  1.00 49.69 LIG-0.29  OA
ENDBRANCH 29 34
ENDBRANCH 27 29
ENDBRANCH 24 25
BRANCH 24 36
ATOM     36  CB  ASP D 180      70.325 -20.806  81.929  1.00 41.39 LIG 0.15  C 
BRANCH 36 37
ATOM     37  CG  ASP D 180      69.331 -19.747  81.496  1.00 35.24 LIG 0.17  C 
ATOM     38 OD1  ASP D 180      68.353 -19.498  82.233  1.00 51.10 LIG-0.65  OA
ATOM     39 OD2  ASP D 180      69.547 -19.144  80.423  1.00 19.64 LIG-0.65  OA
ENDBRANCH 36 37
ENDBRANCH 24 36
ENDBRANCH 3 24
TORSDOF 16
ENDMDL
MODEL 77
USER: ADFR SOLUTION from run 91
USER: SCORE 11.001245 LL:  -1.916 LR: -10.142 RR:   0.000 FEB:  -5.369
USER: RMSD 10.527764
USER: SEED 90
USER: STATUS no improvement in best in 13 clusters for 5 generations
USER: GENES 18
USER: genes 0 Translation |==|  0.38664 0.73584 0.68976
USER: genes 1 Rotation |==|  0.65648 0.17156 0.83875 0.55373
USER: genes 2 Torsion [N]-C--CA-[N] |==|  0.01296
USER: genes 3 Torsion [C]-CA--CB-[CG] |==|  0.59924
USER: genes 4 Torsion [CA]-CB--CG-[OD1] |==|  0.20583
USER: genes 5 Torsion [C]-CA--N-[C] |==|  0.71909
USER: genes 6 Torsion [N]-C--CA-[N] |==|  0.82899
USER: genes 7 Torsion [C]-CA--N-[C] |==|  0.62650
USER: genes 8 Torsion [N]-C--CA-[N] |==|  0.57410
USER: genes 9 Torsion [C]-CA--CB-[CG1] |==|  0.12813
USER: genes 10 Torsion [C]-N--CA-[CB] |==|  0.53941
USER: genes 11 Torsion [N]-CA--C-[N] |==|  0.35587
USER: genes 12 Torsion [C]-N--CA-[CB] |==|  0.36930
USER: genes 13 Torsion [N]-CA--CB-[CG] |==|  0.51065
USER: genes 14 Torsion [CA]-CB--CG-[OD2] |==|  0.06438
USER: genes 15 Torsion [N]-CA--C-[O] |==|  0.43892
USER: genes 16 Torsion [N]-CA--CB-[CG] |==|  0.47873
USER: genes 17 Torsion [CA]-CB--CG-[OD1] |==|  0.60263
ROOT
ATOM      1  C   ASP D 179      69.988 -21.085  82.054  1.00 41.71 LIG 0.24  C 
ATOM      2 O    ASP D 179      70.978 -21.592  82.583  1.00 47.20 LIG-0.27  OA
ATOM      3  N   ASP D 180      69.239 -21.706  81.144  1.00 48.22 LIG-0.34  N 
ATOM      4 H    ASP D 180      68.507 -21.375  80.836  1.00 48.22 LIG 0.16  HD
ENDROOT
BRANCH 1 5
ATOM      5  CA  ASP D 179      69.525 -19.673  82.417  1.00 44.60 LIG 0.19  C 
BRANCH 5 6
ATOM      6  CB  ASP D 179      69.452 -19.476  83.934  1.00 48.27 LIG 0.15  C 
BRANCH 6 7
ATOM      7  CG  ASP D 179      68.289 -18.578  84.344  1.00 46.68 LIG 0.17  C 
ATOM      8 OD1  ASP D 179      67.126 -19.039  84.298  1.00 58.91 LIG-0.65  OA
ATOM      9 OD2  ASP D 179      68.529 -17.417  84.735  1.00 62.78 LIG-0.65  OA
ENDBRANCH 6 7
ENDBRANCH 5 6
BRANCH 5 10
ATOM     10  N   ASP D 179      68.261 -19.379  81.728  1.00 43.40 LIG-0.34  N 
ATOM     11 H    ASP D 179      67.590 -19.743  82.124  1.00 43.40 LIG 0.16  HD
ATOM     12  C   VAL D 178      68.099 -18.649  80.627  1.00 52.66 LIG 0.24  C 
ATOM     13 O    VAL D 178      69.001 -18.364  79.832  1.00 53.52 LIG-0.27  OA
BRANCH 12 14
ATOM     14  CA  VAL D 178      66.659 -18.171  80.402  1.00 43.72 LIG 0.18  C 
BRANCH 14 15
ATOM     15  N   VAL D 178      65.752 -19.291  80.245  1.00 54.34 LIG-0.35  N 
ATOM     16  C   GLY D 177      64.832 -19.337  79.288  1.00 48.99 LIG 0.25  C 
ATOM     17 O    GLY D 177      64.081 -20.293  79.152  1.00 61.87 LIG-0.27  OA
ATOM     18 H    VAL D 178      65.865 -19.916  80.825  1.00 54.34 LIG 0.16  HD
BRANCH 16 19
ATOM     19  CA  GLY D 177      64.745 -18.157  78.334  1.00 38.66 LIG 0.47  C 
ATOM     20  N   GLY D 177      63.410 -18.007  77.780  1.00 37.02 LIG 0.61  N 
ENDBRANCH 16 19
ENDBRANCH 14 15
BRANCH 14 21
ATOM     21  CB  VAL D 178      66.193 -17.247  81.547  1.00 39.80 LIG 0.01  C 
ATOM     22  CG2 VAL D 178      64.911 -16.535  81.173  1.00 46.96 LIG 0.01  C 
ATOM     23  CG1 VAL D 178      67.283 -16.217  81.851  1.00 37.07 LIG 0.01  C 
ENDBRANCH 14 21
ENDBRANCH 12 14
ENDBRANCH 5 10
ENDBRANCH 1 5
BRANCH 3 24
ATOM     24  CA  ASP D 180      69.574 -23.009  80.575  1.00 47.37 LIG 0.19  C 
BRANCH 24 25
ATOM     25  C   ASP D 180      71.057 -23.022  80.208  1.00 52.09 LIG 0.24  C 
ATOM     26 O    ASP D 180      71.533 -22.131  79.500  1.00 46.90 LIG-0.27  OA
ATOM     27  N   ASP D 181      71.787 -24.030  80.671  1.00 56.67 LIG-0.35  N 
ATOM     28 H    ASP D 181      71.479 -24.669  81.158  1.00 56.67 LIG 0.16  HD
BRANCH 27 29
ATOM     29  CA  ASP D 181      73.210 -24.121  80.370  1.00 54.32 LIG 0.17  C 
BRANCH 29 30
ATOM     30  CB  ASP D 181      74.002 -24.426  81.640  1.00 57.98 LIG 0.15  C 
BRANCH 30 31
ATOM     31  CG  ASP D 181      75.496 -24.440  81.401  1.00 59.80 LIG 0.17  C 
ATOM     32 OD2  ASP D 181      75.949 -23.808  80.423  1.00 65.59 LIG-0.65  OA
ATOM     33 OD1  ASP D 181      76.218 -25.084  82.191  1.00 62.88 LIG-0.65  OA
ENDBRANCH 30 31
ENDBRANCH 29 30
BRANCH 29 34
ATOM     34  C   ASP D 181      73.490 -25.175  79.305  1.00 55.94 LIG 0.22  C 
ATOM     35 O    ASP D 181      74.525 -25.133  78.635  1.00 49.69 LIG-0.29  OA
ENDBRANCH 29 34
ENDBRANCH 27 29
ENDBRANCH 24 25
BRANCH 24 36
ATOM     36  CB  ASP D 180      68.739 -23.304  79.328  1.00 41.39 LIG 0.15  C 
BRANCH 36 37
ATOM     37  CG  ASP D 180      69.184 -24.558  78.603  1.00 35.24 LIG 0.17  C 
ATOM     38 OD1  ASP D 180      69.150 -24.579  77.353  1.00 51.10 LIG-0.65  OA
ATOM     39 OD2  ASP D 180      69.593 -25.519  79.289  1.00 19.64 LIG-0.65  OA
ENDBRANCH 36 37
ENDBRANCH 24 36
ENDBRANCH 3 24
TORSDOF 16
ENDMDL
MODEL 78
USER: ADFR SOLUTION from run 143
USER: SCORE 11.197147 LL:  -3.241 LR: -10.139 RR:   0.000 FEB:  -5.366
USER: RMSD 7.390186
USER: SEED 142
USER: STATUS no improvement in best in 19 clusters for 5 generations
USER: GENES 18
USER: genes 0 Translation |==|  0.45551 0.64030 0.55880
USER: genes 1 Rotation |==|  0.88396 0.49950 0.81680 0.54703
USER: genes 2 Torsion [N]-C--CA-[N] |==|  0.90889
USER: genes 3 Torsion [C]-CA--CB-[CG] |==|  0.28870
USER: genes 4 Torsion [CA]-CB--CG-[OD1] |==|  0.01763
USER: genes 5 Torsion [C]-CA--N-[C] |==|  0.83275
USER: genes 6 Torsion [N]-C--CA-[N] |==|  0.51598
USER: genes 7 Torsion [C]-CA--N-[C] |==|  0.80537
USER: genes 8 Torsion [N]-C--CA-[N] |==|  0.42872
USER: genes 9 Torsion [C]-CA--CB-[CG1] |==|  0.90245
USER: genes 10 Torsion [C]-N--CA-[CB] |==|  0.34882
USER: genes 11 Torsion [N]-CA--C-[N] |==|  0.14711
USER: genes 12 Torsion [C]-N--CA-[CB] |==|  0.38579
USER: genes 13 Torsion [N]-CA--CB-[CG] |==|  0.25906
USER: genes 14 Torsion [CA]-CB--CG-[OD2] |==|  0.72863
USER: genes 15 Torsion [N]-CA--C-[O] |==|  0.08985
USER: genes 16 Torsion [N]-CA--CB-[CG] |==|  0.62436
USER: genes 17 Torsion [CA]-CB--CG-[OD1] |==|  0.50257
ROOT
ATOM      1  C   ASP D 179      71.331 -22.876  79.893  1.00 41.71 LIG 0.24  C 
ATOM      2 O    ASP D 179      72.091 -22.112  79.299  1.00 47.20 LIG-0.27  OA
ATOM      3  N   ASP D 180      71.653 -24.127  80.222  1.00 48.22 LIG-0.34  N 
ATOM      4 H    ASP D 180      71.146 -24.629  80.703  1.00 48.22 LIG 0.16  HD
ENDROOT
BRANCH 1 5
ATOM      5  CA  ASP D 179      69.930 -22.437  80.321  1.00 44.60 LIG 0.19  C 
BRANCH 5 6
ATOM      6  CB  ASP D 179      69.951 -21.733  81.682  1.00 48.27 LIG 0.15  C 
BRANCH 6 7
ATOM      7  CG  ASP D 179      69.809 -20.220  81.551  1.00 46.68 LIG 0.17  C 
ATOM      8 OD1  ASP D 179      69.574 -19.732  80.423  1.00 58.91 LIG-0.65  OA
ATOM      9 OD2  ASP D 179      69.907 -19.512  82.575  1.00 62.78 LIG-0.65  OA
ENDBRANCH 6 7
ENDBRANCH 5 6
BRANCH 5 10
ATOM     10  N   ASP D 179      69.018 -23.588  80.273  1.00 43.40 LIG-0.34  N 
ATOM     11 H    ASP D 179      68.676 -23.757  81.043  1.00 43.40 LIG 0.16  HD
ATOM     12  C   VAL D 178      68.712 -24.324  79.207  1.00 52.66 LIG 0.24  C 
ATOM     13 O    VAL D 178      69.373 -24.362  78.164  1.00 53.52 LIG-0.27  OA
BRANCH 12 14
ATOM     14  CA  VAL D 178      67.434 -25.156  79.370  1.00 43.72 LIG 0.18  C 
BRANCH 14 15
ATOM     15  N   VAL D 178      67.231 -26.033  78.233  1.00 54.34 LIG-0.35  N 
ATOM     16  C   GLY D 177      66.898 -25.577  77.030  1.00 48.99 LIG 0.25  C 
ATOM     17 O    GLY D 177      66.743 -26.321  76.071  1.00 61.87 LIG-0.27  OA
ATOM     18 H    VAL D 178      67.345 -26.867  78.409  1.00 54.34 LIG 0.16  HD
BRANCH 16 19
ATOM     19  CA  GLY D 177      66.726 -24.076  76.866  1.00 38.66 LIG 0.47  C 
ATOM     20  N   GLY D 177      66.958 -23.652  75.496  1.00 37.02 LIG 0.61  N 
ENDBRANCH 16 19
ENDBRANCH 14 15
BRANCH 14 21
ATOM     21  CB  VAL D 178      67.459 -25.965  80.684  1.00 39.80 LIG 0.01  C 
ATOM     22  CG2 VAL D 178      66.942 -25.132  81.837  1.00 46.96 LIG 0.01  C 
ATOM     23  CG1 VAL D 178      68.890 -26.419  80.979  1.00 37.07 LIG 0.01  C 
ENDBRANCH 14 21
ENDBRANCH 12 14
ENDBRANCH 5 10
ENDBRANCH 1 5
BRANCH 3 24
ATOM     24  CA  ASP D 180      72.893 -24.778  79.805  1.00 47.37 LIG 0.19  C 
BRANCH 24 25
ATOM     25  C   ASP D 180      72.555 -25.922  78.851  1.00 52.09 LIG 0.24  C 
ATOM     26 O    ASP D 180      72.992 -27.057  79.057  1.00 46.90 LIG-0.27  OA
ATOM     27  N   ASP D 181      71.793 -25.631  77.803  1.00 56.67 LIG-0.35  N 
ATOM     28 H    ASP D 181      71.482 -24.848  77.630  1.00 56.67 LIG 0.16  HD
BRANCH 27 29
ATOM     29  CA  ASP D 181      71.421 -26.661  76.842  1.00 54.32 LIG 0.17  C 
BRANCH 29 30
ATOM     30  CB  ASP D 181      69.958 -26.501  76.431  1.00 57.98 LIG 0.15  C 
BRANCH 30 31
ATOM     31  CG  ASP D 181      69.796 -25.667  75.180  1.00 59.80 LIG 0.17  C 
ATOM     32 OD2  ASP D 181      69.513 -24.456  75.304  1.00 65.59 LIG-0.65  OA
ATOM     33 OD1  ASP D 181      69.949 -26.222  74.071  1.00 62.88 LIG-0.65  OA
ENDBRANCH 30 31
ENDBRANCH 29 30
BRANCH 29 34
ATOM     34  C   ASP D 181      72.322 -26.632  75.613  1.00 55.94 LIG 0.22  C 
ATOM     35 O    ASP D 181      73.505 -26.295  75.707  1.00 49.69 LIG-0.29  OA
ENDBRANCH 29 34
ENDBRANCH 27 29
ENDBRANCH 24 25
BRANCH 24 36
ATOM     36  CB  ASP D 180      73.664 -25.328  81.006  1.00 41.39 LIG 0.15  C 
BRANCH 36 37
ATOM     37  CG  ASP D 180      75.147 -25.020  80.946  1.00 35.24 LIG 0.17  C 
ATOM     38 OD1  ASP D 180      75.888 -25.433  81.864  1.00 51.10 LIG-0.65  OA
ATOM     39 OD2  ASP D 180      75.574 -24.382  79.961  1.00 19.64 LIG-0.65  OA
ENDBRANCH 36 37
ENDBRANCH 24 36
ENDBRANCH 3 24
TORSDOF 16
ENDMDL
MODEL 79
USER: ADFR SOLUTION from run 165
USER: SCORE 10.302896 LL:  -2.030 LR: -10.128 RR:   0.000 FEB:  -5.355
USER: RMSD 8.886460
USER: SEED 164
USER: STATUS no improvement in best in 12 clusters for 5 generations
USER: GENES 18
USER: genes 0 Translation |==|  0.30804 0.55386 0.46026
USER: genes 1 Rotation |==|  0.56964 0.71302 0.61215 0.93266
USER: genes 2 Torsion [N]-C--CA-[N] |==|  0.04443
USER: genes 3 Torsion [C]-CA--CB-[CG] |==|  0.78078
USER: genes 4 Torsion [CA]-CB--CG-[OD1] |==|  0.35340
USER: genes 5 Torsion [C]-CA--N-[C] |==|  0.74232
USER: genes 6 Torsion [N]-C--CA-[N] |==|  0.70703
USER: genes 7 Torsion [C]-CA--N-[C] |==|  0.65902
USER: genes 8 Torsion [N]-C--CA-[N] |==|  0.47043
USER: genes 9 Torsion [C]-CA--CB-[CG1] |==|  0.20299
USER: genes 10 Torsion [C]-N--CA-[CB] |==|  0.84834
USER: genes 11 Torsion [N]-CA--C-[N] |==|  0.75681
USER: genes 12 Torsion [C]-N--CA-[CB] |==|  0.25049
USER: genes 13 Torsion [N]-CA--CB-[CG] |==|  0.54087
USER: genes 14 Torsion [CA]-CB--CG-[OD2] |==|  0.43655
USER: genes 15 Torsion [N]-CA--C-[O] |==|  0.07487
USER: genes 16 Torsion [N]-CA--CB-[CG] |==|  0.51301
USER: genes 17 Torsion [CA]-CB--CG-[OD1] |==|  0.06945
ROOT
ATOM      1  C   ASP D 179      68.456 -24.497  78.267  1.00 41.71 LIG 0.24  C 
ATOM      2 O    ASP D 179      69.111 -25.504  78.534  1.00 47.20 LIG-0.27  OA
ATOM      3  N   ASP D 180      68.598 -23.335  78.903  1.00 48.22 LIG-0.34  N 
ATOM      4 H    ASP D 180      68.191 -22.617  78.661  1.00 48.22 LIG 0.16  HD
ENDROOT
BRANCH 1 5
ATOM      5  CA  ASP D 179      67.410 -24.498  77.151  1.00 44.60 LIG 0.19  C 
BRANCH 5 6
ATOM      6  CB  ASP D 179      67.860 -25.346  75.957  1.00 48.27 LIG 0.15  C 
BRANCH 6 7
ATOM      7  CG  ASP D 179      68.862 -24.612  75.072  1.00 46.68 LIG 0.17  C 
ATOM      8 OD1  ASP D 179      69.948 -25.171  74.798  1.00 58.91 LIG-0.65  OA
ATOM      9 OD2  ASP D 179      68.565 -23.483  74.628  1.00 62.78 LIG-0.65  OA
ENDBRANCH 6 7
ENDBRANCH 5 6
BRANCH 5 10
ATOM     10  N   ASP D 179      67.075 -23.114  76.791  1.00 43.40 LIG-0.34  N 
ATOM     11 H    ASP D 179      67.609 -22.801  76.194  1.00 43.40 LIG 0.16  HD
ATOM     12  C   VAL D 178      66.085 -22.374  77.284  1.00 52.66 LIG 0.24  C 
ATOM     13 O    VAL D 178      65.486 -22.612  78.338  1.00 53.52 LIG-0.27  OA
BRANCH 12 14
ATOM     14  CA  VAL D 178      65.726 -21.157  76.423  1.00 43.72 LIG 0.18  C 
BRANCH 14 15
ATOM     15  N   VAL D 178      66.212 -19.928  77.022  1.00 54.34 LIG-0.35  N 
ATOM     16  C   GLY D 177      65.409 -18.914  77.323  1.00 48.99 LIG 0.25  C 
ATOM     17 O    GLY D 177      65.824 -17.887  77.843  1.00 61.87 LIG-0.27  OA
ATOM     18 H    VAL D 178      67.061 -19.919  77.161  1.00 54.34 LIG 0.16  HD
BRANCH 16 19
ATOM     19  CA  GLY D 177      63.929 -19.070  77.018  1.00 38.66 LIG 0.47  C 
ATOM     20  N   GLY D 177      63.138 -18.007  77.616  1.00 37.02 LIG 0.61  N 
ENDBRANCH 16 19
ENDBRANCH 14 15
BRANCH 14 21
ATOM     21  CB  VAL D 178      66.264 -21.313  74.985  1.00 39.80 LIG 0.01  C 
ATOM     22  CG2 VAL D 178      66.217 -19.991  74.248  1.00 46.96 LIG 0.01  C 
ATOM     23  CG1 VAL D 178      65.427 -22.350  74.234  1.00 37.07 LIG 0.01  C 
ENDBRANCH 14 21
ENDBRANCH 12 14
ENDBRANCH 5 10
ENDBRANCH 1 5
BRANCH 3 24
ATOM     24  CA  ASP D 180      69.455 -23.154  80.073  1.00 47.37 LIG 0.19  C 
BRANCH 24 25
ATOM     25  C   ASP D 180      70.911 -23.347  79.654  1.00 52.09 LIG 0.24  C 
ATOM     26 O    ASP D 180      71.591 -22.382  79.299  1.00 46.90 LIG-0.27  OA
ATOM     27  N   ASP D 181      71.389 -24.586  79.681  1.00 56.67 LIG-0.35  N 
ATOM     28 H    ASP D 181      70.935 -25.277  79.915  1.00 56.67 LIG 0.16  HD
BRANCH 27 29
ATOM     29  CA  ASP D 181      72.768 -24.861  79.298  1.00 54.32 LIG 0.17  C 
BRANCH 29 30
ATOM     30  CB  ASP D 181      73.684 -24.776  80.517  1.00 57.98 LIG 0.15  C 
BRANCH 30 31
ATOM     31  CG  ASP D 181      75.147 -24.698  80.139  1.00 59.80 LIG 0.17  C 
ATOM     32 OD2  ASP D 181      75.949 -24.203  80.960  1.00 65.59 LIG-0.65  OA
ATOM     33 OD1  ASP D 181      75.495 -25.131  79.020  1.00 62.88 LIG-0.65  OA
ENDBRANCH 30 31
ENDBRANCH 29 30
BRANCH 29 34
ATOM     34  C   ASP D 181      72.902 -26.224  78.629  1.00 55.94 LIG 0.22  C 
ATOM     35 O    ASP D 181      71.949 -26.727  78.027  1.00 49.69 LIG-0.29  OA
ENDBRANCH 29 34
ENDBRANCH 27 29
ENDBRANCH 24 25
BRANCH 24 36
ATOM     36  CB  ASP D 180      69.106 -24.152  81.178  1.00 41.39 LIG 0.15  C 
BRANCH 36 37
ATOM     37  CG  ASP D 180      69.897 -23.923  82.451  1.00 35.24 LIG 0.17  C 
ATOM     38 OD1  ASP D 180      70.347 -22.781  82.686  1.00 51.10 LIG-0.65  OA
ATOM     39 OD2  ASP D 180      70.047 -24.888  83.230  1.00 19.64 LIG-0.65  OA
ENDBRANCH 36 37
ENDBRANCH 24 36
ENDBRANCH 3 24
TORSDOF 16
ENDMDL
MODEL 80
USER: ADFR SOLUTION from run 129
USER: SCORE 11.057940 LL:  -2.543 LR: -10.121 RR:   0.000 FEB:  -5.348
USER: RMSD 5.500780
USER: SEED 128
USER: STATUS no improvement in best in 7 clusters for 5 generations
USER: GENES 18
USER: genes 0 Translation |==|  0.68078 0.38562 0.39503
USER: genes 1 Rotation |==|  0.59813 0.37504 0.46192 0.97255
USER: genes 2 Torsion [N]-C--CA-[N] |==|  0.30500
USER: genes 3 Torsion [C]-CA--CB-[CG] |==|  0.47566
USER: genes 4 Torsion [CA]-CB--CG-[OD1] |==|  0.24878
USER: genes 5 Torsion [C]-CA--N-[C] |==|  0.58964
USER: genes 6 Torsion [N]-C--CA-[N] |==|  0.36789
USER: genes 7 Torsion [C]-CA--N-[C] |==|  0.74364
USER: genes 8 Torsion [N]-C--CA-[N] |==|  0.38706
USER: genes 9 Torsion [C]-CA--CB-[CG1] |==|  0.81085
USER: genes 10 Torsion [C]-N--CA-[CB] |==|  0.26619
USER: genes 11 Torsion [N]-CA--C-[N] |==|  0.37404
USER: genes 12 Torsion [C]-N--CA-[CB] |==|  0.45957
USER: genes 13 Torsion [N]-CA--CB-[CG] |==|  0.51012
USER: genes 14 Torsion [CA]-CB--CG-[OD2] |==|  0.60064
USER: genes 15 Torsion [N]-CA--C-[O] |==|  0.16194
USER: genes 16 Torsion [N]-CA--CB-[CG] |==|  0.40077
USER: genes 17 Torsion [CA]-CB--CG-[OD1] |==|  0.73761
ROOT
ATOM      1  C   ASP D 179      75.724 -27.652  77.191  1.00 41.71 LIG 0.24  C 
ATOM      2 O    ASP D 179      75.020 -28.660  77.247  1.00 47.20 LIG-0.27  OA
ATOM      3  N   ASP D 180      75.766 -26.727  78.149  1.00 48.22 LIG-0.34  N 
ATOM      4 H    ASP D 180      76.315 -26.065  78.137  1.00 48.22 LIG 0.16  HD
ENDROOT
BRANCH 1 5
ATOM      5  CA  ASP D 179      76.636 -27.381  75.994  1.00 44.60 LIG 0.19  C 
BRANCH 5 6
ATOM      6  CB  ASP D 179      75.849 -27.360  74.679  1.00 48.27 LIG 0.15  C 
BRANCH 6 7
ATOM      7  CG  ASP D 179      76.699 -26.882  73.505  1.00 46.68 LIG 0.17  C 
ATOM      8 OD1  ASP D 179      77.348 -27.726  72.847  1.00 58.91 LIG-0.65  OA
ATOM      9 OD2  ASP D 179      76.708 -25.667  73.220  1.00 62.78 LIG-0.65  OA
ENDBRANCH 6 7
ENDBRANCH 5 6
BRANCH 5 10
ATOM     10  N   ASP D 179      77.747 -28.342  75.994  1.00 43.40 LIG-0.34  N 
ATOM     11 H    ASP D 179      77.510 -29.103  76.318  1.00 43.40 LIG 0.16  HD
ATOM     12  C   VAL D 178      78.988 -28.133  75.564  1.00 52.66 LIG 0.24  C 
ATOM     13 O    VAL D 178      79.494 -27.020  75.386  1.00 53.52 LIG-0.27  OA
BRANCH 12 14
ATOM     14  CA  VAL D 178      79.781 -29.418  75.294  1.00 43.72 LIG 0.18  C 
BRANCH 14 15
ATOM     15  N   VAL D 178      80.448 -29.364  74.007  1.00 54.34 LIG-0.35  N 
ATOM     16  C   GLY D 177      79.892 -29.831  72.895  1.00 48.99 LIG 0.25  C 
ATOM     17 O    GLY D 177      80.454 -29.768  71.810  1.00 61.87 LIG-0.27  OA
ATOM     18 H    VAL D 178      81.229 -29.004  74.033  1.00 54.34 LIG 0.16  HD
BRANCH 16 19
ATOM     19  CA  GLY D 177      78.506 -30.444  73.000  1.00 38.66 LIG 0.47  C 
ATOM     20  N   GLY D 177      77.660 -30.065  71.882  1.00 37.02 LIG 0.61  N 
ENDBRANCH 16 19
ENDBRANCH 14 15
BRANCH 14 21
ATOM     21  CB  VAL D 178      80.796 -29.694  76.423  1.00 39.80 LIG 0.01  C 
ATOM     22  CG2 VAL D 178      80.113 -29.682  77.774  1.00 46.96 LIG 0.01  C 
ATOM     23  CG1 VAL D 178      81.897 -28.632  76.394  1.00 37.07 LIG 0.01  C 
ENDBRANCH 14 21
ENDBRANCH 12 14
ENDBRANCH 5 10
ENDBRANCH 1 5
BRANCH 3 24
ATOM     24  CA  ASP D 180      74.889 -26.735  79.318  1.00 47.37 LIG 0.19  C 
BRANCH 24 25
ATOM     25  C   ASP D 180      74.518 -25.296  79.670  1.00 52.09 LIG 0.24  C 
ATOM     26 O    ASP D 180      75.385 -24.419  79.706  1.00 46.90 LIG-0.27  OA
ATOM     27  N   ASP D 181      73.242 -25.048  79.942  1.00 56.67 LIG-0.35  N 
ATOM     28 H    ASP D 181      72.619 -25.642  79.933  1.00 56.67 LIG 0.16  HD
BRANCH 27 29
ATOM     29  CA  ASP D 181      72.800 -23.703  80.286  1.00 54.32 LIG 0.17  C 
BRANCH 29 30
ATOM     30  CB  ASP D 181      71.278 -23.606  80.199  1.00 57.98 LIG 0.15  C 
BRANCH 30 31
ATOM     31  CG  ASP D 181      70.771 -22.205  80.462  1.00 59.80 LIG 0.17  C 
ATOM     32 OD2  ASP D 181      69.694 -22.067  81.080  1.00 65.59 LIG-0.65  OA
ATOM     33 OD1  ASP D 181      71.449 -21.240  80.048  1.00 62.88 LIG-0.65  OA
ENDBRANCH 30 31
ENDBRANCH 29 30
BRANCH 29 34
ATOM     34  C   ASP D 181      73.278 -23.296  81.675  1.00 55.94 LIG 0.22  C 
ATOM     35 O    ASP D 181      74.481 -23.282  81.949  1.00 49.69 LIG-0.29  OA
ENDBRANCH 29 34
ENDBRANCH 27 29
ENDBRANCH 24 25
BRANCH 24 36
ATOM     36  CB  ASP D 180      75.569 -27.394  80.520  1.00 41.39 LIG 0.15  C 
BRANCH 36 37
ATOM     37  CG  ASP D 180      75.201 -26.740  81.837  1.00 35.24 LIG 0.17  C 
ATOM     38 OD1  ASP D 180      75.948 -25.851  82.301  1.00 51.10 LIG-0.65  OA
ATOM     39 OD2  ASP D 180      74.144 -27.102  82.396  1.00 19.64 LIG-0.65  OA
ENDBRANCH 36 37
ENDBRANCH 24 36
ENDBRANCH 3 24
TORSDOF 16
ENDMDL
MODEL 81
USER: ADFR SOLUTION from run 115
USER: SCORE 11.852513 LL:  -2.156 LR: -10.110 RR:   0.000 FEB:  -5.337
USER: RMSD 5.101612
USER: SEED 114
USER: STATUS no improvement in best in 27 clusters for 5 generations
USER: GENES 18
USER: genes 0 Translation |==|  0.51209 0.58915 0.61940
USER: genes 1 Rotation |==|  0.46316 0.79270 0.90191 0.53794
USER: genes 2 Torsion [N]-C--CA-[N] |==|  0.36766
USER: genes 3 Torsion [C]-CA--CB-[CG] |==|  0.82070
USER: genes 4 Torsion [CA]-CB--CG-[OD1] |==|  0.25316
USER: genes 5 Torsion [C]-CA--N-[C] |==|  0.67912
USER: genes 6 Torsion [N]-C--CA-[N] |==|  0.30096
USER: genes 7 Torsion [C]-CA--N-[C] |==|  0.73350
USER: genes 8 Torsion [N]-C--CA-[N] |==|  0.37626
USER: genes 9 Torsion [C]-CA--CB-[CG1] |==|  0.48516
USER: genes 10 Torsion [C]-N--CA-[CB] |==|  0.85496
USER: genes 11 Torsion [N]-CA--C-[N] |==|  0.39406
USER: genes 12 Torsion [C]-N--CA-[CB] |==|  0.13651
USER: genes 13 Torsion [N]-CA--CB-[CG] |==|  0.65048
USER: genes 14 Torsion [CA]-CB--CG-[OD2] |==|  0.51141
USER: genes 15 Torsion [N]-CA--C-[O] |==|  0.14550
USER: genes 16 Torsion [N]-CA--CB-[CG] |==|  0.55807
USER: genes 17 Torsion [CA]-CB--CG-[OD1] |==|  0.17803
ROOT
ATOM      1  C   ASP D 179      72.435 -23.835  80.893  1.00 41.71 LIG 0.24  C 
ATOM      2 O    ASP D 179      72.938 -22.867  80.323  1.00 47.20 LIG-0.27  OA
ATOM      3  N   ASP D 180      71.933 -23.787  82.127  1.00 48.22 LIG-0.34  N 
ATOM      4 H    ASP D 180      71.517 -24.446  82.489  1.00 48.22 LIG 0.16  HD
ENDROOT
BRANCH 1 5
ATOM      5  CA  ASP D 179      72.333 -25.200  80.210  1.00 44.60 LIG 0.19  C 
BRANCH 5 6
ATOM      6  CB  ASP D 179      73.667 -25.953  80.254  1.00 48.27 LIG 0.15  C 
BRANCH 6 7
ATOM      7  CG  ASP D 179      74.758 -25.242  79.459  1.00 46.68 LIG 0.17  C 
ATOM      8 OD1  ASP D 179      75.491 -24.415  80.048  1.00 58.91 LIG-0.65  OA
ATOM      9 OD2  ASP D 179      74.905 -25.518  78.251  1.00 62.78 LIG-0.65  OA
ENDBRANCH 6 7
ENDBRANCH 5 6
BRANCH 5 10
ATOM     10  N   ASP D 179      71.803 -25.030  78.850  1.00 43.40 LIG-0.34  N 
ATOM     11 H    ASP D 179      72.339 -24.577  78.353  1.00 43.40 LIG 0.16  HD
ATOM     12  C   VAL D 178      70.648 -25.492  78.377  1.00 52.66 LIG 0.24  C 
ATOM     13 O    VAL D 178      69.699 -25.862  79.075  1.00 53.52 LIG-0.27  OA
BRANCH 12 14
ATOM     14  CA  VAL D 178      70.572 -25.531  76.845  1.00 43.72 LIG 0.18  C 
BRANCH 14 15
ATOM     15  N   VAL D 178      70.624 -26.893  76.352  1.00 54.34 LIG-0.35  N 
ATOM     16  C   GLY D 177      71.753 -27.462  75.943  1.00 48.99 LIG 0.25  C 
ATOM     17 O    GLY D 177      71.792 -28.617  75.543  1.00 61.87 LIG-0.27  OA
ATOM     18 H    VAL D 178      69.863 -27.294  76.349  1.00 54.34 LIG 0.16  HD
BRANCH 16 19
ATOM     19  CA  GLY D 177      73.025 -26.632  76.002  1.00 38.66 LIG 0.47  C 
ATOM     20  N   GLY D 177      74.139 -27.387  76.548  1.00 37.02 LIG 0.61  N 
ENDBRANCH 16 19
ENDBRANCH 14 15
BRANCH 14 21
ATOM     21  CB  VAL D 178      69.306 -24.813  76.331  1.00 39.80 LIG 0.01  C 
ATOM     22  CG2 VAL D 178      68.057 -25.533  76.792  1.00 46.96 LIG 0.01  C 
ATOM     23  CG1 VAL D 178      69.334 -24.757  74.803  1.00 37.07 LIG 0.01  C 
ENDBRANCH 14 21
ENDBRANCH 12 14
ENDBRANCH 5 10
ENDBRANCH 1 5
BRANCH 3 24
ATOM     24  CA  ASP D 180      72.036 -22.615  82.994  1.00 47.37 LIG 0.19  C 
BRANCH 24 25
ATOM     25  C   ASP D 180      71.171 -21.496  82.418  1.00 52.09 LIG 0.24  C 
ATOM     26 O    ASP D 180      71.114 -21.315  81.200  1.00 46.90 LIG-0.27  OA
ATOM     27  N   ASP D 181      70.508 -20.737  83.284  1.00 56.67 LIG-0.35  N 
ATOM     28 H    ASP D 181      70.537 -20.835  84.138  1.00 56.67 LIG 0.16  HD
BRANCH 27 29
ATOM     29  CA  ASP D 181      69.659 -19.647  82.821  1.00 54.32 LIG 0.17  C 
BRANCH 29 30
ATOM     30  CB  ASP D 181      68.725 -20.134  81.715  1.00 57.98 LIG 0.15  C 
BRANCH 30 31
ATOM     31  CG  ASP D 181      68.824 -19.294  80.461  1.00 59.80 LIG 0.17  C 
ATOM     32 OD2  ASP D 181      68.051 -19.547  79.512  1.00 65.59 LIG-0.65  OA
ATOM     33 OD1  ASP D 181      69.676 -18.382  80.423  1.00 62.88 LIG-0.65  OA
ENDBRANCH 30 31
ENDBRANCH 29 30
BRANCH 29 34
ATOM     34  C   ASP D 181      68.853 -19.042  83.965  1.00 55.94 LIG 0.22  C 
ATOM     35 O    ASP D 181      69.412 -18.664  84.998  1.00 49.69 LIG-0.29  OA
ENDBRANCH 29 34
ENDBRANCH 27 29
ENDBRANCH 24 25
BRANCH 24 36
ATOM     36  CB  ASP D 180      73.483 -22.132  83.109  1.00 41.39 LIG 0.15  C 
BRANCH 36 37
ATOM     37  CG  ASP D 180      73.724 -21.282  84.340  1.00 35.24 LIG 0.17  C 
ATOM     38 OD1  ASP D 180      73.591 -21.801  85.470  1.00 51.10 LIG-0.65  OA
ATOM     39 OD2  ASP D 180      74.074 -20.094  84.173  1.00 19.64 LIG-0.65  OA
ENDBRANCH 36 37
ENDBRANCH 24 36
ENDBRANCH 3 24
TORSDOF 16
ENDMDL
MODEL 82
USER: ADFR SOLUTION from run 188
USER: SCORE 10.472114 LL:  -1.670 LR: -10.112 RR:   0.000 FEB:  -5.339
USER: RMSD 7.697438
USER: SEED 187
USER: STATUS no improvement in best in 11 clusters for 5 generations
USER: GENES 18
USER: genes 0 Translation |==|  0.42148 0.52249 0.46248
USER: genes 1 Rotation |==|  0.30361 0.37605 0.13149 0.74549
USER: genes 2 Torsion [N]-C--CA-[N] |==|  0.55526
USER: genes 3 Torsion [C]-CA--CB-[CG] |==|  0.81671
USER: genes 4 Torsion [CA]-CB--CG-[OD1] |==|  0.84504
USER: genes 5 Torsion [C]-CA--N-[C] |==|  0.54587
USER: genes 6 Torsion [N]-C--CA-[N] |==|  0.98341
USER: genes 7 Torsion [C]-CA--N-[C] |==|  0.64556
USER: genes 8 Torsion [N]-C--CA-[N] |==|  0.73761
USER: genes 9 Torsion [C]-CA--CB-[CG1] |==|  0.56957
USER: genes 10 Torsion [C]-N--CA-[CB] |==|  0.18333
USER: genes 11 Torsion [N]-CA--C-[N] |==|  0.00873
USER: genes 12 Torsion [C]-N--CA-[CB] |==|  0.31766
USER: genes 13 Torsion [N]-CA--CB-[CG] |==|  0.76851
USER: genes 14 Torsion [CA]-CB--CG-[OD2] |==|  0.52534
USER: genes 15 Torsion [N]-CA--C-[O] |==|  0.32180
USER: genes 16 Torsion [N]-CA--CB-[CG] |==|  0.69811
USER: genes 17 Torsion [CA]-CB--CG-[OD1] |==|  0.50825
ROOT
ATOM      1  C   ASP D 179      70.668 -25.085  78.304  1.00 41.71 LIG 0.24  C 
ATOM      2 O    ASP D 179      70.133 -23.988  78.461  1.00 47.20 LIG-0.27  OA
ATOM      3  N   ASP D 180      71.901 -25.371  78.721  1.00 48.22 LIG-0.34  N 
ATOM      4 H    ASP D 180      72.239 -26.161  78.675  1.00 48.22 LIG 0.16  HD
ENDROOT
BRANCH 1 5
ATOM      5  CA  ASP D 179      69.938 -26.237  77.611  1.00 44.60 LIG 0.19  C 
BRANCH 5 6
ATOM      6  CB  ASP D 179      70.906 -27.122  76.819  1.00 48.27 LIG 0.15  C 
BRANCH 6 7
ATOM      7  CG  ASP D 179      71.533 -26.383  75.641  1.00 46.68 LIG 0.17  C 
ATOM      8 OD1  ASP D 179      70.780 -25.853  74.792  1.00 58.91 LIG-0.65  OA
ATOM      9 OD2  ASP D 179      72.777 -26.306  75.566  1.00 62.78 LIG-0.65  OA
ENDBRANCH 6 7
ENDBRANCH 5 6
BRANCH 5 10
ATOM     10  N   ASP D 179      68.837 -25.703  76.798  1.00 43.40 LIG-0.34  N 
ATOM     11 H    ASP D 179      68.922 -24.858  76.662  1.00 43.40 LIG 0.16  HD
ATOM     12  C   VAL D 178      67.806 -26.381  76.301  1.00 52.66 LIG 0.24  C 
ATOM     13 O    VAL D 178      67.437 -27.493  76.696  1.00 53.52 LIG-0.27  OA
BRANCH 12 14
ATOM     14  CA  VAL D 178      67.075 -25.660  75.162  1.00 43.72 LIG 0.18  C 
BRANCH 14 15
ATOM     15  N   VAL D 178      67.595 -24.320  74.970  1.00 54.34 LIG-0.35  N 
ATOM     16  C   GLY D 177      66.812 -23.247  74.945  1.00 48.99 LIG 0.25  C 
ATOM     17 O    GLY D 177      67.260 -22.118  74.798  1.00 61.87 LIG-0.27  OA
ATOM     18 H    VAL D 178      68.450 -24.287  74.874  1.00 54.34 LIG 0.16  HD
BRANCH 16 19
ATOM     19  CA  GLY D 177      65.318 -23.457  75.125  1.00 38.66 LIG 0.47  C 
ATOM     20  N   GLY D 177      64.630 -23.562  73.850  1.00 37.02 LIG 0.61  N 
ENDBRANCH 16 19
ENDBRANCH 14 15
BRANCH 14 21
ATOM     21  CB  VAL D 178      67.153 -26.469  73.849  1.00 39.80 LIG 0.01  C 
ATOM     22  CG2 VAL D 178      68.471 -27.207  73.751  1.00 46.96 LIG 0.01  C 
ATOM     23  CG1 VAL D 178      67.002 -25.524  72.656  1.00 37.07 LIG 0.01  C 
ENDBRANCH 14 21
ENDBRANCH 12 14
ENDBRANCH 5 10
ENDBRANCH 1 5
BRANCH 3 24
ATOM     24  CA  ASP D 180      72.807 -24.382  79.299  1.00 47.37 LIG 0.19  C 
BRANCH 24 25
ATOM     25  C   ASP D 180      74.178 -25.025  79.502  1.00 52.09 LIG 0.24  C 
ATOM     26 O    ASP D 180      75.096 -24.386  80.023  1.00 46.90 LIG-0.27  OA
ATOM     27  N   ASP D 181      74.327 -26.276  79.083  1.00 56.67 LIG-0.35  N 
ATOM     28 H    ASP D 181      73.708 -26.741  78.708  1.00 56.67 LIG 0.16  HD
BRANCH 27 29
ATOM     29  CA  ASP D 181      75.601 -26.967  79.238  1.00 54.32 LIG 0.17  C 
BRANCH 29 30
ATOM     30  CB  ASP D 181      75.456 -28.136  80.210  1.00 57.98 LIG 0.15  C 
BRANCH 30 31
ATOM     31  CG  ASP D 181      75.570 -27.706  81.655  1.00 59.80 LIG 0.17  C 
ATOM     32 OD2  ASP D 181      75.642 -28.590  82.536  1.00 65.59 LIG-0.65  OA
ATOM     33 OD1  ASP D 181      75.586 -26.484  81.912  1.00 62.88 LIG-0.65  OA
ENDBRANCH 30 31
ENDBRANCH 29 30
BRANCH 29 34
ATOM     34  C   ASP D 181      76.139 -27.456  77.898  1.00 55.94 LIG 0.22  C 
ATOM     35 O    ASP D 181      77.194 -27.008  77.441  1.00 49.69 LIG-0.29  OA
ENDBRANCH 29 34
ENDBRANCH 27 29
ENDBRANCH 24 25
BRANCH 24 36
ATOM     36  CB  ASP D 180      72.285 -23.863  80.640  1.00 41.39 LIG 0.15  C 
BRANCH 36 37
ATOM     37  CG  ASP D 180      71.788 -22.434  80.566  1.00 35.24 LIG 0.17  C 
ATOM     38 OD1  ASP D 180      71.387 -21.878  81.612  1.00 51.10 LIG-0.65  OA
ATOM     39 OD2  ASP D 180      71.823 -21.856  79.459  1.00 19.64 LIG-0.65  OA
ENDBRANCH 36 37
ENDBRANCH 24 36
ENDBRANCH 3 24
TORSDOF 16
ENDMDL
MODEL 83
USER: ADFR SOLUTION from run 63
USER: SCORE 10.644854 LL:  -1.719 LR: -10.108 RR:   0.000 FEB:  -5.336
USER: RMSD 8.559788
USER: SEED 62
USER: STATUS no improvement in best in 9 clusters for 5 generations
USER: GENES 18
USER: genes 0 Translation |==|  0.61763 0.54015 0.60841
USER: genes 1 Rotation |==|  0.93211 0.32361 0.64876 0.60020
USER: genes 2 Torsion [N]-C--CA-[N] |==|  0.33579
USER: genes 3 Torsion [C]-CA--CB-[CG] |==|  0.11732
USER: genes 4 Torsion [CA]-CB--CG-[OD1] |==|  0.10455
USER: genes 5 Torsion [C]-CA--N-[C] |==|  0.82536
USER: genes 6 Torsion [N]-C--CA-[N] |==|  0.82165
USER: genes 7 Torsion [C]-CA--N-[C] |==|  0.64371
USER: genes 8 Torsion [N]-C--CA-[N] |==|  0.45472
USER: genes 9 Torsion [C]-CA--CB-[CG1] |==|  0.75929
USER: genes 10 Torsion [C]-N--CA-[CB] |==|  0.82012
USER: genes 11 Torsion [N]-CA--C-[N] |==|  0.28337
USER: genes 12 Torsion [C]-N--CA-[CB] |==|  0.42954
USER: genes 13 Torsion [N]-CA--CB-[CG] |==|  0.63734
USER: genes 14 Torsion [CA]-CB--CG-[OD2] |==|  0.32025
USER: genes 15 Torsion [N]-CA--C-[O] |==|  0.30283
USER: genes 16 Torsion [N]-CA--CB-[CG] |==|  0.47842
USER: genes 17 Torsion [CA]-CB--CG-[OD1] |==|  0.13105
ROOT
ATOM      1  C   ASP D 179      74.493 -24.754  80.712  1.00 41.71 LIG 0.24  C 
ATOM      2 O    ASP D 179      75.248 -24.374  79.818  1.00 47.20 LIG-0.27  OA
ATOM      3  N   ASP D 180      73.889 -25.942  80.712  1.00 48.22 LIG-0.34  N 
ATOM      4 H    ASP D 180      73.424 -26.230  81.375  1.00 48.22 LIG 0.16  HD
ENDROOT
BRANCH 1 5
ATOM      5  CA  ASP D 179      74.189 -23.877  81.927  1.00 44.60 LIG 0.19  C 
BRANCH 5 6
ATOM      6  CB  ASP D 179      73.375 -22.638  81.539  1.00 48.27 LIG 0.15  C 
BRANCH 6 7
ATOM      7  CG  ASP D 179      72.268 -22.965  80.541  1.00 46.68 LIG 0.17  C 
ATOM      8 OD1  ASP D 179      71.649 -24.046  80.659  1.00 58.91 LIG-0.65  OA
ATOM      9 OD2  ASP D 179      71.993 -22.136  79.649  1.00 62.78 LIG-0.65  OA
ENDBRANCH 6 7
ENDBRANCH 5 6
BRANCH 5 10
ATOM     10  N   ASP D 179      75.440 -23.557  82.628  1.00 43.40 LIG-0.34  N 
ATOM     11 H    ASP D 179      75.601 -22.713  82.624  1.00 43.40 LIG 0.16  HD
ATOM     12  C   VAL D 178      76.270 -24.414  83.218  1.00 52.66 LIG 0.24  C 
ATOM     13 O    VAL D 178      76.293 -25.631  83.006  1.00 53.52 LIG-0.27  OA
BRANCH 12 14
ATOM     14  CA  VAL D 178      77.236 -23.762  84.214  1.00 43.72 LIG 0.18  C 
BRANCH 14 15
ATOM     15  N   VAL D 178      78.139 -22.844  83.546  1.00 54.34 LIG-0.35  N 
ATOM     16  C   GLY D 177      79.457 -22.902  83.699  1.00 48.99 LIG 0.25  C 
ATOM     17 O    GLY D 177      80.214 -22.134  83.120  1.00 61.87 LIG-0.27  OA
ATOM     18 H    VAL D 178      77.743 -22.265  83.048  1.00 54.34 LIG 0.16  HD
BRANCH 16 19
ATOM     19  CA  GLY D 177      80.017 -23.977  84.615  1.00 38.66 LIG 0.47  C 
ATOM     20  N   GLY D 177      81.440 -24.180  84.406  1.00 37.02 LIG 0.61  N 
ENDBRANCH 16 19
ENDBRANCH 14 15
BRANCH 14 21
ATOM     21  CB  VAL D 178      76.470 -23.046  85.347  1.00 39.80 LIG 0.01  C 
ATOM     22  CG2 VAL D 178      75.199 -23.793  85.691  1.00 46.96 LIG 0.01  C 
ATOM     23  CG1 VAL D 178      76.126 -21.620  84.911  1.00 37.07 LIG 0.01  C 
ENDBRANCH 14 21
ENDBRANCH 12 14
ENDBRANCH 5 10
ENDBRANCH 1 5
BRANCH 3 24
ATOM     24  CA  ASP D 180      73.952 -26.879  79.592  1.00 47.37 LIG 0.19  C 
BRANCH 24 25
ATOM     25  C   ASP D 180      75.417 -27.175  79.276  1.00 52.09 LIG 0.24  C 
ATOM     26 O    ASP D 180      76.092 -26.368  78.632  1.00 46.90 LIG-0.27  OA
ATOM     27  N   ASP D 181      75.909 -28.330  79.710  1.00 56.67 LIG-0.35  N 
ATOM     28 H    ASP D 181      75.459 -28.914  80.153  1.00 56.67 LIG 0.16  HD
BRANCH 27 29
ATOM     29  CA  ASP D 181      77.297 -28.692  79.454  1.00 54.32 LIG 0.17  C 
BRANCH 29 30
ATOM     30  CB  ASP D 181      77.794 -29.673  80.514  1.00 57.98 LIG 0.15  C 
BRANCH 30 31
ATOM     31  CG  ASP D 181      79.119 -29.257  81.113  1.00 59.80 LIG 0.17  C 
ATOM     32 OD2  ASP D 181      79.157 -28.957  82.326  1.00 65.59 LIG-0.65  OA
ATOM     33 OD1  ASP D 181      80.123 -29.228  80.371  1.00 62.88 LIG-0.65  OA
ENDBRANCH 30 31
ENDBRANCH 29 30
BRANCH 29 34
ATOM     34  C   ASP D 181      77.472 -29.286  78.061  1.00 55.94 LIG 0.22  C 
ATOM     35 O    ASP D 181      78.054 -28.654  77.175  1.00 49.69 LIG-0.29  OA
ENDBRANCH 29 34
ENDBRANCH 27 29
ENDBRANCH 24 25
BRANCH 24 36
ATOM     36  CB  ASP D 180      73.268 -26.309  78.349  1.00 41.39 LIG 0.15  C 
BRANCH 36 37
ATOM     37  CG  ASP D 180      73.474 -27.166  77.116  1.00 35.24 LIG 0.17  C 
ATOM     38 OD1  ASP D 180      73.294 -28.401  77.202  1.00 51.10 LIG-0.65  OA
ATOM     39 OD2  ASP D 180      73.792 -26.596  76.051  1.00 19.64 LIG-0.65  OA
ENDBRANCH 36 37
ENDBRANCH 24 36
ENDBRANCH 3 24
TORSDOF 16
ENDMDL
MODEL 84
USER: ADFR SOLUTION from run 125
USER: SCORE 10.717869 LL:  -2.443 LR: -10.100 RR:   0.000 FEB:  -5.328
USER: RMSD 7.376433
USER: SEED 124
USER: STATUS no improvement in best in 12 clusters for 5 generations
USER: GENES 18
USER: genes 0 Translation |==|  0.45027 0.65233 0.56649
USER: genes 1 Rotation |==|  0.88931 0.51238 0.80882 0.55399
USER: genes 2 Torsion [N]-C--CA-[N] |==|  0.97586
USER: genes 3 Torsion [C]-CA--CB-[CG] |==|  0.31948
USER: genes 4 Torsion [CA]-CB--CG-[OD1] |==|  0.67515
USER: genes 5 Torsion [C]-CA--N-[C] |==|  0.75835
USER: genes 6 Torsion [N]-C--CA-[N] |==|  0.89126
USER: genes 7 Torsion [C]-CA--N-[C] |==|  0.78590
USER: genes 8 Torsion [N]-C--CA-[N] |==|  0.39713
USER: genes 9 Torsion [C]-CA--CB-[CG1] |==|  0.50776
USER: genes 10 Torsion [C]-N--CA-[CB] |==|  0.34614
USER: genes 11 Torsion [N]-CA--C-[N] |==|  0.17459
USER: genes 12 Torsion [C]-N--CA-[CB] |==|  0.39024
USER: genes 13 Torsion [N]-CA--CB-[CG] |==|  0.29091
USER: genes 14 Torsion [CA]-CB--CG-[OD2] |==|  0.71961
USER: genes 15 Torsion [N]-CA--C-[O] |==|  0.16098
USER: genes 16 Torsion [N]-CA--CB-[CG] |==|  0.60264
USER: genes 17 Torsion [CA]-CB--CG-[OD1] |==|  0.49687
ROOT
ATOM      1  C   ASP D 179      71.229 -22.651  80.020  1.00 41.71 LIG 0.24  C 
ATOM      2 O    ASP D 179      71.947 -21.905  79.355  1.00 47.20 LIG-0.27  OA
ATOM      3  N   ASP D 180      71.589 -23.877  80.399  1.00 48.22 LIG-0.34  N 
ATOM      4 H    ASP D 180      71.114 -24.362  80.926  1.00 48.22 LIG 0.16  HD
ENDROOT
BRANCH 1 5
ATOM      5  CA  ASP D 179      69.839 -22.215  80.485  1.00 44.60 LIG 0.19  C 
BRANCH 5 6
ATOM      6  CB  ASP D 179      69.911 -20.995  81.411  1.00 48.27 LIG 0.15  C 
BRANCH 6 7
ATOM      7  CG  ASP D 179      69.247 -19.766  80.798  1.00 46.68 LIG 0.17  C 
ATOM      8 OD1  ASP D 179      69.949 -18.759  80.556  1.00 58.91 LIG-0.65  OA
ATOM      9 OD2  ASP D 179      68.027 -19.805  80.534  1.00 62.78 LIG-0.65  OA
ENDBRANCH 6 7
ENDBRANCH 5 6
BRANCH 5 10
ATOM     10  N   ASP D 179      69.138 -23.360  81.081  1.00 43.40 LIG-0.34  N 
ATOM     11 H    ASP D 179      69.252 -23.395  81.933  1.00 43.40 LIG 0.16  HD
ATOM     12  C   VAL D 178      68.403 -24.269  80.447  1.00 52.66 LIG 0.24  C 
ATOM     13 O    VAL D 178      68.444 -24.483  79.230  1.00 53.52 LIG-0.27  OA
BRANCH 12 14
ATOM     14  CA  VAL D 178      67.468 -25.067  81.363  1.00 43.72 LIG 0.18  C 
BRANCH 14 15
ATOM     15  N   VAL D 178      68.110 -25.379  82.626  1.00 54.34 LIG-0.35  N 
ATOM     16  C   GLY D 177      69.013 -26.346  82.747  1.00 48.99 LIG 0.25  C 
ATOM     17 O    GLY D 177      69.562 -26.593  83.812  1.00 61.87 LIG-0.27  OA
ATOM     18 H    VAL D 178      67.853 -24.884  83.281  1.00 54.34 LIG 0.16  HD
BRANCH 16 19
ATOM     19  CA  GLY D 177      69.367 -27.143  81.504  1.00 38.66 LIG 0.47  C 
ATOM     20  N   GLY D 177      70.778 -27.486  81.464  1.00 37.02 LIG 0.61  N 
ENDBRANCH 16 19
ENDBRANCH 14 15
BRANCH 14 21
ATOM     21  CB  VAL D 178      66.141 -24.313  81.598  1.00 39.80 LIG 0.01  C 
ATOM     22  CG2 VAL D 178      66.401 -22.932  82.159  1.00 46.96 LIG 0.01  C 
ATOM     23  CG1 VAL D 178      65.266 -25.107  82.570  1.00 37.07 LIG 0.01  C 
ENDBRANCH 14 21
ENDBRANCH 12 14
ENDBRANCH 5 10
ENDBRANCH 1 5
BRANCH 3 24
ATOM     24  CA  ASP D 180      72.823 -24.526  79.962  1.00 47.37 LIG 0.19  C 
BRANCH 24 25
ATOM     25  C   ASP D 180      72.468 -25.739  79.104  1.00 52.09 LIG 0.24  C 
ATOM     26 O    ASP D 180      72.792 -26.874  79.461  1.00 46.90 LIG-0.27  OA
ATOM     27  N   ASP D 181      71.817 -25.507  77.969  1.00 56.67 LIG-0.35  N 
ATOM     28 H    ASP D 181      71.587 -24.726  77.692  1.00 56.67 LIG 0.16  HD
BRANCH 27 29
ATOM     29  CA  ASP D 181      71.437 -26.605  77.090  1.00 54.32 LIG 0.17  C 
BRANCH 29 30
ATOM     30  CB  ASP D 181      70.046 -26.363  76.508  1.00 57.98 LIG 0.15  C 
BRANCH 30 31
ATOM     31  CG  ASP D 181      70.090 -25.928  75.060  1.00 59.80 LIG 0.17  C 
ATOM     32 OD2  ASP D 181      69.949 -24.714  74.798  1.00 65.59 LIG-0.65  OA
ATOM     33 OD1  ASP D 181      70.265 -26.800  74.183  1.00 62.88 LIG-0.65  OA
ENDBRANCH 30 31
ENDBRANCH 29 30
BRANCH 29 34
ATOM     34  C   ASP D 181      72.452 -26.801  75.969  1.00 55.94 LIG 0.22  C 
ATOM     35 O    ASP D 181      73.638 -27.027  76.226  1.00 49.69 LIG-0.29  OA
ENDBRANCH 29 34
ENDBRANCH 27 29
ENDBRANCH 24 25
BRANCH 24 36
ATOM     36  CB  ASP D 180      73.667 -24.978  81.156  1.00 41.39 LIG 0.15  C 
BRANCH 36 37
ATOM     37  CG  ASP D 180      75.155 -24.814  80.921  1.00 35.24 LIG 0.17  C 
ATOM     38 OD1  ASP D 180      75.949 -25.129  81.834  1.00 51.10 LIG-0.65  OA
ATOM     39 OD2  ASP D 180      75.531 -24.391  79.807  1.00 19.64 LIG-0.65  OA
ENDBRANCH 36 37
ENDBRANCH 24 36
ENDBRANCH 3 24
TORSDOF 16
ENDMDL
