MODEL 1
USER: ADFR SOLUTION from run 65
USER: SCORE 24.053453 LL:  -4.763 LR: -20.308 RR:   0.000 FEB: -12.553
USER: RMSD 5.658736
USER: SEED 64
USER: STATUS no improvement in best in 3 clusters for 5 generations
USER: GENES 28
USER: genes 0 Translation |==|  0.44927 0.51804 0.37564
USER: genes 1 Rotation |==|  0.57830 0.46301 0.49960 0.99244
USER: genes 2 Torsion [C]-CA--N-[C] |==|  0.76905
USER: genes 3 Torsion [N]-C--CA-[N] |==|  0.86667
USER: genes 4 Torsion [C]-CA--CB-[CG] |==|  0.03075
USER: genes 5 Torsion [CA]-CB--CG-[CD] |==|  0.44293
USER: genes 6 Torsion [CB]-CG--CD-[NE] |==|  0.25444
USER: genes 7 Torsion [CG]-CD--NE-[HE] |==|  0.83275
USER: genes 8 Torsion [C]-CA--N-[C] |==|  0.79303
USER: genes 9 Torsion [N]-C--CA-[N] |==|  0.50601
USER: genes 10 Torsion [C]-CA--N-[H3] |==|  0.98644
USER: genes 11 Torsion [C]-CA--CB-[CG] |==|  0.42842
USER: genes 12 Torsion [CA]-CB--CG-[ND2] |==|  0.33466
USER: genes 13 Torsion [N]-CA--CB-[CG] |==|  0.86324
USER: genes 14 Torsion [CA]-CB--CG-[CD1] |==|  0.50701
USER: genes 15 Torsion [N]-CA--C-[N] |==|  0.32555
USER: genes 16 Torsion [C]-N--CA-[CB] |==|  0.49473
USER: genes 17 Torsion [N]-CA--C-[N] |==|  0.43232
USER: genes 18 Torsion [C]-N--CA-[C] |==|  0.79600
USER: genes 19 Torsion [N]-CA--C-[N] |==|  0.45170
USER: genes 20 Torsion [C]-N--CA-[C] |==|  0.50839
USER: genes 21 Torsion [N]-CA--CB-[CG2] |==|  0.24386
USER: genes 22 Torsion [CA]-CB--OG1-[HG1] |==|  0.03609
USER: genes 23 Torsion [N]-CA--C-[O] |==|  0.99060
USER: genes 24 Torsion [N]-CA--CB-[CG] |==|  0.27948
USER: genes 25 Torsion [CA]-CB--CG-[CD2] |==|  0.71007
USER: genes 26 Torsion [N]-CA--CB-[CG] |==|  0.57236
USER: genes 27 Torsion [CA]-CB--CG-[CD1] |==|  0.95733
ROOT
ATOM      1  CA  LEU B   3     -19.358 -22.425 -30.929  1.00 17.18 LIG 0.18  C 
ENDROOT
BRANCH 1 2
ATOM      2  N   LEU B   3     -20.485 -23.077 -30.375  1.00 21.09 LIG-0.35  N 
ATOM      3  C   ARG B   2     -20.426 -24.346 -29.981  1.00 20.79 LIG 0.24  C 
ATOM      4 O    ARG B   2     -19.376 -25.022 -29.990  1.00 18.81 LIG-0.27  OA
ATOM      5 H    LEU B   3     -21.190 -22.587 -30.320  1.00 21.09 LIG 0.16  HD
BRANCH 3 6
ATOM      6  CA  ARG B   2     -21.758 -24.967 -29.582  1.00 21.42 LIG 0.18  C 
BRANCH 6 7
ATOM      7  CB  ARG B   2     -22.638 -25.320 -30.786  1.00 36.36 LIG 0.04  C 
BRANCH 7 8
ATOM      8  CG  ARG B   2     -21.877 -25.220 -32.095  1.00 41.67 LIG 0.02  C 
BRANCH 8 9
ATOM      9  CD  ARG B   2     -22.522 -26.015 -33.232  1.00 51.14 LIG 0.14  C 
BRANCH 9 10
ATOM     10  NE  ARG B   2     -23.466 -25.192 -34.009  1.00 53.41 LIG-0.23  N 
ATOM     11 HE   ARG B   2     -24.136 -24.856 -33.588  1.00 53.41 LIG 0.18  HD
ATOM     12  CZ  ARG B   2     -23.368 -24.924 -35.317  1.00 50.83 LIG 0.67  C 
ATOM     13  NH1 ARG B   2     -22.363 -25.412 -36.033  1.00 40.00 LIG-0.23  N 
ATOM     14  NH2 ARG B   2     -24.294 -24.170 -35.912  1.00 54.23 LIG-0.23  N 
ATOM     15 1HH1 ARG B   2     -21.767 -25.905 -35.658  1.00 40.00 LIG 0.17  HD
ATOM     16 2HH1 ARG B   2     -22.308 -25.235 -36.873  1.00 40.00 LIG 0.17  HD
ATOM     17 1HH2 ARG B   2     -24.952 -23.857 -35.456  1.00 54.23 LIG 0.17  HD
ATOM     18 2HH2 ARG B   2     -24.232 -23.998 -36.752  1.00 54.23 LIG 0.17  HD
ENDBRANCH 9 10
ENDBRANCH 8 9
ENDBRANCH 7 8
ENDBRANCH 6 7
BRANCH 6 19
ATOM     19  N   ARG B   2     -22.428 -24.047 -28.688  1.00 29.89 LIG-0.35  N 
ATOM     20  C   ASN B   1     -22.019 -23.911 -27.434  1.00 39.87 LIG 0.25  C 
ATOM     21 O    ASN B   1     -21.304 -24.750 -26.870  1.00 37.46 LIG-0.27  OA
ATOM     22 H    ARG B   2     -23.087 -23.618 -29.036  1.00 29.89 LIG 0.16  HD
BRANCH 20 23
ATOM     23  CA  ASN B   1     -22.503 -22.642 -26.708  1.00 47.73 LIG 0.28  C 
BRANCH 23 24
ATOM     24  N   ASN B   1     -22.005 -22.496 -25.363  1.00 51.86 LIG-0.07  N 
ATOM     25 H3   ASN B   1     -21.538 -23.220 -25.138  1.00 51.86 LIG 0.28  HD
ATOM     26 H1   ASN B   1     -21.479 -21.779 -25.317  1.00 51.86 LIG 0.28  HD
ATOM     27 H2   ASN B   1     -22.689 -22.398 -24.802  1.00 51.86 LIG 0.28  HD
ENDBRANCH 23 24
BRANCH 23 28
ATOM     28  CB  ASN B   1     -22.167 -21.373 -27.464  1.00 49.79 LIG 0.14  C 
BRANCH 28 29
ATOM     29  CG  ASN B   1     -23.128 -20.260 -27.123  1.00 59.47 LIG 0.22  C 
ATOM     30  ND2 ASN B   1     -22.602 -19.149 -26.595  1.00 63.81 LIG-0.37  N 
ATOM     31 21HD ASN B   1     -23.114 -18.498 -26.364  1.00 63.81 LIG 0.16  HD
ATOM     32 22HD ASN B   1     -21.751 -19.086 -26.487  1.00 63.81 LIG 0.16  HD
ATOM     33 OD1  ASN B   1     -24.335 -20.403 -27.299  1.00 60.25 LIG-0.27  OA
ENDBRANCH 28 29
ENDBRANCH 23 28
ENDBRANCH 20 23
ENDBRANCH 6 19
ENDBRANCH 3 6
ENDBRANCH 1 2
BRANCH 1 34
ATOM     34  CB  LEU B   3     -19.820 -21.306 -31.904  1.00 28.79 LIG 0.04  C 
BRANCH 34 35
ATOM     35  CG  LEU B   3     -20.867 -21.825 -32.895  1.00 33.15 LIG-0.02  C 
ATOM     36  CD2 LEU B   3     -20.320 -23.059 -33.601  1.00 30.13 LIG 0.01  C 
ATOM     37  CD1 LEU B   3     -21.331 -20.772 -33.944  1.00 27.67 LIG 0.01  C 
ENDBRANCH 34 35
ENDBRANCH 1 34
BRANCH 1 38
ATOM     38  C   LEU B   3     -18.428 -21.890 -29.861  1.00 20.33 LIG 0.24  C 
ATOM     39  N   LEU B   4     -17.207 -22.413 -29.842  1.00 23.83 LIG-0.35  N 
ATOM     40 H    LEU B   4     -16.930 -23.018 -30.387  1.00 23.83 LIG 0.16  HD
ATOM     41 O    LEU B   3     -18.787 -21.020 -29.073  1.00 22.70 LIG-0.27  OA
BRANCH 39 42
ATOM     42  CA  LEU B   4     -16.221 -21.980 -28.858  1.00 22.91 LIG 0.18  C 
BRANCH 42 43
ATOM     43  C   LEU B   4     -15.887 -20.509 -29.125  1.00 30.74 LIG 0.24  C 
ATOM     44 O    LEU B   4     -16.017 -20.007 -30.278  1.00 30.11 LIG-0.27  OA
ATOM     45  N   LEU B   5     -15.426 -19.800 -28.103  1.00 32.41 LIG-0.35  N 
ATOM     46 H    LEU B   5     -15.378 -20.068 -27.288  1.00 32.41 LIG 0.16  HD
BRANCH 45 47
ATOM     47  CA  LEU B   5     -14.949 -18.435 -28.361  1.00 35.50 LIG 0.18  C 
BRANCH 47 48
ATOM     48  C   LEU B   5     -13.606 -18.465 -29.082  1.00 33.38 LIG 0.24  C 
ATOM     49 O    LEU B   5     -12.899 -19.497 -29.092  1.00 25.58 LIG-0.27  OA
ATOM     50  N   THR B   6     -13.271 -17.323 -29.674  1.00 32.99 LIG-0.34  N 
ATOM     51 H    THR B   6     -13.825 -16.673 -29.779  1.00 32.99 LIG 0.16  HD
BRANCH 50 52
ATOM     52  CA  THR B   6     -11.946 -17.042 -30.208  1.00 39.09 LIG 0.19  C 
BRANCH 52 53
ATOM     53  CB  THR B   6     -11.607 -18.010 -31.374  1.00 66.99 LIG 0.14  C 
ATOM     54  CG2 THR B   6     -12.102 -17.459 -32.698  1.00 64.52 LIG 0.04  C 
BRANCH 53 55
ATOM     55 OG1  THR B   6     -10.180 -18.194 -31.458  1.00 68.32 LIG-0.39  OA
ATOM     56 HG1  THR B   6      -9.817 -17.893 -30.763  1.00 68.32 LIG 0.21  HD
ENDBRANCH 53 55
ENDBRANCH 52 53
BRANCH 52 57
ATOM     57  C   THR B   6     -11.924 -15.603 -30.742  1.00 46.48 LIG 0.22  C 
ATOM     58 O    THR B   6     -12.951 -14.906 -30.733  1.00 50.47 LIG-0.29  OA
ENDBRANCH 52 57
ENDBRANCH 50 52
ENDBRANCH 47 48
BRANCH 47 59
ATOM     59  CB  LEU B   5     -14.781 -17.655 -27.063  1.00 41.25 LIG 0.04  C 
BRANCH 59 60
ATOM     60  CG  LEU B   5     -13.379 -17.512 -26.494  1.00 47.99 LIG-0.02  C 
ATOM     61  CD2 LEU B   5     -13.197 -18.428 -25.316  1.00 50.88 LIG 0.01  C 
ATOM     62  CD1 LEU B   5     -13.192 -16.071 -26.066  1.00 54.72 LIG 0.01  C 
ENDBRANCH 59 60
ENDBRANCH 47 59
ENDBRANCH 45 47
ENDBRANCH 42 43
BRANCH 42 63
ATOM     63  CB  LEU B   4     -14.964 -22.797 -29.078  1.00 23.96 LIG 0.04  C 
BRANCH 63 64
ATOM     64  CG  LEU B   4     -13.956 -23.079 -27.986  1.00 38.52 LIG-0.02  C 
ATOM     65  CD1 LEU B   4     -14.148 -22.180 -26.819  1.00 46.71 LIG 0.01  C 
ATOM     66  CD2 LEU B   4     -14.052 -24.562 -27.599  1.00 36.33 LIG 0.01  C 
ENDBRANCH 63 64
ENDBRANCH 42 63
ENDBRANCH 39 42
ENDBRANCH 1 38
TORSDOF 26
ENDMDL
MODEL 2
USER: ADFR SOLUTION from run 63
USER: SCORE 23.672414 LL:  -4.547 LR: -20.032 RR:   0.000 FEB: -12.276
USER: RMSD 4.669170
USER: SEED 62
USER: STATUS no improvement in best in 7 clusters for 5 generations
USER: GENES 28
USER: genes 0 Translation |==|  0.43672 0.51184 0.40103
USER: genes 1 Rotation |==|  0.60627 0.52838 0.50973 0.98765
USER: genes 2 Torsion [C]-CA--N-[C] |==|  0.77368
USER: genes 3 Torsion [N]-C--CA-[N] |==|  0.93542
USER: genes 4 Torsion [C]-CA--CB-[CG] |==|  0.25605
USER: genes 5 Torsion [CA]-CB--CG-[CD] |==|  0.21675
USER: genes 6 Torsion [CB]-CG--CD-[NE] |==|  0.94859
USER: genes 7 Torsion [CG]-CD--NE-[HE] |==|  0.15387
USER: genes 8 Torsion [C]-CA--N-[C] |==|  0.78377
USER: genes 9 Torsion [N]-C--CA-[N] |==|  0.52607
USER: genes 10 Torsion [C]-CA--N-[H3] |==|  0.03213
USER: genes 11 Torsion [C]-CA--CB-[CG] |==|  0.52780
USER: genes 12 Torsion [CA]-CB--CG-[ND2] |==|  0.26493
USER: genes 13 Torsion [N]-CA--CB-[CG] |==|  0.71620
USER: genes 14 Torsion [CA]-CB--CG-[CD1] |==|  0.98731
USER: genes 15 Torsion [N]-CA--C-[N] |==|  0.29444
USER: genes 16 Torsion [C]-N--CA-[CB] |==|  0.50678
USER: genes 17 Torsion [N]-CA--C-[N] |==|  0.39678
USER: genes 18 Torsion [C]-N--CA-[C] |==|  0.78948
USER: genes 19 Torsion [N]-CA--C-[N] |==|  0.45204
USER: genes 20 Torsion [C]-N--CA-[C] |==|  0.50998
USER: genes 21 Torsion [N]-CA--CB-[CG2] |==|  0.24725
USER: genes 22 Torsion [CA]-CB--OG1-[HG1] |==|  0.06571
USER: genes 23 Torsion [N]-CA--C-[O] |==|  0.01765
USER: genes 24 Torsion [N]-CA--CB-[CG] |==|  0.61650
USER: genes 25 Torsion [CA]-CB--CG-[CD2] |==|  0.04210
USER: genes 26 Torsion [N]-CA--CB-[CG] |==|  0.57743
USER: genes 27 Torsion [CA]-CB--CG-[CD1] |==|  0.00586
ROOT
ATOM      1  CA  LEU B   3     -19.668 -22.578 -30.395  1.00 17.18 LIG 0.18  C 
ENDROOT
BRANCH 1 2
ATOM      2  N   LEU B   3     -20.568 -23.393 -29.668  1.00 21.09 LIG-0.35  N 
ATOM      3  C   ARG B   2     -20.302 -24.674 -29.428  1.00 20.79 LIG 0.24  C 
ATOM      4 O    ARG B   2     -19.227 -25.225 -29.744  1.00 18.81 LIG-0.27  OA
ATOM      5 H    LEU B   3     -21.281 -22.991 -29.405  1.00 21.09 LIG 0.16  HD
BRANCH 3 6
ATOM      6  CA  ARG B   2     -21.439 -25.469 -28.800  1.00 21.42 LIG 0.18  C 
BRANCH 6 7
ATOM      7  CB  ARG B   2     -22.202 -26.325 -29.817  1.00 36.36 LIG 0.04  C 
BRANCH 7 8
ATOM      8  CG  ARG B   2     -21.638 -27.729 -29.917  1.00 41.67 LIG 0.02  C 
BRANCH 8 9
ATOM      9  CD  ARG B   2     -22.069 -28.638 -28.764  1.00 51.14 LIG 0.14  C 
BRANCH 9 10
ATOM     10  NE  ARG B   2     -22.559 -27.863 -27.609  1.00 53.41 LIG-0.23  N 
ATOM     11 HE   ARG B   2     -23.199 -27.306 -27.751  1.00 53.41 LIG 0.18  HD
ATOM     12  CZ  ARG B   2     -22.090 -27.953 -26.359  1.00 50.83 LIG 0.67  C 
ATOM     13  NH1 ARG B   2     -21.101 -28.788 -26.067  1.00 40.00 LIG-0.23  N 
ATOM     14  NH2 ARG B   2     -22.612 -27.190 -25.397  1.00 54.23 LIG-0.23  N 
ATOM     15 1HH1 ARG B   2     -20.755 -29.278 -26.683  1.00 40.00 LIG 0.17  HD
ATOM     16 2HH1 ARG B   2     -20.806 -28.840 -25.260  1.00 40.00 LIG 0.17  HD
ATOM     17 1HH2 ARG B   2     -23.248 -26.641 -25.580  1.00 54.23 LIG 0.17  HD
ATOM     18 2HH2 ARG B   2     -22.312 -27.247 -24.593  1.00 54.23 LIG 0.17  HD
ENDBRANCH 9 10
ENDBRANCH 8 9
ENDBRANCH 7 8
ENDBRANCH 6 7
BRANCH 6 19
ATOM     19  N   ARG B   2     -22.317 -24.536 -28.128  1.00 29.89 LIG-0.35  N 
ATOM     20  C   ASN B   1     -21.986 -24.033 -26.946  1.00 39.87 LIG 0.25  C 
ATOM     21 O    ASN B   1     -21.126 -24.548 -26.219  1.00 37.46 LIG-0.27  OA
ATOM     22 H    ARG B   2     -23.041 -24.348 -28.552  1.00 29.89 LIG 0.16  HD
BRANCH 20 23
ATOM     23  CA  ASN B   1     -22.751 -22.767 -26.521  1.00 47.73 LIG 0.28  C 
BRANCH 23 24
ATOM     24  N   ASN B   1     -22.231 -22.121 -25.341  1.00 51.86 LIG-0.07  N 
ATOM     25 H3   ASN B   1     -21.438 -22.470 -25.136  1.00 51.86 LIG 0.28  HD
ATOM     26 H1   ASN B   1     -22.140 -21.249 -25.495  1.00 51.86 LIG 0.28  HD
ATOM     27 H2   ASN B   1     -22.793 -22.245 -24.662  1.00 51.86 LIG 0.28  HD
ENDBRANCH 23 24
BRANCH 23 28
ATOM     28  CB  ASN B   1     -22.818 -21.728 -27.622  1.00 49.79 LIG 0.14  C 
BRANCH 28 29
ATOM     29  CG  ASN B   1     -23.354 -20.414 -27.105  1.00 59.47 LIG 0.22  C 
ATOM     30  ND2 ASN B   1     -22.452 -19.496 -26.740  1.00 63.81 LIG-0.37  N 
ATOM     31 21HD ASN B   1     -22.712 -18.742 -26.419  1.00 63.81 LIG 0.16  HD
ATOM     32 22HD ASN B   1     -21.613 -19.660 -26.827  1.00 63.81 LIG 0.16  HD
ATOM     33 OD1  ASN B   1     -24.564 -20.232 -27.003  1.00 60.25 LIG-0.27  OA
ENDBRANCH 28 29
ENDBRANCH 23 28
ENDBRANCH 20 23
ENDBRANCH 6 19
ENDBRANCH 3 6
ENDBRANCH 1 2
BRANCH 1 34
ATOM     34  CB  LEU B   3     -20.443 -21.422 -31.087  1.00 28.79 LIG 0.04  C 
BRANCH 34 35
ATOM     35  CG  LEU B   3     -20.652 -21.703 -32.580  1.00 33.15 LIG-0.02  C 
ATOM     36  CD2 LEU B   3     -22.145 -21.761 -32.875  1.00 30.13 LIG 0.01  C 
ATOM     37  CD1 LEU B   3     -19.957 -23.001 -33.088  1.00 27.67 LIG 0.01  C 
ENDBRANCH 34 35
ENDBRANCH 1 34
BRANCH 1 38
ATOM     38  C   LEU B   3     -18.543 -22.059 -29.528  1.00 20.33 LIG 0.24  C 
ATOM     39  N   LEU B   4     -17.356 -22.628 -29.717  1.00 23.83 LIG-0.35  N 
ATOM     40 H    LEU B   4     -17.205 -23.253 -30.287  1.00 23.83 LIG 0.16  HD
ATOM     41 O    LEU B   3     -18.722 -21.160 -28.711  1.00 22.70 LIG-0.27  OA
BRANCH 39 42
ATOM     42  CA  LEU B   4     -16.194 -22.214 -28.940  1.00 22.91 LIG 0.18  C 
BRANCH 42 43
ATOM     43  C   LEU B   4     -15.930 -20.731 -29.219  1.00 30.74 LIG 0.24  C 
ATOM     44 O    LEU B   4     -16.072 -20.247 -30.378  1.00 30.11 LIG-0.27  OA
ATOM     45  N   LEU B   5     -15.515 -19.990 -28.200  1.00 32.41 LIG-0.35  N 
ATOM     46 H    LEU B   5     -15.464 -20.247 -27.381  1.00 32.41 LIG 0.16  HD
BRANCH 45 47
ATOM     47  CA  LEU B   5     -15.104 -18.606 -28.468  1.00 35.50 LIG 0.18  C 
BRANCH 47 48
ATOM     48  C   LEU B   5     -13.728 -18.574 -29.123  1.00 33.38 LIG 0.24  C 
ATOM     49 O    LEU B   5     -12.965 -19.564 -29.075  1.00 25.58 LIG-0.27  OA
ATOM     50  N   THR B   6     -13.427 -17.426 -29.723  1.00 32.99 LIG-0.34  N 
ATOM     51 H    THR B   6     -14.010 -16.811 -29.868  1.00 32.99 LIG 0.16  HD
BRANCH 50 52
ATOM     52  CA  THR B   6     -12.095 -17.082 -30.198  1.00 39.09 LIG 0.19  C 
BRANCH 52 53
ATOM     53  CB  THR B   6     -11.652 -18.043 -31.335  1.00 66.99 LIG 0.14  C 
ATOM     54  CG2 THR B   6     -12.086 -17.518 -32.689  1.00 64.52 LIG 0.04  C 
BRANCH 53 55
ATOM     55 OG1  THR B   6     -10.217 -18.175 -31.332  1.00 68.32 LIG-0.39  OA
ATOM     56 HG1  THR B   6      -9.920 -17.994 -30.567  1.00 68.32 LIG 0.21  HD
ENDBRANCH 53 55
ENDBRANCH 52 53
BRANCH 52 57
ATOM     57  C   THR B   6     -12.123 -15.649 -30.749  1.00 46.48 LIG 0.22  C 
ATOM     58 O    THR B   6     -13.137 -14.944 -30.634  1.00 50.47 LIG-0.29  OA
ENDBRANCH 52 57
ENDBRANCH 50 52
ENDBRANCH 47 48
BRANCH 47 59
ATOM     59  CB  LEU B   5     -15.044 -17.790 -27.183  1.00 41.25 LIG 0.04  C 
BRANCH 59 60
ATOM     60  CG  LEU B   5     -15.590 -16.372 -27.211  1.00 47.99 LIG-0.02  C 
ATOM     61  CD2 LEU B   5     -16.432 -16.160 -28.439  1.00 50.88 LIG 0.01  C 
ATOM     62  CD1 LEU B   5     -14.415 -15.416 -27.214  1.00 54.72 LIG 0.01  C 
ENDBRANCH 59 60
ENDBRANCH 47 59
ENDBRANCH 45 47
ENDBRANCH 42 43
BRANCH 42 63
ATOM     63  CB  LEU B   4     -15.003 -23.007 -29.438  1.00 23.96 LIG 0.04  C 
BRANCH 63 64
ATOM     64  CG  LEU B   4     -13.810 -23.345 -28.572  1.00 38.52 LIG-0.02  C 
ATOM     65  CD1 LEU B   4     -13.984 -22.848 -27.183  1.00 46.71 LIG 0.01  C 
ATOM     66  CD2 LEU B   4     -13.580 -24.863 -28.621  1.00 36.33 LIG 0.01  C 
ENDBRANCH 63 64
ENDBRANCH 42 63
ENDBRANCH 39 42
ENDBRANCH 1 38
TORSDOF 26
ENDMDL
MODEL 3
USER: ADFR SOLUTION from run 101
USER: SCORE 24.703723 LL:  -5.416 LR: -20.012 RR:   0.000 FEB: -12.256
USER: RMSD 4.348892
USER: SEED 100
USER: STATUS 1 or 2 clusters left
USER: GENES 28
USER: genes 0 Translation |==|  0.44111 0.52822 0.32418
USER: genes 1 Rotation |==|  0.61023 0.46096 0.54580 0.98397
USER: genes 2 Torsion [C]-CA--N-[C] |==|  0.63517
USER: genes 3 Torsion [N]-C--CA-[N] |==|  0.35202
USER: genes 4 Torsion [C]-CA--CB-[CG] |==|  0.13396
USER: genes 5 Torsion [CA]-CB--CG-[CD] |==|  0.31174
USER: genes 6 Torsion [CB]-CG--CD-[NE] |==|  0.25343
USER: genes 7 Torsion [CG]-CD--NE-[HE] |==|  0.96502
USER: genes 8 Torsion [C]-CA--N-[C] |==|  0.79120
USER: genes 9 Torsion [N]-C--CA-[N] |==|  0.52021
USER: genes 10 Torsion [C]-CA--N-[H3] |==|  0.39905
USER: genes 11 Torsion [C]-CA--CB-[CG] |==|  0.30866
USER: genes 12 Torsion [CA]-CB--CG-[ND2] |==|  0.30919
USER: genes 13 Torsion [N]-CA--CB-[CG] |==|  0.89858
USER: genes 14 Torsion [CA]-CB--CG-[CD1] |==|  0.45195
USER: genes 15 Torsion [N]-CA--C-[N] |==|  0.34499
USER: genes 16 Torsion [C]-N--CA-[CB] |==|  0.50556
USER: genes 17 Torsion [N]-CA--C-[N] |==|  0.47015
USER: genes 18 Torsion [C]-N--CA-[C] |==|  0.83050
USER: genes 19 Torsion [N]-CA--C-[N] |==|  0.91276
USER: genes 20 Torsion [C]-N--CA-[C] |==|  0.76293
USER: genes 21 Torsion [N]-CA--CB-[CG2] |==|  0.55676
USER: genes 22 Torsion [CA]-CB--OG1-[HG1] |==|  0.57029
USER: genes 23 Torsion [N]-CA--C-[O] |==|  0.89489
USER: genes 24 Torsion [N]-CA--CB-[CG] |==|  0.22546
USER: genes 25 Torsion [CA]-CB--CG-[CD2] |==|  0.69215
USER: genes 26 Torsion [N]-CA--CB-[CG] |==|  0.62548
USER: genes 27 Torsion [CA]-CB--CG-[CD1] |==|  0.88521
ROOT
ATOM      1  CA  LEU B   3     -19.559 -22.173 -32.009  1.00 17.18 LIG 0.18  C 
ENDROOT
BRANCH 1 2
ATOM      2  N   LEU B   3     -20.556 -23.086 -31.591  1.00 21.09 LIG-0.35  N 
ATOM      3  C   ARG B   2     -20.687 -24.279 -32.163  1.00 20.79 LIG 0.24  C 
ATOM      4 O    ARG B   2     -19.907 -24.712 -33.037  1.00 18.81 LIG-0.27  OA
ATOM      5 H    LEU B   3     -21.054 -22.802 -30.949  1.00 21.09 LIG 0.16  HD
BRANCH 3 6
ATOM      6  CA  ARG B   2     -21.914 -25.075 -31.739  1.00 21.42 LIG 0.18  C 
BRANCH 6 7
ATOM      7  CB  ARG B   2     -21.568 -26.290 -30.872  1.00 36.36 LIG 0.04  C 
BRANCH 7 8
ATOM      8  CG  ARG B   2     -20.616 -25.933 -29.746  1.00 41.67 LIG 0.02  C 
BRANCH 8 9
ATOM      9  CD  ARG B   2     -21.254 -26.032 -28.359  1.00 51.14 LIG 0.14  C 
BRANCH 9 10
ATOM     10  NE  ARG B   2     -21.068 -27.369 -27.765  1.00 53.41 LIG-0.23  N 
ATOM     11 HE   ARG B   2     -20.787 -27.995 -28.283  1.00 53.41 LIG 0.18  HD
ATOM     12  CZ  ARG B   2     -21.298 -27.689 -26.486  1.00 50.83 LIG 0.67  C 
ATOM     13  NH1 ARG B   2     -21.734 -26.774 -25.629  1.00 40.00 LIG-0.23  N 
ATOM     14  NH2 ARG B   2     -21.098 -28.940 -26.067  1.00 54.23 LIG-0.23  N 
ATOM     15 1HH1 ARG B   2     -21.872 -25.968 -25.893  1.00 40.00 LIG 0.17  HD
ATOM     16 2HH1 ARG B   2     -21.880 -26.989 -24.808  1.00 40.00 LIG 0.17  HD
ATOM     17 1HH2 ARG B   2     -20.823 -29.539 -26.619  1.00 54.23 LIG 0.17  HD
ATOM     18 2HH2 ARG B   2     -21.246 -29.146 -25.246  1.00 54.23 LIG 0.17  HD
ENDBRANCH 9 10
ENDBRANCH 8 9
ENDBRANCH 7 8
ENDBRANCH 6 7
BRANCH 6 19
ATOM     19  N   ARG B   2     -22.627 -25.464 -32.937  1.00 29.89 LIG-0.35  N 
ATOM     20  C   ASN B   1     -23.346 -24.576 -33.610  1.00 39.87 LIG 0.25  C 
ATOM     21 O    ASN B   1     -23.717 -23.504 -33.114  1.00 37.46 LIG-0.27  OA
ATOM     22 H    ARG B   2     -22.541 -26.291 -33.158  1.00 29.89 LIG 0.16  HD
BRANCH 20 23
ATOM     23  CA  ASN B   1     -23.707 -24.967 -35.055  1.00 47.73 LIG 0.28  C 
BRANCH 23 24
ATOM     24  N   ASN B   1     -24.344 -23.921 -35.816  1.00 51.86 LIG-0.07  N 
ATOM     25 H3   ASN B   1     -24.068 -23.958 -36.661  1.00 51.86 LIG 0.28  HD
ATOM     26 H1   ASN B   1     -25.227 -24.029 -35.788  1.00 51.86 LIG 0.28  HD
ATOM     27 H2   ASN B   1     -24.130 -23.129 -35.469  1.00 51.86 LIG 0.28  HD
ENDBRANCH 23 24
BRANCH 23 28
ATOM     28  CB  ASN B   1     -22.508 -25.447 -35.846  1.00 49.79 LIG 0.14  C 
BRANCH 28 29
ATOM     29  CG  ASN B   1     -22.604 -26.924 -36.147  1.00 59.47 LIG 0.22  C 
ATOM     30  ND2 ASN B   1     -22.798 -27.269 -37.425  1.00 63.81 LIG-0.37  N 
ATOM     31 21HD ASN B   1     -22.882 -28.097 -37.639  1.00 63.81 LIG 0.16  HD
ATOM     32 22HD ASN B   1     -22.838 -26.661 -38.032  1.00 63.81 LIG 0.16  HD
ATOM     33 OD1  ASN B   1     -22.539 -27.750 -35.240  1.00 60.25 LIG-0.27  OA
ENDBRANCH 28 29
ENDBRANCH 23 28
ENDBRANCH 20 23
ENDBRANCH 6 19
ENDBRANCH 3 6
ENDBRANCH 1 2
BRANCH 1 34
ATOM     34  CB  LEU B   3     -20.200 -21.051 -32.874  1.00 28.79 LIG 0.04  C 
BRANCH 34 35
ATOM     35  CG  LEU B   3     -21.329 -21.598 -33.754  1.00 33.15 LIG-0.02  C 
ATOM     36  CD2 LEU B   3     -20.727 -22.404 -34.897  1.00 30.13 LIG 0.01  C 
ATOM     37  CD1 LEU B   3     -22.286 -20.506 -34.317  1.00 27.67 LIG 0.01  C 
ENDBRANCH 34 35
ENDBRANCH 1 34
BRANCH 1 38
ATOM     38  C   LEU B   3     -18.780 -21.606 -30.843  1.00 20.33 LIG 0.24  C 
ATOM     39  N   LEU B   4     -17.462 -21.767 -30.895  1.00 23.83 LIG-0.35  N 
ATOM     40 H    LEU B   4     -17.047 -22.161 -31.536  1.00 23.83 LIG 0.16  HD
ATOM     41 O    LEU B   3     -19.340 -21.028 -29.915  1.00 22.70 LIG-0.27  OA
BRANCH 39 42
ATOM     42  CA  LEU B   4     -16.603 -21.265 -29.828  1.00 22.91 LIG 0.18  C 
BRANCH 42 43
ATOM     43  C   LEU B   4     -16.769 -19.744 -29.748  1.00 30.74 LIG 0.24  C 
ATOM     44 O    LEU B   4     -17.361 -19.102 -30.662  1.00 30.11 LIG-0.27  OA
ATOM     45  N   LEU B   5     -16.237 -19.133 -28.699  1.00 32.41 LIG-0.35  N 
ATOM     46 H    LEU B   5     -15.883 -19.522 -28.018  1.00 32.41 LIG 0.16  HD
BRANCH 45 47
ATOM     47  CA  LEU B   5     -16.242 -17.665 -28.671  1.00 35.50 LIG 0.18  C 
BRANCH 47 48
ATOM     48  C   LEU B   5     -15.450 -17.106 -29.847  1.00 33.38 LIG 0.24  C 
ATOM     49 O    LEU B   5     -15.761 -16.016 -30.378  1.00 25.58 LIG-0.27  OA
ATOM     50  N   THR B   6     -14.435 -17.867 -30.242  1.00 32.99 LIG-0.34  N 
ATOM     51 H    THR B   6     -14.149 -18.536 -29.784  1.00 32.99 LIG 0.16  HD
BRANCH 50 52
ATOM     52  CA  THR B   6     -13.697 -17.661 -31.481  1.00 39.09 LIG 0.19  C 
BRANCH 52 53
ATOM     53  CB  THR B   6     -12.267 -18.256 -31.375  1.00 66.99 LIG 0.14  C 
ATOM     54  CG2 THR B   6     -11.344 -17.639 -32.407  1.00 64.52 LIG 0.04  C 
BRANCH 53 55
ATOM     55 OG1  THR B   6     -11.727 -18.000 -30.063  1.00 68.32 LIG-0.39  OA
ATOM     56 HG1  THR B   6     -10.888 -17.995 -30.101  1.00 68.32 LIG 0.21  HD
ENDBRANCH 53 55
ENDBRANCH 52 53
BRANCH 52 57
ATOM     57  C   THR B   6     -14.441 -18.371 -32.622  1.00 46.48 LIG 0.22  C 
ATOM     58 O    THR B   6     -14.993 -19.466 -32.435  1.00 50.47 LIG-0.29  OA
ENDBRANCH 52 57
ENDBRANCH 50 52
ENDBRANCH 47 48
BRANCH 47 59
ATOM     59  CB  LEU B   5     -15.626 -17.136 -27.382  1.00 41.25 LIG 0.04  C 
BRANCH 59 60
ATOM     60  CG  LEU B   5     -14.110 -17.067 -27.290  1.00 47.99 LIG-0.02  C 
ATOM     61  CD2 LEU B   5     -13.600 -18.081 -26.305  1.00 50.88 LIG 0.01  C 
ATOM     62  CD1 LEU B   5     -13.731 -15.670 -26.844  1.00 54.72 LIG 0.01  C 
ENDBRANCH 59 60
ENDBRANCH 47 59
ENDBRANCH 45 47
ENDBRANCH 42 43
BRANCH 42 63
ATOM     63  CB  LEU B   4     -15.169 -21.564 -30.216  1.00 23.96 LIG 0.04  C 
BRANCH 63 64
ATOM     64  CG  LEU B   4     -14.154 -22.143 -29.256  1.00 38.52 LIG-0.02  C 
ATOM     65  CD1 LEU B   4     -14.260 -21.527 -27.909  1.00 46.71 LIG 0.01  C 
ATOM     66  CD2 LEU B   4     -14.332 -23.668 -29.212  1.00 36.33 LIG 0.01  C 
ENDBRANCH 63 64
ENDBRANCH 42 63
ENDBRANCH 39 42
ENDBRANCH 1 38
TORSDOF 26
ENDMDL
MODEL 4
USER: ADFR SOLUTION from run 5
USER: SCORE 21.862463 LL:  -4.064 LR: -19.977 RR:   0.000 FEB: -12.221
USER: RMSD 12.689291
USER: SEED 269819
USER: STATUS no improvement in best in 13 clusters for 5 generations
USER: GENES 28
USER: genes 0 Translation |==|  0.60999 0.53116 0.40594
USER: genes 1 Rotation |==|  0.57283 0.24911 0.07643 0.54831
USER: genes 2 Torsion [C]-CA--N-[C] |==|  0.64391
USER: genes 3 Torsion [N]-C--CA-[N] |==|  0.96206
USER: genes 4 Torsion [C]-CA--CB-[CG] |==|  0.32691
USER: genes 5 Torsion [CA]-CB--CG-[CD] |==|  0.46266
USER: genes 6 Torsion [CB]-CG--CD-[NE] |==|  0.78815
USER: genes 7 Torsion [CG]-CD--NE-[HE] |==|  0.16701
USER: genes 8 Torsion [C]-CA--N-[C] |==|  0.78403
USER: genes 9 Torsion [N]-C--CA-[N] |==|  0.90896
USER: genes 10 Torsion [C]-CA--N-[H3] |==|  0.11497
USER: genes 11 Torsion [C]-CA--CB-[CG] |==|  0.65527
USER: genes 12 Torsion [CA]-CB--CG-[ND2] |==|  0.33814
USER: genes 13 Torsion [N]-CA--CB-[CG] |==|  0.25687
USER: genes 14 Torsion [CA]-CB--CG-[CD1] |==|  0.46693
USER: genes 15 Torsion [N]-CA--C-[N] |==|  0.44106
USER: genes 16 Torsion [C]-N--CA-[CB] |==|  0.17703
USER: genes 17 Torsion [N]-CA--C-[N] |==|  0.40621
USER: genes 18 Torsion [C]-N--CA-[C] |==|  0.55311
USER: genes 19 Torsion [N]-CA--C-[N] |==|  0.76660
USER: genes 20 Torsion [C]-N--CA-[C] |==|  0.82408
USER: genes 21 Torsion [N]-CA--CB-[CG2] |==|  0.53180
USER: genes 22 Torsion [CA]-CB--OG1-[HG1] |==|  0.24642
USER: genes 23 Torsion [N]-CA--C-[O] |==|  0.44243
USER: genes 24 Torsion [N]-CA--CB-[CG] |==|  0.56827
USER: genes 25 Torsion [CA]-CB--CG-[CD2] |==|  0.49969
USER: genes 26 Torsion [N]-CA--CB-[CG] |==|  0.31775
USER: genes 27 Torsion [CA]-CB--CG-[CD1] |==|  0.39020
ROOT
ATOM      1  CA  LEU B   3     -15.380 -22.100 -30.292  1.00 17.18 LIG 0.18  C 
ENDROOT
BRANCH 1 2
ATOM      2  N   LEU B   3     -14.736 -20.853 -30.111  1.00 21.09 LIG-0.35  N 
ATOM      3  C   ARG B   2     -14.442 -20.069 -31.144  1.00 20.79 LIG 0.24  C 
ATOM      4 O    ARG B   2     -14.777 -20.324 -32.319  1.00 18.81 LIG-0.27  OA
ATOM      5 H    LEU B   3     -14.558 -20.658 -29.292  1.00 21.09 LIG 0.16  HD
BRANCH 3 6
ATOM      6  CA  ARG B   2     -13.587 -18.851 -30.816  1.00 21.42 LIG 0.18  C 
BRANCH 6 7
ATOM      7  CB  ARG B   2     -12.166 -18.951 -31.380  1.00 36.36 LIG 0.04  C 
BRANCH 7 8
ATOM      8  CG  ARG B   2     -11.874 -17.854 -32.387  1.00 41.67 LIG 0.02  C 
BRANCH 8 9
ATOM      9  CD  ARG B   2     -10.388 -17.721 -32.723  1.00 51.14 LIG 0.14  C 
BRANCH 9 10
ATOM     10  NE  ARG B   2      -9.641 -17.044 -31.647  1.00 53.41 LIG-0.23  N 
ATOM     11 HE   ARG B   2      -9.646 -17.415 -30.871  1.00 53.41 LIG 0.18  HD
ATOM     12  CZ  ARG B   2      -8.957 -15.901 -31.776  1.00 50.83 LIG 0.67  C 
ATOM     13  NH1 ARG B   2      -8.909 -15.271 -32.943  1.00 40.00 LIG-0.23  N 
ATOM     14  NH2 ARG B   2      -8.326 -15.381 -30.722  1.00 54.23 LIG-0.23  N 
ATOM     15 1HH1 ARG B   2      -9.319 -15.597 -33.625  1.00 40.00 LIG 0.17  HD
ATOM     16 2HH1 ARG B   2      -8.467 -14.537 -33.018  1.00 40.00 LIG 0.17  HD
ATOM     17 1HH2 ARG B   2      -8.359 -15.780 -29.961  1.00 54.23 LIG 0.17  HD
ATOM     18 2HH2 ARG B   2      -7.886 -14.647 -30.804  1.00 54.23 LIG 0.17  HD
ENDBRANCH 9 10
ENDBRANCH 8 9
ENDBRANCH 7 8
ENDBRANCH 6 7
BRANCH 6 19
ATOM     19  N   ARG B   2     -13.577 -18.689 -29.379  1.00 29.89 LIG-0.35  N 
ATOM     20  C   ASN B   1     -14.618 -18.155 -28.755  1.00 39.87 LIG 0.25  C 
ATOM     21 O    ASN B   1     -15.479 -17.487 -29.344  1.00 37.46 LIG-0.27  OA
ATOM     22 H    ARG B   2     -12.861 -18.961 -28.987  1.00 29.89 LIG 0.16  HD
BRANCH 20 23
ATOM     23  CA  ASN B   1     -14.689 -18.407 -27.238  1.00 47.73 LIG 0.28  C 
BRANCH 23 24
ATOM     24  N   ASN B   1     -14.153 -19.678 -26.817  1.00 51.86 LIG-0.07  N 
ATOM     25 H3   ASN B   1     -13.404 -19.848 -27.267  1.00 51.86 LIG 0.28  HD
ATOM     26 H1   ASN B   1     -13.975 -19.652 -25.945  1.00 51.86 LIG 0.28  HD
ATOM     27 H2   ASN B   1     -14.748 -20.320 -26.979  1.00 51.86 LIG 0.28  HD
ENDBRANCH 23 24
BRANCH 23 28
ATOM     28  CB  ASN B   1     -13.997 -17.326 -26.433  1.00 49.79 LIG 0.14  C 
BRANCH 28 29
ATOM     29  CG  ASN B   1     -12.938 -17.909 -25.527  1.00 59.47 LIG 0.22  C 
ATOM     30  ND2 ASN B   1     -11.689 -17.460 -25.692  1.00 63.81 LIG-0.37  N 
ATOM     31 21HD ASN B   1     -11.050 -17.780 -25.214  1.00 63.81 LIG 0.16  HD
ATOM     32 22HD ASN B   1     -11.525 -16.850 -26.276  1.00 63.81 LIG 0.16  HD
ATOM     33 OD1  ASN B   1     -13.227 -18.778 -24.709  1.00 60.25 LIG-0.27  OA
ENDBRANCH 28 29
ENDBRANCH 23 28
ENDBRANCH 20 23
ENDBRANCH 6 19
ENDBRANCH 3 6
ENDBRANCH 1 2
BRANCH 1 34
ATOM     34  CB  LEU B   3     -14.367 -23.256 -30.061  1.00 28.79 LIG 0.04  C 
BRANCH 34 35
ATOM     35  CG  LEU B   3     -14.390 -23.738 -28.607  1.00 33.15 LIG-0.02  C 
ATOM     36  CD2 LEU B   3     -13.827 -22.645 -27.708  1.00 30.13 LIG 0.01  C 
ATOM     37  CD1 LEU B   3     -13.626 -25.073 -28.364  1.00 27.67 LIG 0.01  C 
ENDBRANCH 34 35
ENDBRANCH 1 34
BRANCH 1 38
ATOM     38  C   LEU B   3     -16.603 -22.242 -29.414  1.00 20.33 LIG 0.24  C 
ATOM     39  N   LEU B   4     -17.498 -23.142 -29.808  1.00 23.83 LIG-0.35  N 
ATOM     40 H    LEU B   4     -17.417 -23.629 -30.511  1.00 23.83 LIG 0.16  HD
ATOM     41 O    LEU B   3     -16.746 -21.569 -28.397  1.00 22.70 LIG-0.27  OA
BRANCH 39 42
ATOM     42  CA  LEU B   4     -18.719 -23.369 -29.044  1.00 22.91 LIG 0.18  C 
BRANCH 42 43
ATOM     43  C   LEU B   4     -19.529 -24.466 -29.743  1.00 30.74 LIG 0.24  C 
ATOM     44 O    LEU B   4     -19.546 -24.564 -31.003  1.00 30.11 LIG-0.27  OA
ATOM     45  N   LEU B   5     -20.234 -25.281 -28.970  1.00 32.41 LIG-0.35  N 
ATOM     46 H    LEU B   5     -20.210 -25.303 -28.111  1.00 32.41 LIG 0.16  HD
BRANCH 45 47
ATOM     47  CA  LEU B   5     -21.141 -26.239 -29.614  1.00 35.50 LIG 0.18  C 
BRANCH 47 48
ATOM     48  C   LEU B   5     -22.182 -26.741 -28.620  1.00 33.38 LIG 0.24  C 
ATOM     49 O    LEU B   5     -23.315 -26.217 -28.549  1.00 25.58 LIG-0.27  OA
ATOM     50  N   THR B   6     -21.777 -27.753 -27.859  1.00 32.99 LIG-0.34  N 
ATOM     51 H    THR B   6     -21.053 -28.191 -28.014  1.00 32.99 LIG 0.16  HD
BRANCH 50 52
ATOM     52  CA  THR B   6     -22.501 -28.231 -26.689  1.00 39.09 LIG 0.19  C 
BRANCH 52 53
ATOM     53  CB  THR B   6     -21.789 -29.464 -26.069  1.00 66.99 LIG 0.14  C 
ATOM     54  CG2 THR B   6     -22.670 -30.136 -25.034  1.00 64.52 LIG 0.04  C 
BRANCH 53 55
ATOM     55 OG1  THR B   6     -21.481 -30.421 -27.102  1.00 68.32 LIG-0.39  OA
ATOM     56 HG1  THR B   6     -20.727 -30.249 -27.429  1.00 68.32 LIG 0.21  HD
ENDBRANCH 53 55
ENDBRANCH 52 53
BRANCH 52 57
ATOM     57  C   THR B   6     -22.542 -27.110 -25.641  1.00 46.48 LIG 0.22  C 
ATOM     58 O    THR B   6     -23.396 -27.112 -24.741  1.00 50.47 LIG-0.29  OA
ENDBRANCH 52 57
ENDBRANCH 50 52
ENDBRANCH 47 48
BRANCH 47 59
ATOM     59  CB  LEU B   5     -20.378 -27.440 -30.159  1.00 41.25 LIG 0.04  C 
BRANCH 59 60
ATOM     60  CG  LEU B   5     -21.000 -28.221 -31.306  1.00 47.99 LIG-0.02  C 
ATOM     61  CD2 LEU B   5     -20.106 -29.361 -31.707  1.00 50.88 LIG 0.01  C 
ATOM     62  CD1 LEU B   5     -21.188 -27.271 -32.471  1.00 54.72 LIG 0.01  C 
ENDBRANCH 59 60
ENDBRANCH 47 59
ENDBRANCH 45 47
ENDBRANCH 42 43
BRANCH 42 63
ATOM     63  CB  LEU B   4     -19.528 -22.088 -29.081  1.00 23.96 LIG 0.04  C 
BRANCH 63 64
ATOM     64  CG  LEU B   4     -20.872 -21.975 -29.767  1.00 38.52 LIG-0.02  C 
ATOM     65  CD1 LEU B   4     -21.818 -21.142 -28.983  1.00 46.71 LIG 0.01  C 
ATOM     66  CD2 LEU B   4     -20.655 -21.429 -31.187  1.00 36.33 LIG 0.01  C 
ENDBRANCH 63 64
ENDBRANCH 42 63
ENDBRANCH 39 42
ENDBRANCH 1 38
TORSDOF 26
ENDMDL
MODEL 5
USER: ADFR SOLUTION from run 156
USER: SCORE 21.232541 LL:  -4.082 LR: -19.847 RR:   0.000 FEB: -12.091
USER: RMSD 11.977811
USER: SEED 155
USER: STATUS no improvement in best in 25 clusters for 5 generations
USER: GENES 28
USER: genes 0 Translation |==|  0.58551 0.58426 0.41871
USER: genes 1 Rotation |==|  0.31053 0.67061 0.92963 0.52027
USER: genes 2 Torsion [C]-CA--N-[C] |==|  0.53463
USER: genes 3 Torsion [N]-C--CA-[N] |==|  0.87820
USER: genes 4 Torsion [C]-CA--CB-[CG] |==|  0.51436
USER: genes 5 Torsion [CA]-CB--CG-[CD] |==|  0.79581
USER: genes 6 Torsion [CB]-CG--CD-[NE] |==|  0.45747
USER: genes 7 Torsion [CG]-CD--NE-[HE] |==|  0.99852
USER: genes 8 Torsion [C]-CA--N-[C] |==|  0.62674
USER: genes 9 Torsion [N]-C--CA-[N] |==|  0.29748
USER: genes 10 Torsion [C]-CA--N-[H3] |==|  0.72614
USER: genes 11 Torsion [C]-CA--CB-[CG] |==|  0.37988
USER: genes 12 Torsion [CA]-CB--CG-[ND2] |==|  0.74404
USER: genes 13 Torsion [N]-CA--CB-[CG] |==|  0.10808
USER: genes 14 Torsion [CA]-CB--CG-[CD1] |==|  0.26836
USER: genes 15 Torsion [N]-CA--C-[N] |==|  0.48888
USER: genes 16 Torsion [C]-N--CA-[CB] |==|  0.39025
USER: genes 17 Torsion [N]-CA--C-[N] |==|  0.53727
USER: genes 18 Torsion [C]-N--CA-[C] |==|  0.67665
USER: genes 19 Torsion [N]-CA--C-[N] |==|  0.45151
USER: genes 20 Torsion [C]-N--CA-[C] |==|  0.56612
USER: genes 21 Torsion [N]-CA--CB-[CG2] |==|  0.37588
USER: genes 22 Torsion [CA]-CB--OG1-[HG1] |==|  0.58602
USER: genes 23 Torsion [N]-CA--C-[O] |==|  0.15680
USER: genes 24 Torsion [N]-CA--CB-[CG] |==|  0.61275
USER: genes 25 Torsion [CA]-CB--CG-[CD2] |==|  0.67043
USER: genes 26 Torsion [N]-CA--CB-[CG] |==|  0.68081
USER: genes 27 Torsion [CA]-CB--CG-[CD1] |==|  0.50506
ROOT
ATOM      1  CA  LEU B   3     -15.986 -20.786 -30.024  1.00 17.18 LIG 0.18  C 
ENDROOT
BRANCH 1 2
ATOM      2  N   LEU B   3     -15.676 -19.722 -29.144  1.00 21.09 LIG-0.35  N 
ATOM      3  C   ARG B   2     -14.521 -19.068 -29.226  1.00 20.79 LIG 0.24  C 
ATOM      4 O    ARG B   2     -13.673 -19.280 -30.118  1.00 18.81 LIG-0.27  OA
ATOM      5 H    LEU B   3     -16.290 -19.545 -28.567  1.00 21.09 LIG 0.16  HD
BRANCH 3 6
ATOM      6  CA  ARG B   2     -14.249 -18.078 -28.101  1.00 21.42 LIG 0.18  C 
BRANCH 6 7
ATOM      7  CB  ARG B   2     -13.740 -18.752 -26.823  1.00 36.36 LIG 0.04  C 
BRANCH 7 8
ATOM      8  CG  ARG B   2     -13.596 -17.767 -25.678  1.00 41.67 LIG 0.02  C 
BRANCH 8 9
ATOM      9  CD  ARG B   2     -12.396 -16.831 -25.834  1.00 51.14 LIG 0.14  C 
BRANCH 9 10
ATOM     10  NE  ARG B   2     -12.483 -15.673 -24.925  1.00 53.41 LIG-0.23  N 
ATOM     11 HE   ARG B   2     -13.173 -15.623 -24.415  1.00 53.41 LIG 0.18  HD
ATOM     12  CZ  ARG B   2     -11.577 -14.693 -24.827  1.00 50.83 LIG 0.67  C 
ATOM     13  NH1 ARG B   2     -10.487 -14.702 -25.585  1.00 40.00 LIG-0.23  N 
ATOM     14  NH2 ARG B   2     -11.772 -13.690 -23.970  1.00 54.23 LIG-0.23  N 
ATOM     15 1HH1 ARG B   2     -10.359 -15.341 -26.145  1.00 40.00 LIG 0.17  HD
ATOM     16 2HH1 ARG B   2      -9.910 -14.068 -25.516  1.00 40.00 LIG 0.17  HD
ATOM     17 1HH2 ARG B   2     -12.479 -13.674 -23.480  1.00 54.23 LIG 0.17  HD
ATOM     18 2HH2 ARG B   2     -11.191 -13.060 -23.906  1.00 54.23 LIG 0.17  HD
ENDBRANCH 9 10
ENDBRANCH 8 9
ENDBRANCH 7 8
ENDBRANCH 6 7
BRANCH 6 19
ATOM     19  N   ARG B   2     -15.466 -17.334 -27.860  1.00 29.89 LIG-0.35  N 
ATOM     20  C   ASN B   1     -15.432 -16.016 -27.719  1.00 39.87 LIG 0.25  C 
ATOM     21 O    ASN B   1     -14.391 -15.399 -27.459  1.00 37.46 LIG-0.27  OA
ATOM     22 H    ARG B   2     -16.181 -17.811 -27.820  1.00 29.89 LIG 0.16  HD
BRANCH 20 23
ATOM     23  CA  ASN B   1     -16.781 -15.292 -27.887  1.00 47.73 LIG 0.28  C 
BRANCH 23 24
ATOM     24  N   ASN B   1     -17.352 -14.798 -26.659  1.00 51.86 LIG-0.07  N 
ATOM     25 H3   ASN B   1     -17.967 -15.371 -26.366  1.00 51.86 LIG 0.28  HD
ATOM     26 H1   ASN B   1     -16.711 -14.713 -26.047  1.00 51.86 LIG 0.28  HD
ATOM     27 H2   ASN B   1     -17.730 -14.006 -26.804  1.00 51.86 LIG 0.28  HD
ENDBRANCH 23 24
BRANCH 23 28
ATOM     28  CB  ASN B   1     -16.703 -14.131 -28.858  1.00 49.79 LIG 0.14  C 
BRANCH 28 29
ATOM     29  CG  ASN B   1     -17.897 -14.108 -29.783  1.00 59.47 LIG 0.22  C 
ATOM     30  ND2 ASN B   1     -17.769 -14.751 -30.949  1.00 63.81 LIG-0.37  N 
ATOM     31 21HD ASN B   1     -18.415 -14.745 -31.516  1.00 63.81 LIG 0.16  HD
ATOM     32 22HD ASN B   1     -17.041 -15.171 -31.130  1.00 63.81 LIG 0.16  HD
ATOM     33 OD1  ASN B   1     -18.913 -13.493 -29.472  1.00 60.25 LIG-0.27  OA
ENDBRANCH 28 29
ENDBRANCH 23 28
ENDBRANCH 20 23
ENDBRANCH 6 19
ENDBRANCH 3 6
ENDBRANCH 1 2
BRANCH 1 34
ATOM     34  CB  LEU B   3     -15.050 -21.994 -29.742  1.00 28.79 LIG 0.04  C 
BRANCH 34 35
ATOM     35  CG  LEU B   3     -14.805 -22.173 -28.240  1.00 33.15 LIG-0.02  C 
ATOM     36  CD2 LEU B   3     -13.344 -22.539 -28.010  1.00 30.13 LIG 0.01  C 
ATOM     37  CD1 LEU B   3     -15.730 -23.227 -27.563  1.00 27.67 LIG 0.01  C 
ENDBRANCH 34 35
ENDBRANCH 1 34
BRANCH 1 38
ATOM     38  C   LEU B   3     -17.445 -21.177 -29.952  1.00 20.33 LIG 0.24  C 
ATOM     39  N   LEU B   4     -17.836 -22.115 -30.809  1.00 23.83 LIG-0.35  N 
ATOM     40 H    LEU B   4     -17.318 -22.495 -31.381  1.00 23.83 LIG 0.16  HD
ATOM     41 O    LEU B   3     -18.211 -20.661 -29.143  1.00 22.70 LIG-0.27  OA
BRANCH 39 42
ATOM     42  CA  LEU B   4     -19.219 -22.575 -30.838  1.00 22.91 LIG 0.18  C 
BRANCH 42 43
ATOM     43  C   LEU B   4     -19.291 -23.933 -30.132  1.00 30.74 LIG 0.24  C 
ATOM     44 O    LEU B   4     -18.318 -24.371 -29.454  1.00 30.11 LIG-0.27  OA
ATOM     45  N   LEU B   5     -20.403 -24.638 -30.292  1.00 32.41 LIG-0.35  N 
ATOM     46 H    LEU B   5     -21.118 -24.366 -30.684  1.00 32.41 LIG 0.16  HD
BRANCH 45 47
ATOM     47  CA  LEU B   5     -20.442 -26.006 -29.760  1.00 35.50 LIG 0.18  C 
BRANCH 47 48
ATOM     48  C   LEU B   5     -20.609 -27.015 -30.891  1.00 33.38 LIG 0.24  C 
ATOM     49 O    LEU B   5     -21.017 -26.661 -32.019  1.00 25.58 LIG-0.27  OA
ATOM     50  N   THR B   6     -20.295 -28.265 -30.567  1.00 32.99 LIG-0.34  N 
ATOM     51 H    THR B   6     -19.886 -28.468 -29.838  1.00 32.99 LIG 0.16  HD
BRANCH 50 52
ATOM     52  CA  THR B   6     -20.601 -29.422 -31.397  1.00 39.09 LIG 0.19  C 
BRANCH 52 53
ATOM     53  CB  THR B   6     -19.505 -29.629 -32.477  1.00 66.99 LIG 0.14  C 
ATOM     54  CG2 THR B   6     -19.110 -31.089 -32.576  1.00 64.52 LIG 0.04  C 
BRANCH 53 55
ATOM     55 OG1  THR B   6     -19.996 -29.197 -33.761  1.00 68.32 LIG-0.39  OA
ATOM     56 HG1  THR B   6     -19.640 -29.658 -34.367  1.00 68.32 LIG 0.21  HD
ENDBRANCH 53 55
ENDBRANCH 52 53
BRANCH 52 57
ATOM     57  C   THR B   6     -20.654 -30.670 -30.504  1.00 46.48 LIG 0.22  C 
ATOM     58 O    THR B   6     -21.418 -30.722 -29.529  1.00 50.47 LIG-0.29  OA
ENDBRANCH 52 57
ENDBRANCH 50 52
ENDBRANCH 47 48
BRANCH 47 59
ATOM     59  CB  LEU B   5     -21.597 -26.185 -28.782  1.00 41.25 LIG 0.04  C 
BRANCH 59 60
ATOM     60  CG  LEU B   5     -21.347 -27.000 -27.523  1.00 47.99 LIG-0.02  C 
ATOM     61  CD2 LEU B   5     -22.247 -28.204 -27.493  1.00 50.88 LIG 0.01  C 
ATOM     62  CD1 LEU B   5     -21.624 -26.112 -26.328  1.00 54.72 LIG 0.01  C 
ENDBRANCH 59 60
ENDBRANCH 47 59
ENDBRANCH 45 47
ENDBRANCH 42 43
BRANCH 42 63
ATOM     63  CB  LEU B   4     -19.606 -22.777 -32.289  1.00 23.96 LIG 0.04  C 
BRANCH 63 64
ATOM     64  CG  LEU B   4     -20.666 -21.953 -32.987  1.00 38.52 LIG-0.02  C 
ATOM     65  CD1 LEU B   4     -20.867 -22.396 -34.390  1.00 46.71 LIG 0.01  C 
ATOM     66  CD2 LEU B   4     -21.962 -22.021 -32.165  1.00 36.33 LIG 0.01  C 
ENDBRANCH 63 64
ENDBRANCH 42 63
ENDBRANCH 39 42
ENDBRANCH 1 38
TORSDOF 26
ENDMDL
MODEL 6
USER: ADFR SOLUTION from run 3
USER: SCORE 23.471283 LL:  -4.251 LR: -19.837 RR:   0.000 FEB: -12.081
USER: RMSD 5.304803
USER: SEED 627346
USER: STATUS 1 or 2 clusters left
USER: GENES 28
USER: genes 0 Translation |==|  0.40475 0.45457 0.24864
USER: genes 1 Rotation |==|  0.43897 0.39097 0.64551 0.96175
USER: genes 2 Torsion [C]-CA--N-[C] |==|  0.74707
USER: genes 3 Torsion [N]-C--CA-[N] |==|  0.31672
USER: genes 4 Torsion [C]-CA--CB-[CG] |==|  0.02016
USER: genes 5 Torsion [CA]-CB--CG-[CD] |==|  0.56268
USER: genes 6 Torsion [CB]-CG--CD-[NE] |==|  0.12119
USER: genes 7 Torsion [CG]-CD--NE-[HE] |==|  0.03779
USER: genes 8 Torsion [C]-CA--N-[C] |==|  0.69986
USER: genes 9 Torsion [N]-C--CA-[N] |==|  0.71291
USER: genes 10 Torsion [C]-CA--N-[H3] |==|  0.86818
USER: genes 11 Torsion [C]-CA--CB-[CG] |==|  0.61361
USER: genes 12 Torsion [CA]-CB--CG-[ND2] |==|  0.32905
USER: genes 13 Torsion [N]-CA--CB-[CG] |==|  0.06733
USER: genes 14 Torsion [CA]-CB--CG-[CD1] |==|  0.80195
USER: genes 15 Torsion [N]-CA--C-[N] |==|  0.24192
USER: genes 16 Torsion [C]-N--CA-[CB] |==|  0.17777
USER: genes 17 Torsion [N]-CA--C-[N] |==|  0.09462
USER: genes 18 Torsion [C]-N--CA-[C] |==|  0.79667
USER: genes 19 Torsion [N]-CA--C-[N] |==|  0.88358
USER: genes 20 Torsion [C]-N--CA-[C] |==|  0.56459
USER: genes 21 Torsion [N]-CA--CB-[CG2] |==|  0.40340
USER: genes 22 Torsion [CA]-CB--OG1-[HG1] |==|  0.23137
USER: genes 23 Torsion [N]-CA--C-[O] |==|  0.95472
USER: genes 24 Torsion [N]-CA--CB-[CG] |==|  0.46268
USER: genes 25 Torsion [CA]-CB--CG-[CD2] |==|  0.47840
USER: genes 26 Torsion [N]-CA--CB-[CG] |==|  0.12737
USER: genes 27 Torsion [CA]-CB--CG-[CD1] |==|  0.21401
ROOT
ATOM      1  CA  LEU B   3     -20.459 -23.995 -33.596  1.00 17.18 LIG 0.18  C 
ENDROOT
BRANCH 1 2
ATOM      2  N   LEU B   3     -21.422 -24.850 -33.008  1.00 21.09 LIG-0.35  N 
ATOM      3  C   ARG B   2     -21.102 -25.674 -32.015  1.00 20.79 LIG 0.24  C 
ATOM      4 O    ARG B   2     -19.975 -25.701 -31.478  1.00 18.81 LIG-0.27  OA
ATOM      5 H    LEU B   3     -22.210 -24.786 -33.346  1.00 21.09 LIG 0.16  HD
BRANCH 3 6
ATOM      6  CA  ARG B   2     -22.189 -26.662 -31.611  1.00 21.42 LIG 0.18  C 
BRANCH 6 7
ATOM      7  CB  ARG B   2     -22.582 -26.547 -30.135  1.00 36.36 LIG 0.04  C 
BRANCH 7 8
ATOM      8  CG  ARG B   2     -21.924 -25.358 -29.461  1.00 41.67 LIG 0.02  C 
BRANCH 8 9
ATOM      9  CD  ARG B   2     -21.829 -25.500 -27.941  1.00 51.14 LIG 0.14  C 
BRANCH 9 10
ATOM     10  NE  ARG B   2     -21.393 -26.851 -27.543  1.00 53.41 LIG-0.23  N 
ATOM     11 HE   ARG B   2     -21.067 -27.357 -28.157  1.00 53.41 LIG 0.18  HD
ATOM     12  CZ  ARG B   2     -21.462 -27.356 -26.305  1.00 50.83 LIG 0.67  C 
ATOM     13  NH1 ARG B   2     -21.957 -26.634 -25.308  1.00 40.00 LIG-0.23  N 
ATOM     14  NH2 ARG B   2     -21.042 -28.600 -26.070  1.00 54.23 LIG-0.23  N 
ATOM     15 1HH1 ARG B   2     -22.236 -25.834 -25.453  1.00 40.00 LIG 0.17  HD
ATOM     16 2HH1 ARG B   2     -21.998 -26.966 -24.515  1.00 40.00 LIG 0.17  HD
ATOM     17 1HH2 ARG B   2     -20.727 -29.076 -26.713  1.00 54.23 LIG 0.17  HD
ATOM     18 2HH2 ARG B   2     -21.086 -28.925 -25.276  1.00 54.23 LIG 0.17  HD
ENDBRANCH 9 10
ENDBRANCH 8 9
ENDBRANCH 7 8
ENDBRANCH 6 7
BRANCH 6 19
ATOM     19  N   ARG B   2     -21.721 -27.993 -31.933  1.00 29.89 LIG-0.35  N 
ATOM     20  C   ASN B   1     -22.250 -28.664 -32.947  1.00 39.87 LIG 0.25  C 
ATOM     21 O    ASN B   1     -23.342 -28.366 -33.449  1.00 37.46 LIG-0.27  OA
ATOM     22 H    ARG B   2     -21.095 -28.291 -31.424  1.00 29.89 LIG 0.16  HD
BRANCH 20 23
ATOM     23  CA  ASN B   1     -21.423 -29.857 -33.461  1.00 47.73 LIG 0.28  C 
BRANCH 23 24
ATOM     24  N   ASN B   1     -20.714 -29.608 -34.692  1.00 51.86 LIG-0.07  N 
ATOM     25 H3   ASN B   1     -21.264 -29.229 -35.280  1.00 51.86 LIG 0.28  HD
ATOM     26 H1   ASN B   1     -20.028 -29.064 -34.534  1.00 51.86 LIG 0.28  HD
ATOM     27 H2   ASN B   1     -20.412 -30.378 -35.022  1.00 51.86 LIG 0.28  HD
ENDBRANCH 23 24
BRANCH 23 28
ATOM     28  CB  ASN B   1     -20.417 -30.353 -32.443  1.00 49.79 LIG 0.14  C 
BRANCH 28 29
ATOM     29  CG  ASN B   1     -19.099 -30.698 -33.095  1.00 59.47 LIG 0.22  C 
ATOM     30  ND2 ASN B   1     -18.029 -30.001 -32.699  1.00 63.81 LIG-0.37  N 
ATOM     31 21HD ASN B   1     -17.263 -30.148 -33.060  1.00 63.81 LIG 0.16  HD
ATOM     32 22HD ASN B   1     -18.107 -29.406 -32.083  1.00 63.81 LIG 0.16  HD
ATOM     33 OD1  ASN B   1     -19.044 -31.559 -33.969  1.00 60.25 LIG-0.27  OA
ENDBRANCH 28 29
ENDBRANCH 23 28
ENDBRANCH 20 23
ENDBRANCH 6 19
ENDBRANCH 3 6
ENDBRANCH 1 2
BRANCH 1 34
ATOM     34  CB  LEU B   3     -20.729 -23.864 -35.121  1.00 28.79 LIG 0.04  C 
BRANCH 34 35
ATOM     35  CG  LEU B   3     -22.197 -24.152 -35.456  1.00 33.15 LIG-0.02  C 
ATOM     36  CD2 LEU B   3     -23.091 -23.289 -34.576  1.00 30.13 LIG 0.01  C 
ATOM     37  CD1 LEU B   3     -22.601 -25.650 -35.318  1.00 27.67 LIG 0.01  C 
ENDBRANCH 34 35
ENDBRANCH 1 34
BRANCH 1 38
ATOM     38  C   LEU B   3     -20.408 -22.644 -32.917  1.00 20.33 LIG 0.24  C 
ATOM     39  N   LEU B   4     -19.605 -22.557 -31.861  1.00 23.83 LIG-0.35  N 
ATOM     40 H    LEU B   4     -19.131 -23.207 -31.558  1.00 23.83 LIG 0.16  HD
ATOM     41 O    LEU B   3     -21.065 -21.692 -33.329  1.00 22.70 LIG-0.27  OA
BRANCH 39 42
ATOM     42  CA  LEU B   4     -19.472 -21.307 -31.122  1.00 22.91 LIG 0.18  C 
BRANCH 42 43
ATOM     43  C   LEU B   4     -18.468 -21.522 -29.985  1.00 30.74 LIG 0.24  C 
ATOM     44 O    LEU B   4     -18.583 -20.909 -28.886  1.00 30.11 LIG-0.27  OA
ATOM     45  N   LEU B   5     -17.461 -22.353 -30.218  1.00 32.41 LIG-0.35  N 
ATOM     46 H    LEU B   5     -17.368 -22.845 -30.917  1.00 32.41 LIG 0.16  HD
BRANCH 45 47
ATOM     47  CA  LEU B   5     -16.400 -22.461 -29.209  1.00 35.50 LIG 0.18  C 
BRANCH 47 48
ATOM     48  C   LEU B   5     -15.521 -21.216 -29.223  1.00 33.38 LIG 0.24  C 
ATOM     49 O    LEU B   5     -15.137 -20.682 -28.158  1.00 25.58 LIG-0.27  OA
ATOM     50  N   THR B   6     -15.218 -20.765 -30.436  1.00 32.99 LIG-0.34  N 
ATOM     51 H    THR B   6     -15.370 -21.218 -31.151  1.00 32.99 LIG 0.16  HD
BRANCH 50 52
ATOM     52  CA  THR B   6     -14.603 -19.471 -30.694  1.00 39.09 LIG 0.19  C 
BRANCH 52 53
ATOM     53  CB  THR B   6     -13.061 -19.554 -30.537  1.00 66.99 LIG 0.14  C 
ATOM     54  CG2 THR B   6     -12.365 -18.643 -31.528  1.00 64.52 LIG 0.04  C 
BRANCH 53 55
ATOM     55 OG1  THR B   6     -12.682 -19.158 -29.204  1.00 68.32 LIG-0.39  OA
ATOM     56 HG1  THR B   6     -12.763 -19.812 -28.683  1.00 68.32 LIG 0.21  HD
ENDBRANCH 53 55
ENDBRANCH 52 53
BRANCH 52 57
ATOM     57  C   THR B   6     -14.929 -19.047 -32.133  1.00 46.48 LIG 0.22  C 
ATOM     58 O    THR B   6     -15.345 -19.874 -32.959  1.00 50.47 LIG-0.29  OA
ENDBRANCH 52 57
ENDBRANCH 50 52
ENDBRANCH 47 48
BRANCH 47 59
ATOM     59  CB  LEU B   5     -15.517 -23.676 -29.465  1.00 41.25 LIG 0.04  C 
BRANCH 59 60
ATOM     60  CG  LEU B   5     -14.197 -23.770 -28.717  1.00 47.99 LIG-0.02  C 
ATOM     61  CD2 LEU B   5     -13.559 -25.111 -28.949  1.00 50.88 LIG 0.01  C 
ATOM     62  CD1 LEU B   5     -14.480 -23.577 -27.241  1.00 54.72 LIG 0.01  C 
ENDBRANCH 59 60
ENDBRANCH 47 59
ENDBRANCH 45 47
ENDBRANCH 42 43
BRANCH 42 63
ATOM     63  CB  LEU B   4     -20.820 -20.991 -30.509  1.00 23.96 LIG 0.04  C 
BRANCH 63 64
ATOM     64  CG  LEU B   4     -21.663 -22.017 -29.783  1.00 38.52 LIG-0.02  C 
ATOM     65  CD1 LEU B   4     -21.148 -22.279 -28.415  1.00 46.71 LIG 0.01  C 
ATOM     66  CD2 LEU B   4     -23.122 -21.536 -29.773  1.00 36.33 LIG 0.01  C 
ENDBRANCH 63 64
ENDBRANCH 42 63
ENDBRANCH 39 42
ENDBRANCH 1 38
TORSDOF 26
ENDMDL
MODEL 7
USER: ADFR SOLUTION from run 80
USER: SCORE 23.886282 LL:  -4.997 LR: -19.825 RR:   0.000 FEB: -12.069
USER: RMSD 4.924159
USER: SEED 79
USER: STATUS no improvement in best in 2 clusters for 5 generations
USER: GENES 28
USER: genes 0 Translation |==|  0.44035 0.52813 0.35128
USER: genes 1 Rotation |==|  0.59164 0.42407 0.51569 0.98538
USER: genes 2 Torsion [C]-CA--N-[C] |==|  0.74906
USER: genes 3 Torsion [N]-C--CA-[N] |==|  0.19132
USER: genes 4 Torsion [C]-CA--CB-[CG] |==|  0.31013
USER: genes 5 Torsion [CA]-CB--CG-[CD] |==|  0.43577
USER: genes 6 Torsion [CB]-CG--CD-[NE] |==|  0.27621
USER: genes 7 Torsion [CG]-CD--NE-[HE] |==|  0.70967
USER: genes 8 Torsion [C]-CA--N-[C] |==|  0.76430
USER: genes 9 Torsion [N]-C--CA-[N] |==|  0.25355
USER: genes 10 Torsion [C]-CA--N-[H3] |==|  0.87731
USER: genes 11 Torsion [C]-CA--CB-[CG] |==|  0.79125
USER: genes 12 Torsion [CA]-CB--CG-[ND2] |==|  0.50407
USER: genes 13 Torsion [N]-CA--CB-[CG] |==|  0.88036
USER: genes 14 Torsion [CA]-CB--CG-[CD1] |==|  0.52734
USER: genes 15 Torsion [N]-CA--C-[N] |==|  0.34654
USER: genes 16 Torsion [C]-N--CA-[CB] |==|  0.50001
USER: genes 17 Torsion [N]-CA--C-[N] |==|  0.48507
USER: genes 18 Torsion [C]-N--CA-[C] |==|  0.84839
USER: genes 19 Torsion [N]-CA--C-[N] |==|  0.92009
USER: genes 20 Torsion [C]-N--CA-[C] |==|  0.63043
USER: genes 21 Torsion [N]-CA--CB-[CG2] |==|  0.61590
USER: genes 22 Torsion [CA]-CB--OG1-[HG1] |==|  0.52888
USER: genes 23 Torsion [N]-CA--C-[O] |==|  0.20555
USER: genes 24 Torsion [N]-CA--CB-[CG] |==|  0.21273
USER: genes 25 Torsion [CA]-CB--CG-[CD2] |==|  0.63137
USER: genes 26 Torsion [N]-CA--CB-[CG] |==|  0.57105
USER: genes 27 Torsion [CA]-CB--CG-[CD1] |==|  0.00626
ROOT
ATOM      1  CA  LEU B   3     -19.578 -22.175 -31.440  1.00 17.18 LIG 0.18  C 
ENDROOT
BRANCH 1 2
ATOM      2  N   LEU B   3     -20.749 -22.899 -31.113  1.00 21.09 LIG-0.35  N 
ATOM      3  C   ARG B   2     -20.717 -24.214 -30.915  1.00 20.79 LIG 0.24  C 
ATOM      4 O    ARG B   2     -19.664 -24.885 -30.918  1.00 18.81 LIG-0.27  OA
ATOM      5 H    LEU B   3     -21.462 -22.421 -31.058  1.00 21.09 LIG 0.16  HD
BRANCH 3 6
ATOM      6  CA  ARG B   2     -22.076 -24.884 -30.757  1.00 21.42 LIG 0.18  C 
BRANCH 6 7
ATOM      7  CB  ARG B   2     -21.976 -26.320 -30.231  1.00 36.36 LIG 0.04  C 
BRANCH 7 8
ATOM      8  CG  ARG B   2     -22.532 -26.451 -28.826  1.00 41.67 LIG 0.02  C 
BRANCH 8 9
ATOM      9  CD  ARG B   2     -22.971 -27.875 -28.480  1.00 51.14 LIG 0.14  C 
BRANCH 9 10
ATOM     10  NE  ARG B   2     -21.951 -28.585 -27.687  1.00 53.41 LIG-0.23  N 
ATOM     11 HE   ARG B   2     -21.478 -29.178 -28.093  1.00 53.41 LIG 0.18  HD
ATOM     12  CZ  ARG B   2     -21.699 -28.385 -26.388  1.00 50.83 LIG 0.67  C 
ATOM     13  NH1 ARG B   2     -22.390 -27.488 -25.696  1.00 40.00 LIG-0.23  N 
ATOM     14  NH2 ARG B   2     -20.752 -29.098 -25.776  1.00 54.23 LIG-0.23  N 
ATOM     15 1HH1 ARG B   2     -23.007 -27.030 -26.082  1.00 40.00 LIG 0.17  HD
ATOM     16 2HH1 ARG B   2     -22.222 -27.365 -24.861  1.00 40.00 LIG 0.17  HD
ATOM     17 1HH2 ARG B   2     -20.304 -29.686 -26.216  1.00 54.23 LIG 0.17  HD
ATOM     18 2HH2 ARG B   2     -20.589 -28.970 -24.942  1.00 54.23 LIG 0.17  HD
ENDBRANCH 9 10
ENDBRANCH 8 9
ENDBRANCH 7 8
ENDBRANCH 6 7
BRANCH 6 19
ATOM     19  N   ARG B   2     -22.748 -24.832 -32.037  1.00 29.89 LIG-0.35  N 
ATOM     20  C   ASN B   1     -23.441 -23.758 -32.390  1.00 39.87 LIG 0.25  C 
ATOM     21 O    ASN B   1     -23.825 -22.913 -31.572  1.00 37.46 LIG-0.27  OA
ATOM     22 H    ARG B   2     -22.658 -25.537 -32.523  1.00 29.89 LIG 0.16  HD
BRANCH 20 23
ATOM     23  CA  ASN B   1     -23.753 -23.630 -33.893  1.00 47.73 LIG 0.28  C 
BRANCH 23 24
ATOM     24  N   ASN B   1     -25.007 -24.218 -34.295  1.00 51.86 LIG-0.07  N 
ATOM     25 H3   ASN B   1     -25.098 -25.015 -33.909  1.00 51.86 LIG 0.28  HD
ATOM     26 H1   ASN B   1     -25.677 -23.689 -34.045  1.00 51.86 LIG 0.28  HD
ATOM     27 H2   ASN B   1     -25.019 -24.314 -35.180  1.00 51.86 LIG 0.28  HD
ENDBRANCH 23 24
BRANCH 23 28
ATOM     28  CB  ASN B   1     -23.745 -22.192 -34.370  1.00 49.79 LIG 0.14  C 
BRANCH 28 29
ATOM     29  CG  ASN B   1     -24.987 -21.459 -33.925  1.00 59.47 LIG 0.22  C 
ATOM     30  ND2 ASN B   1     -25.108 -20.184 -34.314  1.00 63.81 LIG-0.37  N 
ATOM     31 21HD ASN B   1     -25.788 -19.721 -34.065  1.00 63.81 LIG 0.16  HD
ATOM     32 22HD ASN B   1     -24.505 -19.829 -34.814  1.00 63.81 LIG 0.16  HD
ATOM     33 OD1  ASN B   1     -25.818 -22.015 -33.212  1.00 60.25 LIG-0.27  OA
ENDBRANCH 28 29
ENDBRANCH 23 28
ENDBRANCH 20 23
ENDBRANCH 6 19
ENDBRANCH 3 6
ENDBRANCH 1 2
BRANCH 1 34
ATOM     34  CB  LEU B   3     -19.927 -21.022 -32.423  1.00 28.79 LIG 0.04  C 
BRANCH 34 35
ATOM     35  CG  LEU B   3     -20.896 -21.492 -33.514  1.00 33.15 LIG-0.02  C 
ATOM     36  CD2 LEU B   3     -20.411 -22.821 -34.077  1.00 30.13 LIG 0.01  C 
ATOM     37  CD1 LEU B   3     -21.102 -20.467 -34.669  1.00 27.67 LIG 0.01  C 
ENDBRANCH 34 35
ENDBRANCH 1 34
BRANCH 1 38
ATOM     38  C   LEU B   3     -18.863 -21.665 -30.208  1.00 20.33 LIG 0.24  C 
ATOM     39  N   LEU B   4     -17.586 -22.016 -30.093  1.00 23.83 LIG-0.35  N 
ATOM     40 H    LEU B   4     -17.164 -22.501 -30.664  1.00 23.83 LIG 0.16  HD
ATOM     41 O    LEU B   3     -19.433 -20.963 -29.378  1.00 22.70 LIG-0.27  OA
BRANCH 39 42
ATOM     42  CA  LEU B   4     -16.791 -21.587 -28.949  1.00 22.91 LIG 0.18  C 
BRANCH 42 43
ATOM     43  C   LEU B   4     -16.693 -20.058 -28.974  1.00 30.74 LIG 0.24  C 
ATOM     44 O    LEU B   4     -17.137 -19.390 -29.951  1.00 30.11 LIG-0.27  OA
ATOM     45  N   LEU B   5     -16.096 -19.475 -27.944  1.00 32.41 LIG-0.35  N 
ATOM     46 H    LEU B   5     -15.835 -19.869 -27.226  1.00 32.41 LIG 0.16  HD
BRANCH 45 47
ATOM     47  CA  LEU B   5     -15.847 -18.029 -28.011  1.00 35.50 LIG 0.18  C 
BRANCH 47 48
ATOM     48  C   LEU B   5     -15.068 -17.678 -29.273  1.00 33.38 LIG 0.24  C 
ATOM     49 O    LEU B   5     -15.193 -16.561 -29.822  1.00 25.58 LIG-0.27  OA
ATOM     50  N   THR B   6     -14.274 -18.646 -29.720  1.00 32.99 LIG-0.34  N 
ATOM     51 H    THR B   6     -14.092 -19.349 -29.258  1.00 32.99 LIG 0.16  HD
BRANCH 50 52
ATOM     52  CA  THR B   6     -13.627 -18.631 -31.024  1.00 39.09 LIG 0.19  C 
BRANCH 52 53
ATOM     53  CB  THR B   6     -12.103 -18.371 -30.879  1.00 66.99 LIG 0.14  C 
ATOM     54  CG2 THR B   6     -11.613 -17.408 -31.942  1.00 64.52 LIG 0.04  C 
BRANCH 53 55
ATOM     55 OG1  THR B   6     -11.825 -17.806 -29.583  1.00 68.32 LIG-0.39  OA
ATOM     56 HG1  THR B   6     -11.030 -17.536 -29.559  1.00 68.32 LIG 0.21  HD
ENDBRANCH 53 55
ENDBRANCH 52 53
BRANCH 52 57
ATOM     57  C   THR B   6     -13.831 -19.999 -31.692  1.00 46.48 LIG 0.22  C 
ATOM     58 O    THR B   6     -14.934 -20.319 -32.160  1.00 50.47 LIG-0.29  OA
ENDBRANCH 52 57
ENDBRANCH 50 52
ENDBRANCH 47 48
BRANCH 47 59
ATOM     59  CB  LEU B   5     -15.049 -17.551 -26.805  1.00 41.25 LIG 0.04  C 
BRANCH 59 60
ATOM     60  CG  LEU B   5     -13.557 -17.839 -26.776  1.00 47.99 LIG-0.02  C 
ATOM     61  CD2 LEU B   5     -13.159 -18.402 -25.440  1.00 50.88 LIG 0.01  C 
ATOM     62  CD1 LEU B   5     -12.823 -16.539 -27.033  1.00 54.72 LIG 0.01  C 
ENDBRANCH 59 60
ENDBRANCH 47 59
ENDBRANCH 45 47
ENDBRANCH 42 43
BRANCH 42 63
ATOM     63  CB  LEU B   4     -15.396 -22.152 -29.123  1.00 23.96 LIG 0.04  C 
BRANCH 63 64
ATOM     64  CG  LEU B   4     -14.461 -22.423 -27.965  1.00 38.52 LIG-0.02  C 
ATOM     65  CD1 LEU B   4     -15.101 -22.119 -26.661  1.00 46.71 LIG 0.01  C 
ATOM     66  CD2 LEU B   4     -13.981 -23.881 -28.052  1.00 36.33 LIG 0.01  C 
ENDBRANCH 63 64
ENDBRANCH 42 63
ENDBRANCH 39 42
ENDBRANCH 1 38
TORSDOF 26
ENDMDL
MODEL 8
USER: ADFR SOLUTION from run 118
USER: SCORE 23.065037 LL:  -4.407 LR: -19.726 RR:   0.000 FEB: -11.970
USER: RMSD 12.353538
USER: SEED 117
USER: STATUS no improvement in best in 18 clusters for 5 generations
USER: GENES 28
USER: genes 0 Translation |==|  0.57799 0.54990 0.42719
USER: genes 1 Rotation |==|  0.31876 0.85584 0.79038 0.57881
USER: genes 2 Torsion [C]-CA--N-[C] |==|  0.73532
USER: genes 3 Torsion [N]-C--CA-[N] |==|  0.05870
USER: genes 4 Torsion [C]-CA--CB-[CG] |==|  0.29161
USER: genes 5 Torsion [CA]-CB--CG-[CD] |==|  0.30921
USER: genes 6 Torsion [CB]-CG--CD-[NE] |==|  0.11113
USER: genes 7 Torsion [CG]-CD--NE-[HE] |==|  0.70674
USER: genes 8 Torsion [C]-CA--N-[C] |==|  0.69840
USER: genes 9 Torsion [N]-C--CA-[N] |==|  0.92203
USER: genes 10 Torsion [C]-CA--N-[H3] |==|  0.83324
USER: genes 11 Torsion [C]-CA--CB-[CG] |==|  0.14363
USER: genes 12 Torsion [CA]-CB--CG-[ND2] |==|  0.27749
USER: genes 13 Torsion [N]-CA--CB-[CG] |==|  0.76787
USER: genes 14 Torsion [CA]-CB--CG-[CD1] |==|  0.90120
USER: genes 15 Torsion [N]-CA--C-[N] |==|  0.35570
USER: genes 16 Torsion [C]-N--CA-[CB] |==|  0.51189
USER: genes 17 Torsion [N]-CA--C-[N] |==|  0.43650
USER: genes 18 Torsion [C]-N--CA-[C] |==|  0.53901
USER: genes 19 Torsion [N]-CA--C-[N] |==|  0.51035
USER: genes 20 Torsion [C]-N--CA-[C] |==|  0.66911
USER: genes 21 Torsion [N]-CA--CB-[CG2] |==|  0.14303
USER: genes 22 Torsion [CA]-CB--OG1-[HG1] |==|  0.07890
USER: genes 23 Torsion [N]-CA--C-[O] |==|  0.05411
USER: genes 24 Torsion [N]-CA--CB-[CG] |==|  0.63894
USER: genes 25 Torsion [CA]-CB--CG-[CD2] |==|  0.02128
USER: genes 26 Torsion [N]-CA--CB-[CG] |==|  0.53458
USER: genes 27 Torsion [CA]-CB--CG-[CD1] |==|  0.14643
ROOT
ATOM      1  CA  LEU B   3     -16.172 -21.636 -29.846  1.00 17.18 LIG 0.18  C 
ENDROOT
BRANCH 1 2
ATOM      2  N   LEU B   3     -15.349 -20.490 -29.736  1.00 21.09 LIG-0.35  N 
ATOM      3  C   ARG B   2     -14.648 -20.039 -30.772  1.00 20.79 LIG 0.24  C 
ATOM      4 O    ARG B   2     -14.722 -20.528 -31.919  1.00 18.81 LIG-0.27  OA
ATOM      5 H    LEU B   3     -15.347 -20.125 -28.957  1.00 21.09 LIG 0.16  HD
BRANCH 3 6
ATOM      6  CA  ARG B   2     -13.668 -18.916 -30.458  1.00 21.42 LIG 0.18  C 
BRANCH 6 7
ATOM      7  CB  ARG B   2     -12.383 -18.994 -31.289  1.00 36.36 LIG 0.04  C 
BRANCH 7 8
ATOM      8  CG  ARG B   2     -12.355 -17.955 -32.394  1.00 41.67 LIG 0.02  C 
BRANCH 8 9
ATOM      9  CD  ARG B   2     -11.309 -16.862 -32.170  1.00 51.14 LIG 0.14  C 
BRANCH 9 10
ATOM     10  NE  ARG B   2     -10.051 -17.410 -31.629  1.00 53.41 LIG-0.23  N 
ATOM     11 HE   ARG B   2      -9.885 -17.268 -30.797  1.00 53.41 LIG 0.18  HD
ATOM     12  CZ  ARG B   2      -9.147 -18.110 -32.324  1.00 50.83 LIG 0.67  C 
ATOM     13  NH1 ARG B   2      -9.335 -18.366 -33.613  1.00 40.00 LIG-0.23  N 
ATOM     14  NH2 ARG B   2      -8.039 -18.548 -31.723  1.00 54.23 LIG-0.23  N 
ATOM     15 1HH1 ARG B   2     -10.043 -18.080 -34.009  1.00 40.00 LIG 0.17  HD
ATOM     16 2HH1 ARG B   2      -8.749 -18.817 -34.052  1.00 40.00 LIG 0.17  HD
ATOM     17 1HH2 ARG B   2      -7.907 -18.380 -30.890  1.00 54.23 LIG 0.17  HD
ATOM     18 2HH2 ARG B   2      -7.458 -18.998 -32.168  1.00 54.23 LIG 0.17  HD
ENDBRANCH 9 10
ENDBRANCH 8 9
ENDBRANCH 7 8
ENDBRANCH 6 7
BRANCH 6 19
ATOM     19  N   ARG B   2     -13.386 -18.956 -29.040  1.00 29.89 LIG-0.35  N 
ATOM     20  C   ASN B   1     -13.861 -18.018 -28.232  1.00 39.87 LIG 0.25  C 
ATOM     21 O    ASN B   1     -14.267 -16.924 -28.646  1.00 37.46 LIG-0.27  OA
ATOM     22 H    ARG B   2     -12.901 -19.620 -28.785  1.00 29.89 LIG 0.16  HD
BRANCH 20 23
ATOM     23  CA  ASN B   1     -13.866 -18.367 -26.733  1.00 47.73 LIG 0.28  C 
BRANCH 23 24
ATOM     24  N   ASN B   1     -13.977 -19.777 -26.447  1.00 51.86 LIG-0.07  N 
ATOM     25 H3   ASN B   1     -14.737 -20.090 -26.788  1.00 51.86 LIG 0.28  HD
ATOM     26 H1   ASN B   1     -13.289 -20.208 -26.812  1.00 51.86 LIG 0.28  HD
ATOM     27 H2   ASN B   1     -13.973 -19.902 -25.566  1.00 51.86 LIG 0.28  HD
ENDBRANCH 23 24
BRANCH 23 28
ATOM     28  CB  ASN B   1     -12.643 -17.845 -26.007  1.00 49.79 LIG 0.14  C 
BRANCH 28 29
ATOM     29  CG  ASN B   1     -12.434 -16.373 -26.272  1.00 59.47 LIG 0.22  C 
ATOM     30  ND2 ASN B   1     -12.850 -15.525 -25.324  1.00 63.81 LIG-0.37  N 
ATOM     31 21HD ASN B   1     -12.772 -14.677 -25.443  1.00 63.81 LIG 0.16  HD
ATOM     32 22HD ASN B   1     -13.194 -15.828 -24.597  1.00 63.81 LIG 0.16  HD
ATOM     33 OD1  ASN B   1     -11.936 -15.995 -27.328  1.00 60.25 LIG-0.27  OA
ENDBRANCH 28 29
ENDBRANCH 23 28
ENDBRANCH 20 23
ENDBRANCH 6 19
ENDBRANCH 3 6
ENDBRANCH 1 2
BRANCH 1 34
ATOM     34  CB  LEU B   3     -16.046 -22.502 -28.561  1.00 28.79 LIG 0.04  C 
BRANCH 34 35
ATOM     35  CG  LEU B   3     -14.823 -23.423 -28.626  1.00 33.15 LIG-0.02  C 
ATOM     36  CD2 LEU B   3     -13.609 -22.684 -28.079  1.00 30.13 LIG 0.01  C 
ATOM     37  CD1 LEU B   3     -14.514 -23.976 -30.049  1.00 27.67 LIG 0.01  C 
ENDBRANCH 34 35
ENDBRANCH 1 34
BRANCH 1 38
ATOM     38  C   LEU B   3     -17.611 -21.276 -30.142  1.00 20.33 LIG 0.24  C 
ATOM     39  N   LEU B   4     -18.160 -21.895 -31.182  1.00 23.83 LIG-0.35  N 
ATOM     40 H    LEU B   4     -17.752 -22.468 -31.676  1.00 23.83 LIG 0.16  HD
ATOM     41 O    LEU B   3     -18.228 -20.469 -29.452  1.00 22.70 LIG-0.27  OA
BRANCH 39 42
ATOM     42  CA  LEU B   4     -19.542 -21.631 -31.568  1.00 22.91 LIG 0.18  C 
BRANCH 42 43
ATOM     43  C   LEU B   4     -20.449 -21.974 -30.382  1.00 30.74 LIG 0.24  C 
ATOM     44 O    LEU B   4     -20.086 -22.801 -29.498  1.00 30.11 LIG-0.27  OA
ATOM     45  N   LEU B   5     -21.639 -21.390 -30.344  1.00 32.41 LIG-0.35  N 
ATOM     46 H    LEU B   5     -21.913 -20.774 -30.878  1.00 32.41 LIG 0.16  HD
BRANCH 45 47
ATOM     47  CA  LEU B   5     -22.590 -21.815 -29.309  1.00 35.50 LIG 0.18  C 
BRANCH 47 48
ATOM     48  C   LEU B   5     -23.990 -21.303 -29.627  1.00 33.38 LIG 0.24  C 
ATOM     49 O    LEU B   5     -24.226 -20.675 -30.683  1.00 25.58 LIG-0.27  OA
ATOM     50  N   THR B   6     -24.902 -21.577 -28.700  1.00 32.99 LIG-0.34  N 
ATOM     51 H    THR B   6     -24.759 -22.125 -28.054  1.00 32.99 LIG 0.16  HD
BRANCH 50 52
ATOM     52  CA  THR B   6     -26.234 -20.987 -28.670  1.00 39.09 LIG 0.19  C 
BRANCH 52 53
ATOM     53  CB  THR B   6     -27.325 -22.091 -28.725  1.00 66.99 LIG 0.14  C 
ATOM     54  CG2 THR B   6     -27.078 -23.150 -27.668  1.00 64.52 LIG 0.04  C 
BRANCH 53 55
ATOM     55 OG1  THR B   6     -28.622 -21.508 -28.496  1.00 68.32 LIG-0.39  OA
ATOM     56 HG1  THR B   6     -28.621 -20.709 -28.756  1.00 68.32 LIG 0.21  HD
ENDBRANCH 53 55
ENDBRANCH 52 53
BRANCH 52 57
ATOM     57  C   THR B   6     -26.396 -20.201 -27.361  1.00 46.48 LIG 0.22  C 
ATOM     58 O    THR B   6     -25.403 -19.839 -26.711  1.00 50.47 LIG-0.29  OA
ENDBRANCH 52 57
ENDBRANCH 50 52
ENDBRANCH 47 48
BRANCH 47 59
ATOM     59  CB  LEU B   5     -22.185 -21.288 -27.938  1.00 41.25 LIG 0.04  C 
BRANCH 59 60
ATOM     60  CG  LEU B   5     -22.127 -22.274 -26.783  1.00 47.99 LIG-0.02  C 
ATOM     61  CD2 LEU B   5     -22.319 -23.678 -27.285  1.00 50.88 LIG 0.01  C 
ATOM     62  CD1 LEU B   5     -23.226 -21.915 -25.805  1.00 54.72 LIG 0.01  C 
ENDBRANCH 59 60
ENDBRANCH 47 59
ENDBRANCH 45 47
ENDBRANCH 42 43
BRANCH 42 63
ATOM     63  CB  LEU B   4     -19.885 -22.565 -32.711  1.00 23.96 LIG 0.04  C 
BRANCH 63 64
ATOM     64  CG  LEU B   4     -21.126 -22.413 -33.562  1.00 38.52 LIG-0.02  C 
ATOM     65  CD1 LEU B   4     -21.244 -21.042 -34.119  1.00 46.71 LIG 0.01  C 
ATOM     66  CD2 LEU B   4     -21.103 -23.487 -34.661  1.00 36.33 LIG 0.01  C 
ENDBRANCH 63 64
ENDBRANCH 42 63
ENDBRANCH 39 42
ENDBRANCH 1 38
TORSDOF 26
ENDMDL
MODEL 9
USER: ADFR SOLUTION from run 22
USER: SCORE 22.821229 LL:  -5.086 LR: -19.657 RR:   0.000 FEB: -11.901
USER: RMSD 6.052764
USER: SEED 21
USER: STATUS no improvement in best in 10 clusters for 5 generations
USER: GENES 28
USER: genes 0 Translation |==|  0.43985 0.51967 0.36530
USER: genes 1 Rotation |==|  0.59243 0.49478 0.50904 0.99127
USER: genes 2 Torsion [C]-CA--N-[C] |==|  0.80976
USER: genes 3 Torsion [N]-C--CA-[N] |==|  0.86681
USER: genes 4 Torsion [C]-CA--CB-[CG] |==|  0.11799
USER: genes 5 Torsion [CA]-CB--CG-[CD] |==|  0.75694
USER: genes 6 Torsion [CB]-CG--CD-[NE] |==|  0.70416
USER: genes 7 Torsion [CG]-CD--NE-[HE] |==|  0.01778
USER: genes 8 Torsion [C]-CA--N-[C] |==|  0.74450
USER: genes 9 Torsion [N]-C--CA-[N] |==|  0.61239
USER: genes 10 Torsion [C]-CA--N-[H3] |==|  0.08787
USER: genes 11 Torsion [C]-CA--CB-[CG] |==|  0.74218
USER: genes 12 Torsion [CA]-CB--CG-[ND2] |==|  0.68075
USER: genes 13 Torsion [N]-CA--CB-[CG] |==|  0.84108
USER: genes 14 Torsion [CA]-CB--CG-[CD1] |==|  0.25112
USER: genes 15 Torsion [N]-CA--C-[N] |==|  0.28341
USER: genes 16 Torsion [C]-N--CA-[CB] |==|  0.51614
USER: genes 17 Torsion [N]-CA--C-[N] |==|  0.39168
USER: genes 18 Torsion [C]-N--CA-[C] |==|  0.65530
USER: genes 19 Torsion [N]-CA--C-[N] |==|  0.76974
USER: genes 20 Torsion [C]-N--CA-[C] |==|  0.66159
USER: genes 21 Torsion [N]-CA--CB-[CG2] |==|  0.62361
USER: genes 22 Torsion [CA]-CB--OG1-[HG1] |==|  0.72372
USER: genes 23 Torsion [N]-CA--C-[O] |==|  0.19688
USER: genes 24 Torsion [N]-CA--CB-[CG] |==|  0.60551
USER: genes 25 Torsion [CA]-CB--CG-[CD2] |==|  0.51380
USER: genes 26 Torsion [N]-CA--CB-[CG] |==|  0.56899
USER: genes 27 Torsion [CA]-CB--CG-[CD1] |==|  0.00118
ROOT
ATOM      1  CA  LEU B   3     -19.591 -22.384 -31.146  1.00 17.18 LIG 0.18  C 
ENDROOT
BRANCH 1 2
ATOM      2  N   LEU B   3     -20.603 -23.134 -30.502  1.00 21.09 LIG-0.35  N 
ATOM      3  C   ARG B   2     -20.341 -24.308 -29.935  1.00 20.79 LIG 0.24  C 
ATOM      4 O    ARG B   2     -19.193 -24.792 -29.853  1.00 18.81 LIG-0.27  OA
ATOM      5 H    LEU B   3     -21.382 -22.768 -30.514  1.00 21.09 LIG 0.16  HD
BRANCH 3 6
ATOM      6  CA  ARG B   2     -21.558 -25.084 -29.448  1.00 21.42 LIG 0.18  C 
BRANCH 6 7
ATOM      7  CB  ARG B   2     -22.340 -25.745 -30.588  1.00 36.36 LIG 0.04  C 
BRANCH 7 8
ATOM      8  CG  ARG B   2     -21.423 -26.387 -31.612  1.00 41.67 LIG 0.02  C 
BRANCH 8 9
ATOM      9  CD  ARG B   2     -20.972 -25.421 -32.709  1.00 51.14 LIG 0.14  C 
BRANCH 9 10
ATOM     10  NE  ARG B   2     -21.645 -25.696 -33.992  1.00 53.41 LIG-0.23  N 
ATOM     11 HE   ARG B   2     -22.268 -26.289 -33.990  1.00 53.41 LIG 0.18  HD
ATOM     12  CZ  ARG B   2     -21.368 -25.100 -35.157  1.00 50.83 LIG 0.67  C 
ATOM     13  NH1 ARG B   2     -20.418 -24.178 -35.236  1.00 40.00 LIG-0.23  N 
ATOM     14  NH2 ARG B   2     -22.045 -25.442 -36.256  1.00 54.23 LIG-0.23  N 
ATOM     15 1HH1 ARG B   2     -19.973 -23.958 -34.534  1.00 40.00 LIG 0.17  HD
ATOM     16 2HH1 ARG B   2     -20.246 -23.800 -35.989  1.00 40.00 LIG 0.17  HD
ATOM     17 1HH2 ARG B   2     -22.657 -26.044 -36.214  1.00 54.23 LIG 0.17  HD
ATOM     18 2HH2 ARG B   2     -21.868 -25.060 -37.005  1.00 54.23 LIG 0.17  HD
ENDBRANCH 9 10
ENDBRANCH 8 9
ENDBRANCH 7 8
ENDBRANCH 6 7
BRANCH 6 19
ATOM     19  N   ARG B   2     -22.390 -24.176 -28.690  1.00 29.89 LIG-0.35  N 
ATOM     20  C   ASN B   1     -22.242 -24.064 -27.377  1.00 39.87 LIG 0.25  C 
ATOM     21 O    ASN B   1     -21.657 -24.917 -26.697  1.00 37.46 LIG-0.27  OA
ATOM     22 H    ARG B   2     -22.965 -23.736 -29.155  1.00 29.89 LIG 0.16  HD
BRANCH 20 23
ATOM     23  CA  ASN B   1     -22.857 -22.805 -26.740  1.00 47.73 LIG 0.28  C 
BRANCH 23 24
ATOM     24  N   ASN B   1     -22.048 -22.197 -25.713  1.00 51.86 LIG-0.07  N 
ATOM     25 H3   ASN B   1     -21.187 -22.327 -25.897  1.00 51.86 LIG 0.28  HD
ATOM     26 H1   ASN B   1     -22.216 -21.324 -25.681  1.00 51.86 LIG 0.28  HD
ATOM     27 H2   ASN B   1     -22.242 -22.565 -24.926  1.00 51.86 LIG 0.28  HD
ENDBRANCH 23 24
BRANCH 23 28
ATOM     28  CB  ASN B   1     -23.185 -21.734 -27.761  1.00 49.79 LIG 0.14  C 
BRANCH 28 29
ATOM     29  CG  ASN B   1     -22.042 -20.759 -27.920  1.00 59.47 LIG 0.22  C 
ATOM     30  ND2 ASN B   1     -22.271 -19.496 -27.544  1.00 63.81 LIG-0.37  N 
ATOM     31 21HD ASN B   1     -21.656 -18.902 -27.638  1.00 63.81 LIG 0.16  HD
ATOM     32 22HD ASN B   1     -23.032 -19.279 -27.208  1.00 63.81 LIG 0.16  HD
ATOM     33 OD1  ASN B   1     -20.975 -21.124 -28.405  1.00 60.25 LIG-0.27  OA
ENDBRANCH 28 29
ENDBRANCH 23 28
ENDBRANCH 20 23
ENDBRANCH 6 19
ENDBRANCH 3 6
ENDBRANCH 1 2
BRANCH 1 34
ATOM     34  CB  LEU B   3     -20.231 -21.250 -31.994  1.00 28.79 LIG 0.04  C 
BRANCH 34 35
ATOM     35  CG  LEU B   3     -21.219 -21.811 -33.023  1.00 33.15 LIG-0.02  C 
ATOM     36  CD2 LEU B   3     -21.172 -20.955 -34.282  1.00 30.13 LIG 0.01  C 
ATOM     37  CD1 LEU B   3     -22.684 -21.921 -32.508  1.00 27.67 LIG 0.01  C 
ENDBRANCH 34 35
ENDBRANCH 1 34
BRANCH 1 38
ATOM     38  C   LEU B   3     -18.573 -21.845 -30.165  1.00 20.33 LIG 0.24  C 
ATOM     39  N   LEU B   4     -17.420 -22.504 -30.106  1.00 23.83 LIG-0.35  N 
ATOM     40 H    LEU B   4     -17.233 -23.196 -30.581  1.00 23.83 LIG 0.16  HD
ATOM     41 O    LEU B   3     -18.803 -20.853 -29.479  1.00 22.70 LIG-0.27  OA
BRANCH 39 42
ATOM     42  CA  LEU B   4     -16.360 -22.081 -29.198  1.00 22.91 LIG 0.18  C 
BRANCH 42 43
ATOM     43  C   LEU B   4     -16.000 -20.627 -29.520  1.00 30.74 LIG 0.24  C 
ATOM     44 O    LEU B   4     -15.927 -20.220 -30.714  1.00 30.11 LIG-0.27  OA
ATOM     45  N   LEU B   5     -15.737 -19.829 -28.494  1.00 32.41 LIG-0.35  N 
ATOM     46 H    LEU B   5     -15.833 -20.031 -27.664  1.00 32.41 LIG 0.16  HD
BRANCH 45 47
ATOM     47  CA  LEU B   5     -15.237 -18.477 -28.773  1.00 35.50 LIG 0.18  C 
BRANCH 47 48
ATOM     48  C   LEU B   5     -13.911 -18.239 -28.060  1.00 33.38 LIG 0.24  C 
ATOM     49 O    LEU B   5     -12.820 -18.389 -28.654  1.00 25.58 LIG-0.27  OA
ATOM     50  N   THR B   6     -14.026 -17.875 -26.787  1.00 32.99 LIG-0.34  N 
ATOM     51 H    THR B   6     -14.775 -17.641 -26.436  1.00 32.99 LIG 0.16  HD
BRANCH 50 52
ATOM     52  CA  THR B   6     -12.911 -17.829 -25.850  1.00 39.09 LIG 0.19  C 
BRANCH 52 53
ATOM     53  CB  THR B   6     -12.701 -16.386 -25.317  1.00 66.99 LIG 0.14  C 
ATOM     54  CG2 THR B   6     -11.230 -16.017 -25.317  1.00 64.52 LIG 0.04  C 
BRANCH 53 55
ATOM     55 OG1  THR B   6     -13.410 -15.449 -26.150  1.00 68.32 LIG-0.39  OA
ATOM     56 HG1  THR B   6     -12.875 -15.093 -26.691  1.00 68.32 LIG 0.21  HD
ENDBRANCH 53 55
ENDBRANCH 52 53
BRANCH 52 57
ATOM     57  C   THR B   6     -13.227 -18.751 -24.663  1.00 46.48 LIG 0.22  C 
ATOM     58 O    THR B   6     -13.228 -19.984 -24.799  1.00 50.47 LIG-0.29  OA
ENDBRANCH 52 57
ENDBRANCH 50 52
ENDBRANCH 47 48
BRANCH 47 59
ATOM     59  CB  LEU B   5     -16.228 -17.416 -28.312  1.00 41.25 LIG 0.04  C 
BRANCH 59 60
ATOM     60  CG  LEU B   5     -16.404 -16.179 -29.177  1.00 47.99 LIG-0.02  C 
ATOM     61  CD2 LEU B   5     -17.325 -15.198 -28.506  1.00 50.88 LIG 0.01  C 
ATOM     62  CD1 LEU B   5     -16.986 -16.614 -30.506  1.00 54.72 LIG 0.01  C 
ENDBRANCH 59 60
ENDBRANCH 47 59
ENDBRANCH 45 47
ENDBRANCH 42 43
BRANCH 42 63
ATOM     63  CB  LEU B   4     -15.145 -22.942 -29.479  1.00 23.96 LIG 0.04  C 
BRANCH 63 64
ATOM     64  CG  LEU B   4     -14.064 -23.210 -28.455  1.00 38.52 LIG-0.02  C 
ATOM     65  CD1 LEU B   4     -14.354 -22.538 -27.163  1.00 46.71 LIG 0.01  C 
ATOM     66  CD2 LEU B   4     -13.904 -24.730 -28.296  1.00 36.33 LIG 0.01  C 
ENDBRANCH 63 64
ENDBRANCH 42 63
ENDBRANCH 39 42
ENDBRANCH 1 38
TORSDOF 26
ENDMDL
MODEL 10
USER: ADFR SOLUTION from run 117
USER: SCORE 23.557251 LL:  -4.842 LR: -19.575 RR:   0.000 FEB: -11.819
USER: RMSD 11.781149
USER: SEED 116
USER: STATUS no improvement in best in 6 clusters for 5 generations
USER: GENES 28
USER: genes 0 Translation |==|  0.58330 0.55303 0.43222
USER: genes 1 Rotation |==|  0.31244 0.86720 0.77128 0.57994
USER: genes 2 Torsion [C]-CA--N-[C] |==|  0.74408
USER: genes 3 Torsion [N]-C--CA-[N] |==|  0.05524
USER: genes 4 Torsion [C]-CA--CB-[CG] |==|  0.30796
USER: genes 5 Torsion [CA]-CB--CG-[CD] |==|  0.37047
USER: genes 6 Torsion [CB]-CG--CD-[NE] |==|  0.85005
USER: genes 7 Torsion [CG]-CD--NE-[HE] |==|  0.30037
USER: genes 8 Torsion [C]-CA--N-[C] |==|  0.68520
USER: genes 9 Torsion [N]-C--CA-[N] |==|  0.91610
USER: genes 10 Torsion [C]-CA--N-[H3] |==|  0.16854
USER: genes 11 Torsion [C]-CA--CB-[CG] |==|  0.17982
USER: genes 12 Torsion [CA]-CB--CG-[ND2] |==|  0.27107
USER: genes 13 Torsion [N]-CA--CB-[CG] |==|  0.76971
USER: genes 14 Torsion [CA]-CB--CG-[CD1] |==|  0.87821
USER: genes 15 Torsion [N]-CA--C-[N] |==|  0.32779
USER: genes 16 Torsion [C]-N--CA-[CB] |==|  0.53333
USER: genes 17 Torsion [N]-CA--C-[N] |==|  0.38200
USER: genes 18 Torsion [C]-N--CA-[C] |==|  0.65019
USER: genes 19 Torsion [N]-CA--C-[N] |==|  0.04871
USER: genes 20 Torsion [C]-N--CA-[C] |==|  0.82905
USER: genes 21 Torsion [N]-CA--CB-[CG2] |==|  0.33093
USER: genes 22 Torsion [CA]-CB--OG1-[HG1] |==|  0.00971
USER: genes 23 Torsion [N]-CA--C-[O] |==|  0.95812
USER: genes 24 Torsion [N]-CA--CB-[CG] |==|  0.59269
USER: genes 25 Torsion [CA]-CB--CG-[CD2] |==|  0.03677
USER: genes 26 Torsion [N]-CA--CB-[CG] |==|  0.48114
USER: genes 27 Torsion [CA]-CB--CG-[CD1] |==|  0.20979
ROOT
ATOM      1  CA  LEU B   3     -16.040 -21.558 -29.740  1.00 17.18 LIG 0.18  C 
ENDROOT
BRANCH 1 2
ATOM      2  N   LEU B   3     -15.205 -20.417 -29.694  1.00 21.09 LIG-0.35  N 
ATOM      3  C   ARG B   2     -14.506 -20.026 -30.756  1.00 20.79 LIG 0.24  C 
ATOM      4 O    ARG B   2     -14.592 -20.572 -31.875  1.00 18.81 LIG-0.27  OA
ATOM      5 H    LEU B   3     -15.194 -20.013 -28.935  1.00 21.09 LIG 0.16  HD
BRANCH 3 6
ATOM      6  CA  ARG B   2     -13.514 -18.899 -30.505  1.00 21.42 LIG 0.18  C 
BRANCH 6 7
ATOM      7  CB  ARG B   2     -12.222 -19.049 -31.316  1.00 36.36 LIG 0.04  C 
BRANCH 7 8
ATOM      8  CG  ARG B   2     -12.102 -17.991 -32.396  1.00 41.67 LIG 0.02  C 
BRANCH 8 9
ATOM      9  CD  ARG B   2     -10.725 -17.328 -32.444  1.00 51.14 LIG 0.14  C 
BRANCH 9 10
ATOM     10  NE  ARG B   2     -10.334 -16.781 -31.131  1.00 53.41 LIG-0.23  N 
ATOM     11 HE   ARG B   2      -9.714 -17.192 -30.701  1.00 53.41 LIG 0.18  HD
ATOM     12  CZ  ARG B   2     -10.865 -15.697 -30.553  1.00 50.83 LIG 0.67  C 
ATOM     13  NH1 ARG B   2     -11.829 -15.013 -31.156  1.00 40.00 LIG-0.23  N 
ATOM     14  NH2 ARG B   2     -10.432 -15.303 -29.354  1.00 54.23 LIG-0.23  N 
ATOM     15 1HH1 ARG B   2     -12.118 -15.265 -31.926  1.00 40.00 LIG 0.17  HD
ATOM     16 2HH1 ARG B   2     -12.165 -14.317 -30.777  1.00 40.00 LIG 0.17  HD
ATOM     17 1HH2 ARG B   2      -9.813 -15.746 -28.954  1.00 54.23 LIG 0.17  HD
ATOM     18 2HH2 ARG B   2     -10.772 -14.607 -28.982  1.00 54.23 LIG 0.17  HD
ENDBRANCH 9 10
ENDBRANCH 8 9
ENDBRANCH 7 8
ENDBRANCH 6 7
BRANCH 6 19
ATOM     19  N   ARG B   2     -13.245 -18.851 -29.084  1.00 29.89 LIG-0.35  N 
ATOM     20  C   ASN B   1     -13.634 -17.809 -28.361  1.00 39.87 LIG 0.25  C 
ATOM     21 O    ASN B   1     -13.930 -16.719 -28.867  1.00 37.46 LIG-0.27  OA
ATOM     22 H    ARG B   2     -12.828 -19.534 -28.770  1.00 29.89 LIG 0.16  HD
BRANCH 20 23
ATOM     23  CA  ASN B   1     -13.682 -18.034 -26.838  1.00 47.73 LIG 0.28  C 
BRANCH 23 24
ATOM     24  N   ASN B   1     -13.977 -19.389 -26.443  1.00 51.86 LIG-0.07  N 
ATOM     25 H3   ASN B   1     -13.347 -19.934 -26.757  1.00 51.86 LIG 0.28  HD
ATOM     26 H1   ASN B   1     -13.998 -19.441 -25.555  1.00 51.86 LIG 0.28  HD
ATOM     27 H2   ASN B   1     -14.768 -19.629 -26.773  1.00 51.86 LIG 0.28  HD
ENDBRANCH 23 24
BRANCH 23 28
ATOM     28  CB  ASN B   1     -12.399 -17.621 -26.146  1.00 49.79 LIG 0.14  C 
BRANCH 28 29
ATOM     29  CG  ASN B   1     -12.165 -16.134 -26.265  1.00 59.47 LIG 0.22  C 
ATOM     30  ND2 ASN B   1     -12.537 -15.379 -25.225  1.00 63.81 LIG-0.37  N 
ATOM     31 21HD ASN B   1     -12.443 -14.525 -25.259  1.00 63.81 LIG 0.16  HD
ATOM     32 22HD ASN B   1     -12.869 -15.749 -24.523  1.00 63.81 LIG 0.16  HD
ATOM     33 OD1  ASN B   1     -11.686 -15.659 -27.291  1.00 60.25 LIG-0.27  OA
ENDBRANCH 28 29
ENDBRANCH 23 28
ENDBRANCH 20 23
ENDBRANCH 6 19
ENDBRANCH 3 6
ENDBRANCH 1 2
BRANCH 1 34
ATOM     34  CB  LEU B   3     -15.976 -22.316 -28.385  1.00 28.79 LIG 0.04  C 
BRANCH 34 35
ATOM     35  CG  LEU B   3     -14.756 -23.241 -28.318  1.00 33.15 LIG-0.02  C 
ATOM     36  CD2 LEU B   3     -13.521 -22.418 -27.979  1.00 30.13 LIG 0.01  C 
ATOM     37  CD1 LEU B   3     -14.508 -24.065 -29.617  1.00 27.67 LIG 0.01  C 
ENDBRANCH 34 35
ENDBRANCH 1 34
BRANCH 1 38
ATOM     38  C   LEU B   3     -17.462 -21.208 -30.121  1.00 20.33 LIG 0.24  C 
ATOM     39  N   LEU B   4     -17.910 -21.750 -31.249  1.00 23.83 LIG-0.35  N 
ATOM     40 H    LEU B   4     -17.447 -22.270 -31.753  1.00 23.83 LIG 0.16  HD
ATOM     41 O    LEU B   3     -18.154 -20.476 -29.419  1.00 22.70 LIG-0.27  OA
BRANCH 39 42
ATOM     42  CA  LEU B   4     -19.263 -21.486 -31.722  1.00 22.91 LIG 0.18  C 
BRANCH 42 43
ATOM     43  C   LEU B   4     -20.239 -21.765 -30.574  1.00 30.74 LIG 0.24  C 
ATOM     44 O    LEU B   4     -20.121 -22.795 -29.851  1.00 30.11 LIG-0.27  OA
ATOM     45  N   LEU B   5     -21.227 -20.898 -30.398  1.00 32.41 LIG-0.35  N 
ATOM     46 H    LEU B   5     -21.319 -20.151 -30.814  1.00 32.41 LIG 0.16  HD
BRANCH 45 47
ATOM     47  CA  LEU B   5     -22.266 -21.218 -29.411  1.00 35.50 LIG 0.18  C 
BRANCH 47 48
ATOM     48  C   LEU B   5     -23.649 -21.148 -30.049  1.00 33.38 LIG 0.24  C 
ATOM     49 O    LEU B   5     -24.682 -21.066 -29.348  1.00 25.58 LIG-0.27  OA
ATOM     50  N   THR B   6     -23.648 -21.187 -31.377  1.00 32.99 LIG-0.34  N 
ATOM     51 H    THR B   6     -22.931 -21.101 -31.844  1.00 32.99 LIG 0.16  HD
BRANCH 50 52
ATOM     52  CA  THR B   6     -24.844 -21.376 -32.187  1.00 39.09 LIG 0.19  C 
BRANCH 52 53
ATOM     53  CB  THR B   6     -24.493 -21.350 -33.699  1.00 66.99 LIG 0.14  C 
ATOM     54  CG2 THR B   6     -24.854 -22.665 -34.363  1.00 64.52 LIG 0.04  C 
BRANCH 53 55
ATOM     55 OG1  THR B   6     -25.220 -20.291 -34.352  1.00 68.32 LIG-0.39  OA
ATOM     56 HG1  THR B   6     -25.659 -19.858 -33.781  1.00 68.32 LIG 0.21  HD
ENDBRANCH 53 55
ENDBRANCH 52 53
BRANCH 52 57
ATOM     57  C   THR B   6     -25.457 -22.742 -31.848  1.00 46.48 LIG 0.22  C 
ATOM     58 O    THR B   6     -24.805 -23.595 -31.226  1.00 50.47 LIG-0.29  OA
ENDBRANCH 52 57
ENDBRANCH 50 52
ENDBRANCH 47 48
BRANCH 47 59
ATOM     59  CB  LEU B   5     -22.228 -20.248 -28.237  1.00 41.25 LIG 0.04  C 
BRANCH 59 60
ATOM     60  CG  LEU B   5     -22.601 -20.778 -26.861  1.00 47.99 LIG-0.02  C 
ATOM     61  CD2 LEU B   5     -22.637 -22.281 -26.873  1.00 50.88 LIG 0.01  C 
ATOM     62  CD1 LEU B   5     -23.964 -20.226 -26.500  1.00 54.72 LIG 0.01  C 
ENDBRANCH 59 60
ENDBRANCH 47 59
ENDBRANCH 45 47
ENDBRANCH 42 43
BRANCH 42 63
ATOM     63  CB  LEU B   4     -19.558 -22.465 -32.840  1.00 23.96 LIG 0.04  C 
BRANCH 63 64
ATOM     64  CG  LEU B   4     -20.919 -22.603 -33.486  1.00 38.52 LIG-0.02  C 
ATOM     65  CD1 LEU B   4     -21.202 -21.478 -34.413  1.00 46.71 LIG 0.01  C 
ATOM     66  CD2 LEU B   4     -20.994 -23.967 -34.189  1.00 36.33 LIG 0.01  C 
ENDBRANCH 63 64
ENDBRANCH 42 63
ENDBRANCH 39 42
ENDBRANCH 1 38
TORSDOF 26
ENDMDL
MODEL 11
USER: ADFR SOLUTION from run 147
USER: SCORE 21.826142 LL:  -4.163 LR: -19.549 RR:   0.000 FEB: -11.793
USER: RMSD 12.035728
USER: SEED 146
USER: STATUS no improvement in best in 14 clusters for 5 generations
USER: GENES 28
USER: genes 0 Translation |==|  0.56715 0.54595 0.41406
USER: genes 1 Rotation |==|  0.68214 0.16539 0.17657 0.51596
USER: genes 2 Torsion [C]-CA--N-[C] |==|  0.62660
USER: genes 3 Torsion [N]-C--CA-[N] |==|  0.14444
USER: genes 4 Torsion [C]-CA--CB-[CG] |==|  0.70560
USER: genes 5 Torsion [CA]-CB--CG-[CD] |==|  0.46553
USER: genes 6 Torsion [CB]-CG--CD-[NE] |==|  0.48681
USER: genes 7 Torsion [CG]-CD--NE-[HE] |==|  0.02048
USER: genes 8 Torsion [C]-CA--N-[C] |==|  0.76095
USER: genes 9 Torsion [N]-C--CA-[N] |==|  0.84853
USER: genes 10 Torsion [C]-CA--N-[H3] |==|  0.43854
USER: genes 11 Torsion [C]-CA--CB-[CG] |==|  0.44473
USER: genes 12 Torsion [CA]-CB--CG-[ND2] |==|  0.62962
USER: genes 13 Torsion [N]-CA--CB-[CG] |==|  0.78616
USER: genes 14 Torsion [CA]-CB--CG-[CD1] |==|  0.37389
USER: genes 15 Torsion [N]-CA--C-[N] |==|  0.40907
USER: genes 16 Torsion [C]-N--CA-[CB] |==|  0.15407
USER: genes 17 Torsion [N]-CA--C-[N] |==|  0.58465
USER: genes 18 Torsion [C]-N--CA-[C] |==|  0.17083
USER: genes 19 Torsion [N]-CA--C-[N] |==|  0.62917
USER: genes 20 Torsion [C]-N--CA-[C] |==|  0.86513
USER: genes 21 Torsion [N]-CA--CB-[CG2] |==|  0.40659
USER: genes 22 Torsion [CA]-CB--OG1-[HG1] |==|  0.32205
USER: genes 23 Torsion [N]-CA--C-[O] |==|  0.40888
USER: genes 24 Torsion [N]-CA--CB-[CG] |==|  0.76874
USER: genes 25 Torsion [CA]-CB--CG-[CD2] |==|  0.17656
USER: genes 26 Torsion [N]-CA--CB-[CG] |==|  0.62961
USER: genes 27 Torsion [CA]-CB--CG-[CD1] |==|  0.74397
ROOT
ATOM      1  CA  LEU B   3     -16.440 -21.734 -30.122  1.00 17.18 LIG 0.18  C 
ENDROOT
BRANCH 1 2
ATOM      2  N   LEU B   3     -15.960 -20.405 -30.206  1.00 21.09 LIG-0.35  N 
ATOM      3  C   ARG B   2     -15.067 -20.049 -31.125  1.00 20.79 LIG 0.24  C 
ATOM      4 O    ARG B   2     -14.653 -20.818 -32.017  1.00 18.81 LIG-0.27  OA
ATOM      5 H    LEU B   3     -16.292 -19.868 -29.623  1.00 21.09 LIG 0.16  HD
BRANCH 3 6
ATOM      6  CA  ARG B   2     -14.505 -18.641 -30.977  1.00 21.42 LIG 0.18  C 
BRANCH 6 7
ATOM      7  CB  ARG B   2     -13.408 -18.325 -31.999  1.00 36.36 LIG 0.04  C 
BRANCH 7 8
ATOM      8  CG  ARG B   2     -12.028 -18.316 -31.368  1.00 41.67 LIG 0.02  C 
BRANCH 8 9
ATOM      9  CD  ARG B   2     -10.894 -18.305 -32.394  1.00 51.14 LIG 0.14  C 
BRANCH 9 10
ATOM     10  NE  ARG B   2      -9.573 -18.183 -31.750  1.00 53.41 LIG-0.23  N 
ATOM     11 HE   ARG B   2      -9.548 -18.229 -30.891  1.00 53.41 LIG 0.18  HD
ATOM     12  CZ  ARG B   2      -8.411 -18.008 -32.389  1.00 50.83 LIG 0.67  C 
ATOM     13  NH1 ARG B   2      -8.373 -17.926 -33.713  1.00 40.00 LIG-0.23  N 
ATOM     14  NH2 ARG B   2      -7.278 -17.903 -31.692  1.00 54.23 LIG-0.23  N 
ATOM     15 1HH1 ARG B   2      -9.100 -17.985 -34.168  1.00 40.00 LIG 0.17  HD
ATOM     16 2HH1 ARG B   2      -7.622 -17.812 -34.116  1.00 40.00 LIG 0.17  HD
ATOM     17 1HH2 ARG B   2      -7.295 -17.948 -30.833  1.00 54.23 LIG 0.17  HD
ATOM     18 2HH2 ARG B   2      -6.531 -17.790 -32.101  1.00 54.23 LIG 0.17  HD
ENDBRANCH 9 10
ENDBRANCH 8 9
ENDBRANCH 7 8
ENDBRANCH 6 7
BRANCH 6 19
ATOM     19  N   ARG B   2     -14.025 -18.494 -29.620  1.00 29.89 LIG-0.35  N 
ATOM     20  C   ASN B   1     -14.851 -18.124 -28.651  1.00 39.87 LIG 0.25  C 
ATOM     21 O    ASN B   1     -15.942 -17.581 -28.874  1.00 37.46 LIG-0.27  OA
ATOM     22 H    ARG B   2     -13.189 -18.663 -29.510  1.00 29.89 LIG 0.16  HD
BRANCH 20 23
ATOM     23  CA  ASN B   1     -14.364 -18.400 -27.217  1.00 47.73 LIG 0.28  C 
BRANCH 23 24
ATOM     24  N   ASN B   1     -13.996 -19.771 -26.963  1.00 51.86 LIG-0.07  N 
ATOM     25 H3   ASN B   1     -13.443 -19.806 -26.267  1.00 51.86 LIG 0.28  HD
ATOM     26 H1   ASN B   1     -14.727 -20.247 -26.786  1.00 51.86 LIG 0.28  HD
ATOM     27 H2   ASN B   1     -13.590 -20.107 -27.681  1.00 51.86 LIG 0.28  HD
ENDBRANCH 23 24
BRANCH 23 28
ATOM     28  CB  ASN B   1     -13.190 -17.528 -26.821  1.00 49.79 LIG 0.14  C 
BRANCH 28 29
ATOM     29  CG  ASN B   1     -13.041 -17.455 -25.320  1.00 59.47 LIG 0.22  C 
ATOM     30  ND2 ASN B   1     -12.853 -16.241 -24.790  1.00 63.81 LIG-0.37  N 
ATOM     31 21HD ASN B   1     -12.741 -16.155 -23.942  1.00 63.81 LIG 0.16  HD
ATOM     32 22HD ASN B   1     -12.846 -15.547 -25.297  1.00 63.81 LIG 0.16  HD
ATOM     33 OD1  ASN B   1     -13.061 -18.479 -24.641  1.00 60.25 LIG-0.27  OA
ENDBRANCH 28 29
ENDBRANCH 23 28
ENDBRANCH 20 23
ENDBRANCH 6 19
ENDBRANCH 3 6
ENDBRANCH 1 2
BRANCH 1 34
ATOM     34  CB  LEU B   3     -15.712 -22.487 -28.973  1.00 28.79 LIG 0.04  C 
BRANCH 34 35
ATOM     35  CG  LEU B   3     -14.297 -22.905 -29.388  1.00 33.15 LIG-0.02  C 
ATOM     36  CD2 LEU B   3     -14.296 -24.386 -29.743  1.00 30.13 LIG 0.01  C 
ATOM     37  CD1 LEU B   3     -13.206 -22.614 -28.316  1.00 27.67 LIG 0.01  C 
ENDBRANCH 34 35
ENDBRANCH 1 34
BRANCH 1 38
ATOM     38  C   LEU B   3     -17.944 -21.786 -29.962  1.00 20.33 LIG 0.24  C 
ATOM     39  N   LEU B   4     -18.549 -22.828 -30.523  1.00 23.83 LIG-0.35  N 
ATOM     40 H    LEU B   4     -18.142 -23.450 -30.955  1.00 23.83 LIG 0.16  HD
ATOM     41 O    LEU B   3     -18.556 -20.920 -29.344  1.00 22.70 LIG-0.27  OA
BRANCH 39 42
ATOM     42  CA  LEU B   4     -19.996 -22.989 -30.439  1.00 22.91 LIG 0.18  C 
BRANCH 42 43
ATOM     43  C   LEU B   4     -20.405 -24.162 -31.336  1.00 30.74 LIG 0.24  C 
ATOM     44 O    LEU B   4     -19.614 -25.121 -31.560  1.00 30.11 LIG-0.27  OA
ATOM     45  N   LEU B   5     -21.609 -24.106 -31.889  1.00 32.41 LIG-0.35  N 
ATOM     46 H    LEU B   5     -22.211 -23.515 -31.723  1.00 32.41 LIG 0.16  HD
BRANCH 45 47
ATOM     47  CA  LEU B   5     -21.970 -25.133 -32.876  1.00 35.50 LIG 0.18  C 
BRANCH 47 48
ATOM     48  C   LEU B   5     -21.945 -26.518 -32.239  1.00 33.38 LIG 0.24  C 
ATOM     49 O    LEU B   5     -22.480 -26.729 -31.129  1.00 25.58 LIG-0.27  OA
ATOM     50  N   THR B   6     -21.315 -27.444 -32.955  1.00 32.99 LIG-0.34  N 
ATOM     51 H    THR B   6     -21.077 -27.318 -33.772  1.00 32.99 LIG 0.16  HD
BRANCH 50 52
ATOM     52  CA  THR B   6     -20.957 -28.761 -32.446  1.00 39.09 LIG 0.19  C 
BRANCH 52 53
ATOM     53  CB  THR B   6     -19.976 -29.476 -33.415  1.00 66.99 LIG 0.14  C 
ATOM     54  CG2 THR B   6     -18.998 -30.346 -32.652  1.00 64.52 LIG 0.04  C 
BRANCH 53 55
ATOM     55 OG1  THR B   6     -20.714 -30.308 -34.331  1.00 68.32 LIG-0.39  OA
ATOM     56 HG1  THR B   6     -20.612 -30.021 -35.115  1.00 68.32 LIG 0.21  HD
ENDBRANCH 53 55
ENDBRANCH 52 53
BRANCH 52 57
ATOM     57  C   THR B   6     -20.267 -28.593 -31.085  1.00 46.48 LIG 0.22  C 
ATOM     58 O    THR B   6     -20.398 -29.450 -30.197  1.00 50.47 LIG-0.29  OA
ENDBRANCH 52 57
ENDBRANCH 50 52
ENDBRANCH 47 48
BRANCH 47 59
ATOM     59  CB  LEU B   5     -21.004 -25.128 -34.054  1.00 41.25 LIG 0.04  C 
BRANCH 59 60
ATOM     60  CG  LEU B   5     -21.249 -24.127 -35.172  1.00 47.99 LIG-0.02  C 
ATOM     61  CD2 LEU B   5     -21.112 -22.722 -34.655  1.00 50.88 LIG 0.01  C 
ATOM     62  CD1 LEU B   5     -22.648 -24.352 -35.705  1.00 54.72 LIG 0.01  C 
ENDBRANCH 59 60
ENDBRANCH 47 59
ENDBRANCH 45 47
ENDBRANCH 42 43
BRANCH 42 63
ATOM     63  CB  LEU B   4     -20.631 -21.729 -30.991  1.00 23.96 LIG 0.04  C 
BRANCH 63 64
ATOM     64  CG  LEU B   4     -21.759 -20.996 -30.298  1.00 38.52 LIG-0.02  C 
ATOM     65  CD1 LEU B   4     -23.087 -21.459 -30.775  1.00 46.71 LIG 0.01  C 
ATOM     66  CD2 LEU B   4     -21.596 -21.164 -28.780  1.00 36.33 LIG 0.01  C 
ENDBRANCH 63 64
ENDBRANCH 42 63
ENDBRANCH 39 42
ENDBRANCH 1 38
TORSDOF 26
ENDMDL
MODEL 12
USER: ADFR SOLUTION from run 156
USER: SCORE 21.779548 LL:  -4.787 LR: -19.536 RR:   0.000 FEB: -11.780
USER: RMSD 11.751127
USER: SEED 155
USER: STATUS no improvement in best in 25 clusters for 5 generations
USER: GENES 28
USER: genes 0 Translation |==|  0.55689 0.59597 0.39536
USER: genes 1 Rotation |==|  0.76316 0.18201 0.22490 0.56282
USER: genes 2 Torsion [C]-CA--N-[C] |==|  0.63785
USER: genes 3 Torsion [N]-C--CA-[N] |==|  0.16079
USER: genes 4 Torsion [C]-CA--CB-[CG] |==|  0.32865
USER: genes 5 Torsion [CA]-CB--CG-[CD] |==|  0.73344
USER: genes 6 Torsion [CB]-CG--CD-[NE] |==|  0.45252
USER: genes 7 Torsion [CG]-CD--NE-[HE] |==|  0.30911
USER: genes 8 Torsion [C]-CA--N-[C] |==|  0.71200
USER: genes 9 Torsion [N]-C--CA-[N] |==|  0.46895
USER: genes 10 Torsion [C]-CA--N-[H3] |==|  0.22250
USER: genes 11 Torsion [C]-CA--CB-[CG] |==|  0.23470
USER: genes 12 Torsion [CA]-CB--CG-[ND2] |==|  0.49824
USER: genes 13 Torsion [N]-CA--CB-[CG] |==|  0.47002
USER: genes 14 Torsion [CA]-CB--CG-[CD1] |==|  0.23385
USER: genes 15 Torsion [N]-CA--C-[N] |==|  0.34841
USER: genes 16 Torsion [C]-N--CA-[CB] |==|  0.39570
USER: genes 17 Torsion [N]-CA--C-[N] |==|  0.53277
USER: genes 18 Torsion [C]-N--CA-[C] |==|  0.65369
USER: genes 19 Torsion [N]-CA--C-[N] |==|  0.45556
USER: genes 20 Torsion [C]-N--CA-[C] |==|  0.63906
USER: genes 21 Torsion [N]-CA--CB-[CG2] |==|  0.45356
USER: genes 22 Torsion [CA]-CB--OG1-[HG1] |==|  0.48714
USER: genes 23 Torsion [N]-CA--C-[O] |==|  0.96697
USER: genes 24 Torsion [N]-CA--CB-[CG] |==|  0.69986
USER: genes 25 Torsion [CA]-CB--CG-[CD2] |==|  0.62251
USER: genes 26 Torsion [N]-CA--CB-[CG] |==|  0.72769
USER: genes 27 Torsion [CA]-CB--CG-[CD1] |==|  0.58905
ROOT
ATOM      1  CA  LEU B   3     -16.694 -20.496 -30.514  1.00 17.18 LIG 0.18  C 
ENDROOT
BRANCH 1 2
ATOM      2  N   LEU B   3     -16.701 -19.103 -30.763  1.00 21.09 LIG-0.35  N 
ATOM      3  C   ARG B   2     -15.896 -18.557 -31.670  1.00 20.79 LIG 0.24  C 
ATOM      4 O    ARG B   2     -15.148 -19.223 -32.416  1.00 18.81 LIG-0.27  OA
ATOM      5 H    LEU B   3     -17.260 -18.657 -30.284  1.00 21.09 LIG 0.16  HD
BRANCH 3 6
ATOM      6  CA  ARG B   2     -15.880 -17.034 -31.696  1.00 21.42 LIG 0.18  C 
BRANCH 6 7
ATOM      7  CB  ARG B   2     -14.965 -16.465 -32.786  1.00 36.36 LIG 0.04  C 
BRANCH 7 8
ATOM      8  CG  ARG B   2     -15.734 -15.638 -33.799  1.00 41.67 LIG 0.02  C 
BRANCH 8 9
ATOM      9  CD  ARG B   2     -16.127 -16.426 -35.050  1.00 51.14 LIG 0.14  C 
BRANCH 9 10
ATOM     10  NE  ARG B   2     -17.191 -15.748 -35.813  1.00 53.41 LIG-0.23  N 
ATOM     11 HE   ARG B   2     -16.979 -15.421 -36.580  1.00 53.41 LIG 0.18  HD
ATOM     12  CZ  ARG B   2     -18.459 -15.598 -35.412  1.00 50.83 LIG 0.67  C 
ATOM     13  NH1 ARG B   2     -18.858 -16.073 -34.240  1.00 40.00 LIG-0.23  N 
ATOM     14  NH2 ARG B   2     -19.331 -14.955 -36.191  1.00 54.23 LIG-0.23  N 
ATOM     15 1HH1 ARG B   2     -18.300 -16.482 -33.729  1.00 40.00 LIG 0.17  HD
ATOM     16 2HH1 ARG B   2     -19.675 -15.972 -33.990  1.00 40.00 LIG 0.17  HD
ATOM     17 1HH2 ARG B   2     -19.078 -14.637 -36.949  1.00 54.23 LIG 0.17  HD
ATOM     18 2HH2 ARG B   2     -20.146 -14.858 -35.935  1.00 54.23 LIG 0.17  HD
ENDBRANCH 9 10
ENDBRANCH 8 9
ENDBRANCH 7 8
ENDBRANCH 6 7
BRANCH 6 19
ATOM     19  N   ARG B   2     -15.490 -16.572 -30.382  1.00 29.89 LIG-0.35  N 
ATOM     20  C   ASN B   1     -16.395 -16.084 -29.545  1.00 39.87 LIG 0.25  C 
ATOM     21 O    ASN B   1     -17.510 -15.695 -29.919  1.00 37.46 LIG-0.27  OA
ATOM     22 H    ARG B   2     -14.651 -16.642 -30.207  1.00 29.89 LIG 0.16  HD
BRANCH 20 23
ATOM     23  CA  ASN B   1     -15.970 -16.017 -28.066  1.00 47.73 LIG 0.28  C 
BRANCH 23 24
ATOM     24  N   ASN B   1     -16.859 -15.258 -27.222  1.00 51.86 LIG-0.07  N 
ATOM     25 H3   ASN B   1     -17.562 -15.758 -27.005  1.00 51.86 LIG 0.28  HD
ATOM     26 H1   ASN B   1     -16.429 -15.014 -26.481  1.00 51.86 LIG 0.28  HD
ATOM     27 H2   ASN B   1     -17.134 -14.532 -27.657  1.00 51.86 LIG 0.28  HD
ENDBRANCH 23 24
BRANCH 23 28
ATOM     28  CB  ASN B   1     -15.803 -17.388 -27.444  1.00 49.79 LIG 0.14  C 
BRANCH 28 29
ATOM     29  CG  ASN B   1     -14.431 -17.954 -27.723  1.00 59.47 LIG 0.22  C 
ATOM     30  ND2 ASN B   1     -14.160 -19.160 -27.211  1.00 63.81 LIG-0.37  N 
ATOM     31 21HD ASN B   1     -13.383 -19.511 -27.325  1.00 63.81 LIG 0.16  HD
ATOM     32 22HD ASN B   1     -14.763 -19.584 -26.769  1.00 63.81 LIG 0.16  HD
ATOM     33 OD1  ASN B   1     -13.607 -17.305 -28.363  1.00 60.25 LIG-0.27  OA
ENDBRANCH 28 29
ENDBRANCH 23 28
ENDBRANCH 20 23
ENDBRANCH 6 19
ENDBRANCH 3 6
ENDBRANCH 1 2
BRANCH 1 34
ATOM     34  CB  LEU B   3     -15.962 -20.790 -29.175  1.00 28.79 LIG 0.04  C 
BRANCH 34 35
ATOM     35  CG  LEU B   3     -16.162 -22.245 -28.737  1.00 33.15 LIG-0.02  C 
ATOM     36  CD2 LEU B   3     -16.070 -22.329 -27.219  1.00 30.13 LIG 0.01  C 
ATOM     37  CD1 LEU B   3     -15.165 -23.250 -29.387  1.00 27.67 LIG 0.01  C 
ENDBRANCH 34 35
ENDBRANCH 1 34
BRANCH 1 38
ATOM     38  C   LEU B   3     -18.088 -21.084 -30.534  1.00 20.33 LIG 0.24  C 
ATOM     39  N   LEU B   4     -18.273 -22.107 -31.362  1.00 23.83 LIG-0.35  N 
ATOM     40 H    LEU B   4     -17.661 -22.437 -31.868  1.00 23.83 LIG 0.16  HD
ATOM     41 O    LEU B   3     -18.982 -20.643 -29.818  1.00 22.70 LIG-0.27  OA
BRANCH 39 42
ATOM     42  CA  LEU B   4     -19.573 -22.758 -31.471  1.00 22.91 LIG 0.18  C 
BRANCH 42 43
ATOM     43  C   LEU B   4     -19.535 -24.053 -30.654  1.00 30.74 LIG 0.24  C 
ATOM     44 O    LEU B   4     -18.571 -24.310 -29.879  1.00 30.11 LIG-0.27  OA
ATOM     45  N   LEU B   5     -20.540 -24.902 -30.823  1.00 32.41 LIG-0.35  N 
ATOM     46 H    LEU B   5     -21.250 -24.754 -31.284  1.00 32.41 LIG 0.16  HD
BRANCH 45 47
ATOM     47  CA  LEU B   5     -20.455 -26.218 -30.177  1.00 35.50 LIG 0.18  C 
BRANCH 47 48
ATOM     48  C   LEU B   5     -20.620 -27.331 -31.205  1.00 33.38 LIG 0.24  C 
ATOM     49 O    LEU B   5     -21.091 -27.099 -32.340  1.00 25.58 LIG-0.27  OA
ATOM     50  N   THR B   6     -20.231 -28.532 -30.787  1.00 32.99 LIG-0.34  N 
ATOM     51 H    THR B   6     -19.783 -28.649 -30.063  1.00 32.99 LIG 0.16  HD
BRANCH 50 52
ATOM     52  CA  THR B   6     -20.516 -29.771 -31.497  1.00 39.09 LIG 0.19  C 
BRANCH 52 53
ATOM     53  CB  THR B   6     -19.215 -30.371 -32.096  1.00 66.99 LIG 0.14  C 
ATOM     54  CG2 THR B   6     -19.412 -31.827 -32.471  1.00 64.52 LIG 0.04  C 
BRANCH 53 55
ATOM     55 OG1  THR B   6     -18.839 -29.639 -33.279  1.00 68.32 LIG-0.39  OA
ATOM     56 HG1  THR B   6     -18.102 -29.925 -33.564  1.00 68.32 LIG 0.21  HD
ENDBRANCH 53 55
ENDBRANCH 52 53
BRANCH 52 57
ATOM     57  C   THR B   6     -21.112 -30.781 -30.506  1.00 46.48 LIG 0.22  C 
ATOM     58 O    THR B   6     -21.079 -30.568 -29.284  1.00 50.47 LIG-0.29  OA
ENDBRANCH 52 57
ENDBRANCH 50 52
ENDBRANCH 47 48
BRANCH 47 59
ATOM     59  CB  LEU B   5     -21.536 -26.381 -29.115  1.00 41.25 LIG 0.04  C 
BRANCH 59 60
ATOM     60  CG  LEU B   5     -21.111 -26.357 -27.655  1.00 47.99 LIG-0.02  C 
ATOM     61  CD2 LEU B   5     -21.803 -27.452 -26.892  1.00 50.88 LIG 0.01  C 
ATOM     62  CD1 LEU B   5     -21.484 -25.006 -27.081  1.00 54.72 LIG 0.01  C 
ENDBRANCH 59 60
ENDBRANCH 47 59
ENDBRANCH 45 47
ENDBRANCH 42 43
BRANCH 42 63
ATOM     63  CB  LEU B   4     -19.783 -23.123 -32.927  1.00 23.96 LIG 0.04  C 
BRANCH 63 64
ATOM     64  CG  LEU B   4     -20.594 -22.280 -33.885  1.00 38.52 LIG-0.02  C 
ATOM     65  CD1 LEU B   4     -21.273 -23.115 -34.909  1.00 46.71 LIG 0.01  C 
ATOM     66  CD2 LEU B   4     -21.588 -21.433 -33.075  1.00 36.33 LIG 0.01  C 
ENDBRANCH 63 64
ENDBRANCH 42 63
ENDBRANCH 39 42
ENDBRANCH 1 38
TORSDOF 26
ENDMDL
MODEL 13
USER: ADFR SOLUTION from run 22
USER: SCORE 22.882355 LL:  -5.009 LR: -19.499 RR:   0.000 FEB: -11.743
USER: RMSD 4.931024
USER: SEED 21
USER: STATUS no improvement in best in 10 clusters for 5 generations
USER: GENES 28
USER: genes 0 Translation |==|  0.45743 0.52326 0.36880
USER: genes 1 Rotation |==|  0.54620 0.50045 0.47183 0.99706
USER: genes 2 Torsion [C]-CA--N-[C] |==|  0.77014
USER: genes 3 Torsion [N]-C--CA-[N] |==|  0.95283
USER: genes 4 Torsion [C]-CA--CB-[CG] |==|  0.17300
USER: genes 5 Torsion [CA]-CB--CG-[CD] |==|  0.23289
USER: genes 6 Torsion [CB]-CG--CD-[NE] |==|  0.93022
USER: genes 7 Torsion [CG]-CD--NE-[HE] |==|  0.06353
USER: genes 8 Torsion [C]-CA--N-[C] |==|  0.80222
USER: genes 9 Torsion [N]-C--CA-[N] |==|  0.53385
USER: genes 10 Torsion [C]-CA--N-[H3] |==|  0.78027
USER: genes 11 Torsion [C]-CA--CB-[CG] |==|  0.21579
USER: genes 12 Torsion [CA]-CB--CG-[ND2] |==|  0.10343
USER: genes 13 Torsion [N]-CA--CB-[CG] |==|  0.83985
USER: genes 14 Torsion [CA]-CB--CG-[CD1] |==|  0.54301
USER: genes 15 Torsion [N]-CA--C-[N] |==|  0.29539
USER: genes 16 Torsion [C]-N--CA-[CB] |==|  0.50556
USER: genes 17 Torsion [N]-CA--C-[N] |==|  0.31132
USER: genes 18 Torsion [C]-N--CA-[C] |==|  0.70883
USER: genes 19 Torsion [N]-CA--C-[N] |==|  0.78828
USER: genes 20 Torsion [C]-N--CA-[C] |==|  0.61914
USER: genes 21 Torsion [N]-CA--CB-[CG2] |==|  0.45572
USER: genes 22 Torsion [CA]-CB--OG1-[HG1] |==|  0.02312
USER: genes 23 Torsion [N]-CA--C-[O] |==|  0.26866
USER: genes 24 Torsion [N]-CA--CB-[CG] |==|  0.73139
USER: genes 25 Torsion [CA]-CB--CG-[CD2] |==|  0.49305
USER: genes 26 Torsion [N]-CA--CB-[CG] |==|  0.58510
USER: genes 27 Torsion [CA]-CB--CG-[CD1] |==|  0.02014
ROOT
ATOM      1  CA  LEU B   3     -19.156 -22.295 -31.072  1.00 17.18 LIG 0.18  C 
ENDROOT
BRANCH 1 2
ATOM      2  N   LEU B   3     -20.223 -22.759 -30.267  1.00 21.09 LIG-0.35  N 
ATOM      3  C   ARG B   2     -20.202 -23.972 -29.722  1.00 20.79 LIG 0.24  C 
ATOM      4 O    ARG B   2     -19.227 -24.748 -29.805  1.00 18.81 LIG-0.27  OA
ATOM      5 H    LEU B   3     -20.866 -22.197 -30.168  1.00 21.09 LIG 0.16  HD
BRANCH 3 6
ATOM      6  CA  ARG B   2     -21.494 -24.403 -29.040  1.00 21.42 LIG 0.18  C 
BRANCH 6 7
ATOM      7  CB  ARG B   2     -22.267 -25.458 -29.837  1.00 36.36 LIG 0.04  C 
BRANCH 7 8
ATOM      8  CG  ARG B   2     -21.476 -26.742 -30.000  1.00 41.67 LIG 0.02  C 
BRANCH 8 9
ATOM      9  CD  ARG B   2     -21.600 -27.685 -28.801  1.00 51.14 LIG 0.14  C 
BRANCH 9 10
ATOM     10  NE  ARG B   2     -21.930 -26.956 -27.563  1.00 53.41 LIG-0.23  N 
ATOM     11 HE   ARG B   2     -22.309 -26.188 -27.646  1.00 53.41 LIG 0.18  HD
ATOM     12  CZ  ARG B   2     -21.689 -27.388 -26.319  1.00 50.83 LIG 0.67  C 
ATOM     13  NH1 ARG B   2     -21.104 -28.561 -26.114  1.00 40.00 LIG-0.23  N 
ATOM     14  NH2 ARG B   2     -22.028 -26.631 -25.274  1.00 54.23 LIG-0.23  N 
ATOM     15 1HH1 ARG B   2     -20.875 -29.051 -26.782  1.00 40.00 LIG 0.17  HD
ATOM     16 2HH1 ARG B   2     -20.952 -28.831 -25.311  1.00 40.00 LIG 0.17  HD
ATOM     17 1HH2 ARG B   2     -22.400 -25.866 -25.400  1.00 54.23 LIG 0.17  HD
ATOM     18 2HH2 ARG B   2     -21.873 -26.908 -24.475  1.00 54.23 LIG 0.17  HD
ENDBRANCH 9 10
ENDBRANCH 8 9
ENDBRANCH 7 8
ENDBRANCH 6 7
BRANCH 6 19
ATOM     19  N   ARG B   2     -22.293 -23.219 -28.812  1.00 29.89 LIG-0.35  N 
ATOM     20  C   ASN B   1     -21.934 -22.332 -27.894  1.00 39.87 LIG 0.25  C 
ATOM     21 O    ASN B   1     -21.134 -22.595 -26.987  1.00 37.46 LIG-0.27  OA
ATOM     22 H    ARG B   2     -22.992 -23.151 -29.310  1.00 29.89 LIG 0.16  HD
BRANCH 20 23
ATOM     23  CA  ASN B   1     -22.589 -20.943 -28.017  1.00 47.73 LIG 0.28  C 
BRANCH 23 24
ATOM     24  N   ASN B   1     -21.988 -19.924 -27.192  1.00 51.86 LIG-0.07  N 
ATOM     25 H3   ASN B   1     -22.278 -20.010 -26.355  1.00 51.86 LIG 0.28  HD
ATOM     26 H1   ASN B   1     -21.102 -20.012 -27.209  1.00 51.86 LIG 0.28  HD
ATOM     27 H2   ASN B   1     -22.212 -19.120 -27.502  1.00 51.86 LIG 0.28  HD
ENDBRANCH 23 24
BRANCH 23 28
ATOM     28  CB  ASN B   1     -22.608 -20.430 -29.442  1.00 49.79 LIG 0.14  C 
BRANCH 28 29
ATOM     29  CG  ASN B   1     -23.702 -21.089 -30.248  1.00 59.47 LIG 0.22  C 
ATOM     30  ND2 ASN B   1     -24.853 -21.336 -29.614  1.00 63.81 LIG-0.37  N 
ATOM     31 21HD ASN B   1     -25.495 -21.730 -30.027  1.00 63.81 LIG 0.16  HD
ATOM     32 22HD ASN B   1     -24.951 -21.100 -28.793  1.00 63.81 LIG 0.16  HD
ATOM     33 OD1  ASN B   1     -23.509 -21.404 -31.419  1.00 60.25 LIG-0.27  OA
ENDBRANCH 28 29
ENDBRANCH 23 28
ENDBRANCH 20 23
ENDBRANCH 6 19
ENDBRANCH 3 6
ENDBRANCH 1 2
BRANCH 1 34
ATOM     34  CB  LEU B   3     -19.682 -21.251 -32.096  1.00 28.79 LIG 0.04  C 
BRANCH 34 35
ATOM     35  CG  LEU B   3     -20.790 -21.839 -32.976  1.00 33.15 LIG-0.02  C 
ATOM     36  CD2 LEU B   3     -20.419 -23.265 -33.362  1.00 30.13 LIG 0.01  C 
ATOM     37  CD1 LEU B   3     -21.101 -21.005 -34.254  1.00 27.67 LIG 0.01  C 
ENDBRANCH 34 35
ENDBRANCH 1 34
BRANCH 1 38
ATOM     38  C   LEU B   3     -18.016 -21.744 -30.244  1.00 20.33 LIG 0.24  C 
ATOM     39  N   LEU B   4     -16.929 -22.507 -30.174  1.00 23.83 LIG-0.35  N 
ATOM     40 H    LEU B   4     -16.847 -23.269 -30.563  1.00 23.83 LIG 0.16  HD
ATOM     41 O    LEU B   3     -18.096 -20.655 -29.683  1.00 22.70 LIG-0.27  OA
BRANCH 39 42
ATOM     42  CA  LEU B   4     -15.765 -22.084 -29.405  1.00 22.91 LIG 0.18  C 
BRANCH 42 43
ATOM     43  C   LEU B   4     -15.238 -20.776 -30.004  1.00 30.74 LIG 0.24  C 
ATOM     44 O    LEU B   4     -14.686 -20.753 -31.141  1.00 30.11 LIG-0.27  OA
ATOM     45  N   LEU B   5     -15.358 -19.683 -29.264  1.00 32.41 LIG-0.35  N 
ATOM     46 H    LEU B   5     -15.780 -19.626 -28.517  1.00 32.41 LIG 0.16  HD
BRANCH 45 47
ATOM     47  CA  LEU B   5     -14.724 -18.447 -29.741  1.00 35.50 LIG 0.18  C 
BRANCH 47 48
ATOM     48  C   LEU B   5     -13.460 -18.151 -28.943  1.00 33.38 LIG 0.24  C 
ATOM     49 O    LEU B   5     -12.326 -18.370 -29.422  1.00 25.58 LIG-0.27  OA
ATOM     50  N   THR B   6     -13.676 -17.661 -27.726  1.00 32.99 LIG-0.34  N 
ATOM     51 H    THR B   6     -14.449 -17.386 -27.466  1.00 32.99 LIG 0.16  HD
BRANCH 50 52
ATOM     52  CA  THR B   6     -12.645 -17.533 -26.706  1.00 39.09 LIG 0.19  C 
BRANCH 52 53
ATOM     53  CB  THR B   6     -12.183 -16.056 -26.575  1.00 66.99 LIG 0.14  C 
ATOM     54  CG2 THR B   6     -11.418 -15.840 -25.283  1.00 64.52 LIG 0.04  C 
BRANCH 53 55
ATOM     55 OG1  THR B   6     -11.325 -15.713 -27.680  1.00 68.32 LIG-0.39  OA
ATOM     56 HG1  THR B   6     -11.329 -16.336 -28.243  1.00 68.32 LIG 0.21  HD
ENDBRANCH 53 55
ENDBRANCH 52 53
BRANCH 52 57
ATOM     57  C   THR B   6     -13.225 -17.988 -25.359  1.00 46.48 LIG 0.22  C 
ATOM     58 O    THR B   6     -13.038 -19.142 -24.944  1.00 50.47 LIG-0.29  OA
ENDBRANCH 52 57
ENDBRANCH 50 52
ENDBRANCH 47 48
BRANCH 47 59
ATOM     59  CB  LEU B   5     -15.667 -17.257 -29.607  1.00 41.25 LIG 0.04  C 
BRANCH 59 60
ATOM     60  CG  LEU B   5     -16.467 -16.839 -30.831  1.00 47.99 LIG-0.02  C 
ATOM     61  CD2 LEU B   5     -17.380 -15.694 -30.491  1.00 50.88 LIG 0.01  C 
ATOM     62  CD1 LEU B   5     -17.277 -18.033 -31.291  1.00 54.72 LIG 0.01  C 
ENDBRANCH 59 60
ENDBRANCH 47 59
ENDBRANCH 45 47
ENDBRANCH 42 43
BRANCH 42 63
ATOM     63  CB  LEU B   4     -14.695 -23.145 -29.573  1.00 23.96 LIG 0.04  C 
BRANCH 63 64
ATOM     64  CG  LEU B   4     -13.670 -23.464 -28.508  1.00 38.52 LIG-0.02  C 
ATOM     65  CD1 LEU B   4     -13.953 -22.742 -27.241  1.00 46.71 LIG 0.01  C 
ATOM     66  CD2 LEU B   4     -13.623 -24.987 -28.310  1.00 36.33 LIG 0.01  C 
ENDBRANCH 63 64
ENDBRANCH 42 63
ENDBRANCH 39 42
ENDBRANCH 1 38
TORSDOF 26
ENDMDL
MODEL 14
USER: ADFR SOLUTION from run 168
USER: SCORE 22.157162 LL:  -4.701 LR: -19.435 RR:   0.000 FEB: -11.679
USER: RMSD 4.389423
USER: SEED 167
USER: STATUS 1 or 2 clusters left
USER: GENES 28
USER: genes 0 Translation |==|  0.46526 0.53750 0.33721
USER: genes 1 Rotation |==|  0.58244 0.60498 0.55187 0.97905
USER: genes 2 Torsion [C]-CA--N-[C] |==|  0.12789
USER: genes 3 Torsion [N]-C--CA-[N] |==|  0.67595
USER: genes 4 Torsion [C]-CA--CB-[CG] |==|  0.72461
USER: genes 5 Torsion [CA]-CB--CG-[CD] |==|  0.78331
USER: genes 6 Torsion [CB]-CG--CD-[NE] |==|  0.82649
USER: genes 7 Torsion [CG]-CD--NE-[HE] |==|  0.91561
USER: genes 8 Torsion [C]-CA--N-[C] |==|  0.65169
USER: genes 9 Torsion [N]-C--CA-[N] |==|  0.62269
USER: genes 10 Torsion [C]-CA--N-[H3] |==|  0.16814
USER: genes 11 Torsion [C]-CA--CB-[CG] |==|  0.70733
USER: genes 12 Torsion [CA]-CB--CG-[ND2] |==|  0.24569
USER: genes 13 Torsion [N]-CA--CB-[CG] |==|  0.91046
USER: genes 14 Torsion [CA]-CB--CG-[CD1] |==|  0.28260
USER: genes 15 Torsion [N]-CA--C-[N] |==|  0.17323
USER: genes 16 Torsion [C]-N--CA-[CB] |==|  0.49206
USER: genes 17 Torsion [N]-CA--C-[N] |==|  0.42313
USER: genes 18 Torsion [C]-N--CA-[C] |==|  0.65578
USER: genes 19 Torsion [N]-CA--C-[N] |==|  0.45723
USER: genes 20 Torsion [C]-N--CA-[C] |==|  0.14477
USER: genes 21 Torsion [N]-CA--CB-[CG2] |==|  0.83522
USER: genes 22 Torsion [CA]-CB--OG1-[HG1] |==|  0.19638
USER: genes 23 Torsion [N]-CA--C-[O] |==|  0.45203
USER: genes 24 Torsion [N]-CA--CB-[CG] |==|  0.00408
USER: genes 25 Torsion [CA]-CB--CG-[CD2] |==|  0.76749
USER: genes 26 Torsion [N]-CA--CB-[CG] |==|  0.79378
USER: genes 27 Torsion [CA]-CB--CG-[CD1] |==|  0.03323
ROOT
ATOM      1  CA  LEU B   3     -18.962 -21.943 -31.736  1.00 17.18 LIG 0.18  C 
ENDROOT
BRANCH 1 2
ATOM      2  N   LEU B   3     -19.426 -22.850 -30.754  1.00 21.09 LIG-0.35  N 
ATOM      3  C   ARG B   2     -19.647 -22.461 -29.501  1.00 20.79 LIG 0.24  C 
ATOM      4 O    ARG B   2     -19.545 -21.277 -29.120  1.00 18.81 LIG-0.27  OA
ATOM      5 H    LEU B   3     -19.548 -23.653 -31.038  1.00 21.09 LIG 0.16  HD
BRANCH 3 6
ATOM      6  CA  ARG B   2     -19.963 -23.580 -28.517  1.00 21.42 LIG 0.18  C 
BRANCH 6 7
ATOM      7  CB  ARG B   2     -19.798 -24.976 -29.127  1.00 36.36 LIG 0.04  C 
BRANCH 7 8
ATOM      8  CG  ARG B   2     -21.126 -25.567 -29.563  1.00 41.67 LIG 0.02  C 
BRANCH 8 9
ATOM      9  CD  ARG B   2     -21.951 -26.124 -28.402  1.00 51.14 LIG 0.14  C 
BRANCH 9 10
ATOM     10  NE  ARG B   2     -21.261 -27.237 -27.724  1.00 53.41 LIG-0.23  N 
ATOM     11 HE   ARG B   2     -20.739 -27.727 -28.201  1.00 53.41 LIG 0.18  HD
ATOM     12  CZ  ARG B   2     -21.379 -27.549 -26.427  1.00 50.83 LIG 0.67  C 
ATOM     13  NH1 ARG B   2     -22.169 -26.840 -25.631  1.00 40.00 LIG-0.23  N 
ATOM     14  NH2 ARG B   2     -20.708 -28.589 -25.930  1.00 54.23 LIG-0.23  N 
ATOM     15 1HH1 ARG B   2     -22.611 -26.173 -25.946  1.00 40.00 LIG 0.17  HD
ATOM     16 2HH1 ARG B   2     -22.239 -27.048 -24.799  1.00 40.00 LIG 0.17  HD
ATOM     17 1HH2 ARG B   2     -20.200 -29.058 -26.442  1.00 54.23 LIG 0.17  HD
ATOM     18 2HH2 ARG B   2     -20.783 -28.791 -25.098  1.00 54.23 LIG 0.17  HD
ENDBRANCH 9 10
ENDBRANCH 8 9
ENDBRANCH 7 8
ENDBRANCH 6 7
BRANCH 6 19
ATOM     19  N   ARG B   2     -21.307 -23.372 -28.024  1.00 29.89 LIG-0.35  N 
ATOM     20  C   ASN B   1     -21.542 -23.298 -26.721  1.00 39.87 LIG 0.25  C 
ATOM     21 O    ASN B   1     -20.741 -23.714 -25.874  1.00 37.46 LIG-0.27  OA
ATOM     22 H    ARG B   2     -21.911 -23.304 -28.633  1.00 29.89 LIG 0.16  HD
BRANCH 20 23
ATOM     23  CA  ASN B   1     -22.889 -22.669 -26.320  1.00 47.73 LIG 0.28  C 
BRANCH 23 24
ATOM     24  N   ASN B   1     -22.809 -21.726 -25.232  1.00 51.86 LIG-0.07  N 
ATOM     25 H3   ASN B   1     -22.275 -21.053 -25.462  1.00 51.86 LIG 0.28  HD
ATOM     26 H1   ASN B   1     -23.622 -21.412 -25.051  1.00 51.86 LIG 0.28  HD
ATOM     27 H2   ASN B   1     -22.481 -22.132 -24.511  1.00 51.86 LIG 0.28  HD
ENDBRANCH 23 24
BRANCH 23 28
ATOM     28  CB  ASN B   1     -23.579 -21.978 -27.478  1.00 49.79 LIG 0.14  C 
BRANCH 28 29
ATOM     29  CG  ASN B   1     -23.478 -20.476 -27.360  1.00 59.47 LIG 0.22  C 
ATOM     30  ND2 ASN B   1     -22.401 -19.899 -27.905  1.00 63.81 LIG-0.37  N 
ATOM     31 21HD ASN B   1     -22.290 -19.049 -27.842  1.00 63.81 LIG 0.16  HD
ATOM     32 22HD ASN B   1     -21.820 -20.379 -28.319  1.00 63.81 LIG 0.16  HD
ATOM     33 OD1  ASN B   1     -24.338 -19.839 -26.759  1.00 60.25 LIG-0.27  OA
ENDBRANCH 28 29
ENDBRANCH 23 28
ENDBRANCH 20 23
ENDBRANCH 6 19
ENDBRANCH 3 6
ENDBRANCH 1 2
BRANCH 1 34
ATOM     34  CB  LEU B   3     -20.142 -21.071 -32.251  1.00 28.79 LIG 0.04  C 
BRANCH 34 35
ATOM     35  CG  LEU B   3     -21.461 -21.850 -32.233  1.00 33.15 LIG-0.02  C 
ATOM     36  CD2 LEU B   3     -22.198 -21.618 -33.546  1.00 30.13 LIG 0.01  C 
ATOM     37  CD1 LEU B   3     -22.391 -21.503 -31.032  1.00 27.67 LIG 0.01  C 
ENDBRANCH 34 35
ENDBRANCH 1 34
BRANCH 1 38
ATOM     38  C   LEU B   3     -17.816 -21.094 -31.229  1.00 20.33 LIG 0.24  C 
ATOM     39  N   LEU B   4     -16.714 -21.753 -30.889  1.00 23.83 LIG-0.35  N 
ATOM     40 H    LEU B   4     -16.624 -22.607 -30.942  1.00 23.83 LIG 0.16  HD
ATOM     41 O    LEU B   3     -17.907 -19.872 -31.151  1.00 22.70 LIG-0.27  OA
BRANCH 39 42
ATOM     42  CA  LEU B   4     -15.542 -21.046 -30.386  1.00 22.91 LIG 0.18  C 
BRANCH 42 43
ATOM     43  C   LEU B   4     -14.982 -20.174 -31.515  1.00 30.74 LIG 0.24  C 
ATOM     44 O    LEU B   4     -15.118 -20.506 -32.727  1.00 30.11 LIG-0.27  OA
ATOM     45  N   LEU B   5     -14.323 -19.079 -31.161  1.00 32.41 LIG-0.35  N 
ATOM     46 H    LEU B   5     -14.256 -18.770 -30.361  1.00 32.41 LIG 0.16  HD
BRANCH 45 47
ATOM     47  CA  LEU B   5     -13.641 -18.308 -32.208  1.00 35.50 LIG 0.18  C 
BRANCH 47 48
ATOM     48  C   LEU B   5     -12.162 -18.148 -31.878  1.00 33.38 LIG 0.24  C 
ATOM     49 O    LEU B   5     -11.728 -18.373 -30.726  1.00 25.58 LIG-0.27  OA
ATOM     50  N   THR B   6     -11.407 -17.755 -32.898  1.00 32.99 LIG-0.34  N 
ATOM     51 H    THR B   6     -11.692 -17.741 -33.709  1.00 32.99 LIG 0.16  HD
BRANCH 50 52
ATOM     52  CA  THR B   6     -10.028 -17.307 -32.764  1.00 39.09 LIG 0.19  C 
BRANCH 52 53
ATOM     53  CB  THR B   6      -9.959 -15.964 -31.986  1.00 66.99 LIG 0.14  C 
ATOM     54  CG2 THR B   6     -10.752 -14.885 -32.697  1.00 64.52 LIG 0.04  C 
BRANCH 53 55
ATOM     55 OG1  THR B   6     -10.503 -16.137 -30.663  1.00 68.32 LIG-0.39  OA
ATOM     56 HG1  THR B   6      -9.979 -16.605 -30.203  1.00 68.32 LIG 0.21  HD
ENDBRANCH 53 55
ENDBRANCH 52 53
BRANCH 52 57
ATOM     57  C   THR B   6      -9.238 -18.367 -31.983  1.00 46.48 LIG 0.22  C 
ATOM     58 O    THR B   6      -7.998 -18.382 -32.008  1.00 50.47 LIG-0.29  OA
ENDBRANCH 52 57
ENDBRANCH 50 52
ENDBRANCH 47 48
BRANCH 47 59
ATOM     59  CB  LEU B   5     -14.253 -16.921 -32.358  1.00 41.25 LIG 0.04  C 
BRANCH 59 60
ATOM     60  CG  LEU B   5     -15.395 -16.540 -31.429  1.00 47.99 LIG-0.02  C 
ATOM     61  CD2 LEU B   5     -16.701 -17.055 -31.969  1.00 50.88 LIG 0.01  C 
ATOM     62  CD1 LEU B   5     -15.433 -15.030 -31.327  1.00 54.72 LIG 0.01  C 
ENDBRANCH 59 60
ENDBRANCH 47 59
ENDBRANCH 45 47
ENDBRANCH 42 43
BRANCH 42 63
ATOM     63  CB  LEU B   4     -14.498 -22.084 -30.029  1.00 23.96 LIG 0.04  C 
BRANCH 63 64
ATOM     64  CG  LEU B   4     -14.589 -22.964 -28.801  1.00 38.52 LIG-0.02  C 
ATOM     65  CD1 LEU B   4     -15.931 -22.887 -28.171  1.00 46.71 LIG 0.01  C 
ATOM     66  CD2 LEU B   4     -14.214 -24.400 -29.197  1.00 36.33 LIG 0.01  C 
ENDBRANCH 63 64
ENDBRANCH 42 63
ENDBRANCH 39 42
ENDBRANCH 1 38
TORSDOF 26
ENDMDL
MODEL 15
USER: ADFR SOLUTION from run 119
USER: SCORE 22.817701 LL:  -4.601 LR: -19.428 RR:   0.000 FEB: -11.673
USER: RMSD 11.750213
USER: SEED 118
USER: STATUS no improvement in best in 7 clusters for 5 generations
USER: GENES 28
USER: genes 0 Translation |==|  0.47913 0.53320 0.37425
USER: genes 1 Rotation |==|  0.33060 0.60163 0.04096 0.51612
USER: genes 2 Torsion [C]-CA--N-[C] |==|  0.77296
USER: genes 3 Torsion [N]-C--CA-[N] |==|  0.46954
USER: genes 4 Torsion [C]-CA--CB-[CG] |==|  0.95410
USER: genes 5 Torsion [CA]-CB--CG-[CD] |==|  0.64635
USER: genes 6 Torsion [CB]-CG--CD-[NE] |==|  0.09286
USER: genes 7 Torsion [CG]-CD--NE-[HE] |==|  0.67660
USER: genes 8 Torsion [C]-CA--N-[C] |==|  0.54500
USER: genes 9 Torsion [N]-C--CA-[N] |==|  0.03748
USER: genes 10 Torsion [C]-CA--N-[H3] |==|  0.50872
USER: genes 11 Torsion [C]-CA--CB-[CG] |==|  0.66704
USER: genes 12 Torsion [CA]-CB--CG-[ND2] |==|  0.74286
USER: genes 13 Torsion [N]-CA--CB-[CG] |==|  0.52233
USER: genes 14 Torsion [CA]-CB--CG-[CD1] |==|  0.09829
USER: genes 15 Torsion [N]-CA--C-[N] |==|  0.33532
USER: genes 16 Torsion [C]-N--CA-[CB] |==|  0.51667
USER: genes 17 Torsion [N]-CA--C-[N] |==|  0.39093
USER: genes 18 Torsion [C]-N--CA-[C] |==|  0.67657
USER: genes 19 Torsion [N]-CA--C-[N] |==|  0.85854
USER: genes 20 Torsion [C]-N--CA-[C] |==|  0.75968
USER: genes 21 Torsion [N]-CA--CB-[CG2] |==|  0.54790
USER: genes 22 Torsion [CA]-CB--OG1-[HG1] |==|  0.10199
USER: genes 23 Torsion [N]-CA--C-[O] |==|  0.17265
USER: genes 24 Torsion [N]-CA--CB-[CG] |==|  0.71400
USER: genes 25 Torsion [CA]-CB--CG-[CD2] |==|  0.91936
USER: genes 26 Torsion [N]-CA--CB-[CG] |==|  0.67255
USER: genes 27 Torsion [CA]-CB--CG-[CD1] |==|  0.45083
ROOT
ATOM      1  CA  LEU B   3     -18.618 -22.049 -30.958  1.00 17.18 LIG 0.18  C 
ENDROOT
BRANCH 1 2
ATOM      2  N   LEU B   3     -17.240 -21.771 -30.801  1.00 21.09 LIG-0.35  N 
ATOM      3  C   ARG B   2     -16.786 -21.094 -29.750  1.00 20.79 LIG 0.24  C 
ATOM      4 O    ARG B   2     -17.510 -20.731 -28.799  1.00 18.81 LIG-0.27  OA
ATOM      5 H    LEU B   3     -16.740 -22.074 -31.432  1.00 21.09 LIG 0.16  HD
BRANCH 3 6
ATOM      6  CA  ARG B   2     -15.313 -20.709 -29.809  1.00 21.42 LIG 0.18  C 
BRANCH 6 7
ATOM      7  CB  ARG B   2     -14.376 -21.920 -29.734  1.00 36.36 LIG 0.04  C 
BRANCH 7 8
ATOM      8  CG  ARG B   2     -15.086 -23.159 -29.224  1.00 41.67 LIG 0.02  C 
BRANCH 8 9
ATOM      9  CD  ARG B   2     -14.374 -23.822 -28.043  1.00 51.14 LIG 0.14  C 
BRANCH 9 10
ATOM     10  NE  ARG B   2     -13.705 -22.831 -27.181  1.00 53.41 LIG-0.23  N 
ATOM     11 HE   ARG B   2     -12.848 -22.873 -27.123  1.00 53.41 LIG 0.18  HD
ATOM     12  CZ  ARG B   2     -14.320 -21.870 -26.480  1.00 50.83 LIG 0.67  C 
ATOM     13  NH1 ARG B   2     -15.641 -21.746 -26.519  1.00 40.00 LIG-0.23  N 
ATOM     14  NH2 ARG B   2     -13.603 -21.035 -25.726  1.00 54.23 LIG-0.23  N 
ATOM     15 1HH1 ARG B   2     -16.109 -22.285 -26.997  1.00 40.00 LIG 0.17  HD
ATOM     16 2HH1 ARG B   2     -16.028 -21.126 -26.065  1.00 40.00 LIG 0.17  HD
ATOM     17 1HH2 ARG B   2     -12.748 -21.114 -25.690  1.00 54.23 LIG 0.17  HD
ATOM     18 2HH2 ARG B   2     -13.997 -20.418 -25.275  1.00 54.23 LIG 0.17  HD
ENDBRANCH 9 10
ENDBRANCH 8 9
ENDBRANCH 7 8
ENDBRANCH 6 7
BRANCH 6 19
ATOM     19  N   ARG B   2     -15.056 -19.772 -28.737  1.00 29.89 LIG-0.35  N 
ATOM     20  C   ASN B   1     -13.955 -19.032 -28.740  1.00 39.87 LIG 0.25  C 
ATOM     21 O    ASN B   1     -12.966 -19.310 -29.431  1.00 37.46 LIG-0.27  OA
ATOM     22 H    ARG B   2     -15.661 -19.745 -28.125  1.00 29.89 LIG 0.16  HD
BRANCH 20 23
ATOM     23  CA  ASN B   1     -13.976 -17.801 -27.815  1.00 47.73 LIG 0.28  C 
BRANCH 23 24
ATOM     24  N   ASN B   1     -15.053 -17.792 -26.856  1.00 51.86 LIG-0.07  N 
ATOM     25 H3   ASN B   1     -15.028 -17.035 -26.389  1.00 51.86 LIG 0.28  HD
ATOM     26 H1   ASN B   1     -15.831 -17.852 -27.283  1.00 51.86 LIG 0.28  HD
ATOM     27 H2   ASN B   1     -14.963 -18.484 -26.303  1.00 51.86 LIG 0.28  HD
ENDBRANCH 23 24
BRANCH 23 28
ATOM     28  CB  ASN B   1     -12.679 -17.622 -27.053  1.00 49.79 LIG 0.14  C 
BRANCH 28 29
ATOM     29  CG  ASN B   1     -12.907 -17.673 -25.561  1.00 59.47 LIG 0.22  C 
ATOM     30  ND2 ASN B   1     -13.118 -16.506 -24.942  1.00 63.81 LIG-0.37  N 
ATOM     31 21HD ASN B   1     -13.229 -16.486 -24.090  1.00 63.81 LIG 0.16  HD
ATOM     32 22HD ASN B   1     -13.142 -15.777 -25.397  1.00 63.81 LIG 0.16  HD
ATOM     33 OD1  ASN B   1     -12.863 -18.744 -24.961  1.00 60.25 LIG-0.27  OA
ENDBRANCH 28 29
ENDBRANCH 23 28
ENDBRANCH 20 23
ENDBRANCH 6 19
ENDBRANCH 3 6
ENDBRANCH 1 2
BRANCH 1 34
ATOM     34  CB  LEU B   3     -18.956 -22.214 -32.466  1.00 28.79 LIG 0.04  C 
BRANCH 34 35
ATOM     35  CG  LEU B   3     -20.468 -22.319 -32.693  1.00 33.15 LIG-0.02  C 
ATOM     36  CD2 LEU B   3     -20.784 -21.958 -34.138  1.00 30.13 LIG 0.01  C 
ATOM     37  CD1 LEU B   3     -21.320 -21.444 -31.726  1.00 27.67 LIG 0.01  C 
ENDBRANCH 34 35
ENDBRANCH 1 34
BRANCH 1 38
ATOM     38  C   LEU B   3     -19.051 -23.254 -30.151  1.00 20.33 LIG 0.24  C 
ATOM     39  N   LEU B   4     -20.003 -23.036 -29.250  1.00 23.83 LIG-0.35  N 
ATOM     40 H    LEU B   4     -20.370 -22.271 -29.109  1.00 23.83 LIG 0.16  HD
ATOM     41 O    LEU B   3     -18.555 -24.362 -30.333  1.00 22.70 LIG-0.27  OA
BRANCH 39 42
ATOM     42  CA  LEU B   4     -20.503 -24.118 -28.410  1.00 22.91 LIG 0.18  C 
BRANCH 42 43
ATOM     43  C   LEU B   4     -21.027 -25.233 -29.320  1.00 30.74 LIG 0.24  C 
ATOM     44 O    LEU B   4     -21.689 -24.970 -30.364  1.00 30.11 LIG-0.27  OA
ATOM     45  N   LEU B   5     -20.782 -26.482 -28.946  1.00 32.41 LIG-0.35  N 
ATOM     46 H    LEU B   5     -20.284 -26.720 -28.287  1.00 32.41 LIG 0.16  HD
BRANCH 45 47
ATOM     47  CA  LEU B   5     -21.403 -27.572 -29.710  1.00 35.50 LIG 0.18  C 
BRANCH 47 48
ATOM     48  C   LEU B   5     -22.365 -28.360 -28.830  1.00 33.38 LIG 0.24  C 
ATOM     49 O    LEU B   5     -23.540 -28.587 -29.197  1.00 25.58 LIG-0.27  OA
ATOM     50  N   THR B   6     -21.852 -28.764 -27.673  1.00 32.99 LIG-0.34  N 
ATOM     51 H    THR B   6     -21.011 -28.724 -27.498  1.00 32.99 LIG 0.16  HD
BRANCH 50 52
ATOM     52  CA  THR B   6     -22.642 -29.315 -26.580  1.00 39.09 LIG 0.19  C 
BRANCH 52 53
ATOM     53  CB  THR B   6     -21.777 -30.250 -25.693  1.00 66.99 LIG 0.14  C 
ATOM     54  CG2 THR B   6     -22.649 -31.142 -24.832  1.00 64.52 LIG 0.04  C 
BRANCH 53 55
ATOM     55 OG1  THR B   6     -20.947 -31.084 -26.525  1.00 68.32 LIG-0.39  OA
ATOM     56 HG1  THR B   6     -20.689 -30.645 -27.193  1.00 68.32 LIG 0.21  HD
ENDBRANCH 53 55
ENDBRANCH 52 53
BRANCH 52 57
ATOM     57  C   THR B   6     -23.161 -28.157 -25.715  1.00 46.48 LIG 0.22  C 
ATOM     58 O    THR B   6     -23.922 -27.300 -26.190  1.00 50.47 LIG-0.29  OA
ENDBRANCH 52 57
ENDBRANCH 50 52
ENDBRANCH 47 48
BRANCH 47 59
ATOM     59  CB  LEU B   5     -20.352 -28.532 -30.254  1.00 41.25 LIG 0.04  C 
BRANCH 59 60
ATOM     60  CG  LEU B   5     -19.989 -28.432 -31.727  1.00 47.99 LIG-0.02  C 
ATOM     61  CD2 LEU B   5     -21.161 -27.927 -32.521  1.00 50.88 LIG 0.01  C 
ATOM     62  CD1 LEU B   5     -19.591 -29.813 -32.206  1.00 54.72 LIG 0.01  C 
ENDBRANCH 59 60
ENDBRANCH 47 59
ENDBRANCH 45 47
ENDBRANCH 42 43
BRANCH 42 63
ATOM     63  CB  LEU B   4     -21.670 -23.575 -27.609  1.00 23.96 LIG 0.04  C 
BRANCH 63 64
ATOM     64  CG  LEU B   4     -21.675 -23.499 -26.099  1.00 38.52 LIG-0.02  C 
ATOM     65  CD1 LEU B   4     -22.718 -22.567 -25.601  1.00 46.71 LIG 0.01  C 
ATOM     66  CD2 LEU B   4     -21.847 -24.918 -25.535  1.00 36.33 LIG 0.01  C 
ENDBRANCH 63 64
ENDBRANCH 42 63
ENDBRANCH 39 42
ENDBRANCH 1 38
TORSDOF 26
ENDMDL
MODEL 16
USER: ADFR SOLUTION from run 12
USER: SCORE 21.842701 LL:  -4.648 LR: -19.405 RR:   0.000 FEB: -11.650
USER: RMSD 12.018678
USER: SEED 784364
USER: STATUS no improvement in best in 11 clusters for 5 generations
USER: GENES 28
USER: genes 0 Translation |==|  0.56342 0.57863 0.42399
USER: genes 1 Rotation |==|  0.76554 0.17158 0.23615 0.54481
USER: genes 2 Torsion [C]-CA--N-[C] |==|  0.70845
USER: genes 3 Torsion [N]-C--CA-[N] |==|  0.09432
USER: genes 4 Torsion [C]-CA--CB-[CG] |==|  0.85449
USER: genes 5 Torsion [CA]-CB--CG-[CD] |==|  0.51130
USER: genes 6 Torsion [CB]-CG--CD-[NE] |==|  0.47998
USER: genes 7 Torsion [CG]-CD--NE-[HE] |==|  0.30316
USER: genes 8 Torsion [C]-CA--N-[C] |==|  0.68662
USER: genes 9 Torsion [N]-C--CA-[N] |==|  0.52624
USER: genes 10 Torsion [C]-CA--N-[H3] |==|  0.32184
USER: genes 11 Torsion [C]-CA--CB-[CG] |==|  0.22168
USER: genes 12 Torsion [CA]-CB--CG-[ND2] |==|  0.52125
USER: genes 13 Torsion [N]-CA--CB-[CG] |==|  0.56693
USER: genes 14 Torsion [CA]-CB--CG-[CD1] |==|  0.11241
USER: genes 15 Torsion [N]-CA--C-[N] |==|  0.33889
USER: genes 16 Torsion [C]-N--CA-[CB] |==|  0.39073
USER: genes 17 Torsion [N]-CA--C-[N] |==|  0.56456
USER: genes 18 Torsion [C]-N--CA-[C] |==|  0.62194
USER: genes 19 Torsion [N]-CA--C-[N] |==|  0.45233
USER: genes 20 Torsion [C]-N--CA-[C] |==|  0.63873
USER: genes 21 Torsion [N]-CA--CB-[CG2] |==|  0.61658
USER: genes 22 Torsion [CA]-CB--OG1-[HG1] |==|  0.53745
USER: genes 23 Torsion [N]-CA--C-[O] |==|  0.66656
USER: genes 24 Torsion [N]-CA--CB-[CG] |==|  0.73307
USER: genes 25 Torsion [CA]-CB--CG-[CD2] |==|  0.58814
USER: genes 26 Torsion [N]-CA--CB-[CG] |==|  0.59813
USER: genes 27 Torsion [CA]-CB--CG-[CD1] |==|  0.25968
ROOT
ATOM      1  CA  LEU B   3     -16.532 -20.925 -29.913  1.00 17.18 LIG 0.18  C 
ENDROOT
BRANCH 1 2
ATOM      2  N   LEU B   3     -16.450 -19.537 -30.176  1.00 21.09 LIG-0.35  N 
ATOM      3  C   ARG B   2     -15.949 -19.077 -31.319  1.00 20.79 LIG 0.24  C 
ATOM      4 O    ARG B   2     -15.597 -19.815 -32.263  1.00 18.81 LIG-0.27  OA
ATOM      5 H    LEU B   3     -16.746 -19.035 -29.543  1.00 21.09 LIG 0.16  HD
BRANCH 3 6
ATOM      6  CA  ARG B   2     -15.750 -17.569 -31.384  1.00 21.42 LIG 0.18  C 
BRANCH 6 7
ATOM      7  CB  ARG B   2     -14.713 -17.147 -32.431  1.00 36.36 LIG 0.04  C 
BRANCH 7 8
ATOM      8  CG  ARG B   2     -13.399 -17.887 -32.259  1.00 41.67 LIG 0.02  C 
BRANCH 8 9
ATOM      9  CD  ARG B   2     -12.311 -17.418 -33.226  1.00 51.14 LIG 0.14  C 
BRANCH 9 10
ATOM     10  NE  ARG B   2     -11.005 -18.032 -32.922  1.00 53.41 LIG-0.23  N 
ATOM     11 HE   ARG B   2     -10.709 -18.621 -33.474  1.00 53.41 LIG 0.18  HD
ATOM     12  CZ  ARG B   2     -10.243 -17.749 -31.859  1.00 50.83 LIG 0.67  C 
ATOM     13  NH1 ARG B   2     -10.638 -16.852 -30.964  1.00 40.00 LIG-0.23  N 
ATOM     14  NH2 ARG B   2      -9.080 -18.380 -31.688  1.00 54.23 LIG-0.23  N 
ATOM     15 1HH1 ARG B   2     -11.389 -16.447 -31.064  1.00 40.00 LIG 0.17  HD
ATOM     16 2HH1 ARG B   2     -10.142 -16.677 -30.283  1.00 40.00 LIG 0.17  HD
ATOM     17 1HH2 ARG B   2      -8.821 -18.968 -32.260  1.00 54.23 LIG 0.17  HD
ATOM     18 2HH2 ARG B   2      -8.590 -18.200 -31.006  1.00 54.23 LIG 0.17  HD
ENDBRANCH 9 10
ENDBRANCH 8 9
ENDBRANCH 7 8
ENDBRANCH 6 7
BRANCH 6 19
ATOM     19  N   ARG B   2     -15.386 -17.110 -30.061  1.00 29.89 LIG-0.35  N 
ATOM     20  C   ASN B   1     -16.210 -16.338 -29.367  1.00 39.87 LIG 0.25  C 
ATOM     21 O    ASN B   1     -17.139 -15.710 -29.892  1.00 37.46 LIG-0.27  OA
ATOM     22 H    ARG B   2     -14.616 -17.377 -29.784  1.00 29.89 LIG 0.16  HD
BRANCH 20 23
ATOM     23  CA  ASN B   1     -15.932 -16.256 -27.854  1.00 47.73 LIG 0.28  C 
BRANCH 23 24
ATOM     24  N   ASN B   1     -16.958 -15.588 -27.093  1.00 51.86 LIG-0.07  N 
ATOM     25 H3   ASN B   1     -17.332 -16.166 -26.528  1.00 51.86 LIG 0.28  HD
ATOM     26 H1   ASN B   1     -16.598 -14.917 -26.633  1.00 51.86 LIG 0.28  HD
ATOM     27 H2   ASN B   1     -17.579 -15.270 -27.646  1.00 51.86 LIG 0.28  HD
ENDBRANCH 23 24
BRANCH 23 28
ATOM     28  CB  ASN B   1     -15.705 -17.616 -27.228  1.00 49.79 LIG 0.14  C 
BRANCH 28 29
ATOM     29  CG  ASN B   1     -14.299 -18.109 -27.478  1.00 59.47 LIG 0.22  C 
ATOM     30  ND2 ASN B   1     -14.025 -19.365 -27.111  1.00 63.81 LIG-0.37  N 
ATOM     31 21HD ASN B   1     -13.232 -19.680 -27.213  1.00 63.81 LIG 0.16  HD
ATOM     32 22HD ASN B   1     -14.643 -19.858 -26.773  1.00 63.81 LIG 0.16  HD
ATOM     33 OD1  ASN B   1     -13.455 -17.362 -27.966  1.00 60.25 LIG-0.27  OA
ENDBRANCH 28 29
ENDBRANCH 23 28
ENDBRANCH 20 23
ENDBRANCH 6 19
ENDBRANCH 3 6
ENDBRANCH 1 2
BRANCH 1 34
ATOM     34  CB  LEU B   3     -15.925 -21.236 -28.516  1.00 28.79 LIG 0.04  C 
BRANCH 34 35
ATOM     35  CG  LEU B   3     -15.449 -22.690 -28.425  1.00 33.15 LIG-0.02  C 
ATOM     36  CD2 LEU B   3     -14.526 -22.840 -27.223  1.00 30.13 LIG 0.01  C 
ATOM     37  CD1 LEU B   3     -14.740 -23.211 -29.709  1.00 27.67 LIG 0.01  C 
ENDBRANCH 34 35
ENDBRANCH 1 34
BRANCH 1 38
ATOM     38  C   LEU B   3     -17.948 -21.444 -30.038  1.00 20.33 LIG 0.24  C 
ATOM     39  N   LEU B   4     -18.130 -22.421 -30.921  1.00 23.83 LIG-0.35  N 
ATOM     40 H    LEU B   4     -17.505 -22.759 -31.405  1.00 23.83 LIG 0.16  HD
ATOM     41 O    LEU B   3     -18.862 -20.991 -29.356  1.00 22.70 LIG-0.27  OA
BRANCH 39 42
ATOM     42  CA  LEU B   4     -19.450 -23.003 -31.132  1.00 22.91 LIG 0.18  C 
BRANCH 42 43
ATOM     43  C   LEU B   4     -19.505 -24.353 -30.410  1.00 30.74 LIG 0.24  C 
ATOM     44 O    LEU B   4     -18.714 -24.620 -29.461  1.00 30.11 LIG-0.27  OA
ATOM     45  N   LEU B   5     -20.393 -25.236 -30.847  1.00 32.41 LIG-0.35  N 
ATOM     46 H    LEU B   5     -20.997 -25.088 -31.441  1.00 32.41 LIG 0.16  HD
BRANCH 45 47
ATOM     47  CA  LEU B   5     -20.365 -26.591 -30.281  1.00 35.50 LIG 0.18  C 
BRANCH 47 48
ATOM     48  C   LEU B   5     -20.518 -27.633 -31.383  1.00 33.38 LIG 0.24  C 
ATOM     49 O    LEU B   5     -20.962 -27.323 -32.510  1.00 25.58 LIG-0.27  OA
ATOM     50  N   THR B   6     -20.152 -28.863 -31.035  1.00 32.99 LIG-0.34  N 
ATOM     51 H    THR B   6     -19.721 -29.032 -30.310  1.00 32.99 LIG 0.16  HD
BRANCH 50 52
ATOM     52  CA  THR B   6     -20.434 -30.050 -31.829  1.00 39.09 LIG 0.19  C 
BRANCH 52 53
ATOM     53  CB  THR B   6     -19.127 -30.625 -32.441  1.00 66.99 LIG 0.14  C 
ATOM     54  CG2 THR B   6     -19.344 -31.054 -33.878  1.00 64.52 LIG 0.04  C 
BRANCH 53 55
ATOM     55 OG1  THR B   6     -18.092 -29.622 -32.412  1.00 68.32 LIG-0.39  OA
ATOM     56 HG1  THR B   6     -17.454 -29.864 -32.901  1.00 68.32 LIG 0.21  HD
ENDBRANCH 53 55
ENDBRANCH 52 53
BRANCH 52 57
ATOM     57  C   THR B   6     -21.060 -31.116 -30.918  1.00 46.48 LIG 0.22  C 
ATOM     58 O    THR B   6     -20.513 -32.219 -30.763  1.00 50.47 LIG-0.29  OA
ENDBRANCH 52 57
ENDBRANCH 50 52
ENDBRANCH 47 48
BRANCH 47 59
ATOM     59  CB  LEU B   5     -21.487 -26.790 -29.270  1.00 41.25 LIG 0.04  C 
BRANCH 59 60
ATOM     60  CG  LEU B   5     -21.165 -26.592 -27.798  1.00 47.99 LIG-0.02  C 
ATOM     61  CD2 LEU B   5     -22.011 -27.502 -26.951  1.00 50.88 LIG 0.01  C 
ATOM     62  CD1 LEU B   5     -21.444 -25.145 -27.447  1.00 54.72 LIG 0.01  C 
ENDBRANCH 59 60
ENDBRANCH 47 59
ENDBRANCH 45 47
ENDBRANCH 42 43
BRANCH 42 63
ATOM     63  CB  LEU B   4     -19.607 -23.256 -32.618  1.00 23.96 LIG 0.04  C 
BRANCH 63 64
ATOM     64  CG  LEU B   4     -20.921 -23.103 -33.352  1.00 38.52 LIG-0.02  C 
ATOM     65  CD1 LEU B   4     -21.062 -21.749 -33.945  1.00 46.71 LIG 0.01  C 
ATOM     66  CD2 LEU B   4     -21.028 -24.214 -34.408  1.00 36.33 LIG 0.01  C 
ENDBRANCH 63 64
ENDBRANCH 42 63
ENDBRANCH 39 42
ENDBRANCH 1 38
TORSDOF 26
ENDMDL
MODEL 17
USER: ADFR SOLUTION from run 6
USER: SCORE 21.556051 LL:  -4.360 LR: -19.398 RR:   0.000 FEB: -11.642
USER: RMSD 12.455333
USER: SEED 55589
USER: STATUS searching
USER: GENES 28
USER: genes 0 Translation |==|  0.56564 0.54583 0.41351
USER: genes 1 Rotation |==|  0.69158 0.17117 0.17615 0.51701
USER: genes 2 Torsion [C]-CA--N-[C] |==|  0.63664
USER: genes 3 Torsion [N]-C--CA-[N] |==|  0.14512
USER: genes 4 Torsion [C]-CA--CB-[CG] |==|  0.68676
USER: genes 5 Torsion [CA]-CB--CG-[CD] |==|  0.41603
USER: genes 6 Torsion [CB]-CG--CD-[NE] |==|  0.50113
USER: genes 7 Torsion [CG]-CD--NE-[HE] |==|  0.02636
USER: genes 8 Torsion [C]-CA--N-[C] |==|  0.75827
USER: genes 9 Torsion [N]-C--CA-[N] |==|  0.84600
USER: genes 10 Torsion [C]-CA--N-[H3] |==|  0.10866
USER: genes 11 Torsion [C]-CA--CB-[CG] |==|  0.42782
USER: genes 12 Torsion [CA]-CB--CG-[ND2] |==|  0.62851
USER: genes 13 Torsion [N]-CA--CB-[CG] |==|  0.77941
USER: genes 14 Torsion [CA]-CB--CG-[CD1] |==|  0.37608
USER: genes 15 Torsion [N]-CA--C-[N] |==|  0.41437
USER: genes 16 Torsion [C]-N--CA-[CB] |==|  0.33849
USER: genes 17 Torsion [N]-CA--C-[N] |==|  0.37970
USER: genes 18 Torsion [C]-N--CA-[C] |==|  0.84053
USER: genes 19 Torsion [N]-CA--C-[N] |==|  0.37797
USER: genes 20 Torsion [C]-N--CA-[C] |==|  0.63535
USER: genes 21 Torsion [N]-CA--CB-[CG2] |==|  0.74560
USER: genes 22 Torsion [CA]-CB--OG1-[HG1] |==|  0.01159
USER: genes 23 Torsion [N]-CA--C-[O] |==|  0.02341
USER: genes 24 Torsion [N]-CA--CB-[CG] |==|  0.63061
USER: genes 25 Torsion [CA]-CB--CG-[CD2] |==|  0.30224
USER: genes 26 Torsion [N]-CA--CB-[CG] |==|  0.86246
USER: genes 27 Torsion [CA]-CB--CG-[CD1] |==|  0.55041
ROOT
ATOM      1  CA  LEU B   3     -16.477 -21.737 -30.133  1.00 17.18 LIG 0.18  C 
ENDROOT
BRANCH 1 2
ATOM      2  N   LEU B   3     -16.045 -20.391 -30.187  1.00 21.09 LIG-0.35  N 
ATOM      3  C   ARG B   2     -15.201 -19.972 -31.126  1.00 20.79 LIG 0.24  C 
ATOM      4 O    ARG B   2     -14.798 -20.694 -32.062  1.00 18.81 LIG-0.27  OA
ATOM      5 H    LEU B   3     -16.370 -19.885 -29.572  1.00 21.09 LIG 0.16  HD
BRANCH 3 6
ATOM      6  CA  ARG B   2     -14.680 -18.551 -30.949  1.00 21.42 LIG 0.18  C 
BRANCH 6 7
ATOM      7  CB  ARG B   2     -13.639 -18.161 -32.003  1.00 36.36 LIG 0.04  C 
BRANCH 7 8
ATOM      8  CG  ARG B   2     -12.261 -17.966 -31.399  1.00 41.67 LIG 0.02  C 
BRANCH 8 9
ATOM      9  CD  ARG B   2     -11.124 -18.301 -32.365  1.00 51.14 LIG 0.14  C 
BRANCH 9 10
ATOM     10  NE  ARG B   2      -9.801 -18.110 -31.743  1.00 53.41 LIG-0.23  N 
ATOM     11 HE   ARG B   2      -9.782 -17.962 -30.896  1.00 53.41 LIG 0.18  HD
ATOM     12  CZ  ARG B   2      -8.628 -18.149 -32.385  1.00 50.83 LIG 0.67  C 
ATOM     13  NH1 ARG B   2      -8.580 -18.371 -33.692  1.00 40.00 LIG-0.23  N 
ATOM     14  NH2 ARG B   2      -7.494 -17.953 -31.710  1.00 54.23 LIG-0.23  N 
ATOM     15 1HH1 ARG B   2      -9.307 -18.491 -34.135  1.00 40.00 LIG 0.17  HD
ATOM     16 2HH1 ARG B   2      -7.821 -18.394 -34.097  1.00 40.00 LIG 0.17  HD
ATOM     17 1HH2 ARG B   2      -7.517 -17.801 -30.864  1.00 54.23 LIG 0.17  HD
ATOM     18 2HH2 ARG B   2      -6.740 -17.977 -32.121  1.00 54.23 LIG 0.17  HD
ENDBRANCH 9 10
ENDBRANCH 8 9
ENDBRANCH 7 8
ENDBRANCH 6 7
BRANCH 6 19
ATOM     19  N   ARG B   2     -14.146 -18.438 -29.609  1.00 29.89 LIG-0.35  N 
ATOM     20  C   ASN B   1     -14.937 -18.114 -28.595  1.00 39.87 LIG 0.25  C 
ATOM     21 O    ASN B   1     -16.045 -17.585 -28.755  1.00 37.46 LIG-0.27  OA
ATOM     22 H    ARG B   2     -13.303 -18.595 -29.539  1.00 29.89 LIG 0.16  HD
BRANCH 20 23
ATOM     23  CA  ASN B   1     -14.384 -18.425 -27.192  1.00 47.73 LIG 0.28  C 
BRANCH 23 24
ATOM     24  N   ASN B   1     -14.002 -19.801 -26.991  1.00 51.86 LIG-0.07  N 
ATOM     25 H3   ASN B   1     -13.611 -20.111 -27.729  1.00 51.86 LIG 0.28  HD
ATOM     26 H1   ASN B   1     -13.432 -19.855 -26.309  1.00 51.86 LIG 0.28  HD
ATOM     27 H2   ASN B   1     -14.725 -20.288 -26.812  1.00 51.86 LIG 0.28  HD
ENDBRANCH 23 24
BRANCH 23 28
ATOM     28  CB  ASN B   1     -13.196 -17.559 -26.826  1.00 49.79 LIG 0.14  C 
BRANCH 28 29
ATOM     29  CG  ASN B   1     -13.069 -17.405 -25.329  1.00 59.47 LIG 0.22  C 
ATOM     30  ND2 ASN B   1     -12.853 -16.169 -24.866  1.00 63.81 LIG-0.37  N 
ATOM     31 21HD ASN B   1     -12.751 -16.038 -24.022  1.00 63.81 LIG 0.16  HD
ATOM     32 22HD ASN B   1     -12.816 -15.506 -25.412  1.00 63.81 LIG 0.16  HD
ATOM     33 OD1  ASN B   1     -13.132 -18.387 -24.594  1.00 60.25 LIG-0.27  OA
ENDBRANCH 28 29
ENDBRANCH 23 28
ENDBRANCH 20 23
ENDBRANCH 6 19
ENDBRANCH 3 6
ENDBRANCH 1 2
BRANCH 1 34
ATOM     34  CB  LEU B   3     -15.745 -22.482 -28.982  1.00 28.79 LIG 0.04  C 
BRANCH 34 35
ATOM     35  CG  LEU B   3     -14.329 -22.894 -29.395  1.00 33.15 LIG-0.02  C 
ATOM     36  CD2 LEU B   3     -14.324 -24.373 -29.763  1.00 30.13 LIG 0.01  C 
ATOM     37  CD1 LEU B   3     -13.241 -22.610 -28.317  1.00 27.67 LIG 0.01  C 
ENDBRANCH 34 35
ENDBRANCH 1 34
BRANCH 1 38
ATOM     38  C   LEU B   3     -17.981 -21.846 -30.006  1.00 20.33 LIG 0.24  C 
ATOM     39  N   LEU B   4     -18.532 -22.921 -30.561  1.00 23.83 LIG-0.35  N 
ATOM     40 H    LEU B   4     -18.091 -23.533 -30.973  1.00 23.83 LIG 0.16  HD
ATOM     41 O    LEU B   3     -18.640 -20.995 -29.416  1.00 22.70 LIG-0.27  OA
BRANCH 39 42
ATOM     42  CA  LEU B   4     -19.973 -23.137 -30.505  1.00 22.91 LIG 0.18  C 
BRANCH 42 43
ATOM     43  C   LEU B   4     -20.234 -24.475 -29.806  1.00 30.74 LIG 0.24  C 
ATOM     44 O    LEU B   4     -19.564 -25.507 -30.096  1.00 30.11 LIG-0.27  OA
ATOM     45  N   LEU B   5     -21.213 -24.508 -28.911  1.00 32.41 LIG-0.35  N 
ATOM     46 H    LEU B   5     -21.656 -23.827 -28.627  1.00 32.41 LIG 0.16  HD
BRANCH 45 47
ATOM     47  CA  LEU B   5     -21.591 -25.806 -28.340  1.00 35.50 LIG 0.18  C 
BRANCH 47 48
ATOM     48  C   LEU B   5     -21.993 -26.779 -29.442  1.00 33.38 LIG 0.24  C 
ATOM     49 O    LEU B   5     -22.736 -26.421 -30.382  1.00 25.58 LIG-0.27  OA
ATOM     50  N   THR B   6     -21.496 -28.005 -29.306  1.00 32.99 LIG-0.34  N 
ATOM     51 H    THR B   6     -20.879 -28.196 -28.738  1.00 32.99 LIG 0.16  HD
BRANCH 50 52
ATOM     52  CA  THR B   6     -21.933 -29.151 -30.092  1.00 39.09 LIG 0.19  C 
BRANCH 52 53
ATOM     53  CB  THR B   6     -20.828 -29.582 -31.094  1.00 66.99 LIG 0.14  C 
ATOM     54  CG2 THR B   6     -21.008 -28.888 -32.430  1.00 64.52 LIG 0.04  C 
BRANCH 53 55
ATOM     55 OG1  THR B   6     -19.531 -29.240 -30.569  1.00 68.32 LIG-0.39  OA
ATOM     56 HG1  THR B   6     -19.615 -28.924 -29.796  1.00 68.32 LIG 0.21  HD
ENDBRANCH 53 55
ENDBRANCH 52 53
BRANCH 52 57
ATOM     57  C   THR B   6     -22.216 -30.322 -29.140  1.00 46.48 LIG 0.22  C 
ATOM     58 O    THR B   6     -22.215 -30.156 -27.911  1.00 50.47 LIG-0.29  OA
ENDBRANCH 52 57
ENDBRANCH 50 52
ENDBRANCH 47 48
BRANCH 47 59
ATOM     59  CB  LEU B   5     -22.761 -25.664 -27.374  1.00 41.25 LIG 0.04  C 
BRANCH 59 60
ATOM     60  CG  LEU B   5     -22.660 -26.356 -26.024  1.00 47.99 LIG-0.02  C 
ATOM     61  CD2 LEU B   5     -22.475 -25.342 -24.930  1.00 50.88 LIG 0.01  C 
ATOM     62  CD1 LEU B   5     -21.474 -27.298 -26.067  1.00 54.72 LIG 0.01  C 
ENDBRANCH 59 60
ENDBRANCH 47 59
ENDBRANCH 45 47
ENDBRANCH 42 43
BRANCH 42 63
ATOM     63  CB  LEU B   4     -20.476 -23.243 -31.930  1.00 23.96 LIG 0.04  C 
BRANCH 63 64
ATOM     64  CG  LEU B   4     -20.131 -22.241 -33.009  1.00 38.52 LIG-0.02  C 
ATOM     65  CD1 LEU B   4     -21.069 -22.325 -34.157  1.00 46.71 LIG 0.01  C 
ATOM     66  CD2 LEU B   4     -20.102 -20.837 -32.384  1.00 36.33 LIG 0.01  C 
ENDBRANCH 63 64
ENDBRANCH 42 63
ENDBRANCH 39 42
ENDBRANCH 1 38
TORSDOF 26
ENDMDL
MODEL 18
USER: ADFR SOLUTION from run 74
USER: SCORE 23.478369 LL:  -4.940 LR: -19.395 RR:   0.000 FEB: -11.640
USER: RMSD 11.729395
USER: SEED 73
USER: STATUS no improvement in best in 7 clusters for 5 generations
USER: GENES 28
USER: genes 0 Translation |==|  0.59000 0.55549 0.40653
USER: genes 1 Rotation |==|  0.35151 0.82859 0.83478 0.58886
USER: genes 2 Torsion [C]-CA--N-[C] |==|  0.75638
USER: genes 3 Torsion [N]-C--CA-[N] |==|  0.99807
USER: genes 4 Torsion [C]-CA--CB-[CG] |==|  0.33698
USER: genes 5 Torsion [CA]-CB--CG-[CD] |==|  0.11561
USER: genes 6 Torsion [CB]-CG--CD-[NE] |==|  0.23993
USER: genes 7 Torsion [CG]-CD--NE-[HE] |==|  0.97502
USER: genes 8 Torsion [C]-CA--N-[C] |==|  0.69213
USER: genes 9 Torsion [N]-C--CA-[N] |==|  0.93481
USER: genes 10 Torsion [C]-CA--N-[H3] |==|  0.12727
USER: genes 11 Torsion [C]-CA--CB-[CG] |==|  0.16838
USER: genes 12 Torsion [CA]-CB--CG-[ND2] |==|  0.27617
USER: genes 13 Torsion [N]-CA--CB-[CG] |==|  0.86983
USER: genes 14 Torsion [CA]-CB--CG-[CD1] |==|  0.30304
USER: genes 15 Torsion [N]-CA--C-[N] |==|  0.44710
USER: genes 16 Torsion [C]-N--CA-[CB] |==|  0.51111
USER: genes 17 Torsion [N]-CA--C-[N] |==|  0.52204
USER: genes 18 Torsion [C]-N--CA-[C] |==|  0.83809
USER: genes 19 Torsion [N]-CA--C-[N] |==|  0.93438
USER: genes 20 Torsion [C]-N--CA-[C] |==|  0.53397
USER: genes 21 Torsion [N]-CA--CB-[CG2] |==|  0.43352
USER: genes 22 Torsion [CA]-CB--OG1-[HG1] |==|  0.13223
USER: genes 23 Torsion [N]-CA--C-[O] |==|  0.16460
USER: genes 24 Torsion [N]-CA--CB-[CG] |==|  0.48811
USER: genes 25 Torsion [CA]-CB--CG-[CD2] |==|  0.52562
USER: genes 26 Torsion [N]-CA--CB-[CG] |==|  0.80993
USER: genes 27 Torsion [CA]-CB--CG-[CD1] |==|  0.42418
ROOT
ATOM      1  CA  LEU B   3     -15.874 -21.498 -30.280  1.00 17.18 LIG 0.18  C 
ENDROOT
BRANCH 1 2
ATOM      2  N   LEU B   3     -14.979 -20.438 -30.002  1.00 21.09 LIG-0.35  N 
ATOM      3  C   ARG B   2     -14.461 -19.695 -30.976  1.00 20.79 LIG 0.24  C 
ATOM      4 O    ARG B   2     -14.781 -19.816 -32.177  1.00 18.81 LIG-0.27  OA
ATOM      5 H    LEU B   3     -14.807 -20.325 -29.167  1.00 21.09 LIG 0.16  HD
BRANCH 3 6
ATOM      6  CA  ARG B   2     -13.374 -18.719 -30.545  1.00 21.42 LIG 0.18  C 
BRANCH 6 7
ATOM      7  CB  ARG B   2     -12.055 -18.923 -31.299  1.00 36.36 LIG 0.04  C 
BRANCH 7 8
ATOM      8  CG  ARG B   2     -11.627 -17.674 -32.046  1.00 41.67 LIG 0.02  C 
BRANCH 8 9
ATOM      9  CD  ARG B   2     -11.838 -16.389 -31.245  1.00 51.14 LIG 0.14  C 
BRANCH 9 10
ATOM     10  NE  ARG B   2     -10.689 -16.093 -30.370  1.00 53.41 LIG-0.23  N 
ATOM     11 HE   ARG B   2     -10.084 -16.700 -30.295  1.00 53.41 LIG 0.18  HD
ATOM     12  CZ  ARG B   2     -10.507 -14.959 -29.683  1.00 50.83 LIG 0.67  C 
ATOM     13  NH1 ARG B   2     -11.399 -13.979 -29.749  1.00 40.00 LIG-0.23  N 
ATOM     14  NH2 ARG B   2      -9.425 -14.812 -28.916  1.00 54.23 LIG-0.23  N 
ATOM     15 1HH1 ARG B   2     -12.102 -14.069 -30.235  1.00 40.00 LIG 0.17  HD
ATOM     16 2HH1 ARG B   2     -11.274 -13.253 -29.304  1.00 40.00 LIG 0.17  HD
ATOM     17 1HH2 ARG B   2      -8.846 -15.446 -28.863  1.00 54.23 LIG 0.17  HD
ATOM     18 2HH2 ARG B   2      -9.307 -14.084 -28.475  1.00 54.23 LIG 0.17  HD
ENDBRANCH 9 10
ENDBRANCH 8 9
ENDBRANCH 7 8
ENDBRANCH 6 7
BRANCH 6 19
ATOM     19  N   ARG B   2     -13.196 -18.855 -29.116  1.00 29.89 LIG-0.35  N 
ATOM     20  C   ASN B   1     -13.564 -17.881 -28.296  1.00 39.87 LIG 0.25  C 
ATOM     21 O    ASN B   1     -13.760 -16.721 -28.683  1.00 37.46 LIG-0.27  OA
ATOM     22 H    ARG B   2     -12.842 -19.598 -28.864  1.00 29.89 LIG 0.16  HD
BRANCH 20 23
ATOM     23  CA  ASN B   1     -13.724 -18.277 -26.817  1.00 47.73 LIG 0.28  C 
BRANCH 23 24
ATOM     24  N   ASN B   1     -13.977 -19.680 -26.598  1.00 51.86 LIG-0.07  N 
ATOM     25 H3   ASN B   1     -13.417 -20.163 -27.093  1.00 51.86 LIG 0.28  HD
ATOM     26 H1   ASN B   1     -13.854 -19.873 -25.738  1.00 51.86 LIG 0.28  HD
ATOM     27 H2   ASN B   1     -14.815 -19.870 -26.828  1.00 51.86 LIG 0.28  HD
ENDBRANCH 23 24
BRANCH 23 28
ATOM     28  CB  ASN B   1     -12.526 -17.888 -25.975  1.00 49.79 LIG 0.14  C 
BRANCH 28 29
ATOM     29  CG  ASN B   1     -12.305 -16.394 -25.994  1.00 59.47 LIG 0.22  C 
ATOM     30  ND2 ASN B   1     -12.760 -15.704 -24.942  1.00 63.81 LIG-0.37  N 
ATOM     31 21HD ASN B   1     -12.676 -14.849 -24.921  1.00 63.81 LIG 0.16  HD
ATOM     32 22HD ASN B   1     -13.136 -16.116 -24.288  1.00 63.81 LIG 0.16  HD
ATOM     33 OD1  ASN B   1     -11.760 -15.857 -26.954  1.00 60.25 LIG-0.27  OA
ENDBRANCH 28 29
ENDBRANCH 23 28
ENDBRANCH 20 23
ENDBRANCH 6 19
ENDBRANCH 3 6
ENDBRANCH 1 2
BRANCH 1 34
ATOM     34  CB  LEU B   3     -15.687 -22.635 -29.237  1.00 28.79 LIG 0.04  C 
BRANCH 34 35
ATOM     35  CG  LEU B   3     -14.206 -22.970 -29.035  1.00 33.15 LIG-0.02  C 
ATOM     36  CD2 LEU B   3     -14.000 -24.467 -29.224  1.00 30.13 LIG 0.01  C 
ATOM     37  CD1 LEU B   3     -13.633 -22.523 -27.657  1.00 27.67 LIG 0.01  C 
ENDBRANCH 34 35
ENDBRANCH 1 34
BRANCH 1 38
ATOM     38  C   LEU B   3     -17.311 -21.026 -30.344  1.00 20.33 LIG 0.24  C 
ATOM     39  N   LEU B   4     -18.158 -21.836 -30.972  1.00 23.83 LIG-0.35  N 
ATOM     40 H    LEU B   4     -17.937 -22.586 -31.329  1.00 23.83 LIG 0.16  HD
ATOM     41 O    LEU B   3     -17.663 -19.965 -29.837  1.00 22.70 LIG-0.27  OA
BRANCH 39 42
ATOM     42  CA  LEU B   4     -19.569 -21.490 -31.100  1.00 22.91 LIG 0.18  C 
BRANCH 42 43
ATOM     43  C   LEU B   4     -20.156 -21.325 -29.695  1.00 30.74 LIG 0.24  C 
ATOM     44 O    LEU B   4     -19.420 -21.370 -28.669  1.00 30.11 LIG-0.27  OA
ATOM     45  N   LEU B   5     -21.470 -21.169 -29.605  1.00 32.41 LIG-0.35  N 
ATOM     46 H    LEU B   5     -22.010 -21.066 -30.266  1.00 32.41 LIG 0.16  HD
BRANCH 45 47
ATOM     47  CA  LEU B   5     -22.081 -21.166 -28.269  1.00 35.50 LIG 0.18  C 
BRANCH 47 48
ATOM     48  C   LEU B   5     -21.775 -22.468 -27.539  1.00 33.38 LIG 0.24  C 
ATOM     49 O    LEU B   5     -21.793 -22.529 -26.290  1.00 25.58 LIG-0.27  OA
ATOM     50  N   THR B   6     -21.492 -23.495 -28.334  1.00 32.99 LIG-0.34  N 
ATOM     51 H    THR B   6     -21.620 -23.474 -29.184  1.00 32.99 LIG 0.16  HD
BRANCH 50 52
ATOM     52  CA  THR B   6     -20.938 -24.758 -27.865  1.00 39.09 LIG 0.19  C 
BRANCH 52 53
ATOM     53  CB  THR B   6     -22.014 -25.581 -27.107  1.00 66.99 LIG 0.14  C 
ATOM     54  CG2 THR B   6     -21.681 -27.060 -27.129  1.00 64.52 LIG 0.04  C 
BRANCH 53 55
ATOM     55 OG1  THR B   6     -22.086 -25.146 -25.735  1.00 68.32 LIG-0.39  OA
ATOM     56 HG1  THR B   6     -22.121 -24.307 -25.708  1.00 68.32 LIG 0.21  HD
ENDBRANCH 53 55
ENDBRANCH 52 53
BRANCH 52 57
ATOM     57  C   THR B   6     -20.464 -25.569 -29.080  1.00 46.48 LIG 0.22  C 
ATOM     58 O    THR B   6     -19.602 -25.117 -29.848  1.00 50.47 LIG-0.29  OA
ENDBRANCH 52 57
ENDBRANCH 50 52
ENDBRANCH 47 48
BRANCH 47 59
ATOM     59  CB  LEU B   5     -23.594 -21.006 -28.356  1.00 41.25 LIG 0.04  C 
BRANCH 59 60
ATOM     60  CG  LEU B   5     -24.394 -21.082 -27.065  1.00 47.99 LIG-0.02  C 
ATOM     61  CD2 LEU B   5     -25.866 -21.130 -27.366  1.00 50.88 LIG 0.01  C 
ATOM     62  CD1 LEU B   5     -24.070 -19.855 -26.239  1.00 54.72 LIG 0.01  C 
ENDBRANCH 59 60
ENDBRANCH 47 59
ENDBRANCH 45 47
ENDBRANCH 42 43
BRANCH 42 63
ATOM     63  CB  LEU B   4     -20.267 -22.656 -31.770  1.00 23.96 LIG 0.04  C 
BRANCH 63 64
ATOM     64  CG  LEU B   4     -20.033 -23.045 -33.213  1.00 38.52 LIG-0.02  C 
ATOM     65  CD1 LEU B   4     -20.279 -24.492 -33.437  1.00 46.71 LIG 0.01  C 
ATOM     66  CD2 LEU B   4     -20.912 -22.161 -34.111  1.00 36.33 LIG 0.01  C 
ENDBRANCH 63 64
ENDBRANCH 42 63
ENDBRANCH 39 42
ENDBRANCH 1 38
TORSDOF 26
ENDMDL
MODEL 19
USER: ADFR SOLUTION from run 117
USER: SCORE 22.619636 LL:  -4.809 LR: -19.359 RR:   0.000 FEB: -11.603
USER: RMSD 11.990602
USER: SEED 116
USER: STATUS no improvement in best in 6 clusters for 5 generations
USER: GENES 28
USER: genes 0 Translation |==|  0.58276 0.55022 0.42432
USER: genes 1 Rotation |==|  0.31509 0.85019 0.79475 0.57937
USER: genes 2 Torsion [C]-CA--N-[C] |==|  0.73494
USER: genes 3 Torsion [N]-C--CA-[N] |==|  0.05990
USER: genes 4 Torsion [C]-CA--CB-[CG] |==|  0.27697
USER: genes 5 Torsion [CA]-CB--CG-[CD] |==|  0.33894
USER: genes 6 Torsion [CB]-CG--CD-[NE] |==|  0.08347
USER: genes 7 Torsion [CG]-CD--NE-[HE] |==|  0.74006
USER: genes 8 Torsion [C]-CA--N-[C] |==|  0.69398
USER: genes 9 Torsion [N]-C--CA-[N] |==|  0.91553
USER: genes 10 Torsion [C]-CA--N-[H3] |==|  0.16845
USER: genes 11 Torsion [C]-CA--CB-[CG] |==|  0.16859
USER: genes 12 Torsion [CA]-CB--CG-[ND2] |==|  0.26719
USER: genes 13 Torsion [N]-CA--CB-[CG] |==|  0.77607
USER: genes 14 Torsion [CA]-CB--CG-[CD1] |==|  0.87205
USER: genes 15 Torsion [N]-CA--C-[N] |==|  0.33519
USER: genes 16 Torsion [C]-N--CA-[CB] |==|  0.48935
USER: genes 17 Torsion [N]-CA--C-[N] |==|  0.87918
USER: genes 18 Torsion [C]-N--CA-[C] |==|  0.83951
USER: genes 19 Torsion [N]-CA--C-[N] |==|  0.35006
USER: genes 20 Torsion [C]-N--CA-[C] |==|  0.71691
USER: genes 21 Torsion [N]-CA--CB-[CG2] |==|  0.44829
USER: genes 22 Torsion [CA]-CB--OG1-[HG1] |==|  0.91941
USER: genes 23 Torsion [N]-CA--C-[O] |==|  0.12003
USER: genes 24 Torsion [N]-CA--CB-[CG] |==|  0.60178
USER: genes 25 Torsion [CA]-CB--CG-[CD2] |==|  0.03743
USER: genes 26 Torsion [N]-CA--CB-[CG] |==|  0.37511
USER: genes 27 Torsion [CA]-CB--CG-[CD1] |==|  0.34651
ROOT
ATOM      1  CA  LEU B   3     -16.054 -21.628 -29.906  1.00 17.18 LIG 0.18  C 
ENDROOT
BRANCH 1 2
ATOM      2  N   LEU B   3     -15.255 -20.469 -29.763  1.00 21.09 LIG-0.35  N 
ATOM      3  C   ARG B   2     -14.554 -19.981 -30.782  1.00 20.79 LIG 0.24  C 
ATOM      4 O    ARG B   2     -14.607 -20.445 -31.940  1.00 18.81 LIG-0.27  OA
ATOM      5 H    LEU B   3     -15.267 -20.122 -28.976  1.00 21.09 LIG 0.16  HD
BRANCH 3 6
ATOM      6  CA  ARG B   2     -13.599 -18.846 -30.433  1.00 21.42 LIG 0.18  C 
BRANCH 6 7
ATOM      7  CB  ARG B   2     -12.310 -18.874 -31.261  1.00 36.36 LIG 0.04  C 
BRANCH 7 8
ATOM      8  CG  ARG B   2     -12.354 -17.891 -32.416  1.00 41.67 LIG 0.02  C 
BRANCH 8 9
ATOM      9  CD  ARG B   2     -11.219 -16.866 -32.381  1.00 51.14 LIG 0.14  C 
BRANCH 9 10
ATOM     10  NE  ARG B   2     -10.005 -17.414 -31.748  1.00 53.41 LIG-0.23  N 
ATOM     11 HE   ARG B   2      -9.901 -17.272 -30.906  1.00 53.41 LIG 0.18  HD
ATOM     12  CZ  ARG B   2      -9.051 -18.113 -32.374  1.00 50.83 LIG 0.67  C 
ATOM     13  NH1 ARG B   2      -9.142 -18.368 -33.673  1.00 40.00 LIG-0.23  N 
ATOM     14  NH2 ARG B   2      -7.991 -18.550 -31.692  1.00 54.23 LIG-0.23  N 
ATOM     15 1HH1 ARG B   2      -9.819 -18.083 -34.121  1.00 40.00 LIG 0.17  HD
ATOM     16 2HH1 ARG B   2      -8.524 -18.818 -34.068  1.00 40.00 LIG 0.17  HD
ATOM     17 1HH2 ARG B   2      -7.922 -18.383 -30.851  1.00 54.23 LIG 0.17  HD
ATOM     18 2HH2 ARG B   2      -7.378 -18.999 -32.093  1.00 54.23 LIG 0.17  HD
ENDBRANCH 9 10
ENDBRANCH 8 9
ENDBRANCH 7 8
ENDBRANCH 6 7
BRANCH 6 19
ATOM     19  N   ARG B   2     -13.321 -18.919 -29.015  1.00 29.89 LIG-0.35  N 
ATOM     20  C   ASN B   1     -13.793 -17.996 -28.188  1.00 39.87 LIG 0.25  C 
ATOM     21 O    ASN B   1     -14.192 -16.891 -28.579  1.00 37.46 LIG-0.27  OA
ATOM     22 H    ARG B   2     -12.841 -19.591 -28.774  1.00 29.89 LIG 0.16  HD
BRANCH 20 23
ATOM     23  CA  ASN B   1     -13.804 -18.379 -26.697  1.00 47.73 LIG 0.28  C 
BRANCH 23 24
ATOM     24  N   ASN B   1     -13.977 -19.788 -26.442  1.00 51.86 LIG-0.07  N 
ATOM     25 H3   ASN B   1     -13.307 -20.241 -26.812  1.00 51.86 LIG 0.28  HD
ATOM     26 H1   ASN B   1     -13.983 -19.932 -25.564  1.00 51.86 LIG 0.28  HD
ATOM     27 H2   ASN B   1     -14.748 -20.060 -26.792  1.00 51.86 LIG 0.28  HD
ENDBRANCH 23 24
BRANCH 23 28
ATOM     28  CB  ASN B   1     -12.554 -17.929 -25.969  1.00 49.79 LIG 0.14  C 
BRANCH 28 29
ATOM     29  CG  ASN B   1     -12.399 -16.428 -26.020  1.00 59.47 LIG 0.22  C 
ATOM     30  ND2 ASN B   1     -12.849 -15.738 -24.966  1.00 63.81 LIG-0.37  N 
ATOM     31 21HD ASN B   1     -12.802 -14.880 -24.962  1.00 63.81 LIG 0.16  HD
ATOM     32 22HD ASN B   1     -13.185 -16.154 -24.293  1.00 63.81 LIG 0.16  HD
ATOM     33 OD1  ASN B   1     -11.910 -15.885 -27.008  1.00 60.25 LIG-0.27  OA
ENDBRANCH 28 29
ENDBRANCH 23 28
ENDBRANCH 20 23
ENDBRANCH 6 19
ENDBRANCH 3 6
ENDBRANCH 1 2
BRANCH 1 34
ATOM     34  CB  LEU B   3     -15.920 -22.522 -28.642  1.00 28.79 LIG 0.04  C 
BRANCH 34 35
ATOM     35  CG  LEU B   3     -14.640 -23.364 -28.685  1.00 33.15 LIG-0.02  C 
ATOM     36  CD2 LEU B   3     -13.450 -22.486 -28.320  1.00 30.13 LIG 0.01  C 
ATOM     37  CD1 LEU B   3     -14.384 -24.067 -30.052  1.00 27.67 LIG 0.01  C 
ENDBRANCH 34 35
ENDBRANCH 1 34
BRANCH 1 38
ATOM     38  C   LEU B   3     -17.498 -21.290 -30.204  1.00 20.33 LIG 0.24  C 
ATOM     39  N   LEU B   4     -17.982 -21.772 -31.345  1.00 23.83 LIG-0.35  N 
ATOM     40 H    LEU B   4     -17.529 -22.248 -31.900  1.00 23.83 LIG 0.16  HD
ATOM     41 O    LEU B   3     -18.175 -20.621 -29.430  1.00 22.70 LIG-0.27  OA
BRANCH 39 42
ATOM     42  CA  LEU B   4     -19.360 -21.513 -31.743  1.00 22.91 LIG 0.18  C 
BRANCH 42 43
ATOM     43  C   LEU B   4     -20.290 -22.239 -30.766  1.00 30.74 LIG 0.24  C 
ATOM     44 O    LEU B   4     -21.307 -21.666 -30.282  1.00 30.11 LIG-0.27  OA
ATOM     45  N   LEU B   5     -19.962 -23.479 -30.429  1.00 32.41 LIG-0.35  N 
ATOM     46 H    LEU B   5     -19.324 -23.940 -30.774  1.00 32.41 LIG 0.16  HD
BRANCH 45 47
ATOM     47  CA  LEU B   5     -20.742 -24.145 -29.378  1.00 35.50 LIG 0.18  C 
BRANCH 47 48
ATOM     48  C   LEU B   5     -20.698 -23.336 -28.087  1.00 33.38 LIG 0.24  C 
ATOM     49 O    LEU B   5     -19.610 -23.003 -27.568  1.00 25.58 LIG-0.27  OA
ATOM     50  N   THR B   6     -21.891 -23.037 -27.581  1.00 32.99 LIG-0.34  N 
ATOM     51 H    THR B   6     -22.623 -23.149 -28.018  1.00 32.99 LIG 0.16  HD
BRANCH 50 52
ATOM     52  CA  THR B   6     -22.095 -22.491 -26.247  1.00 39.09 LIG 0.19  C 
BRANCH 52 53
ATOM     53  CB  THR B   6     -23.176 -21.377 -26.268  1.00 66.99 LIG 0.14  C 
ATOM     54  CG2 THR B   6     -23.722 -21.123 -24.877  1.00 64.52 LIG 0.04  C 
BRANCH 53 55
ATOM     55 OG1  THR B   6     -22.606 -20.152 -26.769  1.00 68.32 LIG-0.39  OA
ATOM     56 HG1  THR B   6     -21.787 -20.128 -26.586  1.00 68.32 LIG 0.21  HD
ENDBRANCH 53 55
ENDBRANCH 52 53
BRANCH 52 57
ATOM     57  C   THR B   6     -22.569 -23.618 -25.319  1.00 46.48 LIG 0.22  C 
ATOM     58 O    THR B   6     -22.039 -24.739 -25.360  1.00 50.47 LIG-0.29  OA
ENDBRANCH 52 57
ENDBRANCH 50 52
ENDBRANCH 47 48
BRANCH 47 59
ATOM     59  CB  LEU B   5     -20.202 -25.540 -29.091  1.00 41.25 LIG 0.04  C 
BRANCH 59 60
ATOM     60  CG  LEU B   5     -21.201 -26.639 -28.764  1.00 47.99 LIG-0.02  C 
ATOM     61  CD2 LEU B   5     -22.596 -26.195 -29.108  1.00 50.88 LIG 0.01  C 
ATOM     62  CD1 LEU B   5     -21.100 -26.940 -27.283  1.00 54.72 LIG 0.01  C 
ENDBRANCH 59 60
ENDBRANCH 47 59
ENDBRANCH 45 47
ENDBRANCH 42 43
BRANCH 42 63
ATOM     63  CB  LEU B   4     -19.560 -22.114 -33.120  1.00 23.96 LIG 0.04  C 
BRANCH 63 64
ATOM     64  CG  LEU B   4     -20.773 -22.935 -33.499  1.00 38.52 LIG-0.02  C 
ATOM     65  CD1 LEU B   4     -21.457 -22.382 -34.695  1.00 46.71 LIG 0.01  C 
ATOM     66  CD2 LEU B   4     -20.335 -24.394 -33.703  1.00 36.33 LIG 0.01  C 
ENDBRANCH 63 64
ENDBRANCH 42 63
ENDBRANCH 39 42
ENDBRANCH 1 38
TORSDOF 26
ENDMDL
MODEL 20
USER: ADFR SOLUTION from run 161
USER: SCORE 22.851436 LL:  -4.201 LR: -19.352 RR:   0.000 FEB: -11.596
USER: RMSD 11.091359
USER: SEED 160
USER: STATUS no improvement in best in 13 clusters for 5 generations
USER: GENES 28
USER: genes 0 Translation |==|  0.56605 0.54971 0.47020
USER: genes 1 Rotation |==|  0.26251 0.77300 0.82224 0.62341
USER: genes 2 Torsion [C]-CA--N-[C] |==|  0.80569
USER: genes 3 Torsion [N]-C--CA-[N] |==|  0.41667
USER: genes 4 Torsion [C]-CA--CB-[CG] |==|  0.62902
USER: genes 5 Torsion [CA]-CB--CG-[CD] |==|  0.39599
USER: genes 6 Torsion [CB]-CG--CD-[NE] |==|  0.33996
USER: genes 7 Torsion [CG]-CD--NE-[HE] |==|  0.89420
USER: genes 8 Torsion [C]-CA--N-[C] |==|  0.82258
USER: genes 9 Torsion [N]-C--CA-[N] |==|  0.24660
USER: genes 10 Torsion [C]-CA--N-[H3] |==|  0.20319
USER: genes 11 Torsion [C]-CA--CB-[CG] |==|  0.59813
USER: genes 12 Torsion [CA]-CB--CG-[ND2] |==|  0.21641
USER: genes 13 Torsion [N]-CA--CB-[CG] |==|  0.76245
USER: genes 14 Torsion [CA]-CB--CG-[CD1] |==|  0.86179
USER: genes 15 Torsion [N]-CA--C-[N] |==|  0.42316
USER: genes 16 Torsion [C]-N--CA-[CB] |==|  0.53343
USER: genes 17 Torsion [N]-CA--C-[N] |==|  0.32097
USER: genes 18 Torsion [C]-N--CA-[C] |==|  0.67932
USER: genes 19 Torsion [N]-CA--C-[N] |==|  0.03011
USER: genes 20 Torsion [C]-N--CA-[C] |==|  0.82879
USER: genes 21 Torsion [N]-CA--CB-[CG2] |==|  0.32575
USER: genes 22 Torsion [CA]-CB--OG1-[HG1] |==|  0.39275
USER: genes 23 Torsion [N]-CA--C-[O] |==|  0.92360
USER: genes 24 Torsion [N]-CA--CB-[CG] |==|  0.59314
USER: genes 25 Torsion [CA]-CB--CG-[CD2] |==|  0.02764
USER: genes 26 Torsion [N]-CA--CB-[CG] |==|  0.52033
USER: genes 27 Torsion [CA]-CB--CG-[CD1] |==|  0.14610
ROOT
ATOM      1  CA  LEU B   3     -16.467 -21.641 -28.943  1.00 17.18 LIG 0.18  C 
ENDROOT
BRANCH 1 2
ATOM      2  N   LEU B   3     -15.981 -20.485 -28.287  1.00 21.09 LIG-0.35  N 
ATOM      3  C   ARG B   2     -15.631 -19.398 -28.968  1.00 20.79 LIG 0.24  C 
ATOM      4 O    ARG B   2     -15.779 -19.281 -30.202  1.00 18.81 LIG-0.27  OA
ATOM      5 H    LEU B   3     -15.934 -20.553 -27.431  1.00 21.09 LIG 0.16  HD
BRANCH 3 6
ATOM      6  CA  ARG B   2     -14.953 -18.306 -28.150  1.00 21.42 LIG 0.18  C 
BRANCH 6 7
ATOM      7  CB  ARG B   2     -15.949 -17.355 -27.480  1.00 36.36 LIG 0.04  C 
BRANCH 7 8
ATOM      8  CG  ARG B   2     -15.563 -15.900 -27.668  1.00 41.67 LIG 0.02  C 
BRANCH 8 9
ATOM      9  CD  ARG B   2     -16.764 -14.977 -27.882  1.00 51.14 LIG 0.14  C 
BRANCH 9 10
ATOM     10  NE  ARG B   2     -16.817 -13.904 -26.872  1.00 53.41 LIG-0.23  N 
ATOM     11 HE   ARG B   2     -16.593 -14.109 -26.067  1.00 53.41 LIG 0.18  HD
ATOM     12  CZ  ARG B   2     -17.185 -12.638 -27.103  1.00 50.83 LIG 0.67  C 
ATOM     13  NH1 ARG B   2     -17.547 -12.251 -28.319  1.00 40.00 LIG-0.23  N 
ATOM     14  NH2 ARG B   2     -17.201 -11.757 -26.101  1.00 54.23 LIG-0.23  N 
ATOM     15 1HH1 ARG B   2     -17.547 -12.815 -28.968  1.00 40.00 LIG 0.17  HD
ATOM     16 2HH1 ARG B   2     -17.783 -11.435 -28.458  1.00 40.00 LIG 0.17  HD
ATOM     17 1HH2 ARG B   2     -16.975 -12.003 -25.308  1.00 54.23 LIG 0.17  HD
ATOM     18 2HH2 ARG B   2     -17.437 -10.944 -26.248  1.00 54.23 LIG 0.17  HD
ENDBRANCH 9 10
ENDBRANCH 8 9
ENDBRANCH 7 8
ENDBRANCH 6 7
BRANCH 6 19
ATOM     19  N   ARG B   2     -14.046 -17.595 -29.025  1.00 29.89 LIG-0.35  N 
ATOM     20  C   ASN B   1     -13.007 -18.216 -29.566  1.00 39.87 LIG 0.25  C 
ATOM     21 O    ASN B   1     -12.566 -19.286 -29.126  1.00 37.46 LIG-0.27  OA
ATOM     22 H    ARG B   2     -14.240 -16.766 -29.153  1.00 29.89 LIG 0.16  HD
BRANCH 20 23
ATOM     23  CA  ASN B   1     -12.367 -17.515 -30.778  1.00 47.73 LIG 0.28  C 
BRANCH 23 24
ATOM     24  N   ASN B   1     -11.329 -16.571 -30.444  1.00 51.86 LIG-0.07  N 
ATOM     25 H3   ASN B   1     -10.599 -17.010 -30.188  1.00 51.86 LIG 0.28  HD
ATOM     26 H1   ASN B   1     -11.140 -16.072 -31.157  1.00 51.86 LIG 0.28  HD
ATOM     27 H2   ASN B   1     -11.608 -16.046 -29.781  1.00 51.86 LIG 0.28  HD
ENDBRANCH 23 24
BRANCH 23 28
ATOM     28  CB  ASN B   1     -11.792 -18.493 -31.782  1.00 49.79 LIG 0.14  C 
BRANCH 28 29
ATOM     29  CG  ASN B   1     -10.534 -17.952 -32.419  1.00 59.47 LIG 0.22  C 
ATOM     30  ND2 ASN B   1      -9.413 -18.019 -31.692  1.00 63.81 LIG-0.37  N 
ATOM     31 21HD ASN B   1      -8.678 -17.701 -32.005  1.00 63.81 LIG 0.16  HD
ATOM     32 22HD ASN B   1      -9.428 -18.379 -30.912  1.00 63.81 LIG 0.16  HD
ATOM     33 OD1  ASN B   1     -10.570 -17.448 -33.538  1.00 60.25 LIG-0.27  OA
ENDBRANCH 28 29
ENDBRANCH 23 28
ENDBRANCH 20 23
ENDBRANCH 6 19
ENDBRANCH 3 6
ENDBRANCH 1 2
BRANCH 1 34
ATOM     34  CB  LEU B   3     -16.437 -22.853 -27.971  1.00 28.79 LIG 0.04  C 
BRANCH 34 35
ATOM     35  CG  LEU B   3     -15.065 -23.536 -27.970  1.00 33.15 LIG-0.02  C 
ATOM     36  CD2 LEU B   3     -14.071 -22.663 -27.215  1.00 30.13 LIG 0.01  C 
ATOM     37  CD1 LEU B   3     -14.515 -23.864 -29.390  1.00 27.67 LIG 0.01  C 
ENDBRANCH 34 35
ENDBRANCH 1 34
BRANCH 1 38
ATOM     38  C   LEU B   3     -17.846 -21.424 -29.528  1.00 20.33 LIG 0.24  C 
ATOM     39  N   LEU B   4     -18.146 -22.163 -30.591  1.00 23.83 LIG-0.35  N 
ATOM     40 H    LEU B   4     -17.614 -22.737 -30.948  1.00 23.83 LIG 0.16  HD
ATOM     41 O    LEU B   3     -18.634 -20.621 -29.038  1.00 22.70 LIG-0.27  OA
BRANCH 39 42
ATOM     42  CA  LEU B   4     -19.444 -22.044 -31.245  1.00 22.91 LIG 0.18  C 
BRANCH 42 43
ATOM     43  C   LEU B   4     -20.536 -22.177 -30.179  1.00 30.74 LIG 0.24  C 
ATOM     44 O    LEU B   4     -20.714 -23.262 -29.556  1.00 30.11 LIG-0.27  OA
ATOM     45  N   LEU B   5     -21.303 -21.116 -29.965  1.00 32.41 LIG-0.35  N 
ATOM     46 H    LEU B   5     -21.188 -20.337 -30.309  1.00 32.41 LIG 0.16  HD
BRANCH 45 47
ATOM     47  CA  LEU B   5     -22.455 -21.260 -29.066  1.00 35.50 LIG 0.18  C 
BRANCH 47 48
ATOM     48  C   LEU B   5     -23.758 -21.057 -29.830  1.00 33.38 LIG 0.24  C 
ATOM     49 O    LEU B   5     -24.849 -20.941 -29.229  1.00 25.58 LIG-0.27  OA
ATOM     50  N   THR B   6     -23.625 -21.022 -31.152  1.00 32.99 LIG-0.34  N 
ATOM     51 H    THR B   6     -22.860 -20.962 -31.541  1.00 32.99 LIG 0.16  HD
BRANCH 50 52
ATOM     52  CA  THR B   6     -24.742 -21.081 -32.084  1.00 39.09 LIG 0.19  C 
BRANCH 52 53
ATOM     53  CB  THR B   6     -24.239 -20.995 -33.551  1.00 66.99 LIG 0.14  C 
ATOM     54  CG2 THR B   6     -24.575 -22.260 -34.315  1.00 64.52 LIG 0.04  C 
BRANCH 53 55
ATOM     55 OG1  THR B   6     -24.860 -19.877 -34.216  1.00 68.32 LIG-0.39  OA
ATOM     56 HG1  THR B   6     -24.300 -19.504 -34.719  1.00 68.32 LIG 0.21  HD
ENDBRANCH 53 55
ENDBRANCH 52 53
BRANCH 52 57
ATOM     57  C   THR B   6     -25.473 -22.418 -31.894  1.00 46.48 LIG 0.22  C 
ATOM     58 O    THR B   6     -24.870 -23.417 -31.474  1.00 50.47 LIG-0.29  OA
ENDBRANCH 52 57
ENDBRANCH 50 52
ENDBRANCH 47 48
BRANCH 47 59
ATOM     59  CB  LEU B   5     -22.399 -20.244 -27.932  1.00 41.25 LIG 0.04  C 
BRANCH 59 60
ATOM     60  CG  LEU B   5     -22.947 -20.658 -26.576  1.00 47.99 LIG-0.02  C 
ATOM     61  CD2 LEU B   5     -23.241 -22.132 -26.558  1.00 50.88 LIG 0.01  C 
ATOM     62  CD1 LEU B   5     -24.217 -19.871 -26.324  1.00 54.72 LIG 0.01  C 
ENDBRANCH 59 60
ENDBRANCH 47 59
ENDBRANCH 45 47
ENDBRANCH 42 43
BRANCH 42 63
ATOM     63  CB  LEU B   4     -19.581 -23.206 -32.208  1.00 23.96 LIG 0.04  C 
BRANCH 63 64
ATOM     64  CG  LEU B   4     -20.724 -23.340 -33.189  1.00 38.52 LIG-0.02  C 
ATOM     65  CD1 LEU B   4     -20.886 -22.116 -34.013  1.00 46.71 LIG 0.01  C 
ATOM     66  CD2 LEU B   4     -20.491 -24.592 -34.049  1.00 36.33 LIG 0.01  C 
ENDBRANCH 63 64
ENDBRANCH 42 63
ENDBRANCH 39 42
ENDBRANCH 1 38
TORSDOF 26
ENDMDL
MODEL 21
USER: ADFR SOLUTION from run 194
USER: SCORE 21.710364 LL:  -4.330 LR: -19.292 RR:   0.000 FEB: -11.536
USER: RMSD 11.515669
USER: SEED 193
USER: STATUS no improvement in best in 14 clusters for 5 generations
USER: GENES 28
USER: genes 0 Translation |==|  0.56218 0.55161 0.41987
USER: genes 1 Rotation |==|  0.68952 0.17141 0.17596 0.53333
USER: genes 2 Torsion [C]-CA--N-[C] |==|  0.63764
USER: genes 3 Torsion [N]-C--CA-[N] |==|  0.15042
USER: genes 4 Torsion [C]-CA--CB-[CG] |==|  0.18753
USER: genes 5 Torsion [CA]-CB--CG-[CD] |==|  0.26469
USER: genes 6 Torsion [CB]-CG--CD-[NE] |==|  0.63457
USER: genes 7 Torsion [CG]-CD--NE-[HE] |==|  0.14442
USER: genes 8 Torsion [C]-CA--N-[C] |==|  0.77777
USER: genes 9 Torsion [N]-C--CA-[N] |==|  0.80546
USER: genes 10 Torsion [C]-CA--N-[H3] |==|  0.46404
USER: genes 11 Torsion [C]-CA--CB-[CG] |==|  0.45841
USER: genes 12 Torsion [CA]-CB--CG-[ND2] |==|  0.56344
USER: genes 13 Torsion [N]-CA--CB-[CG] |==|  0.77228
USER: genes 14 Torsion [CA]-CB--CG-[CD1] |==|  0.39166
USER: genes 15 Torsion [N]-CA--C-[N] |==|  0.39127
USER: genes 16 Torsion [C]-N--CA-[CB] |==|  0.16187
USER: genes 17 Torsion [N]-CA--C-[N] |==|  0.59778
USER: genes 18 Torsion [C]-N--CA-[C] |==|  0.17672
USER: genes 19 Torsion [N]-CA--C-[N] |==|  0.65463
USER: genes 20 Torsion [C]-N--CA-[C] |==|  0.81443
USER: genes 21 Torsion [N]-CA--CB-[CG2] |==|  0.43523
USER: genes 22 Torsion [CA]-CB--OG1-[HG1] |==|  0.36330
USER: genes 23 Torsion [N]-CA--C-[O] |==|  0.14439
USER: genes 24 Torsion [N]-CA--CB-[CG] |==|  0.75685
USER: genes 25 Torsion [CA]-CB--CG-[CD2] |==|  0.17116
USER: genes 26 Torsion [N]-CA--CB-[CG] |==|  0.64349
USER: genes 27 Torsion [CA]-CB--CG-[CD1] |==|  0.72256
ROOT
ATOM      1  CA  LEU B   3     -16.563 -21.594 -30.000  1.00 17.18 LIG 0.18  C 
ENDROOT
BRANCH 1 2
ATOM      2  N   LEU B   3     -16.185 -20.234 -30.106  1.00 21.09 LIG-0.35  N 
ATOM      3  C   ARG B   2     -15.409 -19.807 -31.099  1.00 20.79 LIG 0.24  C 
ATOM      4 O    ARG B   2     -15.031 -20.536 -32.039  1.00 18.81 LIG-0.27  OA
ATOM      5 H    LEU B   3     -16.495 -19.727 -29.485  1.00 21.09 LIG 0.16  HD
BRANCH 3 6
ATOM      6  CA  ARG B   2     -14.933 -18.365 -30.980  1.00 21.42 LIG 0.18  C 
BRANCH 6 7
ATOM      7  CB  ARG B   2     -14.003 -17.948 -32.124  1.00 36.36 LIG 0.04  C 
BRANCH 7 8
ATOM      8  CG  ARG B   2     -14.729 -17.888 -33.455  1.00 41.67 LIG 0.02  C 
BRANCH 8 9
ATOM      9  CD  ARG B   2     -15.224 -16.485 -33.811  1.00 51.14 LIG 0.14  C 
BRANCH 9 10
ATOM     10  NE  ARG B   2     -16.635 -16.494 -34.240  1.00 53.41 LIG-0.23  N 
ATOM     11 HE   ARG B   2     -17.202 -16.880 -33.721  1.00 53.41 LIG 0.18  HD
ATOM     12  CZ  ARG B   2     -17.107 -15.953 -35.369  1.00 50.83 LIG 0.67  C 
ATOM     13  NH1 ARG B   2     -16.290 -15.344 -36.219  1.00 40.00 LIG-0.23  N 
ATOM     14  NH2 ARG B   2     -18.408 -16.034 -35.652  1.00 54.23 LIG-0.23  N 
ATOM     15 1HH1 ARG B   2     -15.449 -15.295 -36.047  1.00 40.00 LIG 0.17  HD
ATOM     16 2HH1 ARG B   2     -16.602 -14.999 -36.943  1.00 40.00 LIG 0.17  HD
ATOM     17 1HH2 ARG B   2     -18.943 -16.433 -35.109  1.00 54.23 LIG 0.17  HD
ATOM     18 2HH2 ARG B   2     -18.713 -15.687 -36.376  1.00 54.23 LIG 0.17  HD
ENDBRANCH 9 10
ENDBRANCH 8 9
ENDBRANCH 7 8
ENDBRANCH 6 7
BRANCH 6 19
ATOM     19  N   ARG B   2     -14.291 -18.213 -29.693  1.00 29.89 LIG-0.35  N 
ATOM     20  C   ASN B   1     -15.017 -18.045 -28.595  1.00 39.87 LIG 0.25  C 
ATOM     21 O    ASN B   1     -16.201 -17.687 -28.627  1.00 37.46 LIG-0.27  OA
ATOM     22 H    ARG B   2     -13.432 -18.242 -29.710  1.00 29.89 LIG 0.16  HD
BRANCH 20 23
ATOM     23  CA  ASN B   1     -14.288 -18.312 -27.266  1.00 47.73 LIG 0.28  C 
BRANCH 23 24
ATOM     24  N   ASN B   1     -13.977 -19.699 -27.022  1.00 51.86 LIG-0.07  N 
ATOM     25 H3   ASN B   1     -13.402 -19.760 -26.345  1.00 51.86 LIG 0.28  HD
ATOM     26 H1   ASN B   1     -14.723 -20.139 -26.818  1.00 51.86 LIG 0.28  HD
ATOM     27 H2   ASN B   1     -13.614 -20.055 -27.752  1.00 51.86 LIG 0.28  HD
ENDBRANCH 23 24
BRANCH 23 28
ATOM     28  CB  ASN B   1     -13.001 -17.522 -27.136  1.00 49.79 LIG 0.14  C 
BRANCH 28 29
ATOM     29  CG  ASN B   1     -12.503 -17.515 -25.710  1.00 59.47 LIG 0.22  C 
ATOM     30  ND2 ASN B   1     -11.687 -16.514 -25.362  1.00 63.81 LIG-0.37  N 
ATOM     31 21HD ASN B   1     -11.361 -16.482 -24.567  1.00 63.81 LIG 0.16  HD
ATOM     32 22HD ASN B   1     -11.490 -15.902 -25.933  1.00 63.81 LIG 0.16  HD
ATOM     33 OD1  ASN B   1     -12.818 -18.414 -24.935  1.00 60.25 LIG-0.27  OA
ENDBRANCH 28 29
ENDBRANCH 23 28
ENDBRANCH 20 23
ENDBRANCH 6 19
ENDBRANCH 3 6
ENDBRANCH 1 2
BRANCH 1 34
ATOM     34  CB  LEU B   3     -15.749 -22.282 -28.869  1.00 28.79 LIG 0.04  C 
BRANCH 34 35
ATOM     35  CG  LEU B   3     -14.362 -22.710 -29.359  1.00 33.15 LIG-0.02  C 
ATOM     36  CD2 LEU B   3     -14.410 -24.170 -29.790  1.00 30.13 LIG 0.01  C 
ATOM     37  CD1 LEU B   3     -13.223 -22.499 -28.318  1.00 27.67 LIG 0.01  C 
ENDBRANCH 34 35
ENDBRANCH 1 34
BRANCH 1 38
ATOM     38  C   LEU B   3     -18.054 -21.755 -29.796  1.00 20.33 LIG 0.24  C 
ATOM     39  N   LEU B   4     -18.620 -22.769 -30.442  1.00 23.83 LIG-0.35  N 
ATOM     40 H    LEU B   4     -18.195 -23.317 -30.950  1.00 23.83 LIG 0.16  HD
ATOM     41 O    LEU B   3     -18.689 -20.996 -29.070  1.00 22.70 LIG-0.27  OA
BRANCH 39 42
ATOM     42  CA  LEU B   4     -20.050 -23.027 -30.326  1.00 22.91 LIG 0.18  C 
BRANCH 42 43
ATOM     43  C   LEU B   4     -20.414 -24.173 -31.276  1.00 30.74 LIG 0.24  C 
ATOM     44 O    LEU B   4     -19.602 -25.114 -31.506  1.00 30.11 LIG-0.27  OA
ATOM     45  N   LEU B   5     -21.599 -24.114 -31.866  1.00 32.41 LIG-0.35  N 
ATOM     46 H    LEU B   5     -22.215 -23.537 -31.700  1.00 32.41 LIG 0.16  HD
BRANCH 45 47
ATOM     47  CA  LEU B   5     -21.913 -25.110 -32.898  1.00 35.50 LIG 0.18  C 
BRANCH 47 48
ATOM     48  C   LEU B   5     -21.941 -26.511 -32.298  1.00 33.38 LIG 0.24  C 
ATOM     49 O    LEU B   5     -22.677 -26.784 -31.325  1.00 25.58 LIG-0.27  OA
ATOM     50  N   THR B   6     -21.129 -27.382 -32.889  1.00 32.99 LIG-0.34  N 
ATOM     51 H    THR B   6     -20.739 -27.220 -33.638  1.00 32.99 LIG 0.16  HD
BRANCH 50 52
ATOM     52  CA  THR B   6     -20.809 -28.694 -32.345  1.00 39.09 LIG 0.19  C 
BRANCH 52 53
ATOM     53  CB  THR B   6     -19.958 -29.514 -33.353  1.00 66.99 LIG 0.14  C 
ATOM     54  CG2 THR B   6     -19.156 -30.585 -32.641  1.00 64.52 LIG 0.04  C 
BRANCH 53 55
ATOM     55 OG1  THR B   6     -20.821 -30.150 -34.317  1.00 68.32 LIG-0.39  OA
ATOM     56 HG1  THR B   6     -20.533 -30.000 -35.092  1.00 68.32 LIG 0.21  HD
ENDBRANCH 53 55
ENDBRANCH 52 53
BRANCH 52 57
ATOM     57  C   THR B   6     -19.998 -28.509 -31.055  1.00 46.48 LIG 0.22  C 
ATOM     58 O    THR B   6     -20.409 -27.770 -30.147  1.00 50.47 LIG-0.29  OA
ENDBRANCH 52 57
ENDBRANCH 50 52
ENDBRANCH 47 48
BRANCH 47 59
ATOM     59  CB  LEU B   5     -20.881 -25.087 -34.019  1.00 41.25 LIG 0.04  C 
BRANCH 59 60
ATOM     60  CG  LEU B   5     -21.102 -24.123 -35.173  1.00 47.99 LIG-0.02  C 
ATOM     61  CD2 LEU B   5     -21.105 -22.704 -34.676  1.00 50.88 LIG 0.01  C 
ATOM     62  CD1 LEU B   5     -22.435 -24.454 -35.812  1.00 54.72 LIG 0.01  C 
ENDBRANCH 59 60
ENDBRANCH 47 59
ENDBRANCH 45 47
ENDBRANCH 42 43
BRANCH 42 63
ATOM     63  CB  LEU B   4     -20.779 -21.782 -30.788  1.00 23.96 LIG 0.04  C 
BRANCH 63 64
ATOM     64  CG  LEU B   4     -21.855 -21.099 -29.972  1.00 38.52 LIG-0.02  C 
ATOM     65  CD1 LEU B   4     -23.215 -21.464 -30.443  1.00 46.71 LIG 0.01  C 
ATOM     66  CD2 LEU B   4     -21.641 -21.445 -28.490  1.00 36.33 LIG 0.01  C 
ENDBRANCH 63 64
ENDBRANCH 42 63
ENDBRANCH 39 42
ENDBRANCH 1 38
TORSDOF 26
ENDMDL
MODEL 22
USER: ADFR SOLUTION from run 161
USER: SCORE 22.502950 LL:  -3.914 LR: -19.283 RR:   0.000 FEB: -11.527
USER: RMSD 11.632448
USER: SEED 160
USER: STATUS no improvement in best in 13 clusters for 5 generations
USER: GENES 28
USER: genes 0 Translation |==|  0.56890 0.54777 0.47461
USER: genes 1 Rotation |==|  0.26499 0.76914 0.83484 0.60109
USER: genes 2 Torsion [C]-CA--N-[C] |==|  0.78703
USER: genes 3 Torsion [N]-C--CA-[N] |==|  0.41834
USER: genes 4 Torsion [C]-CA--CB-[CG] |==|  0.62278
USER: genes 5 Torsion [CA]-CB--CG-[CD] |==|  0.40759
USER: genes 6 Torsion [CB]-CG--CD-[NE] |==|  0.33885
USER: genes 7 Torsion [CG]-CD--NE-[HE] |==|  0.89285
USER: genes 8 Torsion [C]-CA--N-[C] |==|  0.82355
USER: genes 9 Torsion [N]-C--CA-[N] |==|  0.24858
USER: genes 10 Torsion [C]-CA--N-[H3] |==|  0.19946
USER: genes 11 Torsion [C]-CA--CB-[CG] |==|  0.59667
USER: genes 12 Torsion [CA]-CB--CG-[ND2] |==|  0.21802
USER: genes 13 Torsion [N]-CA--CB-[CG] |==|  0.78944
USER: genes 14 Torsion [CA]-CB--CG-[CD1] |==|  0.86649
USER: genes 15 Torsion [N]-CA--C-[N] |==|  0.41396
USER: genes 16 Torsion [C]-N--CA-[CB] |==|  0.53896
USER: genes 17 Torsion [N]-CA--C-[N] |==|  0.36119
USER: genes 18 Torsion [C]-N--CA-[C] |==|  0.55521
USER: genes 19 Torsion [N]-CA--C-[N] |==|  0.47703
USER: genes 20 Torsion [C]-N--CA-[C] |==|  0.67648
USER: genes 21 Torsion [N]-CA--CB-[CG2] |==|  0.12006
USER: genes 22 Torsion [CA]-CB--OG1-[HG1] |==|  0.15253
USER: genes 23 Torsion [N]-CA--C-[O] |==|  0.17323
USER: genes 24 Torsion [N]-CA--CB-[CG] |==|  0.64146
USER: genes 25 Torsion [CA]-CB--CG-[CD2] |==|  0.03551
USER: genes 26 Torsion [N]-CA--CB-[CG] |==|  0.55238
USER: genes 27 Torsion [CA]-CB--CG-[CD1] |==|  0.13510
ROOT
ATOM      1  CA  LEU B   3     -16.397 -21.689 -28.850  1.00 17.18 LIG 0.18  C 
ENDROOT
BRANCH 1 2
ATOM      2  N   LEU B   3     -15.947 -20.498 -28.232  1.00 21.09 LIG-0.35  N 
ATOM      3  C   ARG B   2     -15.602 -19.433 -28.950  1.00 20.79 LIG 0.24  C 
ATOM      4 O    ARG B   2     -15.725 -19.370 -30.191  1.00 18.81 LIG-0.27  OA
ATOM      5 H    LEU B   3     -15.918 -20.530 -27.373  1.00 21.09 LIG 0.16  HD
BRANCH 3 6
ATOM      6  CA  ARG B   2     -14.963 -18.295 -28.164  1.00 21.42 LIG 0.18  C 
BRANCH 6 7
ATOM      7  CB  ARG B   2     -15.992 -17.345 -27.544  1.00 36.36 LIG 0.04  C 
BRANCH 7 8
ATOM      8  CG  ARG B   2     -15.610 -15.889 -27.733  1.00 41.67 LIG 0.02  C 
BRANCH 8 9
ATOM      9  CD  ARG B   2     -16.816 -14.964 -27.901  1.00 51.14 LIG 0.14  C 
BRANCH 9 10
ATOM     10  NE  ARG B   2     -16.842 -13.904 -26.876  1.00 53.41 LIG-0.23  N 
ATOM     11 HE   ARG B   2     -16.602 -14.121 -26.079  1.00 53.41 LIG 0.18  HD
ATOM     12  CZ  ARG B   2     -17.207 -12.634 -27.082  1.00 50.83 LIG 0.67  C 
ATOM     13  NH1 ARG B   2     -17.592 -12.228 -28.286  1.00 40.00 LIG-0.23  N 
ATOM     14  NH2 ARG B   2     -17.196 -11.766 -26.069  1.00 54.23 LIG-0.23  N 
ATOM     15 1HH1 ARG B   2     -17.609 -12.783 -28.942  1.00 40.00 LIG 0.17  HD
ATOM     16 2HH1 ARG B   2     -17.826 -11.409 -28.409  1.00 40.00 LIG 0.17  HD
ATOM     17 1HH2 ARG B   2     -16.955 -12.023 -25.285  1.00 54.23 LIG 0.17  HD
ATOM     18 2HH2 ARG B   2     -17.431 -10.950 -26.200  1.00 54.23 LIG 0.17  HD
ENDBRANCH 9 10
ENDBRANCH 8 9
ENDBRANCH 7 8
ENDBRANCH 6 7
BRANCH 6 19
ATOM     19  N   ARG B   2     -14.061 -17.594 -29.052  1.00 29.89 LIG-0.35  N 
ATOM     20  C   ASN B   1     -13.003 -18.211 -29.561  1.00 39.87 LIG 0.25  C 
ATOM     21 O    ASN B   1     -12.545 -19.256 -29.081  1.00 37.46 LIG-0.27  OA
ATOM     22 H    ARG B   2     -14.271 -16.775 -29.210  1.00 29.89 LIG 0.16  HD
BRANCH 20 23
ATOM     23  CA  ASN B   1     -12.363 -17.537 -30.788  1.00 47.73 LIG 0.28  C 
BRANCH 23 24
ATOM     24  N   ASN B   1     -11.338 -16.572 -30.475  1.00 51.86 LIG-0.07  N 
ATOM     25 H3   ASN B   1     -10.611 -16.995 -30.184  1.00 51.86 LIG 0.28  HD
ATOM     26 H1   ASN B   1     -11.137 -16.104 -31.205  1.00 51.86 LIG 0.28  HD
ATOM     27 H2   ASN B   1     -11.634 -16.020 -29.842  1.00 51.86 LIG 0.28  HD
ENDBRANCH 23 24
BRANCH 23 28
ATOM     28  CB  ASN B   1     -11.772 -18.536 -31.762  1.00 49.79 LIG 0.14  C 
BRANCH 28 29
ATOM     29  CG  ASN B   1     -10.524 -17.993 -32.416  1.00 59.47 LIG 0.22  C 
ATOM     30  ND2 ASN B   1      -9.399 -18.029 -31.692  1.00 63.81 LIG-0.37  N 
ATOM     31 21HD ASN B   1      -8.670 -17.710 -32.016  1.00 63.81 LIG 0.16  HD
ATOM     32 22HD ASN B   1      -9.406 -18.372 -30.904  1.00 63.81 LIG 0.16  HD
ATOM     33 OD1  ASN B   1     -10.570 -17.515 -33.546  1.00 60.25 LIG-0.27  OA
ENDBRANCH 28 29
ENDBRANCH 23 28
ENDBRANCH 20 23
ENDBRANCH 6 19
ENDBRANCH 3 6
ENDBRANCH 1 2
BRANCH 1 34
ATOM     34  CB  LEU B   3     -16.207 -22.891 -27.883  1.00 28.79 LIG 0.04  C 
BRANCH 34 35
ATOM     35  CG  LEU B   3     -14.738 -23.320 -27.807  1.00 33.15 LIG-0.02  C 
ATOM     36  CD2 LEU B   3     -13.966 -22.320 -26.958  1.00 30.13 LIG 0.01  C 
ATOM     37  CD1 LEU B   3     -14.048 -23.485 -29.194  1.00 27.67 LIG 0.01  C 
ENDBRANCH 34 35
ENDBRANCH 1 34
BRANCH 1 38
ATOM     38  C   LEU B   3     -17.827 -21.575 -29.330  1.00 20.33 LIG 0.24  C 
ATOM     39  N   LEU B   4     -18.134 -22.287 -30.409  1.00 23.83 LIG-0.35  N 
ATOM     40 H    LEU B   4     -17.579 -22.790 -30.832  1.00 23.83 LIG 0.16  HD
ATOM     41 O    LEU B   3     -18.648 -20.873 -28.745  1.00 22.70 LIG-0.27  OA
BRANCH 39 42
ATOM     42  CA  LEU B   4     -19.481 -22.259 -30.968  1.00 22.91 LIG 0.18  C 
BRANCH 42 43
ATOM     43  C   LEU B   4     -20.481 -22.495 -29.831  1.00 30.74 LIG 0.24  C 
ATOM     44 O    LEU B   4     -20.360 -23.479 -29.047  1.00 30.11 LIG-0.27  OA
ATOM     45  N   LEU B   5     -21.491 -21.642 -29.730  1.00 32.41 LIG-0.35  N 
ATOM     46 H    LEU B   5     -21.589 -20.923 -30.191  1.00 32.41 LIG 0.16  HD
BRANCH 45 47
ATOM     47  CA  LEU B   5     -22.550 -21.930 -28.753  1.00 35.50 LIG 0.18  C 
BRANCH 47 48
ATOM     48  C   LEU B   5     -23.820 -21.162 -29.100  1.00 33.38 LIG 0.24  C 
ATOM     49 O    LEU B   5     -23.827 -20.293 -30.000  1.00 25.58 LIG-0.27  OA
ATOM     50  N   THR B   6     -24.882 -21.493 -28.372  1.00 32.99 LIG-0.34  N 
ATOM     51 H    THR B   6     -24.897 -22.183 -27.859  1.00 32.99 LIG 0.16  HD
BRANCH 50 52
ATOM     52  CA  THR B   6     -26.125 -20.735 -28.356  1.00 39.09 LIG 0.19  C 
BRANCH 52 53
ATOM     53  CB  THR B   6     -27.328 -21.646 -28.725  1.00 66.99 LIG 0.14  C 
ATOM     54  CG2 THR B   6     -27.230 -22.986 -28.023  1.00 64.52 LIG 0.04  C 
BRANCH 53 55
ATOM     55 OG1  THR B   6     -28.561 -21.011 -28.334  1.00 68.32 LIG-0.39  OA
ATOM     56 HG1  THR B   6     -28.604 -20.246 -28.679  1.00 68.32 LIG 0.21  HD
ENDBRANCH 53 55
ENDBRANCH 52 53
BRANCH 52 57
ATOM     57  C   THR B   6     -26.347 -20.179 -26.942  1.00 46.48 LIG 0.22  C 
ATOM     58 O    THR B   6     -25.543 -19.378 -26.442  1.00 50.47 LIG-0.29  OA
ENDBRANCH 52 57
ENDBRANCH 50 52
ENDBRANCH 47 48
BRANCH 47 59
ATOM     59  CB  LEU B   5     -22.120 -21.539 -27.345  1.00 41.25 LIG 0.04  C 
BRANCH 59 60
ATOM     60  CG  LEU B   5     -22.272 -22.572 -26.240  1.00 47.99 LIG-0.02  C 
ATOM     61  CD2 LEU B   5     -22.549 -23.928 -26.827  1.00 50.88 LIG 0.01  C 
ATOM     62  CD1 LEU B   5     -23.423 -22.143 -25.353  1.00 54.72 LIG 0.01  C 
ENDBRANCH 59 60
ENDBRANCH 47 59
ENDBRANCH 45 47
ENDBRANCH 42 43
BRANCH 42 63
ATOM     63  CB  LEU B   4     -19.596 -23.411 -31.945  1.00 23.96 LIG 0.04  C 
BRANCH 63 64
ATOM     64  CG  LEU B   4     -20.660 -23.486 -33.018  1.00 38.52 LIG-0.02  C 
ATOM     65  CD1 LEU B   4     -20.754 -22.218 -33.785  1.00 46.71 LIG 0.01  C 
ATOM     66  CD2 LEU B   4     -20.362 -24.692 -33.923  1.00 36.33 LIG 0.01  C 
ENDBRANCH 63 64
ENDBRANCH 42 63
ENDBRANCH 39 42
ENDBRANCH 1 38
TORSDOF 26
ENDMDL
MODEL 23
USER: ADFR SOLUTION from run 49
USER: SCORE 23.485616 LL:  -5.423 LR: -19.275 RR:   0.000 FEB: -11.519
USER: RMSD 4.805377
USER: SEED 48
USER: STATUS no improvement in best in 1 clusters for 5 generations
USER: GENES 28
USER: genes 0 Translation |==|  0.39537 0.54248 0.40377
USER: genes 1 Rotation |==|  0.80862 0.56126 0.54902 0.88548
USER: genes 2 Torsion [C]-CA--N-[C] |==|  0.72954
USER: genes 3 Torsion [N]-C--CA-[N] |==|  0.42228
USER: genes 4 Torsion [C]-CA--CB-[CG] |==|  0.04004
USER: genes 5 Torsion [CA]-CB--CG-[CD] |==|  0.29419
USER: genes 6 Torsion [CB]-CG--CD-[NE] |==|  0.24886
USER: genes 7 Torsion [CG]-CD--NE-[HE] |==|  0.97689
USER: genes 8 Torsion [C]-CA--N-[C] |==|  0.71600
USER: genes 9 Torsion [N]-C--CA-[N] |==|  0.51610
USER: genes 10 Torsion [C]-CA--N-[H3] |==|  0.69537
USER: genes 11 Torsion [C]-CA--CB-[CG] |==|  0.87378
USER: genes 12 Torsion [CA]-CB--CG-[ND2] |==|  0.40645
USER: genes 13 Torsion [N]-CA--CB-[CG] |==|  0.12847
USER: genes 14 Torsion [CA]-CB--CG-[CD1] |==|  0.35837
USER: genes 15 Torsion [N]-CA--C-[N] |==|  0.44189
USER: genes 16 Torsion [C]-N--CA-[CB] |==|  0.21034
USER: genes 17 Torsion [N]-CA--C-[N] |==|  0.42279
USER: genes 18 Torsion [C]-N--CA-[C] |==|  0.77249
USER: genes 19 Torsion [N]-CA--C-[N] |==|  0.42391
USER: genes 20 Torsion [C]-N--CA-[C] |==|  0.56566
USER: genes 21 Torsion [N]-CA--CB-[CG2] |==|  0.48540
USER: genes 22 Torsion [CA]-CB--OG1-[HG1] |==|  0.00146
USER: genes 23 Torsion [N]-CA--C-[O] |==|  0.91796
USER: genes 24 Torsion [N]-CA--CB-[CG] |==|  0.28824
USER: genes 25 Torsion [CA]-CB--CG-[CD2] |==|  0.68704
USER: genes 26 Torsion [N]-CA--CB-[CG] |==|  0.57300
USER: genes 27 Torsion [CA]-CB--CG-[CD1] |==|  0.66517
ROOT
ATOM      1  CA  LEU B   3     -20.692 -21.820 -30.338  1.00 17.18 LIG 0.18  C 
ENDROOT
BRANCH 1 2
ATOM      2  N   LEU B   3     -21.385 -23.042 -30.499  1.00 21.09 LIG-0.35  N 
ATOM      3  C   ARG B   2     -21.203 -23.805 -31.573  1.00 20.79 LIG 0.24  C 
ATOM      4 O    ARG B   2     -20.365 -23.552 -32.464  1.00 18.81 LIG-0.27  OA
ATOM      5 H    LEU B   3     -21.919 -23.238 -29.854  1.00 21.09 LIG 0.16  HD
BRANCH 3 6
ATOM      6  CA  ARG B   2     -22.150 -24.992 -31.699  1.00 21.42 LIG 0.18  C 
BRANCH 6 7
ATOM      7  CB  ARG B   2     -21.680 -26.217 -30.909  1.00 36.36 LIG 0.04  C 
BRANCH 7 8
ATOM      8  CG  ARG B   2     -20.588 -25.870 -29.915  1.00 41.67 LIG 0.02  C 
BRANCH 8 9
ATOM      9  CD  ARG B   2     -21.073 -25.850 -28.465  1.00 51.14 LIG 0.14  C 
BRANCH 9 10
ATOM     10  NE  ARG B   2     -20.944 -27.172 -27.826  1.00 53.41 LIG-0.23  N 
ATOM     11 HE   ARG B   2     -20.727 -27.834 -28.330  1.00 53.41 LIG 0.18  HD
ATOM     12  CZ  ARG B   2     -21.137 -27.429 -26.527  1.00 50.83 LIG 0.67  C 
ATOM     13  NH1 ARG B   2     -21.476 -26.457 -25.689  1.00 40.00 LIG-0.23  N 
ATOM     14  NH2 ARG B   2     -20.998 -28.674 -26.067  1.00 54.23 LIG-0.23  N 
ATOM     15 1HH1 ARG B   2     -21.575 -25.654 -25.979  1.00 40.00 LIG 0.17  HD
ATOM     16 2HH1 ARG B   2     -21.599 -26.631 -24.855  1.00 40.00 LIG 0.17  HD
ATOM     17 1HH2 ARG B   2     -20.786 -29.310 -26.605  1.00 54.23 LIG 0.17  HD
ATOM     18 2HH2 ARG B   2     -21.122 -28.840 -25.233  1.00 54.23 LIG 0.17  HD
ENDBRANCH 9 10
ENDBRANCH 8 9
ENDBRANCH 7 8
ENDBRANCH 6 7
BRANCH 6 19
ATOM     19  N   ARG B   2     -22.300 -25.293 -33.106  1.00 29.89 LIG-0.35  N 
ATOM     20  C   ASN B   1     -23.388 -24.916 -33.763  1.00 39.87 LIG 0.25  C 
ATOM     21 O    ASN B   1     -24.439 -24.600 -33.189  1.00 37.46 LIG-0.27  OA
ATOM     22 H    ARG B   2     -21.642 -25.722 -33.458  1.00 29.89 LIG 0.16  HD
BRANCH 20 23
ATOM     23  CA  ASN B   1     -23.271 -24.905 -35.298  1.00 47.73 LIG 0.28  C 
BRANCH 23 24
ATOM     24  N   ASN B   1     -24.421 -24.368 -35.982  1.00 51.86 LIG-0.07  N 
ATOM     25 H3   ASN B   1     -24.852 -25.024 -36.400  1.00 51.86 LIG 0.28  HD
ATOM     26 H1   ASN B   1     -24.966 -23.985 -35.391  1.00 51.86 LIG 0.28  HD
ATOM     27 H2   ASN B   1     -24.156 -23.761 -36.577  1.00 51.86 LIG 0.28  HD
ENDBRANCH 23 24
BRANCH 23 28
ATOM     28  CB  ASN B   1     -22.051 -24.151 -35.786  1.00 49.79 LIG 0.14  C 
BRANCH 28 29
ATOM     29  CG  ASN B   1     -21.896 -22.834 -35.064  1.00 59.47 LIG 0.22  C 
ATOM     30  ND2 ASN B   1     -20.646 -22.412 -34.841  1.00 63.81 LIG-0.37  N 
ATOM     31 21HD ASN B   1     -20.509 -21.679 -34.413  1.00 63.81 LIG 0.16  HD
ATOM     32 22HD ASN B   1     -19.979 -22.873 -35.127  1.00 63.81 LIG 0.16  HD
ATOM     33 OD1  ASN B   1     -22.883 -22.214 -34.678  1.00 60.25 LIG-0.27  OA
ENDBRANCH 28 29
ENDBRANCH 23 28
ENDBRANCH 20 23
ENDBRANCH 6 19
ENDBRANCH 3 6
ENDBRANCH 1 2
BRANCH 1 34
ATOM     34  CB  LEU B   3     -21.658 -20.732 -29.789  1.00 28.79 LIG 0.04  C 
BRANCH 34 35
ATOM     35  CG  LEU B   3     -22.494 -21.266 -28.621  1.00 33.15 LIG-0.02  C 
ATOM     36  CD2 LEU B   3     -23.930 -21.474 -29.087  1.00 30.13 LIG 0.01  C 
ATOM     37  CD1 LEU B   3     -22.471 -20.361 -27.354  1.00 27.67 LIG 0.01  C 
ENDBRANCH 34 35
ENDBRANCH 1 34
BRANCH 1 38
ATOM     38  C   LEU B   3     -19.465 -21.972 -29.465  1.00 20.33 LIG 0.24  C 
ATOM     39  N   LEU B   4     -18.537 -21.030 -29.601  1.00 23.83 LIG-0.35  N 
ATOM     40 H    LEU B   4     -18.599 -20.364 -30.141  1.00 23.83 LIG 0.16  HD
ATOM     41 O    LEU B   3     -19.348 -22.906 -28.677  1.00 22.70 LIG-0.27  OA
BRANCH 39 42
ATOM     42  CA  LEU B   4     -17.309 -21.068 -28.816  1.00 22.91 LIG 0.18  C 
BRANCH 42 43
ATOM     43  C   LEU B   4     -16.602 -19.716 -28.958  1.00 30.74 LIG 0.24  C 
ATOM     44 O    LEU B   4     -16.727 -19.020 -30.005  1.00 30.11 LIG-0.27  OA
ATOM     45  N   LEU B   5     -15.832 -19.330 -27.950  1.00 32.41 LIG-0.35  N 
ATOM     46 H    LEU B   5     -15.760 -19.728 -27.191  1.00 32.41 LIG 0.16  HD
BRANCH 45 47
ATOM     47  CA  LEU B   5     -15.019 -18.118 -28.120  1.00 35.50 LIG 0.18  C 
BRANCH 47 48
ATOM     48  C   LEU B   5     -13.736 -18.437 -28.879  1.00 33.38 LIG 0.24  C 
ATOM     49 O    LEU B   5     -13.221 -19.576 -28.831  1.00 25.58 LIG-0.27  OA
ATOM     50  N   THR B   6     -13.234 -17.417 -29.568  1.00 32.99 LIG-0.34  N 
ATOM     51 H    THR B   6     -13.669 -16.688 -29.704  1.00 32.99 LIG 0.16  HD
BRANCH 50 52
ATOM     52  CA  THR B   6     -11.905 -17.414 -30.163  1.00 39.09 LIG 0.19  C 
BRANCH 52 53
ATOM     53  CB  THR B   6     -11.926 -18.100 -31.557  1.00 66.99 LIG 0.14  C 
ATOM     54  CG2 THR B   6     -10.577 -17.987 -32.238  1.00 64.52 LIG 0.04  C 
BRANCH 53 55
ATOM     55 OG1  THR B   6     -12.251 -19.496 -31.409  1.00 68.32 LIG-0.39  OA
ATOM     56 HG1  THR B   6     -12.375 -19.672 -30.597  1.00 68.32 LIG 0.21  HD
ENDBRANCH 53 55
ENDBRANCH 52 53
BRANCH 52 57
ATOM     57  C   THR B   6     -11.446 -15.960 -30.339  1.00 46.48 LIG 0.22  C 
ATOM     58 O    THR B   6     -12.271 -15.052 -30.526  1.00 50.47 LIG-0.29  OA
ENDBRANCH 52 57
ENDBRANCH 50 52
ENDBRANCH 47 48
BRANCH 47 59
ATOM     59  CB  LEU B   5     -14.644 -17.513 -26.773  1.00 41.25 LIG 0.04  C 
BRANCH 59 60
ATOM     60  CG  LEU B   5     -13.225 -17.720 -26.268  1.00 47.99 LIG-0.02  C 
ATOM     61  CD2 LEU B   5     -13.227 -18.603 -25.051  1.00 50.88 LIG 0.01  C 
ATOM     62  CD1 LEU B   5     -12.646 -16.363 -25.926  1.00 54.72 LIG 0.01  C 
ENDBRANCH 59 60
ENDBRANCH 47 59
ENDBRANCH 45 47
ENDBRANCH 42 43
BRANCH 42 63
ATOM     63  CB  LEU B   4     -16.414 -22.134 -29.415  1.00 23.96 LIG 0.04  C 
BRANCH 63 64
ATOM     64  CG  LEU B   4     -15.364 -22.878 -28.621  1.00 38.52 LIG-0.02  C 
ATOM     65  CD1 LEU B   4     -14.006 -22.680 -29.188  1.00 46.71 LIG 0.01  C 
ATOM     66  CD2 LEU B   4     -15.451 -22.433 -27.152  1.00 36.33 LIG 0.01  C 
ENDBRANCH 63 64
ENDBRANCH 42 63
ENDBRANCH 39 42
ENDBRANCH 1 38
TORSDOF 26
ENDMDL
MODEL 24
USER: ADFR SOLUTION from run 63
USER: SCORE 22.324129 LL:  -4.949 LR: -19.265 RR:   0.000 FEB: -11.510
USER: RMSD 4.085139
USER: SEED 62
USER: STATUS no improvement in best in 7 clusters for 5 generations
USER: GENES 28
USER: genes 0 Translation |==|  0.44941 0.52897 0.35184
USER: genes 1 Rotation |==|  0.53237 0.51133 0.49575 0.99880
USER: genes 2 Torsion [C]-CA--N-[C] |==|  0.77792
USER: genes 3 Torsion [N]-C--CA-[N] |==|  0.92796
USER: genes 4 Torsion [C]-CA--CB-[CG] |==|  0.21054
USER: genes 5 Torsion [CA]-CB--CG-[CD] |==|  0.25133
USER: genes 6 Torsion [CB]-CG--CD-[NE] |==|  0.90149
USER: genes 7 Torsion [CG]-CD--NE-[HE] |==|  0.11422
USER: genes 8 Torsion [C]-CA--N-[C] |==|  0.81680
USER: genes 9 Torsion [N]-C--CA-[N] |==|  0.51887
USER: genes 10 Torsion [C]-CA--N-[H3] |==|  0.43156
USER: genes 11 Torsion [C]-CA--CB-[CG] |==|  0.21253
USER: genes 12 Torsion [CA]-CB--CG-[ND2] |==|  0.12823
USER: genes 13 Torsion [N]-CA--CB-[CG] |==|  0.82645
USER: genes 14 Torsion [CA]-CB--CG-[CD1] |==|  0.54817
USER: genes 15 Torsion [N]-CA--C-[N] |==|  0.37452
USER: genes 16 Torsion [C]-N--CA-[CB] |==|  0.35988
USER: genes 17 Torsion [N]-CA--C-[N] |==|  0.40583
USER: genes 18 Torsion [C]-N--CA-[C] |==|  0.66506
USER: genes 19 Torsion [N]-CA--C-[N] |==|  0.44585
USER: genes 20 Torsion [C]-N--CA-[C] |==|  0.66210
USER: genes 21 Torsion [N]-CA--CB-[CG2] |==|  0.30183
USER: genes 22 Torsion [CA]-CB--OG1-[HG1] |==|  0.05835
USER: genes 23 Torsion [N]-CA--C-[O] |==|  0.01132
USER: genes 24 Torsion [N]-CA--CB-[CG] |==|  0.71869
USER: genes 25 Torsion [CA]-CB--CG-[CD2] |==|  0.28405
USER: genes 26 Torsion [N]-CA--CB-[CG] |==|  0.82693
USER: genes 27 Torsion [CA]-CB--CG-[CD1] |==|  0.55268
ROOT
ATOM      1  CA  LEU B   3     -19.354 -22.154 -31.428  1.00 17.18 LIG 0.18  C 
ENDROOT
BRANCH 1 2
ATOM      2  N   LEU B   3     -20.340 -22.676 -30.558  1.00 21.09 LIG-0.35  N 
ATOM      3  C   ARG B   2     -20.155 -23.822 -29.910  1.00 20.79 LIG 0.24  C 
ATOM      4 O    ARG B   2     -19.090 -24.472 -29.952  1.00 18.81 LIG-0.27  OA
ATOM      5 H    LEU B   3     -21.049 -22.194 -30.492  1.00 21.09 LIG 0.16  HD
BRANCH 3 6
ATOM      6  CA  ARG B   2     -21.371 -24.351 -29.160  1.00 21.42 LIG 0.18  C 
BRANCH 6 7
ATOM      7  CB  ARG B   2     -22.141 -25.417 -29.947  1.00 36.36 LIG 0.04  C 
BRANCH 7 8
ATOM      8  CG  ARG B   2     -21.431 -26.758 -29.935  1.00 41.67 LIG 0.02  C 
BRANCH 8 9
ATOM      9  CD  ARG B   2     -21.851 -27.655 -28.770  1.00 51.14 LIG 0.14  C 
BRANCH 9 10
ATOM     10  NE  ARG B   2     -22.124 -26.876 -27.549  1.00 53.41 LIG-0.23  N 
ATOM     11 HE   ARG B   2     -22.551 -26.135 -27.641  1.00 53.41 LIG 0.18  HD
ATOM     12  CZ  ARG B   2     -21.765 -27.226 -26.308  1.00 50.83 LIG 0.67  C 
ATOM     13  NH1 ARG B   2     -21.102 -28.354 -26.090  1.00 40.00 LIG-0.23  N 
ATOM     14  NH2 ARG B   2     -22.063 -26.429 -25.280  1.00 54.23 LIG-0.23  N 
ATOM     15 1HH1 ARG B   2     -20.900 -28.869 -26.748  1.00 40.00 LIG 0.17  HD
ATOM     16 2HH1 ARG B   2     -20.874 -28.571 -25.289  1.00 40.00 LIG 0.17  HD
ATOM     17 1HH2 ARG B   2     -22.486 -25.693 -25.415  1.00 54.23 LIG 0.17  HD
ATOM     18 2HH2 ARG B   2     -21.833 -26.653 -24.483  1.00 54.23 LIG 0.17  HD
ENDBRANCH 9 10
ENDBRANCH 8 9
ENDBRANCH 7 8
ENDBRANCH 6 7
BRANCH 6 19
ATOM     19  N   ARG B   2     -22.214 -23.223 -28.829  1.00 29.89 LIG-0.35  N 
ATOM     20  C   ASN B   1     -21.795 -22.297 -27.977  1.00 39.87 LIG 0.25  C 
ATOM     21 O    ASN B   1     -20.856 -22.488 -27.192  1.00 37.46 LIG-0.27  OA
ATOM     22 H    ARG B   2     -22.979 -23.215 -29.221  1.00 29.89 LIG 0.16  HD
BRANCH 20 23
ATOM     23  CA  ASN B   1     -22.559 -20.961 -28.014  1.00 47.73 LIG 0.28  C 
BRANCH 23 24
ATOM     24  N   ASN B   1     -21.989 -19.923 -27.192  1.00 51.86 LIG-0.07  N 
ATOM     25 H3   ASN B   1     -22.229 -19.127 -27.510  1.00 51.86 LIG 0.28  HD
ATOM     26 H1   ASN B   1     -22.285 -20.009 -26.357  1.00 51.86 LIG 0.28  HD
ATOM     27 H2   ASN B   1     -21.102 -19.991 -27.201  1.00 51.86 LIG 0.28  HD
ENDBRANCH 23 24
BRANCH 23 28
ATOM     28  CB  ASN B   1     -22.704 -20.410 -29.418  1.00 49.79 LIG 0.14  C 
BRANCH 28 29
ATOM     29  CG  ASN B   1     -23.772 -21.148 -30.190  1.00 59.47 LIG 0.22  C 
ATOM     30  ND2 ASN B   1     -24.933 -21.363 -29.560  1.00 63.81 LIG-0.37  N 
ATOM     31 21HD ASN B   1     -25.561 -21.799 -29.953  1.00 63.81 LIG 0.16  HD
ATOM     32 22HD ASN B   1     -25.050 -21.064 -28.762  1.00 63.81 LIG 0.16  HD
ATOM     33 OD1  ASN B   1     -23.552 -21.551 -31.328  1.00 60.25 LIG-0.27  OA
ENDBRANCH 28 29
ENDBRANCH 23 28
ENDBRANCH 20 23
ENDBRANCH 6 19
ENDBRANCH 3 6
ENDBRANCH 1 2
BRANCH 1 34
ATOM     34  CB  LEU B   3     -20.018 -21.224 -32.483  1.00 28.79 LIG 0.04  C 
BRANCH 34 35
ATOM     35  CG  LEU B   3     -21.005 -21.995 -33.365  1.00 33.15 LIG-0.02  C 
ATOM     36  CD2 LEU B   3     -20.431 -23.371 -33.676  1.00 30.13 LIG 0.01  C 
ATOM     37  CD1 LEU B   3     -21.384 -21.264 -34.688  1.00 27.67 LIG 0.01  C 
ENDBRANCH 34 35
ENDBRANCH 1 34
BRANCH 1 38
ATOM     38  C   LEU B   3     -18.247 -21.449 -30.676  1.00 20.33 LIG 0.24  C 
ATOM     39  N   LEU B   4     -17.009 -21.732 -31.068  1.00 23.83 LIG-0.35  N 
ATOM     40 H    LEU B   4     -16.815 -22.277 -31.704  1.00 23.83 LIG 0.16  HD
ATOM     41 O    LEU B   3     -18.488 -20.659 -29.768  1.00 22.70 LIG-0.27  OA
BRANCH 39 42
ATOM     42  CA  LEU B   4     -15.858 -21.117 -30.418  1.00 22.91 LIG 0.18  C 
BRANCH 42 43
ATOM     43  C   LEU B   4     -15.164 -20.201 -31.431  1.00 30.74 LIG 0.24  C 
ATOM     44 O    LEU B   4     -15.106 -20.505 -32.657  1.00 30.11 LIG-0.27  OA
ATOM     45  N   LEU B   5     -14.601 -19.096 -30.960  1.00 32.41 LIG-0.35  N 
ATOM     46 H    LEU B   5     -14.664 -18.806 -30.153  1.00 32.41 LIG 0.16  HD
BRANCH 45 47
ATOM     47  CA  LEU B   5     -13.796 -18.279 -31.876  1.00 35.50 LIG 0.18  C 
BRANCH 47 48
ATOM     48  C   LEU B   5     -12.365 -18.154 -31.365  1.00 33.38 LIG 0.24  C 
ATOM     49 O    LEU B   5     -12.086 -18.371 -30.165  1.00 25.58 LIG-0.27  OA
ATOM     50  N   THR B   6     -11.477 -17.799 -32.288  1.00 32.99 LIG-0.34  N 
ATOM     51 H    THR B   6     -11.658 -17.791 -33.128  1.00 32.99 LIG 0.16  HD
BRANCH 50 52
ATOM     52  CA  THR B   6     -10.113 -17.386 -31.988  1.00 39.09 LIG 0.19  C 
BRANCH 52 53
ATOM     53  CB  THR B   6      -9.090 -18.343 -32.657  1.00 66.99 LIG 0.14  C 
ATOM     54  CG2 THR B   6      -8.385 -17.662 -33.813  1.00 64.52 LIG 0.04  C 
BRANCH 53 55
ATOM     55 OG1  THR B   6      -8.101 -18.753 -31.692  1.00 68.32 LIG-0.39  OA
ATOM     56 HG1  THR B   6      -8.405 -18.647 -30.916  1.00 68.32 LIG 0.21  HD
ENDBRANCH 53 55
ENDBRANCH 52 53
BRANCH 52 57
ATOM     57  C   THR B   6      -9.894 -15.970 -32.539  1.00 46.48 LIG 0.22  C 
ATOM     58 O    THR B   6     -10.826 -15.340 -33.062  1.00 50.47 LIG-0.29  OA
ENDBRANCH 52 57
ENDBRANCH 50 52
ENDBRANCH 47 48
BRANCH 47 59
ATOM     59  CB  LEU B   5     -14.378 -16.879 -32.023  1.00 41.25 LIG 0.04  C 
BRANCH 59 60
ATOM     60  CG  LEU B   5     -15.192 -16.572 -33.270  1.00 47.99 LIG-0.02  C 
ATOM     61  CD2 LEU B   5     -16.662 -16.596 -32.953  1.00 50.88 LIG 0.01  C 
ATOM     62  CD1 LEU B   5     -14.867 -17.621 -34.313  1.00 54.72 LIG 0.01  C 
ENDBRANCH 59 60
ENDBRANCH 47 59
ENDBRANCH 45 47
ENDBRANCH 42 43
BRANCH 42 63
ATOM     63  CB  LEU B   4     -14.894 -22.225 -30.046  1.00 23.96 LIG 0.04  C 
BRANCH 63 64
ATOM     64  CG  LEU B   4     -15.239 -23.334 -29.077  1.00 38.52 LIG-0.02  C 
ATOM     65  CD1 LEU B   4     -14.021 -24.002 -28.552  1.00 46.71 LIG 0.01  C 
ATOM     66  CD2 LEU B   4     -16.112 -22.753 -27.955  1.00 36.33 LIG 0.01  C 
ENDBRANCH 63 64
ENDBRANCH 42 63
ENDBRANCH 39 42
ENDBRANCH 1 38
TORSDOF 26
ENDMDL
MODEL 25
USER: ADFR SOLUTION from run 114
USER: SCORE 22.256989 LL:  -4.612 LR: -19.154 RR:   0.000 FEB: -11.399
USER: RMSD 11.392885
USER: SEED 113
USER: STATUS no improvement in best in 9 clusters for 5 generations
USER: GENES 28
USER: genes 0 Translation |==|  0.57656 0.55918 0.47315
USER: genes 1 Rotation |==|  0.25754 0.75743 0.82815 0.63140
USER: genes 2 Torsion [C]-CA--N-[C] |==|  0.76605
USER: genes 3 Torsion [N]-C--CA-[N] |==|  0.77259
USER: genes 4 Torsion [C]-CA--CB-[CG] |==|  0.49552
USER: genes 5 Torsion [CA]-CB--CG-[CD] |==|  0.82213
USER: genes 6 Torsion [CB]-CG--CD-[NE] |==|  0.51635
USER: genes 7 Torsion [CG]-CD--NE-[HE] |==|  0.25866
USER: genes 8 Torsion [C]-CA--N-[C] |==|  0.63529
USER: genes 9 Torsion [N]-C--CA-[N] |==|  0.41994
USER: genes 10 Torsion [C]-CA--N-[H3] |==|  0.54329
USER: genes 11 Torsion [C]-CA--CB-[CG] |==|  0.63789
USER: genes 12 Torsion [CA]-CB--CG-[ND2] |==|  0.25397
USER: genes 13 Torsion [N]-CA--CB-[CG] |==|  0.72016
USER: genes 14 Torsion [CA]-CB--CG-[CD1] |==|  0.85346
USER: genes 15 Torsion [N]-CA--C-[N] |==|  0.44365
USER: genes 16 Torsion [C]-N--CA-[CB] |==|  0.52222
USER: genes 17 Torsion [N]-CA--C-[N] |==|  0.33582
USER: genes 18 Torsion [C]-N--CA-[C] |==|  0.66230
USER: genes 19 Torsion [N]-CA--C-[N] |==|  0.05822
USER: genes 20 Torsion [C]-N--CA-[C] |==|  0.80268
USER: genes 21 Torsion [N]-CA--CB-[CG2] |==|  0.29587
USER: genes 22 Torsion [CA]-CB--OG1-[HG1] |==|  0.33655
USER: genes 23 Torsion [N]-CA--C-[O] |==|  0.94866
USER: genes 24 Torsion [N]-CA--CB-[CG] |==|  0.61359
USER: genes 25 Torsion [CA]-CB--CG-[CD2] |==|  0.02032
USER: genes 26 Torsion [N]-CA--CB-[CG] |==|  0.48795
USER: genes 27 Torsion [CA]-CB--CG-[CD1] |==|  0.18970
ROOT
ATOM      1  CA  LEU B   3     -16.207 -21.406 -28.881  1.00 17.18 LIG 0.18  C 
ENDROOT
BRANCH 1 2
ATOM      2  N   LEU B   3     -15.774 -20.284 -28.137  1.00 21.09 LIG-0.35  N 
ATOM      3  C   ARG B   2     -15.171 -19.254 -28.724  1.00 20.79 LIG 0.24  C 
ATOM      4 O    ARG B   2     -15.017 -19.160 -29.960  1.00 18.81 LIG-0.27  OA
ATOM      5 H    LEU B   3     -15.934 -20.331 -27.293  1.00 21.09 LIG 0.16  HD
BRANCH 3 6
ATOM      6  CA  ARG B   2     -14.595 -18.208 -27.778  1.00 21.42 LIG 0.18  C 
BRANCH 6 7
ATOM      7  CB  ARG B   2     -13.892 -18.824 -26.564  1.00 36.36 LIG 0.04  C 
BRANCH 7 8
ATOM      8  CG  ARG B   2     -13.293 -17.766 -25.656  1.00 41.67 LIG 0.02  C 
BRANCH 8 9
ATOM      9  CD  ARG B   2     -12.180 -16.957 -26.324  1.00 51.14 LIG 0.14  C 
BRANCH 9 10
ATOM     10  NE  ARG B   2     -11.527 -16.036 -25.375  1.00 53.41 LIG-0.23  N 
ATOM     11 HE   ARG B   2     -10.823 -16.321 -24.970  1.00 53.41 LIG 0.18  HD
ATOM     12  CZ  ARG B   2     -11.938 -14.795 -25.090  1.00 50.83 LIG 0.67  C 
ATOM     13  NH1 ARG B   2     -13.017 -14.290 -25.673  1.00 40.00 LIG-0.23  N 
ATOM     14  NH2 ARG B   2     -11.265 -14.059 -24.203  1.00 54.23 LIG-0.23  N 
ATOM     15 1HH1 ARG B   2     -13.460 -14.761 -26.240  1.00 40.00 LIG 0.17  HD
ATOM     16 2HH1 ARG B   2     -13.275 -13.491 -25.484  1.00 40.00 LIG 0.17  HD
ATOM     17 1HH2 ARG B   2     -10.569 -14.382 -23.816  1.00 54.23 LIG 0.17  HD
ATOM     18 2HH2 ARG B   2     -11.528 -13.261 -24.020  1.00 54.23 LIG 0.17  HD
ENDBRANCH 9 10
ENDBRANCH 8 9
ENDBRANCH 7 8
ENDBRANCH 6 7
BRANCH 6 19
ATOM     19  N   ARG B   2     -15.673 -17.330 -27.378  1.00 29.89 LIG-0.35  N 
ATOM     20  C   ASN B   1     -15.524 -16.013 -27.436  1.00 39.87 LIG 0.25  C 
ATOM     21 O    ASN B   1     -14.414 -15.469 -27.505  1.00 37.46 LIG-0.27  OA
ATOM     22 H    ARG B   2     -16.387 -17.729 -27.112  1.00 29.89 LIG 0.16  HD
BRANCH 20 23
ATOM     23  CA  ASN B   1     -16.826 -15.192 -27.399  1.00 47.73 LIG 0.28  C 
BRANCH 23 24
ATOM     24  N   ASN B   1     -16.688 -13.878 -26.822  1.00 51.86 LIG-0.07  N 
ATOM     25 H3   ASN B   1     -17.493 -13.554 -26.625  1.00 51.86 LIG 0.28  HD
ATOM     26 H1   ASN B   1     -16.200 -13.929 -26.079  1.00 51.86 LIG 0.28  HD
ATOM     27 H2   ASN B   1     -16.286 -13.339 -27.404  1.00 51.86 LIG 0.28  HD
ENDBRANCH 23 24
BRANCH 23 28
ATOM     28  CB  ASN B   1     -17.454 -15.031 -28.768  1.00 49.79 LIG 0.14  C 
BRANCH 28 29
ATOM     29  CG  ASN B   1     -17.796 -13.586 -29.048  1.00 59.47 LIG 0.22  C 
ATOM     30  ND2 ASN B   1     -16.861 -12.853 -29.663  1.00 63.81 LIG-0.37  N 
ATOM     31 21HD ASN B   1     -17.004 -12.021 -29.822  1.00 63.81 LIG 0.16  HD
ATOM     32 22HD ASN B   1     -16.118 -13.216 -29.900  1.00 63.81 LIG 0.16  HD
ATOM     33 OD1  ASN B   1     -18.874 -13.120 -28.688  1.00 60.25 LIG-0.27  OA
ENDBRANCH 28 29
ENDBRANCH 23 28
ENDBRANCH 20 23
ENDBRANCH 6 19
ENDBRANCH 3 6
ENDBRANCH 1 2
BRANCH 1 34
ATOM     34  CB  LEU B   3     -16.177 -22.677 -27.986  1.00 28.79 LIG 0.04  C 
BRANCH 34 35
ATOM     35  CG  LEU B   3     -14.933 -23.528 -28.264  1.00 33.15 LIG-0.02  C 
ATOM     36  CD2 LEU B   3     -13.703 -22.808 -27.727  1.00 30.13 LIG 0.01  C 
ATOM     37  CD1 LEU B   3     -14.728 -23.886 -29.766  1.00 27.67 LIG 0.01  C 
ENDBRANCH 34 35
ENDBRANCH 1 34
BRANCH 1 38
ATOM     38  C   LEU B   3     -17.571 -21.187 -29.499  1.00 20.33 LIG 0.24  C 
ATOM     39  N   LEU B   4     -17.873 -21.974 -30.527  1.00 23.83 LIG-0.35  N 
ATOM     40 H    LEU B   4     -17.351 -22.579 -30.844  1.00 23.83 LIG 0.16  HD
ATOM     41 O    LEU B   3     -18.345 -20.339 -29.065  1.00 22.70 LIG-0.27  OA
BRANCH 39 42
ATOM     42  CA  LEU B   4     -19.158 -21.858 -31.207  1.00 22.91 LIG 0.18  C 
BRANCH 42 43
ATOM     43  C   LEU B   4     -20.272 -22.007 -30.166  1.00 30.74 LIG 0.24  C 
ATOM     44 O    LEU B   4     -20.393 -23.065 -29.485  1.00 30.11 LIG-0.27  OA
ATOM     45  N   LEU B   5     -21.117 -20.994 -30.038  1.00 32.41 LIG-0.35  N 
ATOM     46 H    LEU B   5     -21.046 -20.229 -30.424  1.00 32.41 LIG 0.16  HD
BRANCH 45 47
ATOM     47  CA  LEU B   5     -22.285 -21.168 -29.164  1.00 35.50 LIG 0.18  C 
BRANCH 47 48
ATOM     48  C   LEU B   5     -23.575 -20.953 -29.946  1.00 33.38 LIG 0.24  C 
ATOM     49 O    LEU B   5     -24.646 -20.673 -29.364  1.00 25.58 LIG-0.27  OA
ATOM     50  N   THR B   6     -23.453 -21.093 -31.263  1.00 32.99 LIG-0.34  N 
ATOM     51 H    THR B   6     -22.691 -21.145 -31.656  1.00 32.99 LIG 0.16  HD
BRANCH 50 52
ATOM     52  CA  THR B   6     -24.582 -21.173 -32.180  1.00 39.09 LIG 0.19  C 
BRANCH 52 53
ATOM     53  CB  THR B   6     -24.100 -21.072 -33.653  1.00 66.99 LIG 0.14  C 
ATOM     54  CG2 THR B   6     -24.177 -22.420 -34.342  1.00 64.52 LIG 0.04  C 
BRANCH 53 55
ATOM     55 OG1  THR B   6     -24.927 -20.139 -34.375  1.00 68.32 LIG-0.39  OA
ATOM     56 HG1  THR B   6     -24.450 -19.520 -34.683  1.00 68.32 LIG 0.21  HD
ENDBRANCH 53 55
ENDBRANCH 52 53
BRANCH 52 57
ATOM     57  C   THR B   6     -25.282 -22.525 -31.983  1.00 46.48 LIG 0.22  C 
ATOM     58 O    THR B   6     -24.701 -23.465 -31.420  1.00 50.47 LIG-0.29  OA
ENDBRANCH 52 57
ENDBRANCH 50 52
ENDBRANCH 47 48
BRANCH 47 59
ATOM     59  CB  LEU B   5     -22.256 -20.182 -28.003  1.00 41.25 LIG 0.04  C 
BRANCH 59 60
ATOM     60  CG  LEU B   5     -22.668 -20.686 -26.629  1.00 47.99 LIG-0.02  C 
ATOM     61  CD2 LEU B   5     -22.870 -22.176 -26.657  1.00 50.88 LIG 0.01  C 
ATOM     62  CD1 LEU B   5     -23.958 -19.993 -26.242  1.00 54.72 LIG 0.01  C 
ENDBRANCH 59 60
ENDBRANCH 47 59
ENDBRANCH 45 47
ENDBRANCH 42 43
BRANCH 42 63
ATOM     63  CB  LEU B   4     -19.266 -23.012 -32.183  1.00 23.96 LIG 0.04  C 
BRANCH 63 64
ATOM     64  CG  LEU B   4     -20.503 -23.286 -33.009  1.00 38.52 LIG-0.02  C 
ATOM     65  CD1 LEU B   4     -20.723 -22.233 -34.033  1.00 46.71 LIG 0.01  C 
ATOM     66  CD2 LEU B   4     -20.378 -24.685 -33.633  1.00 36.33 LIG 0.01  C 
ENDBRANCH 63 64
ENDBRANCH 42 63
ENDBRANCH 39 42
ENDBRANCH 1 38
TORSDOF 26
ENDMDL
MODEL 26
USER: ADFR SOLUTION from run 51
USER: SCORE 22.215546 LL:  -4.838 LR: -19.145 RR:   0.000 FEB: -11.389
USER: RMSD 11.404167
USER: SEED 50
USER: STATUS no improvement in best in 30 clusters for 5 generations
USER: GENES 28
USER: genes 0 Translation |==|  0.55207 0.57557 0.45337
USER: genes 1 Rotation |==|  0.78035 0.21960 0.19591 0.51739
USER: genes 2 Torsion [C]-CA--N-[C] |==|  0.73197
USER: genes 3 Torsion [N]-C--CA-[N] |==|  0.19326
USER: genes 4 Torsion [C]-CA--CB-[CG] |==|  0.40616
USER: genes 5 Torsion [CA]-CB--CG-[CD] |==|  0.98267
USER: genes 6 Torsion [CB]-CG--CD-[NE] |==|  0.34040
USER: genes 7 Torsion [CG]-CD--NE-[HE] |==|  0.09753
USER: genes 8 Torsion [C]-CA--N-[C] |==|  0.76731
USER: genes 9 Torsion [N]-C--CA-[N] |==|  0.70385
USER: genes 10 Torsion [C]-CA--N-[H3] |==|  0.20874
USER: genes 11 Torsion [C]-CA--CB-[CG] |==|  0.80704
USER: genes 12 Torsion [CA]-CB--CG-[ND2] |==|  0.41617
USER: genes 13 Torsion [N]-CA--CB-[CG] |==|  0.67352
USER: genes 14 Torsion [CA]-CB--CG-[CD1] |==|  0.05561
USER: genes 15 Torsion [N]-CA--C-[N] |==|  0.34319
USER: genes 16 Torsion [C]-N--CA-[CB] |==|  0.43451
USER: genes 17 Torsion [N]-CA--C-[N] |==|  0.48848
USER: genes 18 Torsion [C]-N--CA-[C] |==|  0.70556
USER: genes 19 Torsion [N]-CA--C-[N] |==|  0.44109
USER: genes 20 Torsion [C]-N--CA-[C] |==|  0.52187
USER: genes 21 Torsion [N]-CA--CB-[CG2] |==|  0.35690
USER: genes 22 Torsion [CA]-CB--OG1-[HG1] |==|  0.57161
USER: genes 23 Torsion [N]-CA--C-[O] |==|  0.23005
USER: genes 24 Torsion [N]-CA--CB-[CG] |==|  0.73781
USER: genes 25 Torsion [CA]-CB--CG-[CD2] |==|  0.13241
USER: genes 26 Torsion [N]-CA--CB-[CG] |==|  0.55622
USER: genes 27 Torsion [CA]-CB--CG-[CD1] |==|  0.29457
ROOT
ATOM      1  CA  LEU B   3     -16.813 -21.001 -29.296  1.00 17.18 LIG 0.18  C 
ENDROOT
BRANCH 1 2
ATOM      2  N   LEU B   3     -16.827 -19.591 -29.176  1.00 21.09 LIG-0.35  N 
ATOM      3  C   ARG B   2     -16.527 -18.805 -30.207  1.00 20.79 LIG 0.24  C 
ATOM      4 O    ARG B   2     -16.295 -19.236 -31.356  1.00 18.81 LIG-0.27  OA
ATOM      5 H    LEU B   3     -17.043 -19.301 -28.396  1.00 21.09 LIG 0.16  HD
BRANCH 3 6
ATOM      6  CA  ARG B   2     -16.401 -17.323 -29.882  1.00 21.42 LIG 0.18  C 
BRANCH 6 7
ATOM      7  CB  ARG B   2     -16.378 -16.437 -31.132  1.00 36.36 LIG 0.04  C 
BRANCH 7 8
ATOM      8  CG  ARG B   2     -17.051 -15.099 -30.895  1.00 41.67 LIG 0.02  C 
BRANCH 8 9
ATOM      9  CD  ARG B   2     -17.727 -14.996 -29.527  1.00 51.14 LIG 0.14  C 
BRANCH 9 10
ATOM     10  NE  ARG B   2     -17.207 -13.861 -28.742  1.00 53.41 LIG-0.23  N 
ATOM     11 HE   ARG B   2     -16.991 -13.150 -29.174  1.00 53.41 LIG 0.18  HD
ATOM     12  CZ  ARG B   2     -17.043 -13.846 -27.414  1.00 50.83 LIG 0.67  C 
ATOM     13  NH1 ARG B   2     -17.352 -14.909 -26.682  1.00 40.00 LIG-0.23  N 
ATOM     14  NH2 ARG B   2     -16.553 -12.757 -26.817  1.00 54.23 LIG-0.23  N 
ATOM     15 1HH1 ARG B   2     -17.661 -15.616 -27.061  1.00 40.00 LIG 0.17  HD
ATOM     16 2HH1 ARG B   2     -17.243 -14.890 -25.829  1.00 40.00 LIG 0.17  HD
ATOM     17 1HH2 ARG B   2     -16.344 -12.067 -27.285  1.00 54.23 LIG 0.17  HD
ATOM     18 2HH2 ARG B   2     -16.447 -12.746 -25.964  1.00 54.23 LIG 0.17  HD
ENDBRANCH 9 10
ENDBRANCH 8 9
ENDBRANCH 7 8
ENDBRANCH 6 7
BRANCH 6 19
ATOM     19  N   ARG B   2     -15.209 -17.142 -29.082  1.00 29.89 LIG-0.35  N 
ATOM     20  C   ASN B   1     -15.244 -17.336 -27.770  1.00 39.87 LIG 0.25  C 
ATOM     21 O    ASN B   1     -16.301 -17.350 -27.125  1.00 37.46 LIG-0.27  OA
ATOM     22 H    ARG B   2     -14.508 -16.908 -29.522  1.00 29.89 LIG 0.16  HD
BRANCH 20 23
ATOM     23  CA  ASN B   1     -13.878 -17.530 -27.088  1.00 47.73 LIG 0.28  C 
BRANCH 23 24
ATOM     24  N   ASN B   1     -13.602 -18.884 -26.676  1.00 51.86 LIG-0.07  N 
ATOM     25 H3   ASN B   1     -13.397 -19.376 -27.389  1.00 51.86 LIG 0.28  HD
ATOM     26 H1   ASN B   1     -12.917 -18.888 -26.107  1.00 51.86 LIG 0.28  HD
ATOM     27 H2   ASN B   1     -14.321 -19.225 -26.277  1.00 51.86 LIG 0.28  HD
ENDBRANCH 23 24
BRANCH 23 28
ATOM     28  CB  ASN B   1     -12.722 -17.067 -27.952  1.00 49.79 LIG 0.14  C 
BRANCH 28 29
ATOM     29  CG  ASN B   1     -12.531 -17.974 -29.144  1.00 59.47 LIG 0.22  C 
ATOM     30  ND2 ASN B   1     -12.036 -17.415 -30.254  1.00 63.81 LIG-0.37  N 
ATOM     31 21HD ASN B   1     -11.932 -17.889 -30.964  1.00 63.81 LIG 0.16  HD
ATOM     32 22HD ASN B   1     -11.822 -16.583 -30.257  1.00 63.81 LIG 0.16  HD
ATOM     33 OD1  ASN B   1     -12.852 -19.158 -29.084  1.00 60.25 LIG-0.27  OA
ENDBRANCH 28 29
ENDBRANCH 23 28
ENDBRANCH 20 23
ENDBRANCH 6 19
ENDBRANCH 3 6
ENDBRANCH 1 2
BRANCH 1 34
ATOM     34  CB  LEU B   3     -16.175 -21.633 -28.028  1.00 28.79 LIG 0.04  C 
BRANCH 34 35
ATOM     35  CG  LEU B   3     -14.896 -22.404 -28.371  1.00 33.15 LIG-0.02  C 
ATOM     36  CD2 LEU B   3     -13.885 -22.226 -27.245  1.00 30.13 LIG 0.01  C 
ATOM     37  CD1 LEU B   3     -14.253 -22.002 -29.732  1.00 27.67 LIG 0.01  C 
ENDBRANCH 34 35
ENDBRANCH 1 34
BRANCH 1 38
ATOM     38  C   LEU B   3     -18.191 -21.562 -29.570  1.00 20.33 LIG 0.24  C 
ATOM     39  N   LEU B   4     -18.307 -22.304 -30.667  1.00 23.83 LIG-0.35  N 
ATOM     40 H    LEU B   4     -17.660 -22.473 -31.207  1.00 23.83 LIG 0.16  HD
ATOM     41 O    LEU B   3     -19.135 -21.348 -28.814  1.00 22.70 LIG-0.27  OA
BRANCH 39 42
ATOM     42  CA  LEU B   4     -19.585 -22.899 -31.038  1.00 22.91 LIG 0.18  C 
BRANCH 42 43
ATOM     43  C   LEU B   4     -19.713 -24.251 -30.328  1.00 30.74 LIG 0.24  C 
ATOM     44 O    LEU B   4     -18.757 -24.730 -29.656  1.00 30.11 LIG-0.27  OA
ATOM     45  N   LEU B   5     -20.857 -24.905 -30.480  1.00 32.41 LIG-0.35  N 
ATOM     46 H    LEU B   5     -21.561 -24.602 -30.869  1.00 32.41 LIG 0.16  HD
BRANCH 45 47
ATOM     47  CA  LEU B   5     -20.954 -26.270 -29.945  1.00 35.50 LIG 0.18  C 
BRANCH 47 48
ATOM     48  C   LEU B   5     -20.914 -27.291 -31.075  1.00 33.38 LIG 0.24  C 
ATOM     49 O    LEU B   5     -21.208 -26.971 -32.248  1.00 25.58 LIG-0.27  OA
ATOM     50  N   THR B   6     -20.555 -28.515 -30.701  1.00 32.99 LIG-0.34  N 
ATOM     51 H    THR B   6     -20.222 -28.686 -29.927  1.00 32.99 LIG 0.16  HD
BRANCH 50 52
ATOM     52  CA  THR B   6     -20.679 -29.694 -31.548  1.00 39.09 LIG 0.19  C 
BRANCH 52 53
ATOM     53  CB  THR B   6     -19.687 -29.621 -32.740  1.00 66.99 LIG 0.14  C 
ATOM     54  CG2 THR B   6     -18.866 -30.891 -32.840  1.00 64.52 LIG 0.04  C 
BRANCH 53 55
ATOM     55 OG1  THR B   6     -20.414 -29.445 -33.971  1.00 68.32 LIG-0.39  OA
ATOM     56 HG1  THR B   6     -19.962 -29.749 -34.611  1.00 68.32 LIG 0.21  HD
ENDBRANCH 53 55
ENDBRANCH 52 53
BRANCH 52 57
ATOM     57  C   THR B   6     -20.352 -30.939 -30.711  1.00 46.48 LIG 0.22  C 
ATOM     58 O    THR B   6     -21.213 -31.463 -29.989  1.00 50.47 LIG-0.29  OA
ENDBRANCH 52 57
ENDBRANCH 50 52
ENDBRANCH 47 48
BRANCH 47 59
ATOM     59  CB  LEU B   5     -22.248 -26.465 -29.164  1.00 41.25 LIG 0.04  C 
BRANCH 59 60
ATOM     60  CG  LEU B   5     -22.211 -26.257 -27.659  1.00 47.99 LIG-0.02  C 
ATOM     61  CD2 LEU B   5     -21.506 -24.972 -27.325  1.00 50.88 LIG 0.01  C 
ATOM     62  CD1 LEU B   5     -21.478 -27.430 -27.042  1.00 54.72 LIG 0.01  C 
ENDBRANCH 59 60
ENDBRANCH 47 59
ENDBRANCH 45 47
ENDBRANCH 42 43
BRANCH 42 63
ATOM     63  CB  LEU B   4     -19.557 -23.151 -32.532  1.00 23.96 LIG 0.04  C 
BRANCH 63 64
ATOM     64  CG  LEU B   4     -20.806 -23.335 -33.365  1.00 38.52 LIG-0.02  C 
ATOM     65  CD1 LEU B   4     -21.089 -22.140 -34.200  1.00 46.71 LIG 0.01  C 
ATOM     66  CD2 LEU B   4     -20.650 -24.610 -34.209  1.00 36.33 LIG 0.01  C 
ENDBRANCH 63 64
ENDBRANCH 42 63
ENDBRANCH 39 42
ENDBRANCH 1 38
TORSDOF 26
ENDMDL
MODEL 27
USER: ADFR SOLUTION from run 37
USER: SCORE 21.861553 LL:  -4.505 LR: -19.117 RR:   0.000 FEB: -11.361
USER: RMSD 5.194911
USER: SEED 36
USER: STATUS no improvement in best in 6 clusters for 5 generations
USER: GENES 28
USER: genes 0 Translation |==|  0.45485 0.48305 0.44139
USER: genes 1 Rotation |==|  0.77016 0.67499 0.56452 0.87713
USER: genes 2 Torsion [C]-CA--N-[C] |==|  0.62658
USER: genes 3 Torsion [N]-C--CA-[N] |==|  0.06437
USER: genes 4 Torsion [C]-CA--CB-[CG] |==|  0.42658
USER: genes 5 Torsion [CA]-CB--CG-[CD] |==|  0.90202
USER: genes 6 Torsion [CB]-CG--CD-[NE] |==|  0.70021
USER: genes 7 Torsion [CG]-CD--NE-[HE] |==|  0.95315
USER: genes 8 Torsion [C]-CA--N-[C] |==|  0.19390
USER: genes 9 Torsion [N]-C--CA-[N] |==|  0.97056
USER: genes 10 Torsion [C]-CA--N-[H3] |==|  0.87737
USER: genes 11 Torsion [C]-CA--CB-[CG] |==|  0.18909
USER: genes 12 Torsion [CA]-CB--CG-[ND2] |==|  0.54409
USER: genes 13 Torsion [N]-CA--CB-[CG] |==|  0.60339
USER: genes 14 Torsion [CA]-CB--CG-[CD1] |==|  0.02317
USER: genes 15 Torsion [N]-CA--C-[N] |==|  0.30569
USER: genes 16 Torsion [C]-N--CA-[CB] |==|  0.24741
USER: genes 17 Torsion [N]-CA--C-[N] |==|  0.30317
USER: genes 18 Torsion [C]-N--CA-[C] |==|  0.72778
USER: genes 19 Torsion [N]-CA--C-[N] |==|  0.43291
USER: genes 20 Torsion [C]-N--CA-[C] |==|  0.83679
USER: genes 21 Torsion [N]-CA--CB-[CG2] |==|  0.59641
USER: genes 22 Torsion [CA]-CB--OG1-[HG1] |==|  0.76383
USER: genes 23 Torsion [N]-CA--C-[O] |==|  0.93789
USER: genes 24 Torsion [N]-CA--CB-[CG] |==|  0.59792
USER: genes 25 Torsion [CA]-CB--CG-[CD2] |==|  0.02632
USER: genes 26 Torsion [N]-CA--CB-[CG] |==|  0.61356
USER: genes 27 Torsion [CA]-CB--CG-[CD1] |==|  0.01574
ROOT
ATOM      1  CA  LEU B   3     -19.220 -23.291 -29.548  1.00 17.18 LIG 0.18  C 
ENDROOT
BRANCH 1 2
ATOM      2  N   LEU B   3     -19.441 -24.679 -29.385  1.00 21.09 LIG-0.35  N 
ATOM      3  C   ARG B   2     -20.002 -25.407 -30.346  1.00 20.79 LIG 0.24  C 
ATOM      4 O    ARG B   2     -20.295 -24.954 -31.472  1.00 18.81 LIG-0.27  OA
ATOM      5 H    LEU B   3     -19.185 -24.995 -28.628  1.00 21.09 LIG 0.16  HD
BRANCH 3 6
ATOM      6  CA  ARG B   2     -20.347 -26.840 -29.961  1.00 21.42 LIG 0.18  C 
BRANCH 6 7
ATOM      7  CB  ARG B   2     -21.606 -27.361 -30.664  1.00 36.36 LIG 0.04  C 
BRANCH 7 8
ATOM      8  CG  ARG B   2     -21.594 -28.871 -30.808  1.00 41.67 LIG 0.02  C 
BRANCH 8 9
ATOM      9  CD  ARG B   2     -20.198 -29.443 -31.059  1.00 51.14 LIG 0.14  C 
BRANCH 9 10
ATOM     10  NE  ARG B   2     -20.041 -29.917 -32.447  1.00 53.41 LIG-0.23  N 
ATOM     11 HE   ARG B   2     -20.759 -30.043 -32.903  1.00 53.41 LIG 0.18  HD
ATOM     12  CZ  ARG B   2     -18.876 -30.165 -33.055  1.00 50.83 LIG 0.67  C 
ATOM     13  NH1 ARG B   2     -17.728 -29.995 -32.412  1.00 40.00 LIG-0.23  N 
ATOM     14  NH2 ARG B   2     -18.864 -30.599 -34.317  1.00 54.23 LIG-0.23  N 
ATOM     15 1HH1 ARG B   2     -17.728 -29.723 -31.596  1.00 40.00 LIG 0.17  HD
ATOM     16 2HH1 ARG B   2     -16.983 -30.158 -32.811  1.00 40.00 LIG 0.17  HD
ATOM     17 1HH2 ARG B   2     -19.604 -30.719 -34.738  1.00 54.23 LIG 0.17  HD
ATOM     18 2HH2 ARG B   2     -18.116 -30.760 -34.709  1.00 54.23 LIG 0.17  HD
ENDBRANCH 9 10
ENDBRANCH 8 9
ENDBRANCH 7 8
ENDBRANCH 6 7
BRANCH 6 19
ATOM     19  N   ARG B   2     -20.483 -26.893 -28.522  1.00 29.89 LIG-0.35  N 
ATOM     20  C   ASN B   1     -21.509 -26.305 -27.921  1.00 39.87 LIG 0.25  C 
ATOM     21 O    ASN B   1     -22.196 -25.435 -28.472  1.00 37.46 LIG-0.27  OA
ATOM     22 H    ARG B   2     -19.860 -27.324 -28.114  1.00 29.89 LIG 0.16  HD
BRANCH 20 23
ATOM     23  CA  ASN B   1     -21.789 -26.763 -26.478  1.00 47.73 LIG 0.28  C 
BRANCH 23 24
ATOM     24  N   ASN B   1     -21.051 -27.932 -26.067  1.00 51.86 LIG-0.07  N 
ATOM     25 H3   ASN B   1     -21.072 -28.540 -26.717  1.00 51.86 LIG 0.28  HD
ATOM     26 H1   ASN B   1     -20.206 -27.707 -25.900  1.00 51.86 LIG 0.28  HD
ATOM     27 H2   ASN B   1     -21.419 -28.272 -25.332  1.00 51.86 LIG 0.28  HD
ENDBRANCH 23 24
BRANCH 23 28
ATOM     28  CB  ASN B   1     -21.528 -25.673 -25.458  1.00 49.79 LIG 0.14  C 
BRANCH 28 29
ATOM     29  CG  ASN B   1     -22.530 -24.550 -25.587  1.00 59.47 LIG 0.22  C 
ATOM     30  ND2 ASN B   1     -22.224 -23.396 -24.983  1.00 63.81 LIG-0.37  N 
ATOM     31 21HD ASN B   1     -22.775 -22.737 -25.011  1.00 63.81 LIG 0.16  HD
ATOM     32 22HD ASN B   1     -21.475 -23.314 -24.567  1.00 63.81 LIG 0.16  HD
ATOM     33 OD1  ASN B   1     -23.583 -24.721 -26.195  1.00 60.25 LIG-0.27  OA
ENDBRANCH 28 29
ENDBRANCH 23 28
ENDBRANCH 20 23
ENDBRANCH 6 19
ENDBRANCH 3 6
ENDBRANCH 1 2
BRANCH 1 34
ATOM     34  CB  LEU B   3     -20.327 -22.488 -28.809  1.00 28.79 LIG 0.04  C 
BRANCH 34 35
ATOM     35  CG  LEU B   3     -20.726 -21.233 -29.592  1.00 33.15 LIG-0.02  C 
ATOM     36  CD2 LEU B   3     -22.245 -21.159 -29.681  1.00 30.13 LIG 0.01  C 
ATOM     37  CD1 LEU B   3     -20.105 -21.147 -31.018  1.00 27.67 LIG 0.01  C 
ENDBRANCH 34 35
ENDBRANCH 1 34
BRANCH 1 38
ATOM     38  C   LEU B   3     -17.834 -22.879 -29.099  1.00 20.33 LIG 0.24  C 
ATOM     39  N   LEU B   4     -16.997 -22.516 -30.065  1.00 23.83 LIG-0.35  N 
ATOM     40 H    LEU B   4     -17.198 -22.505 -30.901  1.00 23.83 LIG 0.16  HD
ATOM     41 O    LEU B   3     -17.517 -22.875 -27.913  1.00 22.70 LIG-0.27  OA
BRANCH 39 42
ATOM     42  CA  LEU B   4     -15.633 -22.100 -29.758  1.00 22.91 LIG 0.18  C 
BRANCH 42 43
ATOM     43  C   LEU B   4     -15.149 -21.170 -30.875  1.00 30.74 LIG 0.24  C 
ATOM     44 O    LEU B   4     -14.864 -21.618 -32.022  1.00 30.11 LIG-0.27  OA
ATOM     45  N   LEU B   5     -15.012 -19.886 -30.573  1.00 32.41 LIG-0.35  N 
ATOM     46 H    LEU B   5     -15.251 -19.516 -29.835  1.00 32.41 LIG 0.16  HD
BRANCH 45 47
ATOM     47  CA  LEU B   5     -14.402 -18.998 -31.571  1.00 35.50 LIG 0.18  C 
BRANCH 47 48
ATOM     48  C   LEU B   5     -12.924 -18.785 -31.266  1.00 33.38 LIG 0.24  C 
ATOM     49 O    LEU B   5     -12.477 -18.922 -30.106  1.00 25.58 LIG-0.27  OA
ATOM     50  N   THR B   6     -12.185 -18.445 -32.317  1.00 32.99 LIG-0.34  N 
ATOM     51 H    THR B   6     -12.477 -18.492 -33.125  1.00 32.99 LIG 0.16  HD
BRANCH 50 52
ATOM     52  CA  THR B   6     -10.815 -17.960 -32.226  1.00 39.09 LIG 0.19  C 
BRANCH 52 53
ATOM     53  CB  THR B   6     -10.262 -17.609 -33.634  1.00 66.99 LIG 0.14  C 
ATOM     54  CG2 THR B   6      -8.783 -17.925 -33.730  1.00 64.52 LIG 0.04  C 
BRANCH 53 55
ATOM     55 OG1  THR B   6     -10.961 -18.371 -34.637  1.00 68.32 LIG-0.39  OA
ATOM     56 HG1  THR B   6     -10.602 -19.126 -34.718  1.00 68.32 LIG 0.21  HD
ENDBRANCH 53 55
ENDBRANCH 52 53
BRANCH 52 57
ATOM     57  C   THR B   6     -10.798 -16.691 -31.361  1.00 46.48 LIG 0.22  C 
ATOM     58 O    THR B   6     -11.824 -16.010 -31.212  1.00 50.47 LIG-0.29  OA
ENDBRANCH 52 57
ENDBRANCH 50 52
ENDBRANCH 47 48
BRANCH 47 59
ATOM     59  CB  LEU B   5     -15.090 -17.638 -31.593  1.00 41.25 LIG 0.04  C 
BRANCH 59 60
ATOM     60  CG  LEU B   5     -15.229 -16.930 -32.931  1.00 47.99 LIG-0.02  C 
ATOM     61  CD2 LEU B   5     -14.838 -17.851 -34.053  1.00 50.88 LIG 0.01  C 
ATOM     62  CD1 LEU B   5     -14.324 -15.715 -32.914  1.00 54.72 LIG 0.01  C 
ENDBRANCH 59 60
ENDBRANCH 47 59
ENDBRANCH 45 47
ENDBRANCH 42 43
BRANCH 42 63
ATOM     63  CB  LEU B   4     -14.763 -23.341 -29.766  1.00 23.96 LIG 0.04  C 
BRANCH 63 64
ATOM     64  CG  LEU B   4     -13.671 -23.594 -28.750  1.00 38.52 LIG-0.02  C 
ATOM     65  CD1 LEU B   4     -13.659 -22.555 -27.689  1.00 46.71 LIG 0.01  C 
ATOM     66  CD2 LEU B   4     -13.850 -25.008 -28.177  1.00 36.33 LIG 0.01  C 
ENDBRANCH 63 64
ENDBRANCH 42 63
ENDBRANCH 39 42
ENDBRANCH 1 38
TORSDOF 26
ENDMDL
MODEL 28
USER: ADFR SOLUTION from run 171
USER: SCORE 22.006400 LL:  -4.252 LR: -19.094 RR:   0.000 FEB: -11.339
USER: RMSD 11.873517
USER: SEED 170
USER: STATUS no improvement in best in 13 clusters for 5 generations
USER: GENES 28
USER: genes 0 Translation |==|  0.59509 0.52318 0.46591
USER: genes 1 Rotation |==|  0.72728 0.19306 0.17904 0.53345
USER: genes 2 Torsion [C]-CA--N-[C] |==|  0.58710
USER: genes 3 Torsion [N]-C--CA-[N] |==|  0.23158
USER: genes 4 Torsion [C]-CA--CB-[CG] |==|  0.67784
USER: genes 5 Torsion [CA]-CB--CG-[CD] |==|  0.54706
USER: genes 6 Torsion [CB]-CG--CD-[NE] |==|  0.81429
USER: genes 7 Torsion [CG]-CD--NE-[HE] |==|  0.29252
USER: genes 8 Torsion [C]-CA--N-[C] |==|  0.65869
USER: genes 9 Torsion [N]-C--CA-[N] |==|  0.85498
USER: genes 10 Torsion [C]-CA--N-[H3] |==|  0.62467
USER: genes 11 Torsion [C]-CA--CB-[CG] |==|  0.16278
USER: genes 12 Torsion [CA]-CB--CG-[ND2] |==|  0.22088
USER: genes 13 Torsion [N]-CA--CB-[CG] |==|  0.65988
USER: genes 14 Torsion [CA]-CB--CG-[CD1] |==|  0.61390
USER: genes 15 Torsion [N]-CA--C-[N] |==|  0.25859
USER: genes 16 Torsion [C]-N--CA-[CB] |==|  0.84444
USER: genes 17 Torsion [N]-CA--C-[N] |==|  0.44374
USER: genes 18 Torsion [C]-N--CA-[C] |==|  0.76187
USER: genes 19 Torsion [N]-CA--C-[N] |==|  0.35868
USER: genes 20 Torsion [C]-N--CA-[C] |==|  0.13476
USER: genes 21 Torsion [N]-CA--CB-[CG2] |==|  0.61539
USER: genes 22 Torsion [CA]-CB--OG1-[HG1] |==|  0.77616
USER: genes 23 Torsion [N]-CA--C-[O] |==|  0.11760
USER: genes 24 Torsion [N]-CA--CB-[CG] |==|  0.13267
USER: genes 25 Torsion [CA]-CB--CG-[CD2] |==|  0.63879
USER: genes 26 Torsion [N]-CA--CB-[CG] |==|  0.49548
USER: genes 27 Torsion [CA]-CB--CG-[CD1] |==|  0.33612
ROOT
ATOM      1  CA  LEU B   3     -15.748 -22.297 -29.033  1.00 17.18 LIG 0.18  C 
ENDROOT
BRANCH 1 2
ATOM      2  N   LEU B   3     -15.549 -20.896 -29.031  1.00 21.09 LIG-0.35  N 
ATOM      3  C   ARG B   2     -14.512 -20.344 -29.652  1.00 20.79 LIG 0.24  C 
ATOM      4 O    ARG B   2     -13.696 -20.992 -30.340  1.00 18.81 LIG-0.27  OA
ATOM      5 H    LEU B   3     -16.147 -20.451 -28.602  1.00 21.09 LIG 0.16  HD
BRANCH 3 6
ATOM      6  CA  ARG B   2     -14.324 -18.852 -29.409  1.00 21.42 LIG 0.18  C 
BRANCH 6 7
ATOM      7  CB  ARG B   2     -13.611 -18.143 -30.565  1.00 36.36 LIG 0.04  C 
BRANCH 7 8
ATOM      8  CG  ARG B   2     -12.269 -17.575 -30.144  1.00 41.67 LIG 0.02  C 
BRANCH 8 9
ATOM      9  CD  ARG B   2     -11.723 -16.529 -31.118  1.00 51.14 LIG 0.14  C 
BRANCH 9 10
ATOM     10  NE  ARG B   2     -11.376 -17.123 -32.422  1.00 53.41 LIG-0.23  N 
ATOM     11 HE   ARG B   2     -11.908 -16.969 -33.080  1.00 53.41 LIG 0.18  HD
ATOM     12  CZ  ARG B   2     -10.301 -17.882 -32.669  1.00 50.83 LIG 0.67  C 
ATOM     13  NH1 ARG B   2      -9.437 -18.164 -31.702  1.00 40.00 LIG-0.23  N 
ATOM     14  NH2 ARG B   2     -10.099 -18.371 -33.894  1.00 54.23 LIG-0.23  N 
ATOM     15 1HH1 ARG B   2      -9.565 -17.859 -30.908  1.00 40.00 LIG 0.17  HD
ATOM     16 2HH1 ARG B   2      -8.750 -18.654 -31.869  1.00 40.00 LIG 0.17  HD
ATOM     17 1HH2 ARG B   2     -10.659 -18.198 -34.523  1.00 54.23 LIG 0.17  HD
ATOM     18 2HH2 ARG B   2      -9.410 -18.858 -34.053  1.00 54.23 LIG 0.17  HD
ENDBRANCH 9 10
ENDBRANCH 8 9
ENDBRANCH 7 8
ENDBRANCH 6 7
BRANCH 6 19
ATOM     19  N   ARG B   2     -13.604 -18.692 -28.164  1.00 29.89 LIG-0.35  N 
ATOM     20  C   ASN B   1     -14.121 -17.975 -27.176  1.00 39.87 LIG 0.25  C 
ATOM     21 O    ASN B   1     -15.037 -17.160 -27.350  1.00 37.46 LIG-0.27  OA
ATOM     22 H    ARG B   2     -12.842 -19.090 -28.132  1.00 29.89 LIG 0.16  HD
BRANCH 20 23
ATOM     23  CA  ASN B   1     -13.499 -18.208 -25.786  1.00 47.73 LIG 0.28  C 
BRANCH 23 24
ATOM     24  N   ASN B   1     -13.445 -19.590 -25.379  1.00 51.86 LIG-0.07  N 
ATOM     25 H3   ASN B   1     -13.715 -19.662 -24.534  1.00 51.86 LIG 0.28  HD
ATOM     26 H1   ASN B   1     -13.977 -20.075 -25.903  1.00 51.86 LIG 0.28  HD
ATOM     27 H2   ASN B   1     -12.609 -19.888 -25.449  1.00 51.86 LIG 0.28  HD
ENDBRANCH 23 24
BRANCH 23 28
ATOM     28  CB  ASN B   1     -12.100 -17.639 -25.670  1.00 49.79 LIG 0.14  C 
BRANCH 28 29
ATOM     29  CG  ASN B   1     -12.087 -16.153 -25.941  1.00 59.47 LIG 0.22  C 
ATOM     30  ND2 ASN B   1     -12.478 -15.353 -24.942  1.00 63.81 LIG-0.37  N 
ATOM     31 21HD ASN B   1     -12.508 -14.502 -25.059  1.00 63.81 LIG 0.16  HD
ATOM     32 22HD ASN B   1     -12.697 -15.691 -24.182  1.00 63.81 LIG 0.16  HD
ATOM     33 OD1  ASN B   1     -11.763 -15.724 -27.045  1.00 60.25 LIG-0.27  OA
ENDBRANCH 28 29
ENDBRANCH 23 28
ENDBRANCH 20 23
ENDBRANCH 6 19
ENDBRANCH 3 6
ENDBRANCH 1 2
BRANCH 1 34
ATOM     34  CB  LEU B   3     -14.956 -22.945 -27.863  1.00 28.79 LIG 0.04  C 
BRANCH 34 35
ATOM     35  CG  LEU B   3     -13.972 -24.004 -28.373  1.00 33.15 LIG-0.02  C 
ATOM     36  CD2 LEU B   3     -14.330 -24.372 -29.807  1.00 30.13 LIG 0.01  C 
ATOM     37  CD1 LEU B   3     -13.905 -25.288 -27.494  1.00 27.67 LIG 0.01  C 
ENDBRANCH 34 35
ENDBRANCH 1 34
BRANCH 1 38
ATOM     38  C   LEU B   3     -17.216 -22.663 -28.988  1.00 20.33 LIG 0.24  C 
ATOM     39  N   LEU B   4     -17.800 -22.859 -30.166  1.00 23.83 LIG-0.35  N 
ATOM     40 H    LEU B   4     -17.398 -22.790 -30.923  1.00 23.83 LIG 0.16  HD
ATOM     41 O    LEU B   3     -17.817 -22.779 -27.924  1.00 22.70 LIG-0.27  OA
BRANCH 39 42
ATOM     42  CA  LEU B   4     -19.211 -23.215 -30.252  1.00 22.91 LIG 0.18  C 
BRANCH 42 43
ATOM     43  C   LEU B   4     -20.034 -22.086 -29.625  1.00 30.74 LIG 0.24  C 
ATOM     44 O    LEU B   4     -19.518 -21.281 -28.798  1.00 30.11 LIG-0.27  OA
ATOM     45  N   LEU B   5     -21.315 -22.014 -29.962  1.00 32.41 LIG-0.35  N 
ATOM     46 H    LEU B   5     -21.703 -22.489 -30.564  1.00 32.41 LIG 0.16  HD
BRANCH 45 47
ATOM     47  CA  LEU B   5     -22.166 -21.044 -29.261  1.00 35.50 LIG 0.18  C 
BRANCH 47 48
ATOM     48  C   LEU B   5     -22.706 -21.643 -27.968  1.00 33.38 LIG 0.24  C 
ATOM     49 O    LEU B   5     -23.275 -22.756 -27.958  1.00 25.58 LIG-0.27  OA
ATOM     50  N   THR B   6     -22.523 -20.887 -26.890  1.00 32.99 LIG-0.34  N 
ATOM     51 H    THR B   6     -22.011 -20.196 -26.887  1.00 32.99 LIG 0.16  HD
BRANCH 50 52
ATOM     52  CA  THR B   6     -23.160 -21.136 -25.604  1.00 39.09 LIG 0.19  C 
BRANCH 52 53
ATOM     53  CB  THR B   6     -24.680 -20.825 -25.675  1.00 66.99 LIG 0.14  C 
ATOM     54  CG2 THR B   6     -25.145 -20.103 -24.425  1.00 64.52 LIG 0.04  C 
BRANCH 53 55
ATOM     55 OG1  THR B   6     -24.956 -19.991 -26.817  1.00 68.32 LIG-0.39  OA
ATOM     56 HG1  THR B   6     -24.774 -19.192 -26.632  1.00 68.32 LIG 0.21  HD
ENDBRANCH 53 55
ENDBRANCH 52 53
BRANCH 52 57
ATOM     57  C   THR B   6     -22.978 -22.617 -25.242  1.00 46.48 LIG 0.22  C 
ATOM     58 O    THR B   6     -21.892 -23.187 -25.428  1.00 50.47 LIG-0.29  OA
ENDBRANCH 52 57
ENDBRANCH 50 52
ENDBRANCH 47 48
BRANCH 47 59
ATOM     59  CB  LEU B   5     -23.347 -20.621 -30.125  1.00 41.25 LIG 0.04  C 
BRANCH 59 60
ATOM     60  CG  LEU B   5     -24.152 -21.710 -30.816  1.00 47.99 LIG-0.02  C 
ATOM     61  CD2 LEU B   5     -24.318 -21.390 -32.276  1.00 50.88 LIG 0.01  C 
ATOM     62  CD1 LEU B   5     -25.506 -21.791 -30.143  1.00 54.72 LIG 0.01  C 
ENDBRANCH 59 60
ENDBRANCH 47 59
ENDBRANCH 45 47
ENDBRANCH 42 43
BRANCH 42 63
ATOM     63  CB  LEU B   4     -19.420 -24.468 -29.425  1.00 23.96 LIG 0.04  C 
BRANCH 63 64
ATOM     64  CG  LEU B   4     -20.770 -25.125 -29.241  1.00 38.52 LIG-0.02  C 
ATOM     65  CD1 LEU B   4     -20.766 -26.529 -29.726  1.00 46.71 LIG 0.01  C 
ATOM     66  CD2 LEU B   4     -21.169 -25.023 -27.761  1.00 36.33 LIG 0.01  C 
ENDBRANCH 63 64
ENDBRANCH 42 63
ENDBRANCH 39 42
ENDBRANCH 1 38
TORSDOF 26
ENDMDL
MODEL 29
USER: ADFR SOLUTION from run 147
USER: SCORE 22.362171 LL:  -4.375 LR: -19.082 RR:   0.000 FEB: -11.326
USER: RMSD 12.073453
USER: SEED 146
USER: STATUS no improvement in best in 14 clusters for 5 generations
USER: GENES 28
USER: genes 0 Translation |==|  0.56414 0.54348 0.41668
USER: genes 1 Rotation |==|  0.68762 0.17101 0.17438 0.52324
USER: genes 2 Torsion [C]-CA--N-[C] |==|  0.63823
USER: genes 3 Torsion [N]-C--CA-[N] |==|  0.14116
USER: genes 4 Torsion [C]-CA--CB-[CG] |==|  0.67510
USER: genes 5 Torsion [CA]-CB--CG-[CD] |==|  0.38140
USER: genes 6 Torsion [CB]-CG--CD-[NE] |==|  0.48868
USER: genes 7 Torsion [CG]-CD--NE-[HE] |==|  0.07061
USER: genes 8 Torsion [C]-CA--N-[C] |==|  0.76089
USER: genes 9 Torsion [N]-C--CA-[N] |==|  0.84505
USER: genes 10 Torsion [C]-CA--N-[H3] |==|  0.44704
USER: genes 11 Torsion [C]-CA--CB-[CG] |==|  0.43229
USER: genes 12 Torsion [CA]-CB--CG-[ND2] |==|  0.63027
USER: genes 13 Torsion [N]-CA--CB-[CG] |==|  0.77164
USER: genes 14 Torsion [CA]-CB--CG-[CD1] |==|  0.40091
USER: genes 15 Torsion [N]-CA--C-[N] |==|  0.43990
USER: genes 16 Torsion [C]-N--CA-[CB] |==|  0.51773
USER: genes 17 Torsion [N]-CA--C-[N] |==|  0.44231
USER: genes 18 Torsion [C]-N--CA-[C] |==|  0.78960
USER: genes 19 Torsion [N]-CA--C-[N] |==|  0.86667
USER: genes 20 Torsion [C]-N--CA-[C] |==|  0.19066
USER: genes 21 Torsion [N]-CA--CB-[CG2] |==|  0.48961
USER: genes 22 Torsion [CA]-CB--OG1-[HG1] |==|  0.64510
USER: genes 23 Torsion [N]-CA--C-[O] |==|  0.78286
USER: genes 24 Torsion [N]-CA--CB-[CG] |==|  0.81209
USER: genes 25 Torsion [CA]-CB--CG-[CD2] |==|  0.99949
USER: genes 26 Torsion [N]-CA--CB-[CG] |==|  0.77361
USER: genes 27 Torsion [CA]-CB--CG-[CD1] |==|  0.60337
ROOT
ATOM      1  CA  LEU B   3     -16.515 -21.795 -30.067  1.00 17.18 LIG 0.18  C 
ENDROOT
BRANCH 1 2
ATOM      2  N   LEU B   3     -16.091 -20.447 -30.141  1.00 21.09 LIG-0.35  N 
ATOM      3  C   ARG B   2     -15.286 -20.027 -31.113  1.00 20.79 LIG 0.24  C 
ATOM      4 O    ARG B   2     -14.916 -20.750 -32.062  1.00 18.81 LIG-0.27  OA
ATOM      5 H    LEU B   3     -16.395 -19.941 -29.515  1.00 21.09 LIG 0.16  HD
BRANCH 3 6
ATOM      6  CA  ARG B   2     -14.766 -18.603 -30.960  1.00 21.42 LIG 0.18  C 
BRANCH 6 7
ATOM      7  CB  ARG B   2     -13.742 -18.223 -32.035  1.00 36.36 LIG 0.04  C 
BRANCH 7 8
ATOM      8  CG  ARG B   2     -12.379 -17.919 -31.442  1.00 41.67 LIG 0.02  C 
BRANCH 8 9
ATOM      9  CD  ARG B   2     -11.224 -18.521 -32.243  1.00 51.14 LIG 0.14  C 
BRANCH 9 10
ATOM     10  NE  ARG B   2      -9.913 -18.127 -31.694  1.00 53.41 LIG-0.23  N 
ATOM     11 HE   ARG B   2      -9.881 -17.919 -30.860  1.00 53.41 LIG 0.18  HD
ATOM     12  CZ  ARG B   2      -8.768 -18.066 -32.385  1.00 50.83 LIG 0.67  C 
ATOM     13  NH1 ARG B   2      -8.742 -18.371 -33.677  1.00 40.00 LIG-0.23  N 
ATOM     14  NH2 ARG B   2      -7.644 -17.686 -31.777  1.00 54.23 LIG-0.23  N 
ATOM     15 1HH1 ARG B   2      -9.464 -18.610 -34.077  1.00 40.00 LIG 0.17  HD
ATOM     16 2HH1 ARG B   2      -8.002 -18.329 -34.113  1.00 40.00 LIG 0.17  HD
ATOM     17 1HH2 ARG B   2      -7.655 -17.480 -30.942  1.00 54.23 LIG 0.17  HD
ATOM     18 2HH2 ARG B   2      -6.908 -17.647 -32.219  1.00 54.23 LIG 0.17  HD
ENDBRANCH 9 10
ENDBRANCH 8 9
ENDBRANCH 7 8
ENDBRANCH 6 7
BRANCH 6 19
ATOM     19  N   ARG B   2     -14.211 -18.474 -29.630  1.00 29.89 LIG-0.35  N 
ATOM     20  C   ASN B   1     -14.990 -18.158 -28.604  1.00 39.87 LIG 0.25  C 
ATOM     21 O    ASN B   1     -16.110 -17.649 -28.748  1.00 37.46 LIG-0.27  OA
ATOM     22 H    ARG B   2     -13.364 -18.616 -29.574  1.00 29.89 LIG 0.16  HD
BRANCH 20 23
ATOM     23  CA  ASN B   1     -14.409 -18.453 -27.209  1.00 47.73 LIG 0.28  C 
BRANCH 23 24
ATOM     24  N   ASN B   1     -14.006 -19.822 -27.006  1.00 51.86 LIG-0.07  N 
ATOM     25 H3   ASN B   1     -13.444 -19.868 -26.318  1.00 51.86 LIG 0.28  HD
ATOM     26 H1   ASN B   1     -14.724 -20.321 -26.836  1.00 51.86 LIG 0.28  HD
ATOM     27 H2   ASN B   1     -13.602 -20.125 -27.739  1.00 51.86 LIG 0.28  HD
ENDBRANCH 23 24
BRANCH 23 28
ATOM     28  CB  ASN B   1     -13.225 -17.570 -26.872  1.00 49.79 LIG 0.14  C 
BRANCH 28 29
ATOM     29  CG  ASN B   1     -13.049 -17.435 -25.377  1.00 59.47 LIG 0.22  C 
ATOM     30  ND2 ASN B   1     -12.852 -16.200 -24.902  1.00 63.81 LIG-0.37  N 
ATOM     31 21HD ASN B   1     -12.724 -16.079 -24.061  1.00 63.81 LIG 0.16  HD
ATOM     32 22HD ASN B   1     -12.854 -15.528 -25.438  1.00 63.81 LIG 0.16  HD
ATOM     33 OD1  ASN B   1     -13.056 -18.429 -24.657  1.00 60.25 LIG-0.27  OA
ENDBRANCH 28 29
ENDBRANCH 23 28
ENDBRANCH 20 23
ENDBRANCH 6 19
ENDBRANCH 3 6
ENDBRANCH 1 2
BRANCH 1 34
ATOM     34  CB  LEU B   3     -15.745 -22.529 -28.933  1.00 28.79 LIG 0.04  C 
BRANCH 34 35
ATOM     35  CG  LEU B   3     -14.365 -22.998 -29.407  1.00 33.15 LIG-0.02  C 
ATOM     36  CD2 LEU B   3     -14.474 -24.421 -29.938  1.00 30.13 LIG 0.01  C 
ATOM     37  CD1 LEU B   3     -13.256 -22.920 -28.317  1.00 27.67 LIG 0.01  C 
ENDBRANCH 34 35
ENDBRANCH 1 34
BRANCH 1 38
ATOM     38  C   LEU B   3     -18.013 -21.911 -29.895  1.00 20.33 LIG 0.24  C 
ATOM     39  N   LEU B   4     -18.549 -23.073 -30.255  1.00 23.83 LIG-0.35  N 
ATOM     40 H    LEU B   4     -18.101 -23.736 -30.569  1.00 23.83 LIG 0.16  HD
ATOM     41 O    LEU B   3     -18.682 -20.988 -29.440  1.00 22.70 LIG-0.27  OA
BRANCH 39 42
ATOM     42  CA  LEU B   4     -19.983 -23.306 -30.137  1.00 22.91 LIG 0.18  C 
BRANCH 42 43
ATOM     43  C   LEU B   4     -20.393 -23.074 -28.679  1.00 30.74 LIG 0.24  C 
ATOM     44 O    LEU B   4     -19.549 -23.154 -27.742  1.00 30.11 LIG-0.27  OA
ATOM     45  N   LEU B   5     -21.673 -22.821 -28.445  1.00 32.41 LIG-0.35  N 
ATOM     46 H    LEU B   5     -22.277 -22.690 -29.044  1.00 32.41 LIG 0.16  HD
BRANCH 45 47
ATOM     47  CA  LEU B   5     -22.125 -22.750 -27.050  1.00 35.50 LIG 0.18  C 
BRANCH 47 48
ATOM     48  C   LEU B   5     -22.234 -24.147 -26.451  1.00 33.38 LIG 0.24  C 
ATOM     49 O    LEU B   5     -21.736 -24.415 -25.336  1.00 25.58 LIG-0.27  OA
ATOM     50  N   THR B   6     -22.884 -25.024 -27.210  1.00 32.99 LIG-0.34  N 
ATOM     51 H    THR B   6     -23.339 -24.793 -27.903  1.00 32.99 LIG 0.16  HD
BRANCH 50 52
ATOM     52  CA  THR B   6     -22.902 -26.459 -26.961  1.00 39.09 LIG 0.19  C 
BRANCH 52 53
ATOM     53  CB  THR B   6     -21.460 -27.001 -26.769  1.00 66.99 LIG 0.14  C 
ATOM     54  CG2 THR B   6     -21.477 -28.476 -26.419  1.00 64.52 LIG 0.04  C 
BRANCH 53 55
ATOM     55 OG1  THR B   6     -20.706 -26.826 -27.985  1.00 68.32 LIG-0.39  OA
ATOM     56 HG1  THR B   6     -20.358 -27.557 -28.207  1.00 68.32 LIG 0.21  HD
ENDBRANCH 53 55
ENDBRANCH 52 53
BRANCH 52 57
ATOM     57  C   THR B   6     -23.703 -26.727 -25.679  1.00 46.48 LIG 0.22  C 
ATOM     58 O    THR B   6     -23.196 -26.537 -24.563  1.00 50.47 LIG-0.29  OA
ENDBRANCH 52 57
ENDBRANCH 50 52
ENDBRANCH 47 48
BRANCH 47 59
ATOM     59  CB  LEU B   5     -23.486 -22.074 -26.945  1.00 41.25 LIG 0.04  C 
BRANCH 59 60
ATOM     60  CG  LEU B   5     -23.575 -20.593 -27.278  1.00 47.99 LIG-0.02  C 
ATOM     61  CD2 LEU B   5     -22.222 -20.062 -27.662  1.00 50.88 LIG 0.01  C 
ATOM     62  CD1 LEU B   5     -24.091 -19.867 -26.053  1.00 54.72 LIG 0.01  C 
ENDBRANCH 59 60
ENDBRANCH 47 59
ENDBRANCH 45 47
ENDBRANCH 42 43
BRANCH 42 63
ATOM     63  CB  LEU B   4     -20.241 -24.760 -30.475  1.00 23.96 LIG 0.04  C 
BRANCH 63 64
ATOM     64  CG  LEU B   4     -20.348 -25.277 -31.893  1.00 38.52 LIG-0.02  C 
ATOM     65  CD1 LEU B   4     -21.382 -26.336 -32.014  1.00 46.71 LIG 0.01  C 
ATOM     66  CD2 LEU B   4     -20.620 -24.089 -32.829  1.00 36.33 LIG 0.01  C 
ENDBRANCH 63 64
ENDBRANCH 42 63
ENDBRANCH 39 42
ENDBRANCH 1 38
TORSDOF 26
ENDMDL
MODEL 30
USER: ADFR SOLUTION from run 95
USER: SCORE 23.453616 LL:  -5.060 LR: -19.062 RR:   0.000 FEB: -11.307
USER: RMSD 3.624567
USER: SEED 94
USER: STATUS searching
USER: GENES 28
USER: genes 0 Translation |==|  0.43710 0.49711 0.39760
USER: genes 1 Rotation |==|  0.54736 0.47590 0.51273 0.99701
USER: genes 2 Torsion [C]-CA--N-[C] |==|  0.74144
USER: genes 3 Torsion [N]-C--CA-[N] |==|  0.47466
USER: genes 4 Torsion [C]-CA--CB-[CG] |==|  0.34486
USER: genes 5 Torsion [CA]-CB--CG-[CD] |==|  0.63008
USER: genes 6 Torsion [CB]-CG--CD-[NE] |==|  0.20639
USER: genes 7 Torsion [CG]-CD--NE-[HE] |==|  0.09155
USER: genes 8 Torsion [C]-CA--N-[C] |==|  0.57505
USER: genes 9 Torsion [N]-C--CA-[N] |==|  0.95328
USER: genes 10 Torsion [C]-CA--N-[H3] |==|  0.04877
USER: genes 11 Torsion [C]-CA--CB-[CG] |==|  0.91663
USER: genes 12 Torsion [CA]-CB--CG-[ND2] |==|  0.74590
USER: genes 13 Torsion [N]-CA--CB-[CG] |==|  0.71949
USER: genes 14 Torsion [CA]-CB--CG-[CD1] |==|  0.04973
USER: genes 15 Torsion [N]-CA--C-[N] |==|  0.35993
USER: genes 16 Torsion [C]-N--CA-[CB] |==|  0.52815
USER: genes 17 Torsion [N]-CA--C-[N] |==|  0.45627
USER: genes 18 Torsion [C]-N--CA-[C] |==|  0.86063
USER: genes 19 Torsion [N]-CA--C-[N] |==|  0.88566
USER: genes 20 Torsion [C]-N--CA-[C] |==|  0.80472
USER: genes 21 Torsion [N]-CA--CB-[CG2] |==|  0.70426
USER: genes 22 Torsion [CA]-CB--OG1-[HG1] |==|  0.13097
USER: genes 23 Torsion [N]-CA--C-[O] |==|  0.74966
USER: genes 24 Torsion [N]-CA--CB-[CG] |==|  0.14949
USER: genes 25 Torsion [CA]-CB--CG-[CD2] |==|  0.61705
USER: genes 26 Torsion [N]-CA--CB-[CG] |==|  0.62697
USER: genes 27 Torsion [CA]-CB--CG-[CD1] |==|  0.91949
ROOT
ATOM      1  CA  LEU B   3     -19.659 -22.943 -30.467  1.00 17.18 LIG 0.18  C 
ENDROOT
BRANCH 1 2
ATOM      2  N   LEU B   3     -20.726 -23.571 -29.783  1.00 21.09 LIG-0.35  N 
ATOM      3  C   ARG B   2     -20.652 -24.844 -29.405  1.00 20.79 LIG 0.24  C 
ATOM      4 O    ARG B   2     -19.629 -25.546 -29.545  1.00 18.81 LIG-0.27  OA
ATOM      5 H    LEU B   3     -21.406 -23.064 -29.640  1.00 21.09 LIG 0.16  HD
BRANCH 3 6
ATOM      6  CA  ARG B   2     -21.941 -25.435 -28.848  1.00 21.42 LIG 0.18  C 
BRANCH 6 7
ATOM      7  CB  ARG B   2     -22.378 -24.782 -27.532  1.00 36.36 LIG 0.04  C 
BRANCH 7 8
ATOM      8  CG  ARG B   2     -23.788 -24.228 -27.613  1.00 41.67 LIG 0.02  C 
BRANCH 8 9
ATOM      9  CD  ARG B   2     -23.913 -22.809 -27.056  1.00 51.14 LIG 0.14  C 
BRANCH 9 10
ATOM     10  NE  ARG B   2     -23.335 -21.808 -27.972  1.00 53.41 LIG-0.23  N 
ATOM     11 HE   ARG B   2     -23.392 -21.966 -28.816  1.00 53.41 LIG 0.18  HD
ATOM     12  CZ  ARG B   2     -22.729 -20.674 -27.601  1.00 50.83 LIG 0.67  C 
ATOM     13  NH1 ARG B   2     -22.602 -20.365 -26.317  1.00 40.00 LIG-0.23  N 
ATOM     14  NH2 ARG B   2     -22.237 -19.849 -28.527  1.00 54.23 LIG-0.23  N 
ATOM     15 1HH1 ARG B   2     -22.910 -20.896 -25.714  1.00 40.00 LIG 0.17  HD
ATOM     16 2HH1 ARG B   2     -22.211 -19.634 -26.087  1.00 40.00 LIG 0.17  HD
ATOM     17 1HH2 ARG B   2     -22.310 -20.046 -29.361  1.00 54.23 LIG 0.17  HD
ATOM     18 2HH2 ARG B   2     -21.848 -19.121 -28.290  1.00 54.23 LIG 0.17  HD
ENDBRANCH 9 10
ENDBRANCH 8 9
ENDBRANCH 7 8
ENDBRANCH 6 7
BRANCH 6 19
ATOM     19  N   ARG B   2     -21.746 -26.860 -28.694  1.00 29.89 LIG-0.35  N 
ATOM     20  C   ASN B   1     -22.779 -27.690 -28.750  1.00 39.87 LIG 0.25  C 
ATOM     21 O    ASN B   1     -23.949 -27.311 -28.606  1.00 37.46 LIG-0.27  OA
ATOM     22 H    ARG B   2     -20.931 -27.103 -28.569  1.00 29.89 LIG 0.16  HD
BRANCH 20 23
ATOM     23  CA  ASN B   1     -22.433 -29.170 -28.995  1.00 47.73 LIG 0.28  C 
BRANCH 23 24
ATOM     24  N   ASN B   1     -21.102 -29.397 -29.502  1.00 51.86 LIG-0.07  N 
ATOM     25 H3   ASN B   1     -20.602 -28.676 -29.358  1.00 51.86 LIG 0.28  HD
ATOM     26 H1   ASN B   1     -20.741 -30.096 -29.086  1.00 51.86 LIG 0.28  HD
ATOM     27 H2   ASN B   1     -21.141 -29.561 -30.376  1.00 51.86 LIG 0.28  HD
ENDBRANCH 23 24
BRANCH 23 28
ATOM     28  CB  ASN B   1     -22.604 -30.023 -27.755  1.00 49.79 LIG 0.14  C 
BRANCH 28 29
ATOM     29  CG  ASN B   1     -22.352 -29.223 -26.499  1.00 59.47 LIG 0.22  C 
ATOM     30  ND2 ASN B   1     -21.102 -29.224 -26.024  1.00 63.81 LIG-0.37  N 
ATOM     31 21HD ASN B   1     -20.918 -28.801 -25.299  1.00 63.81 LIG 0.16  HD
ATOM     32 22HD ASN B   1     -20.483 -29.647 -26.444  1.00 63.81 LIG 0.16  HD
ATOM     33 OD1  ASN B   1     -23.274 -28.635 -25.940  1.00 60.25 LIG-0.27  OA
ENDBRANCH 28 29
ENDBRANCH 23 28
ENDBRANCH 20 23
ENDBRANCH 6 19
ENDBRANCH 3 6
ENDBRANCH 1 2
BRANCH 1 34
ATOM     34  CB  LEU B   3     -20.220 -21.983 -31.554  1.00 28.79 LIG 0.04  C 
BRANCH 34 35
ATOM     35  CG  LEU B   3     -20.151 -22.615 -32.948  1.00 33.15 LIG-0.02  C 
ATOM     36  CD2 LEU B   3     -21.401 -22.239 -33.732  1.00 30.13 LIG 0.01  C 
ATOM     37  CD1 LEU B   3     -19.973 -24.162 -32.939  1.00 27.67 LIG 0.01  C 
ENDBRANCH 34 35
ENDBRANCH 1 34
BRANCH 1 38
ATOM     38  C   LEU B   3     -18.717 -22.230 -29.522  1.00 20.33 LIG 0.24  C 
ATOM     39  N   LEU B   4     -17.426 -22.507 -29.673  1.00 23.83 LIG-0.35  N 
ATOM     40 H    LEU B   4     -17.113 -23.051 -30.260  1.00 23.83 LIG 0.16  HD
ATOM     41 O    LEU B   3     -19.129 -21.441 -28.677  1.00 22.70 LIG-0.27  OA
BRANCH 39 42
ATOM     42  CA  LEU B   4     -16.421 -21.884 -28.820  1.00 22.91 LIG 0.18  C 
BRANCH 42 43
ATOM     43  C   LEU B   4     -16.615 -20.366 -28.872  1.00 30.74 LIG 0.24  C 
ATOM     44 O    LEU B   4     -17.290 -19.824 -29.794  1.00 30.11 LIG-0.27  OA
ATOM     45  N   LEU B   5     -16.019 -19.648 -27.930  1.00 32.41 LIG-0.35  N 
ATOM     46 H    LEU B   5     -15.605 -19.963 -27.246  1.00 32.41 LIG 0.16  HD
BRANCH 45 47
ATOM     47  CA  LEU B   5     -16.056 -18.184 -28.042  1.00 35.50 LIG 0.18  C 
BRANCH 47 48
ATOM     48  C   LEU B   5     -15.615 -17.743 -29.433  1.00 33.38 LIG 0.24  C 
ATOM     49 O    LEU B   5     -16.208 -16.823 -30.039  1.00 25.58 LIG-0.27  OA
ATOM     50  N   THR B   6     -14.579 -18.415 -29.924  1.00 32.99 LIG-0.34  N 
ATOM     51 H    THR B   6     -14.098 -18.943 -29.445  1.00 32.99 LIG 0.16  HD
BRANCH 50 52
ATOM     52  CA  THR B   6     -14.142 -18.337 -31.311  1.00 39.09 LIG 0.19  C 
BRANCH 52 53
ATOM     53  CB  THR B   6     -12.773 -19.047 -31.496  1.00 66.99 LIG 0.14  C 
ATOM     54  CG2 THR B   6     -11.659 -18.037 -31.684  1.00 64.52 LIG 0.04  C 
BRANCH 53 55
ATOM     55 OG1  THR B   6     -12.477 -19.848 -30.335  1.00 68.32 LIG-0.39  OA
ATOM     56 HG1  THR B   6     -13.152 -20.304 -30.129  1.00 68.32 LIG 0.21  HD
ENDBRANCH 53 55
ENDBRANCH 52 53
BRANCH 52 57
ATOM     57  C   THR B   6     -15.182 -19.038 -32.196  1.00 46.48 LIG 0.22  C 
ATOM     58 O    THR B   6     -15.088 -20.248 -32.451  1.00 50.47 LIG-0.29  OA
ENDBRANCH 52 57
ENDBRANCH 50 52
ENDBRANCH 47 48
BRANCH 47 59
ATOM     59  CB  LEU B   5     -15.138 -17.530 -27.017  1.00 41.25 LIG 0.04  C 
BRANCH 59 60
ATOM     60  CG  LEU B   5     -13.684 -17.972 -26.975  1.00 47.99 LIG-0.02  C 
ATOM     61  CD2 LEU B   5     -13.226 -18.125 -25.552  1.00 50.88 LIG 0.01  C 
ATOM     62  CD1 LEU B   5     -12.854 -16.920 -27.680  1.00 54.72 LIG 0.01  C 
ENDBRANCH 59 60
ENDBRANCH 47 59
ENDBRANCH 45 47
ENDBRANCH 42 43
BRANCH 42 63
ATOM     63  CB  LEU B   4     -15.060 -22.206 -29.404  1.00 23.96 LIG 0.04  C 
BRANCH 63 64
ATOM     64  CG  LEU B   4     -13.890 -22.679 -28.570  1.00 38.52 LIG-0.02  C 
ATOM     65  CD1 LEU B   4     -13.960 -22.156 -27.182  1.00 46.71 LIG 0.01  C 
ATOM     66  CD2 LEU B   4     -13.845 -24.214 -28.610  1.00 36.33 LIG 0.01  C 
ENDBRANCH 63 64
ENDBRANCH 42 63
ENDBRANCH 39 42
ENDBRANCH 1 38
TORSDOF 26
ENDMDL
MODEL 31
USER: ADFR SOLUTION from run 22
USER: SCORE 21.935350 LL:  -4.883 LR: -19.044 RR:   0.000 FEB: -11.288
USER: RMSD 5.122019
USER: SEED 21
USER: STATUS no improvement in best in 10 clusters for 5 generations
USER: GENES 28
USER: genes 0 Translation |==|  0.44144 0.52885 0.35207
USER: genes 1 Rotation |==|  0.59764 0.54420 0.51695 0.98808
USER: genes 2 Torsion [C]-CA--N-[C] |==|  0.83294
USER: genes 3 Torsion [N]-C--CA-[N] |==|  0.88515
USER: genes 4 Torsion [C]-CA--CB-[CG] |==|  0.07910
USER: genes 5 Torsion [CA]-CB--CG-[CD] |==|  0.77610
USER: genes 6 Torsion [CB]-CG--CD-[NE] |==|  0.72171
USER: genes 7 Torsion [CG]-CD--NE-[HE] |==|  0.07325
USER: genes 8 Torsion [C]-CA--N-[C] |==|  0.69495
USER: genes 9 Torsion [N]-C--CA-[N] |==|  0.62650
USER: genes 10 Torsion [C]-CA--N-[H3] |==|  0.08738
USER: genes 11 Torsion [C]-CA--CB-[CG] |==|  0.74711
USER: genes 12 Torsion [CA]-CB--CG-[ND2] |==|  0.68593
USER: genes 13 Torsion [N]-CA--CB-[CG] |==|  0.82022
USER: genes 14 Torsion [CA]-CB--CG-[CD1] |==|  0.27045
USER: genes 15 Torsion [N]-CA--C-[N] |==|  0.35687
USER: genes 16 Torsion [C]-N--CA-[CB] |==|  0.31359
USER: genes 17 Torsion [N]-CA--C-[N] |==|  0.40185
USER: genes 18 Torsion [C]-N--CA-[C] |==|  0.63398
USER: genes 19 Torsion [N]-CA--C-[N] |==|  0.45555
USER: genes 20 Torsion [C]-N--CA-[C] |==|  0.80718
USER: genes 21 Torsion [N]-CA--CB-[CG2] |==|  0.63706
USER: genes 22 Torsion [CA]-CB--OG1-[HG1] |==|  0.74180
USER: genes 23 Torsion [N]-CA--C-[O] |==|  0.17939
USER: genes 24 Torsion [N]-CA--CB-[CG] |==|  0.77873
USER: genes 25 Torsion [CA]-CB--CG-[CD2] |==|  0.74679
USER: genes 26 Torsion [N]-CA--CB-[CG] |==|  0.79422
USER: genes 27 Torsion [CA]-CB--CG-[CD1] |==|  0.54935
ROOT
ATOM      1  CA  LEU B   3     -19.551 -22.157 -31.424  1.00 17.18 LIG 0.18  C 
ENDROOT
BRANCH 1 2
ATOM      2  N   LEU B   3     -20.373 -22.983 -30.621  1.00 21.09 LIG-0.35  N 
ATOM      3  C   ARG B   2     -19.886 -24.059 -30.009  1.00 20.79 LIG 0.24  C 
ATOM      4 O    ARG B   2     -18.677 -24.371 -30.024  1.00 18.81 LIG-0.27  OA
ATOM      5 H    LEU B   3     -21.193 -22.730 -30.570  1.00 21.09 LIG 0.16  HD
BRANCH 3 6
ATOM      6  CA  ARG B   2     -20.920 -24.952 -29.337  1.00 21.42 LIG 0.18  C 
BRANCH 6 7
ATOM      7  CB  ARG B   2     -21.596 -25.922 -30.313  1.00 36.36 LIG 0.04  C 
BRANCH 7 8
ATOM      8  CG  ARG B   2     -20.691 -26.282 -31.476  1.00 41.67 LIG 0.02  C 
BRANCH 8 9
ATOM      9  CD  ARG B   2     -20.665 -25.217 -32.574  1.00 51.14 LIG 0.14  C 
BRANCH 9 10
ATOM     10  NE  ARG B   2     -21.533 -25.580 -33.709  1.00 53.41 LIG-0.23  N 
ATOM     11 HE   ARG B   2     -22.199 -26.098 -33.546  1.00 53.41 LIG 0.18  HD
ATOM     12  CZ  ARG B   2     -21.370 -25.170 -34.973  1.00 50.83 LIG 0.67  C 
ATOM     13  NH1 ARG B   2     -20.362 -24.371 -35.299  1.00 40.00 LIG-0.23  N 
ATOM     14  NH2 ARG B   2     -22.221 -25.574 -35.918  1.00 54.23 LIG-0.23  N 
ATOM     15 1HH1 ARG B   2     -19.806 -24.112 -34.697  1.00 40.00 LIG 0.17  HD
ATOM     16 2HH1 ARG B   2     -20.265 -24.112 -36.114  1.00 40.00 LIG 0.17  HD
ATOM     17 1HH2 ARG B   2     -22.872 -26.098 -35.715  1.00 54.23 LIG 0.17  HD
ATOM     18 2HH2 ARG B   2     -22.117 -25.311 -36.730  1.00 54.23 LIG 0.17  HD
ENDBRANCH 9 10
ENDBRANCH 8 9
ENDBRANCH 7 8
ENDBRANCH 6 7
BRANCH 6 19
ATOM     19  N   ARG B   2     -21.887 -24.098 -28.683  1.00 29.89 LIG-0.35  N 
ATOM     20  C   ASN B   1     -21.936 -24.028 -27.359  1.00 39.87 LIG 0.25  C 
ATOM     21 O    ASN B   1     -21.425 -24.884 -26.626  1.00 37.46 LIG-0.27  OA
ATOM     22 H    ARG B   2     -22.404 -23.661 -29.214  1.00 29.89 LIG 0.16  HD
BRANCH 20 23
ATOM     23  CA  ASN B   1     -22.684 -22.811 -26.783  1.00 47.73 LIG 0.28  C 
BRANCH 23 24
ATOM     24  N   ASN B   1     -21.999 -22.144 -25.703  1.00 51.86 LIG-0.07  N 
ATOM     25 H3   ASN B   1     -21.120 -22.217 -25.820  1.00 51.86 LIG 0.28  HD
ATOM     26 H1   ASN B   1     -22.227 -21.284 -25.693  1.00 51.86 LIG 0.28  HD
ATOM     27 H2   ASN B   1     -22.227 -22.520 -24.929  1.00 51.86 LIG 0.28  HD
ENDBRANCH 23 24
BRANCH 23 28
ATOM     28  CB  ASN B   1     -23.006 -21.771 -27.836  1.00 49.79 LIG 0.14  C 
BRANCH 28 29
ATOM     29  CG  ASN B   1     -21.905 -20.743 -27.947  1.00 59.47 LIG 0.22  C 
ATOM     30  ND2 ASN B   1     -22.203 -19.496 -27.566  1.00 63.81 LIG-0.37  N 
ATOM     31 21HD ASN B   1     -21.615 -18.874 -27.634  1.00 63.81 LIG 0.16  HD
ATOM     32 22HD ASN B   1     -22.984 -19.317 -27.253  1.00 63.81 LIG 0.16  HD
ATOM     33 OD1  ASN B   1     -20.807 -21.053 -28.401  1.00 60.25 LIG-0.27  OA
ENDBRANCH 28 29
ENDBRANCH 23 28
ENDBRANCH 20 23
ENDBRANCH 6 19
ENDBRANCH 3 6
ENDBRANCH 1 2
BRANCH 1 34
ATOM     34  CB  LEU B   3     -20.413 -21.060 -32.109  1.00 28.79 LIG 0.04  C 
BRANCH 34 35
ATOM     35  CG  LEU B   3     -21.418 -21.671 -33.092  1.00 33.15 LIG-0.02  C 
ATOM     36  CD2 LEU B   3     -21.478 -20.810 -34.347  1.00 30.13 LIG 0.01  C 
ATOM     37  CD1 LEU B   3     -22.849 -21.860 -32.507  1.00 27.67 LIG 0.01  C 
ENDBRANCH 34 35
ENDBRANCH 1 34
BRANCH 1 38
ATOM     38  C   LEU B   3     -18.405 -21.560 -30.637  1.00 20.33 LIG 0.24  C 
ATOM     39  N   LEU B   4     -17.195 -21.721 -31.165  1.00 23.83 LIG-0.35  N 
ATOM     40 H    LEU B   4     -17.040 -22.132 -31.904  1.00 23.83 LIG 0.16  HD
ATOM     41 O    LEU B   3     -18.591 -20.958 -29.584  1.00 22.70 LIG-0.27  OA
BRANCH 39 42
ATOM     42  CA  LEU B   4     -16.011 -21.192 -30.500  1.00 22.91 LIG 0.18  C 
BRANCH 42 43
ATOM     43  C   LEU B   4     -15.193 -20.401 -31.526  1.00 30.74 LIG 0.24  C 
ATOM     44 O    LEU B   4     -15.102 -20.786 -32.727  1.00 30.11 LIG-0.27  OA
ATOM     45  N   LEU B   5     -14.561 -19.319 -31.090  1.00 32.41 LIG-0.35  N 
ATOM     46 H    LEU B   5     -14.638 -18.975 -30.306  1.00 32.41 LIG 0.16  HD
BRANCH 45 47
ATOM     47  CA  LEU B   5     -13.645 -18.631 -32.009  1.00 35.50 LIG 0.18  C 
BRANCH 47 48
ATOM     48  C   LEU B   5     -12.314 -18.347 -31.323  1.00 33.38 LIG 0.24  C 
ATOM     49 O    LEU B   5     -12.201 -18.405 -30.079  1.00 25.58 LIG-0.27  OA
ATOM     50  N   THR B   6     -11.321 -18.037 -32.151  1.00 32.99 LIG-0.34  N 
ATOM     51 H    THR B   6     -11.377 -18.139 -33.003  1.00 32.99 LIG 0.16  HD
BRANCH 50 52
ATOM     52  CA  THR B   6     -10.039 -17.498 -31.718  1.00 39.09 LIG 0.19  C 
BRANCH 52 53
ATOM     53  CB  THR B   6      -9.034 -17.454 -32.901  1.00 66.99 LIG 0.14  C 
ATOM     54  CG2 THR B   6      -7.707 -18.073 -32.509  1.00 64.52 LIG 0.04  C 
BRANCH 53 55
ATOM     55 OG1  THR B   6      -9.568 -18.183 -34.023  1.00 68.32 LIG-0.39  OA
ATOM     56 HG1  THR B   6      -9.296 -18.977 -33.997  1.00 68.32 LIG 0.21  HD
ENDBRANCH 53 55
ENDBRANCH 52 53
BRANCH 52 57
ATOM     57  C   THR B   6     -10.255 -16.067 -31.203  1.00 46.48 LIG 0.22  C 
ATOM     58 O    THR B   6     -10.947 -15.853 -30.196  1.00 50.47 LIG-0.29  OA
ENDBRANCH 52 57
ENDBRANCH 50 52
ENDBRANCH 47 48
BRANCH 47 59
ATOM     59  CB  LEU B   5     -14.233 -17.308 -32.484  1.00 41.25 LIG 0.04  C 
BRANCH 59 60
ATOM     60  CG  LEU B   5     -15.268 -17.345 -33.597  1.00 47.99 LIG-0.02  C 
ATOM     61  CD2 LEU B   5     -14.598 -17.218 -34.937  1.00 50.88 LIG 0.01  C 
ATOM     62  CD1 LEU B   5     -16.229 -16.194 -33.383  1.00 54.72 LIG 0.01  C 
ENDBRANCH 59 60
ENDBRANCH 47 59
ENDBRANCH 45 47
ENDBRANCH 42 43
BRANCH 42 63
ATOM     63  CB  LEU B   4     -15.178 -22.371 -30.040  1.00 23.96 LIG 0.04  C 
BRANCH 63 64
ATOM     64  CG  LEU B   4     -15.551 -23.239 -28.858  1.00 38.52 LIG-0.02  C 
ATOM     65  CD1 LEU B   4     -14.391 -24.028 -28.370  1.00 46.71 LIG 0.01  C 
ATOM     66  CD2 LEU B   4     -16.149 -22.345 -27.760  1.00 36.33 LIG 0.01  C 
ENDBRANCH 63 64
ENDBRANCH 42 63
ENDBRANCH 39 42
ENDBRANCH 1 38
TORSDOF 26
ENDMDL
MODEL 32
USER: ADFR SOLUTION from run 5
USER: SCORE 21.605039 LL:  -4.745 LR: -19.019 RR:   0.000 FEB: -11.263
USER: RMSD 12.458119
USER: SEED 269819
USER: STATUS no improvement in best in 13 clusters for 5 generations
USER: GENES 28
USER: genes 0 Translation |==|  0.61023 0.53434 0.41849
USER: genes 1 Rotation |==|  0.57929 0.25482 0.07421 0.54799
USER: genes 2 Torsion [C]-CA--N-[C] |==|  0.62030
USER: genes 3 Torsion [N]-C--CA-[N] |==|  0.02314
USER: genes 4 Torsion [C]-CA--CB-[CG] |==|  0.31310
USER: genes 5 Torsion [CA]-CB--CG-[CD] |==|  0.96896
USER: genes 6 Torsion [CB]-CG--CD-[NE] |==|  0.61744
USER: genes 7 Torsion [CG]-CD--NE-[HE] |==|  0.76747
USER: genes 8 Torsion [C]-CA--N-[C] |==|  0.69962
USER: genes 9 Torsion [N]-C--CA-[N] |==|  0.90300
USER: genes 10 Torsion [C]-CA--N-[H3] |==|  0.83282
USER: genes 11 Torsion [C]-CA--CB-[CG] |==|  0.12707
USER: genes 12 Torsion [CA]-CB--CG-[ND2] |==|  0.28028
USER: genes 13 Torsion [N]-CA--CB-[CG] |==|  0.27556
USER: genes 14 Torsion [CA]-CB--CG-[CD1] |==|  0.45477
USER: genes 15 Torsion [N]-CA--C-[N] |==|  0.41801
USER: genes 16 Torsion [C]-N--CA-[CB] |==|  0.20332
USER: genes 17 Torsion [N]-CA--C-[N] |==|  0.40505
USER: genes 18 Torsion [C]-N--CA-[C] |==|  0.55182
USER: genes 19 Torsion [N]-CA--C-[N] |==|  0.76475
USER: genes 20 Torsion [C]-N--CA-[C] |==|  0.82284
USER: genes 21 Torsion [N]-CA--CB-[CG2] |==|  0.53158
USER: genes 22 Torsion [CA]-CB--OG1-[HG1] |==|  0.24649
USER: genes 23 Torsion [N]-CA--C-[O] |==|  0.44270
USER: genes 24 Torsion [N]-CA--CB-[CG] |==|  0.56782
USER: genes 25 Torsion [CA]-CB--CG-[CD2] |==|  0.49954
USER: genes 26 Torsion [N]-CA--CB-[CG] |==|  0.31778
USER: genes 27 Torsion [CA]-CB--CG-[CD1] |==|  0.39440
ROOT
ATOM      1  CA  LEU B   3     -15.374 -22.021 -30.029  1.00 17.18 LIG 0.18  C 
ENDROOT
BRANCH 1 2
ATOM      2  N   LEU B   3     -14.752 -20.771 -29.802  1.00 21.09 LIG-0.35  N 
ATOM      3  C   ARG B   2     -14.299 -20.029 -30.810  1.00 20.79 LIG 0.24  C 
ATOM      4 O    ARG B   2     -14.458 -20.330 -32.011  1.00 18.81 LIG-0.27  OA
ATOM      5 H    LEU B   3     -14.696 -20.544 -28.974  1.00 21.09 LIG 0.16  HD
BRANCH 3 6
ATOM      6  CA  ARG B   2     -13.490 -18.804 -30.406  1.00 21.42 LIG 0.18  C 
BRANCH 6 7
ATOM      7  CB  ARG B   2     -12.177 -18.672 -31.185  1.00 36.36 LIG 0.04  C 
BRANCH 7 8
ATOM      8  CG  ARG B   2     -12.181 -17.468 -32.108  1.00 41.67 LIG 0.02  C 
BRANCH 8 9
ATOM      9  CD  ARG B   2     -13.562 -16.827 -32.260  1.00 51.14 LIG 0.14  C 
BRANCH 9 10
ATOM     10  NE  ARG B   2     -13.842 -16.456 -33.659  1.00 53.41 LIG-0.23  N 
ATOM     11 HE   ARG B   2     -13.537 -15.701 -33.935  1.00 53.41 LIG 0.18  HD
ATOM     12  CZ  ARG B   2     -14.532 -17.196 -34.535  1.00 50.83 LIG 0.67  C 
ATOM     13  NH1 ARG B   2     -15.035 -18.371 -34.179  1.00 40.00 LIG-0.23  N 
ATOM     14  NH2 ARG B   2     -14.727 -16.747 -35.776  1.00 54.23 LIG-0.23  N 
ATOM     15 1HH1 ARG B   2     -14.919 -18.664 -33.379  1.00 40.00 LIG 0.17  HD
ATOM     16 2HH1 ARG B   2     -15.477 -18.840 -34.749  1.00 40.00 LIG 0.17  HD
ATOM     17 1HH2 ARG B   2     -14.411 -15.982 -36.012  1.00 54.23 LIG 0.17  HD
ATOM     18 2HH2 ARG B   2     -15.170 -17.221 -36.340  1.00 54.23 LIG 0.17  HD
ENDBRANCH 9 10
ENDBRANCH 8 9
ENDBRANCH 7 8
ENDBRANCH 6 7
BRANCH 6 19
ATOM     19  N   ARG B   2     -13.257 -18.875 -28.980  1.00 29.89 LIG-0.35  N 
ATOM     20  C   ASN B   1     -13.889 -18.053 -28.153  1.00 39.87 LIG 0.25  C 
ATOM     21 O    ASN B   1     -14.429 -17.007 -28.535  1.00 37.46 LIG-0.27  OA
ATOM     22 H    ARG B   2     -12.693 -19.476 -28.734  1.00 29.89 LIG 0.16  HD
BRANCH 20 23
ATOM     23  CA  ASN B   1     -13.899 -18.474 -26.672  1.00 47.73 LIG 0.28  C 
BRANCH 23 24
ATOM     24  N   ASN B   1     -13.977 -19.898 -26.456  1.00 51.86 LIG-0.07  N 
ATOM     25 H3   ASN B   1     -14.727 -20.212 -26.817  1.00 51.86 LIG 0.28  HD
ATOM     26 H1   ASN B   1     -13.276 -20.295 -26.835  1.00 51.86 LIG 0.28  HD
ATOM     27 H2   ASN B   1     -13.976 -20.066 -25.582  1.00 51.86 LIG 0.28  HD
ENDBRANCH 23 24
BRANCH 23 28
ATOM     28  CB  ASN B   1     -12.696 -17.958 -25.910  1.00 49.79 LIG 0.14  C 
BRANCH 28 29
ATOM     29  CG  ASN B   1     -12.436 -16.502 -26.216  1.00 59.47 LIG 0.22  C 
ATOM     30  ND2 ASN B   1     -12.852 -15.611 -25.309  1.00 63.81 LIG-0.37  N 
ATOM     31 21HD ASN B   1     -12.745 -14.770 -25.452  1.00 63.81 LIG 0.16  HD
ATOM     32 22HD ASN B   1     -13.225 -15.880 -24.582  1.00 63.81 LIG 0.16  HD
ATOM     33 OD1  ASN B   1     -11.896 -16.173 -27.269  1.00 60.25 LIG-0.27  OA
ENDBRANCH 28 29
ENDBRANCH 23 28
ENDBRANCH 20 23
ENDBRANCH 6 19
ENDBRANCH 3 6
ENDBRANCH 1 2
BRANCH 1 34
ATOM     34  CB  LEU B   3     -14.349 -23.169 -29.809  1.00 28.79 LIG 0.04  C 
BRANCH 34 35
ATOM     35  CG  LEU B   3     -14.505 -23.800 -28.422  1.00 33.15 LIG-0.02  C 
ATOM     36  CD2 LEU B   3     -13.978 -22.835 -27.369  1.00 30.13 LIG 0.01  C 
ATOM     37  CD1 LEU B   3     -13.811 -25.186 -28.269  1.00 27.67 LIG 0.01  C 
ENDBRANCH 34 35
ENDBRANCH 1 34
BRANCH 1 38
ATOM     38  C   LEU B   3     -16.611 -22.203 -29.178  1.00 20.33 LIG 0.24  C 
ATOM     39  N   LEU B   4     -17.562 -22.975 -29.696  1.00 23.83 LIG-0.35  N 
ATOM     40 H    LEU B   4     -17.508 -23.360 -30.463  1.00 23.83 LIG 0.16  HD
ATOM     41 O    LEU B   3     -16.717 -21.675 -28.075  1.00 22.70 LIG-0.27  OA
BRANCH 39 42
ATOM     42  CA  LEU B   4     -18.802 -23.225 -28.972  1.00 22.91 LIG 0.18  C 
BRANCH 42 43
ATOM     43  C   LEU B   4     -19.573 -24.330 -29.700  1.00 30.74 LIG 0.24  C 
ATOM     44 O    LEU B   4     -19.556 -24.418 -30.961  1.00 30.11 LIG-0.27  OA
ATOM     45  N   LEU B   5     -20.281 -25.166 -28.952  1.00 32.41 LIG-0.35  N 
ATOM     46 H    LEU B   5     -20.278 -25.195 -28.093  1.00 32.41 LIG 0.16  HD
BRANCH 45 47
ATOM     47  CA  LEU B   5     -21.153 -26.136 -29.626  1.00 35.50 LIG 0.18  C 
BRANCH 47 48
ATOM     48  C   LEU B   5     -22.202 -26.674 -28.660  1.00 33.38 LIG 0.24  C 
ATOM     49 O    LEU B   5     -23.344 -26.169 -28.597  1.00 25.58 LIG-0.27  OA
ATOM     50  N   THR B   6     -21.793 -27.696 -27.914  1.00 32.99 LIG-0.34  N 
ATOM     51 H    THR B   6     -21.060 -28.119 -28.067  1.00 32.99 LIG 0.16  HD
BRANCH 50 52
ATOM     52  CA  THR B   6     -22.528 -28.210 -26.767  1.00 39.09 LIG 0.19  C 
BRANCH 52 53
ATOM     53  CB  THR B   6     -21.813 -29.452 -26.169  1.00 66.99 LIG 0.14  C 
ATOM     54  CG2 THR B   6     -22.701 -30.157 -25.162  1.00 64.52 LIG 0.04  C 
BRANCH 53 55
ATOM     55 OG1  THR B   6     -21.484 -30.381 -27.221  1.00 68.32 LIG-0.39  OA
ATOM     56 HG1  THR B   6     -20.727 -30.194 -27.534  1.00 68.32 LIG 0.21  HD
ENDBRANCH 53 55
ENDBRANCH 52 53
BRANCH 52 57
ATOM     57  C   THR B   6     -22.593 -27.116 -25.692  1.00 46.48 LIG 0.22  C 
ATOM     58 O    THR B   6     -23.458 -27.150 -24.803  1.00 50.47 LIG-0.29  OA
ENDBRANCH 52 57
ENDBRANCH 50 52
ENDBRANCH 47 48
BRANCH 47 59
ATOM     59  CB  LEU B   5     -20.352 -27.311 -30.171  1.00 41.25 LIG 0.04  C 
BRANCH 59 60
ATOM     60  CG  LEU B   5     -20.934 -28.092 -31.339  1.00 47.99 LIG-0.02  C 
ATOM     61  CD2 LEU B   5     -20.006 -29.205 -31.738  1.00 50.88 LIG 0.01  C 
ATOM     62  CD1 LEU B   5     -21.125 -27.133 -32.495  1.00 54.72 LIG 0.01  C 
ENDBRANCH 59 60
ENDBRANCH 47 59
ENDBRANCH 45 47
ENDBRANCH 42 43
BRANCH 42 63
ATOM     63  CB  LEU B   4     -19.630 -21.957 -29.027  1.00 23.96 LIG 0.04  C 
BRANCH 63 64
ATOM     64  CG  LEU B   4     -20.954 -21.861 -29.753  1.00 38.52 LIG-0.02  C 
ATOM     65  CD1 LEU B   4     -21.925 -21.017 -29.012  1.00 46.71 LIG 0.01  C 
ATOM     66  CD2 LEU B   4     -20.698 -21.340 -31.176  1.00 36.33 LIG 0.01  C 
ENDBRANCH 63 64
ENDBRANCH 42 63
ENDBRANCH 39 42
ENDBRANCH 1 38
TORSDOF 26
ENDMDL
MODEL 33
USER: ADFR SOLUTION from run 184
USER: SCORE 21.706401 LL:  -4.720 LR: -19.017 RR:   0.000 FEB: -11.262
USER: RMSD 11.754626
USER: SEED 183
USER: STATUS searching
USER: GENES 28
USER: genes 0 Translation |==|  0.55871 0.57586 0.38363
USER: genes 1 Rotation |==|  0.65637 0.28596 0.07741 0.53403
USER: genes 2 Torsion [C]-CA--N-[C] |==|  0.56337
USER: genes 3 Torsion [N]-C--CA-[N] |==|  0.47547
USER: genes 4 Torsion [C]-CA--CB-[CG] |==|  0.44767
USER: genes 5 Torsion [CA]-CB--CG-[CD] |==|  0.76874
USER: genes 6 Torsion [CB]-CG--CD-[NE] |==|  0.13969
USER: genes 7 Torsion [CG]-CD--NE-[HE] |==|  0.67615
USER: genes 8 Torsion [C]-CA--N-[C] |==|  0.77907
USER: genes 9 Torsion [N]-C--CA-[N] |==|  0.39787
USER: genes 10 Torsion [C]-CA--N-[H3] |==|  0.55779
USER: genes 11 Torsion [C]-CA--CB-[CG] |==|  0.46601
USER: genes 12 Torsion [CA]-CB--CG-[ND2] |==|  0.51586
USER: genes 13 Torsion [N]-CA--CB-[CG] |==|  0.13004
USER: genes 14 Torsion [CA]-CB--CG-[CD1] |==|  0.23397
USER: genes 15 Torsion [N]-CA--C-[N] |==|  0.46109
USER: genes 16 Torsion [C]-N--CA-[CB] |==|  0.36299
USER: genes 17 Torsion [N]-CA--C-[N] |==|  0.59251
USER: genes 18 Torsion [C]-N--CA-[C] |==|  0.64797
USER: genes 19 Torsion [N]-CA--C-[N] |==|  0.44405
USER: genes 20 Torsion [C]-N--CA-[C] |==|  0.70062
USER: genes 21 Torsion [N]-CA--CB-[CG2] |==|  0.57781
USER: genes 22 Torsion [CA]-CB--OG1-[HG1] |==|  0.60414
USER: genes 23 Torsion [N]-CA--C-[O] |==|  0.83254
USER: genes 24 Torsion [N]-CA--CB-[CG] |==|  0.76542
USER: genes 25 Torsion [CA]-CB--CG-[CD2] |==|  0.58154
USER: genes 26 Torsion [N]-CA--CB-[CG] |==|  0.08279
USER: genes 27 Torsion [CA]-CB--CG-[CD1] |==|  0.26420
ROOT
ATOM      1  CA  LEU B   3     -16.649 -20.993 -30.761  1.00 17.18 LIG 0.18  C 
ENDROOT
BRANCH 1 2
ATOM      2  N   LEU B   3     -16.295 -19.735 -30.220  1.00 21.09 LIG-0.35  N 
ATOM      3  C   ARG B   2     -15.371 -18.970 -30.794  1.00 20.79 LIG 0.24  C 
ATOM      4 O    ARG B   2     -14.815 -19.255 -31.875  1.00 18.81 LIG-0.27  OA
ATOM      5 H    LEU B   3     -16.722 -19.520 -29.505  1.00 21.09 LIG 0.16  HD
BRANCH 3 6
ATOM      6  CA  ARG B   2     -14.961 -17.735 -30.001  1.00 21.42 LIG 0.18  C 
BRANCH 6 7
ATOM      7  CB  ARG B   2     -16.102 -16.724 -29.838  1.00 36.36 LIG 0.04  C 
BRANCH 7 8
ATOM      8  CG  ARG B   2     -15.845 -15.754 -28.701  1.00 41.67 LIG 0.02  C 
BRANCH 8 9
ATOM      9  CD  ARG B   2     -16.241 -16.309 -27.331  1.00 51.14 LIG 0.14  C 
BRANCH 9 10
ATOM     10  NE  ARG B   2     -15.673 -17.650 -27.098  1.00 53.41 LIG-0.23  N 
ATOM     11 HE   ARG B   2     -16.227 -18.301 -27.004  1.00 53.41 LIG 0.18  HD
ATOM     12  CZ  ARG B   2     -14.369 -17.938 -27.022  1.00 50.83 LIG 0.67  C 
ATOM     13  NH1 ARG B   2     -13.457 -16.984 -27.155  1.00 40.00 LIG-0.23  N 
ATOM     14  NH2 ARG B   2     -13.977 -19.194 -26.798  1.00 54.23 LIG-0.23  N 
ATOM     15 1HH1 ARG B   2     -13.702 -16.171 -27.292  1.00 40.00 LIG 0.17  HD
ATOM     16 2HH1 ARG B   2     -12.620 -17.178 -27.104  1.00 40.00 LIG 0.17  HD
ATOM     17 1HH2 ARG B   2     -14.563 -19.817 -26.703  1.00 54.23 LIG 0.17  HD
ATOM     18 2HH2 ARG B   2     -13.140 -19.380 -26.749  1.00 54.23 LIG 0.17  HD
ENDBRANCH 9 10
ENDBRANCH 8 9
ENDBRANCH 7 8
ENDBRANCH 6 7
BRANCH 6 19
ATOM     19  N   ARG B   2     -13.817 -17.143 -30.660  1.00 29.89 LIG-0.35  N 
ATOM     20  C   ASN B   1     -12.604 -17.648 -30.483  1.00 39.87 LIG 0.25  C 
ATOM     21 O    ASN B   1     -12.324 -18.399 -29.539  1.00 37.46 LIG-0.27  OA
ATOM     22 H    ARG B   2     -13.996 -16.462 -31.154  1.00 29.89 LIG 0.16  HD
BRANCH 20 23
ATOM     23  CA  ASN B   1     -11.550 -17.230 -31.525  1.00 47.73 LIG 0.28  C 
BRANCH 23 24
ATOM     24  N   ASN B   1     -10.226 -17.030 -30.989  1.00 51.86 LIG-0.07  N 
ATOM     25 H3   ASN B   1      -9.755 -16.518 -31.544  1.00 51.86 LIG 0.28  HD
ATOM     26 H1   ASN B   1     -10.284 -16.631 -30.195  1.00 51.86 LIG 0.28  HD
ATOM     27 H2   ASN B   1      -9.821 -17.817 -30.896  1.00 51.86 LIG 0.28  HD
ENDBRANCH 23 24
BRANCH 23 28
ATOM     28  CB  ASN B   1     -11.438 -18.215 -32.670  1.00 49.79 LIG 0.14  C 
BRANCH 28 29
ATOM     29  CG  ASN B   1     -10.628 -17.644 -33.809  1.00 59.47 LIG 0.22  C 
ATOM     30  ND2 ASN B   1     -10.558 -18.375 -34.927  1.00 63.81 LIG-0.37  N 
ATOM     31 21HD ASN B   1     -10.090 -18.099 -35.593  1.00 63.81 LIG 0.16  HD
ATOM     32 22HD ASN B   1     -10.983 -19.121 -34.980  1.00 63.81 LIG 0.16  HD
ATOM     33 OD1  ASN B   1     -10.042 -16.572 -33.681  1.00 60.25 LIG-0.27  OA
ENDBRANCH 28 29
ENDBRANCH 23 28
ENDBRANCH 20 23
ENDBRANCH 6 19
ENDBRANCH 3 6
ENDBRANCH 1 2
BRANCH 1 34
ATOM     34  CB  LEU B   3     -15.568 -22.049 -30.397  1.00 28.79 LIG 0.04  C 
BRANCH 34 35
ATOM     35  CG  LEU B   3     -15.191 -21.975 -28.913  1.00 33.15 LIG-0.02  C 
ATOM     36  CD2 LEU B   3     -13.757 -22.457 -28.735  1.00 30.13 LIG 0.01  C 
ATOM     37  CD1 LEU B   3     -16.142 -22.771 -27.972  1.00 27.67 LIG 0.01  C 
ENDBRANCH 34 35
ENDBRANCH 1 34
BRANCH 1 38
ATOM     38  C   LEU B   3     -18.030 -21.431 -30.325  1.00 20.33 LIG 0.24  C 
ATOM     39  N   LEU B   4     -18.557 -22.445 -31.004  1.00 23.83 LIG-0.35  N 
ATOM     40 H    LEU B   4     -18.165 -22.848 -31.655  1.00 23.83 LIG 0.16  HD
ATOM     41 O    LEU B   3     -18.615 -20.884 -29.395  1.00 22.70 LIG-0.27  OA
BRANCH 39 42
ATOM     42  CA  LEU B   4     -19.883 -22.957 -30.679  1.00 22.91 LIG 0.18  C 
BRANCH 42 43
ATOM     43  C   LEU B   4     -19.729 -24.371 -30.110  1.00 30.74 LIG 0.24  C 
ATOM     44 O    LEU B   4     -18.706 -24.702 -29.447  1.00 30.11 LIG-0.27  OA
ATOM     45  N   LEU B   5     -20.700 -25.236 -30.374  1.00 32.41 LIG-0.35  N 
ATOM     46 H    LEU B   5     -21.445 -25.051 -30.762  1.00 32.41 LIG 0.16  HD
BRANCH 45 47
ATOM     47  CA  LEU B   5     -20.509 -26.637 -29.978  1.00 35.50 LIG 0.18  C 
BRANCH 47 48
ATOM     48  C   LEU B   5     -20.734 -27.564 -31.168  1.00 33.38 LIG 0.24  C 
ATOM     49 O    LEU B   5     -21.386 -27.188 -32.167  1.00 25.58 LIG-0.27  OA
ATOM     50  N   THR B   6     -20.192 -28.771 -31.038  1.00 32.99 LIG-0.34  N 
ATOM     51 H    THR B   6     -19.633 -28.965 -30.414  1.00 32.99 LIG 0.16  HD
BRANCH 50 52
ATOM     52  CA  THR B   6     -20.477 -29.890 -31.926  1.00 39.09 LIG 0.19  C 
BRANCH 52 53
ATOM     53  CB  THR B   6     -19.163 -30.588 -32.368  1.00 66.99 LIG 0.14  C 
ATOM     54  CG2 THR B   6     -19.326 -31.240 -33.727  1.00 64.52 LIG 0.04  C 
BRANCH 53 55
ATOM     55 OG1  THR B   6     -18.098 -29.621 -32.448  1.00 68.32 LIG-0.39  OA
ATOM     56 HG1  THR B   6     -17.603 -29.801 -33.102  1.00 68.32 LIG 0.21  HD
ENDBRANCH 53 55
ENDBRANCH 52 53
BRANCH 52 57
ATOM     57  C   THR B   6     -21.345 -30.908 -31.172  1.00 46.48 LIG 0.22  C 
ATOM     58 O    THR B   6     -20.933 -31.450 -30.135  1.00 50.47 LIG-0.29  OA
ENDBRANCH 52 57
ENDBRANCH 50 52
ENDBRANCH 47 48
BRANCH 47 59
ATOM     59  CB  LEU B   5     -21.477 -27.033 -28.870  1.00 41.25 LIG 0.04  C 
BRANCH 59 60
ATOM     60  CG  LEU B   5     -21.086 -26.719 -27.435  1.00 47.99 LIG-0.02  C 
ATOM     61  CD2 LEU B   5     -21.694 -27.724 -26.496  1.00 50.88 LIG 0.01  C 
ATOM     62  CD1 LEU B   5     -21.588 -25.328 -27.107  1.00 54.72 LIG 0.01  C 
ENDBRANCH 59 60
ENDBRANCH 47 59
ENDBRANCH 45 47
ENDBRANCH 42 43
BRANCH 42 63
ATOM     63  CB  LEU B   4     -20.668 -23.051 -31.972  1.00 23.96 LIG 0.04  C 
BRANCH 63 64
ATOM     64  CG  LEU B   4     -20.025 -23.307 -33.317  1.00 38.52 LIG-0.02  C 
ATOM     65  CD1 LEU B   4     -20.050 -24.749 -33.669  1.00 46.71 LIG 0.01  C 
ATOM     66  CD2 LEU B   4     -20.727 -22.439 -34.372  1.00 36.33 LIG 0.01  C 
ENDBRANCH 63 64
ENDBRANCH 42 63
ENDBRANCH 39 42
ENDBRANCH 1 38
TORSDOF 26
ENDMDL
MODEL 34
USER: ADFR SOLUTION from run 38
USER: SCORE 22.261832 LL:  -4.351 LR: -19.009 RR:   0.000 FEB: -11.254
USER: RMSD 11.821851
USER: SEED 37
USER: STATUS searching
USER: GENES 28
USER: genes 0 Translation |==|  0.56286 0.52898 0.41099
USER: genes 1 Rotation |==|  0.23701 0.82887 0.76922 0.51416
USER: genes 2 Torsion [C]-CA--N-[C] |==|  0.70086
USER: genes 3 Torsion [N]-C--CA-[N] |==|  0.15532
USER: genes 4 Torsion [C]-CA--CB-[CG] |==|  0.63434
USER: genes 5 Torsion [CA]-CB--CG-[CD] |==|  0.24230
USER: genes 6 Torsion [CB]-CG--CD-[NE] |==|  0.24453
USER: genes 7 Torsion [CG]-CD--NE-[HE] |==|  0.81281
USER: genes 8 Torsion [C]-CA--N-[C] |==|  0.72851
USER: genes 9 Torsion [N]-C--CA-[N] |==|  0.86496
USER: genes 10 Torsion [C]-CA--N-[H3] |==|  0.77278
USER: genes 11 Torsion [C]-CA--CB-[CG] |==|  0.44652
USER: genes 12 Torsion [CA]-CB--CG-[ND2] |==|  0.63717
USER: genes 13 Torsion [N]-CA--CB-[CG] |==|  0.77978
USER: genes 14 Torsion [CA]-CB--CG-[CD1] |==|  0.42768
USER: genes 15 Torsion [N]-CA--C-[N] |==|  0.04985
USER: genes 16 Torsion [C]-N--CA-[CB] |==|  0.80000
USER: genes 17 Torsion [N]-CA--C-[N] |==|  0.19871
USER: genes 18 Torsion [C]-N--CA-[C] |==|  0.54964
USER: genes 19 Torsion [N]-CA--C-[N] |==|  0.46650
USER: genes 20 Torsion [C]-N--CA-[C] |==|  0.65981
USER: genes 21 Torsion [N]-CA--CB-[CG2] |==|  0.60152
USER: genes 22 Torsion [CA]-CB--OG1-[HG1] |==|  0.16712
USER: genes 23 Torsion [N]-CA--C-[O] |==|  0.96229
USER: genes 24 Torsion [N]-CA--CB-[CG] |==|  0.63122
USER: genes 25 Torsion [CA]-CB--CG-[CD2] |==|  0.62799
USER: genes 26 Torsion [N]-CA--CB-[CG] |==|  0.64051
USER: genes 27 Torsion [CA]-CB--CG-[CD1] |==|  0.58076
ROOT
ATOM      1  CA  LEU B   3     -16.546 -22.154 -30.186  1.00 17.18 LIG 0.18  C 
ENDROOT
BRANCH 1 2
ATOM      2  N   LEU B   3     -16.255 -20.770 -30.231  1.00 21.09 LIG-0.35  N 
ATOM      3  C   ARG B   2     -15.494 -20.253 -31.192  1.00 20.79 LIG 0.24  C 
ATOM      4 O    ARG B   2     -15.056 -20.916 -32.154  1.00 18.81 LIG-0.27  OA
ATOM      5 H    LEU B   3     -16.607 -20.310 -29.595  1.00 21.09 LIG 0.16  HD
BRANCH 3 6
ATOM      6  CA  ARG B   2     -15.114 -18.790 -31.007  1.00 21.42 LIG 0.18  C 
BRANCH 6 7
ATOM      7  CB  ARG B   2     -14.231 -18.254 -32.139  1.00 36.36 LIG 0.04  C 
BRANCH 7 8
ATOM      8  CG  ARG B   2     -13.020 -17.509 -31.613  1.00 41.67 LIG 0.02  C 
BRANCH 8 9
ATOM      9  CD  ARG B   2     -11.823 -18.421 -31.334  1.00 51.14 LIG 0.14  C 
BRANCH 9 10
ATOM     10  NE  ARG B   2     -10.978 -18.597 -32.529  1.00 53.41 LIG-0.23  N 
ATOM     11 HE   ARG B   2     -11.316 -19.032 -33.190  1.00 53.41 LIG 0.18  HD
ATOM     12  CZ  ARG B   2      -9.729 -18.139 -32.671  1.00 50.83 LIG 0.67  C 
ATOM     13  NH1 ARG B   2      -9.142 -17.463 -31.692  1.00 40.00 LIG-0.23  N 
ATOM     14  NH2 ARG B   2      -9.061 -18.371 -33.802  1.00 54.23 LIG-0.23  N 
ATOM     15 1HH1 ARG B   2      -9.564 -17.316 -30.957  1.00 40.00 LIG 0.17  HD
ATOM     16 2HH1 ARG B   2      -8.338 -17.172 -31.792  1.00 40.00 LIG 0.17  HD
ATOM     17 1HH2 ARG B   2      -9.432 -18.814 -34.438  1.00 54.23 LIG 0.17  HD
ATOM     18 2HH2 ARG B   2      -8.258 -18.077 -33.895  1.00 54.23 LIG 0.17  HD
ENDBRANCH 9 10
ENDBRANCH 8 9
ENDBRANCH 7 8
ENDBRANCH 6 7
BRANCH 6 19
ATOM     19  N   ARG B   2     -14.465 -18.658 -29.721  1.00 29.89 LIG-0.35  N 
ATOM     20  C   ASN B   1     -15.148 -18.247 -28.661  1.00 39.87 LIG 0.25  C 
ATOM     21 O    ASN B   1     -16.233 -17.657 -28.754  1.00 37.46 LIG-0.27  OA
ATOM     22 H    ARG B   2     -13.629 -18.864 -29.713  1.00 29.89 LIG 0.16  HD
BRANCH 20 23
ATOM     23  CA  ASN B   1     -14.500 -18.538 -27.295  1.00 47.73 LIG 0.28  C 
BRANCH 23 24
ATOM     24  N   ASN B   1     -14.042 -19.895 -27.127  1.00 51.86 LIG-0.07  N 
ATOM     25 H3   ASN B   1     -14.728 -20.414 -26.896  1.00 51.86 LIG 0.28  HD
ATOM     26 H1   ASN B   1     -13.694 -20.188 -27.892  1.00 51.86 LIG 0.28  HD
ATOM     27 H2   ASN B   1     -13.422 -19.923 -26.489  1.00 51.86 LIG 0.28  HD
ENDBRANCH 23 24
BRANCH 23 28
ATOM     28  CB  ASN B   1     -13.335 -17.619 -26.994  1.00 49.79 LIG 0.14  C 
BRANCH 28 29
ATOM     29  CG  ASN B   1     -13.023 -17.593 -25.516  1.00 59.47 LIG 0.22  C 
ATOM     30  ND2 ASN B   1     -12.894 -16.389 -24.947  1.00 63.81 LIG-0.37  N 
ATOM     31 21HD ASN B   1     -12.694 -16.327 -24.113  1.00 63.81 LIG 0.16  HD
ATOM     32 22HD ASN B   1     -13.011 -15.678 -25.416  1.00 63.81 LIG 0.16  HD
ATOM     33 OD1  ASN B   1     -12.867 -18.640 -24.894  1.00 60.25 LIG-0.27  OA
ENDBRANCH 28 29
ENDBRANCH 23 28
ENDBRANCH 20 23
ENDBRANCH 6 19
ENDBRANCH 3 6
ENDBRANCH 1 2
BRANCH 1 34
ATOM     34  CB  LEU B   3     -16.194 -22.723 -28.783  1.00 28.79 LIG 0.04  C 
BRANCH 34 35
ATOM     35  CG  LEU B   3     -14.689 -22.975 -28.644  1.00 33.15 LIG-0.02  C 
ATOM     36  CD2 LEU B   3     -14.345 -24.320 -29.270  1.00 30.13 LIG 0.01  C 
ATOM     37  CD1 LEU B   3     -14.165 -22.920 -27.178  1.00 27.67 LIG 0.01  C 
ENDBRANCH 34 35
ENDBRANCH 1 34
BRANCH 1 38
ATOM     38  C   LEU B   3     -17.981 -22.446 -30.566  1.00 20.33 LIG 0.24  C 
ATOM     39  N   LEU B   4     -18.616 -21.477 -31.219  1.00 23.83 LIG-0.35  N 
ATOM     40 H    LEU B   4     -18.262 -20.722 -31.428  1.00 23.83 LIG 0.16  HD
ATOM     41 O    LEU B   3     -18.514 -23.517 -30.291  1.00 22.70 LIG-0.27  OA
BRANCH 39 42
ATOM     42  CA  LEU B   4     -20.003 -21.639 -31.638  1.00 22.91 LIG 0.18  C 
BRANCH 42 43
ATOM     43  C   LEU B   4     -20.792 -22.244 -30.472  1.00 30.74 LIG 0.24  C 
ATOM     44 O    LEU B   4     -21.226 -23.430 -30.522  1.00 30.11 LIG-0.27  OA
ATOM     45  N   LEU B   5     -21.026 -21.459 -29.430  1.00 32.41 LIG-0.35  N 
ATOM     46 H    LEU B   5     -20.702 -20.671 -29.313  1.00 32.41 LIG 0.16  HD
BRANCH 45 47
ATOM     47  CA  LEU B   5     -21.910 -21.955 -28.368  1.00 35.50 LIG 0.18  C 
BRANCH 47 48
ATOM     48  C   LEU B   5     -22.409 -20.803 -27.504  1.00 33.38 LIG 0.24  C 
ATOM     49 O    LEU B   5     -21.896 -19.665 -27.585  1.00 25.58 LIG-0.27  OA
ATOM     50  N   THR B   6     -23.405 -21.118 -26.682  1.00 32.99 LIG-0.34  N 
ATOM     51 H    THR B   6     -23.837 -21.860 -26.738  1.00 32.99 LIG 0.16  HD
BRANCH 50 52
ATOM     52  CA  THR B   6     -23.874 -20.258 -25.605  1.00 39.09 LIG 0.19  C 
BRANCH 52 53
ATOM     53  CB  THR B   6     -25.357 -19.856 -25.830  1.00 66.99 LIG 0.14  C 
ATOM     54  CG2 THR B   6     -25.607 -18.430 -25.380  1.00 64.52 LIG 0.04  C 
BRANCH 53 55
ATOM     55 OG1  THR B   6     -25.685 -19.961 -27.229  1.00 68.32 LIG-0.39  OA
ATOM     56 HG1  THR B   6     -25.573 -20.753 -27.485  1.00 68.32 LIG 0.21  HD
ENDBRANCH 53 55
ENDBRANCH 52 53
BRANCH 52 57
ATOM     57  C   THR B   6     -23.768 -21.025 -24.279  1.00 46.48 LIG 0.22  C 
ATOM     58 O    THR B   6     -23.580 -22.251 -24.268  1.00 50.47 LIG-0.29  OA
ENDBRANCH 52 57
ENDBRANCH 50 52
ENDBRANCH 47 48
BRANCH 47 59
ATOM     59  CB  LEU B   5     -21.188 -22.952 -27.470  1.00 41.25 LIG 0.04  C 
BRANCH 59 60
ATOM     60  CG  LEU B   5     -21.895 -24.256 -27.137  1.00 47.99 LIG-0.02  C 
ATOM     61  CD2 LEU B   5     -21.787 -24.547 -25.666  1.00 50.88 LIG 0.01  C 
ATOM     62  CD1 LEU B   5     -21.239 -25.362 -27.937  1.00 54.72 LIG 0.01  C 
ENDBRANCH 59 60
ENDBRANCH 47 59
ENDBRANCH 45 47
ENDBRANCH 42 43
BRANCH 42 63
ATOM     63  CB  LEU B   4     -20.023 -22.629 -32.785  1.00 23.96 LIG 0.04  C 
BRANCH 63 64
ATOM     64  CG  LEU B   4     -20.727 -22.363 -34.098  1.00 38.52 LIG-0.02  C 
ATOM     65  CD1 LEU B   4     -21.194 -23.621 -34.734  1.00 46.71 LIG 0.01  C 
ATOM     66  CD2 LEU B   4     -21.878 -21.376 -33.848  1.00 36.33 LIG 0.01  C 
ENDBRANCH 63 64
ENDBRANCH 42 63
ENDBRANCH 39 42
ENDBRANCH 1 38
TORSDOF 26
ENDMDL
MODEL 35
USER: ADFR SOLUTION from run 147
USER: SCORE 22.952546 LL:  -4.530 LR: -19.013 RR:   0.000 FEB: -11.258
USER: RMSD 11.664797
USER: SEED 146
USER: STATUS no improvement in best in 14 clusters for 5 generations
USER: GENES 28
USER: genes 0 Translation |==|  0.57276 0.54525 0.40819
USER: genes 1 Rotation |==|  0.64868 0.20536 0.12796 0.55163
USER: genes 2 Torsion [C]-CA--N-[C] |==|  0.62784
USER: genes 3 Torsion [N]-C--CA-[N] |==|  0.10556
USER: genes 4 Torsion [C]-CA--CB-[CG] |==|  0.68637
USER: genes 5 Torsion [CA]-CB--CG-[CD] |==|  0.42007
USER: genes 6 Torsion [CB]-CG--CD-[NE] |==|  0.50690
USER: genes 7 Torsion [CG]-CD--NE-[HE] |==|  0.00673
USER: genes 8 Torsion [C]-CA--N-[C] |==|  0.71465
USER: genes 9 Torsion [N]-C--CA-[N] |==|  0.86730
USER: genes 10 Torsion [C]-CA--N-[H3] |==|  0.50704
USER: genes 11 Torsion [C]-CA--CB-[CG] |==|  0.43533
USER: genes 12 Torsion [CA]-CB--CG-[ND2] |==|  0.64719
USER: genes 13 Torsion [N]-CA--CB-[CG] |==|  0.16744
USER: genes 14 Torsion [CA]-CB--CG-[CD1] |==|  0.24067
USER: genes 15 Torsion [N]-CA--C-[N] |==|  0.44530
USER: genes 16 Torsion [C]-N--CA-[CB] |==|  0.85999
USER: genes 17 Torsion [N]-CA--C-[N] |==|  0.35646
USER: genes 18 Torsion [C]-N--CA-[C] |==|  0.79904
USER: genes 19 Torsion [N]-CA--C-[N] |==|  0.93852
USER: genes 20 Torsion [C]-N--CA-[C] |==|  0.18008
USER: genes 21 Torsion [N]-CA--CB-[CG2] |==|  0.53769
USER: genes 22 Torsion [CA]-CB--OG1-[HG1] |==|  0.64014
USER: genes 23 Torsion [N]-CA--C-[O] |==|  0.68010
USER: genes 24 Torsion [N]-CA--CB-[CG] |==|  0.66741
USER: genes 25 Torsion [CA]-CB--CG-[CD2] |==|  0.09007
USER: genes 26 Torsion [N]-CA--CB-[CG] |==|  0.57345
USER: genes 27 Torsion [CA]-CB--CG-[CD1] |==|  0.65087
ROOT
ATOM      1  CA  LEU B   3     -16.301 -21.751 -30.245  1.00 17.18 LIG 0.18  C 
ENDROOT
BRANCH 1 2
ATOM      2  N   LEU B   3     -15.901 -20.395 -30.203  1.00 21.09 LIG-0.35  N 
ATOM      3  C   ARG B   2     -15.296 -19.819 -31.238  1.00 20.79 LIG 0.24  C 
ATOM      4 O    ARG B   2     -15.112 -20.390 -32.333  1.00 18.81 LIG-0.27  OA
ATOM      5 H    LEU B   3     -16.082 -19.991 -29.465  1.00 21.09 LIG 0.16  HD
BRANCH 3 6
ATOM      6  CA  ARG B   2     -14.758 -18.417 -30.982  1.00 21.42 LIG 0.18  C 
BRANCH 6 7
ATOM      7  CB  ARG B   2     -13.711 -17.982 -32.013  1.00 36.36 LIG 0.04  C 
BRANCH 7 8
ATOM      8  CG  ARG B   2     -12.333 -17.835 -31.397  1.00 41.67 LIG 0.02  C 
BRANCH 8 9
ATOM      9  CD  ARG B   2     -11.196 -18.096 -32.387  1.00 51.14 LIG 0.14  C 
BRANCH 9 10
ATOM     10  NE  ARG B   2      -9.874 -18.002 -31.741  1.00 53.41 LIG-0.23  N 
ATOM     11 HE   ARG B   2      -9.859 -17.848 -30.895  1.00 53.41 LIG 0.18  HD
ATOM     12  CZ  ARG B   2      -8.696 -18.135 -32.361  1.00 50.83 LIG 0.67  C 
ATOM     13  NH1 ARG B   2      -8.642 -18.371 -33.666  1.00 40.00 LIG-0.23  N 
ATOM     14  NH2 ARG B   2      -7.562 -18.021 -31.667  1.00 54.23 LIG-0.23  N 
ATOM     15 1HH1 ARG B   2      -9.368 -18.438 -34.121  1.00 40.00 LIG 0.17  HD
ATOM     16 2HH1 ARG B   2      -7.880 -18.455 -34.057  1.00 40.00 LIG 0.17  HD
ATOM     17 1HH2 ARG B   2      -7.589 -17.861 -30.822  1.00 54.23 LIG 0.17  HD
ATOM     18 2HH2 ARG B   2      -6.805 -18.107 -32.064  1.00 54.23 LIG 0.17  HD
ENDBRANCH 9 10
ENDBRANCH 8 9
ENDBRANCH 7 8
ENDBRANCH 6 7
BRANCH 6 19
ATOM     19  N   ARG B   2     -14.225 -18.384 -29.638  1.00 29.89 LIG-0.35  N 
ATOM     20  C   ASN B   1     -14.912 -17.815 -28.656  1.00 39.87 LIG 0.25  C 
ATOM     21 O    ASN B   1     -15.839 -17.021 -28.863  1.00 37.46 LIG-0.27  OA
ATOM     22 H    ARG B   2     -13.454 -18.753 -29.544  1.00 29.89 LIG 0.16  HD
BRANCH 20 23
ATOM     23  CA  ASN B   1     -14.474 -18.193 -27.229  1.00 47.73 LIG 0.28  C 
BRANCH 23 24
ATOM     24  N   ASN B   1     -14.301 -19.608 -27.012  1.00 51.86 LIG-0.07  N 
ATOM     25 H3   ASN B   1     -14.085 -19.754 -26.161  1.00 51.86 LIG 0.28  HD
ATOM     26 H1   ASN B   1     -15.061 -20.032 -27.201  1.00 51.86 LIG 0.28  HD
ATOM     27 H2   ASN B   1     -13.652 -19.913 -27.539  1.00 51.86 LIG 0.28  HD
ENDBRANCH 23 24
BRANCH 23 28
ATOM     28  CB  ASN B   1     -13.192 -17.503 -26.810  1.00 49.79 LIG 0.14  C 
BRANCH 28 29
ATOM     29  CG  ASN B   1     -13.081 -17.418 -25.306  1.00 59.47 LIG 0.22  C 
ATOM     30  ND2 ASN B   1     -12.852 -16.207 -24.785  1.00 63.81 LIG-0.37  N 
ATOM     31 21HD ASN B   1     -12.759 -16.115 -23.936  1.00 63.81 LIG 0.16  HD
ATOM     32 22HD ASN B   1     -12.799 -15.521 -25.301  1.00 63.81 LIG 0.16  HD
ATOM     33 OD1  ASN B   1     -13.166 -18.431 -24.616  1.00 60.25 LIG-0.27  OA
ENDBRANCH 28 29
ENDBRANCH 23 28
ENDBRANCH 20 23
ENDBRANCH 6 19
ENDBRANCH 3 6
ENDBRANCH 1 2
BRANCH 1 34
ATOM     34  CB  LEU B   3     -15.277 -22.628 -29.472  1.00 28.79 LIG 0.04  C 
BRANCH 34 35
ATOM     35  CG  LEU B   3     -15.177 -22.208 -28.002  1.00 33.15 LIG-0.02  C 
ATOM     36  CD2 LEU B   3     -13.769 -22.490 -27.494  1.00 30.13 LIG 0.01  C 
ATOM     37  CD1 LEU B   3     -16.225 -22.887 -27.071  1.00 27.67 LIG 0.01  C 
ENDBRANCH 34 35
ENDBRANCH 1 34
BRANCH 1 38
ATOM     38  C   LEU B   3     -17.709 -21.945 -29.727  1.00 20.33 LIG 0.24  C 
ATOM     39  N   LEU B   4     -18.311 -23.072 -30.094  1.00 23.83 LIG-0.35  N 
ATOM     40 H    LEU B   4     -17.951 -23.673 -30.592  1.00 23.83 LIG 0.16  HD
ATOM     41 O    LEU B   3     -18.250 -21.112 -29.006  1.00 22.70 LIG-0.27  OA
BRANCH 39 42
ATOM     42  CA  LEU B   4     -19.670 -23.373 -29.660  1.00 22.91 LIG 0.18  C 
BRANCH 42 43
ATOM     43  C   LEU B   4     -20.619 -22.359 -30.306  1.00 30.74 LIG 0.24  C 
ATOM     44 O    LEU B   4     -20.422 -21.115 -30.196  1.00 30.11 LIG-0.27  OA
ATOM     45  N   LEU B   5     -21.669 -22.844 -30.955  1.00 32.41 LIG-0.35  N 
ATOM     46 H    LEU B   5     -21.818 -23.675 -31.117  1.00 32.41 LIG 0.16  HD
BRANCH 45 47
ATOM     47  CA  LEU B   5     -22.679 -21.900 -31.450  1.00 35.50 LIG 0.18  C 
BRANCH 47 48
ATOM     48  C   LEU B   5     -23.494 -21.334 -30.293  1.00 33.38 LIG 0.24  C 
ATOM     49 O    LEU B   5     -24.102 -20.246 -30.401  1.00 25.58 LIG-0.27  OA
ATOM     50  N   THR B   6     -23.490 -22.083 -29.195  1.00 32.99 LIG-0.34  N 
ATOM     51 H    THR B   6     -23.188 -22.888 -29.182  1.00 32.99 LIG 0.16  HD
BRANCH 50 52
ATOM     52  CA  THR B   6     -23.990 -21.635 -27.903  1.00 39.09 LIG 0.19  C 
BRANCH 52 53
ATOM     53  CB  THR B   6     -23.301 -20.309 -27.477  1.00 66.99 LIG 0.14  C 
ATOM     54  CG2 THR B   6     -23.557 -20.011 -26.013  1.00 64.52 LIG 0.04  C 
BRANCH 53 55
ATOM     55 OG1  THR B   6     -21.879 -20.409 -27.684  1.00 68.32 LIG-0.39  OA
ATOM     56 HG1  THR B   6     -21.476 -20.176 -26.985  1.00 68.32 LIG 0.21  HD
ENDBRANCH 53 55
ENDBRANCH 52 53
BRANCH 52 57
ATOM     57  C   THR B   6     -25.501 -21.389 -28.016  1.00 46.48 LIG 0.22  C 
ATOM     58 O    THR B   6     -25.971 -20.248 -27.880  1.00 50.47 LIG-0.29  OA
ENDBRANCH 52 57
ENDBRANCH 50 52
ENDBRANCH 47 48
BRANCH 47 59
ATOM     59  CB  LEU B   5     -23.634 -22.576 -32.426  1.00 41.25 LIG 0.04  C 
BRANCH 59 60
ATOM     60  CG  LEU B   5     -23.709 -22.032 -33.844  1.00 47.99 LIG-0.02  C 
ATOM     61  CD2 LEU B   5     -22.371 -21.495 -34.268  1.00 50.88 LIG 0.01  C 
ATOM     62  CD1 LEU B   5     -24.746 -20.928 -33.868  1.00 54.72 LIG 0.01  C 
ENDBRANCH 59 60
ENDBRANCH 47 59
ENDBRANCH 45 47
ENDBRANCH 42 43
BRANCH 42 63
ATOM     63  CB  LEU B   4     -19.725 -23.179 -28.158  1.00 23.96 LIG 0.04  C 
BRANCH 63 64
ATOM     64  CG  LEU B   4     -20.706 -23.903 -27.263  1.00 38.52 LIG-0.02  C 
ATOM     65  CD1 LEU B   4     -21.491 -22.956 -26.431  1.00 46.71 LIG 0.01  C 
ATOM     66  CD2 LEU B   4     -21.605 -24.792 -28.137  1.00 36.33 LIG 0.01  C 
ENDBRANCH 63 64
ENDBRANCH 42 63
ENDBRANCH 39 42
ENDBRANCH 1 38
TORSDOF 26
ENDMDL
MODEL 36
USER: ADFR SOLUTION from run 6
USER: SCORE 21.318842 LL:  -4.527 LR: -19.008 RR:   0.000 FEB: -11.252
USER: RMSD 12.130902
USER: SEED 55589
USER: STATUS searching
USER: GENES 28
USER: genes 0 Translation |==|  0.56330 0.54889 0.41381
USER: genes 1 Rotation |==|  0.69890 0.17161 0.18062 0.52450
USER: genes 2 Torsion [C]-CA--N-[C] |==|  0.63790
USER: genes 3 Torsion [N]-C--CA-[N] |==|  0.15000
USER: genes 4 Torsion [C]-CA--CB-[CG] |==|  0.35600
USER: genes 5 Torsion [CA]-CB--CG-[CD] |==|  0.78207
USER: genes 6 Torsion [CB]-CG--CD-[NE] |==|  0.58568
USER: genes 7 Torsion [CG]-CD--NE-[HE] |==|  0.04559
USER: genes 8 Torsion [C]-CA--N-[C] |==|  0.76851
USER: genes 9 Torsion [N]-C--CA-[N] |==|  0.83572
USER: genes 10 Torsion [C]-CA--N-[H3] |==|  0.44158
USER: genes 11 Torsion [C]-CA--CB-[CG] |==|  0.44738
USER: genes 12 Torsion [CA]-CB--CG-[ND2] |==|  0.63551
USER: genes 13 Torsion [N]-CA--CB-[CG] |==|  0.77551
USER: genes 14 Torsion [CA]-CB--CG-[CD1] |==|  0.39065
USER: genes 15 Torsion [N]-CA--C-[N] |==|  0.41271
USER: genes 16 Torsion [C]-N--CA-[CB] |==|  0.34491
USER: genes 17 Torsion [N]-CA--C-[N] |==|  0.40805
USER: genes 18 Torsion [C]-N--CA-[C] |==|  0.80812
USER: genes 19 Torsion [N]-CA--C-[N] |==|  0.37129
USER: genes 20 Torsion [C]-N--CA-[C] |==|  0.63662
USER: genes 21 Torsion [N]-CA--CB-[CG2] |==|  0.74617
USER: genes 22 Torsion [CA]-CB--OG1-[HG1] |==|  0.01186
USER: genes 23 Torsion [N]-CA--C-[O] |==|  0.02353
USER: genes 24 Torsion [N]-CA--CB-[CG] |==|  0.63079
USER: genes 25 Torsion [CA]-CB--CG-[CD2] |==|  0.30245
USER: genes 26 Torsion [N]-CA--CB-[CG] |==|  0.86128
USER: genes 27 Torsion [CA]-CB--CG-[CD1] |==|  0.55001
ROOT
ATOM      1  CA  LEU B   3     -16.535 -21.661 -30.127  1.00 17.18 LIG 0.18  C 
ENDROOT
BRANCH 1 2
ATOM      2  N   LEU B   3     -16.156 -20.300 -30.207  1.00 21.09 LIG-0.35  N 
ATOM      3  C   ARG B   2     -15.331 -19.866 -31.155  1.00 20.79 LIG 0.24  C 
ATOM      4 O    ARG B   2     -14.901 -20.589 -32.078  1.00 18.81 LIG-0.27  OA
ATOM      5 H    LEU B   3     -16.501 -19.797 -29.601  1.00 21.09 LIG 0.16  HD
BRANCH 3 6
ATOM      6  CA  ARG B   2     -14.866 -18.423 -31.005  1.00 21.42 LIG 0.18  C 
BRANCH 6 7
ATOM      7  CB  ARG B   2     -13.875 -17.998 -32.095  1.00 36.36 LIG 0.04  C 
BRANCH 7 8
ATOM      8  CG  ARG B   2     -14.298 -16.712 -32.779  1.00 41.67 LIG 0.02  C 
BRANCH 8 9
ATOM      9  CD  ARG B   2     -15.404 -16.915 -33.816  1.00 51.14 LIG 0.14  C 
BRANCH 9 10
ATOM     10  NE  ARG B   2     -15.306 -15.940 -34.918  1.00 53.41 LIG-0.23  N 
ATOM     11 HE   ARG B   2     -14.563 -15.517 -35.006  1.00 53.41 LIG 0.18  HD
ATOM     12  CZ  ARG B   2     -16.278 -15.659 -35.794  1.00 50.83 LIG 0.67  C 
ATOM     13  NH1 ARG B   2     -17.454 -16.270 -35.719  1.00 40.00 LIG-0.23  N 
ATOM     14  NH2 ARG B   2     -16.072 -14.747 -36.747  1.00 54.23 LIG-0.23  N 
ATOM     15 1HH1 ARG B   2     -17.597 -16.853 -35.103  1.00 40.00 LIG 0.17  HD
ATOM     16 2HH1 ARG B   2     -18.073 -16.082 -36.286  1.00 40.00 LIG 0.17  HD
ATOM     17 1HH2 ARG B   2     -15.315 -14.342 -36.797  1.00 54.23 LIG 0.17  HD
ATOM     18 2HH2 ARG B   2     -16.695 -14.566 -37.310  1.00 54.23 LIG 0.17  HD
ENDBRANCH 9 10
ENDBRANCH 8 9
ENDBRANCH 7 8
ENDBRANCH 6 7
BRANCH 6 19
ATOM     19  N   ARG B   2     -14.297 -18.274 -29.683  1.00 29.89 LIG-0.35  N 
ATOM     20  C   ASN B   1     -15.079 -18.046 -28.637  1.00 39.87 LIG 0.25  C 
ATOM     21 O    ASN B   1     -16.240 -17.631 -28.748  1.00 37.46 LIG-0.27  OA
ATOM     22 H    ARG B   2     -13.441 -18.345 -29.647  1.00 29.89 LIG 0.16  HD
BRANCH 20 23
ATOM     23  CA  ASN B   1     -14.447 -18.319 -27.260  1.00 47.73 LIG 0.28  C 
BRANCH 23 24
ATOM     24  N   ASN B   1     -13.995 -19.675 -27.067  1.00 51.86 LIG-0.07  N 
ATOM     25 H3   ASN B   1     -13.390 -19.697 -26.415  1.00 51.86 LIG 0.28  HD
ATOM     26 H1   ASN B   1     -14.686 -20.190 -26.847  1.00 51.86 LIG 0.28  HD
ATOM     27 H2   ASN B   1     -13.629 -19.976 -27.820  1.00 51.86 LIG 0.28  HD
ENDBRANCH 23 24
BRANCH 23 28
ATOM     28  CB  ASN B   1     -13.281 -17.399 -26.959  1.00 49.79 LIG 0.14  C 
BRANCH 28 29
ATOM     29  CG  ASN B   1     -12.981 -17.359 -25.480  1.00 59.47 LIG 0.22  C 
ATOM     30  ND2 ASN B   1     -12.841 -16.149 -24.925  1.00 63.81 LIG-0.37  N 
ATOM     31 21HD ASN B   1     -12.647 -16.079 -24.091  1.00 63.81 LIG 0.16  HD
ATOM     32 22HD ASN B   1     -12.946 -15.443 -25.403  1.00 63.81 LIG 0.16  HD
ATOM     33 OD1  ASN B   1     -12.842 -18.400 -24.843  1.00 60.25 LIG-0.27  OA
ENDBRANCH 28 29
ENDBRANCH 23 28
ENDBRANCH 20 23
ENDBRANCH 6 19
ENDBRANCH 3 6
ENDBRANCH 1 2
BRANCH 1 34
ATOM     34  CB  LEU B   3     -15.782 -22.352 -28.956  1.00 28.79 LIG 0.04  C 
BRANCH 34 35
ATOM     35  CG  LEU B   3     -14.358 -22.747 -29.363  1.00 33.15 LIG-0.02  C 
ATOM     36  CD2 LEU B   3     -14.350 -24.204 -29.807  1.00 30.13 LIG 0.01  C 
ATOM     37  CD1 LEU B   3     -13.291 -22.524 -28.252  1.00 27.67 LIG 0.01  C 
ENDBRANCH 34 35
ENDBRANCH 1 34
BRANCH 1 38
ATOM     38  C   LEU B   3     -18.034 -21.828 -30.006  1.00 20.33 LIG 0.24  C 
ATOM     39  N   LEU B   4     -18.540 -22.929 -30.552  1.00 23.83 LIG-0.35  N 
ATOM     40 H    LEU B   4     -18.073 -23.528 -30.955  1.00 23.83 LIG 0.16  HD
ATOM     41 O    LEU B   3     -18.729 -20.997 -29.429  1.00 22.70 LIG-0.27  OA
BRANCH 39 42
ATOM     42  CA  LEU B   4     -19.972 -23.201 -30.501  1.00 22.91 LIG 0.18  C 
BRANCH 42 43
ATOM     43  C   LEU B   4     -20.188 -24.512 -29.737  1.00 30.74 LIG 0.24  C 
ATOM     44 O    LEU B   4     -19.361 -25.464 -29.825  1.00 30.11 LIG-0.27  OA
ATOM     45  N   LEU B   5     -21.293 -24.612 -29.011  1.00 32.41 LIG-0.35  N 
ATOM     46 H    LEU B   5     -21.855 -23.978 -28.863  1.00 32.41 LIG 0.16  HD
BRANCH 45 47
ATOM     47  CA  LEU B   5     -21.606 -25.908 -28.396  1.00 35.50 LIG 0.18  C 
BRANCH 47 48
ATOM     48  C   LEU B   5     -21.980 -26.930 -29.463  1.00 33.38 LIG 0.24  C 
ATOM     49 O    LEU B   5     -22.786 -26.647 -30.377  1.00 25.58 LIG-0.27  OA
ATOM     50  N   THR B   6     -21.390 -28.113 -29.326  1.00 32.99 LIG-0.34  N 
ATOM     51 H    THR B   6     -20.738 -28.248 -28.781  1.00 32.99 LIG 0.16  HD
BRANCH 50 52
ATOM     52  CA  THR B   6     -21.773 -29.304 -30.072  1.00 39.09 LIG 0.19  C 
BRANCH 52 53
ATOM     53  CB  THR B   6     -20.676 -29.682 -31.104  1.00 66.99 LIG 0.14  C 
ATOM     54  CG2 THR B   6     -20.946 -29.029 -32.446  1.00 64.52 LIG 0.04  C 
BRANCH 53 55
ATOM     55 OG1  THR B   6     -19.387 -29.243 -30.631  1.00 68.32 LIG-0.39  OA
ATOM     56 HG1  THR B   6     -19.467 -28.919 -29.860  1.00 68.32 LIG 0.21  HD
ENDBRANCH 53 55
ENDBRANCH 52 53
BRANCH 52 57
ATOM     57  C   THR B   6     -21.942 -30.470 -29.087  1.00 46.48 LIG 0.22  C 
ATOM     58 O    THR B   6     -21.910 -30.276 -27.862  1.00 50.47 LIG-0.29  OA
ENDBRANCH 52 57
ENDBRANCH 50 52
ENDBRANCH 47 48
BRANCH 47 59
ATOM     59  CB  LEU B   5     -22.768 -25.787 -27.418  1.00 41.25 LIG 0.04  C 
BRANCH 59 60
ATOM     60  CG  LEU B   5     -22.619 -26.431 -26.049  1.00 47.99 LIG-0.02  C 
ATOM     61  CD2 LEU B   5     -22.466 -25.376 -24.989  1.00 50.88 LIG 0.01  C 
ATOM     62  CD1 LEU B   5     -21.392 -27.319 -26.080  1.00 54.72 LIG 0.01  C 
ENDBRANCH 59 60
ENDBRANCH 47 59
ENDBRANCH 45 47
ENDBRANCH 42 43
BRANCH 42 63
ATOM     63  CB  LEU B   4     -20.452 -23.399 -31.924  1.00 23.96 LIG 0.04  C 
BRANCH 63 64
ATOM     64  CG  LEU B   4     -20.141 -22.433 -33.046  1.00 38.52 LIG-0.02  C 
ATOM     65  CD1 LEU B   4     -21.058 -22.620 -34.199  1.00 46.71 LIG 0.01  C 
ATOM     66  CD2 LEU B   4     -20.190 -21.002 -32.491  1.00 36.33 LIG 0.01  C 
ENDBRANCH 63 64
ENDBRANCH 42 63
ENDBRANCH 39 42
ENDBRANCH 1 38
TORSDOF 26
ENDMDL
MODEL 37
USER: ADFR SOLUTION from run 37
USER: SCORE 22.141345 LL:  -4.687 LR: -18.973 RR:   0.000 FEB: -11.217
USER: RMSD 5.344496
USER: SEED 36
USER: STATUS no improvement in best in 6 clusters for 5 generations
USER: GENES 28
USER: genes 0 Translation |==|  0.42011 0.51367 0.42864
USER: genes 1 Rotation |==|  0.76697 0.56440 0.53749 0.91614
USER: genes 2 Torsion [C]-CA--N-[C] |==|  0.75008
USER: genes 3 Torsion [N]-C--CA-[N] |==|  0.90387
USER: genes 4 Torsion [C]-CA--CB-[CG] |==|  0.90824
USER: genes 5 Torsion [CA]-CB--CG-[CD] |==|  0.40795
USER: genes 6 Torsion [CB]-CG--CD-[NE] |==|  0.85362
USER: genes 7 Torsion [CG]-CD--NE-[HE] |==|  0.98801
USER: genes 8 Torsion [C]-CA--N-[C] |==|  0.66363
USER: genes 9 Torsion [N]-C--CA-[N] |==|  0.57857
USER: genes 10 Torsion [C]-CA--N-[H3] |==|  0.94580
USER: genes 11 Torsion [C]-CA--CB-[CG] |==|  0.37305
USER: genes 12 Torsion [CA]-CB--CG-[ND2] |==|  0.16855
USER: genes 13 Torsion [N]-CA--CB-[CG] |==|  0.11652
USER: genes 14 Torsion [CA]-CB--CG-[CD1] |==|  0.40193
USER: genes 15 Torsion [N]-CA--C-[N] |==|  0.43407
USER: genes 16 Torsion [C]-N--CA-[CB] |==|  0.25460
USER: genes 17 Torsion [N]-CA--C-[N] |==|  0.43998
USER: genes 18 Torsion [C]-N--CA-[C] |==|  0.83347
USER: genes 19 Torsion [N]-CA--C-[N] |==|  0.35556
USER: genes 20 Torsion [C]-N--CA-[C] |==|  0.24926
USER: genes 21 Torsion [N]-CA--CB-[CG2] |==|  0.40705
USER: genes 22 Torsion [CA]-CB--OG1-[HG1] |==|  0.39090
USER: genes 23 Torsion [N]-CA--C-[O] |==|  0.94356
USER: genes 24 Torsion [N]-CA--CB-[CG] |==|  0.51641
USER: genes 25 Torsion [CA]-CB--CG-[CD2] |==|  0.50287
USER: genes 26 Torsion [N]-CA--CB-[CG] |==|  0.51648
USER: genes 27 Torsion [CA]-CB--CG-[CD1] |==|  0.07052
ROOT
ATOM      1  CA  LEU B   3     -20.079 -22.533 -29.816  1.00 17.18 LIG 0.18  C 
ENDROOT
BRANCH 1 2
ATOM      2  N   LEU B   3     -20.797 -23.748 -29.713  1.00 21.09 LIG-0.35  N 
ATOM      3  C   ARG B   2     -20.535 -24.776 -30.516  1.00 20.79 LIG 0.24  C 
ATOM      4 O    ARG B   2     -19.603 -24.781 -31.347  1.00 18.81 LIG-0.27  OA
ATOM      5 H    LEU B   3     -21.400 -23.756 -29.100  1.00 21.09 LIG 0.16  HD
BRANCH 3 6
ATOM      6  CA  ARG B   2     -21.507 -25.945 -30.416  1.00 21.42 LIG 0.18  C 
BRANCH 6 7
ATOM      7  CB  ARG B   2     -22.701 -25.811 -31.368  1.00 36.36 LIG 0.04  C 
BRANCH 7 8
ATOM      8  CG  ARG B   2     -23.108 -24.364 -31.571  1.00 41.67 LIG 0.02  C 
BRANCH 8 9
ATOM      9  CD  ARG B   2     -23.650 -24.079 -32.972  1.00 51.14 LIG 0.14  C 
BRANCH 9 10
ATOM     10  NE  ARG B   2     -22.722 -24.537 -34.023  1.00 53.41 LIG-0.23  N 
ATOM     11 HE   ARG B   2     -21.965 -24.855 -33.768  1.00 53.41 LIG 0.18  HD
ATOM     12  CZ  ARG B   2     -22.959 -24.498 -35.339  1.00 50.83 LIG 0.67  C 
ATOM     13  NH1 ARG B   2     -24.104 -24.017 -35.806  1.00 40.00 LIG-0.23  N 
ATOM     14  NH2 ARG B   2     -22.033 -24.936 -36.195  1.00 54.23 LIG-0.23  N 
ATOM     15 1HH1 ARG B   2     -24.703 -23.727 -35.261  1.00 40.00 LIG 0.17  HD
ATOM     16 2HH1 ARG B   2     -24.248 -23.996 -36.654  1.00 40.00 LIG 0.17  HD
ATOM     17 1HH2 ARG B   2     -21.285 -25.242 -35.900  1.00 54.23 LIG 0.17  HD
ATOM     18 2HH2 ARG B   2     -22.184 -24.911 -37.040  1.00 54.23 LIG 0.17  HD
ENDBRANCH 9 10
ENDBRANCH 8 9
ENDBRANCH 7 8
ENDBRANCH 6 7
BRANCH 6 19
ATOM     19  N   ARG B   2     -21.936 -26.051 -29.039  1.00 29.89 LIG-0.35  N 
ATOM     20  C   ASN B   1     -21.728 -27.167 -28.353  1.00 39.87 LIG 0.25  C 
ATOM     21 O    ASN B   1     -21.477 -28.249 -28.900  1.00 37.46 LIG-0.27  OA
ATOM     22 H    ARG B   2     -22.321 -25.349 -28.724  1.00 29.89 LIG 0.16  HD
BRANCH 20 23
ATOM     23  CA  ASN B   1     -21.830 -27.038 -26.822  1.00 47.73 LIG 0.28  C 
BRANCH 23 24
ATOM     24  N   ASN B   1     -21.024 -27.983 -26.088  1.00 51.86 LIG-0.07  N 
ATOM     25 H3   ASN B   1     -20.813 -28.667 -26.616  1.00 51.86 LIG 0.28  HD
ATOM     26 H1   ASN B   1     -20.280 -27.583 -25.808  1.00 51.86 LIG 0.28  HD
ATOM     27 H2   ASN B   1     -21.483 -28.281 -25.386  1.00 51.86 LIG 0.28  HD
ENDBRANCH 23 24
BRANCH 23 28
ATOM     28  CB  ASN B   1     -21.478 -25.651 -26.328  1.00 49.79 LIG 0.14  C 
BRANCH 28 29
ATOM     29  CG  ASN B   1     -22.481 -25.159 -25.311  1.00 59.47 LIG 0.22  C 
ATOM     30  ND2 ASN B   1     -22.608 -25.881 -24.192  1.00 63.81 LIG-0.37  N 
ATOM     31 21HD ASN B   1     -23.183 -25.651 -23.596  1.00 63.81 LIG 0.16  HD
ATOM     32 22HD ASN B   1     -22.114 -26.574 -24.069  1.00 63.81 LIG 0.16  HD
ATOM     33 OD1  ASN B   1     -23.159 -24.161 -25.537  1.00 60.25 LIG-0.27  OA
ENDBRANCH 28 29
ENDBRANCH 23 28
ENDBRANCH 20 23
ENDBRANCH 6 19
ENDBRANCH 3 6
ENDBRANCH 1 2
BRANCH 1 34
ATOM     34  CB  LEU B   3     -21.020 -21.335 -29.503  1.00 28.79 LIG 0.04  C 
BRANCH 34 35
ATOM     35  CG  LEU B   3     -21.931 -21.638 -28.309  1.00 33.15 LIG-0.02  C 
ATOM     36  CD2 LEU B   3     -23.235 -22.242 -28.813  1.00 30.13 LIG 0.01  C 
ATOM     37  CD1 LEU B   3     -22.230 -20.404 -27.406  1.00 27.67 LIG 0.01  C 
ENDBRANCH 34 35
ENDBRANCH 1 34
BRANCH 1 38
ATOM     38  C   LEU B   3     -18.848 -22.523 -28.936  1.00 20.33 LIG 0.24  C 
ATOM     39  N   LEU B   4     -17.880 -21.691 -29.305  1.00 23.83 LIG-0.35  N 
ATOM     40 H    LEU B   4     -17.919 -21.177 -29.994  1.00 23.83 LIG 0.16  HD
ATOM     41 O    LEU B   3     -18.763 -23.237 -27.941  1.00 22.70 LIG-0.27  OA
BRANCH 39 42
ATOM     42  CA  LEU B   4     -16.643 -21.592 -28.539  1.00 22.91 LIG 0.18  C 
BRANCH 42 43
ATOM     43  C   LEU B   4     -16.078 -20.179 -28.713  1.00 30.74 LIG 0.24  C 
ATOM     44 O    LEU B   4     -16.381 -19.472 -29.715  1.00 30.11 LIG-0.27  OA
ATOM     45  N   LEU B   5     -15.234 -19.748 -27.784  1.00 32.41 LIG-0.35  N 
ATOM     46 H    LEU B   5     -15.043 -20.156 -27.052  1.00 32.41 LIG 0.16  HD
BRANCH 45 47
ATOM     47  CA  LEU B   5     -14.555 -18.465 -28.002  1.00 35.50 LIG 0.18  C 
BRANCH 47 48
ATOM     48  C   LEU B   5     -13.720 -18.511 -29.276  1.00 33.38 LIG 0.24  C 
ATOM     49 O    LEU B   5     -12.890 -19.425 -29.473  1.00 25.58 LIG-0.27  OA
ATOM     50  N   THR B   6     -13.951 -17.514 -30.125  1.00 32.99 LIG-0.34  N 
ATOM     51 H    THR B   6     -14.617 -16.978 -30.042  1.00 32.99 LIG 0.16  HD
BRANCH 50 52
ATOM     52  CA  THR B   6     -13.112 -17.218 -31.279  1.00 39.09 LIG 0.19  C 
BRANCH 52 53
ATOM     53  CB  THR B   6     -11.642 -17.639 -31.012  1.00 66.99 LIG 0.14  C 
ATOM     54  CG2 THR B   6     -10.974 -18.117 -32.286  1.00 64.52 LIG 0.04  C 
BRANCH 53 55
ATOM     55 OG1  THR B   6     -10.898 -16.518 -30.496  1.00 68.32 LIG-0.39  OA
ATOM     56 HG1  THR B   6     -10.373 -16.782 -29.895  1.00 68.32 LIG 0.21  HD
ENDBRANCH 53 55
ENDBRANCH 52 53
BRANCH 52 57
ATOM     57  C   THR B   6     -13.638 -18.008 -32.486  1.00 46.48 LIG 0.22  C 
ATOM     58 O    THR B   6     -14.357 -19.006 -32.328  1.00 50.47 LIG-0.29  OA
ENDBRANCH 52 57
ENDBRANCH 50 52
ENDBRANCH 47 48
BRANCH 47 59
ATOM     59  CB  LEU B   5     -13.636 -18.123 -26.837  1.00 41.25 LIG 0.04  C 
BRANCH 59 60
ATOM     60  CG  LEU B   5     -12.960 -16.761 -26.837  1.00 47.99 LIG-0.02  C 
ATOM     61  CD2 LEU B   5     -12.078 -16.616 -25.628  1.00 50.88 LIG 0.01  C 
ATOM     62  CD1 LEU B   5     -14.041 -15.701 -26.823  1.00 54.72 LIG 0.01  C 
ENDBRANCH 59 60
ENDBRANCH 47 59
ENDBRANCH 45 47
ENDBRANCH 42 43
BRANCH 42 63
ATOM     63  CB  LEU B   4     -15.654 -22.573 -29.135  1.00 23.96 LIG 0.04  C 
BRANCH 63 64
ATOM     64  CG  LEU B   4     -14.297 -22.856 -28.530  1.00 38.52 LIG-0.02  C 
ATOM     65  CD1 LEU B   4     -14.281 -22.580 -27.070  1.00 46.71 LIG 0.01  C 
ATOM     66  CD2 LEU B   4     -13.907 -24.307 -28.851  1.00 36.33 LIG 0.01  C 
ENDBRANCH 63 64
ENDBRANCH 42 63
ENDBRANCH 39 42
ENDBRANCH 1 38
TORSDOF 26
ENDMDL
MODEL 38
USER: ADFR SOLUTION from run 163
USER: SCORE 21.430143 LL:  -4.253 LR: -18.935 RR:   0.000 FEB: -11.180
USER: RMSD 5.841553
USER: SEED 162
USER: STATUS no improvement in best in 11 clusters for 5 generations
USER: GENES 28
USER: genes 0 Translation |==|  0.59288 0.54228 0.43734
USER: genes 1 Rotation |==|  0.14487 0.21767 0.56925 0.69844
USER: genes 2 Torsion [C]-CA--N-[C] |==|  0.75360
USER: genes 3 Torsion [N]-C--CA-[N] |==|  0.83162
USER: genes 4 Torsion [C]-CA--CB-[CG] |==|  0.29231
USER: genes 5 Torsion [CA]-CB--CG-[CD] |==|  0.37219
USER: genes 6 Torsion [CB]-CG--CD-[NE] |==|  0.28842
USER: genes 7 Torsion [CG]-CD--NE-[HE] |==|  0.74136
USER: genes 8 Torsion [C]-CA--N-[C] |==|  0.62454
USER: genes 9 Torsion [N]-C--CA-[N] |==|  0.30742
USER: genes 10 Torsion [C]-CA--N-[H3] |==|  0.46332
USER: genes 11 Torsion [C]-CA--CB-[CG] |==|  0.77801
USER: genes 12 Torsion [CA]-CB--CG-[ND2] |==|  0.51804
USER: genes 13 Torsion [N]-CA--CB-[CG] |==|  0.64605
USER: genes 14 Torsion [CA]-CB--CG-[CD1] |==|  0.02914
USER: genes 15 Torsion [N]-CA--C-[N] |==|  0.34841
USER: genes 16 Torsion [C]-N--CA-[CB] |==|  0.46154
USER: genes 17 Torsion [N]-CA--C-[N] |==|  0.46151
USER: genes 18 Torsion [C]-N--CA-[C] |==|  0.63735
USER: genes 19 Torsion [N]-CA--C-[N] |==|  0.40834
USER: genes 20 Torsion [C]-N--CA-[C] |==|  0.62612
USER: genes 21 Torsion [N]-CA--CB-[CG2] |==|  0.64900
USER: genes 22 Torsion [CA]-CB--OG1-[HG1] |==|  0.13443
USER: genes 23 Torsion [N]-CA--C-[O] |==|  0.79093
USER: genes 24 Torsion [N]-CA--CB-[CG] |==|  0.44501
USER: genes 25 Torsion [CA]-CB--CG-[CD2] |==|  0.52499
USER: genes 26 Torsion [N]-CA--CB-[CG] |==|  0.00440
USER: genes 27 Torsion [CA]-CB--CG-[CD1] |==|  0.25516
ROOT
ATOM      1  CA  LEU B   3     -15.803 -21.825 -29.633  1.00 17.18 LIG 0.18  C 
ENDROOT
BRANCH 1 2
ATOM      2  N   LEU B   3     -16.999 -22.372 -30.156  1.00 21.09 LIG-0.35  N 
ATOM      3  C   ARG B   2     -18.191 -21.954 -29.741  1.00 20.79 LIG 0.24  C 
ATOM      4 O    ARG B   2     -18.349 -21.010 -28.939  1.00 18.81 LIG-0.27  OA
ATOM      5 H    LEU B   3     -16.882 -22.983 -30.749  1.00 21.09 LIG 0.16  HD
BRANCH 3 6
ATOM      6  CA  ARG B   2     -19.379 -22.759 -30.251  1.00 21.42 LIG 0.18  C 
BRANCH 6 7
ATOM      7  CB  ARG B   2     -19.365 -24.214 -29.771  1.00 36.36 LIG 0.04  C 
BRANCH 7 8
ATOM      8  CG  ARG B   2     -20.386 -24.463 -28.677  1.00 41.67 LIG 0.02  C 
BRANCH 8 9
ATOM      9  CD  ARG B   2     -21.208 -25.735 -28.895  1.00 51.14 LIG 0.14  C 
BRANCH 9 10
ATOM     10  NE  ARG B   2     -20.766 -26.830 -28.013  1.00 53.41 LIG-0.23  N 
ATOM     11 HE   ARG B   2     -20.181 -27.377 -28.327  1.00 53.41 LIG 0.18  HD
ATOM     12  CZ  ARG B   2     -21.198 -27.045 -26.765  1.00 50.83 LIG 0.67  C 
ATOM     13  NH1 ARG B   2     -22.102 -26.244 -26.216  1.00 40.00 LIG-0.23  N 
ATOM     14  NH2 ARG B   2     -20.727 -28.080 -26.067  1.00 54.23 LIG-0.23  N 
ATOM     15 1HH1 ARG B   2     -22.416 -25.580 -26.663  1.00 40.00 LIG 0.17  HD
ATOM     16 2HH1 ARG B   2     -22.375 -26.390 -25.413  1.00 40.00 LIG 0.17  HD
ATOM     17 1HH2 ARG B   2     -20.146 -28.608 -26.419  1.00 54.23 LIG 0.17  HD
ATOM     18 2HH2 ARG B   2     -21.004 -28.219 -25.265  1.00 54.23 LIG 0.17  HD
ENDBRANCH 9 10
ENDBRANCH 8 9
ENDBRANCH 7 8
ENDBRANCH 6 7
BRANCH 6 19
ATOM     19  N   ARG B   2     -19.384 -22.678 -31.696  1.00 29.89 LIG-0.35  N 
ATOM     20  C   ASN B   1     -20.512 -22.447 -32.353  1.00 39.87 LIG 0.25  C 
ATOM     21 O    ASN B   1     -21.628 -22.612 -31.842  1.00 37.46 LIG-0.27  OA
ATOM     22 H    ARG B   2     -18.616 -22.789 -32.068  1.00 29.89 LIG 0.16  HD
BRANCH 20 23
ATOM     23  CA  ASN B   1     -20.352 -21.968 -33.807  1.00 47.73 LIG 0.28  C 
BRANCH 23 24
ATOM     24  N   ASN B   1     -20.765 -22.928 -34.802  1.00 51.86 LIG-0.07  N 
ATOM     25 H3   ASN B   1     -20.827 -22.526 -35.594  1.00 51.86 LIG 0.28  HD
ATOM     26 H1   ASN B   1     -20.165 -23.584 -34.848  1.00 51.86 LIG 0.28  HD
ATOM     27 H2   ASN B   1     -21.557 -23.265 -34.577  1.00 51.86 LIG 0.28  HD
ENDBRANCH 23 24
BRANCH 23 28
ATOM     28  CB  ASN B   1     -21.091 -20.674 -34.081  1.00 49.79 LIG 0.14  C 
BRANCH 28 29
ATOM     29  CG  ASN B   1     -22.564 -20.921 -34.308  1.00 59.47 LIG 0.22  C 
ATOM     30  ND2 ASN B   1     -23.299 -19.871 -34.692  1.00 63.81 LIG-0.37  N 
ATOM     31 21HD ASN B   1     -24.146 -19.960 -34.811  1.00 63.81 LIG 0.16  HD
ATOM     32 22HD ASN B   1     -22.924 -19.108 -34.821  1.00 63.81 LIG 0.16  HD
ATOM     33 OD1  ASN B   1     -23.047 -22.032 -34.111  1.00 60.25 LIG-0.27  OA
ENDBRANCH 28 29
ENDBRANCH 23 28
ENDBRANCH 20 23
ENDBRANCH 6 19
ENDBRANCH 3 6
ENDBRANCH 1 2
BRANCH 1 34
ATOM     34  CB  LEU B   3     -14.701 -22.919 -29.575  1.00 28.79 LIG 0.04  C 
BRANCH 34 35
ATOM     35  CG  LEU B   3     -14.079 -23.013 -28.178  1.00 33.15 LIG-0.02  C 
ATOM     36  CD2 LEU B   3     -13.982 -24.478 -27.770  1.00 30.13 LIG 0.01  C 
ATOM     37  CD1 LEU B   3     -14.839 -22.205 -27.085  1.00 27.67 LIG 0.01  C 
ENDBRANCH 34 35
ENDBRANCH 1 34
BRANCH 1 38
ATOM     38  C   LEU B   3     -15.347 -20.609 -30.410  1.00 20.33 LIG 0.24  C 
ATOM     39  N   LEU B   4     -15.146 -19.507 -29.695  1.00 23.83 LIG-0.35  N 
ATOM     40 H    LEU B   4     -15.259 -19.454 -28.844  1.00 23.83 LIG 0.16  HD
ATOM     41 O    LEU B   3     -15.167 -20.652 -31.623  1.00 22.70 LIG-0.27  OA
BRANCH 39 42
ATOM     42  CA  LEU B   4     -14.706 -18.271 -30.331  1.00 22.91 LIG 0.18  C 
BRANCH 42 43
ATOM     43  C   LEU B   4     -13.208 -18.387 -30.628  1.00 30.74 LIG 0.24  C 
ATOM     44 O    LEU B   4     -12.500 -19.282 -30.085  1.00 30.11 LIG-0.27  OA
ATOM     45  N   LEU B   5     -12.685 -17.488 -31.452  1.00 32.41 LIG-0.35  N 
ATOM     46 H    LEU B   5     -13.126 -16.901 -31.900  1.00 32.41 LIG 0.16  HD
BRANCH 45 47
ATOM     47  CA  LEU B   5     -11.228 -17.476 -31.635  1.00 35.50 LIG 0.18  C 
BRANCH 47 48
ATOM     48  C   LEU B   5     -10.681 -16.063 -31.471  1.00 33.38 LIG 0.24  C 
ATOM     49 O    LEU B   5     -11.349 -15.065 -31.821  1.00 25.58 LIG-0.27  OA
ATOM     50  N   THR B   6      -9.463 -16.000 -30.942  1.00 32.99 LIG-0.34  N 
ATOM     51 H    THR B   6      -9.078 -16.677 -30.579  1.00 32.99 LIG 0.16  HD
BRANCH 50 52
ATOM     52  CA  THR B   6      -8.650 -14.792 -30.915  1.00 39.09 LIG 0.19  C 
BRANCH 52 53
ATOM     53  CB  THR B   6      -8.603 -14.193 -29.483  1.00 66.99 LIG 0.14  C 
ATOM     54  CG2 THR B   6      -9.018 -12.735 -29.491  1.00 64.52 LIG 0.04  C 
BRANCH 53 55
ATOM     55 OG1  THR B   6      -9.497 -14.921 -28.619  1.00 68.32 LIG-0.39  OA
ATOM     56 HG1  THR B   6      -9.367 -15.746 -28.712  1.00 68.32 LIG 0.21  HD
ENDBRANCH 53 55
ENDBRANCH 52 53
BRANCH 52 57
ATOM     57  C   THR B   6      -7.220 -15.150 -31.345  1.00 46.48 LIG 0.22  C 
ATOM     58 O    THR B   6      -6.455 -15.746 -30.571  1.00 50.47 LIG-0.29  OA
ENDBRANCH 52 57
ENDBRANCH 50 52
ENDBRANCH 47 48
BRANCH 47 59
ATOM     59  CB  LEU B   5     -10.842 -17.984 -33.018  1.00 41.25 LIG 0.04  C 
BRANCH 59 60
ATOM     60  CG  LEU B   5      -9.465 -17.623 -33.552  1.00 47.99 LIG-0.02  C 
ATOM     61  CD2 LEU B   5      -9.345 -18.017 -34.998  1.00 50.88 LIG 0.01  C 
ATOM     62  CD1 LEU B   5      -8.433 -18.360 -32.724  1.00 54.72 LIG 0.01  C 
ENDBRANCH 59 60
ENDBRANCH 47 59
ENDBRANCH 45 47
ENDBRANCH 42 43
BRANCH 42 63
ATOM     63  CB  LEU B   4     -14.904 -17.147 -29.334  1.00 23.96 LIG 0.04  C 
BRANCH 63 64
ATOM     64  CG  LEU B   4     -15.432 -17.364 -27.933  1.00 38.52 LIG-0.02  C 
ATOM     65  CD1 LEU B   4     -14.332 -17.578 -26.959  1.00 46.71 LIG 0.01  C 
ATOM     66  CD2 LEU B   4     -16.320 -16.169 -27.552  1.00 36.33 LIG 0.01  C 
ENDBRANCH 63 64
ENDBRANCH 42 63
ENDBRANCH 39 42
ENDBRANCH 1 38
TORSDOF 26
ENDMDL
MODEL 39
USER: ADFR SOLUTION from run 145
USER: SCORE 22.159339 LL:  -4.771 LR: -18.932 RR:   0.000 FEB: -11.177
USER: RMSD 11.433074
USER: SEED 144
USER: STATUS searching
USER: GENES 28
USER: genes 0 Translation |==|  0.54272 0.59019 0.44280
USER: genes 1 Rotation |==|  0.78870 0.17952 0.24891 0.52994
USER: genes 2 Torsion [C]-CA--N-[C] |==|  0.75865
USER: genes 3 Torsion [N]-C--CA-[N] |==|  0.08333
USER: genes 4 Torsion [C]-CA--CB-[CG] |==|  0.25842
USER: genes 5 Torsion [CA]-CB--CG-[CD] |==|  0.10070
USER: genes 6 Torsion [CB]-CG--CD-[NE] |==|  0.58280
USER: genes 7 Torsion [CG]-CD--NE-[HE] |==|  0.31682
USER: genes 8 Torsion [C]-CA--N-[C] |==|  0.67257
USER: genes 9 Torsion [N]-C--CA-[N] |==|  0.55257
USER: genes 10 Torsion [C]-CA--N-[H3] |==|  0.97478
USER: genes 11 Torsion [C]-CA--CB-[CG] |==|  0.22878
USER: genes 12 Torsion [CA]-CB--CG-[ND2] |==|  0.53257
USER: genes 13 Torsion [N]-CA--CB-[CG] |==|  0.59393
USER: genes 14 Torsion [CA]-CB--CG-[CD1] |==|  0.01968
USER: genes 15 Torsion [N]-CA--C-[N] |==|  0.30284
USER: genes 16 Torsion [C]-N--CA-[CB] |==|  0.44567
USER: genes 17 Torsion [N]-CA--C-[N] |==|  0.46117
USER: genes 18 Torsion [C]-N--CA-[C] |==|  0.17600
USER: genes 19 Torsion [N]-CA--C-[N] |==|  0.10941
USER: genes 20 Torsion [C]-N--CA-[C] |==|  0.80407
USER: genes 21 Torsion [N]-CA--CB-[CG2] |==|  0.02444
USER: genes 22 Torsion [CA]-CB--OG1-[HG1] |==|  0.29007
USER: genes 23 Torsion [N]-CA--C-[O] |==|  0.14943
USER: genes 24 Torsion [N]-CA--CB-[CG] |==|  0.71684
USER: genes 25 Torsion [CA]-CB--CG-[CD2] |==|  0.59679
USER: genes 26 Torsion [N]-CA--CB-[CG] |==|  0.57556
USER: genes 27 Torsion [CA]-CB--CG-[CD1] |==|  0.27960
ROOT
ATOM      1  CA  LEU B   3     -17.045 -20.639 -29.518  1.00 17.18 LIG 0.18  C 
ENDROOT
BRANCH 1 2
ATOM      2  N   LEU B   3     -17.006 -19.242 -29.742  1.00 21.09 LIG-0.35  N 
ATOM      3  C   ARG B   2     -16.736 -18.741 -30.944  1.00 20.79 LIG 0.24  C 
ATOM      4 O    ARG B   2     -16.583 -19.443 -31.964  1.00 18.81 LIG-0.27  OA
ATOM      5 H    LEU B   3     -17.168 -18.764 -29.045  1.00 21.09 LIG 0.16  HD
BRANCH 3 6
ATOM      6  CA  ARG B   2     -16.544 -17.230 -30.992  1.00 21.42 LIG 0.18  C 
BRANCH 6 7
ATOM      7  CB  ARG B   2     -15.650 -16.779 -32.152  1.00 36.36 LIG 0.04  C 
BRANCH 7 8
ATOM      8  CG  ARG B   2     -16.455 -16.424 -33.387  1.00 41.67 LIG 0.02  C 
BRANCH 8 9
ATOM      9  CD  ARG B   2     -17.789 -15.748 -33.066  1.00 51.14 LIG 0.14  C 
BRANCH 9 10
ATOM     10  NE  ARG B   2     -18.810 -16.038 -34.089  1.00 53.41 LIG-0.23  N 
ATOM     11 HE   ARG B   2     -19.489 -16.507 -33.846  1.00 53.41 LIG 0.18  HD
ATOM     12  CZ  ARG B   2     -18.770 -15.631 -35.363  1.00 50.83 LIG 0.67  C 
ATOM     13  NH1 ARG B   2     -17.752 -14.906 -35.809  1.00 40.00 LIG-0.23  N 
ATOM     14  NH2 ARG B   2     -19.755 -15.965 -36.199  1.00 54.23 LIG-0.23  N 
ATOM     15 1HH1 ARG B   2     -17.110 -14.693 -35.278  1.00 40.00 LIG 0.17  HD
ATOM     16 2HH1 ARG B   2     -17.734 -14.649 -36.630  1.00 40.00 LIG 0.17  HD
ATOM     17 1HH2 ARG B   2     -20.414 -16.441 -35.919  1.00 54.23 LIG 0.17  HD
ATOM     18 2HH2 ARG B   2     -19.730 -15.705 -37.018  1.00 54.23 LIG 0.17  HD
ENDBRANCH 9 10
ENDBRANCH 8 9
ENDBRANCH 7 8
ENDBRANCH 6 7
BRANCH 6 19
ATOM     19  N   ARG B   2     -16.010 -16.809 -29.715  1.00 29.89 LIG-0.35  N 
ATOM     20  C   ASN B   1     -16.694 -15.976 -28.943  1.00 39.87 LIG 0.25  C 
ATOM     21 O    ASN B   1     -17.619 -15.273 -29.372  1.00 37.46 LIG-0.27  OA
ATOM     22 H    ARG B   2     -15.241 -17.138 -29.517  1.00 29.89 LIG 0.16  HD
BRANCH 20 23
ATOM     23  CA  ASN B   1     -16.257 -15.923 -27.467  1.00 47.73 LIG 0.28  C 
BRANCH 23 24
ATOM     24  N   ASN B   1     -17.241 -15.369 -26.571  1.00 51.86 LIG-0.07  N 
ATOM     25 H3   ASN B   1     -17.910 -15.020 -27.043  1.00 51.86 LIG 0.28  HD
ATOM     26 H1   ASN B   1     -17.556 -16.012 -26.042  1.00 51.86 LIG 0.28  HD
ATOM     27 H2   ASN B   1     -16.866 -14.734 -26.074  1.00 51.86 LIG 0.28  HD
ENDBRANCH 23 24
BRANCH 23 28
ATOM     28  CB  ASN B   1     -15.856 -17.281 -26.928  1.00 49.79 LIG 0.14  C 
BRANCH 28 29
ATOM     29  CG  ASN B   1     -14.431 -17.620 -27.298  1.00 59.47 LIG 0.22  C 
ATOM     30  ND2 ASN B   1     -14.038 -18.882 -27.092  1.00 63.81 LIG-0.37  N 
ATOM     31 21HD ASN B   1     -13.229 -19.114 -27.266  1.00 63.81 LIG 0.16  HD
ATOM     32 22HD ASN B   1     -14.596 -19.461 -26.786  1.00 63.81 LIG 0.16  HD
ATOM     33 OD1  ASN B   1     -13.678 -16.754 -27.733  1.00 60.25 LIG-0.27  OA
ENDBRANCH 28 29
ENDBRANCH 23 28
ENDBRANCH 20 23
ENDBRANCH 6 19
ENDBRANCH 3 6
ENDBRANCH 1 2
BRANCH 1 34
ATOM     34  CB  LEU B   3     -16.582 -20.955 -28.068  1.00 28.79 LIG 0.04  C 
BRANCH 34 35
ATOM     35  CG  LEU B   3     -15.828 -22.288 -28.001  1.00 33.15 LIG-0.02  C 
ATOM     36  CD2 LEU B   3     -14.523 -22.087 -27.241  1.00 30.13 LIG 0.01  C 
ATOM     37  CD1 LEU B   3     -15.542 -22.931 -29.390  1.00 27.67 LIG 0.01  C 
ENDBRANCH 34 35
ENDBRANCH 1 34
BRANCH 1 38
ATOM     38  C   LEU B   3     -18.409 -21.224 -29.812  1.00 20.33 LIG 0.24  C 
ATOM     39  N   LEU B   4     -18.491 -21.983 -30.901  1.00 23.83 LIG-0.35  N 
ATOM     40 H    LEU B   4     -17.830 -22.150 -31.425  1.00 23.83 LIG 0.16  HD
ATOM     41 O    LEU B   3     -19.371 -21.013 -29.080  1.00 22.70 LIG-0.27  OA
BRANCH 39 42
ATOM     42  CA  LEU B   4     -19.752 -22.601 -31.290  1.00 22.91 LIG 0.18  C 
BRANCH 42 43
ATOM     43  C   LEU B   4     -19.924 -23.895 -30.488  1.00 30.74 LIG 0.24  C 
ATOM     44 O    LEU B   4     -18.949 -24.423 -29.881  1.00 30.11 LIG-0.27  OA
ATOM     45  N   LEU B   5     -21.128 -24.450 -30.488  1.00 32.41 LIG-0.35  N 
ATOM     46 H    LEU B   5     -21.839 -24.106 -30.827  1.00 32.41 LIG 0.16  HD
BRANCH 45 47
ATOM     47  CA  LEU B   5     -21.287 -25.769 -29.862  1.00 35.50 LIG 0.18  C 
BRANCH 47 48
ATOM     48  C   LEU B   5     -20.982 -25.693 -28.371  1.00 33.38 LIG 0.24  C 
ATOM     49 O    LEU B   5     -20.361 -26.611 -27.789  1.00 25.58 LIG-0.27  OA
ATOM     50  N   THR B   6     -21.430 -24.595 -27.770  1.00 32.99 LIG-0.34  N 
ATOM     51 H    THR B   6     -21.727 -23.916 -28.205  1.00 32.99 LIG 0.16  HD
BRANCH 50 52
ATOM     52  CA  THR B   6     -21.469 -24.418 -26.325  1.00 39.09 LIG 0.19  C 
BRANCH 52 53
ATOM     53  CB  THR B   6     -21.811 -22.947 -25.962  1.00 66.99 LIG 0.14  C 
ATOM     54  CG2 THR B   6     -22.216 -22.164 -27.195  1.00 64.52 LIG 0.04  C 
BRANCH 53 55
ATOM     55 OG1  THR B   6     -22.900 -22.917 -25.019  1.00 68.32 LIG-0.39  OA
ATOM     56 HG1  THR B   6     -22.604 -22.740 -24.253  1.00 68.32 LIG 0.21  HD
ENDBRANCH 53 55
ENDBRANCH 52 53
BRANCH 52 57
ATOM     57  C   THR B   6     -22.558 -25.332 -25.745  1.00 46.48 LIG 0.22  C 
ATOM     58 O    THR B   6     -22.563 -26.548 -25.991  1.00 50.47 LIG-0.29  OA
ENDBRANCH 52 57
ENDBRANCH 50 52
ENDBRANCH 47 48
BRANCH 47 59
ATOM     59  CB  LEU B   5     -20.354 -26.795 -30.493  1.00 41.25 LIG 0.04  C 
BRANCH 59 60
ATOM     60  CG  LEU B   5     -20.943 -27.775 -31.494  1.00 47.99 LIG-0.02  C 
ATOM     61  CD2 LEU B   5     -20.265 -29.112 -31.377  1.00 50.88 LIG 0.01  C 
ATOM     62  CD1 LEU B   5     -20.737 -27.207 -32.883  1.00 54.72 LIG 0.01  C 
ENDBRANCH 59 60
ENDBRANCH 47 59
ENDBRANCH 45 47
ENDBRANCH 42 43
BRANCH 42 63
ATOM     63  CB  LEU B   4     -19.651 -22.965 -32.757  1.00 23.96 LIG 0.04  C 
BRANCH 63 64
ATOM     64  CG  LEU B   4     -20.852 -23.060 -33.673  1.00 38.52 LIG-0.02  C 
ATOM     65  CD1 LEU B   4     -20.996 -21.846 -34.515  1.00 46.71 LIG 0.01  C 
ATOM     66  CD2 LEU B   4     -20.727 -24.339 -34.515  1.00 36.33 LIG 0.01  C 
ENDBRANCH 63 64
ENDBRANCH 42 63
ENDBRANCH 39 42
ENDBRANCH 1 38
TORSDOF 26
ENDMDL
MODEL 40
USER: ADFR SOLUTION from run 156
USER: SCORE 21.761125 LL:  -3.951 LR: -18.923 RR:   0.000 FEB: -11.167
USER: RMSD 11.664920
USER: SEED 155
USER: STATUS no improvement in best in 25 clusters for 5 generations
USER: GENES 28
USER: genes 0 Translation |==|  0.57771 0.57956 0.42358
USER: genes 1 Rotation |==|  0.31280 0.68704 0.92264 0.53666
USER: genes 2 Torsion [C]-CA--N-[C] |==|  0.57926
USER: genes 3 Torsion [N]-C--CA-[N] |==|  0.86048
USER: genes 4 Torsion [C]-CA--CB-[CG] |==|  0.53938
USER: genes 5 Torsion [CA]-CB--CG-[CD] |==|  0.75999
USER: genes 6 Torsion [CB]-CG--CD-[NE] |==|  0.44616
USER: genes 7 Torsion [CG]-CD--NE-[HE] |==|  0.03466
USER: genes 8 Torsion [C]-CA--N-[C] |==|  0.64444
USER: genes 9 Torsion [N]-C--CA-[N] |==|  0.27336
USER: genes 10 Torsion [C]-CA--N-[H3] |==|  0.37744
USER: genes 11 Torsion [C]-CA--CB-[CG] |==|  0.30210
USER: genes 12 Torsion [CA]-CB--CG-[ND2] |==|  0.79489
USER: genes 13 Torsion [N]-CA--CB-[CG] |==|  0.08919
USER: genes 14 Torsion [CA]-CB--CG-[CD1] |==|  0.23956
USER: genes 15 Torsion [N]-CA--C-[N] |==|  0.47536
USER: genes 16 Torsion [C]-N--CA-[CB] |==|  0.54021
USER: genes 17 Torsion [N]-CA--C-[N] |==|  0.36380
USER: genes 18 Torsion [C]-N--CA-[C] |==|  0.83395
USER: genes 19 Torsion [N]-CA--C-[N] |==|  0.39586
USER: genes 20 Torsion [C]-N--CA-[C] |==|  0.60285
USER: genes 21 Torsion [N]-CA--CB-[CG2] |==|  0.51831
USER: genes 22 Torsion [CA]-CB--OG1-[HG1] |==|  0.54559
USER: genes 23 Torsion [N]-CA--C-[O] |==|  0.08036
USER: genes 24 Torsion [N]-CA--CB-[CG] |==|  0.64293
USER: genes 25 Torsion [CA]-CB--CG-[CD2] |==|  0.76033
USER: genes 26 Torsion [N]-CA--CB-[CG] |==|  0.76426
USER: genes 27 Torsion [CA]-CB--CG-[CD1] |==|  0.54703
ROOT
ATOM      1  CA  LEU B   3     -16.179 -20.902 -29.922  1.00 17.18 LIG 0.18  C 
ENDROOT
BRANCH 1 2
ATOM      2  N   LEU B   3     -15.797 -19.832 -29.077  1.00 21.09 LIG-0.35  N 
ATOM      3  C   ARG B   2     -14.736 -19.079 -29.351  1.00 20.79 LIG 0.24  C 
ATOM      4 O    ARG B   2     -14.057 -19.198 -30.391  1.00 18.81 LIG-0.27  OA
ATOM      5 H    LEU B   3     -16.304 -19.721 -28.391  1.00 21.09 LIG 0.16  HD
BRANCH 3 6
ATOM      6  CA  ARG B   2     -14.339 -18.091 -28.261  1.00 21.42 LIG 0.18  C 
BRANCH 6 7
ATOM      7  CB  ARG B   2     -13.682 -18.766 -27.053  1.00 36.36 LIG 0.04  C 
BRANCH 7 8
ATOM      8  CG  ARG B   2     -13.609 -17.841 -25.853  1.00 41.67 LIG 0.02  C 
BRANCH 8 9
ATOM      9  CD  ARG B   2     -12.364 -16.952 -25.850  1.00 51.14 LIG 0.14  C 
BRANCH 9 10
ATOM     10  NE  ARG B   2     -12.529 -15.781 -24.970  1.00 53.41 LIG-0.23  N 
ATOM     11 HE   ARG B   2     -13.199 -15.784 -24.431  1.00 53.41 LIG 0.18  HD
ATOM     12  CZ  ARG B   2     -11.722 -14.713 -24.939  1.00 50.83 LIG 0.67  C 
ATOM     13  NH1 ARG B   2     -10.669 -14.639 -25.743  1.00 40.00 LIG-0.23  N 
ATOM     14  NH2 ARG B   2     -11.981 -13.708 -24.101  1.00 54.23 LIG-0.23  N 
ATOM     15 1HH1 ARG B   2     -10.500 -15.279 -26.291  1.00 40.00 LIG 0.17  HD
ATOM     16 2HH1 ARG B   2     -10.156 -13.949 -25.716  1.00 40.00 LIG 0.17  HD
ATOM     17 1HH2 ARG B   2     -12.666 -13.746 -23.582  1.00 54.23 LIG 0.17  HD
ATOM     18 2HH2 ARG B   2     -11.464 -13.022 -24.079  1.00 54.23 LIG 0.17  HD
ENDBRANCH 9 10
ENDBRANCH 8 9
ENDBRANCH 7 8
ENDBRANCH 6 7
BRANCH 6 19
ATOM     19  N   ARG B   2     -15.523 -17.353 -27.878  1.00 29.89 LIG-0.35  N 
ATOM     20  C   ASN B   1     -15.513 -16.027 -27.859  1.00 39.87 LIG 0.25  C 
ATOM     21 O    ASN B   1     -14.465 -15.368 -27.837  1.00 37.46 LIG-0.27  OA
ATOM     22 H    ARG B   2     -16.203 -17.839 -27.672  1.00 29.89 LIG 0.16  HD
BRANCH 20 23
ATOM     23  CA  ASN B   1     -16.895 -15.349 -27.852  1.00 47.73 LIG 0.28  C 
BRANCH 23 24
ATOM     24  N   ASN B   1     -17.351 -14.932 -26.549  1.00 51.86 LIG-0.07  N 
ATOM     25 H3   ASN B   1     -17.697 -14.114 -26.603  1.00 51.86 LIG 0.28  HD
ATOM     26 H1   ASN B   1     -17.972 -15.498 -26.256  1.00 51.86 LIG 0.28  HD
ATOM     27 H2   ASN B   1     -16.664 -14.926 -25.983  1.00 51.86 LIG 0.28  HD
ENDBRANCH 23 24
BRANCH 23 28
ATOM     28  CB  ASN B   1     -16.960 -14.145 -28.769  1.00 49.79 LIG 0.14  C 
BRANCH 28 29
ATOM     29  CG  ASN B   1     -17.805 -14.428 -29.989  1.00 59.47 LIG 0.22  C 
ATOM     30  ND2 ASN B   1     -17.271 -15.224 -30.922  1.00 63.81 LIG-0.37  N 
ATOM     31 21HD ASN B   1     -17.707 -15.394 -31.643  1.00 63.81 LIG 0.16  HD
ATOM     32 22HD ASN B   1     -16.492 -15.567 -30.800  1.00 63.81 LIG 0.16  HD
ATOM     33 OD1  ASN B   1     -18.914 -13.914 -30.111  1.00 60.25 LIG-0.27  OA
ENDBRANCH 28 29
ENDBRANCH 23 28
ENDBRANCH 20 23
ENDBRANCH 6 19
ENDBRANCH 3 6
ENDBRANCH 1 2
BRANCH 1 34
ATOM     34  CB  LEU B   3     -15.356 -22.173 -29.569  1.00 28.79 LIG 0.04  C 
BRANCH 34 35
ATOM     35  CG  LEU B   3     -15.015 -22.222 -28.076  1.00 33.15 LIG-0.02  C 
ATOM     36  CD2 LEU B   3     -13.696 -22.960 -27.887  1.00 30.13 LIG 0.01  C 
ATOM     37  CD1 LEU B   3     -16.119 -22.869 -27.189  1.00 27.67 LIG 0.01  C 
ENDBRANCH 34 35
ENDBRANCH 1 34
BRANCH 1 38
ATOM     38  C   LEU B   3     -17.668 -21.165 -29.870  1.00 20.33 LIG 0.24  C 
ATOM     39  N   LEU B   4     -18.135 -22.027 -30.767  1.00 23.83 LIG-0.35  N 
ATOM     40 H    LEU B   4     -17.649 -22.428 -31.352  1.00 23.83 LIG 0.16  HD
ATOM     41 O    LEU B   3     -18.389 -20.617 -29.041  1.00 22.70 LIG-0.27  OA
BRANCH 39 42
ATOM     42  CA  LEU B   4     -19.553 -22.361 -30.817  1.00 22.91 LIG 0.18  C 
BRANCH 42 43
ATOM     43  C   LEU B   4     -20.021 -22.700 -29.399  1.00 30.74 LIG 0.24  C 
ATOM     44 O    LEU B   4     -19.394 -23.532 -28.684  1.00 30.11 LIG-0.27  OA
ATOM     45  N   LEU B   5     -21.127 -22.106 -28.971  1.00 32.41 LIG-0.35  N 
ATOM     46 H    LEU B   5     -21.557 -21.487 -29.384  1.00 32.41 LIG 0.16  HD
BRANCH 45 47
ATOM     47  CA  LEU B   5     -21.688 -22.526 -27.680  1.00 35.50 LIG 0.18  C 
BRANCH 47 48
ATOM     48  C   LEU B   5     -22.039 -24.009 -27.706  1.00 33.38 LIG 0.24  C 
ATOM     49 O    LEU B   5     -22.518 -24.543 -28.731  1.00 25.58 LIG-0.27  OA
ATOM     50  N   THR B   6     -21.798 -24.655 -26.569  1.00 32.99 LIG-0.34  N 
ATOM     51 H    THR B   6     -21.342 -24.310 -25.927  1.00 32.99 LIG 0.16  HD
BRANCH 50 52
ATOM     52  CA  THR B   6     -22.273 -26.001 -26.282  1.00 39.09 LIG 0.19  C 
BRANCH 52 53
ATOM     53  CB  THR B   6     -21.160 -27.047 -26.563  1.00 66.99 LIG 0.14  C 
ATOM     54  CG2 THR B   6     -21.694 -28.459 -26.423  1.00 64.52 LIG 0.04  C 
BRANCH 53 55
ATOM     55 OG1  THR B   6     -20.657 -26.877 -27.903  1.00 68.32 LIG-0.39  OA
ATOM     56 HG1  THR B   6     -20.229 -27.564 -28.132  1.00 68.32 LIG 0.21  HD
ENDBRANCH 53 55
ENDBRANCH 52 53
BRANCH 52 57
ATOM     57  C   THR B   6     -22.660 -26.083 -24.799  1.00 46.48 LIG 0.22  C 
ATOM     58 O    THR B   6     -23.059 -25.078 -24.191  1.00 50.47 LIG-0.29  OA
ENDBRANCH 52 57
ENDBRANCH 50 52
ENDBRANCH 47 48
BRANCH 47 59
ATOM     59  CB  LEU B   5     -22.949 -21.739 -27.344  1.00 41.25 LIG 0.04  C 
BRANCH 59 60
ATOM     60  CG  LEU B   5     -23.031 -21.070 -25.982  1.00 47.99 LIG-0.02  C 
ATOM     61  CD2 LEU B   5     -23.559 -22.036 -24.957  1.00 50.88 LIG 0.01  C 
ATOM     62  CD1 LEU B   5     -23.957 -19.878 -26.100  1.00 54.72 LIG 0.01  C 
ENDBRANCH 59 60
ENDBRANCH 47 59
ENDBRANCH 45 47
ENDBRANCH 42 43
BRANCH 42 63
ATOM     63  CB  LEU B   4     -19.701 -23.604 -31.672  1.00 23.96 LIG 0.04  C 
BRANCH 63 64
ATOM     64  CG  LEU B   4     -19.804 -23.565 -33.181  1.00 38.52 LIG-0.02  C 
ATOM     65  CD1 LEU B   4     -20.337 -24.839 -33.727  1.00 46.71 LIG 0.01  C 
ATOM     66  CD2 LEU B   4     -20.662 -22.356 -33.585  1.00 36.33 LIG 0.01  C 
ENDBRANCH 63 64
ENDBRANCH 42 63
ENDBRANCH 39 42
ENDBRANCH 1 38
TORSDOF 26
ENDMDL
MODEL 41
USER: ADFR SOLUTION from run 157
USER: SCORE 22.849300 LL:  -4.406 LR: -18.888 RR:   0.000 FEB: -11.132
USER: RMSD 11.593759
USER: SEED 156
USER: STATUS no improvement in best in 3 clusters for 5 generations
USER: GENES 28
USER: genes 0 Translation |==|  0.40941 0.52350 0.38431
USER: genes 1 Rotation |==|  0.70525 0.33021 0.92193 0.53191
USER: genes 2 Torsion [C]-CA--N-[C] |==|  0.71196
USER: genes 3 Torsion [N]-C--CA-[N] |==|  0.38953
USER: genes 4 Torsion [C]-CA--CB-[CG] |==|  0.57779
USER: genes 5 Torsion [CA]-CB--CG-[CD] |==|  0.44611
USER: genes 6 Torsion [CB]-CG--CD-[NE] |==|  0.68214
USER: genes 7 Torsion [CG]-CD--NE-[HE] |==|  0.68948
USER: genes 8 Torsion [C]-CA--N-[C] |==|  0.65192
USER: genes 9 Torsion [N]-C--CA-[N] |==|  0.95427
USER: genes 10 Torsion [C]-CA--N-[H3] |==|  0.89806
USER: genes 11 Torsion [C]-CA--CB-[CG] |==|  0.92009
USER: genes 12 Torsion [CA]-CB--CG-[ND2] |==|  0.76363
USER: genes 13 Torsion [N]-CA--CB-[CG] |==|  0.09433
USER: genes 14 Torsion [CA]-CB--CG-[CD1] |==|  0.19025
USER: genes 15 Torsion [N]-CA--C-[N] |==|  0.04041
USER: genes 16 Torsion [C]-N--CA-[CB] |==|  0.86592
USER: genes 17 Torsion [N]-CA--C-[N] |==|  0.36473
USER: genes 18 Torsion [C]-N--CA-[C] |==|  0.69653
USER: genes 19 Torsion [N]-CA--C-[N] |==|  0.98333
USER: genes 20 Torsion [C]-N--CA-[C] |==|  0.60394
USER: genes 21 Torsion [N]-CA--CB-[CG2] |==|  0.82501
USER: genes 22 Torsion [CA]-CB--OG1-[HG1] |==|  0.88541
USER: genes 23 Torsion [N]-CA--C-[O] |==|  0.93517
USER: genes 24 Torsion [N]-CA--CB-[CG] |==|  0.59023
USER: genes 25 Torsion [CA]-CB--CG-[CD2] |==|  0.47495
USER: genes 26 Torsion [N]-CA--CB-[CG] |==|  0.79270
USER: genes 27 Torsion [CA]-CB--CG-[CD1] |==|  0.32205
ROOT
ATOM      1  CA  LEU B   3     -20.344 -22.289 -30.746  1.00 17.18 LIG 0.18  C 
ENDROOT
BRANCH 1 2
ATOM      2  N   LEU B   3     -18.938 -22.346 -30.891  1.00 21.09 LIG-0.35  N 
ATOM      3  C   ARG B   2     -18.131 -21.660 -30.087  1.00 20.79 LIG 0.24  C 
ATOM      4 O    ARG B   2     -18.534 -20.994 -29.112  1.00 18.81 LIG-0.27  OA
ATOM      5 H    LEU B   3     -18.664 -22.852 -31.531  1.00 21.09 LIG 0.16  HD
BRANCH 3 6
ATOM      6  CA  ARG B   2     -16.658 -21.669 -30.478  1.00 21.42 LIG 0.18  C 
BRANCH 6 7
ATOM      7  CB  ARG B   2     -15.849 -22.737 -29.734  1.00 36.36 LIG 0.04  C 
BRANCH 7 8
ATOM      8  CG  ARG B   2     -14.393 -22.342 -29.577  1.00 41.67 LIG 0.02  C 
BRANCH 8 9
ATOM      9  CD  ARG B   2     -13.673 -23.113 -28.470  1.00 51.14 LIG 0.14  C 
BRANCH 9 10
ATOM     10  NE  ARG B   2     -13.264 -22.229 -27.363  1.00 53.41 LIG-0.23  N 
ATOM     11 HE   ARG B   2     -12.421 -22.098 -27.254  1.00 53.41 LIG 0.18  HD
ATOM     12  CZ  ARG B   2     -14.095 -21.613 -26.514  1.00 50.83 LIG 0.67  C 
ATOM     13  NH1 ARG B   2     -15.408 -21.770 -26.620  1.00 40.00 LIG-0.23  N 
ATOM     14  NH2 ARG B   2     -13.602 -20.840 -25.544  1.00 54.23 LIG-0.23  N 
ATOM     15 1HH1 ARG B   2     -15.733 -22.272 -27.238  1.00 40.00 LIG 0.17  HD
ATOM     16 2HH1 ARG B   2     -15.935 -21.370 -26.070  1.00 40.00 LIG 0.17  HD
ATOM     17 1HH2 ARG B   2     -12.752 -20.740 -25.465  1.00 54.23 LIG 0.17  HD
ATOM     18 2HH2 ARG B   2     -14.135 -20.444 -24.998  1.00 54.23 LIG 0.17  HD
ENDBRANCH 9 10
ENDBRANCH 8 9
ENDBRANCH 7 8
ENDBRANCH 6 7
BRANCH 6 19
ATOM     19  N   ARG B   2     -16.128 -20.344 -30.245  1.00 29.89 LIG-0.35  N 
ATOM     20  C   ASN B   1     -15.519 -19.682 -31.219  1.00 39.87 LIG 0.25  C 
ATOM     21 O    ASN B   1     -15.082 -20.240 -32.234  1.00 37.46 LIG-0.27  OA
ATOM     22 H    ARG B   2     -16.243 -20.042 -29.447  1.00 29.89 LIG 0.16  HD
BRANCH 20 23
ATOM     23  CA  ASN B   1     -15.373 -18.164 -31.005  1.00 47.73 LIG 0.28  C 
BRANCH 23 24
ATOM     24  N   ASN B   1     -16.228 -17.619 -29.980  1.00 51.86 LIG-0.07  N 
ATOM     25 H3   ASN B   1     -17.014 -18.038 -29.995  1.00 51.86 LIG 0.28  HD
ATOM     26 H1   ASN B   1     -15.848 -17.734 -29.183  1.00 51.86 LIG 0.28  HD
ATOM     27 H2   ASN B   1     -16.352 -16.750 -30.127  1.00 51.86 LIG 0.28  HD
ENDBRANCH 23 24
BRANCH 23 28
ATOM     28  CB  ASN B   1     -13.950 -17.753 -30.683  1.00 49.79 LIG 0.14  C 
BRANCH 28 29
ATOM     29  CG  ASN B   1     -13.204 -18.864 -29.983  1.00 59.47 LIG 0.22  C 
ATOM     30  ND2 ASN B   1     -13.348 -18.944 -28.655  1.00 63.81 LIG-0.37  N 
ATOM     31 21HD ASN B   1     -12.924 -19.546 -28.212  1.00 63.81 LIG 0.16  HD
ATOM     32 22HD ASN B   1     -13.867 -18.394 -28.245  1.00 63.81 LIG 0.16  HD
ATOM     33 OD1  ASN B   1     -12.477 -19.624 -30.618  1.00 60.25 LIG-0.27  OA
ENDBRANCH 28 29
ENDBRANCH 23 28
ENDBRANCH 20 23
ENDBRANCH 6 19
ENDBRANCH 3 6
ENDBRANCH 1 2
BRANCH 1 34
ATOM     34  CB  LEU B   3     -21.008 -22.024 -32.127  1.00 28.79 LIG 0.04  C 
BRANCH 34 35
ATOM     35  CG  LEU B   3     -20.223 -22.690 -33.262  1.00 33.15 LIG-0.02  C 
ATOM     36  CD2 LEU B   3     -20.727 -22.161 -34.598  1.00 30.13 LIG 0.01  C 
ATOM     37  CD1 LEU B   3     -20.281 -24.247 -33.250  1.00 27.67 LIG 0.01  C 
ENDBRANCH 34 35
ENDBRANCH 1 34
BRANCH 1 38
ATOM     38  C   LEU B   3     -20.898 -23.533 -30.087  1.00 20.33 LIG 0.24  C 
ATOM     39  N   LEU B   4     -20.008 -24.317 -29.489  1.00 23.83 LIG-0.35  N 
ATOM     40 H    LEU B   4     -19.163 -24.157 -29.460  1.00 23.83 LIG 0.16  HD
ATOM     41 O    LEU B   3     -22.099 -23.788 -30.102  1.00 22.70 LIG-0.27  OA
BRANCH 39 42
ATOM     42  CA  LEU B   4     -20.420 -25.546 -28.820  1.00 22.91 LIG 0.18  C 
BRANCH 42 43
ATOM     43  C   LEU B   4     -20.892 -26.541 -29.884  1.00 30.74 LIG 0.24  C 
ATOM     44 O    LEU B   4     -21.734 -26.206 -30.765  1.00 30.11 LIG-0.27  OA
ATOM     45  N   LEU B   5     -20.404 -27.773 -29.817  1.00 32.41 LIG-0.35  N 
ATOM     46 H    LEU B   5     -19.784 -28.038 -29.284  1.00 32.41 LIG 0.16  HD
BRANCH 45 47
ATOM     47  CA  LEU B   5     -20.954 -28.789 -30.723  1.00 35.50 LIG 0.18  C 
BRANCH 47 48
ATOM     48  C   LEU B   5     -21.793 -29.799 -29.948  1.00 33.38 LIG 0.24  C 
ATOM     49 O    LEU B   5     -22.450 -30.684 -30.539  1.00 25.58 LIG-0.27  OA
ATOM     50  N   THR B   6     -21.762 -29.646 -28.628  1.00 32.99 LIG-0.34  N 
ATOM     51 H    THR B   6     -21.200 -29.128 -28.233  1.00 32.99 LIG 0.16  HD
BRANCH 50 52
ATOM     52  CA  THR B   6     -22.662 -30.328 -27.709  1.00 39.09 LIG 0.19  C 
BRANCH 52 53
ATOM     53  CB  THR B   6     -21.978 -31.582 -27.100  1.00 66.99 LIG 0.14  C 
ATOM     54  CG2 THR B   6     -21.647 -32.596 -28.177  1.00 64.52 LIG 0.04  C 
BRANCH 53 55
ATOM     55 OG1  THR B   6     -20.757 -31.200 -26.437  1.00 68.32 LIG-0.39  OA
ATOM     56 HG1  THR B   6     -20.352 -30.630 -26.902  1.00 68.32 LIG 0.21  HD
ENDBRANCH 53 55
ENDBRANCH 52 53
BRANCH 52 57
ATOM     57  C   THR B   6     -23.026 -29.365 -26.570  1.00 46.48 LIG 0.22  C 
ATOM     58 O    THR B   6     -22.286 -28.412 -26.282  1.00 50.47 LIG-0.29  OA
ENDBRANCH 52 57
ENDBRANCH 50 52
ENDBRANCH 47 48
BRANCH 47 59
ATOM     59  CB  LEU B   5     -19.843 -29.541 -31.446  1.00 41.25 LIG 0.04  C 
BRANCH 59 60
ATOM     60  CG  LEU B   5     -20.117 -30.032 -32.859  1.00 47.99 LIG-0.02  C 
ATOM     61  CD2 LEU B   5     -18.852 -30.549 -33.486  1.00 50.88 LIG 0.01  C 
ATOM     62  CD1 LEU B   5     -20.660 -28.869 -33.663  1.00 54.72 LIG 0.01  C 
ENDBRANCH 59 60
ENDBRANCH 47 59
ENDBRANCH 45 47
ENDBRANCH 42 43
BRANCH 42 63
ATOM     63  CB  LEU B   4     -21.600 -25.210 -27.930  1.00 23.96 LIG 0.04  C 
BRANCH 63 64
ATOM     64  CG  LEU B   4     -21.467 -24.461 -26.623  1.00 38.52 LIG-0.02  C 
ATOM     65  CD1 LEU B   4     -22.162 -23.150 -26.670  1.00 46.71 LIG 0.01  C 
ATOM     66  CD2 LEU B   4     -21.989 -25.355 -25.488  1.00 36.33 LIG 0.01  C 
ENDBRANCH 63 64
ENDBRANCH 42 63
ENDBRANCH 39 42
ENDBRANCH 1 38
TORSDOF 26
ENDMDL
MODEL 42
USER: ADFR SOLUTION from run 100
USER: SCORE 21.972033 LL:  -5.559 LR: -18.893 RR:   0.000 FEB: -11.137
USER: RMSD 5.588765
USER: SEED 99
USER: STATUS no improvement in best in 14 clusters for 5 generations
USER: GENES 28
USER: genes 0 Translation |==|  0.55814 0.52716 0.43380
USER: genes 1 Rotation |==|  0.10769 0.23800 0.59573 0.63522
USER: genes 2 Torsion [C]-CA--N-[C] |==|  0.73336
USER: genes 3 Torsion [N]-C--CA-[N] |==|  0.72199
USER: genes 4 Torsion [C]-CA--CB-[CG] |==|  0.39213
USER: genes 5 Torsion [CA]-CB--CG-[CD] |==|  0.78301
USER: genes 6 Torsion [CB]-CG--CD-[NE] |==|  0.65368
USER: genes 7 Torsion [CG]-CD--NE-[HE] |==|  0.04809
USER: genes 8 Torsion [C]-CA--N-[C] |==|  0.20087
USER: genes 9 Torsion [N]-C--CA-[N] |==|  0.40586
USER: genes 10 Torsion [C]-CA--N-[H3] |==|  0.02036
USER: genes 11 Torsion [C]-CA--CB-[CG] |==|  0.87922
USER: genes 12 Torsion [CA]-CB--CG-[ND2] |==|  0.80955
USER: genes 13 Torsion [N]-CA--CB-[CG] |==|  0.67236
USER: genes 14 Torsion [CA]-CB--CG-[CD1] |==|  0.66369
USER: genes 15 Torsion [N]-CA--C-[N] |==|  0.49832
USER: genes 16 Torsion [C]-N--CA-[CB] |==|  0.16595
USER: genes 17 Torsion [N]-CA--C-[N] |==|  0.57616
USER: genes 18 Torsion [C]-N--CA-[C] |==|  0.76640
USER: genes 19 Torsion [N]-CA--C-[N] |==|  0.13411
USER: genes 20 Torsion [C]-N--CA-[C] |==|  0.75723
USER: genes 21 Torsion [N]-CA--CB-[CG2] |==|  0.73895
USER: genes 22 Torsion [CA]-CB--OG1-[HG1] |==|  0.40094
USER: genes 23 Torsion [N]-CA--C-[O] |==|  0.75607
USER: genes 24 Torsion [N]-CA--CB-[CG] |==|  0.84205
USER: genes 25 Torsion [CA]-CB--CG-[CD2] |==|  0.22744
USER: genes 26 Torsion [N]-CA--CB-[CG] |==|  0.18894
USER: genes 27 Torsion [CA]-CB--CG-[CD1] |==|  0.40518
ROOT
ATOM      1  CA  LEU B   3     -16.663 -22.199 -29.707  1.00 17.18 LIG 0.18  C 
ENDROOT
BRANCH 1 2
ATOM      2  N   LEU B   3     -17.870 -22.814 -30.116  1.00 21.09 LIG-0.35  N 
ATOM      3  C   ARG B   2     -19.053 -22.294 -29.801  1.00 20.79 LIG 0.24  C 
ATOM      4 O    ARG B   2     -19.190 -21.204 -29.207  1.00 18.81 LIG-0.27  OA
ATOM      5 H    LEU B   3     -17.767 -23.535 -30.573  1.00 21.09 LIG 0.16  HD
BRANCH 3 6
ATOM      6  CA  ARG B   2     -20.259 -23.159 -30.145  1.00 21.42 LIG 0.18  C 
BRANCH 6 7
ATOM      7  CB  ARG B   2     -19.915 -24.649 -30.247  1.00 36.36 LIG 0.04  C 
BRANCH 7 8
ATOM      8  CG  ARG B   2     -21.006 -25.526 -29.664  1.00 41.67 LIG 0.02  C 
BRANCH 8 9
ATOM      9  CD  ARG B   2     -20.985 -25.583 -28.135  1.00 51.14 LIG 0.14  C 
BRANCH 9 10
ATOM     10  NE  ARG B   2     -20.901 -26.969 -27.639  1.00 53.41 LIG-0.23  N 
ATOM     11 HE   ARG B   2     -20.646 -27.573 -28.197  1.00 53.41 LIG 0.18  HD
ATOM     12  CZ  ARG B   2     -21.189 -27.367 -26.394  1.00 50.83 LIG 0.67  C 
ATOM     13  NH1 ARG B   2     -21.591 -26.492 -25.481  1.00 40.00 LIG-0.23  N 
ATOM     14  NH2 ARG B   2     -21.082 -28.656 -26.067  1.00 54.23 LIG-0.23  N 
ATOM     15 1HH1 ARG B   2     -21.669 -25.661 -25.687  1.00 40.00 LIG 0.17  HD
ATOM     16 2HH1 ARG B   2     -21.774 -26.757 -24.683  1.00 40.00 LIG 0.17  HD
ATOM     17 1HH2 ARG B   2     -20.829 -29.230 -26.656  1.00 54.23 LIG 0.17  HD
ATOM     18 2HH2 ARG B   2     -21.266 -28.913 -25.268  1.00 54.23 LIG 0.17  HD
ENDBRANCH 9 10
ENDBRANCH 8 9
ENDBRANCH 7 8
ENDBRANCH 6 7
BRANCH 6 19
ATOM     19  N   ARG B   2     -20.826 -22.660 -31.379  1.00 29.89 LIG-0.35  N 
ATOM     20  C   ASN B   1     -20.202 -22.853 -32.533  1.00 39.87 LIG 0.25  C 
ATOM     21 O    ASN B   1     -19.003 -23.153 -32.601  1.00 37.46 LIG-0.27  OA
ATOM     22 H    ARG B   2     -21.575 -22.245 -31.292  1.00 29.89 LIG 0.16  HD
BRANCH 20 23
ATOM     23  CA  ASN B   1     -21.063 -22.667 -33.796  1.00 47.73 LIG 0.28  C 
BRANCH 23 24
ATOM     24  N   ASN B   1     -20.354 -22.126 -34.929  1.00 51.86 LIG-0.07  N 
ATOM     25 H3   ASN B   1     -19.485 -22.081 -34.741  1.00 51.86 LIG 0.28  HD
ATOM     26 H1   ASN B   1     -20.478 -22.652 -35.636  1.00 51.86 LIG 0.28  HD
ATOM     27 H2   ASN B   1     -20.660 -21.310 -35.108  1.00 51.86 LIG 0.28  HD
ENDBRANCH 23 24
BRANCH 23 28
ATOM     28  CB  ASN B   1     -21.730 -23.952 -34.242  1.00 49.79 LIG 0.14  C 
BRANCH 28 29
ATOM     29  CG  ASN B   1     -20.774 -25.119 -34.175  1.00 59.47 LIG 0.22  C 
ATOM     30  ND2 ASN B   1     -19.761 -25.121 -35.049  1.00 63.81 LIG-0.37  N 
ATOM     31 21HD ASN B   1     -19.205 -25.777 -35.062  1.00 63.81 LIG 0.16  HD
ATOM     32 22HD ASN B   1     -19.666 -24.465 -35.597  1.00 63.81 LIG 0.16  HD
ATOM     33 OD1  ASN B   1     -20.956 -26.029 -33.370  1.00 60.25 LIG-0.27  OA
ENDBRANCH 28 29
ENDBRANCH 23 28
ENDBRANCH 20 23
ENDBRANCH 6 19
ENDBRANCH 3 6
ENDBRANCH 1 2
BRANCH 1 34
ATOM     34  CB  LEU B   3     -15.647 -23.282 -29.248  1.00 28.79 LIG 0.04  C 
BRANCH 34 35
ATOM     35  CG  LEU B   3     -15.275 -23.109 -27.771  1.00 33.15 LIG-0.02  C 
ATOM     36  CD2 LEU B   3     -16.073 -21.952 -27.185  1.00 30.13 LIG 0.01  C 
ATOM     37  CD1 LEU B   3     -13.754 -22.889 -27.518  1.00 27.67 LIG 0.01  C 
ENDBRANCH 34 35
ENDBRANCH 1 34
BRANCH 1 38
ATOM     38  C   LEU B   3     -16.085 -21.308 -30.785  1.00 20.33 LIG 0.24  C 
ATOM     39  N   LEU B   4     -14.954 -20.683 -30.474  1.00 23.83 LIG-0.35  N 
ATOM     40 H    LEU B   4     -14.551 -20.757 -29.719  1.00 23.83 LIG 0.16  HD
ATOM     41 O    LEU B   3     -16.629 -21.186 -31.879  1.00 22.70 LIG-0.27  OA
BRANCH 39 42
ATOM     42  CA  LEU B   4     -14.301 -19.796 -31.430  1.00 22.91 LIG 0.18  C 
BRANCH 42 43
ATOM     43  C   LEU B   4     -13.082 -19.166 -30.750  1.00 30.74 LIG 0.24  C 
ATOM     44 O    LEU B   4     -12.495 -19.745 -29.791  1.00 30.11 LIG-0.27  OA
ATOM     45  N   LEU B   5     -12.694 -17.976 -31.189  1.00 32.41 LIG-0.35  N 
ATOM     46 H    LEU B   5     -13.011 -17.567 -31.875  1.00 32.41 LIG 0.16  HD
BRANCH 45 47
ATOM     47  CA  LEU B   5     -11.630 -17.277 -30.457  1.00 35.50 LIG 0.18  C 
BRANCH 47 48
ATOM     48  C   LEU B   5     -12.209 -16.512 -29.272  1.00 33.38 LIG 0.24  C 
ATOM     49 O    LEU B   5     -11.901 -15.319 -29.059  1.00 25.58 LIG-0.27  OA
ATOM     50  N   THR B   6     -13.040 -17.217 -28.512  1.00 32.99 LIG-0.34  N 
ATOM     51 H    THR B   6     -13.349 -17.984 -28.749  1.00 32.99 LIG 0.16  HD
BRANCH 50 52
ATOM     52  CA  THR B   6     -13.519 -16.780 -27.208  1.00 39.09 LIG 0.19  C 
BRANCH 52 53
ATOM     53  CB  THR B   6     -14.900 -17.415 -26.889  1.00 66.99 LIG 0.14  C 
ATOM     54  CG2 THR B   6     -16.030 -16.489 -27.297  1.00 64.52 LIG 0.04  C 
BRANCH 53 55
ATOM     55 OG1  THR B   6     -15.044 -18.658 -27.604  1.00 68.32 LIG-0.39  OA
ATOM     56 HG1  THR B   6     -15.470 -19.206 -27.131  1.00 68.32 LIG 0.21  HD
ENDBRANCH 53 55
ENDBRANCH 52 53
BRANCH 52 57
ATOM     57  C   THR B   6     -12.513 -17.229 -26.138  1.00 46.48 LIG 0.22  C 
ATOM     58 O    THR B   6     -12.604 -18.348 -25.611  1.00 50.47 LIG-0.29  OA
ENDBRANCH 52 57
ENDBRANCH 50 52
ENDBRANCH 47 48
BRANCH 47 59
ATOM     59  CB  LEU B   5     -10.899 -16.288 -31.357  1.00 41.25 LIG 0.04  C 
BRANCH 59 60
ATOM     60  CG  LEU B   5     -10.262 -16.819 -32.631  1.00 47.99 LIG-0.02  C 
ATOM     61  CD2 LEU B   5     -11.292 -16.942 -33.719  1.00 50.88 LIG 0.01  C 
ATOM     62  CD1 LEU B   5      -9.663 -18.177 -32.325  1.00 54.72 LIG 0.01  C 
ENDBRANCH 59 60
ENDBRANCH 47 59
ENDBRANCH 45 47
ENDBRANCH 42 43
BRANCH 42 63
ATOM     63  CB  LEU B   4     -15.278 -18.688 -31.769  1.00 23.96 LIG 0.04  C 
BRANCH 63 64
ATOM     64  CG  LEU B   4     -15.710 -17.630 -30.778  1.00 38.52 LIG-0.02  C 
ATOM     65  CD1 LEU B   4     -15.944 -16.322 -31.439  1.00 46.71 LIG 0.01  C 
ATOM     66  CD2 LEU B   4     -16.954 -18.135 -30.031  1.00 36.33 LIG 0.01  C 
ENDBRANCH 63 64
ENDBRANCH 42 63
ENDBRANCH 39 42
ENDBRANCH 1 38
TORSDOF 26
ENDMDL
MODEL 43
USER: ADFR SOLUTION from run 86
USER: SCORE 22.428158 LL:  -4.582 LR: -18.877 RR:   0.000 FEB: -11.121
USER: RMSD 6.582770
USER: SEED 85
USER: STATUS no improvement in best in 19 clusters for 5 generations
USER: GENES 28
USER: genes 0 Translation |==|  0.58832 0.56361 0.40409
USER: genes 1 Rotation |==|  0.14466 0.20454 0.52145 0.68968
USER: genes 2 Torsion [C]-CA--N-[C] |==|  0.73400
USER: genes 3 Torsion [N]-C--CA-[N] |==|  0.39673
USER: genes 4 Torsion [C]-CA--CB-[CG] |==|  0.57888
USER: genes 5 Torsion [CA]-CB--CG-[CD] |==|  0.76208
USER: genes 6 Torsion [CB]-CG--CD-[NE] |==|  0.51399
USER: genes 7 Torsion [CG]-CD--NE-[HE] |==|  0.96422
USER: genes 8 Torsion [C]-CA--N-[C] |==|  0.78561
USER: genes 9 Torsion [N]-C--CA-[N] |==|  0.48276
USER: genes 10 Torsion [C]-CA--N-[H3] |==|  0.78985
USER: genes 11 Torsion [C]-CA--CB-[CG] |==|  0.22590
USER: genes 12 Torsion [CA]-CB--CG-[ND2] |==|  0.48338
USER: genes 13 Torsion [N]-CA--CB-[CG] |==|  0.60689
USER: genes 14 Torsion [CA]-CB--CG-[CD1] |==|  0.03495
USER: genes 15 Torsion [N]-CA--C-[N] |==|  0.35073
USER: genes 16 Torsion [C]-N--CA-[CB] |==|  0.47814
USER: genes 17 Torsion [N]-CA--C-[N] |==|  0.43970
USER: genes 18 Torsion [C]-N--CA-[C] |==|  0.63467
USER: genes 19 Torsion [N]-CA--C-[N] |==|  0.42778
USER: genes 20 Torsion [C]-N--CA-[C] |==|  0.78137
USER: genes 21 Torsion [N]-CA--CB-[CG2] |==|  0.79676
USER: genes 22 Torsion [CA]-CB--OG1-[HG1] |==|  0.67043
USER: genes 23 Torsion [N]-CA--C-[O] |==|  0.19712
USER: genes 24 Torsion [N]-CA--CB-[CG] |==|  0.46188
USER: genes 25 Torsion [CA]-CB--CG-[CD2] |==|  0.51372
USER: genes 26 Torsion [N]-CA--CB-[CG] |==|  0.02895
USER: genes 27 Torsion [CA]-CB--CG-[CD1] |==|  0.27508
ROOT
ATOM      1  CA  LEU B   3     -15.916 -21.297 -30.331  1.00 17.18 LIG 0.18  C 
ENDROOT
BRANCH 1 2
ATOM      2  N   LEU B   3     -17.014 -21.746 -31.102  1.00 21.09 LIG-0.35  N 
ATOM      3  C   ARG B   2     -18.264 -21.426 -30.780  1.00 20.79 LIG 0.24  C 
ATOM      4 O    ARG B   2     -18.557 -20.653 -29.844  1.00 18.81 LIG-0.27  OA
ATOM      5 H    LEU B   3     -16.800 -22.232 -31.779  1.00 21.09 LIG 0.16  HD
BRANCH 3 6
ATOM      6  CA  ARG B   2     -19.346 -22.131 -31.587  1.00 21.42 LIG 0.18  C 
BRANCH 6 7
ATOM      7  CB  ARG B   2     -19.807 -21.322 -32.804  1.00 36.36 LIG 0.04  C 
BRANCH 7 8
ATOM      8  CG  ARG B   2     -21.245 -21.625 -33.178  1.00 41.67 LIG 0.02  C 
BRANCH 8 9
ATOM      9  CD  ARG B   2     -21.389 -22.842 -34.094  1.00 51.14 LIG 0.14  C 
BRANCH 9 10
ATOM     10  NE  ARG B   2     -22.783 -23.037 -34.533  1.00 53.41 LIG-0.23  N 
ATOM     11 HE   ARG B   2     -23.391 -22.588 -34.123  1.00 53.41 LIG 0.18  HD
ATOM     12  CZ  ARG B   2     -23.181 -23.852 -35.516  1.00 50.83 LIG 0.67  C 
ATOM     13  NH1 ARG B   2     -22.298 -24.577 -36.192  1.00 40.00 LIG-0.23  N 
ATOM     14  NH2 ARG B   2     -24.477 -23.949 -35.817  1.00 54.23 LIG-0.23  N 
ATOM     15 1HH1 ARG B   2     -21.462 -24.526 -35.998  1.00 40.00 LIG 0.17  HD
ATOM     16 2HH1 ARG B   2     -22.562 -25.100 -36.822  1.00 40.00 LIG 0.17  HD
ATOM     17 1HH2 ARG B   2     -25.056 -23.487 -35.379  1.00 54.23 LIG 0.17  HD
ATOM     18 2HH2 ARG B   2     -24.734 -24.472 -36.448  1.00 54.23 LIG 0.17  HD
ENDBRANCH 9 10
ENDBRANCH 8 9
ENDBRANCH 7 8
ENDBRANCH 6 7
BRANCH 6 19
ATOM     19  N   ARG B   2     -20.448 -22.420 -30.694  1.00 29.89 LIG-0.35  N 
ATOM     20  C   ASN B   1     -20.374 -23.433 -29.842  1.00 39.87 LIG 0.25  C 
ATOM     21 O    ASN B   1     -19.558 -24.355 -29.969  1.00 37.46 LIG-0.27  OA
ATOM     22 H    ARG B   2     -21.124 -21.893 -30.770  1.00 29.89 LIG 0.16  HD
BRANCH 20 23
ATOM     23  CA  ASN B   1     -21.383 -23.401 -28.679  1.00 47.73 LIG 0.28  C 
BRANCH 23 24
ATOM     24  N   ASN B   1     -21.377 -24.580 -27.848  1.00 51.86 LIG-0.07  N 
ATOM     25 H3   ASN B   1     -21.788 -25.244 -28.274  1.00 51.86 LIG 0.28  HD
ATOM     26 H1   ASN B   1     -20.537 -24.815 -27.673  1.00 51.86 LIG 0.28  HD
ATOM     27 H2   ASN B   1     -21.802 -24.408 -27.086  1.00 51.86 LIG 0.28  HD
ENDBRANCH 23 24
BRANCH 23 28
ATOM     28  CB  ASN B   1     -21.194 -22.200 -27.775  1.00 49.79 LIG 0.14  C 
BRANCH 28 29
ATOM     29  CG  ASN B   1     -21.847 -20.968 -28.355  1.00 59.47 LIG 0.22  C 
ATOM     30  ND2 ASN B   1     -21.854 -19.871 -27.588  1.00 63.81 LIG-0.37  N 
ATOM     31 21HD ASN B   1     -22.235 -19.153 -27.869  1.00 63.81 LIG 0.16  HD
ATOM     32 22HD ASN B   1     -21.477 -19.884 -26.816  1.00 63.81 LIG 0.16  HD
ATOM     33 OD1  ASN B   1     -22.370 -21.004 -29.465  1.00 60.25 LIG-0.27  OA
ENDBRANCH 28 29
ENDBRANCH 23 28
ENDBRANCH 20 23
ENDBRANCH 6 19
ENDBRANCH 3 6
ENDBRANCH 1 2
BRANCH 1 34
ATOM     34  CB  LEU B   3     -14.871 -22.438 -30.184  1.00 28.79 LIG 0.04  C 
BRANCH 34 35
ATOM     35  CG  LEU B   3     -14.251 -22.451 -28.782  1.00 33.15 LIG-0.02  C 
ATOM     36  CD2 LEU B   3     -14.180 -23.887 -28.280  1.00 30.13 LIG 0.01  C 
ATOM     37  CD1 LEU B   3     -14.998 -21.560 -27.746  1.00 27.67 LIG 0.01  C 
ENDBRANCH 34 35
ENDBRANCH 1 34
BRANCH 1 38
ATOM     38  C   LEU B   3     -15.297 -20.039 -30.901  1.00 20.33 LIG 0.24  C 
ATOM     39  N   LEU B   4     -15.182 -19.018 -30.058  1.00 23.83 LIG-0.35  N 
ATOM     40 H    LEU B   4     -15.433 -19.038 -29.236  1.00 23.83 LIG 0.16  HD
ATOM     41 O    LEU B   3     -14.920 -19.979 -32.067  1.00 22.70 LIG-0.27  OA
BRANCH 39 42
ATOM     42  CA  LEU B   4     -14.603 -17.751 -30.490  1.00 22.91 LIG 0.18  C 
BRANCH 42 43
ATOM     43  C   LEU B   4     -13.098 -17.953 -30.696  1.00 30.74 LIG 0.24  C 
ATOM     44 O    LEU B   4     -12.477 -18.884 -30.110  1.00 30.11 LIG-0.27  OA
ATOM     45  N   LEU B   5     -12.476 -17.089 -31.487  1.00 32.41 LIG-0.35  N 
ATOM     46 H    LEU B   5     -12.855 -16.480 -31.960  1.00 32.41 LIG 0.16  HD
BRANCH 45 47
ATOM     47  CA  LEU B   5     -11.012 -17.160 -31.580  1.00 35.50 LIG 0.18  C 
BRANCH 47 48
ATOM     48  C   LEU B   5     -10.398 -15.776 -31.408  1.00 33.38 LIG 0.24  C 
ATOM     49 O    LEU B   5     -11.040 -14.742 -31.696  1.00 25.58 LIG-0.27  OA
ATOM     50  N   THR B   6      -9.153 -15.777 -30.942  1.00 32.99 LIG-0.34  N 
ATOM     51 H    THR B   6      -8.779 -16.481 -30.617  1.00 32.99 LIG 0.16  HD
BRANCH 50 52
ATOM     52  CA  THR B   6      -8.289 -14.605 -30.925  1.00 39.09 LIG 0.19  C 
BRANCH 52 53
ATOM     53  CB  THR B   6      -7.108 -14.807 -29.937  1.00 66.99 LIG 0.14  C 
ATOM     54  CG2 THR B   6      -7.582 -14.716 -28.500  1.00 64.52 LIG 0.04  C 
BRANCH 53 55
ATOM     55 OG1  THR B   6      -6.514 -16.104 -30.144  1.00 68.32 LIG-0.39  OA
ATOM     56 HG1  THR B   6      -6.584 -16.560 -29.442  1.00 68.32 LIG 0.21  HD
ENDBRANCH 53 55
ENDBRANCH 52 53
BRANCH 52 57
ATOM     57  C   THR B   6      -7.719 -14.393 -32.335  1.00 46.48 LIG 0.22  C 
ATOM     58 O    THR B   6      -8.445 -14.001 -33.261  1.00 50.47 LIG-0.29  OA
ENDBRANCH 52 57
ENDBRANCH 50 52
ENDBRANCH 47 48
BRANCH 47 59
ATOM     59  CB  LEU B   5     -10.572 -17.717 -32.928  1.00 41.25 LIG 0.04  C 
BRANCH 59 60
ATOM     60  CG  LEU B   5      -9.111 -17.565 -33.321  1.00 47.99 LIG-0.02  C 
ATOM     61  CD2 LEU B   5      -8.893 -18.062 -34.723  1.00 50.88 LIG 0.01  C 
ATOM     62  CD1 LEU B   5      -8.278 -18.371 -32.346  1.00 54.72 LIG 0.01  C 
ENDBRANCH 59 60
ENDBRANCH 47 59
ENDBRANCH 45 47
ENDBRANCH 42 43
BRANCH 42 63
ATOM     63  CB  LEU B   4     -14.796 -16.752 -29.367  1.00 23.96 LIG 0.04  C 
BRANCH 63 64
ATOM     64  CG  LEU B   4     -15.269 -17.140 -27.984  1.00 38.52 LIG-0.02  C 
ATOM     65  CD1 LEU B   4     -14.136 -17.261 -27.031  1.00 46.71 LIG 0.01  C 
ATOM     66  CD2 LEU B   4     -16.314 -16.115 -27.516  1.00 36.33 LIG 0.01  C 
ENDBRANCH 63 64
ENDBRANCH 42 63
ENDBRANCH 39 42
ENDBRANCH 1 38
TORSDOF 26
ENDMDL
MODEL 44
USER: ADFR SOLUTION from run 177
USER: SCORE 22.680131 LL:  -4.462 LR: -18.883 RR:   0.000 FEB: -11.127
USER: RMSD 6.254718
USER: SEED 176
USER: STATUS no improvement in best in 8 clusters for 5 generations
USER: GENES 28
USER: genes 0 Translation |==|  0.58289 0.55454 0.45067
USER: genes 1 Rotation |==|  0.15479 0.18492 0.50841 0.67744
USER: genes 2 Torsion [C]-CA--N-[C] |==|  0.77325
USER: genes 3 Torsion [N]-C--CA-[N] |==|  0.37746
USER: genes 4 Torsion [C]-CA--CB-[CG] |==|  0.51704
USER: genes 5 Torsion [CA]-CB--CG-[CD] |==|  0.83392
USER: genes 6 Torsion [CB]-CG--CD-[NE] |==|  0.61953
USER: genes 7 Torsion [CG]-CD--NE-[HE] |==|  0.17638
USER: genes 8 Torsion [C]-CA--N-[C] |==|  0.77811
USER: genes 9 Torsion [N]-C--CA-[N] |==|  0.47491
USER: genes 10 Torsion [C]-CA--N-[H3] |==|  0.59812
USER: genes 11 Torsion [C]-CA--CB-[CG] |==|  0.23781
USER: genes 12 Torsion [CA]-CB--CG-[ND2] |==|  0.47150
USER: genes 13 Torsion [N]-CA--CB-[CG] |==|  0.66673
USER: genes 14 Torsion [CA]-CB--CG-[CD1] |==|  0.74658
USER: genes 15 Torsion [N]-CA--C-[N] |==|  0.47480
USER: genes 16 Torsion [C]-N--CA-[CB] |==|  0.53889
USER: genes 17 Torsion [N]-CA--C-[N] |==|  0.33683
USER: genes 18 Torsion [C]-N--CA-[C] |==|  0.83316
USER: genes 19 Torsion [N]-CA--C-[N] |==|  0.39007
USER: genes 20 Torsion [C]-N--CA-[C] |==|  0.57685
USER: genes 21 Torsion [N]-CA--CB-[CG2] |==|  0.56745
USER: genes 22 Torsion [CA]-CB--OG1-[HG1] |==|  0.79744
USER: genes 23 Torsion [N]-CA--C-[O] |==|  0.98050
USER: genes 24 Torsion [N]-CA--CB-[CG] |==|  0.70460
USER: genes 25 Torsion [CA]-CB--CG-[CD2] |==|  0.69494
USER: genes 26 Torsion [N]-CA--CB-[CG] |==|  0.72863
USER: genes 27 Torsion [CA]-CB--CG-[CD1] |==|  0.99002
ROOT
ATOM      1  CA  LEU B   3     -16.050 -21.521 -29.353  1.00 17.18 LIG 0.18  C 
ENDROOT
BRANCH 1 2
ATOM      2  N   LEU B   3     -17.041 -22.023 -30.230  1.00 21.09 LIG-0.35  N 
ATOM      3  C   ARG B   2     -18.291 -21.570 -30.195  1.00 20.79 LIG 0.24  C 
ATOM      4 O    ARG B   2     -18.662 -20.629 -29.462  1.00 18.81 LIG-0.27  OA
ATOM      5 H    LEU B   3     -16.764 -22.632 -30.770  1.00 21.09 LIG 0.16  HD
BRANCH 3 6
ATOM      6  CA  ARG B   2     -19.285 -22.330 -31.062  1.00 21.42 LIG 0.18  C 
BRANCH 6 7
ATOM      7  CB  ARG B   2     -19.583 -21.624 -32.389  1.00 36.36 LIG 0.04  C 
BRANCH 7 8
ATOM      8  CG  ARG B   2     -20.683 -22.318 -33.170  1.00 41.67 LIG 0.02  C 
BRANCH 8 9
ATOM      9  CD  ARG B   2     -20.352 -23.769 -33.522  1.00 51.14 LIG 0.14  C 
BRANCH 9 10
ATOM     10  NE  ARG B   2     -20.727 -24.096 -34.910  1.00 53.41 LIG-0.23  N 
ATOM     11 HE   ARG B   2     -20.322 -23.671 -35.538  1.00 53.41 LIG 0.18  HD
ATOM     12  CZ  ARG B   2     -21.646 -24.998 -35.274  1.00 50.83 LIG 0.67  C 
ATOM     13  NH1 ARG B   2     -22.314 -25.689 -34.359  1.00 40.00 LIG-0.23  N 
ATOM     14  NH2 ARG B   2     -21.905 -25.200 -36.567  1.00 54.23 LIG-0.23  N 
ATOM     15 1HH1 ARG B   2     -22.158 -25.559 -33.523  1.00 40.00 LIG 0.17  HD
ATOM     16 2HH1 ARG B   2     -22.904 -26.267 -34.601  1.00 40.00 LIG 0.17  HD
ATOM     17 1HH2 ARG B   2     -21.481 -24.750 -37.165  1.00 54.23 LIG 0.17  HD
ATOM     18 2HH2 ARG B   2     -22.495 -25.779 -36.802  1.00 54.23 LIG 0.17  HD
ENDBRANCH 9 10
ENDBRANCH 8 9
ENDBRANCH 7 8
ENDBRANCH 6 7
BRANCH 6 19
ATOM     19  N   ARG B   2     -20.490 -22.531 -30.286  1.00 29.89 LIG-0.35  N 
ATOM     20  C   ASN B   1     -20.556 -23.502 -29.386  1.00 39.87 LIG 0.25  C 
ATOM     21 O    ASN B   1     -19.773 -24.461 -29.380  1.00 37.46 LIG-0.27  OA
ATOM     22 H    ARG B   2     -21.129 -21.982 -30.460  1.00 29.89 LIG 0.16  HD
BRANCH 20 23
ATOM     23  CA  ASN B   1     -21.683 -23.372 -28.345  1.00 47.73 LIG 0.28  C 
BRANCH 23 24
ATOM     24  N   ASN B   1     -21.863 -24.534 -27.510  1.00 51.86 LIG-0.07  N 
ATOM     25 H3   ASN B   1     -22.728 -24.639 -27.330  1.00 51.86 LIG 0.28  HD
ATOM     26 H1   ASN B   1     -21.558 -25.254 -27.934  1.00 51.86 LIG 0.28  HD
ATOM     27 H2   ASN B   1     -21.413 -24.425 -26.749  1.00 51.86 LIG 0.28  HD
ENDBRANCH 23 24
BRANCH 23 28
ATOM     28  CB  ASN B   1     -21.503 -22.174 -27.436  1.00 49.79 LIG 0.14  C 
BRANCH 28 29
ATOM     29  CG  ASN B   1     -22.083 -20.924 -28.054  1.00 59.47 LIG 0.22  C 
ATOM     30  ND2 ASN B   1     -22.176 -19.848 -27.264  1.00 63.81 LIG-0.37  N 
ATOM     31 21HD ASN B   1     -22.520 -19.121 -27.567  1.00 63.81 LIG 0.16  HD
ATOM     32 22HD ASN B   1     -21.890 -19.883 -26.454  1.00 63.81 LIG 0.16  HD
ATOM     33 OD1  ASN B   1     -22.474 -20.928 -29.218  1.00 60.25 LIG-0.27  OA
ENDBRANCH 28 29
ENDBRANCH 23 28
ENDBRANCH 20 23
ENDBRANCH 6 19
ENDBRANCH 3 6
ENDBRANCH 1 2
BRANCH 1 34
ATOM     34  CB  LEU B   3     -14.954 -22.598 -29.121  1.00 28.79 LIG 0.04  C 
BRANCH 34 35
ATOM     35  CG  LEU B   3     -14.845 -22.975 -27.640  1.00 33.15 LIG-0.02  C 
ATOM     36  CD2 LEU B   3     -16.219 -22.867 -26.992  1.00 30.13 LIG 0.01  C 
ATOM     37  CD1 LEU B   3     -13.811 -22.128 -26.840  1.00 27.67 LIG 0.01  C 
ENDBRANCH 34 35
ENDBRANCH 1 34
BRANCH 1 38
ATOM     38  C   LEU B   3     -15.461 -20.218 -29.847  1.00 20.33 LIG 0.24  C 
ATOM     39  N   LEU B   4     -14.662 -19.584 -28.994  1.00 23.83 LIG-0.35  N 
ATOM     40 H    LEU B   4     -14.472 -19.869 -28.206  1.00 23.83 LIG 0.16  HD
ATOM     41 O    LEU B   3     -15.705 -19.787 -30.970  1.00 22.70 LIG-0.27  OA
BRANCH 39 42
ATOM     42  CA  LEU B   4     -14.035 -18.318 -29.355  1.00 22.91 LIG 0.18  C 
BRANCH 42 43
ATOM     43  C   LEU B   4     -13.382 -18.476 -30.731  1.00 30.74 LIG 0.24  C 
ATOM     44 O    LEU B   4     -12.471 -19.330 -30.929  1.00 30.11 LIG-0.27  OA
ATOM     45  N   LEU B   5     -13.792 -17.658 -31.691  1.00 32.41 LIG-0.35  N 
ATOM     46 H    LEU B   5     -14.448 -17.106 -31.634  1.00 32.41 LIG 0.16  HD
BRANCH 45 47
ATOM     47  CA  LEU B   5     -13.078 -17.678 -32.974  1.00 35.50 LIG 0.18  C 
BRANCH 47 48
ATOM     48  C   LEU B   5     -11.610 -17.316 -32.776  1.00 33.38 LIG 0.24  C 
ATOM     49 O    LEU B   5     -11.268 -16.416 -31.979  1.00 25.58 LIG-0.27  OA
ATOM     50  N   THR B   6     -10.762 -18.026 -33.513  1.00 32.99 LIG-0.34  N 
ATOM     51 H    THR B   6     -10.998 -18.730 -33.946  1.00 32.99 LIG 0.16  HD
BRANCH 50 52
ATOM     52  CA  THR B   6      -9.351 -17.698 -33.671  1.00 39.09 LIG 0.19  C 
BRANCH 52 53
ATOM     53  CB  THR B   6      -8.505 -18.360 -32.551  1.00 66.99 LIG 0.14  C 
ATOM     54  CG2 THR B   6      -7.211 -17.601 -32.328  1.00 64.52 LIG 0.04  C 
BRANCH 53 55
ATOM     55 OG1  THR B   6      -9.250 -18.371 -31.317  1.00 68.32 LIG-0.39  OA
ATOM     56 HG1  THR B   6      -9.284 -17.593 -31.003  1.00 68.32 LIG 0.21  HD
ENDBRANCH 53 55
ENDBRANCH 52 53
BRANCH 52 57
ATOM     57  C   THR B   6      -8.871 -18.230 -35.029  1.00 46.48 LIG 0.22  C 
ATOM     58 O    THR B   6      -9.609 -18.938 -35.731  1.00 50.47 LIG-0.29  OA
ENDBRANCH 52 57
ENDBRANCH 50 52
ENDBRANCH 47 48
BRANCH 47 59
ATOM     59  CB  LEU B   5     -13.688 -16.688 -33.960  1.00 41.25 LIG 0.04  C 
BRANCH 59 60
ATOM     60  CG  LEU B   5     -14.514 -17.243 -35.109  1.00 47.99 LIG-0.02  C 
ATOM     61  CD2 LEU B   5     -13.784 -17.063 -36.411  1.00 50.88 LIG 0.01  C 
ATOM     62  CD1 LEU B   5     -15.831 -16.497 -35.142  1.00 54.72 LIG 0.01  C 
ENDBRANCH 59 60
ENDBRANCH 47 59
ENDBRANCH 45 47
ENDBRANCH 42 43
BRANCH 42 63
ATOM     63  CB  LEU B   4     -12.942 -18.043 -28.342  1.00 23.96 LIG 0.04  C 
BRANCH 63 64
ATOM     64  CG  LEU B   4     -13.129 -17.135 -27.146  1.00 38.52 LIG-0.02  C 
ATOM     65  CD1 LEU B   4     -14.469 -16.496 -27.147  1.00 46.71 LIG 0.01  C 
ATOM     66  CD2 LEU B   4     -12.873 -17.948 -25.867  1.00 36.33 LIG 0.01  C 
ENDBRANCH 63 64
ENDBRANCH 42 63
ENDBRANCH 39 42
ENDBRANCH 1 38
TORSDOF 26
ENDMDL
MODEL 45
USER: ADFR SOLUTION from run 63
USER: SCORE 22.885266 LL:  -4.652 LR: -18.875 RR:   0.000 FEB: -11.119
USER: RMSD 4.485652
USER: SEED 62
USER: STATUS no improvement in best in 7 clusters for 5 generations
USER: GENES 28
USER: genes 0 Translation |==|  0.45967 0.52551 0.37153
USER: genes 1 Rotation |==|  0.54301 0.48904 0.48085 0.99766
USER: genes 2 Torsion [C]-CA--N-[C] |==|  0.76325
USER: genes 3 Torsion [N]-C--CA-[N] |==|  0.94892
USER: genes 4 Torsion [C]-CA--CB-[CG] |==|  0.19573
USER: genes 5 Torsion [CA]-CB--CG-[CD] |==|  0.23454
USER: genes 6 Torsion [CB]-CG--CD-[NE] |==|  0.90814
USER: genes 7 Torsion [CG]-CD--NE-[HE] |==|  0.10667
USER: genes 8 Torsion [C]-CA--N-[C] |==|  0.81111
USER: genes 9 Torsion [N]-C--CA-[N] |==|  0.53134
USER: genes 10 Torsion [C]-CA--N-[H3] |==|  0.78086
USER: genes 11 Torsion [C]-CA--CB-[CG] |==|  0.21933
USER: genes 12 Torsion [CA]-CB--CG-[ND2] |==|  0.10803
USER: genes 13 Torsion [N]-CA--CB-[CG] |==|  0.85283
USER: genes 14 Torsion [CA]-CB--CG-[CD1] |==|  0.53576
USER: genes 15 Torsion [N]-CA--C-[N] |==|  0.31689
USER: genes 16 Torsion [C]-N--CA-[CB] |==|  0.50882
USER: genes 17 Torsion [N]-CA--C-[N] |==|  0.46210
USER: genes 18 Torsion [C]-N--CA-[C] |==|  0.83974
USER: genes 19 Torsion [N]-CA--C-[N] |==|  0.35010
USER: genes 20 Torsion [C]-N--CA-[C] |==|  0.78007
USER: genes 21 Torsion [N]-CA--CB-[CG2] |==|  0.49490
USER: genes 22 Torsion [CA]-CB--OG1-[HG1] |==|  0.88427
USER: genes 23 Torsion [N]-CA--C-[O] |==|  0.05453
USER: genes 24 Torsion [N]-CA--CB-[CG] |==|  0.80204
USER: genes 25 Torsion [CA]-CB--CG-[CD2] |==|  0.32118
USER: genes 26 Torsion [N]-CA--CB-[CG] |==|  0.62421
USER: genes 27 Torsion [CA]-CB--CG-[CD1] |==|  0.97346
ROOT
ATOM      1  CA  LEU B   3     -19.100 -22.240 -31.015  1.00 17.18 LIG 0.18  C 
ENDROOT
BRANCH 1 2
ATOM      2  N   LEU B   3     -20.189 -22.726 -30.254  1.00 21.09 LIG-0.35  N 
ATOM      3  C   ARG B   2     -20.177 -23.948 -29.730  1.00 20.79 LIG 0.24  C 
ATOM      4 O    ARG B   2     -19.194 -24.715 -29.794  1.00 18.81 LIG-0.27  OA
ATOM      5 H    LEU B   3     -20.841 -22.171 -30.167  1.00 21.09 LIG 0.16  HD
BRANCH 3 6
ATOM      6  CA  ARG B   2     -21.488 -24.401 -29.099  1.00 21.42 LIG 0.18  C 
BRANCH 6 7
ATOM      7  CB  ARG B   2     -22.242 -25.422 -29.957  1.00 36.36 LIG 0.04  C 
BRANCH 7 8
ATOM      8  CG  ARG B   2     -21.545 -26.769 -29.984  1.00 41.67 LIG 0.02  C 
BRANCH 8 9
ATOM      9  CD  ARG B   2     -21.900 -27.659 -28.792  1.00 51.14 LIG 0.14  C 
BRANCH 9 10
ATOM     10  NE  ARG B   2     -22.146 -26.868 -27.572  1.00 53.41 LIG-0.23  N 
ATOM     11 HE   ARG B   2     -22.561 -26.120 -27.664  1.00 53.41 LIG 0.18  HD
ATOM     12  CZ  ARG B   2     -21.777 -27.216 -26.334  1.00 50.83 LIG 0.67  C 
ATOM     13  NH1 ARG B   2     -21.130 -28.354 -26.116  1.00 40.00 LIG-0.23  N 
ATOM     14  NH2 ARG B   2     -22.050 -26.409 -25.307  1.00 54.23 LIG-0.23  N 
ATOM     15 1HH1 ARG B   2     -20.944 -28.875 -26.774  1.00 40.00 LIG 0.17  HD
ATOM     16 2HH1 ARG B   2     -20.896 -28.570 -25.317  1.00 40.00 LIG 0.17  HD
ATOM     17 1HH2 ARG B   2     -22.462 -25.667 -25.441  1.00 54.23 LIG 0.17  HD
ATOM     18 2HH2 ARG B   2     -21.813 -26.632 -24.511  1.00 54.23 LIG 0.17  HD
ENDBRANCH 9 10
ENDBRANCH 8 9
ENDBRANCH 7 8
ENDBRANCH 6 7
BRANCH 6 19
ATOM     19  N   ARG B   2     -22.290 -23.223 -28.847  1.00 29.89 LIG-0.35  N 
ATOM     20  C   ASN B   1     -21.919 -22.341 -27.929  1.00 39.87 LIG 0.25  C 
ATOM     21 O    ASN B   1     -21.100 -22.607 -27.040  1.00 37.46 LIG-0.27  OA
ATOM     22 H    ARG B   2     -22.998 -23.157 -29.330  1.00 29.89 LIG 0.16  HD
BRANCH 20 23
ATOM     23  CA  ASN B   1     -22.585 -20.956 -28.028  1.00 47.73 LIG 0.28  C 
BRANCH 23 24
ATOM     24  N   ASN B   1     -21.987 -19.944 -27.192  1.00 51.86 LIG-0.07  N 
ATOM     25 H3   ASN B   1     -22.270 -20.046 -26.354  1.00 51.86 LIG 0.28  HD
ATOM     26 H1   ASN B   1     -21.101 -20.023 -27.218  1.00 51.86 LIG 0.28  HD
ATOM     27 H2   ASN B   1     -22.222 -19.138 -27.488  1.00 51.86 LIG 0.28  HD
ENDBRANCH 23 24
BRANCH 23 28
ATOM     28  CB  ASN B   1     -22.615 -20.423 -29.446  1.00 49.79 LIG 0.14  C 
BRANCH 28 29
ATOM     29  CG  ASN B   1     -23.728 -21.056 -30.247  1.00 59.47 LIG 0.22  C 
ATOM     30  ND2 ASN B   1     -24.886 -21.265 -29.610  1.00 63.81 LIG-0.37  N 
ATOM     31 21HD ASN B   1     -25.539 -21.644 -30.021  1.00 63.81 LIG 0.16  HD
ATOM     32 22HD ASN B   1     -24.976 -21.020 -28.791  1.00 63.81 LIG 0.16  HD
ATOM     33 OD1  ASN B   1     -23.545 -21.385 -31.416  1.00 60.25 LIG-0.27  OA
ENDBRANCH 28 29
ENDBRANCH 23 28
ENDBRANCH 20 23
ENDBRANCH 6 19
ENDBRANCH 3 6
ENDBRANCH 1 2
BRANCH 1 34
ATOM     34  CB  LEU B   3     -19.609 -21.228 -32.080  1.00 28.79 LIG 0.04  C 
BRANCH 34 35
ATOM     35  CG  LEU B   3     -20.736 -21.827 -32.928  1.00 33.15 LIG-0.02  C 
ATOM     36  CD2 LEU B   3     -20.370 -23.256 -33.309  1.00 30.13 LIG 0.01  C 
ATOM     37  CD1 LEU B   3     -21.079 -21.006 -34.206  1.00 27.67 LIG 0.01  C 
ENDBRANCH 34 35
ENDBRANCH 1 34
BRANCH 1 38
ATOM     38  C   LEU B   3     -18.019 -21.640 -30.142  1.00 20.33 LIG 0.24  C 
ATOM     39  N   LEU B   4     -16.857 -22.285 -30.136  1.00 23.83 LIG-0.35  N 
ATOM     40 H    LEU B   4     -16.696 -22.999 -30.587  1.00 23.83 LIG 0.16  HD
ATOM     41 O    LEU B   3     -18.211 -20.617 -29.492  1.00 22.70 LIG-0.27  OA
BRANCH 39 42
ATOM     42  CA  LEU B   4     -15.738 -21.805 -29.333  1.00 22.91 LIG 0.18  C 
BRANCH 42 43
ATOM     43  C   LEU B   4     -15.379 -20.391 -29.800  1.00 30.74 LIG 0.24  C 
ATOM     44 O    LEU B   4     -15.805 -19.938 -30.900  1.00 30.11 LIG-0.27  OA
ATOM     45  N   LEU B   5     -14.578 -19.682 -29.016  1.00 32.41 LIG-0.35  N 
ATOM     46 H    LEU B   5     -14.312 -19.912 -28.231  1.00 32.41 LIG 0.16  HD
BRANCH 45 47
ATOM     47  CA  LEU B   5     -14.089 -18.388 -29.509  1.00 35.50 LIG 0.18  C 
BRANCH 47 48
ATOM     48  C   LEU B   5     -13.339 -18.564 -30.823  1.00 33.38 LIG 0.24  C 
ATOM     49 O    LEU B   5     -12.386 -19.368 -30.922  1.00 25.58 LIG-0.27  OA
ATOM     50  N   THR B   6     -13.780 -17.801 -31.818  1.00 32.99 LIG-0.34  N 
ATOM     51 H    THR B   6     -14.518 -17.361 -31.776  1.00 32.99 LIG 0.16  HD
BRANCH 50 52
ATOM     52  CA  THR B   6     -13.074 -17.621 -33.080  1.00 39.09 LIG 0.19  C 
BRANCH 52 53
ATOM     53  CB  THR B   6     -14.033 -17.075 -34.172  1.00 66.99 LIG 0.14  C 
ATOM     54  CG2 THR B   6     -13.295 -16.843 -35.476  1.00 64.52 LIG 0.04  C 
BRANCH 53 55
ATOM     55 OG1  THR B   6     -15.095 -18.019 -34.407  1.00 68.32 LIG-0.39  OA
ATOM     56 HG1  THR B   6     -14.781 -18.798 -34.417  1.00 68.32 LIG 0.21  HD
ENDBRANCH 53 55
ENDBRANCH 52 53
BRANCH 52 57
ATOM     57  C   THR B   6     -11.940 -16.608 -32.870  1.00 46.48 LIG 0.22  C 
ATOM     58 O    THR B   6     -11.510 -16.362 -31.733  1.00 50.47 LIG-0.29  OA
ENDBRANCH 52 57
ENDBRANCH 50 52
ENDBRANCH 47 48
BRANCH 47 59
ATOM     59  CB  LEU B   5     -13.150 -17.734 -28.503  1.00 41.25 LIG 0.04  C 
BRANCH 59 60
ATOM     60  CG  LEU B   5     -13.750 -17.183 -27.219  1.00 47.99 LIG-0.02  C 
ATOM     61  CD2 LEU B   5     -13.226 -17.940 -26.030  1.00 50.88 LIG 0.01  C 
ATOM     62  CD1 LEU B   5     -15.255 -17.326 -27.306  1.00 54.72 LIG 0.01  C 
ENDBRANCH 59 60
ENDBRANCH 47 59
ENDBRANCH 45 47
ENDBRANCH 42 43
BRANCH 42 63
ATOM     63  CB  LEU B   4     -14.554 -22.709 -29.609  1.00 23.96 LIG 0.04  C 
BRANCH 63 64
ATOM     64  CG  LEU B   4     -13.656 -23.256 -28.522  1.00 38.52 LIG-0.02  C 
ATOM     65  CD1 LEU B   4     -13.938 -22.622 -27.209  1.00 46.71 LIG 0.01  C 
ATOM     66  CD2 LEU B   4     -13.815 -24.784 -28.475  1.00 36.33 LIG 0.01  C 
ENDBRANCH 63 64
ENDBRANCH 42 63
ENDBRANCH 39 42
ENDBRANCH 1 38
TORSDOF 26
ENDMDL
MODEL 46
USER: ADFR SOLUTION from run 33
USER: SCORE 22.888109 LL:  -5.041 LR: -18.855 RR:   0.000 FEB: -11.099
USER: RMSD 6.096673
USER: SEED 32
USER: STATUS no improvement in best in 2 clusters for 5 generations
USER: GENES 28
USER: genes 0 Translation |==|  0.40439 0.46707 0.43613
USER: genes 1 Rotation |==|  0.88404 0.76287 0.53065 0.68021
USER: genes 2 Torsion [C]-CA--N-[C] |==|  0.87126
USER: genes 3 Torsion [N]-C--CA-[N] |==|  0.44815
USER: genes 4 Torsion [C]-CA--CB-[CG] |==|  0.38012
USER: genes 5 Torsion [CA]-CB--CG-[CD] |==|  0.69671
USER: genes 6 Torsion [CB]-CG--CD-[NE] |==|  0.23246
USER: genes 7 Torsion [CG]-CD--NE-[HE] |==|  0.18928
USER: genes 8 Torsion [C]-CA--N-[C] |==|  0.65336
USER: genes 9 Torsion [N]-C--CA-[N] |==|  0.46090
USER: genes 10 Torsion [C]-CA--N-[H3] |==|  0.80692
USER: genes 11 Torsion [C]-CA--CB-[CG] |==|  0.83667
USER: genes 12 Torsion [CA]-CB--CG-[ND2] |==|  0.75811
USER: genes 13 Torsion [N]-CA--CB-[CG] |==|  0.60966
USER: genes 14 Torsion [CA]-CB--CG-[CD1] |==|  0.00974
USER: genes 15 Torsion [N]-CA--C-[N] |==|  0.36286
USER: genes 16 Torsion [C]-N--CA-[CB] |==|  0.50022
USER: genes 17 Torsion [N]-CA--C-[N] |==|  0.42681
USER: genes 18 Torsion [C]-N--CA-[C] |==|  0.72895
USER: genes 19 Torsion [N]-CA--C-[N] |==|  0.33407
USER: genes 20 Torsion [C]-N--CA-[C] |==|  0.64167
USER: genes 21 Torsion [N]-CA--CB-[CG2] |==|  0.63752
USER: genes 22 Torsion [CA]-CB--OG1-[HG1] |==|  0.69573
USER: genes 23 Torsion [N]-CA--C-[O] |==|  0.03256
USER: genes 24 Torsion [N]-CA--CB-[CG] |==|  0.80308
USER: genes 25 Torsion [CA]-CB--CG-[CD2] |==|  0.21741
USER: genes 26 Torsion [N]-CA--CB-[CG] |==|  0.43234
USER: genes 27 Torsion [CA]-CB--CG-[CD1] |==|  0.18259
ROOT
ATOM      1  CA  LEU B   3     -20.468 -23.686 -29.658  1.00 17.18 LIG 0.18  C 
ENDROOT
BRANCH 1 2
ATOM      2  N   LEU B   3     -20.821 -24.907 -30.280  1.00 21.09 LIG-0.35  N 
ATOM      3  C   ARG B   2     -20.540 -25.139 -31.559  1.00 20.79 LIG 0.24  C 
ATOM      4 O    ARG B   2     -19.884 -24.353 -32.274  1.00 18.81 LIG-0.27  OA
ATOM      5 H    LEU B   3     -21.224 -25.467 -29.766  1.00 21.09 LIG 0.16  HD
BRANCH 3 6
ATOM      6  CA  ARG B   2     -21.142 -26.413 -32.139  1.00 21.42 LIG 0.18  C 
BRANCH 6 7
ATOM      7  CB  ARG B   2     -20.422 -27.681 -31.671  1.00 36.36 LIG 0.04  C 
BRANCH 7 8
ATOM      8  CG  ARG B   2     -21.395 -28.785 -31.302  1.00 41.67 LIG 0.02  C 
BRANCH 8 9
ATOM      9  CD  ARG B   2     -21.457 -29.057 -29.798  1.00 51.14 LIG 0.14  C 
BRANCH 9 10
ATOM     10  NE  ARG B   2     -22.372 -28.128 -29.110  1.00 53.41 LIG-0.23  N 
ATOM     11 HE   ARG B   2     -23.212 -28.205 -29.279  1.00 53.41 LIG 0.18  HD
ATOM     12  CZ  ARG B   2     -22.006 -27.175 -28.245  1.00 50.83 LIG 0.67  C 
ATOM     13  NH1 ARG B   2     -20.727 -26.996 -27.939  1.00 40.00 LIG-0.23  N 
ATOM     14  NH2 ARG B   2     -22.930 -26.388 -27.692  1.00 54.23 LIG-0.23  N 
ATOM     15 1HH1 ARG B   2     -20.125 -27.495 -28.297  1.00 40.00 LIG 0.17  HD
ATOM     16 2HH1 ARG B   2     -20.500 -26.381 -27.382  1.00 40.00 LIG 0.17  HD
ATOM     17 1HH2 ARG B   2     -23.760 -26.493 -27.891  1.00 54.23 LIG 0.17  HD
ATOM     18 2HH2 ARG B   2     -22.696 -25.775 -27.137  1.00 54.23 LIG 0.17  HD
ENDBRANCH 9 10
ENDBRANCH 8 9
ENDBRANCH 7 8
ENDBRANCH 6 7
BRANCH 6 19
ATOM     19  N   ARG B   2     -21.127 -26.294 -33.581  1.00 29.89 LIG-0.35  N 
ATOM     20  C   ASN B   1     -22.246 -26.436 -34.279  1.00 39.87 LIG 0.25  C 
ATOM     21 O    ASN B   1     -23.257 -26.982 -33.817  1.00 37.46 LIG-0.27  OA
ATOM     22 H    ARG B   2     -20.355 -26.131 -33.924  1.00 29.89 LIG 0.16  HD
BRANCH 20 23
ATOM     23  CA  ASN B   1     -22.208 -25.889 -35.718  1.00 47.73 LIG 0.28  C 
BRANCH 23 24
ATOM     24  N   ASN B   1     -23.298 -26.329 -36.554  1.00 51.86 LIG-0.07  N 
ATOM     25 H3   ASN B   1     -23.207 -27.197 -36.728  1.00 51.86 LIG 0.28  HD
ATOM     26 H1   ASN B   1     -24.070 -26.190 -36.133  1.00 51.86 LIG 0.28  HD
ATOM     27 H2   ASN B   1     -23.290 -25.871 -37.317  1.00 51.86 LIG 0.28  HD
ENDBRANCH 23 24
BRANCH 23 28
ATOM     28  CB  ASN B   1     -22.173 -24.375 -35.766  1.00 49.79 LIG 0.14  C 
BRANCH 28 29
ATOM     29  CG  ASN B   1     -23.376 -23.776 -35.076  1.00 59.47 LIG 0.22  C 
ATOM     30  ND2 ASN B   1     -24.477 -23.611 -35.817  1.00 63.81 LIG-0.37  N 
ATOM     31 21HD ASN B   1     -25.178 -23.253 -35.472  1.00 63.81 LIG 0.16  HD
ATOM     32 22HD ASN B   1     -24.484 -23.865 -36.639  1.00 63.81 LIG 0.16  HD
ATOM     33 OD1  ASN B   1     -23.312 -23.433 -33.898  1.00 60.25 LIG-0.27  OA
ENDBRANCH 28 29
ENDBRANCH 23 28
ENDBRANCH 20 23
ENDBRANCH 6 19
ENDBRANCH 3 6
ENDBRANCH 1 2
BRANCH 1 34
ATOM     34  CB  LEU B   3     -20.719 -23.781 -28.127  1.00 28.79 LIG 0.04  C 
BRANCH 34 35
ATOM     35  CG  LEU B   3     -21.299 -22.475 -27.573  1.00 33.15 LIG-0.02  C 
ATOM     36  CD2 LEU B   3     -22.571 -22.782 -26.794  1.00 30.13 LIG 0.01  C 
ATOM     37  CD1 LEU B   3     -21.585 -21.394 -28.657  1.00 27.67 LIG 0.01  C 
ENDBRANCH 34 35
ENDBRANCH 1 34
BRANCH 1 38
ATOM     38  C   LEU B   3     -19.045 -23.280 -29.970  1.00 20.33 LIG 0.24  C 
ATOM     39  N   LEU B   4     -18.878 -22.028 -30.385  1.00 23.83 LIG-0.35  N 
ATOM     40 H    LEU B   4     -19.516 -21.460 -30.480  1.00 23.83 LIG 0.16  HD
ATOM     41 O    LEU B   3     -18.108 -24.062 -29.836  1.00 22.70 LIG-0.27  OA
BRANCH 39 42
ATOM     42  CA  LEU B   4     -17.553 -21.519 -30.717  1.00 22.91 LIG 0.18  C 
BRANCH 42 43
ATOM     43  C   LEU B   4     -16.692 -21.548 -29.450  1.00 30.74 LIG 0.24  C 
ATOM     44 O    LEU B   4     -17.212 -21.447 -28.303  1.00 30.11 LIG-0.27  OA
ATOM     45  N   LEU B   5     -15.380 -21.649 -29.615  1.00 32.41 LIG-0.35  N 
ATOM     46 H    LEU B   5     -14.977 -21.785 -30.362  1.00 32.41 LIG 0.16  HD
BRANCH 45 47
ATOM     47  CA  LEU B   5     -14.518 -21.521 -28.432  1.00 35.50 LIG 0.18  C 
BRANCH 47 48
ATOM     48  C   LEU B   5     -13.971 -20.103 -28.319  1.00 33.38 LIG 0.24  C 
ATOM     49 O    LEU B   5     -13.266 -19.607 -29.226  1.00 25.58 LIG-0.27  OA
ATOM     50  N   THR B   6     -14.300 -19.471 -27.198  1.00 32.99 LIG-0.34  N 
ATOM     51 H    THR B   6     -14.896 -19.769 -26.653  1.00 32.99 LIG 0.16  HD
BRANCH 50 52
ATOM     52  CA  THR B   6     -13.701 -18.216 -26.765  1.00 39.09 LIG 0.19  C 
BRANCH 52 53
ATOM     53  CB  THR B   6     -14.737 -17.062 -26.829  1.00 66.99 LIG 0.14  C 
ATOM     54  CG2 THR B   6     -14.168 -15.861 -27.560  1.00 64.52 LIG 0.04  C 
BRANCH 53 55
ATOM     55 OG1  THR B   6     -15.919 -17.504 -27.525  1.00 68.32 LIG-0.39  OA
ATOM     56 HG1  THR B   6     -15.965 -17.123 -28.272  1.00 68.32 LIG 0.21  HD
ENDBRANCH 53 55
ENDBRANCH 52 53
BRANCH 52 57
ATOM     57  C   THR B   6     -13.227 -18.371 -25.313  1.00 46.48 LIG 0.22  C 
ATOM     58 O    THR B   6     -13.183 -19.488 -24.775  1.00 50.47 LIG-0.29  OA
ENDBRANCH 52 57
ENDBRANCH 50 52
ENDBRANCH 47 48
BRANCH 47 59
ATOM     59  CB  LEU B   5     -13.342 -22.487 -28.501  1.00 41.25 LIG 0.04  C 
BRANCH 59 60
ATOM     60  CG  LEU B   5     -13.624 -23.970 -28.324  1.00 47.99 LIG-0.02  C 
ATOM     61  CD2 LEU B   5     -14.185 -24.551 -29.592  1.00 50.88 LIG 0.01  C 
ATOM     62  CD1 LEU B   5     -14.621 -24.126 -27.194  1.00 54.72 LIG 0.01  C 
ENDBRANCH 59 60
ENDBRANCH 47 59
ENDBRANCH 45 47
ENDBRANCH 42 43
BRANCH 42 63
ATOM     63  CB  LEU B   4     -17.711 -20.074 -31.148  1.00 23.96 LIG 0.04  C 
BRANCH 63 64
ATOM     64  CG  LEU B   4     -16.596 -19.056 -31.061  1.00 38.52 LIG-0.02  C 
ATOM     65  CD1 LEU B   4     -15.477 -19.389 -31.978  1.00 46.71 LIG 0.01  C 
ATOM     66  CD2 LEU B   4     -17.180 -17.662 -31.339  1.00 36.33 LIG 0.01  C 
ENDBRANCH 63 64
ENDBRANCH 42 63
ENDBRANCH 39 42
ENDBRANCH 1 38
TORSDOF 26
ENDMDL
MODEL 47
USER: ADFR SOLUTION from run 196
USER: SCORE 22.102662 LL:  -4.913 LR: -18.809 RR:   0.000 FEB: -11.053
USER: RMSD 11.676112
USER: SEED 195
USER: STATUS no improvement in best in 36 clusters for 5 generations
USER: GENES 28
USER: genes 0 Translation |==|  0.58341 0.53978 0.41803
USER: genes 1 Rotation |==|  0.25942 0.83497 0.78253 0.50981
USER: genes 2 Torsion [C]-CA--N-[C] |==|  0.70660
USER: genes 3 Torsion [N]-C--CA-[N] |==|  0.11076
USER: genes 4 Torsion [C]-CA--CB-[CG] |==|  0.75478
USER: genes 5 Torsion [CA]-CB--CG-[CD] |==|  0.51968
USER: genes 6 Torsion [CB]-CG--CD-[NE] |==|  0.45052
USER: genes 7 Torsion [CG]-CD--NE-[HE] |==|  0.93633
USER: genes 8 Torsion [C]-CA--N-[C] |==|  0.76111
USER: genes 9 Torsion [N]-C--CA-[N] |==|  0.84181
USER: genes 10 Torsion [C]-CA--N-[H3] |==|  0.10691
USER: genes 11 Torsion [C]-CA--CB-[CG] |==|  0.44110
USER: genes 12 Torsion [CA]-CB--CG-[ND2] |==|  0.62499
USER: genes 13 Torsion [N]-CA--CB-[CG] |==|  0.70476
USER: genes 14 Torsion [CA]-CB--CG-[CD1] |==|  0.52833
USER: genes 15 Torsion [N]-CA--C-[N] |==|  0.06513
USER: genes 16 Torsion [C]-N--CA-[CB] |==|  0.84148
USER: genes 17 Torsion [N]-CA--C-[N] |==|  0.51100
USER: genes 18 Torsion [C]-N--CA-[C] |==|  0.83055
USER: genes 19 Torsion [N]-CA--C-[N] |==|  0.87974
USER: genes 20 Torsion [C]-N--CA-[C] |==|  0.68725
USER: genes 21 Torsion [N]-CA--CB-[CG2] |==|  0.10577
USER: genes 22 Torsion [CA]-CB--OG1-[HG1] |==|  0.16867
USER: genes 23 Torsion [N]-CA--C-[O] |==|  0.87282
USER: genes 24 Torsion [N]-CA--CB-[CG] |==|  0.10269
USER: genes 25 Torsion [CA]-CB--CG-[CD2] |==|  0.72921
USER: genes 26 Torsion [N]-CA--CB-[CG] |==|  0.66601
USER: genes 27 Torsion [CA]-CB--CG-[CD1] |==|  0.55792
ROOT
ATOM      1  CA  LEU B   3     -16.038 -21.886 -30.038  1.00 17.18 LIG 0.18  C 
ENDROOT
BRANCH 1 2
ATOM      2  N   LEU B   3     -15.667 -20.522 -30.091  1.00 21.09 LIG-0.35  N 
ATOM      3  C   ARG B   2     -14.998 -20.026 -31.128  1.00 20.79 LIG 0.24  C 
ATOM      4 O    ARG B   2     -14.724 -20.688 -32.151  1.00 18.81 LIG-0.27  OA
ATOM      5 H    LEU B   3     -15.909 -20.059 -29.408  1.00 21.09 LIG 0.16  HD
BRANCH 3 6
ATOM      6  CA  ARG B   2     -14.506 -18.594 -30.963  1.00 21.42 LIG 0.18  C 
BRANCH 6 7
ATOM      7  CB  ARG B   2     -13.426 -18.212 -31.981  1.00 36.36 LIG 0.04  C 
BRANCH 7 8
ATOM      8  CG  ARG B   2     -12.033 -18.553 -31.487  1.00 41.67 LIG 0.02  C 
BRANCH 8 9
ATOM      9  CD  ARG B   2     -10.923 -18.030 -32.401  1.00 51.14 LIG 0.14  C 
BRANCH 9 10
ATOM     10  NE  ARG B   2      -9.619 -17.996 -31.714  1.00 53.41 LIG-0.23  N 
ATOM     11 HE   ARG B   2      -9.626 -17.961 -30.855  1.00 53.41 LIG 0.18  HD
ATOM     12  CZ  ARG B   2      -8.423 -18.014 -32.316  1.00 50.83 LIG 0.67  C 
ATOM     13  NH1 ARG B   2      -8.334 -18.064 -33.639  1.00 40.00 LIG-0.23  N 
ATOM     14  NH2 ARG B   2      -7.309 -17.970 -31.584  1.00 54.23 LIG-0.23  N 
ATOM     15 1HH1 ARG B   2      -9.048 -18.085 -34.118  1.00 40.00 LIG 0.17  HD
ATOM     16 2HH1 ARG B   2      -7.562 -18.075 -34.018  1.00 40.00 LIG 0.17  HD
ATOM     17 1HH2 ARG B   2      -7.359 -17.930 -30.726  1.00 54.23 LIG 0.17  HD
ATOM     18 2HH2 ARG B   2      -6.541 -17.982 -31.969  1.00 54.23 LIG 0.17  HD
ENDBRANCH 9 10
ENDBRANCH 8 9
ENDBRANCH 7 8
ENDBRANCH 6 7
BRANCH 6 19
ATOM     19  N   ARG B   2     -14.033 -18.440 -29.605  1.00 29.89 LIG-0.35  N 
ATOM     20  C   ASN B   1     -14.876 -18.124 -28.630  1.00 39.87 LIG 0.25  C 
ATOM     21 O    ASN B   1     -15.992 -17.634 -28.846  1.00 37.46 LIG-0.27  OA
ATOM     22 H    ARG B   2     -13.189 -18.569 -29.497  1.00 29.89 LIG 0.16  HD
BRANCH 20 23
ATOM     23  CA  ASN B   1     -14.373 -18.394 -27.200  1.00 47.73 LIG 0.28  C 
BRANCH 23 24
ATOM     24  N   ASN B   1     -13.989 -19.761 -26.949  1.00 51.86 LIG-0.07  N 
ATOM     25 H3   ASN B   1     -13.577 -20.090 -27.666  1.00 51.86 LIG 0.28  HD
ATOM     26 H1   ASN B   1     -13.437 -19.791 -26.251  1.00 51.86 LIG 0.28  HD
ATOM     27 H2   ASN B   1     -14.714 -20.246 -26.774  1.00 51.86 LIG 0.28  HD
ENDBRANCH 23 24
BRANCH 23 28
ATOM     28  CB  ASN B   1     -13.206 -17.509 -26.814  1.00 49.79 LIG 0.14  C 
BRANCH 28 29
ATOM     29  CG  ASN B   1     -13.065 -17.409 -25.314  1.00 59.47 LIG 0.22  C 
ATOM     30  ND2 ASN B   1     -12.852 -16.188 -24.808  1.00 63.81 LIG-0.37  N 
ATOM     31 21HD ASN B   1     -12.743 -16.087 -23.962  1.00 63.81 LIG 0.16  HD
ATOM     32 22HD ASN B   1     -12.825 -15.506 -25.331  1.00 63.81 LIG 0.16  HD
ATOM     33 OD1  ASN B   1     -13.115 -18.417 -24.615  1.00 60.25 LIG-0.27  OA
ENDBRANCH 28 29
ENDBRANCH 23 28
ENDBRANCH 20 23
ENDBRANCH 6 19
ENDBRANCH 3 6
ENDBRANCH 1 2
BRANCH 1 34
ATOM     34  CB  LEU B   3     -15.599 -22.501 -28.680  1.00 28.79 LIG 0.04  C 
BRANCH 34 35
ATOM     35  CG  LEU B   3     -14.388 -23.424 -28.849  1.00 33.15 LIG-0.02  C 
ATOM     36  CD2 LEU B   3     -14.620 -24.343 -30.041  1.00 30.13 LIG 0.01  C 
ATOM     37  CD1 LEU B   3     -14.046 -24.268 -27.585  1.00 27.67 LIG 0.01  C 
ENDBRANCH 34 35
ENDBRANCH 1 34
BRANCH 1 38
ATOM     38  C   LEU B   3     -17.516 -22.084 -30.293  1.00 20.33 LIG 0.24  C 
ATOM     39  N   LEU B   4     -18.120 -21.118 -30.976  1.00 23.83 LIG-0.35  N 
ATOM     40 H    LEU B   4     -17.726 -20.412 -31.269  1.00 23.83 LIG 0.16  HD
ATOM     41 O    LEU B   3     -18.108 -23.084 -29.897  1.00 22.70 LIG-0.27  OA
BRANCH 39 42
ATOM     42  CA  LEU B   4     -19.544 -21.194 -31.283  1.00 22.91 LIG 0.18  C 
BRANCH 42 43
ATOM     43  C   LEU B   4     -20.319 -21.270 -29.964  1.00 30.74 LIG 0.24  C 
ATOM     44 O    LEU B   4     -19.724 -21.217 -28.851  1.00 30.11 LIG-0.27  OA
ATOM     45  N   LEU B   5     -21.634 -21.427 -30.045  1.00 32.41 LIG-0.35  N 
ATOM     46 H    LEU B   5     -22.098 -21.404 -30.769  1.00 32.41 LIG 0.16  HD
BRANCH 45 47
ATOM     47  CA  LEU B   5     -22.385 -21.661 -28.805  1.00 35.50 LIG 0.18  C 
BRANCH 47 48
ATOM     48  C   LEU B   5     -21.915 -22.943 -28.129  1.00 33.38 LIG 0.24  C 
ATOM     49 O    LEU B   5     -21.724 -22.991 -26.894  1.00 25.58 LIG-0.27  OA
ATOM     50  N   THR B   6     -21.728 -23.968 -28.955  1.00 32.99 LIG-0.34  N 
ATOM     51 H    THR B   6     -21.996 -23.961 -29.772  1.00 32.99 LIG 0.16  HD
BRANCH 50 52
ATOM     52  CA  THR B   6     -21.058 -25.205 -28.578  1.00 39.09 LIG 0.19  C 
BRANCH 52 53
ATOM     53  CB  THR B   6     -21.934 -26.435 -28.940  1.00 66.99 LIG 0.14  C 
ATOM     54  CG2 THR B   6     -22.650 -26.223 -30.259  1.00 64.52 LIG 0.04  C 
BRANCH 53 55
ATOM     55 OG1  THR B   6     -21.106 -27.609 -29.049  1.00 68.32 LIG-0.39  OA
ATOM     56 HG1  THR B   6     -20.727 -27.756 -28.314  1.00 68.32 LIG 0.21  HD
ENDBRANCH 53 55
ENDBRANCH 52 53
BRANCH 52 57
ATOM     57  C   THR B   6     -19.733 -25.302 -29.347  1.00 46.48 LIG 0.22  C 
ATOM     58 O    THR B   6     -19.685 -25.058 -30.563  1.00 50.47 LIG-0.29  OA
ENDBRANCH 52 57
ENDBRANCH 50 52
ENDBRANCH 47 48
BRANCH 47 59
ATOM     59  CB  LEU B   5     -23.878 -21.782 -29.080  1.00 41.25 LIG 0.04  C 
BRANCH 59 60
ATOM     60  CG  LEU B   5     -24.315 -22.485 -30.355  1.00 47.99 LIG-0.02  C 
ATOM     61  CD2 LEU B   5     -24.614 -21.478 -31.431  1.00 50.88 LIG 0.01  C 
ATOM     62  CD1 LEU B   5     -25.555 -23.297 -30.042  1.00 54.72 LIG 0.01  C 
ENDBRANCH 59 60
ENDBRANCH 47 59
ENDBRANCH 45 47
ENDBRANCH 42 43
BRANCH 42 63
ATOM     63  CB  LEU B   4     -19.780 -22.482 -32.045  1.00 23.96 LIG 0.04  C 
BRANCH 63 64
ATOM     64  CG  LEU B   4     -20.355 -22.525 -33.443  1.00 38.52 LIG-0.02  C 
ATOM     65  CD1 LEU B   4     -20.936 -23.855 -33.756  1.00 46.71 LIG 0.01  C 
ATOM     66  CD2 LEU B   4     -21.385 -21.393 -33.587  1.00 36.33 LIG 0.01  C 
ENDBRANCH 63 64
ENDBRANCH 42 63
ENDBRANCH 39 42
ENDBRANCH 1 38
TORSDOF 26
ENDMDL
MODEL 48
USER: ADFR SOLUTION from run 129
USER: SCORE 21.018580 LL:  -4.476 LR: -18.788 RR:   0.000 FEB: -11.032
USER: RMSD 11.029893
USER: SEED 128
USER: STATUS no improvement in best in 5 clusters for 5 generations
USER: GENES 28
USER: genes 0 Translation |==|  0.60133 0.66989 0.35291
USER: genes 1 Rotation |==|  0.51748 0.59841 0.04113 0.67161
USER: genes 2 Torsion [C]-CA--N-[C] |==|  0.75388
USER: genes 3 Torsion [N]-C--CA-[N] |==|  0.41383
USER: genes 4 Torsion [C]-CA--CB-[CG] |==|  0.34202
USER: genes 5 Torsion [CA]-CB--CG-[CD] |==|  0.36619
USER: genes 6 Torsion [CB]-CG--CD-[NE] |==|  0.78377
USER: genes 7 Torsion [CG]-CD--NE-[HE] |==|  0.29213
USER: genes 8 Torsion [C]-CA--N-[C] |==|  0.66570
USER: genes 9 Torsion [N]-C--CA-[N] |==|  0.34591
USER: genes 10 Torsion [C]-CA--N-[H3] |==|  0.36988
USER: genes 11 Torsion [C]-CA--CB-[CG] |==|  0.26521
USER: genes 12 Torsion [CA]-CB--CG-[ND2] |==|  0.37902
USER: genes 13 Torsion [N]-CA--CB-[CG] |==|  0.74193
USER: genes 14 Torsion [CA]-CB--CG-[CD1] |==|  0.62027
USER: genes 15 Torsion [N]-CA--C-[N] |==|  0.98276
USER: genes 16 Torsion [C]-N--CA-[CB] |==|  0.47618
USER: genes 17 Torsion [N]-CA--C-[N] |==|  0.23659
USER: genes 18 Torsion [C]-N--CA-[C] |==|  0.16235
USER: genes 19 Torsion [N]-CA--C-[N] |==|  0.57898
USER: genes 20 Torsion [C]-N--CA-[C] |==|  0.57506
USER: genes 21 Torsion [N]-CA--CB-[CG2] |==|  0.43781
USER: genes 22 Torsion [CA]-CB--OG1-[HG1] |==|  0.78382
USER: genes 23 Torsion [N]-CA--C-[O] |==|  0.07730
USER: genes 24 Torsion [N]-CA--CB-[CG] |==|  0.63117
USER: genes 25 Torsion [CA]-CB--CG-[CD2] |==|  0.95441
USER: genes 26 Torsion [N]-CA--CB-[CG] |==|  0.60002
USER: genes 27 Torsion [CA]-CB--CG-[CD1] |==|  0.65136
ROOT
ATOM      1  CA  LEU B   3     -15.594 -18.666 -31.406  1.00 17.18 LIG 0.18  C 
ENDROOT
BRANCH 1 2
ATOM      2  N   LEU B   3     -15.029 -18.088 -30.245  1.00 21.09 LIG-0.35  N 
ATOM      3  C   ARG B   2     -15.793 -17.624 -29.260  1.00 20.79 LIG 0.24  C 
ATOM      4 O    ARG B   2     -17.037 -17.734 -29.244  1.00 18.81 LIG-0.27  OA
ATOM      5 H    LEU B   3     -14.169 -18.067 -30.238  1.00 21.09 LIG 0.16  HD
BRANCH 3 6
ATOM      6  CA  ARG B   2     -15.057 -16.865 -28.164  1.00 21.42 LIG 0.18  C 
BRANCH 6 7
ATOM      7  CB  ARG B   2     -14.525 -17.780 -27.056  1.00 36.36 LIG 0.04  C 
BRANCH 7 8
ATOM      8  CG  ARG B   2     -13.027 -17.638 -26.870  1.00 41.67 LIG 0.02  C 
BRANCH 8 9
ATOM      9  CD  ARG B   2     -12.613 -17.462 -25.408  1.00 51.14 LIG 0.14  C 
BRANCH 9 10
ATOM     10  NE  ARG B   2     -12.851 -16.087 -24.933  1.00 53.41 LIG-0.23  N 
ATOM     11 HE   ARG B   2     -13.522 -15.961 -24.411  1.00 53.41 LIG 0.18  HD
ATOM     12  CZ  ARG B   2     -12.109 -15.018 -25.246  1.00 50.83 LIG 0.67  C 
ATOM     13  NH1 ARG B   2     -11.059 -15.136 -26.049  1.00 40.00 LIG-0.23  N 
ATOM     14  NH2 ARG B   2     -12.431 -13.819 -24.758  1.00 54.23 LIG-0.23  N 
ATOM     15 1HH1 ARG B   2     -10.850 -15.904 -26.374  1.00 40.00 LIG 0.17  HD
ATOM     16 2HH1 ARG B   2     -10.588 -14.443 -26.246  1.00 40.00 LIG 0.17  HD
ATOM     17 1HH2 ARG B   2     -13.114 -13.733 -24.243  1.00 54.23 LIG 0.17  HD
ATOM     18 2HH2 ARG B   2     -11.955 -13.132 -24.959  1.00 54.23 LIG 0.17  HD
ENDBRANCH 9 10
ENDBRANCH 8 9
ENDBRANCH 7 8
ENDBRANCH 6 7
BRANCH 6 19
ATOM     19  N   ARG B   2     -15.956 -15.861 -27.638  1.00 29.89 LIG-0.35  N 
ATOM     20  C   ASN B   1     -15.635 -14.575 -27.694  1.00 39.87 LIG 0.25  C 
ATOM     21 O    ASN B   1     -14.475 -14.184 -27.876  1.00 37.46 LIG-0.27  OA
ATOM     22 H    ARG B   2     -16.685 -16.168 -27.301  1.00 29.89 LIG 0.16  HD
BRANCH 20 23
ATOM     23  CA  ASN B   1     -16.802 -13.588 -27.504  1.00 47.73 LIG 0.28  C 
BRANCH 23 24
ATOM     24  N   ASN B   1     -16.609 -12.631 -26.442  1.00 51.86 LIG-0.07  N 
ATOM     25 H3   ASN B   1     -16.820 -11.818 -26.734  1.00 51.86 LIG 0.28  HD
ATOM     26 H1   ASN B   1     -17.131 -12.843 -25.753  1.00 51.86 LIG 0.28  HD
ATOM     27 H2   ASN B   1     -15.758 -12.643 -26.183  1.00 51.86 LIG 0.28  HD
ENDBRANCH 23 24
BRANCH 23 28
ATOM     28  CB  ASN B   1     -17.125 -12.816 -28.766  1.00 49.79 LIG 0.14  C 
BRANCH 28 29
ATOM     29  CG  ASN B   1     -18.246 -13.469 -29.538  1.00 59.47 LIG 0.22  C 
ATOM     30  ND2 ASN B   1     -19.190 -12.660 -30.032  1.00 63.81 LIG-0.37  N 
ATOM     31 21HD ASN B   1     -19.859 -12.991 -30.459  1.00 63.81 LIG 0.16  HD
ATOM     32 22HD ASN B   1     -19.127 -11.810 -29.924  1.00 63.81 LIG 0.16  HD
ATOM     33 OD1  ASN B   1     -18.287 -14.690 -29.665  1.00 60.25 LIG-0.27  OA
ENDBRANCH 28 29
ENDBRANCH 23 28
ENDBRANCH 20 23
ENDBRANCH 6 19
ENDBRANCH 3 6
ENDBRANCH 1 2
BRANCH 1 34
ATOM     34  CB  LEU B   3     -14.703 -18.351 -32.640  1.00 28.79 LIG 0.04  C 
BRANCH 34 35
ATOM     35  CG  LEU B   3     -15.173 -17.081 -33.358  1.00 33.15 LIG-0.02  C 
ATOM     36  CD2 LEU B   3     -16.553 -16.695 -32.844  1.00 30.13 LIG 0.01  C 
ATOM     37  CD1 LEU B   3     -15.197 -17.198 -34.911  1.00 27.67 LIG 0.01  C 
ENDBRANCH 34 35
ENDBRANCH 1 34
BRANCH 1 38
ATOM     38  C   LEU B   3     -15.826 -20.153 -31.246  1.00 20.33 LIG 0.24  C 
ATOM     39  N   LEU B   4     -15.358 -20.695 -30.127  1.00 23.83 LIG-0.35  N 
ATOM     40 H    LEU B   4     -14.945 -20.257 -29.513  1.00 23.83 LIG 0.16  HD
ATOM     41 O    LEU B   3     -16.419 -20.806 -32.099  1.00 22.70 LIG-0.27  OA
BRANCH 39 42
ATOM     42  CA  LEU B   4     -15.519 -22.119 -29.859  1.00 22.91 LIG 0.18  C 
BRANCH 42 43
ATOM     43  C   LEU B   4     -16.993 -22.387 -29.539  1.00 30.74 LIG 0.24  C 
ATOM     44 O    LEU B   4     -17.403 -22.446 -28.345  1.00 30.11 LIG-0.27  OA
ATOM     45  N   LEU B   5     -17.806 -22.587 -30.567  1.00 32.41 LIG-0.35  N 
ATOM     46 H    LEU B   5     -17.599 -22.495 -31.396  1.00 32.41 LIG 0.16  HD
BRANCH 45 47
ATOM     47  CA  LEU B   5     -19.188 -23.000 -30.291  1.00 35.50 LIG 0.18  C 
BRANCH 47 48
ATOM     48  C   LEU B   5     -19.890 -21.970 -29.414  1.00 33.38 LIG 0.24  C 
ATOM     49 O    LEU B   5     -19.558 -20.764 -29.441  1.00 25.58 LIG-0.27  OA
ATOM     50  N   THR B   6     -20.851 -22.464 -28.641  1.00 32.99 LIG-0.34  N 
ATOM     51 H    THR B   6     -21.160 -23.261 -28.735  1.00 32.99 LIG 0.16  HD
BRANCH 50 52
ATOM     52  CA  THR B   6     -21.485 -21.725 -27.558  1.00 39.09 LIG 0.19  C 
BRANCH 52 53
ATOM     53  CB  THR B   6     -22.692 -20.903 -28.087  1.00 66.99 LIG 0.14  C 
ATOM     54  CG2 THR B   6     -23.665 -20.586 -26.969  1.00 64.52 LIG 0.04  C 
BRANCH 53 55
ATOM     55 OG1  THR B   6     -22.226 -19.664 -28.657  1.00 68.32 LIG-0.39  OA
ATOM     56 HG1  THR B   6     -22.047 -19.121 -28.041  1.00 68.32 LIG 0.21  HD
ENDBRANCH 53 55
ENDBRANCH 52 53
BRANCH 52 57
ATOM     57  C   THR B   6     -21.994 -22.725 -26.510  1.00 46.48 LIG 0.22  C 
ATOM     58 O    THR B   6     -21.441 -23.825 -26.361  1.00 50.47 LIG-0.29  OA
ENDBRANCH 52 57
ENDBRANCH 50 52
ENDBRANCH 47 48
BRANCH 47 59
ATOM     59  CB  LEU B   5     -19.228 -24.346 -29.577  1.00 41.25 LIG 0.04  C 
BRANCH 59 60
ATOM     60  CG  LEU B   5     -20.194 -25.400 -30.095  1.00 47.99 LIG-0.02  C 
ATOM     61  CD2 LEU B   5     -21.225 -24.769 -30.990  1.00 50.88 LIG 0.01  C 
ATOM     62  CD1 LEU B   5     -20.867 -26.046 -28.902  1.00 54.72 LIG 0.01  C 
ENDBRANCH 59 60
ENDBRANCH 47 59
ENDBRANCH 45 47
ENDBRANCH 42 43
BRANCH 42 63
ATOM     63  CB  LEU B   4     -14.700 -22.450 -28.627  1.00 23.96 LIG 0.04  C 
BRANCH 63 64
ATOM     64  CG  LEU B   4     -13.958 -23.756 -28.450  1.00 38.52 LIG-0.02  C 
ATOM     65  CD1 LEU B   4     -14.338 -24.435 -27.186  1.00 46.71 LIG 0.01  C 
ATOM     66  CD2 LEU B   4     -14.213 -24.637 -29.683  1.00 36.33 LIG 0.01  C 
ENDBRANCH 63 64
ENDBRANCH 42 63
ENDBRANCH 39 42
ENDBRANCH 1 38
TORSDOF 26
ENDMDL
MODEL 49
USER: ADFR SOLUTION from run 118
USER: SCORE 22.427472 LL:  -5.132 LR: -18.782 RR:   0.000 FEB: -11.026
USER: RMSD 11.173653
USER: SEED 117
USER: STATUS no improvement in best in 18 clusters for 5 generations
USER: GENES 28
USER: genes 0 Translation |==|  0.60632 0.61784 0.41789
USER: genes 1 Rotation |==|  0.26228 0.79268 0.81912 0.57743
USER: genes 2 Torsion [C]-CA--N-[C] |==|  0.51466
USER: genes 3 Torsion [N]-C--CA-[N] |==|  0.97424
USER: genes 4 Torsion [C]-CA--CB-[CG] |==|  0.45437
USER: genes 5 Torsion [CA]-CB--CG-[CD] |==|  0.43167
USER: genes 6 Torsion [CB]-CG--CD-[NE] |==|  0.42111
USER: genes 7 Torsion [CG]-CD--NE-[HE] |==|  0.81445
USER: genes 8 Torsion [C]-CA--N-[C] |==|  0.22765
USER: genes 9 Torsion [N]-C--CA-[N] |==|  0.71677
USER: genes 10 Torsion [C]-CA--N-[H3] |==|  0.45445
USER: genes 11 Torsion [C]-CA--CB-[CG] |==|  0.26625
USER: genes 12 Torsion [CA]-CB--CG-[ND2] |==|  0.74782
USER: genes 13 Torsion [N]-CA--CB-[CG] |==|  0.50891
USER: genes 14 Torsion [CA]-CB--CG-[CD1] |==|  0.33073
USER: genes 15 Torsion [N]-CA--C-[N] |==|  0.46002
USER: genes 16 Torsion [C]-N--CA-[CB] |==|  0.50902
USER: genes 17 Torsion [N]-CA--C-[N] |==|  0.48888
USER: genes 18 Torsion [C]-N--CA-[C] |==|  0.81470
USER: genes 19 Torsion [N]-CA--C-[N] |==|  0.90552
USER: genes 20 Torsion [C]-N--CA-[C] |==|  0.73504
USER: genes 21 Torsion [N]-CA--CB-[CG2] |==|  0.40276
USER: genes 22 Torsion [CA]-CB--OG1-[HG1] |==|  0.63763
USER: genes 23 Torsion [N]-CA--C-[O] |==|  0.89297
USER: genes 24 Torsion [N]-CA--CB-[CG] |==|  0.19720
USER: genes 25 Torsion [CA]-CB--CG-[CD2] |==|  0.74974
USER: genes 26 Torsion [N]-CA--CB-[CG] |==|  0.48547
USER: genes 27 Torsion [CA]-CB--CG-[CD1] |==|  0.17289
ROOT
ATOM      1  CA  LEU B   3     -15.471 -19.955 -30.041  1.00 17.18 LIG 0.18  C 
ENDROOT
BRANCH 1 2
ATOM      2  N   LEU B   3     -15.018 -18.683 -29.616  1.00 21.09 LIG-0.35  N 
ATOM      3  C   ARG B   2     -13.747 -18.476 -29.286  1.00 20.79 LIG 0.24  C 
ATOM      4 O    ARG B   2     -12.855 -19.342 -29.403  1.00 18.81 LIG-0.27  OA
ATOM      5 H    LEU B   3     -15.628 -18.077 -29.591  1.00 21.09 LIG 0.16  HD
BRANCH 3 6
ATOM      6  CA  ARG B   2     -13.446 -17.115 -28.671  1.00 21.42 LIG 0.18  C 
BRANCH 6 7
ATOM      7  CB  ARG B   2     -12.989 -17.207 -27.211  1.00 36.36 LIG 0.04  C 
BRANCH 7 8
ATOM      8  CG  ARG B   2     -12.322 -15.928 -26.741  1.00 41.67 LIG 0.02  C 
BRANCH 8 9
ATOM      9  CD  ARG B   2     -12.392 -15.732 -25.226  1.00 51.14 LIG 0.14  C 
BRANCH 9 10
ATOM     10  NE  ARG B   2     -11.253 -14.941 -24.723  1.00 53.41 LIG-0.23  N 
ATOM     11 HE   ARG B   2     -10.472 -15.298 -24.775  1.00 53.41 LIG 0.18  HD
ATOM     12  CZ  ARG B   2     -11.333 -13.715 -24.192  1.00 50.83 LIG 0.67  C 
ATOM     13  NH1 ARG B   2     -12.505 -13.104 -24.077  1.00 40.00 LIG-0.23  N 
ATOM     14  NH2 ARG B   2     -10.228 -13.103 -23.763  1.00 54.23 LIG-0.23  N 
ATOM     15 1HH1 ARG B   2     -13.223 -13.495 -24.344  1.00 40.00 LIG 0.17  HD
ATOM     16 2HH1 ARG B   2     -12.548 -12.316 -23.734  1.00 40.00 LIG 0.17  HD
ATOM     17 1HH2 ARG B   2      -9.466 -13.496 -23.828  1.00 54.23 LIG 0.17  HD
ATOM     18 2HH2 ARG B   2     -10.278 -12.316 -23.422  1.00 54.23 LIG 0.17  HD
ENDBRANCH 9 10
ENDBRANCH 8 9
ENDBRANCH 7 8
ENDBRANCH 6 7
BRANCH 6 19
ATOM     19  N   ARG B   2     -14.630 -16.295 -28.806  1.00 29.89 LIG-0.35  N 
ATOM     20  C   ASN B   1     -15.627 -16.405 -27.939  1.00 39.87 LIG 0.25  C 
ATOM     21 O    ASN B   1     -15.763 -17.389 -27.199  1.00 37.46 LIG-0.27  OA
ATOM     22 H    ARG B   2     -14.622 -15.753 -29.474  1.00 29.89 LIG 0.16  HD
BRANCH 20 23
ATOM     23  CA  ASN B   1     -16.624 -15.232 -27.915  1.00 47.73 LIG 0.28  C 
BRANCH 23 24
ATOM     24  N   ASN B   1     -16.442 -14.315 -26.817  1.00 51.86 LIG-0.07  N 
ATOM     25 H3   ASN B   1     -16.875 -13.557 -26.989  1.00 51.86 LIG 0.28  HD
ATOM     26 H1   ASN B   1     -16.764 -14.677 -26.071  1.00 51.86 LIG 0.28  HD
ATOM     27 H2   ASN B   1     -15.575 -14.144 -26.714  1.00 51.86 LIG 0.28  HD
ENDBRANCH 23 24
BRANCH 23 28
ATOM     28  CB  ASN B   1     -16.607 -14.425 -29.197  1.00 49.79 LIG 0.14  C 
BRANCH 28 29
ATOM     29  CG  ASN B   1     -17.692 -14.877 -30.145  1.00 59.47 LIG 0.22  C 
ATOM     30  ND2 ASN B   1     -17.369 -15.835 -31.020  1.00 63.81 LIG-0.37  N 
ATOM     31 21HD ASN B   1     -17.948 -16.106 -31.594  1.00 63.81 LIG 0.16  HD
ATOM     32 22HD ASN B   1     -16.581 -16.179 -31.009  1.00 63.81 LIG 0.16  HD
ATOM     33 OD1  ASN B   1     -18.802 -14.352 -30.116  1.00 60.25 LIG-0.27  OA
ENDBRANCH 28 29
ENDBRANCH 23 28
ENDBRANCH 20 23
ENDBRANCH 6 19
ENDBRANCH 3 6
ENDBRANCH 1 2
BRANCH 1 34
ATOM     34  CB  LEU B   3     -15.232 -21.004 -28.919  1.00 28.79 LIG 0.04  C 
BRANCH 34 35
ATOM     35  CG  LEU B   3     -15.638 -22.410 -29.373  1.00 33.15 LIG-0.02  C 
ATOM     36  CD2 LEU B   3     -16.777 -22.911 -28.495  1.00 30.13 LIG 0.01  C 
ATOM     37  CD1 LEU B   3     -14.471 -23.442 -29.373  1.00 27.67 LIG 0.01  C 
ENDBRANCH 34 35
ENDBRANCH 1 34
BRANCH 1 38
ATOM     38  C   LEU B   3     -16.917 -19.925 -30.483  1.00 20.33 LIG 0.24  C 
ATOM     39  N   LEU B   4     -17.335 -20.984 -31.169  1.00 23.83 LIG-0.35  N 
ATOM     40 H    LEU B   4     -16.841 -21.659 -31.365  1.00 23.83 LIG 0.16  HD
ATOM     41 O    LEU B   3     -17.653 -18.981 -30.212  1.00 22.70 LIG-0.27  OA
BRANCH 39 42
ATOM     42  CA  LEU B   4     -18.708 -21.071 -31.651  1.00 22.91 LIG 0.18  C 
BRANCH 42 43
ATOM     43  C   LEU B   4     -19.649 -21.012 -30.443  1.00 30.74 LIG 0.24  C 
ATOM     44 O    LEU B   4     -19.198 -21.010 -29.262  1.00 30.11 LIG-0.27  OA
ATOM     45  N   LEU B   5     -20.951 -20.996 -30.693  1.00 32.41 LIG-0.35  N 
ATOM     46 H    LEU B   5     -21.312 -20.930 -31.470  1.00 32.41 LIG 0.16  HD
BRANCH 45 47
ATOM     47  CA  LEU B   5     -21.879 -21.098 -29.559  1.00 35.50 LIG 0.18  C 
BRANCH 47 48
ATOM     48  C   LEU B   5     -21.774 -22.469 -28.903  1.00 33.38 LIG 0.24  C 
ATOM     49 O    LEU B   5     -21.920 -22.610 -27.669  1.00 25.58 LIG-0.27  OA
ATOM     50  N   THR B   6     -21.514 -23.466 -29.744  1.00 32.99 LIG-0.34  N 
ATOM     51 H    THR B   6     -21.556 -23.376 -30.598  1.00 32.99 LIG 0.16  HD
BRANCH 50 52
ATOM     52  CA  THR B   6     -21.134 -24.807 -29.323  1.00 39.09 LIG 0.19  C 
BRANCH 52 53
ATOM     53  CB  THR B   6     -21.716 -25.872 -30.292  1.00 66.99 LIG 0.14  C 
ATOM     54  CG2 THR B   6     -20.760 -27.038 -30.454  1.00 64.52 LIG 0.04  C 
BRANCH 53 55
ATOM     55 OG1  THR B   6     -22.965 -26.371 -29.776  1.00 68.32 LIG-0.39  OA
ATOM     56 HG1  THR B   6     -22.958 -27.211 -29.785  1.00 68.32 LIG 0.21  HD
ENDBRANCH 53 55
ENDBRANCH 52 53
BRANCH 52 57
ATOM     57  C   THR B   6     -19.602 -24.913 -29.339  1.00 46.48 LIG 0.22  C 
ATOM     58 O    THR B   6     -18.937 -24.370 -30.234  1.00 50.47 LIG-0.29  OA
ENDBRANCH 52 57
ENDBRANCH 50 52
ENDBRANCH 47 48
BRANCH 47 59
ATOM     59  CB  LEU B   5     -23.320 -20.887 -30.005  1.00 41.25 LIG 0.04  C 
BRANCH 59 60
ATOM     60  CG  LEU B   5     -23.977 -21.979 -30.834  1.00 47.99 LIG-0.02  C 
ATOM     61  CD2 LEU B   5     -23.749 -21.732 -32.299  1.00 50.88 LIG 0.01  C 
ATOM     62  CD1 LEU B   5     -25.461 -21.971 -30.529  1.00 54.72 LIG 0.01  C 
ENDBRANCH 59 60
ENDBRANCH 47 59
ENDBRANCH 45 47
ENDBRANCH 42 43
BRANCH 42 63
ATOM     63  CB  LEU B   4     -18.877 -22.423 -32.314  1.00 23.96 LIG 0.04  C 
BRANCH 63 64
ATOM     64  CG  LEU B   4     -20.202 -22.931 -32.838  1.00 38.52 LIG-0.02  C 
ATOM     65  CD1 LEU B   4     -20.729 -22.066 -33.924  1.00 46.71 LIG 0.01  C 
ATOM     66  CD2 LEU B   4     -20.026 -24.389 -33.290  1.00 36.33 LIG 0.01  C 
ENDBRANCH 63 64
ENDBRANCH 42 63
ENDBRANCH 39 42
ENDBRANCH 1 38
TORSDOF 26
ENDMDL
MODEL 50
USER: ADFR SOLUTION from run 95
USER: SCORE 23.670229 LL:  -5.402 LR: -18.772 RR:   0.000 FEB: -11.016
USER: RMSD 5.832540
USER: SEED 94
USER: STATUS searching
USER: GENES 28
USER: genes 0 Translation |==|  0.43262 0.51222 0.40696
USER: genes 1 Rotation |==|  0.59177 0.53033 0.53017 0.98964
USER: genes 2 Torsion [C]-CA--N-[C] |==|  0.74474
USER: genes 3 Torsion [N]-C--CA-[N] |==|  0.96260
USER: genes 4 Torsion [C]-CA--CB-[CG] |==|  0.24145
USER: genes 5 Torsion [CA]-CB--CG-[CD] |==|  0.64414
USER: genes 6 Torsion [CB]-CG--CD-[NE] |==|  0.39685
USER: genes 7 Torsion [CG]-CD--NE-[HE] |==|  0.99763
USER: genes 8 Torsion [C]-CA--N-[C] |==|  0.79201
USER: genes 9 Torsion [N]-C--CA-[N] |==|  0.48202
USER: genes 10 Torsion [C]-CA--N-[H3] |==|  0.31962
USER: genes 11 Torsion [C]-CA--CB-[CG] |==|  0.34789
USER: genes 12 Torsion [CA]-CB--CG-[ND2] |==|  0.69178
USER: genes 13 Torsion [N]-CA--CB-[CG] |==|  0.61913
USER: genes 14 Torsion [CA]-CB--CG-[CD1] |==|  0.98686
USER: genes 15 Torsion [N]-CA--C-[N] |==|  0.31993
USER: genes 16 Torsion [C]-N--CA-[CB] |==|  0.53536
USER: genes 17 Torsion [N]-CA--C-[N] |==|  0.43582
USER: genes 18 Torsion [C]-N--CA-[C] |==|  0.86022
USER: genes 19 Torsion [N]-CA--C-[N] |==|  0.89968
USER: genes 20 Torsion [C]-N--CA-[C] |==|  0.78847
USER: genes 21 Torsion [N]-CA--CB-[CG2] |==|  0.72978
USER: genes 22 Torsion [CA]-CB--OG1-[HG1] |==|  0.12265
USER: genes 23 Torsion [N]-CA--C-[O] |==|  0.76434
USER: genes 24 Torsion [N]-CA--CB-[CG] |==|  0.13452
USER: genes 25 Torsion [CA]-CB--CG-[CD2] |==|  0.62782
USER: genes 26 Torsion [N]-CA--CB-[CG] |==|  0.64713
USER: genes 27 Torsion [CA]-CB--CG-[CD1] |==|  0.91561
ROOT
ATOM      1  CA  LEU B   3     -19.770 -22.569 -30.271  1.00 17.18 LIG 0.18  C 
ENDROOT
BRANCH 1 2
ATOM      2  N   LEU B   3     -20.607 -23.417 -29.509  1.00 21.09 LIG-0.35  N 
ATOM      3  C   ARG B   2     -20.338 -24.712 -29.368  1.00 20.79 LIG 0.24  C 
ATOM      4 O    ARG B   2     -19.306 -25.253 -29.817  1.00 18.81 LIG-0.27  OA
ATOM      5 H    LEU B   3     -21.287 -23.025 -29.156  1.00 21.09 LIG 0.16  HD
BRANCH 3 6
ATOM      6  CA  ARG B   2     -21.421 -25.533 -28.681  1.00 21.42 LIG 0.18  C 
BRANCH 6 7
ATOM      7  CB  ARG B   2     -22.132 -26.500 -29.634  1.00 36.36 LIG 0.04  C 
BRANCH 7 8
ATOM      8  CG  ARG B   2     -21.407 -27.829 -29.741  1.00 41.67 LIG 0.02  C 
BRANCH 8 9
ATOM      9  CD  ARG B   2     -21.124 -28.248 -31.185  1.00 51.14 LIG 0.14  C 
BRANCH 9 10
ATOM     10  NE  ARG B   2     -19.816 -28.916 -31.315  1.00 53.41 LIG-0.23  N 
ATOM     11 HE   ARG B   2     -19.343 -28.998 -30.602  1.00 53.41 LIG 0.18  HD
ATOM     12  CZ  ARG B   2     -19.304 -29.407 -32.450  1.00 50.83 LIG 0.67  C 
ATOM     13  NH1 ARG B   2     -19.977 -29.315 -33.590  1.00 40.00 LIG-0.23  N 
ATOM     14  NH2 ARG B   2     -18.102 -29.985 -32.442  1.00 54.23 LIG-0.23  N 
ATOM     15 1HH1 ARG B   2     -20.750 -28.937 -33.604  1.00 40.00 LIG 0.17  HD
ATOM     16 2HH1 ARG B   2     -19.641 -29.632 -34.315  1.00 40.00 LIG 0.17  HD
ATOM     17 1HH2 ARG B   2     -17.657 -30.042 -31.708  1.00 54.23 LIG 0.17  HD
ATOM     18 2HH2 ARG B   2     -17.772 -30.300 -33.170  1.00 54.23 LIG 0.17  HD
ENDBRANCH 9 10
ENDBRANCH 8 9
ENDBRANCH 7 8
ENDBRANCH 6 7
BRANCH 6 19
ATOM     19  N   ARG B   2     -22.353 -24.613 -28.066  1.00 29.89 LIG-0.35  N 
ATOM     20  C   ASN B   1     -22.028 -23.969 -26.954  1.00 39.87 LIG 0.25  C 
ATOM     21 O    ASN B   1     -21.102 -24.334 -26.217  1.00 37.46 LIG-0.27  OA
ATOM     22 H    ARG B   2     -23.105 -24.530 -28.476  1.00 29.89 LIG 0.16  HD
BRANCH 20 23
ATOM     23  CA  ASN B   1     -22.886 -22.734 -26.622  1.00 47.73 LIG 0.28  C 
BRANCH 23 24
ATOM     24  N   ASN B   1     -22.607 -22.140 -25.338  1.00 51.86 LIG-0.07  N 
ATOM     25 H3   ASN B   1     -22.277 -21.322 -25.455  1.00 51.86 LIG 0.28  HD
ATOM     26 H1   ASN B   1     -23.360 -22.091 -24.864  1.00 51.86 LIG 0.28  HD
ATOM     27 H2   ASN B   1     -22.015 -22.640 -24.902  1.00 51.86 LIG 0.28  HD
ENDBRANCH 23 24
BRANCH 23 28
ATOM     28  CB  ASN B   1     -22.770 -21.644 -27.668  1.00 49.79 LIG 0.14  C 
BRANCH 28 29
ATOM     29  CG  ASN B   1     -24.127 -21.247 -28.199  1.00 59.47 LIG 0.22  C 
ATOM     30  ND2 ASN B   1     -24.399 -21.576 -29.467  1.00 63.81 LIG-0.37  N 
ATOM     31 21HD ASN B   1     -25.150 -21.350 -29.818  1.00 63.81 LIG 0.16  HD
ATOM     32 22HD ASN B   1     -23.823 -22.016 -29.930  1.00 63.81 LIG 0.16  HD
ATOM     33 OD1  ASN B   1     -24.913 -20.621 -27.493  1.00 60.25 LIG-0.27  OA
ENDBRANCH 28 29
ENDBRANCH 23 28
ENDBRANCH 20 23
ENDBRANCH 6 19
ENDBRANCH 3 6
ENDBRANCH 1 2
BRANCH 1 34
ATOM     34  CB  LEU B   3     -20.630 -21.521 -31.031  1.00 28.79 LIG 0.04  C 
BRANCH 34 35
ATOM     35  CG  LEU B   3     -20.144 -21.339 -32.473  1.00 33.15 LIG-0.02  C 
ATOM     36  CD2 LEU B   3     -21.264 -21.723 -33.432  1.00 30.13 LIG 0.01  C 
ATOM     37  CD1 LEU B   3     -18.852 -22.138 -32.817  1.00 27.67 LIG 0.01  C 
ENDBRANCH 34 35
ENDBRANCH 1 34
BRANCH 1 38
ATOM     38  C   LEU B   3     -18.704 -21.910 -29.423  1.00 20.33 LIG 0.24  C 
ATOM     39  N   LEU B   4     -17.449 -22.250 -29.703  1.00 23.83 LIG-0.35  N 
ATOM     40 H    LEU B   4     -17.224 -22.805 -30.320  1.00 23.83 LIG 0.16  HD
ATOM     41 O    LEU B   3     -18.989 -21.106 -28.540  1.00 22.70 LIG-0.27  OA
BRANCH 39 42
ATOM     42  CA  LEU B   4     -16.334 -21.683 -28.954  1.00 22.91 LIG 0.18  C 
BRANCH 42 43
ATOM     43  C   LEU B   4     -16.493 -20.160 -28.929  1.00 30.74 LIG 0.24  C 
ATOM     44 O    LEU B   4     -17.145 -19.555 -29.827  1.00 30.11 LIG-0.27  OA
ATOM     45  N   LEU B   5     -15.888 -19.506 -27.946  1.00 32.41 LIG-0.35  N 
ATOM     46 H    LEU B   5     -15.488 -19.866 -27.276  1.00 32.41 LIG 0.16  HD
BRANCH 45 47
ATOM     47  CA  LEU B   5     -15.889 -18.038 -27.983  1.00 35.50 LIG 0.18  C 
BRANCH 47 48
ATOM     48  C   LEU B   5     -15.422 -17.537 -29.344  1.00 33.38 LIG 0.24  C 
ATOM     49 O    LEU B   5     -15.923 -16.516 -29.865  1.00 25.58 LIG-0.27  OA
ATOM     50  N   THR B   6     -14.466 -18.271 -29.905  1.00 32.99 LIG-0.34  N 
ATOM     51 H    THR B   6     -14.037 -18.881 -29.477  1.00 32.99 LIG 0.16  HD
BRANCH 50 52
ATOM     52  CA  THR B   6     -14.039 -18.129 -31.290  1.00 39.09 LIG 0.19  C 
BRANCH 52 53
ATOM     53  CB  THR B   6     -12.677 -18.838 -31.520  1.00 66.99 LIG 0.14  C 
ATOM     54  CG2 THR B   6     -11.531 -17.848 -31.444  1.00 64.52 LIG 0.04  C 
BRANCH 53 55
ATOM     55 OG1  THR B   6     -12.477 -19.851 -30.515  1.00 68.32 LIG-0.39  OA
ATOM     56 HG1  THR B   6     -13.187 -20.287 -30.411  1.00 68.32 LIG 0.21  HD
ENDBRANCH 53 55
ENDBRANCH 52 53
BRANCH 52 57
ATOM     57  C   THR B   6     -15.092 -18.780 -32.199  1.00 46.48 LIG 0.22  C 
ATOM     58 O    THR B   6     -15.062 -19.998 -32.434  1.00 50.47 LIG-0.29  OA
ENDBRANCH 52 57
ENDBRANCH 50 52
ENDBRANCH 47 48
BRANCH 47 59
ATOM     59  CB  LEU B   5     -14.969 -17.460 -26.915  1.00 41.25 LIG 0.04  C 
BRANCH 59 60
ATOM     60  CG  LEU B   5     -13.564 -18.028 -26.799  1.00 47.99 LIG-0.02  C 
ATOM     61  CD2 LEU B   5     -13.227 -18.300 -25.359  1.00 50.88 LIG 0.01  C 
ATOM     62  CD1 LEU B   5     -12.599 -17.015 -27.378  1.00 54.72 LIG 0.01  C 
ENDBRANCH 59 60
ENDBRANCH 47 59
ENDBRANCH 45 47
ENDBRANCH 42 43
BRANCH 42 63
ATOM     63  CB  LEU B   4     -15.061 -22.014 -29.706  1.00 23.96 LIG 0.04  C 
BRANCH 63 64
ATOM     64  CG  LEU B   4     -13.870 -22.691 -29.065  1.00 38.52 LIG-0.02  C 
ATOM     65  CD1 LEU B   4     -13.758 -22.352 -27.624  1.00 46.71 LIG 0.01  C 
ATOM     66  CD2 LEU B   4     -13.981 -24.206 -29.298  1.00 36.33 LIG 0.01  C 
ENDBRANCH 63 64
ENDBRANCH 42 63
ENDBRANCH 39 42
ENDBRANCH 1 38
TORSDOF 26
ENDMDL
MODEL 51
USER: ADFR SOLUTION from run 119
USER: SCORE 21.628130 LL:  -4.527 LR: -18.760 RR:   0.000 FEB: -11.004
USER: RMSD 11.937671
USER: SEED 118
USER: STATUS no improvement in best in 7 clusters for 5 generations
USER: GENES 28
USER: genes 0 Translation |==|  0.43719 0.53075 0.42407
USER: genes 1 Rotation |==|  0.24511 0.66261 0.11008 0.58095
USER: genes 2 Torsion [C]-CA--N-[C] |==|  0.82097
USER: genes 3 Torsion [N]-C--CA-[N] |==|  0.39202
USER: genes 4 Torsion [C]-CA--CB-[CG] |==|  0.95599
USER: genes 5 Torsion [CA]-CB--CG-[CD] |==|  0.65222
USER: genes 6 Torsion [CB]-CG--CD-[NE] |==|  0.09578
USER: genes 7 Torsion [CG]-CD--NE-[HE] |==|  0.67095
USER: genes 8 Torsion [C]-CA--N-[C] |==|  0.54980
USER: genes 9 Torsion [N]-C--CA-[N] |==|  0.27519
USER: genes 10 Torsion [C]-CA--N-[H3] |==|  0.58495
USER: genes 11 Torsion [C]-CA--CB-[CG] |==|  0.24704
USER: genes 12 Torsion [CA]-CB--CG-[ND2] |==|  0.26898
USER: genes 13 Torsion [N]-CA--CB-[CG] |==|  0.15262
USER: genes 14 Torsion [CA]-CB--CG-[CD1] |==|  0.22437
USER: genes 15 Torsion [N]-CA--C-[N] |==|  0.43169
USER: genes 16 Torsion [C]-N--CA-[CB] |==|  0.46122
USER: genes 17 Torsion [N]-CA--C-[N] |==|  0.43032
USER: genes 18 Torsion [C]-N--CA-[C] |==|  0.69806
USER: genes 19 Torsion [N]-CA--C-[N] |==|  0.91509
USER: genes 20 Torsion [C]-N--CA-[C] |==|  0.71195
USER: genes 21 Torsion [N]-CA--CB-[CG2] |==|  0.77109
USER: genes 22 Torsion [CA]-CB--OG1-[HG1] |==|  0.03882
USER: genes 23 Torsion [N]-CA--C-[O] |==|  0.17093
USER: genes 24 Torsion [N]-CA--CB-[CG] |==|  0.49294
USER: genes 25 Torsion [CA]-CB--CG-[CD2] |==|  0.70770
USER: genes 26 Torsion [N]-CA--CB-[CG] |==|  0.65677
USER: genes 27 Torsion [CA]-CB--CG-[CD1] |==|  0.44881
ROOT
ATOM      1  CA  LEU B   3     -19.656 -22.110 -29.911  1.00 17.18 LIG 0.18  C 
ENDROOT
BRANCH 1 2
ATOM      2  N   LEU B   3     -18.390 -21.506 -30.090  1.00 21.09 LIG-0.35  N 
ATOM      3  C   ARG B   2     -17.533 -21.383 -29.080  1.00 20.79 LIG 0.24  C 
ATOM      4 O    ARG B   2     -17.738 -21.853 -27.942  1.00 18.81 LIG-0.27  OA
ATOM      5 H    LEU B   3     -18.233 -21.234 -30.891  1.00 21.09 LIG 0.16  HD
BRANCH 3 6
ATOM      6  CA  ARG B   2     -16.292 -20.549 -29.375  1.00 21.42 LIG 0.18  C 
BRANCH 6 7
ATOM      7  CB  ARG B   2     -15.090 -21.397 -29.804  1.00 36.36 LIG 0.04  C 
BRANCH 7 8
ATOM      8  CG  ARG B   2     -15.282 -22.865 -29.473  1.00 41.67 LIG 0.02  C 
BRANCH 8 9
ATOM      9  CD  ARG B   2     -14.147 -23.448 -28.630  1.00 51.14 LIG 0.14  C 
BRANCH 9 10
ATOM     10  NE  ARG B   2     -13.603 -22.458 -27.682  1.00 53.41 LIG-0.23  N 
ATOM     11 HE   ARG B   2     -12.775 -22.243 -27.769  1.00 53.41 LIG 0.18  HD
ATOM     12  CZ  ARG B   2     -14.291 -21.867 -26.698  1.00 50.83 LIG 0.67  C 
ATOM     13  NH1 ARG B   2     -15.572 -22.153 -26.502  1.00 40.00 LIG-0.23  N 
ATOM     14  NH2 ARG B   2     -13.684 -20.990 -25.896  1.00 54.23 LIG-0.23  N 
ATOM     15 1HH1 ARG B   2     -15.968 -22.722 -27.010  1.00 40.00 LIG 0.17  HD
ATOM     16 2HH1 ARG B   2     -16.007 -21.768 -25.867  1.00 40.00 LIG 0.17  HD
ATOM     17 1HH2 ARG B   2     -12.852 -20.805 -26.012  1.00 54.23 LIG 0.17  HD
ATOM     18 2HH2 ARG B   2     -14.124 -20.609 -25.264  1.00 54.23 LIG 0.17  HD
ENDBRANCH 9 10
ENDBRANCH 8 9
ENDBRANCH 7 8
ENDBRANCH 6 7
BRANCH 6 19
ATOM     19  N   ARG B   2     -15.995 -19.764 -28.197  1.00 29.89 LIG-0.35  N 
ATOM     20  C   ASN B   1     -15.202 -18.704 -28.277  1.00 39.87 LIG 0.25  C 
ATOM     21 O    ASN B   1     -14.434 -18.516 -29.230  1.00 37.46 LIG-0.27  OA
ATOM     22 H    ARG B   2     -16.366 -20.042 -27.472  1.00 29.89 LIG 0.16  HD
BRANCH 20 23
ATOM     23  CA  ASN B   1     -15.284 -17.718 -27.097  1.00 47.73 LIG 0.28  C 
BRANCH 23 24
ATOM     24  N   ASN B   1     -14.237 -17.869 -26.117  1.00 51.86 LIG-0.07  N 
ATOM     25 H3   ASN B   1     -14.545 -17.635 -25.315  1.00 51.86 LIG 0.28  HD
ATOM     26 H1   ASN B   1     -13.970 -18.718 -26.096  1.00 51.86 LIG 0.28  HD
ATOM     27 H2   ASN B   1     -13.550 -17.348 -26.334  1.00 51.86 LIG 0.28  HD
ENDBRANCH 23 24
BRANCH 23 28
ATOM     28  CB  ASN B   1     -15.290 -16.271 -27.545  1.00 49.79 LIG 0.14  C 
BRANCH 28 29
ATOM     29  CG  ASN B   1     -16.695 -15.783 -27.807  1.00 59.47 LIG 0.22  C 
ATOM     30  ND2 ASN B   1     -17.294 -15.111 -26.817  1.00 63.81 LIG-0.37  N 
ATOM     31 21HD ASN B   1     -18.102 -14.834 -26.913  1.00 63.81 LIG 0.16  HD
ATOM     32 22HD ASN B   1     -16.870 -14.955 -26.085  1.00 63.81 LIG 0.16  HD
ATOM     33 OD1  ASN B   1     -17.253 -16.032 -28.872  1.00 60.25 LIG-0.27  OA
ENDBRANCH 28 29
ENDBRANCH 23 28
ENDBRANCH 20 23
ENDBRANCH 6 19
ENDBRANCH 3 6
ENDBRANCH 1 2
BRANCH 1 34
ATOM     34  CB  LEU B   3     -20.524 -21.904 -31.185  1.00 28.79 LIG 0.04  C 
BRANCH 34 35
ATOM     35  CG  LEU B   3     -19.808 -22.417 -32.439  1.00 33.15 LIG-0.02  C 
ATOM     36  CD2 LEU B   3     -20.355 -21.691 -33.661  1.00 30.13 LIG 0.01  C 
ATOM     37  CD1 LEU B   3     -19.907 -23.957 -32.645  1.00 27.67 LIG 0.01  C 
ENDBRANCH 34 35
ENDBRANCH 1 34
BRANCH 1 38
ATOM     38  C   LEU B   3     -19.542 -23.572 -29.541  1.00 20.33 LIG 0.24  C 
ATOM     39  N   LEU B   4     -20.574 -24.084 -28.877  1.00 23.83 LIG-0.35  N 
ATOM     40 H    LEU B   4     -21.276 -23.639 -28.657  1.00 23.83 LIG 0.16  HD
ATOM     41 O    LEU B   3     -18.558 -24.239 -29.847  1.00 22.70 LIG-0.27  OA
BRANCH 39 42
ATOM     42  CA  LEU B   4     -20.580 -25.482 -28.463  1.00 22.91 LIG 0.18  C 
BRANCH 42 43
ATOM     43  C   LEU B   4     -20.904 -26.346 -29.685  1.00 30.74 LIG 0.24  C 
ATOM     44 O    LEU B   4     -21.579 -25.888 -30.651  1.00 30.11 LIG-0.27  OA
ATOM     45  N   LEU B   5     -20.472 -27.600 -29.668  1.00 32.41 LIG-0.35  N 
ATOM     46 H    LEU B   5     -19.957 -27.946 -29.073  1.00 32.41 LIG 0.16  HD
BRANCH 45 47
ATOM     47  CA  LEU B   5     -20.899 -28.498 -30.750  1.00 35.50 LIG 0.18  C 
BRANCH 47 48
ATOM     48  C   LEU B   5     -21.895 -29.527 -30.230  1.00 33.38 LIG 0.24  C 
ATOM     49 O    LEU B   5     -22.791 -29.991 -30.968  1.00 25.58 LIG-0.27  OA
ATOM     50  N   THR B   6     -21.725 -29.866 -28.956  1.00 32.99 LIG-0.34  N 
ATOM     51 H    THR B   6     -21.026 -29.648 -28.506  1.00 32.99 LIG 0.16  HD
BRANCH 50 52
ATOM     52  CA  THR B   6     -22.690 -30.636 -28.183  1.00 39.09 LIG 0.19  C 
BRANCH 52 53
ATOM     53  CB  THR B   6     -21.973 -31.714 -27.327  1.00 66.99 LIG 0.14  C 
ATOM     54  CG2 THR B   6     -21.672 -32.950 -28.151  1.00 64.52 LIG 0.04  C 
BRANCH 53 55
ATOM     55 OG1  THR B   6     -20.732 -31.188 -26.817  1.00 68.32 LIG-0.39  OA
ATOM     56 HG1  THR B   6     -20.720 -30.354 -26.915  1.00 68.32 LIG 0.21  HD
ENDBRANCH 53 55
ENDBRANCH 52 53
BRANCH 52 57
ATOM     57  C   THR B   6     -23.443 -29.683 -27.244  1.00 46.48 LIG 0.22  C 
ATOM     58 O    THR B   6     -24.130 -28.755 -27.698  1.00 50.47 LIG-0.29  OA
ENDBRANCH 52 57
ENDBRANCH 50 52
ENDBRANCH 47 48
BRANCH 47 59
ATOM     59  CB  LEU B   5     -19.711 -29.239 -31.351  1.00 41.25 LIG 0.04  C 
BRANCH 59 60
ATOM     60  CG  LEU B   5     -19.985 -30.256 -32.448  1.00 47.99 LIG-0.02  C 
ATOM     61  CD2 LEU B   5     -19.850 -31.653 -31.910  1.00 50.88 LIG 0.01  C 
ATOM     62  CD1 LEU B   5     -18.983 -30.027 -33.560  1.00 54.72 LIG 0.01  C 
ENDBRANCH 59 60
ENDBRANCH 47 59
ENDBRANCH 45 47
ENDBRANCH 42 43
BRANCH 42 63
ATOM     63  CB  LEU B   4     -21.697 -25.656 -27.453  1.00 23.96 LIG 0.04  C 
BRANCH 63 64
ATOM     64  CG  LEU B   4     -21.477 -26.201 -26.059  1.00 38.52 LIG-0.02  C 
ATOM     65  CD1 LEU B   4     -22.606 -25.864 -25.155  1.00 46.71 LIG 0.01  C 
ATOM     66  CD2 LEU B   4     -21.242 -27.717 -26.156  1.00 36.33 LIG 0.01  C 
ENDBRANCH 63 64
ENDBRANCH 42 63
ENDBRANCH 39 42
ENDBRANCH 1 38
TORSDOF 26
ENDMDL
MODEL 52
USER: ADFR SOLUTION from run 129
USER: SCORE 21.727699 LL:  -4.381 LR: -18.733 RR:   0.000 FEB: -10.977
USER: RMSD 11.459293
USER: SEED 128
USER: STATUS no improvement in best in 5 clusters for 5 generations
USER: GENES 28
USER: genes 0 Translation |==|  0.59004 0.68010 0.35986
USER: genes 1 Rotation |==|  0.54641 0.58343 0.03191 0.64756
USER: genes 2 Torsion [C]-CA--N-[C] |==|  0.71783
USER: genes 3 Torsion [N]-C--CA-[N] |==|  0.47759
USER: genes 4 Torsion [C]-CA--CB-[CG] |==|  0.31977
USER: genes 5 Torsion [CA]-CB--CG-[CD] |==|  0.38153
USER: genes 6 Torsion [CB]-CG--CD-[NE] |==|  0.78091
USER: genes 7 Torsion [CG]-CD--NE-[HE] |==|  0.28939
USER: genes 8 Torsion [C]-CA--N-[C] |==|  0.66743
USER: genes 9 Torsion [N]-C--CA-[N] |==|  0.35189
USER: genes 10 Torsion [C]-CA--N-[H3] |==|  0.36949
USER: genes 11 Torsion [C]-CA--CB-[CG] |==|  0.25201
USER: genes 12 Torsion [CA]-CB--CG-[ND2] |==|  0.37118
USER: genes 13 Torsion [N]-CA--CB-[CG] |==|  0.72898
USER: genes 14 Torsion [CA]-CB--CG-[CD1] |==|  0.63843
USER: genes 15 Torsion [N]-CA--C-[N] |==|  0.96550
USER: genes 16 Torsion [C]-N--CA-[CB] |==|  0.49500
USER: genes 17 Torsion [N]-CA--C-[N] |==|  0.41137
USER: genes 18 Torsion [C]-N--CA-[C] |==|  0.57958
USER: genes 19 Torsion [N]-CA--C-[N] |==|  0.32778
USER: genes 20 Torsion [C]-N--CA-[C] |==|  0.80572
USER: genes 21 Torsion [N]-CA--CB-[CG2] |==|  0.27300
USER: genes 22 Torsion [CA]-CB--OG1-[HG1] |==|  0.47474
USER: genes 23 Torsion [N]-CA--C-[O] |==|  0.06728
USER: genes 24 Torsion [N]-CA--CB-[CG] |==|  0.13555
USER: genes 25 Torsion [CA]-CB--CG-[CD2] |==|  0.75557
USER: genes 26 Torsion [N]-CA--CB-[CG] |==|  0.69542
USER: genes 27 Torsion [CA]-CB--CG-[CD1] |==|  0.91104
ROOT
ATOM      1  CA  LEU B   3     -15.873 -18.414 -31.260  1.00 17.18 LIG 0.18  C 
ENDROOT
BRANCH 1 2
ATOM      2  N   LEU B   3     -15.365 -17.881 -30.052  1.00 21.09 LIG-0.35  N 
ATOM      3  C   ARG B   2     -16.101 -17.083 -29.283  1.00 20.79 LIG 0.24  C 
ATOM      4 O    ARG B   2     -17.298 -16.815 -29.516  1.00 18.81 LIG-0.27  OA
ATOM      5 H    LEU B   3     -14.558 -18.115 -29.869  1.00 21.09 LIG 0.16  HD
BRANCH 3 6
ATOM      6  CA  ARG B   2     -15.363 -16.438 -28.117  1.00 21.42 LIG 0.18  C 
BRANCH 6 7
ATOM      7  CB  ARG B   2     -14.861 -17.459 -27.090  1.00 36.36 LIG 0.04  C 
BRANCH 7 8
ATOM      8  CG  ARG B   2     -13.346 -17.497 -27.019  1.00 41.67 LIG 0.02  C 
BRANCH 8 9
ATOM      9  CD  ARG B   2     -12.809 -17.573 -25.589  1.00 51.14 LIG 0.14  C 
BRANCH 9 10
ATOM     10  NE  ARG B   2     -12.833 -16.257 -24.924  1.00 53.41 LIG-0.23  N 
ATOM     11 HE   ARG B   2     -13.451 -16.121 -24.342  1.00 53.41 LIG 0.18  HD
ATOM     12  CZ  ARG B   2     -11.972 -15.258 -25.150  1.00 50.83 LIG 0.67  C 
ATOM     13  NH1 ARG B   2     -10.994 -15.395 -26.037  1.00 40.00 LIG-0.23  N 
ATOM     14  NH2 ARG B   2     -12.102 -14.106 -24.489  1.00 54.23 LIG-0.23  N 
ATOM     15 1HH1 ARG B   2     -10.909 -16.132 -26.472  1.00 40.00 LIG 0.17  HD
ATOM     16 2HH1 ARG B   2     -10.445 -14.747 -26.176  1.00 40.00 LIG 0.17  HD
ATOM     17 1HH2 ARG B   2     -12.738 -14.007 -23.919  1.00 54.23 LIG 0.17  HD
ATOM     18 2HH2 ARG B   2     -11.550 -13.463 -24.634  1.00 54.23 LIG 0.17  HD
ENDBRANCH 9 10
ENDBRANCH 8 9
ENDBRANCH 7 8
ENDBRANCH 6 7
BRANCH 6 19
ATOM     19  N   ARG B   2     -16.250 -15.469 -27.511  1.00 29.89 LIG-0.35  N 
ATOM     20  C   ASN B   1     -15.912 -14.188 -27.460  1.00 39.87 LIG 0.25  C 
ATOM     21 O    ASN B   1     -14.745 -13.799 -27.606  1.00 37.46 LIG-0.27  OA
ATOM     22 H    ARG B   2     -16.985 -15.792 -27.202  1.00 29.89 LIG 0.16  HD
BRANCH 20 23
ATOM     23  CA  ASN B   1     -17.065 -13.203 -27.192  1.00 47.73 LIG 0.28  C 
BRANCH 23 24
ATOM     24  N   ASN B   1     -16.841 -12.307 -26.084  1.00 51.86 LIG-0.07  N 
ATOM     25 H3   ASN B   1     -17.048 -11.477 -26.327  1.00 51.86 LIG 0.28  HD
ATOM     26 H1   ASN B   1     -17.352 -12.551 -25.397  1.00 51.86 LIG 0.28  HD
ATOM     27 H2   ASN B   1     -15.985 -12.341 -25.843  1.00 51.86 LIG 0.28  HD
ENDBRANCH 23 24
BRANCH 23 28
ATOM     28  CB  ASN B   1     -17.407 -12.361 -28.403  1.00 49.79 LIG 0.14  C 
BRANCH 28 29
ATOM     29  CG  ASN B   1     -18.471 -13.020 -29.248  1.00 59.47 LIG 0.22  C 
ATOM     30  ND2 ASN B   1     -19.482 -12.246 -29.658  1.00 63.81 LIG-0.37  N 
ATOM     31 21HD ASN B   1     -20.121 -12.584 -30.122  1.00 63.81 LIG 0.16  HD
ATOM     32 22HD ASN B   1     -19.491 -11.410 -29.458  1.00 63.81 LIG 0.16  HD
ATOM     33 OD1  ASN B   1     -18.407 -14.219 -29.506  1.00 60.25 LIG-0.27  OA
ENDBRANCH 28 29
ENDBRANCH 23 28
ENDBRANCH 20 23
ENDBRANCH 6 19
ENDBRANCH 3 6
ENDBRANCH 1 2
BRANCH 1 34
ATOM     34  CB  LEU B   3     -14.825 -18.243 -32.395  1.00 28.79 LIG 0.04  C 
BRANCH 34 35
ATOM     35  CG  LEU B   3     -15.121 -17.004 -33.247  1.00 33.15 LIG-0.02  C 
ATOM     36  CD2 LEU B   3     -16.453 -16.405 -32.816  1.00 30.13 LIG 0.01  C 
ATOM     37  CD1 LEU B   3     -15.128 -17.272 -34.782  1.00 27.67 LIG 0.01  C 
ENDBRANCH 34 35
ENDBRANCH 1 34
BRANCH 1 38
ATOM     38  C   LEU B   3     -16.307 -19.855 -31.108  1.00 20.33 LIG 0.24  C 
ATOM     39  N   LEU B   4     -15.919 -20.461 -29.990  1.00 23.83 LIG-0.35  N 
ATOM     40 H    LEU B   4     -15.451 -20.087 -29.373  1.00 23.83 LIG 0.16  HD
ATOM     41 O    LEU B   3     -16.983 -20.417 -31.964  1.00 22.70 LIG-0.27  OA
BRANCH 39 42
ATOM     42  CA  LEU B   4     -16.274 -21.851 -29.730  1.00 22.91 LIG 0.18  C 
BRANCH 42 43
ATOM     43  C   LEU B   4     -17.796 -21.942 -29.581  1.00 30.74 LIG 0.24  C 
ATOM     44 O    LEU B   4     -18.461 -20.996 -29.071  1.00 30.11 LIG-0.27  OA
ATOM     45  N   LEU B   5     -18.375 -23.067 -29.979  1.00 32.41 LIG-0.35  N 
ATOM     46 H    LEU B   5     -17.985 -23.713 -30.391  1.00 32.41 LIG 0.16  HD
BRANCH 45 47
ATOM     47  CA  LEU B   5     -19.807 -23.247 -29.706  1.00 35.50 LIG 0.18  C 
BRANCH 47 48
ATOM     48  C   LEU B   5     -20.141 -24.727 -29.559  1.00 33.38 LIG 0.24  C 
ATOM     49 O    LEU B   5     -19.976 -25.525 -30.507  1.00 25.58 LIG-0.27  OA
ATOM     50  N   THR B   6     -20.614 -25.070 -28.365  1.00 32.99 LIG-0.34  N 
ATOM     51 H    THR B   6     -20.589 -24.544 -27.686  1.00 32.99 LIG 0.16  HD
BRANCH 50 52
ATOM     52  CA  THR B   6     -21.222 -26.361 -28.072  1.00 39.09 LIG 0.19  C 
BRANCH 52 53
ATOM     53  CB  THR B   6     -21.454 -26.524 -26.545  1.00 66.99 LIG 0.14  C 
ATOM     54  CG2 THR B   6     -22.888 -26.197 -26.176  1.00 64.52 LIG 0.04  C 
BRANCH 53 55
ATOM     55 OG1  THR B   6     -21.176 -27.882 -26.151  1.00 68.32 LIG-0.39  OA
ATOM     56 HG1  THR B   6     -21.182 -27.938 -25.313  1.00 68.32 LIG 0.21  HD
ENDBRANCH 53 55
ENDBRANCH 52 53
BRANCH 52 57
ATOM     57  C   THR B   6     -22.578 -26.442 -28.786  1.00 46.48 LIG 0.22  C 
ATOM     58 O    THR B   6     -22.807 -25.754 -29.794  1.00 50.47 LIG-0.29  OA
ENDBRANCH 52 57
ENDBRANCH 50 52
ENDBRANCH 47 48
BRANCH 47 59
ATOM     59  CB  LEU B   5     -20.659 -22.671 -30.830  1.00 41.25 LIG 0.04  C 
BRANCH 59 60
ATOM     60  CG  LEU B   5     -20.303 -23.047 -32.260  1.00 47.99 LIG-0.02  C 
ATOM     61  CD2 LEU B   5     -19.285 -22.089 -32.814  1.00 50.88 LIG 0.01  C 
ATOM     62  CD1 LEU B   5     -21.571 -22.996 -33.087  1.00 54.72 LIG 0.01  C 
ENDBRANCH 59 60
ENDBRANCH 47 59
ENDBRANCH 45 47
ENDBRANCH 42 43
BRANCH 42 63
ATOM     63  CB  LEU B   4     -15.646 -22.245 -28.408  1.00 23.96 LIG 0.04  C 
BRANCH 63 64
ATOM     64  CG  LEU B   4     -14.485 -23.209 -28.295  1.00 38.52 LIG-0.02  C 
ATOM     65  CD1 LEU B   4     -14.526 -24.242 -29.361  1.00 46.71 LIG 0.01  C 
ATOM     66  CD2 LEU B   4     -13.175 -22.406 -28.314  1.00 36.33 LIG 0.01  C 
ENDBRANCH 63 64
ENDBRANCH 42 63
ENDBRANCH 39 42
ENDBRANCH 1 38
TORSDOF 26
ENDMDL
MODEL 53
USER: ADFR SOLUTION from run 6
USER: SCORE 21.100434 LL:  -4.143 LR: -18.716 RR:   0.000 FEB: -10.960
USER: RMSD 11.616579
USER: SEED 55589
USER: STATUS searching
USER: GENES 28
USER: genes 0 Translation |==|  0.55229 0.54212 0.40870
USER: genes 1 Rotation |==|  0.23885 0.82488 0.77591 0.51108
USER: genes 2 Torsion [C]-CA--N-[C] |==|  0.67463
USER: genes 3 Torsion [N]-C--CA-[N] |==|  0.18355
USER: genes 4 Torsion [C]-CA--CB-[CG] |==|  0.69516
USER: genes 5 Torsion [CA]-CB--CG-[CD] |==|  0.21837
USER: genes 6 Torsion [CB]-CG--CD-[NE] |==|  0.31385
USER: genes 7 Torsion [CG]-CD--NE-[HE] |==|  0.73902
USER: genes 8 Torsion [C]-CA--N-[C] |==|  0.74586
USER: genes 9 Torsion [N]-C--CA-[N] |==|  0.84409
USER: genes 10 Torsion [C]-CA--N-[H3] |==|  0.43700
USER: genes 11 Torsion [C]-CA--CB-[CG] |==|  0.43683
USER: genes 12 Torsion [CA]-CB--CG-[ND2] |==|  0.63784
USER: genes 13 Torsion [N]-CA--CB-[CG] |==|  0.78923
USER: genes 14 Torsion [CA]-CB--CG-[CD1] |==|  0.44599
USER: genes 15 Torsion [N]-CA--C-[N] |==|  0.27324
USER: genes 16 Torsion [C]-N--CA-[CB] |==|  0.79444
USER: genes 17 Torsion [N]-CA--C-[N] |==|  0.58276
USER: genes 18 Torsion [C]-N--CA-[C] |==|  0.68422
USER: genes 19 Torsion [N]-CA--C-[N] |==|  0.42107
USER: genes 20 Torsion [C]-N--CA-[C] |==|  0.74284
USER: genes 21 Torsion [N]-CA--CB-[CG2] |==|  0.61556
USER: genes 22 Torsion [CA]-CB--OG1-[HG1] |==|  0.78340
USER: genes 23 Torsion [N]-CA--C-[O] |==|  0.81611
USER: genes 24 Torsion [N]-CA--CB-[CG] |==|  0.97604
USER: genes 25 Torsion [CA]-CB--CG-[CD2] |==|  0.62904
USER: genes 26 Torsion [N]-CA--CB-[CG] |==|  0.64166
USER: genes 27 Torsion [CA]-CB--CG-[CD1] |==|  0.66925
ROOT
ATOM      1  CA  LEU B   3     -16.808 -21.828 -30.234  1.00 17.18 LIG 0.18  C 
ENDROOT
BRANCH 1 2
ATOM      2  N   LEU B   3     -16.533 -20.441 -30.259  1.00 21.09 LIG-0.35  N 
ATOM      3  C   ARG B   2     -15.656 -19.924 -31.115  1.00 20.79 LIG 0.24  C 
ATOM      4 O    ARG B   2     -15.082 -20.591 -32.000  1.00 18.81 LIG-0.27  OA
ATOM      5 H    LEU B   3     -16.974 -19.979 -29.683  1.00 21.09 LIG 0.16  HD
BRANCH 3 6
ATOM      6  CA  ARG B   2     -15.325 -18.452 -30.901  1.00 21.42 LIG 0.18  C 
BRANCH 6 7
ATOM      7  CB  ARG B   2     -14.504 -17.852 -32.047  1.00 36.36 LIG 0.04  C 
BRANCH 7 8
ATOM      8  CG  ARG B   2     -13.077 -17.551 -31.629  1.00 41.67 LIG 0.02  C 
BRANCH 8 9
ATOM      9  CD  ARG B   2     -12.182 -18.791 -31.597  1.00 51.14 LIG 0.14  C 
BRANCH 9 10
ATOM     10  NE  ARG B   2     -11.137 -18.739 -32.636  1.00 53.41 LIG-0.23  N 
ATOM     11 HE   ARG B   2     -11.307 -19.122 -33.386  1.00 53.41 LIG 0.18  HD
ATOM     12  CZ  ARG B   2      -9.944 -18.145 -32.508  1.00 50.83 LIG 0.67  C 
ATOM     13  NH1 ARG B   2      -9.611 -17.536 -31.377  1.00 40.00 LIG-0.23  N 
ATOM     14  NH2 ARG B   2      -9.076 -18.172 -33.520  1.00 54.23 LIG-0.23  N 
ATOM     15 1HH1 ARG B   2     -10.163 -17.520 -30.718  1.00 40.00 LIG 0.17  HD
ATOM     16 2HH1 ARG B   2      -8.842 -17.157 -31.303  1.00 40.00 LIG 0.17  HD
ATOM     17 1HH2 ARG B   2      -9.282 -18.572 -34.253  1.00 54.23 LIG 0.17  HD
ATOM     18 2HH2 ARG B   2      -8.310 -17.791 -33.439  1.00 54.23 LIG 0.17  HD
ENDBRANCH 9 10
ENDBRANCH 8 9
ENDBRANCH 7 8
ENDBRANCH 6 7
BRANCH 6 19
ATOM     19  N   ARG B   2     -14.636 -18.331 -29.635  1.00 29.89 LIG-0.35  N 
ATOM     20  C   ASN B   1     -15.314 -18.098 -28.519  1.00 39.87 LIG 0.25  C 
ATOM     21 O    ASN B   1     -16.470 -17.655 -28.521  1.00 37.46 LIG-0.27  OA
ATOM     22 H    ARG B   2     -13.781 -18.422 -29.677  1.00 29.89 LIG 0.16  HD
BRANCH 20 23
ATOM     23  CA  ASN B   1     -14.566 -18.401 -27.208  1.00 47.73 LIG 0.28  C 
BRANCH 23 24
ATOM     24  N   ASN B   1     -14.071 -19.751 -27.099  1.00 51.86 LIG-0.07  N 
ATOM     25 H3   ASN B   1     -13.399 -19.775 -26.517  1.00 51.86 LIG 0.28  HD
ATOM     26 H1   ASN B   1     -14.725 -20.285 -26.819  1.00 51.86 LIG 0.28  HD
ATOM     27 H2   ASN B   1     -13.784 -20.026 -27.895  1.00 51.86 LIG 0.28  HD
ENDBRANCH 23 24
BRANCH 23 28
ATOM     28  CB  ASN B   1     -13.401 -17.463 -26.970  1.00 49.79 LIG 0.14  C 
BRANCH 28 29
ATOM     29  CG  ASN B   1     -13.041 -17.393 -25.505  1.00 59.47 LIG 0.22  C 
ATOM     30  ND2 ASN B   1     -12.910 -16.173 -24.973  1.00 63.81 LIG-0.37  N 
ATOM     31 21HD ASN B   1     -12.685 -16.086 -24.148  1.00 63.81 LIG 0.16  HD
ATOM     32 22HD ASN B   1     -13.053 -15.476 -25.456  1.00 63.81 LIG 0.16  HD
ATOM     33 OD1  ASN B   1     -12.850 -18.421 -24.861  1.00 60.25 LIG-0.27  OA
ENDBRANCH 28 29
ENDBRANCH 23 28
ENDBRANCH 20 23
ENDBRANCH 6 19
ENDBRANCH 3 6
ENDBRANCH 1 2
BRANCH 1 34
ATOM     34  CB  LEU B   3     -16.413 -22.422 -28.853  1.00 28.79 LIG 0.04  C 
BRANCH 34 35
ATOM     35  CG  LEU B   3     -14.894 -22.581 -28.726  1.00 33.15 LIG-0.02  C 
ATOM     36  CD2 LEU B   3     -14.448 -23.790 -29.536  1.00 30.13 LIG 0.01  C 
ATOM     37  CD1 LEU B   3     -14.386 -22.705 -27.259  1.00 27.67 LIG 0.01  C 
ENDBRANCH 34 35
ENDBRANCH 1 34
BRANCH 1 38
ATOM     38  C   LEU B   3     -18.249 -22.129 -30.583  1.00 20.33 LIG 0.24  C 
ATOM     39  N   LEU B   4     -18.477 -22.492 -31.841  1.00 23.83 LIG-0.35  N 
ATOM     40 H    LEU B   4     -17.867 -22.562 -32.443  1.00 23.83 LIG 0.16  HD
ATOM     41 O    LEU B   3     -19.144 -22.048 -29.746  1.00 22.70 LIG-0.27  OA
BRANCH 39 42
ATOM     42  CA  LEU B   4     -19.825 -22.806 -32.298  1.00 22.91 LIG 0.18  C 
BRANCH 42 43
ATOM     43  C   LEU B   4     -20.787 -21.763 -31.721  1.00 30.74 LIG 0.24  C 
ATOM     44 O    LEU B   4     -20.396 -20.591 -31.452  1.00 30.11 LIG-0.27  OA
ATOM     45  N   LEU B   5     -22.032 -22.154 -31.488  1.00 32.41 LIG-0.35  N 
ATOM     46 H    LEU B   5     -22.370 -22.913 -31.710  1.00 32.41 LIG 0.16  HD
BRANCH 45 47
ATOM     47  CA  LEU B   5     -22.934 -21.227 -30.791  1.00 35.50 LIG 0.18  C 
BRANCH 47 48
ATOM     48  C   LEU B   5     -23.312 -21.777 -29.421  1.00 33.38 LIG 0.24  C 
ATOM     49 O    LEU B   5     -23.349 -23.009 -29.206  1.00 25.58 LIG-0.27  OA
ATOM     50  N   THR B   6     -23.594 -20.850 -28.511  1.00 32.99 LIG-0.34  N 
ATOM     51 H    THR B   6     -23.429 -20.015 -28.632  1.00 32.99 LIG 0.16  HD
BRANCH 50 52
ATOM     52  CA  THR B   6     -24.207 -21.136 -27.222  1.00 39.09 LIG 0.19  C 
BRANCH 52 53
ATOM     53  CB  THR B   6     -23.708 -20.136 -26.143  1.00 66.99 LIG 0.14  C 
ATOM     54  CG2 THR B   6     -23.429 -20.846 -24.833  1.00 64.52 LIG 0.04  C 
BRANCH 53 55
ATOM     55 OG1  THR B   6     -22.494 -19.501 -26.590  1.00 68.32 LIG-0.39  OA
ATOM     56 HG1  THR B   6     -21.847 -20.027 -26.487  1.00 68.32 LIG 0.21  HD
ENDBRANCH 53 55
ENDBRANCH 52 53
BRANCH 52 57
ATOM     57  C   THR B   6     -25.730 -20.993 -27.357  1.00 46.48 LIG 0.22  C 
ATOM     58 O    THR B   6     -26.246 -19.889 -27.587  1.00 50.47 LIG-0.29  OA
ENDBRANCH 52 57
ENDBRANCH 50 52
ENDBRANCH 47 48
BRANCH 47 59
ATOM     59  CB  LEU B   5     -24.213 -21.000 -31.588  1.00 41.25 LIG 0.04  C 
BRANCH 59 60
ATOM     60  CG  LEU B   5     -24.284 -21.559 -32.999  1.00 47.99 LIG-0.02  C 
ATOM     61  CD2 LEU B   5     -24.824 -20.523 -33.945  1.00 50.88 LIG 0.01  C 
ATOM     62  CD1 LEU B   5     -25.193 -22.770 -32.979  1.00 54.72 LIG 0.01  C 
ENDBRANCH 59 60
ENDBRANCH 47 59
ENDBRANCH 45 47
ENDBRANCH 42 43
BRANCH 42 63
ATOM     63  CB  LEU B   4     -20.199 -24.159 -31.728  1.00 23.96 LIG 0.04  C 
BRANCH 63 64
ATOM     64  CG  LEU B   4     -20.742 -25.293 -32.570  1.00 38.52 LIG-0.02  C 
ATOM     65  CD1 LEU B   4     -22.102 -25.697 -32.134  1.00 46.71 LIG 0.01  C 
ATOM     66  CD2 LEU B   4     -20.708 -24.869 -34.047  1.00 36.33 LIG 0.01  C 
ENDBRANCH 63 64
ENDBRANCH 42 63
ENDBRANCH 39 42
ENDBRANCH 1 38
TORSDOF 26
ENDMDL
MODEL 54
USER: ADFR SOLUTION from run 99
USER: SCORE 22.374813 LL:  -4.484 LR: -18.714 RR:   0.000 FEB: -10.958
USER: RMSD 11.434485
USER: SEED 98
USER: STATUS no improvement in best in 11 clusters for 5 generations
USER: GENES 28
USER: genes 0 Translation |==|  0.58913 0.55953 0.42813
USER: genes 1 Rotation |==|  0.34159 0.71174 0.91931 0.56520
USER: genes 2 Torsion [C]-CA--N-[C] |==|  0.80863
USER: genes 3 Torsion [N]-C--CA-[N] |==|  0.36827
USER: genes 4 Torsion [C]-CA--CB-[CG] |==|  0.50554
USER: genes 5 Torsion [CA]-CB--CG-[CD] |==|  0.79921
USER: genes 6 Torsion [CB]-CG--CD-[NE] |==|  0.53200
USER: genes 7 Torsion [CG]-CD--NE-[HE] |==|  0.25631
USER: genes 8 Torsion [C]-CA--N-[C] |==|  0.60670
USER: genes 9 Torsion [N]-C--CA-[N] |==|  0.55264
USER: genes 10 Torsion [C]-CA--N-[H3] |==|  0.53213
USER: genes 11 Torsion [C]-CA--CB-[CG] |==|  0.82715
USER: genes 12 Torsion [CA]-CB--CG-[ND2] |==|  0.65833
USER: genes 13 Torsion [N]-CA--CB-[CG] |==|  0.07557
USER: genes 14 Torsion [CA]-CB--CG-[CD1] |==|  0.17007
USER: genes 15 Torsion [N]-CA--C-[N] |==|  0.48333
USER: genes 16 Torsion [C]-N--CA-[CB] |==|  0.52243
USER: genes 17 Torsion [N]-CA--C-[N] |==|  0.46282
USER: genes 18 Torsion [C]-N--CA-[C] |==|  0.82981
USER: genes 19 Torsion [N]-CA--C-[N] |==|  0.93440
USER: genes 20 Torsion [C]-N--CA-[C] |==|  0.53463
USER: genes 21 Torsion [N]-CA--CB-[CG2] |==|  0.32965
USER: genes 22 Torsion [CA]-CB--OG1-[HG1] |==|  0.79613
USER: genes 23 Torsion [N]-CA--C-[O] |==|  0.14138
USER: genes 24 Torsion [N]-CA--CB-[CG] |==|  0.86641
USER: genes 25 Torsion [CA]-CB--CG-[CD2] |==|  0.23534
USER: genes 26 Torsion [N]-CA--CB-[CG] |==|  0.80537
USER: genes 27 Torsion [CA]-CB--CG-[CD1] |==|  0.51046
ROOT
ATOM      1  CA  LEU B   3     -15.896 -21.398 -29.826  1.00 17.18 LIG 0.18  C 
ENDROOT
BRANCH 1 2
ATOM      2  N   LEU B   3     -15.283 -20.387 -29.049  1.00 21.09 LIG-0.35  N 
ATOM      3  C   ARG B   2     -15.424 -19.099 -29.352  1.00 20.79 LIG 0.24  C 
ATOM      4 O    ARG B   2     -16.158 -18.685 -30.274  1.00 18.81 LIG-0.27  OA
ATOM      5 H    LEU B   3     -14.824 -20.677 -28.382  1.00 21.09 LIG 0.16  HD
BRANCH 3 6
ATOM      6  CA  ARG B   2     -14.559 -18.140 -28.544  1.00 21.42 LIG 0.18  C 
BRANCH 6 7
ATOM      7  CB  ARG B   2     -15.346 -17.395 -27.461  1.00 36.36 LIG 0.04  C 
BRANCH 7 8
ATOM      8  CG  ARG B   2     -14.477 -16.411 -26.702  1.00 41.67 LIG 0.02  C 
BRANCH 8 9
ATOM      9  CD  ARG B   2     -13.484 -17.086 -25.754  1.00 51.14 LIG 0.14  C 
BRANCH 9 10
ATOM     10  NE  ARG B   2     -12.852 -16.117 -24.841  1.00 53.41 LIG-0.23  N 
ATOM     11 HE   ARG B   2     -13.227 -15.993 -24.077  1.00 53.41 LIG 0.18  HD
ATOM     12  CZ  ARG B   2     -11.743 -15.414 -25.100  1.00 50.83 LIG 0.67  C 
ATOM     13  NH1 ARG B   2     -11.112 -15.552 -26.260  1.00 40.00 LIG-0.23  N 
ATOM     14  NH2 ARG B   2     -11.270 -14.558 -24.193  1.00 54.23 LIG-0.23  N 
ATOM     15 1HH1 ARG B   2     -11.415 -16.096 -26.852  1.00 40.00 LIG 0.17  HD
ATOM     16 2HH1 ARG B   2     -10.400 -15.096 -26.418  1.00 40.00 LIG 0.17  HD
ATOM     17 1HH2 ARG B   2     -11.678 -14.458 -23.442  1.00 54.23 LIG 0.17  HD
ATOM     18 2HH2 ARG B   2     -10.558 -14.107 -24.358  1.00 54.23 LIG 0.17  HD
ENDBRANCH 9 10
ENDBRANCH 8 9
ENDBRANCH 7 8
ENDBRANCH 6 7
BRANCH 6 19
ATOM     19  N   ARG B   2     -13.930 -17.223 -29.469  1.00 29.89 LIG-0.35  N 
ATOM     20  C   ASN B   1     -12.678 -16.830 -29.279  1.00 39.87 LIG 0.25  C 
ATOM     21 O    ASN B   1     -12.102 -16.939 -28.189  1.00 37.46 LIG-0.27  OA
ATOM     22 H    ARG B   2     -14.427 -16.969 -30.124  1.00 29.89 LIG 0.16  HD
BRANCH 20 23
ATOM     23  CA  ASN B   1     -11.979 -16.212 -30.505  1.00 47.73 LIG 0.28  C 
BRANCH 23 24
ATOM     24  N   ASN B   1     -10.539 -16.190 -30.424  1.00 51.86 LIG-0.07  N 
ATOM     25 H3   ASN B   1     -10.213 -15.677 -31.074  1.00 51.86 LIG 0.28  HD
ATOM     26 H1   ASN B   1     -10.291 -15.861 -29.635  1.00 51.86 LIG 0.28  HD
ATOM     27 H2   ASN B   1     -10.224 -17.017 -30.513  1.00 51.86 LIG 0.28  HD
ENDBRANCH 23 24
BRANCH 23 28
ATOM     28  CB  ASN B   1     -12.357 -16.900 -31.800  1.00 49.79 LIG 0.14  C 
BRANCH 28 29
ATOM     29  CG  ASN B   1     -11.934 -18.350 -31.796  1.00 59.47 LIG 0.22  C 
ATOM     30  ND2 ASN B   1     -11.126 -18.746 -32.786  1.00 63.81 LIG-0.37  N 
ATOM     31 21HD ASN B   1     -10.879 -19.568 -32.836  1.00 63.81 LIG 0.16  HD
ATOM     32 22HD ASN B   1     -10.854 -18.178 -33.372  1.00 63.81 LIG 0.16  HD
ATOM     33 OD1  ASN B   1     -12.352 -19.118 -30.934  1.00 60.25 LIG-0.27  OA
ENDBRANCH 28 29
ENDBRANCH 23 28
ENDBRANCH 20 23
ENDBRANCH 6 19
ENDBRANCH 3 6
ENDBRANCH 1 2
BRANCH 1 34
ATOM     34  CB  LEU B   3     -15.290 -22.783 -29.465  1.00 28.79 LIG 0.04  C 
BRANCH 34 35
ATOM     35  CG  LEU B   3     -14.763 -22.804 -28.026  1.00 33.15 LIG-0.02  C 
ATOM     36  CD2 LEU B   3     -14.075 -24.137 -27.764  1.00 30.13 LIG 0.01  C 
ATOM     37  CD1 LEU B   3     -15.853 -22.545 -26.943  1.00 27.67 LIG 0.01  C 
ENDBRANCH 34 35
ENDBRANCH 1 34
BRANCH 1 38
ATOM     38  C   LEU B   3     -17.402 -21.390 -29.684  1.00 20.33 LIG 0.24  C 
ATOM     39  N   LEU B   4     -18.063 -22.228 -30.477  1.00 23.83 LIG-0.35  N 
ATOM     40 H    LEU B   4     -17.689 -22.754 -31.044  1.00 23.83 LIG 0.16  HD
ATOM     41 O    LEU B   3     -17.968 -20.658 -28.877  1.00 22.70 LIG-0.27  OA
BRANCH 39 42
ATOM     42  CA  LEU B   4     -19.518 -22.311 -30.433  1.00 22.91 LIG 0.18  C 
BRANCH 42 43
ATOM     43  C   LEU B   4     -19.943 -22.604 -28.991  1.00 30.74 LIG 0.24  C 
ATOM     44 O    LEU B   4     -19.108 -23.009 -28.133  1.00 30.11 LIG-0.27  OA
ATOM     45  N   LEU B   5     -21.226 -22.447 -28.696  1.00 32.41 LIG-0.35  N 
ATOM     46 H    LEU B   5     -21.824 -22.115 -29.217  1.00 32.41 LIG 0.16  HD
BRANCH 45 47
ATOM     47  CA  LEU B   5     -21.692 -22.870 -27.369  1.00 35.50 LIG 0.18  C 
BRANCH 47 48
ATOM     48  C   LEU B   5     -21.468 -24.365 -27.174  1.00 33.38 LIG 0.24  C 
ATOM     49 O    LEU B   5     -21.365 -24.861 -26.031  1.00 25.58 LIG-0.27  OA
ATOM     50  N   THR B   6     -21.390 -25.064 -28.302  1.00 32.99 LIG-0.34  N 
ATOM     51 H    THR B   6     -21.601 -24.735 -29.069  1.00 32.99 LIG 0.16  HD
BRANCH 50 52
ATOM     52  CA  THR B   6     -20.943 -26.448 -28.372  1.00 39.09 LIG 0.19  C 
BRANCH 52 53
ATOM     53  CB  THR B   6     -22.027 -27.404 -27.805  1.00 66.99 LIG 0.14  C 
ATOM     54  CG2 THR B   6     -22.504 -28.375 -28.868  1.00 64.52 LIG 0.04  C 
BRANCH 53 55
ATOM     55 OG1  THR B   6     -21.486 -28.159 -26.704  1.00 68.32 LIG-0.39  OA
ATOM     56 HG1  THR B   6     -20.956 -28.742 -26.996  1.00 68.32 LIG 0.21  HD
ENDBRANCH 53 55
ENDBRANCH 52 53
BRANCH 52 57
ATOM     57  C   THR B   6     -20.688 -26.811 -29.842  1.00 46.48 LIG 0.22  C 
ATOM     58 O    THR B   6     -19.978 -26.090 -30.560  1.00 50.47 LIG-0.29  OA
ENDBRANCH 52 57
ENDBRANCH 50 52
ENDBRANCH 47 48
BRANCH 47 59
ATOM     59  CB  LEU B   5     -23.177 -22.578 -27.188  1.00 41.25 LIG 0.04  C 
BRANCH 59 60
ATOM     60  CG  LEU B   5     -23.684 -21.196 -27.565  1.00 47.99 LIG-0.02  C 
ATOM     61  CD2 LEU B   5     -23.986 -21.134 -29.037  1.00 50.88 LIG 0.01  C 
ATOM     62  CD1 LEU B   5     -22.609 -20.189 -27.211  1.00 54.72 LIG 0.01  C 
ENDBRANCH 59 60
ENDBRANCH 47 59
ENDBRANCH 45 47
ENDBRANCH 42 43
BRANCH 42 63
ATOM     63  CB  LEU B   4     -19.937 -23.483 -31.297  1.00 23.96 LIG 0.04  C 
BRANCH 63 64
ATOM     64  CG  LEU B   4     -19.821 -23.485 -32.805  1.00 38.52 LIG-0.02  C 
ATOM     65  CD1 LEU B   4     -20.387 -24.725 -33.396  1.00 46.71 LIG 0.01  C 
ATOM     66  CD2 LEU B   4     -20.499 -22.219 -33.352  1.00 36.33 LIG 0.01  C 
ENDBRANCH 63 64
ENDBRANCH 42 63
ENDBRANCH 39 42
ENDBRANCH 1 38
TORSDOF 26
ENDMDL
MODEL 55
USER: ADFR SOLUTION from run 19
USER: SCORE 22.495449 LL:  -4.503 LR: -18.687 RR:   0.000 FEB: -10.931
USER: RMSD 11.135344
USER: SEED 18
USER: STATUS no improvement in best in 9 clusters for 5 generations
USER: GENES 28
USER: genes 0 Translation |==|  0.55713 0.56621 0.46563
USER: genes 1 Rotation |==|  0.20741 0.79176 0.78121 0.51373
USER: genes 2 Torsion [C]-CA--N-[C] |==|  0.80926
USER: genes 3 Torsion [N]-C--CA-[N] |==|  0.11900
USER: genes 4 Torsion [C]-CA--CB-[CG] |==|  0.17352
USER: genes 5 Torsion [CA]-CB--CG-[CD] |==|  0.43839
USER: genes 6 Torsion [CB]-CG--CD-[NE] |==|  0.49511
USER: genes 7 Torsion [CG]-CD--NE-[HE] |==|  0.13930
USER: genes 8 Torsion [C]-CA--N-[C] |==|  0.70922
USER: genes 9 Torsion [N]-C--CA-[N] |==|  0.83805
USER: genes 10 Torsion [C]-CA--N-[H3] |==|  0.61709
USER: genes 11 Torsion [C]-CA--CB-[CG] |==|  0.47868
USER: genes 12 Torsion [CA]-CB--CG-[ND2] |==|  0.61579
USER: genes 13 Torsion [N]-CA--CB-[CG] |==|  0.67607
USER: genes 14 Torsion [CA]-CB--CG-[CD1] |==|  0.87707
USER: genes 15 Torsion [N]-CA--C-[N] |==|  0.44218
USER: genes 16 Torsion [C]-N--CA-[CB] |==|  0.87222
USER: genes 17 Torsion [N]-CA--C-[N] |==|  0.37220
USER: genes 18 Torsion [C]-N--CA-[C] |==|  0.84214
USER: genes 19 Torsion [N]-CA--C-[N] |==|  0.89874
USER: genes 20 Torsion [C]-N--CA-[C] |==|  0.59012
USER: genes 21 Torsion [N]-CA--CB-[CG2] |==|  0.41420
USER: genes 22 Torsion [CA]-CB--OG1-[HG1] |==|  0.58251
USER: genes 23 Torsion [N]-CA--C-[O] |==|  0.23885
USER: genes 24 Torsion [N]-CA--CB-[CG] |==|  0.19749
USER: genes 25 Torsion [CA]-CB--CG-[CD2] |==|  0.62178
USER: genes 26 Torsion [N]-CA--CB-[CG] |==|  0.65589
USER: genes 27 Torsion [CA]-CB--CG-[CD1] |==|  0.03786
ROOT
ATOM      1  CA  LEU B   3     -16.688 -21.232 -29.039  1.00 17.18 LIG 0.18  C 
ENDROOT
BRANCH 1 2
ATOM      2  N   LEU B   3     -16.620 -19.823 -28.925  1.00 21.09 LIG-0.35  N 
ATOM      3  C   ARG B   2     -16.647 -19.040 -30.000  1.00 20.79 LIG 0.24  C 
ATOM      4 O    ARG B   2     -16.815 -19.469 -31.161  1.00 18.81 LIG-0.27  OA
ATOM      5 H    LEU B   3     -16.561 -19.532 -28.118  1.00 21.09 LIG 0.16  HD
BRANCH 3 6
ATOM      6  CA  ARG B   2     -16.379 -17.564 -29.738  1.00 21.42 LIG 0.18  C 
BRANCH 6 7
ATOM      7  CB  ARG B   2     -16.098 -16.772 -31.020  1.00 36.36 LIG 0.04  C 
BRANCH 7 8
ATOM      8  CG  ARG B   2     -17.285 -16.777 -31.964  1.00 41.67 LIG 0.02  C 
BRANCH 8 9
ATOM      9  CD  ARG B   2     -17.275 -15.612 -32.955  1.00 51.14 LIG 0.14  C 
BRANCH 9 10
ATOM     10  NE  ARG B   2     -18.419 -15.672 -33.883  1.00 53.41 LIG-0.23  N 
ATOM     11 HE   ARG B   2     -19.201 -15.777 -33.539  1.00 53.41 LIG 0.18  HD
ATOM     12  CZ  ARG B   2     -18.344 -15.575 -35.216  1.00 50.83 LIG 0.67  C 
ATOM     13  NH1 ARG B   2     -17.172 -15.414 -35.816  1.00 40.00 LIG-0.23  N 
ATOM     14  NH2 ARG B   2     -19.455 -15.652 -35.952  1.00 54.23 LIG-0.23  N 
ATOM     15 1HH1 ARG B   2     -16.452 -15.371 -35.349  1.00 40.00 LIG 0.17  HD
ATOM     16 2HH1 ARG B   2     -17.133 -15.354 -36.674  1.00 40.00 LIG 0.17  HD
ATOM     17 1HH2 ARG B   2     -20.217 -15.764 -35.570  1.00 54.23 LIG 0.17  HD
ATOM     18 2HH2 ARG B   2     -19.408 -15.591 -36.807  1.00 54.23 LIG 0.17  HD
ENDBRANCH 9 10
ENDBRANCH 8 9
ENDBRANCH 7 8
ENDBRANCH 6 7
BRANCH 6 19
ATOM     19  N   ARG B   2     -15.277 -17.471 -28.805  1.00 29.89 LIG-0.35  N 
ATOM     20  C   ASN B   1     -15.496 -17.159 -27.535  1.00 39.87 LIG 0.25  C 
ATOM     21 O    ASN B   1     -16.544 -16.624 -27.150  1.00 37.46 LIG-0.27  OA
ATOM     22 H    ARG B   2     -14.501 -17.632 -29.142  1.00 29.89 LIG 0.16  HD
BRANCH 20 23
ATOM     23  CA  ASN B   1     -14.352 -17.492 -26.559  1.00 47.73 LIG 0.28  C 
BRANCH 23 24
ATOM     24  N   ASN B   1     -13.977 -18.884 -26.531  1.00 51.86 LIG-0.07  N 
ATOM     25 H3   ASN B   1     -13.842 -19.138 -25.688  1.00 51.86 LIG 0.28  HD
ATOM     26 H1   ASN B   1     -14.629 -19.375 -26.887  1.00 51.86 LIG 0.28  HD
ATOM     27 H2   ASN B   1     -13.229 -19.000 -26.999  1.00 51.86 LIG 0.28  HD
ENDBRANCH 23 24
BRANCH 23 28
ATOM     28  CB  ASN B   1     -13.100 -16.684 -26.829  1.00 49.79 LIG 0.14  C 
BRANCH 28 29
ATOM     29  CG  ASN B   1     -12.066 -16.895 -25.749  1.00 59.47 LIG 0.22  C 
ATOM     30  ND2 ASN B   1     -11.404 -15.811 -25.326  1.00 63.81 LIG-0.37  N 
ATOM     31 21HD ASN B   1     -10.791 -15.888 -24.729  1.00 63.81 LIG 0.16  HD
ATOM     32 22HD ASN B   1     -11.593 -15.039 -25.652  1.00 63.81 LIG 0.16  HD
ATOM     33 OD1  ASN B   1     -11.837 -18.021 -25.317  1.00 60.25 LIG-0.27  OA
ENDBRANCH 28 29
ENDBRANCH 23 28
ENDBRANCH 20 23
ENDBRANCH 6 19
ENDBRANCH 3 6
ENDBRANCH 1 2
BRANCH 1 34
ATOM     34  CB  LEU B   3     -16.296 -21.891 -27.687  1.00 28.79 LIG 0.04  C 
BRANCH 34 35
ATOM     35  CG  LEU B   3     -15.024 -22.736 -27.824  1.00 33.15 LIG-0.02  C 
ATOM     36  CD2 LEU B   3     -13.808 -21.819 -27.804  1.00 30.13 LIG 0.01  C 
ATOM     37  CD1 LEU B   3     -14.991 -23.637 -29.094  1.00 27.67 LIG 0.01  C 
ENDBRANCH 34 35
ENDBRANCH 1 34
BRANCH 1 38
ATOM     38  C   LEU B   3     -18.045 -21.700 -29.518  1.00 20.33 LIG 0.24  C 
ATOM     39  N   LEU B   4     -18.082 -22.914 -30.057  1.00 23.83 LIG-0.35  N 
ATOM     40 H    LEU B   4     -17.397 -23.427 -30.143  1.00 23.83 LIG 0.16  HD
ATOM     41 O    LEU B   3     -19.045 -20.997 -29.402  1.00 22.70 LIG-0.27  OA
BRANCH 39 42
ATOM     42  CA  LEU B   4     -19.332 -23.475 -30.556  1.00 22.91 LIG 0.18  C 
BRANCH 42 43
ATOM     43  C   LEU B   4     -19.725 -22.720 -31.830  1.00 30.74 LIG 0.24  C 
ATOM     44 O    LEU B   4     -19.709 -21.457 -31.873  1.00 30.11 LIG-0.27  OA
ATOM     45  N   LEU B   5     -20.114 -23.449 -32.868  1.00 32.41 LIG-0.35  N 
ATOM     46 H    LEU B   5     -20.083 -24.306 -32.918  1.00 32.41 LIG 0.16  HD
BRANCH 45 47
ATOM     47  CA  LEU B   5     -20.646 -22.753 -34.046  1.00 35.50 LIG 0.18  C 
BRANCH 47 48
ATOM     48  C   LEU B   5     -21.833 -21.879 -33.661  1.00 33.38 LIG 0.24  C 
ATOM     49 O    LEU B   5     -22.023 -20.768 -34.204  1.00 25.58 LIG-0.27  OA
ATOM     50  N   THR B   6     -22.617 -22.395 -32.719  1.00 32.99 LIG-0.34  N 
ATOM     51 H    THR B   6     -22.555 -23.212 -32.459  1.00 32.99 LIG 0.16  HD
BRANCH 50 52
ATOM     52  CA  THR B   6     -23.657 -21.647 -32.027  1.00 39.09 LIG 0.19  C 
BRANCH 52 53
ATOM     53  CB  THR B   6     -25.027 -21.824 -32.737  1.00 66.99 LIG 0.14  C 
ATOM     54  CG2 THR B   6     -26.168 -21.746 -31.743  1.00 64.52 LIG 0.04  C 
BRANCH 53 55
ATOM     55 OG1  THR B   6     -25.204 -20.788 -33.723  1.00 68.32 LIG-0.39  OA
ATOM     56 HG1  THR B   6     -26.022 -20.620 -33.809  1.00 68.32 LIG 0.21  HD
ENDBRANCH 53 55
ENDBRANCH 52 53
BRANCH 52 57
ATOM     57  C   THR B   6     -23.776 -22.179 -30.592  1.00 46.48 LIG 0.22  C 
ATOM     58 O    THR B   6     -23.046 -21.740 -29.689  1.00 50.47 LIG-0.29  OA
ENDBRANCH 52 57
ENDBRANCH 50 52
ENDBRANCH 47 48
BRANCH 47 59
ATOM     59  CB  LEU B   5     -21.103 -23.743 -35.111  1.00 41.25 LIG 0.04  C 
BRANCH 59 60
ATOM     60  CG  LEU B   5     -22.359 -24.554 -34.839  1.00 47.99 LIG-0.02  C 
ATOM     61  CD2 LEU B   5     -22.148 -25.991 -35.230  1.00 50.88 LIG 0.01  C 
ATOM     62  CD1 LEU B   5     -23.489 -23.954 -35.649  1.00 54.72 LIG 0.01  C 
ENDBRANCH 59 60
ENDBRANCH 47 59
ENDBRANCH 45 47
ENDBRANCH 42 43
BRANCH 42 63
ATOM     63  CB  LEU B   4     -20.398 -23.224 -29.510  1.00 23.96 LIG 0.04  C 
BRANCH 63 64
ATOM     64  CG  LEU B   4     -21.228 -24.326 -28.890  1.00 38.52 LIG-0.02  C 
ATOM     65  CD1 LEU B   4     -20.660 -25.667 -29.178  1.00 46.71 LIG 0.01  C 
ATOM     66  CD2 LEU B   4     -21.352 -24.060 -27.381  1.00 36.33 LIG 0.01  C 
ENDBRANCH 63 64
ENDBRANCH 42 63
ENDBRANCH 39 42
ENDBRANCH 1 38
TORSDOF 26
ENDMDL
MODEL 56
USER: ADFR SOLUTION from run 6
USER: SCORE 21.937727 LL:  -4.350 LR: -18.690 RR:   0.000 FEB: -10.934
USER: RMSD 11.945459
USER: SEED 55589
USER: STATUS searching
USER: GENES 28
USER: genes 0 Translation |==|  0.55321 0.56619 0.40503
USER: genes 1 Rotation |==|  0.27366 0.84752 0.77702 0.53555
USER: genes 2 Torsion [C]-CA--N-[C] |==|  0.67254
USER: genes 3 Torsion [N]-C--CA-[N] |==|  0.16231
USER: genes 4 Torsion [C]-CA--CB-[CG] |==|  0.32705
USER: genes 5 Torsion [CA]-CB--CG-[CD] |==|  0.79326
USER: genes 6 Torsion [CB]-CG--CD-[NE] |==|  0.57189
USER: genes 7 Torsion [CG]-CD--NE-[HE] |==|  0.06564
USER: genes 8 Torsion [C]-CA--N-[C] |==|  0.76642
USER: genes 9 Torsion [N]-C--CA-[N] |==|  0.84759
USER: genes 10 Torsion [C]-CA--N-[H3] |==|  0.42365
USER: genes 11 Torsion [C]-CA--CB-[CG] |==|  0.43045
USER: genes 12 Torsion [CA]-CB--CG-[ND2] |==|  0.63751
USER: genes 13 Torsion [N]-CA--CB-[CG] |==|  0.79558
USER: genes 14 Torsion [CA]-CB--CG-[CD1] |==|  0.46026
USER: genes 15 Torsion [N]-CA--C-[N] |==|  0.34319
USER: genes 16 Torsion [C]-N--CA-[CB] |==|  0.55588
USER: genes 17 Torsion [N]-CA--C-[N] |==|  0.35083
USER: genes 18 Torsion [C]-N--CA-[C] |==|  0.62631
USER: genes 19 Torsion [N]-CA--C-[N] |==|  0.48273
USER: genes 20 Torsion [C]-N--CA-[C] |==|  0.64042
USER: genes 21 Torsion [N]-CA--CB-[CG2] |==|  0.74512
USER: genes 22 Torsion [CA]-CB--OG1-[HG1] |==|  0.74933
USER: genes 23 Torsion [N]-CA--C-[O] |==|  0.09518
USER: genes 24 Torsion [N]-CA--CB-[CG] |==|  0.62118
USER: genes 25 Torsion [CA]-CB--CG-[CD2] |==|  0.99091
USER: genes 26 Torsion [N]-CA--CB-[CG] |==|  0.65457
USER: genes 27 Torsion [CA]-CB--CG-[CD1] |==|  0.53312
ROOT
ATOM      1  CA  LEU B   3     -16.785 -21.233 -30.311  1.00 17.18 LIG 0.18  C 
ENDROOT
BRANCH 1 2
ATOM      2  N   LEU B   3     -16.250 -19.923 -30.333  1.00 21.09 LIG-0.35  N 
ATOM      3  C   ARG B   2     -15.296 -19.579 -31.192  1.00 20.79 LIG 0.24  C 
ATOM      4 O    ARG B   2     -14.863 -20.341 -32.083  1.00 18.81 LIG-0.27  OA
ATOM      5 H    LEU B   3     -16.593 -19.387 -29.754  1.00 21.09 LIG 0.16  HD
BRANCH 3 6
ATOM      6  CA  ARG B   2     -14.689 -18.199 -30.976  1.00 21.42 LIG 0.18  C 
BRANCH 6 7
ATOM      7  CB  ARG B   2     -13.633 -17.839 -32.027  1.00 36.36 LIG 0.04  C 
BRANCH 7 8
ATOM      8  CG  ARG B   2     -14.034 -16.625 -32.844  1.00 41.67 LIG 0.02  C 
BRANCH 8 9
ATOM      9  CD  ARG B   2     -15.131 -16.920 -33.868  1.00 51.14 LIG 0.14  C 
BRANCH 9 10
ATOM     10  NE  ARG B   2     -15.081 -15.987 -35.008  1.00 53.41 LIG-0.23  N 
ATOM     11 HE   ARG B   2     -14.329 -15.605 -35.173  1.00 53.41 LIG 0.18  HD
ATOM     12  CZ  ARG B   2     -16.110 -15.685 -35.810  1.00 50.83 LIG 0.67  C 
ATOM     13  NH1 ARG B   2     -17.302 -16.234 -35.615  1.00 40.00 LIG-0.23  N 
ATOM     14  NH2 ARG B   2     -15.942 -14.816 -36.808  1.00 54.23 LIG-0.23  N 
ATOM     15 1HH1 ARG B   2     -17.419 -16.790 -34.969  1.00 40.00 LIG 0.17  HD
ATOM     16 2HH1 ARG B   2     -17.958 -16.034 -36.135  1.00 40.00 LIG 0.17  HD
ATOM     17 1HH2 ARG B   2     -15.174 -14.450 -36.936  1.00 54.23 LIG 0.17  HD
ATOM     18 2HH2 ARG B   2     -16.602 -14.621 -37.323  1.00 54.23 LIG 0.17  HD
ENDBRANCH 9 10
ENDBRANCH 8 9
ENDBRANCH 7 8
ENDBRANCH 6 7
BRANCH 6 19
ATOM     19  N   ARG B   2     -14.141 -18.159 -29.638  1.00 29.89 LIG-0.35  N 
ATOM     20  C   ASN B   1     -14.918 -17.876 -28.601  1.00 39.87 LIG 0.25  C 
ATOM     21 O    ASN B   1     -16.020 -17.326 -28.723  1.00 37.46 LIG-0.27  OA
ATOM     22 H    ARG B   2     -13.299 -18.329 -29.585  1.00 29.89 LIG 0.16  HD
BRANCH 20 23
ATOM     23  CA  ASN B   1     -14.356 -18.264 -27.221  1.00 47.73 LIG 0.28  C 
BRANCH 23 24
ATOM     24  N   ASN B   1     -13.977 -19.650 -27.097  1.00 51.86 LIG-0.07  N 
ATOM     25 H3   ASN B   1     -13.332 -19.728 -26.489  1.00 51.86 LIG 0.28  HD
ATOM     26 H1   ASN B   1     -14.683 -20.129 -26.845  1.00 51.86 LIG 0.28  HD
ATOM     27 H2   ASN B   1     -13.682 -19.948 -27.882  1.00 51.86 LIG 0.28  HD
ENDBRANCH 23 24
BRANCH 23 28
ATOM     28  CB  ASN B   1     -13.162 -17.423 -26.819  1.00 49.79 LIG 0.14  C 
BRANCH 28 29
ATOM     29  CG  ASN B   1     -13.010 -17.368 -25.317  1.00 59.47 LIG 0.22  C 
ATOM     30  ND2 ASN B   1     -12.852 -16.158 -24.770  1.00 63.81 LIG-0.37  N 
ATOM     31 21HD ASN B   1     -12.739 -16.081 -23.921  1.00 63.81 LIG 0.16  HD
ATOM     32 22HD ASN B   1     -12.865 -15.456 -25.267  1.00 63.81 LIG 0.16  HD
ATOM     33 OD1  ASN B   1     -13.000 -18.402 -24.654  1.00 60.25 LIG-0.27  OA
ENDBRANCH 28 29
ENDBRANCH 23 28
ENDBRANCH 20 23
ENDBRANCH 6 19
ENDBRANCH 3 6
ENDBRANCH 1 2
BRANCH 1 34
ATOM     34  CB  LEU B   3     -16.488 -21.903 -28.940  1.00 28.79 LIG 0.04  C 
BRANCH 34 35
ATOM     35  CG  LEU B   3     -15.012 -22.299 -28.820  1.00 33.15 LIG-0.02  C 
ATOM     36  CD2 LEU B   3     -14.731 -23.472 -29.749  1.00 30.13 LIG 0.01  C 
ATOM     37  CD1 LEU B   3     -14.561 -22.647 -27.370  1.00 27.67 LIG 0.01  C 
ENDBRANCH 34 35
ENDBRANCH 1 34
BRANCH 1 38
ATOM     38  C   LEU B   3     -18.263 -21.250 -30.635  1.00 20.33 LIG 0.24  C 
ATOM     39  N   LEU B   4     -18.622 -22.017 -31.659  1.00 23.83 LIG-0.35  N 
ATOM     40 H    LEU B   4     -18.075 -22.486 -32.128  1.00 23.83 LIG 0.16  HD
ATOM     41 O    LEU B   3     -19.072 -20.599 -29.981  1.00 22.70 LIG-0.27  OA
BRANCH 39 42
ATOM     42  CA  LEU B   4     -20.018 -22.115 -32.069  1.00 22.91 LIG 0.18  C 
BRANCH 42 43
ATOM     43  C   LEU B   4     -20.883 -22.243 -30.811  1.00 30.74 LIG 0.24  C 
ATOM     44 O    LEU B   4     -20.674 -23.156 -29.963  1.00 30.11 LIG-0.27  OA
ATOM     45  N   LEU B   5     -21.877 -21.375 -30.672  1.00 32.41 LIG-0.35  N 
ATOM     46 H    LEU B   5     -22.026 -20.697 -31.179  1.00 32.41 LIG 0.16  HD
BRANCH 45 47
ATOM     47  CA  LEU B   5     -22.818 -21.568 -29.561  1.00 35.50 LIG 0.18  C 
BRANCH 47 48
ATOM     48  C   LEU B   5     -24.255 -21.401 -30.043  1.00 33.38 LIG 0.24  C 
ATOM     49 O    LEU B   5     -24.507 -21.020 -31.207  1.00 25.58 LIG-0.27  OA
ATOM     50  N   THR B   6     -25.180 -21.686 -29.131  1.00 32.99 LIG-0.34  N 
ATOM     51 H    THR B   6     -24.995 -22.078 -28.389  1.00 32.99 LIG 0.16  HD
BRANCH 50 52
ATOM     52  CA  THR B   6     -26.594 -21.371 -29.282  1.00 39.09 LIG 0.19  C 
BRANCH 52 53
ATOM     53  CB  THR B   6     -27.430 -22.668 -29.452  1.00 66.99 LIG 0.14  C 
ATOM     54  CG2 THR B   6     -27.592 -23.021 -30.917  1.00 64.52 LIG 0.04  C 
BRANCH 53 55
ATOM     55 OG1  THR B   6     -26.773 -23.764 -28.785  1.00 68.32 LIG-0.39  OA
ATOM     56 HG1  THR B   6     -26.252 -24.147 -29.321  1.00 68.32 LIG 0.21  HD
ENDBRANCH 53 55
ENDBRANCH 52 53
BRANCH 52 57
ATOM     57  C   THR B   6     -27.073 -20.639 -28.020  1.00 46.48 LIG 0.22  C 
ATOM     58 O    THR B   6     -26.318 -19.869 -27.407  1.00 50.47 LIG-0.29  OA
ENDBRANCH 52 57
ENDBRANCH 50 52
ENDBRANCH 47 48
BRANCH 47 59
ATOM     59  CB  LEU B   5     -22.565 -20.563 -28.445  1.00 41.25 LIG 0.04  C 
BRANCH 59 60
ATOM     60  CG  LEU B   5     -22.586 -21.068 -27.011  1.00 47.99 LIG-0.02  C 
ATOM     61  CD2 LEU B   5     -22.948 -22.527 -26.977  1.00 50.88 LIG 0.01  C 
ATOM     62  CD1 LEU B   5     -23.612 -20.260 -26.244  1.00 54.72 LIG 0.01  C 
ENDBRANCH 59 60
ENDBRANCH 47 59
ENDBRANCH 45 47
ENDBRANCH 42 43
BRANCH 42 63
ATOM     63  CB  LEU B   4     -20.170 -23.387 -32.878  1.00 23.96 LIG 0.04  C 
BRANCH 63 64
ATOM     64  CG  LEU B   4     -20.729 -23.414 -34.284  1.00 38.52 LIG-0.02  C 
ATOM     65  CD1 LEU B   4     -21.029 -24.800 -34.727  1.00 46.71 LIG 0.01  C 
ATOM     66  CD2 LEU B   4     -21.967 -22.506 -34.339  1.00 36.33 LIG 0.01  C 
ENDBRANCH 63 64
ENDBRANCH 42 63
ENDBRANCH 39 42
ENDBRANCH 1 38
TORSDOF 26
ENDMDL
MODEL 57
USER: ADFR SOLUTION from run 32
USER: SCORE 21.847133 LL:  -4.533 LR: -18.680 RR:   0.000 FEB: -10.924
USER: RMSD 3.804984
USER: SEED 31
USER: STATUS searching
USER: GENES 28
USER: genes 0 Translation |==|  0.43841 0.48527 0.32115
USER: genes 1 Rotation |==|  0.47847 0.46590 0.60660 0.98684
USER: genes 2 Torsion [C]-CA--N-[C] |==|  0.80085
USER: genes 3 Torsion [N]-C--CA-[N] |==|  0.32820
USER: genes 4 Torsion [C]-CA--CB-[CG] |==|  0.65883
USER: genes 5 Torsion [CA]-CB--CG-[CD] |==|  0.76021
USER: genes 6 Torsion [CB]-CG--CD-[NE] |==|  0.53439
USER: genes 7 Torsion [CG]-CD--NE-[HE] |==|  0.22022
USER: genes 8 Torsion [C]-CA--N-[C] |==|  0.75574
USER: genes 9 Torsion [N]-C--CA-[N] |==|  0.21244
USER: genes 10 Torsion [C]-CA--N-[H3] |==|  0.57122
USER: genes 11 Torsion [C]-CA--CB-[CG] |==|  0.40627
USER: genes 12 Torsion [CA]-CB--CG-[ND2] |==|  0.50236
USER: genes 13 Torsion [N]-CA--CB-[CG] |==|  0.89986
USER: genes 14 Torsion [CA]-CB--CG-[CD1] |==|  0.45137
USER: genes 15 Torsion [N]-CA--C-[N] |==|  0.39579
USER: genes 16 Torsion [C]-N--CA-[CB] |==|  0.20926
USER: genes 17 Torsion [N]-CA--C-[N] |==|  0.45489
USER: genes 18 Torsion [C]-N--CA-[C] |==|  0.67042
USER: genes 19 Torsion [N]-CA--C-[N] |==|  0.93313
USER: genes 20 Torsion [C]-N--CA-[C] |==|  0.60705
USER: genes 21 Torsion [N]-CA--CB-[CG2] |==|  0.45981
USER: genes 22 Torsion [CA]-CB--OG1-[HG1] |==|  0.97191
USER: genes 23 Torsion [N]-CA--C-[O] |==|  0.97376
USER: genes 24 Torsion [N]-CA--CB-[CG] |==|  0.87462
USER: genes 25 Torsion [CA]-CB--CG-[CD2] |==|  0.62615
USER: genes 26 Torsion [N]-CA--CB-[CG] |==|  0.21784
USER: genes 27 Torsion [CA]-CB--CG-[CD1] |==|  0.44290
ROOT
ATOM      1  CA  LEU B   3     -19.626 -23.236 -32.073  1.00 17.18 LIG 0.18  C 
ENDROOT
BRANCH 1 2
ATOM      2  N   LEU B   3     -20.502 -24.001 -31.267  1.00 21.09 LIG-0.35  N 
ATOM      3  C   ARG B   2     -20.053 -24.710 -30.236  1.00 20.79 LIG 0.24  C 
ATOM      4 O    ARG B   2     -18.864 -24.693 -29.855  1.00 18.81 LIG-0.27  OA
ATOM      5 H    LEU B   3     -21.329 -23.963 -31.502  1.00 21.09 LIG 0.16  HD
BRANCH 3 6
ATOM      6  CA  ARG B   2     -21.076 -25.627 -29.579  1.00 21.42 LIG 0.18  C 
BRANCH 6 7
ATOM      7  CB  ARG B   2     -21.342 -25.271 -28.112  1.00 36.36 LIG 0.04  C 
BRANCH 7 8
ATOM      8  CG  ARG B   2     -21.073 -26.441 -27.185  1.00 41.67 LIG 0.02  C 
BRANCH 8 9
ATOM      9  CD  ARG B   2     -22.274 -27.375 -27.025  1.00 51.14 LIG 0.14  C 
BRANCH 9 10
ATOM     10  NE  ARG B   2     -22.088 -28.322 -25.910  1.00 53.41 LIG-0.23  N 
ATOM     11 HE   ARG B   2     -22.231 -28.027 -25.115  1.00 53.41 LIG 0.18  HD
ATOM     12  CZ  ARG B   2     -21.717 -29.601 -26.032  1.00 50.83 LIG 0.67  C 
ATOM     13  NH1 ARG B   2     -21.477 -30.125 -27.228  1.00 40.00 LIG-0.23  N 
ATOM     14  NH2 ARG B   2     -21.574 -30.359 -24.943  1.00 54.23 LIG-0.23  N 
ATOM     15 1HH1 ARG B   2     -21.560 -29.641 -27.933  1.00 40.00 LIG 0.17  HD
ATOM     16 2HH1 ARG B   2     -21.238 -30.948 -27.297  1.00 40.00 LIG 0.17  HD
ATOM     17 1HH2 ARG B   2     -21.720 -30.025 -24.164  1.00 54.23 LIG 0.17  HD
ATOM     18 2HH2 ARG B   2     -21.335 -31.181 -25.020  1.00 54.23 LIG 0.17  HD
ENDBRANCH 9 10
ENDBRANCH 8 9
ENDBRANCH 7 8
ENDBRANCH 6 7
BRANCH 6 19
ATOM     19  N   ARG B   2     -20.608 -26.989 -29.718  1.00 29.89 LIG-0.35  N 
ATOM     20  C   ASN B   1     -20.913 -27.698 -30.796  1.00 39.87 LIG 0.25  C 
ATOM     21 O    ASN B   1     -21.842 -27.393 -31.555  1.00 37.46 LIG-0.27  OA
ATOM     22 H    ARG B   2     -20.133 -27.278 -29.061  1.00 29.89 LIG 0.16  HD
BRANCH 20 23
ATOM     23  CA  ASN B   1     -20.044 -28.945 -31.042  1.00 47.73 LIG 0.28  C 
BRANCH 23 24
ATOM     24  N   ASN B   1     -20.355 -30.069 -30.193  1.00 51.86 LIG-0.07  N 
ATOM     25 H3   ASN B   1     -19.636 -30.586 -30.109  1.00 51.86 LIG 0.28  HD
ATOM     26 H1   ASN B   1     -20.604 -29.774 -29.390  1.00 51.86 LIG 0.28  HD
ATOM     27 H2   ASN B   1     -21.018 -30.539 -30.555  1.00 51.86 LIG 0.28  HD
ENDBRANCH 23 24
BRANCH 23 28
ATOM     28  CB  ASN B   1     -20.103 -29.424 -32.478  1.00 49.79 LIG 0.14  C 
BRANCH 28 29
ATOM     29  CG  ASN B   1     -18.782 -30.011 -32.916  1.00 59.47 LIG 0.22  C 
ATOM     30  ND2 ASN B   1     -18.707 -30.453 -34.176  1.00 63.81 LIG-0.37  N 
ATOM     31 21HD ASN B   1     -17.982 -30.816 -34.462  1.00 63.81 LIG 0.16  HD
ATOM     32 22HD ASN B   1     -19.383 -30.374 -34.701  1.00 63.81 LIG 0.16  HD
ATOM     33 OD1  ASN B   1     -17.847 -30.099 -32.125  1.00 60.25 LIG-0.27  OA
ENDBRANCH 28 29
ENDBRANCH 23 28
ENDBRANCH 20 23
ENDBRANCH 6 19
ENDBRANCH 3 6
ENDBRANCH 1 2
BRANCH 1 34
ATOM     34  CB  LEU B   3     -20.326 -22.865 -33.410  1.00 28.79 LIG 0.04  C 
BRANCH 34 35
ATOM     35  CG  LEU B   3     -21.232 -24.000 -33.901  1.00 33.15 LIG-0.02  C 
ATOM     36  CD2 LEU B   3     -20.368 -25.130 -34.446  1.00 30.13 LIG 0.01  C 
ATOM     37  CD1 LEU B   3     -22.278 -23.566 -34.970  1.00 27.67 LIG 0.01  C 
ENDBRANCH 34 35
ENDBRANCH 1 34
BRANCH 1 38
ATOM     38  C   LEU B   3     -19.113 -22.010 -31.350  1.00 20.33 LIG 0.24  C 
ATOM     39  N   LEU B   4     -17.847 -21.684 -31.591  1.00 23.83 LIG-0.35  N 
ATOM     40 H    LEU B   4     -17.326 -22.120 -32.118  1.00 23.83 LIG 0.16  HD
ATOM     41 O    LEU B   3     -19.832 -21.358 -30.598  1.00 22.70 LIG-0.27  OA
BRANCH 39 42
ATOM     42  CA  LEU B   4     -17.237 -20.523 -30.952  1.00 22.91 LIG 0.18  C 
BRANCH 42 43
ATOM     43  C   LEU B   4     -15.902 -20.235 -31.646  1.00 30.74 LIG 0.24  C 
ATOM     44 O    LEU B   4     -15.333 -21.110 -32.358  1.00 30.11 LIG-0.27  OA
ATOM     45  N   LEU B   5     -15.360 -19.043 -31.439  1.00 32.41 LIG-0.35  N 
ATOM     46 H    LEU B   5     -15.730 -18.389 -31.021  1.00 32.41 LIG 0.16  HD
BRANCH 45 47
ATOM     47  CA  LEU B   5     -14.010 -18.792 -31.960  1.00 35.50 LIG 0.18  C 
BRANCH 47 48
ATOM     48  C   LEU B   5     -13.047 -18.476 -30.822  1.00 33.38 LIG 0.24  C 
ATOM     49 O    LEU B   5     -11.817 -18.669 -30.942  1.00 25.58 LIG-0.27  OA
ATOM     50  N   THR B   6     -13.626 -17.996 -29.726  1.00 32.99 LIG-0.34  N 
ATOM     51 H    THR B   6     -14.446 -17.739 -29.708  1.00 32.99 LIG 0.16  HD
BRANCH 50 52
ATOM     52  CA  THR B   6     -12.949 -17.853 -28.444  1.00 39.09 LIG 0.19  C 
BRANCH 52 53
ATOM     53  CB  THR B   6     -12.481 -16.388 -28.232  1.00 66.99 LIG 0.14  C 
ATOM     54  CG2 THR B   6     -12.100 -16.145 -26.784  1.00 64.52 LIG 0.04  C 
BRANCH 53 55
ATOM     55 OG1  THR B   6     -11.333 -16.116 -29.060  1.00 68.32 LIG-0.39  OA
ATOM     56 HG1  THR B   6     -11.052 -16.834 -29.394  1.00 68.32 LIG 0.21  HD
ENDBRANCH 53 55
ENDBRANCH 52 53
BRANCH 52 57
ATOM     57  C   THR B   6     -13.931 -18.223 -27.323  1.00 46.48 LIG 0.22  C 
ATOM     58 O    THR B   6     -15.133 -18.404 -27.567  1.00 50.47 LIG-0.29  OA
ENDBRANCH 52 57
ENDBRANCH 50 52
ENDBRANCH 47 48
BRANCH 47 59
ATOM     59  CB  LEU B   5     -14.004 -17.621 -32.935  1.00 41.25 LIG 0.04  C 
BRANCH 59 60
ATOM     60  CG  LEU B   5     -15.100 -17.562 -33.987  1.00 47.99 LIG-0.02  C 
ATOM     61  CD2 LEU B   5     -14.517 -17.229 -35.331  1.00 50.88 LIG 0.01  C 
ATOM     62  CD1 LEU B   5     -16.092 -16.496 -33.570  1.00 54.72 LIG 0.01  C 
ENDBRANCH 59 60
ENDBRANCH 47 59
ENDBRANCH 45 47
ENDBRANCH 42 43
BRANCH 42 63
ATOM     63  CB  LEU B   4     -16.950 -20.891 -29.510  1.00 23.96 LIG 0.04  C 
BRANCH 63 64
ATOM     64  CG  LEU B   4     -15.766 -21.733 -29.089  1.00 38.52 LIG-0.02  C 
ATOM     65  CD1 LEU B   4     -15.440 -21.541 -27.653  1.00 46.71 LIG 0.01  C 
ATOM     66  CD2 LEU B   4     -16.064 -23.203 -29.425  1.00 36.33 LIG 0.01  C 
ENDBRANCH 63 64
ENDBRANCH 42 63
ENDBRANCH 39 42
ENDBRANCH 1 38
TORSDOF 26
ENDMDL
MODEL 58
USER: ADFR SOLUTION from run 162
USER: SCORE 21.896020 LL:  -4.296 LR: -18.667 RR:   0.000 FEB: -10.912
USER: RMSD 11.725670
USER: SEED 161
USER: STATUS no improvement in best in 17 clusters for 5 generations
USER: GENES 28
USER: genes 0 Translation |==|  0.54653 0.58268 0.44041
USER: genes 1 Rotation |==|  0.77317 0.17870 0.23153 0.50827
USER: genes 2 Torsion [C]-CA--N-[C] |==|  0.86111
USER: genes 3 Torsion [N]-C--CA-[N] |==|  0.97654
USER: genes 4 Torsion [C]-CA--CB-[CG] |==|  0.36068
USER: genes 5 Torsion [CA]-CB--CG-[CD] |==|  0.89772
USER: genes 6 Torsion [CB]-CG--CD-[NE] |==|  0.54321
USER: genes 7 Torsion [CG]-CD--NE-[HE] |==|  0.70249
USER: genes 8 Torsion [C]-CA--N-[C] |==|  0.64491
USER: genes 9 Torsion [N]-C--CA-[N] |==|  0.60853
USER: genes 10 Torsion [C]-CA--N-[H3] |==|  0.97246
USER: genes 11 Torsion [C]-CA--CB-[CG] |==|  0.20840
USER: genes 12 Torsion [CA]-CB--CG-[ND2] |==|  0.51190
USER: genes 13 Torsion [N]-CA--CB-[CG] |==|  0.72047
USER: genes 14 Torsion [CA]-CB--CG-[CD1] |==|  0.44580
USER: genes 15 Torsion [N]-CA--C-[N] |==|  0.36671
USER: genes 16 Torsion [C]-N--CA-[CB] |==|  0.56368
USER: genes 17 Torsion [N]-CA--C-[N] |==|  0.32274
USER: genes 18 Torsion [C]-N--CA-[C] |==|  0.54334
USER: genes 19 Torsion [N]-CA--C-[N] |==|  0.48666
USER: genes 20 Torsion [C]-N--CA-[C] |==|  0.65946
USER: genes 21 Torsion [N]-CA--CB-[CG2] |==|  0.14900
USER: genes 22 Torsion [CA]-CB--OG1-[HG1] |==|  0.09302
USER: genes 23 Torsion [N]-CA--C-[O] |==|  0.12156
USER: genes 24 Torsion [N]-CA--CB-[CG] |==|  0.63781
USER: genes 25 Torsion [CA]-CB--CG-[CD2] |==|  0.03836
USER: genes 26 Torsion [N]-CA--CB-[CG] |==|  0.64333
USER: genes 27 Torsion [CA]-CB--CG-[CD1] |==|  0.66830
ROOT
ATOM      1  CA  LEU B   3     -16.950 -20.825 -29.568  1.00 17.18 LIG 0.18  C 
ENDROOT
BRANCH 1 2
ATOM      2  N   LEU B   3     -16.789 -19.423 -29.668  1.00 21.09 LIG-0.35  N 
ATOM      3  C   ARG B   2     -17.197 -18.753 -30.742  1.00 20.79 LIG 0.24  C 
ATOM      4 O    ARG B   2     -17.816 -19.282 -31.689  1.00 18.81 LIG-0.27  OA
ATOM      5 H    LEU B   3     -16.411 -19.057 -28.987  1.00 21.09 LIG 0.16  HD
BRANCH 3 6
ATOM      6  CA  ARG B   2     -16.790 -17.286 -30.791  1.00 21.42 LIG 0.18  C 
BRANCH 6 7
ATOM      7  CB  ARG B   2     -15.836 -16.969 -31.947  1.00 36.36 LIG 0.04  C 
BRANCH 7 8
ATOM      8  CG  ARG B   2     -16.302 -15.775 -32.759  1.00 41.67 LIG 0.02  C 
BRANCH 8 9
ATOM      9  CD  ARG B   2     -17.822 -15.704 -32.913  1.00 51.14 LIG 0.14  C 
BRANCH 9 10
ATOM     10  NE  ARG B   2     -18.221 -14.775 -33.986  1.00 53.41 LIG-0.23  N 
ATOM     11 HE   ARG B   2     -18.568 -14.025 -33.749  1.00 53.41 LIG 0.18  HD
ATOM     12  CZ  ARG B   2     -18.089 -15.002 -35.298  1.00 50.83 LIG 0.67  C 
ATOM     13  NH1 ARG B   2     -17.565 -16.139 -35.738  1.00 40.00 LIG-0.23  N 
ATOM     14  NH2 ARG B   2     -18.497 -14.083 -36.176  1.00 54.23 LIG-0.23  N 
ATOM     15 1HH1 ARG B   2     -17.307 -16.738 -35.179  1.00 40.00 LIG 0.17  HD
ATOM     16 2HH1 ARG B   2     -17.484 -16.276 -36.584  1.00 40.00 LIG 0.17  HD
ATOM     17 1HH2 ARG B   2     -18.844 -13.347 -35.898  1.00 54.23 LIG 0.17  HD
ATOM     18 2HH2 ARG B   2     -18.413 -14.227 -37.019  1.00 54.23 LIG 0.17  HD
ENDBRANCH 9 10
ENDBRANCH 8 9
ENDBRANCH 7 8
ENDBRANCH 6 7
BRANCH 6 19
ATOM     19  N   ARG B   2     -16.206 -16.944 -29.512  1.00 29.89 LIG-0.35  N 
ATOM     20  C   ASN B   1     -16.644 -15.893 -28.832  1.00 39.87 LIG 0.25  C 
ATOM     21 O    ASN B   1     -17.304 -14.986 -29.357  1.00 37.46 LIG-0.27  OA
ATOM     22 H    ARG B   2     -15.576 -17.467 -29.250  1.00 29.89 LIG 0.16  HD
BRANCH 20 23
ATOM     23  CA  ASN B   1     -16.269 -15.861 -27.339  1.00 47.73 LIG 0.28  C 
BRANCH 23 24
ATOM     24  N   ASN B   1     -17.311 -15.371 -26.471  1.00 51.86 LIG-0.07  N 
ATOM     25 H3   ASN B   1     -17.969 -15.027 -26.961  1.00 51.86 LIG 0.28  HD
ATOM     26 H1   ASN B   1     -17.627 -16.042 -25.979  1.00 51.86 LIG 0.28  HD
ATOM     27 H2   ASN B   1     -16.980 -14.742 -25.936  1.00 51.86 LIG 0.28  HD
ENDBRANCH 23 24
BRANCH 23 28
ATOM     28  CB  ASN B   1     -15.833 -17.215 -26.817  1.00 49.79 LIG 0.14  C 
BRANCH 28 29
ATOM     29  CG  ASN B   1     -14.440 -17.562 -27.287  1.00 59.47 LIG 0.22  C 
ATOM     30  ND2 ASN B   1     -13.979 -18.775 -26.963  1.00 63.81 LIG-0.37  N 
ATOM     31 21HD ASN B   1     -13.183 -19.007 -27.190  1.00 63.81 LIG 0.16  HD
ATOM     32 22HD ASN B   1     -14.479 -19.323 -26.527  1.00 63.81 LIG 0.16  HD
ATOM     33 OD1  ASN B   1     -13.769 -16.742 -27.908  1.00 60.25 LIG-0.27  OA
ENDBRANCH 28 29
ENDBRANCH 23 28
ENDBRANCH 20 23
ENDBRANCH 6 19
ENDBRANCH 3 6
ENDBRANCH 1 2
BRANCH 1 34
ATOM     34  CB  LEU B   3     -16.501 -21.310 -28.161  1.00 28.79 LIG 0.04  C 
BRANCH 34 35
ATOM     35  CG  LEU B   3     -15.095 -21.917 -28.202  1.00 33.15 LIG-0.02  C 
ATOM     36  CD2 LEU B   3     -15.167 -23.308 -28.818  1.00 30.13 LIG 0.01  C 
ATOM     37  CD1 LEU B   3     -14.388 -21.984 -26.816  1.00 27.67 LIG 0.01  C 
ENDBRANCH 34 35
ENDBRANCH 1 34
BRANCH 1 38
ATOM     38  C   LEU B   3     -18.365 -21.258 -29.886  1.00 20.33 LIG 0.24  C 
ATOM     39  N   LEU B   4     -18.482 -22.274 -30.736  1.00 23.83 LIG-0.35  N 
ATOM     40 H    LEU B   4     -17.817 -22.680 -31.099  1.00 23.83 LIG 0.16  HD
ATOM     41 O    LEU B   3     -19.336 -20.706 -29.379  1.00 22.70 LIG-0.27  OA
BRANCH 39 42
ATOM     42  CA  LEU B   4     -19.793 -22.781 -31.121  1.00 22.91 LIG 0.18  C 
BRANCH 42 43
ATOM     43  C   LEU B   4     -20.689 -22.798 -29.878  1.00 30.74 LIG 0.24  C 
ATOM     44 O    LEU B   4     -20.438 -23.559 -28.901  1.00 30.11 LIG-0.27  OA
ATOM     45  N   LEU B   5     -21.753 -22.007 -29.891  1.00 32.41 LIG-0.35  N 
ATOM     46 H    LEU B   5     -21.938 -21.424 -30.496  1.00 32.41 LIG 0.16  HD
BRANCH 45 47
ATOM     47  CA  LEU B   5     -22.715 -22.116 -28.786  1.00 35.50 LIG 0.18  C 
BRANCH 47 48
ATOM     48  C   LEU B   5     -24.029 -21.435 -29.152  1.00 33.38 LIG 0.24  C 
ATOM     49 O    LEU B   5     -24.154 -20.802 -30.223  1.00 25.58 LIG-0.27  OA
ATOM     50  N   THR B   6     -24.993 -21.571 -28.247  1.00 32.99 LIG-0.34  N 
ATOM     51 H    THR B   6     -24.938 -22.122 -27.588  1.00 32.99 LIG 0.16  HD
BRANCH 50 52
ATOM     52  CA  THR B   6     -26.237 -20.816 -28.264  1.00 39.09 LIG 0.19  C 
BRANCH 52 53
ATOM     53  CB  THR B   6     -27.455 -21.766 -28.420  1.00 66.99 LIG 0.14  C 
ATOM     54  CG2 THR B   6     -27.435 -22.853 -27.363  1.00 64.52 LIG 0.04  C 
BRANCH 53 55
ATOM     55 OG1  THR B   6     -28.679 -21.018 -28.288  1.00 68.32 LIG-0.39  OA
ATOM     56 HG1  THR B   6     -28.572 -20.246 -28.600  1.00 68.32 LIG 0.21  HD
ENDBRANCH 53 55
ENDBRANCH 52 53
BRANCH 52 57
ATOM     57  C   THR B   6     -26.373 -20.059 -26.935  1.00 46.48 LIG 0.22  C 
ATOM     58 O    THR B   6     -25.403 -19.462 -26.442  1.00 50.47 LIG-0.29  OA
ENDBRANCH 52 57
ENDBRANCH 50 52
ENDBRANCH 47 48
BRANCH 47 59
ATOM     59  CB  LEU B   5     -22.173 -21.467 -27.519  1.00 41.25 LIG 0.04  C 
BRANCH 59 60
ATOM     60  CG  LEU B   5     -22.231 -22.266 -26.227  1.00 47.99 LIG-0.02  C 
ATOM     61  CD2 LEU B   5     -22.526 -23.711 -26.519  1.00 50.88 LIG 0.01  C 
ATOM     62  CD1 LEU B   5     -23.324 -21.676 -25.360  1.00 54.72 LIG 0.01  C 
ENDBRANCH 59 60
ENDBRANCH 47 59
ENDBRANCH 45 47
ENDBRANCH 42 43
BRANCH 42 63
ATOM     63  CB  LEU B   4     -19.612 -24.210 -31.592  1.00 23.96 LIG 0.04  C 
BRANCH 63 64
ATOM     64  CG  LEU B   4     -20.137 -24.720 -32.916  1.00 38.52 LIG-0.02  C 
ATOM     65  CD1 LEU B   4     -21.111 -25.825 -32.729  1.00 46.71 LIG 0.01  C 
ATOM     66  CD2 LEU B   4     -20.740 -23.540 -33.694  1.00 36.33 LIG 0.01  C 
ENDBRANCH 63 64
ENDBRANCH 42 63
ENDBRANCH 39 42
ENDBRANCH 1 38
TORSDOF 26
ENDMDL
MODEL 59
USER: ADFR SOLUTION from run 194
USER: SCORE 22.325508 LL:  -4.261 LR: -18.658 RR:   0.000 FEB: -10.902
USER: RMSD 11.714580
USER: SEED 193
USER: STATUS no improvement in best in 14 clusters for 5 generations
USER: GENES 28
USER: genes 0 Translation |==|  0.60499 0.53801 0.42978
USER: genes 1 Rotation |==|  0.31683 0.85927 0.79409 0.52976
USER: genes 2 Torsion [C]-CA--N-[C] |==|  0.76198
USER: genes 3 Torsion [N]-C--CA-[N] |==|  0.98889
USER: genes 4 Torsion [C]-CA--CB-[CG] |==|  0.39371
USER: genes 5 Torsion [CA]-CB--CG-[CD] |==|  0.47285
USER: genes 6 Torsion [CB]-CG--CD-[NE] |==|  0.56156
USER: genes 7 Torsion [CG]-CD--NE-[HE] |==|  0.70718
USER: genes 8 Torsion [C]-CA--N-[C] |==|  0.79585
USER: genes 9 Torsion [N]-C--CA-[N] |==|  0.82998
USER: genes 10 Torsion [C]-CA--N-[H3] |==|  0.81135
USER: genes 11 Torsion [C]-CA--CB-[CG] |==|  0.48968
USER: genes 12 Torsion [CA]-CB--CG-[ND2] |==|  0.65721
USER: genes 13 Torsion [N]-CA--CB-[CG] |==|  0.72096
USER: genes 14 Torsion [CA]-CB--CG-[CD1] |==|  0.55765
USER: genes 15 Torsion [N]-CA--C-[N] |==|  0.46096
USER: genes 16 Torsion [C]-N--CA-[CB] |==|  0.87330
USER: genes 17 Torsion [N]-CA--C-[N] |==|  0.33736
USER: genes 18 Torsion [C]-N--CA-[C] |==|  0.75156
USER: genes 19 Torsion [N]-CA--C-[N] |==|  0.94293
USER: genes 20 Torsion [C]-N--CA-[C] |==|  0.56154
USER: genes 21 Torsion [N]-CA--CB-[CG2] |==|  0.43469
USER: genes 22 Torsion [CA]-CB--OG1-[HG1] |==|  0.79433
USER: genes 23 Torsion [N]-CA--C-[O] |==|  0.90857
USER: genes 24 Torsion [N]-CA--CB-[CG] |==|  0.19130
USER: genes 25 Torsion [CA]-CB--CG-[CD2] |==|  0.59919
USER: genes 26 Torsion [N]-CA--CB-[CG] |==|  0.55933
USER: genes 27 Torsion [CA]-CB--CG-[CD1] |==|  0.27044
ROOT
ATOM      1  CA  LEU B   3     -15.504 -21.930 -29.792  1.00 17.18 LIG 0.18  C 
ENDROOT
BRANCH 1 2
ATOM      2  N   LEU B   3     -14.819 -20.695 -29.873  1.00 21.09 LIG-0.35  N 
ATOM      3  C   ARG B   2     -14.493 -20.160 -31.046  1.00 20.79 LIG 0.24  C 
ATOM      4 O    ARG B   2     -14.830 -20.650 -32.144  1.00 18.81 LIG-0.27  OA
ATOM      5 H    LEU B   3     -14.639 -20.335 -29.113  1.00 21.09 LIG 0.16  HD
BRANCH 3 6
ATOM      6  CA  ARG B   2     -13.598 -18.929 -30.977  1.00 21.42 LIG 0.18  C 
BRANCH 6 7
ATOM      7  CB  ARG B   2     -12.260 -19.121 -31.699  1.00 36.36 LIG 0.04  C 
BRANCH 7 8
ATOM      8  CG  ARG B   2     -11.822 -17.865 -32.429  1.00 41.67 LIG 0.02  C 
BRANCH 8 9
ATOM      9  CD  ARG B   2     -10.390 -17.943 -32.959  1.00 51.14 LIG 0.14  C 
BRANCH 9 10
ATOM     10  NE  ARG B   2      -9.814 -16.604 -33.180  1.00 53.41 LIG-0.23  N 
ATOM     11 HE   ARG B   2      -9.742 -16.334 -33.994  1.00 53.41 LIG 0.18  HD
ATOM     12  CZ  ARG B   2      -9.392 -15.772 -32.220  1.00 50.83 LIG 0.67  C 
ATOM     13  NH1 ARG B   2      -9.469 -16.121 -30.942  1.00 40.00 LIG-0.23  N 
ATOM     14  NH2 ARG B   2      -8.880 -14.584 -32.547  1.00 54.23 LIG-0.23  N 
ATOM     15 1HH1 ARG B   2      -9.791 -16.888 -30.724  1.00 40.00 LIG 0.17  HD
ATOM     16 2HH1 ARG B   2      -9.195 -15.581 -30.331  1.00 40.00 LIG 0.17  HD
ATOM     17 1HH2 ARG B   2      -8.821 -14.354 -33.373  1.00 54.23 LIG 0.17  HD
ATOM     18 2HH2 ARG B   2      -8.609 -14.049 -31.931  1.00 54.23 LIG 0.17  HD
ENDBRANCH 9 10
ENDBRANCH 8 9
ENDBRANCH 7 8
ENDBRANCH 6 7
BRANCH 6 19
ATOM     19  N   ARG B   2     -13.405 -18.599 -29.581  1.00 29.89 LIG-0.35  N 
ATOM     20  C   ASN B   1     -14.386 -18.052 -28.877  1.00 39.87 LIG 0.25  C 
ATOM     21 O    ASN B   1     -15.363 -17.504 -29.406  1.00 37.46 LIG-0.27  OA
ATOM     22 H    ARG B   2     -12.625 -18.784 -29.269  1.00 29.89 LIG 0.16  HD
BRANCH 20 23
ATOM     23  CA  ASN B   1     -14.233 -18.128 -27.347  1.00 47.73 LIG 0.28  C 
BRANCH 23 24
ATOM     24  N   ASN B   1     -14.180 -19.469 -26.817  1.00 51.86 LIG-0.07  N 
ATOM     25 H3   ASN B   1     -14.972 -19.861 -26.922  1.00 51.86 LIG 0.28  HD
ATOM     26 H1   ASN B   1     -13.559 -19.935 -27.251  1.00 51.86 LIG 0.28  HD
ATOM     27 H2   ASN B   1     -13.977 -19.437 -25.951  1.00 51.86 LIG 0.28  HD
ENDBRANCH 23 24
BRANCH 23 28
ATOM     28  CB  ASN B   1     -13.011 -17.386 -26.845  1.00 49.79 LIG 0.14  C 
BRANCH 28 29
ATOM     29  CG  ASN B   1     -12.939 -17.404 -25.336  1.00 59.47 LIG 0.22  C 
ATOM     30  ND2 ASN B   1     -12.881 -16.218 -24.721  1.00 63.81 LIG-0.37  N 
ATOM     31 21HD ASN B   1     -12.816 -16.180 -23.865  1.00 63.81 LIG 0.16  HD
ATOM     32 22HD ASN B   1     -12.909 -15.493 -25.183  1.00 63.81 LIG 0.16  HD
ATOM     33 OD1  ASN B   1     -12.903 -18.470 -24.727  1.00 60.25 LIG-0.27  OA
ENDBRANCH 28 29
ENDBRANCH 23 28
ENDBRANCH 20 23
ENDBRANCH 6 19
ENDBRANCH 3 6
ENDBRANCH 1 2
BRANCH 1 34
ATOM     34  CB  LEU B   3     -15.098 -22.675 -28.489  1.00 28.79 LIG 0.04  C 
BRANCH 34 35
ATOM     35  CG  LEU B   3     -14.059 -23.766 -28.769  1.00 33.15 LIG-0.02  C 
ATOM     36  CD2 LEU B   3     -14.352 -24.402 -30.121  1.00 30.13 LIG 0.01  C 
ATOM     37  CD1 LEU B   3     -13.977 -24.866 -27.669  1.00 27.67 LIG 0.01  C 
ENDBRANCH 34 35
ENDBRANCH 1 34
BRANCH 1 38
ATOM     38  C   LEU B   3     -17.003 -21.757 -29.895  1.00 20.33 LIG 0.24  C 
ATOM     39  N   LEU B   4     -17.700 -22.867 -30.119  1.00 23.83 LIG-0.35  N 
ATOM     40 H    LEU B   4     -17.351 -23.648 -30.204  1.00 23.83 LIG 0.16  HD
ATOM     41 O    LEU B   3     -17.534 -20.657 -29.770  1.00 22.70 LIG-0.27  OA
BRANCH 39 42
ATOM     42  CA  LEU B   4     -19.152 -22.828 -30.240  1.00 22.91 LIG 0.18  C 
BRANCH 42 43
ATOM     43  C   LEU B   4     -19.509 -22.151 -31.567  1.00 30.74 LIG 0.24  C 
ATOM     44 O    LEU B   4     -19.152 -20.964 -31.813  1.00 30.11 LIG-0.27  OA
ATOM     45  N   LEU B   5     -20.234 -22.854 -32.427  1.00 32.41 LIG-0.35  N 
ATOM     46 H    LEU B   5     -20.449 -23.683 -32.343  1.00 32.41 LIG 0.16  HD
BRANCH 45 47
ATOM     47  CA  LEU B   5     -20.725 -22.182 -33.637  1.00 35.50 LIG 0.18  C 
BRANCH 47 48
ATOM     48  C   LEU B   5     -22.086 -21.546 -33.381  1.00 33.38 LIG 0.24  C 
ATOM     49 O    LEU B   5     -22.515 -20.621 -34.106  1.00 25.58 LIG-0.27  OA
ATOM     50  N   THR B   6     -22.745 -22.050 -32.343  1.00 32.99 LIG-0.34  N 
ATOM     51 H    THR B   6     -22.503 -22.773 -31.945  1.00 32.99 LIG 0.16  HD
BRANCH 50 52
ATOM     52  CA  THR B   6     -23.939 -21.447 -31.767  1.00 39.09 LIG 0.19  C 
BRANCH 52 53
ATOM     53  CB  THR B   6     -25.204 -21.857 -32.569  1.00 66.99 LIG 0.14  C 
ATOM     54  CG2 THR B   6     -26.450 -21.746 -31.712  1.00 64.52 LIG 0.04  C 
BRANCH 53 55
ATOM     55 OG1  THR B   6     -25.356 -20.996 -33.715  1.00 68.32 LIG-0.39  OA
ATOM     56 HG1  THR B   6     -25.625 -20.241 -33.465  1.00 68.32 LIG 0.21  HD
ENDBRANCH 53 55
ENDBRANCH 52 53
BRANCH 52 57
ATOM     57  C   THR B   6     -24.093 -21.941 -30.321  1.00 46.48 LIG 0.22  C 
ATOM     58 O    THR B   6     -23.729 -23.082 -29.998  1.00 50.47 LIG-0.29  OA
ENDBRANCH 52 57
ENDBRANCH 50 52
ENDBRANCH 47 48
BRANCH 47 59
ATOM     59  CB  LEU B   5     -20.862 -23.162 -34.795  1.00 41.25 LIG 0.04  C 
BRANCH 59 60
ATOM     60  CG  LEU B   5     -21.949 -24.221 -34.709  1.00 47.99 LIG-0.02  C 
ATOM     61  CD2 LEU B   5     -21.477 -25.507 -35.329  1.00 50.88 LIG 0.01  C 
ATOM     62  CD1 LEU B   5     -23.167 -23.704 -35.446  1.00 54.72 LIG 0.01  C 
ENDBRANCH 59 60
ENDBRANCH 47 59
ENDBRANCH 45 47
ENDBRANCH 42 43
BRANCH 42 63
ATOM     63  CB  LEU B   4     -19.684 -21.967 -29.113  1.00 23.96 LIG 0.04  C 
BRANCH 63 64
ATOM     64  CG  LEU B   4     -21.107 -22.047 -28.607  1.00 38.52 LIG-0.02  C 
ATOM     65  CD1 LEU B   4     -21.211 -22.904 -27.399  1.00 46.71 LIG 0.01  C 
ATOM     66  CD2 LEU B   4     -21.621 -20.621 -28.354  1.00 36.33 LIG 0.01  C 
ENDBRANCH 63 64
ENDBRANCH 42 63
ENDBRANCH 39 42
ENDBRANCH 1 38
TORSDOF 26
ENDMDL
MODEL 60
USER: ADFR SOLUTION from run 156
USER: SCORE 21.034304 LL:  -4.412 LR: -18.648 RR:   0.000 FEB: -10.892
USER: RMSD 12.059876
USER: SEED 155
USER: STATUS no improvement in best in 25 clusters for 5 generations
USER: GENES 28
USER: genes 0 Translation |==|  0.57314 0.58553 0.36878
USER: genes 1 Rotation |==|  0.69481 0.25538 0.11157 0.53653
USER: genes 2 Torsion [C]-CA--N-[C] |==|  0.60370
USER: genes 3 Torsion [N]-C--CA-[N] |==|  0.41632
USER: genes 4 Torsion [C]-CA--CB-[CG] |==|  0.95393
USER: genes 5 Torsion [CA]-CB--CG-[CD] |==|  0.54971
USER: genes 6 Torsion [CB]-CG--CD-[NE] |==|  0.52278
USER: genes 7 Torsion [CG]-CD--NE-[HE] |==|  0.20410
USER: genes 8 Torsion [C]-CA--N-[C] |==|  0.82733
USER: genes 9 Torsion [N]-C--CA-[N] |==|  0.34493
USER: genes 10 Torsion [C]-CA--N-[H3] |==|  0.26866
USER: genes 11 Torsion [C]-CA--CB-[CG] |==|  0.57274
USER: genes 12 Torsion [CA]-CB--CG-[ND2] |==|  0.71053
USER: genes 13 Torsion [N]-CA--CB-[CG] |==|  0.16784
USER: genes 14 Torsion [CA]-CB--CG-[CD1] |==|  0.29852
USER: genes 15 Torsion [N]-CA--C-[N] |==|  0.41884
USER: genes 16 Torsion [C]-N--CA-[CB] |==|  0.40642
USER: genes 17 Torsion [N]-CA--C-[N] |==|  0.56348
USER: genes 18 Torsion [C]-N--CA-[C] |==|  0.65783
USER: genes 19 Torsion [N]-CA--C-[N] |==|  0.46711
USER: genes 20 Torsion [C]-N--CA-[C] |==|  0.63458
USER: genes 21 Torsion [N]-CA--CB-[CG2] |==|  0.44326
USER: genes 22 Torsion [CA]-CB--OG1-[HG1] |==|  0.48419
USER: genes 23 Torsion [N]-CA--C-[O] |==|  0.00724
USER: genes 24 Torsion [N]-CA--CB-[CG] |==|  0.70553
USER: genes 25 Torsion [CA]-CB--CG-[CD2] |==|  0.62795
USER: genes 26 Torsion [N]-CA--CB-[CG] |==|  0.67738
USER: genes 27 Torsion [CA]-CB--CG-[CD1] |==|  0.19819
ROOT
ATOM      1  CA  LEU B   3     -16.292 -20.754 -31.073  1.00 17.18 LIG 0.18  C 
ENDROOT
BRANCH 1 2
ATOM      2  N   LEU B   3     -16.080 -19.410 -30.683  1.00 21.09 LIG-0.35  N 
ATOM      3  C   ARG B   2     -15.294 -18.601 -31.388  1.00 20.79 LIG 0.24  C 
ATOM      4 O    ARG B   2     -14.761 -18.928 -32.469  1.00 18.81 LIG-0.27  OA
ATOM      5 H    LEU B   3     -16.496 -19.175 -29.968  1.00 21.09 LIG 0.16  HD
BRANCH 3 6
ATOM      6  CA  ARG B   2     -15.012 -17.247 -30.750  1.00 21.42 LIG 0.18  C 
BRANCH 6 7
ATOM      7  CB  ARG B   2     -16.083 -16.200 -31.073  1.00 36.36 LIG 0.04  C 
BRANCH 7 8
ATOM      8  CG  ARG B   2     -16.944 -16.611 -32.252  1.00 41.67 LIG 0.02  C 
BRANCH 8 9
ATOM      9  CD  ARG B   2     -17.715 -15.445 -32.875  1.00 51.14 LIG 0.14  C 
BRANCH 9 10
ATOM     10  NE  ARG B   2     -18.684 -15.906 -33.886  1.00 53.41 LIG-0.23  N 
ATOM     11 HE   ARG B   2     -19.395 -16.296 -33.601  1.00 53.41 LIG 0.18  HD
ATOM     12  CZ  ARG B   2     -18.549 -15.768 -35.210  1.00 50.83 LIG 0.67  C 
ATOM     13  NH1 ARG B   2     -17.477 -15.178 -35.722  1.00 40.00 LIG-0.23  N 
ATOM     14  NH2 ARG B   2     -19.495 -16.235 -36.027  1.00 54.23 LIG-0.23  N 
ATOM     15 1HH1 ARG B   2     -16.860 -14.881 -35.203  1.00 40.00 LIG 0.17  HD
ATOM     16 2HH1 ARG B   2     -17.398 -15.093 -36.575  1.00 40.00 LIG 0.17  HD
ATOM     17 1HH2 ARG B   2     -20.190 -16.625 -35.702  1.00 54.23 LIG 0.17  HD
ATOM     18 2HH2 ARG B   2     -19.410 -16.147 -36.878  1.00 54.23 LIG 0.17  HD
ENDBRANCH 9 10
ENDBRANCH 8 9
ENDBRANCH 7 8
ENDBRANCH 6 7
BRANCH 6 19
ATOM     19  N   ARG B   2     -13.701 -16.816 -31.184  1.00 29.89 LIG-0.35  N 
ATOM     20  C   ASN B   1     -12.624 -17.525 -30.875  1.00 39.87 LIG 0.25  C 
ATOM     21 O    ASN B   1     -12.616 -18.366 -29.967  1.00 37.46 LIG-0.27  OA
ATOM     22 H    ARG B   2     -13.691 -16.087 -31.641  1.00 29.89 LIG 0.16  HD
BRANCH 20 23
ATOM     23  CA  ASN B   1     -11.367 -17.229 -31.714  1.00 47.73 LIG 0.28  C 
BRANCH 23 24
ATOM     24  N   ASN B   1     -10.206 -16.857 -30.942  1.00 51.86 LIG-0.07  N 
ATOM     25 H3   ASN B   1      -9.693 -17.573 -30.815  1.00 51.86 LIG 0.28  HD
ATOM     26 H1   ASN B   1      -9.745 -16.235 -31.381  1.00 51.86 LIG 0.28  HD
ATOM     27 H2   ASN B   1     -10.465 -16.534 -30.154  1.00 51.86 LIG 0.28  HD
ENDBRANCH 23 24
BRANCH 23 28
ATOM     28  CB  ASN B   1     -10.974 -18.388 -32.607  1.00 49.79 LIG 0.14  C 
BRANCH 28 29
ATOM     29  CG  ASN B   1      -9.494 -18.370 -32.911  1.00 59.47 LIG 0.22  C 
ATOM     30  ND2 ASN B   1      -9.134 -17.953 -34.129  1.00 63.81 LIG-0.37  N 
ATOM     31 21HD ASN B   1      -8.304 -17.948 -34.354  1.00 63.81 LIG 0.16  HD
ATOM     32 22HD ASN B   1      -9.732 -17.689 -34.688  1.00 63.81 LIG 0.16  HD
ATOM     33 OD1  ASN B   1      -8.682 -18.757 -32.075  1.00 60.25 LIG-0.27  OA
ENDBRANCH 28 29
ENDBRANCH 23 28
ENDBRANCH 20 23
ENDBRANCH 6 19
ENDBRANCH 3 6
ENDBRANCH 1 2
BRANCH 1 34
ATOM     34  CB  LEU B   3     -15.261 -21.678 -30.366  1.00 28.79 LIG 0.04  C 
BRANCH 34 35
ATOM     35  CG  LEU B   3     -15.394 -21.602 -28.841  1.00 33.15 LIG-0.02  C 
ATOM     36  CD2 LEU B   3     -14.025 -21.330 -28.232  1.00 30.13 LIG 0.01  C 
ATOM     37  CD1 LEU B   3     -16.025 -22.868 -28.191  1.00 27.67 LIG 0.01  C 
ENDBRANCH 34 35
ENDBRANCH 1 34
BRANCH 1 38
ATOM     38  C   LEU B   3     -17.714 -21.202 -30.818  1.00 20.33 LIG 0.24  C 
ATOM     39  N   LEU B   4     -18.181 -22.140 -31.636  1.00 23.83 LIG-0.35  N 
ATOM     40 H    LEU B   4     -17.730 -22.490 -32.279  1.00 23.83 LIG 0.16  HD
ATOM     41 O    LEU B   3     -18.383 -20.730 -29.903  1.00 22.70 LIG-0.27  OA
BRANCH 39 42
ATOM     42  CA  LEU B   4     -19.539 -22.652 -31.492  1.00 22.91 LIG 0.18  C 
BRANCH 42 43
ATOM     43  C   LEU B   4     -19.481 -23.953 -30.684  1.00 30.74 LIG 0.24  C 
ATOM     44 O    LEU B   4     -18.497 -24.215 -29.935  1.00 30.11 LIG-0.27  OA
ATOM     45  N   LEU B   5     -20.491 -24.800 -30.831  1.00 32.41 LIG-0.35  N 
ATOM     46 H    LEU B   5     -21.213 -24.648 -31.272  1.00 32.41 LIG 0.16  HD
BRANCH 45 47
ATOM     47  CA  LEU B   5     -20.391 -26.119 -30.194  1.00 35.50 LIG 0.18  C 
BRANCH 47 48
ATOM     48  C   LEU B   5     -20.547 -27.226 -31.231  1.00 33.38 LIG 0.24  C 
ATOM     49 O    LEU B   5     -20.951 -26.978 -32.388  1.00 25.58 LIG-0.27  OA
ATOM     50  N   THR B   6     -20.227 -28.441 -30.795  1.00 32.99 LIG-0.34  N 
ATOM     51 H    THR B   6     -19.820 -28.575 -30.049  1.00 32.99 LIG 0.16  HD
BRANCH 50 52
ATOM     52  CA  THR B   6     -20.523 -29.669 -31.519  1.00 39.09 LIG 0.19  C 
BRANCH 52 53
ATOM     53  CB  THR B   6     -19.223 -30.299 -32.088  1.00 66.99 LIG 0.14  C 
ATOM     54  CG2 THR B   6     -19.421 -31.771 -32.391  1.00 64.52 LIG 0.04  C 
BRANCH 53 55
ATOM     55 OG1  THR B   6     -18.845 -29.625 -33.305  1.00 68.32 LIG-0.39  OA
ATOM     56 HG1  THR B   6     -18.102 -29.915 -33.567  1.00 68.32 LIG 0.21  HD
ENDBRANCH 53 55
ENDBRANCH 52 53
BRANCH 52 57
ATOM     57  C   THR B   6     -21.170 -30.669 -30.550  1.00 46.48 LIG 0.22  C 
ATOM     58 O    THR B   6     -21.405 -30.352 -29.374  1.00 50.47 LIG-0.29  OA
ENDBRANCH 52 57
ENDBRANCH 50 52
ENDBRANCH 47 48
BRANCH 47 59
ATOM     59  CB  LEU B   5     -21.466 -26.301 -29.131  1.00 41.25 LIG 0.04  C 
BRANCH 59 60
ATOM     60  CG  LEU B   5     -21.045 -26.236 -27.671  1.00 47.99 LIG-0.02  C 
ATOM     61  CD2 LEU B   5     -21.661 -27.370 -26.899  1.00 50.88 LIG 0.01  C 
ATOM     62  CD1 LEU B   5     -21.509 -24.909 -27.108  1.00 54.72 LIG 0.01  C 
ENDBRANCH 59 60
ENDBRANCH 47 59
ENDBRANCH 45 47
ENDBRANCH 42 43
BRANCH 42 63
ATOM     63  CB  LEU B   4     -20.055 -22.980 -32.878  1.00 23.96 LIG 0.04  C 
BRANCH 63 64
ATOM     64  CG  LEU B   4     -21.230 -22.272 -33.515  1.00 38.52 LIG-0.02  C 
ATOM     65  CD1 LEU B   4     -20.889 -20.879 -33.897  1.00 46.71 LIG 0.01  C 
ATOM     66  CD2 LEU B   4     -21.713 -23.102 -34.715  1.00 36.33 LIG 0.01  C 
ENDBRANCH 63 64
ENDBRANCH 42 63
ENDBRANCH 39 42
ENDBRANCH 1 38
TORSDOF 26
ENDMDL
MODEL 61
USER: ADFR SOLUTION from run 38
USER: SCORE 21.860177 LL:  -4.273 LR: -18.640 RR:   0.000 FEB: -10.884
USER: RMSD 11.549665
USER: SEED 37
USER: STATUS searching
USER: GENES 28
USER: genes 0 Translation |==|  0.56239 0.53597 0.41087
USER: genes 1 Rotation |==|  0.23273 0.82381 0.77130 0.51055
USER: genes 2 Torsion [C]-CA--N-[C] |==|  0.69345
USER: genes 3 Torsion [N]-C--CA-[N] |==|  0.16588
USER: genes 4 Torsion [C]-CA--CB-[CG] |==|  0.40018
USER: genes 5 Torsion [CA]-CB--CG-[CD] |==|  0.63494
USER: genes 6 Torsion [CB]-CG--CD-[NE] |==|  0.25913
USER: genes 7 Torsion [CG]-CD--NE-[HE] |==|  0.95378
USER: genes 8 Torsion [C]-CA--N-[C] |==|  0.73100
USER: genes 9 Torsion [N]-C--CA-[N] |==|  0.86028
USER: genes 10 Torsion [C]-CA--N-[H3] |==|  0.77220
USER: genes 11 Torsion [C]-CA--CB-[CG] |==|  0.44526
USER: genes 12 Torsion [CA]-CB--CG-[ND2] |==|  0.63182
USER: genes 13 Torsion [N]-CA--CB-[CG] |==|  0.77165
USER: genes 14 Torsion [CA]-CB--CG-[CD1] |==|  0.41836
USER: genes 15 Torsion [N]-CA--C-[N] |==|  0.05889
USER: genes 16 Torsion [C]-N--CA-[CB] |==|  0.79444
USER: genes 17 Torsion [N]-CA--C-[N] |==|  0.19790
USER: genes 18 Torsion [C]-N--CA-[C] |==|  0.54580
USER: genes 19 Torsion [N]-CA--C-[N] |==|  0.46420
USER: genes 20 Torsion [C]-N--CA-[C] |==|  0.65962
USER: genes 21 Torsion [N]-CA--CB-[CG2] |==|  0.60253
USER: genes 22 Torsion [CA]-CB--OG1-[HG1] |==|  0.16728
USER: genes 23 Torsion [N]-CA--C-[O] |==|  0.96370
USER: genes 24 Torsion [N]-CA--CB-[CG] |==|  0.64125
USER: genes 25 Torsion [CA]-CB--CG-[CD2] |==|  0.62686
USER: genes 26 Torsion [N]-CA--CB-[CG] |==|  0.63695
USER: genes 27 Torsion [CA]-CB--CG-[CD1] |==|  0.57848
ROOT
ATOM      1  CA  LEU B   3     -16.558 -21.981 -30.189  1.00 17.18 LIG 0.18  C 
ENDROOT
BRANCH 1 2
ATOM      2  N   LEU B   3     -16.308 -20.589 -30.223  1.00 21.09 LIG-0.35  N 
ATOM      3  C   ARG B   2     -15.525 -20.048 -31.152  1.00 20.79 LIG 0.24  C 
ATOM      4 O    ARG B   2     -15.026 -20.697 -32.095  1.00 18.81 LIG-0.27  OA
ATOM      5 H    LEU B   3     -16.701 -20.140 -29.603  1.00 21.09 LIG 0.16  HD
BRANCH 3 6
ATOM      6  CA  ARG B   2     -15.199 -18.574 -30.953  1.00 21.42 LIG 0.18  C 
BRANCH 6 7
ATOM      7  CB  ARG B   2     -14.364 -17.987 -32.097  1.00 36.36 LIG 0.04  C 
BRANCH 7 8
ATOM      8  CG  ARG B   2     -14.743 -16.550 -32.400  1.00 41.67 LIG 0.02  C 
BRANCH 8 9
ATOM      9  CD  ARG B   2     -14.970 -16.286 -33.889  1.00 51.14 LIG 0.14  C 
BRANCH 9 10
ATOM     10  NE  ARG B   2     -16.389 -16.434 -34.262  1.00 53.41 LIG-0.23  N 
ATOM     11 HE   ARG B   2     -16.900 -16.852 -33.710  1.00 53.41 LIG 0.18  HD
ATOM     12  CZ  ARG B   2     -16.949 -15.974 -35.387  1.00 50.83 LIG 0.67  C 
ATOM     13  NH1 ARG B   2     -16.221 -15.322 -36.286  1.00 40.00 LIG-0.23  N 
ATOM     14  NH2 ARG B   2     -18.247 -16.178 -35.616  1.00 54.23 LIG-0.23  N 
ATOM     15 1HH1 ARG B   2     -15.383 -15.193 -36.148  1.00 40.00 LIG 0.17  HD
ATOM     16 2HH1 ARG B   2     -16.589 -15.030 -37.006  1.00 40.00 LIG 0.17  HD
ATOM     17 1HH2 ARG B   2     -18.723 -16.606 -35.042  1.00 54.23 LIG 0.17  HD
ATOM     18 2HH2 ARG B   2     -18.608 -15.883 -36.338  1.00 54.23 LIG 0.17  HD
ENDBRANCH 9 10
ENDBRANCH 8 9
ENDBRANCH 7 8
ENDBRANCH 6 7
BRANCH 6 19
ATOM     19  N   ARG B   2     -14.526 -18.435 -29.680  1.00 29.89 LIG-0.35  N 
ATOM     20  C   ASN B   1     -15.204 -18.084 -28.596  1.00 39.87 LIG 0.25  C 
ATOM     21 O    ASN B   1     -16.321 -17.551 -28.650  1.00 37.46 LIG-0.27  OA
ATOM     22 H    ARG B   2     -13.681 -18.596 -29.696  1.00 29.89 LIG 0.16  HD
BRANCH 20 23
ATOM     23  CA  ASN B   1     -14.509 -18.369 -27.252  1.00 47.73 LIG 0.28  C 
BRANCH 23 24
ATOM     24  N   ASN B   1     -14.009 -19.714 -27.110  1.00 51.86 LIG-0.07  N 
ATOM     25 H3   ASN B   1     -14.672 -20.252 -26.862  1.00 51.86 LIG 0.28  HD
ATOM     26 H1   ASN B   1     -13.678 -19.991 -27.889  1.00 51.86 LIG 0.28  HD
ATOM     27 H2   ASN B   1     -13.368 -19.729 -26.493  1.00 51.86 LIG 0.28  HD
ENDBRANCH 23 24
BRANCH 23 28
ATOM     28  CB  ASN B   1     -13.360 -17.420 -26.976  1.00 49.79 LIG 0.14  C 
BRANCH 28 29
ATOM     29  CG  ASN B   1     -13.013 -17.390 -25.506  1.00 59.47 LIG 0.22  C 
ATOM     30  ND2 ASN B   1     -12.863 -16.185 -24.946  1.00 63.81 LIG-0.37  N 
ATOM     31 21HD ASN B   1     -12.643 -16.120 -24.118  1.00 63.81 LIG 0.16  HD
ATOM     32 22HD ASN B   1     -12.986 -15.475 -25.415  1.00 63.81 LIG 0.16  HD
ATOM     33 OD1  ASN B   1     -12.850 -18.436 -24.884  1.00 60.25 LIG-0.27  OA
ENDBRANCH 28 29
ENDBRANCH 23 28
ENDBRANCH 20 23
ENDBRANCH 6 19
ENDBRANCH 3 6
ENDBRANCH 1 2
BRANCH 1 34
ATOM     34  CB  LEU B   3     -16.183 -22.551 -28.792  1.00 28.79 LIG 0.04  C 
BRANCH 34 35
ATOM     35  CG  LEU B   3     -14.679 -22.826 -28.686  1.00 33.15 LIG-0.02  C 
ATOM     36  CD2 LEU B   3     -14.383 -24.214 -29.239  1.00 30.13 LIG 0.01  C 
ATOM     37  CD1 LEU B   3     -14.106 -22.694 -27.244  1.00 27.67 LIG 0.01  C 
ENDBRANCH 34 35
ENDBRANCH 1 34
BRANCH 1 38
ATOM     38  C   LEU B   3     -17.985 -22.312 -30.565  1.00 20.33 LIG 0.24  C 
ATOM     39  N   LEU B   4     -18.629 -21.385 -31.266  1.00 23.83 LIG-0.35  N 
ATOM     40 H    LEU B   4     -18.286 -20.634 -31.507  1.00 23.83 LIG 0.16  HD
ATOM     41 O    LEU B   3     -18.504 -23.378 -30.246  1.00 22.70 LIG-0.27  OA
BRANCH 39 42
ATOM     42  CA  LEU B   4     -20.010 -21.588 -31.687  1.00 22.91 LIG 0.18  C 
BRANCH 42 43
ATOM     43  C   LEU B   4     -20.788 -22.199 -30.517  1.00 30.74 LIG 0.24  C 
ATOM     44 O    LEU B   4     -21.195 -23.394 -30.555  1.00 30.11 LIG-0.27  OA
ATOM     45  N   LEU B   5     -21.040 -21.408 -29.482  1.00 32.41 LIG-0.35  N 
ATOM     46 H    LEU B   5     -20.734 -20.612 -29.373  1.00 32.41 LIG 0.16  HD
BRANCH 45 47
ATOM     47  CA  LEU B   5     -21.915 -21.914 -28.417  1.00 35.50 LIG 0.18  C 
BRANCH 47 48
ATOM     48  C   LEU B   5     -22.413 -20.768 -27.544  1.00 33.38 LIG 0.24  C 
ATOM     49 O    LEU B   5     -21.895 -19.631 -27.612  1.00 25.58 LIG-0.27  OA
ATOM     50  N   THR B   6     -23.413 -21.087 -26.729  1.00 32.99 LIG-0.34  N 
ATOM     51 H    THR B   6     -23.847 -21.827 -26.794  1.00 32.99 LIG 0.16  HD
BRANCH 50 52
ATOM     52  CA  THR B   6     -23.883 -20.235 -25.646  1.00 39.09 LIG 0.19  C 
BRANCH 52 53
ATOM     53  CB  THR B   6     -25.363 -19.825 -25.873  1.00 66.99 LIG 0.14  C 
ATOM     54  CG2 THR B   6     -25.606 -18.399 -25.419  1.00 64.52 LIG 0.04  C 
BRANCH 53 55
ATOM     55 OG1  THR B   6     -25.688 -19.923 -27.274  1.00 68.32 LIG-0.39  OA
ATOM     56 HG1  THR B   6     -25.580 -20.715 -27.532  1.00 68.32 LIG 0.21  HD
ENDBRANCH 53 55
ENDBRANCH 52 53
BRANCH 52 57
ATOM     57  C   THR B   6     -23.787 -21.016 -24.327  1.00 46.48 LIG 0.22  C 
ATOM     58 O    THR B   6     -23.595 -22.241 -24.327  1.00 50.47 LIG-0.29  OA
ENDBRANCH 52 57
ENDBRANCH 50 52
ENDBRANCH 47 48
BRANCH 47 59
ATOM     59  CB  LEU B   5     -21.182 -22.911 -27.529  1.00 41.25 LIG 0.04  C 
BRANCH 59 60
ATOM     60  CG  LEU B   5     -21.844 -24.254 -27.265  1.00 47.99 LIG-0.02  C 
ATOM     61  CD2 LEU B   5     -21.765 -24.598 -25.804  1.00 50.88 LIG 0.01  C 
ATOM     62  CD1 LEU B   5     -21.122 -25.302 -28.087  1.00 54.72 LIG 0.01  C 
ENDBRANCH 59 60
ENDBRANCH 47 59
ENDBRANCH 45 47
ENDBRANCH 42 43
BRANCH 42 63
ATOM     63  CB  LEU B   4     -20.001 -22.592 -32.823  1.00 23.96 LIG 0.04  C 
BRANCH 63 64
ATOM     64  CG  LEU B   4     -20.730 -22.372 -34.130  1.00 38.52 LIG-0.02  C 
ATOM     65  CD1 LEU B   4     -21.133 -23.657 -34.755  1.00 46.71 LIG 0.01  C 
ATOM     66  CD2 LEU B   4     -21.931 -21.449 -33.874  1.00 36.33 LIG 0.01  C 
ENDBRANCH 63 64
ENDBRANCH 42 63
ENDBRANCH 39 42
ENDBRANCH 1 38
TORSDOF 26
ENDMDL
MODEL 62
USER: ADFR SOLUTION from run 153
USER: SCORE 22.517063 LL:  -4.300 LR: -18.632 RR:   0.000 FEB: -10.876
USER: RMSD 11.206827
USER: SEED 152
USER: STATUS no improvement in best in 8 clusters for 5 generations
USER: GENES 28
USER: genes 0 Translation |==|  0.58487 0.56260 0.41323
USER: genes 1 Rotation |==|  0.62400 0.37039 0.03351 0.51461
USER: genes 2 Torsion [C]-CA--N-[C] |==|  0.71546
USER: genes 3 Torsion [N]-C--CA-[N] |==|  0.32778
USER: genes 4 Torsion [C]-CA--CB-[CG] |==|  0.49879
USER: genes 5 Torsion [CA]-CB--CG-[CD] |==|  0.93311
USER: genes 6 Torsion [CB]-CG--CD-[NE] |==|  0.51832
USER: genes 7 Torsion [CG]-CD--NE-[HE] |==|  0.17389
USER: genes 8 Torsion [C]-CA--N-[C] |==|  0.82106
USER: genes 9 Torsion [N]-C--CA-[N] |==|  0.37026
USER: genes 10 Torsion [C]-CA--N-[H3] |==|  0.44768
USER: genes 11 Torsion [C]-CA--CB-[CG] |==|  0.10777
USER: genes 12 Torsion [CA]-CB--CG-[ND2] |==|  0.22464
USER: genes 13 Torsion [N]-CA--CB-[CG] |==|  0.23206
USER: genes 14 Torsion [CA]-CB--CG-[CD1] |==|  0.45670
USER: genes 15 Torsion [N]-CA--C-[N] |==|  0.43153
USER: genes 16 Torsion [C]-N--CA-[CB] |==|  0.85515
USER: genes 17 Torsion [N]-CA--C-[N] |==|  0.38954
USER: genes 18 Torsion [C]-N--CA-[C] |==|  0.76809
USER: genes 19 Torsion [N]-CA--C-[N] |==|  0.45112
USER: genes 20 Torsion [C]-N--CA-[C] |==|  0.57122
USER: genes 21 Torsion [N]-CA--CB-[CG2] |==|  0.42401
USER: genes 22 Torsion [CA]-CB--OG1-[HG1] |==|  0.45228
USER: genes 23 Torsion [N]-CA--C-[O] |==|  0.13448
USER: genes 24 Torsion [N]-CA--CB-[CG] |==|  0.10883
USER: genes 25 Torsion [CA]-CB--CG-[CD2] |==|  0.59425
USER: genes 26 Torsion [N]-CA--CB-[CG] |==|  0.58342
USER: genes 27 Torsion [CA]-CB--CG-[CD1] |==|  0.71571
ROOT
ATOM      1  CA  LEU B   3     -16.002 -21.322 -30.139  1.00 17.18 LIG 0.18  C 
ENDROOT
BRANCH 1 2
ATOM      2  N   LEU B   3     -15.502 -20.352 -29.237  1.00 21.09 LIG-0.35  N 
ATOM      3  C   ARG B   2     -15.596 -19.051 -29.497  1.00 20.79 LIG 0.24  C 
ATOM      4 O    ARG B   2     -16.192 -18.589 -30.493  1.00 18.81 LIG-0.27  OA
ATOM      5 H    LEU B   3     -15.143 -20.677 -28.526  1.00 21.09 LIG 0.16  HD
BRANCH 3 6
ATOM      6  CA  ARG B   2     -14.853 -18.138 -28.531  1.00 21.42 LIG 0.18  C 
BRANCH 6 7
ATOM      7  CB  ARG B   2     -15.782 -17.176 -27.783  1.00 36.36 LIG 0.04  C 
BRANCH 7 8
ATOM      8  CG  ARG B   2     -15.023 -16.284 -26.820  1.00 41.67 LIG 0.02  C 
BRANCH 8 9
ATOM      9  CD  ARG B   2     -13.689 -16.880 -26.367  1.00 51.14 LIG 0.14  C 
BRANCH 9 10
ATOM     10  NE  ARG B   2     -13.052 -16.064 -25.317  1.00 53.41 LIG-0.23  N 
ATOM     11 HE   ARG B   2     -13.475 -15.980 -24.572  1.00 53.41 LIG 0.18  HD
ATOM     12  CZ  ARG B   2     -11.872 -15.442 -25.425  1.00 50.83 LIG 0.67  C 
ATOM     13  NH1 ARG B   2     -11.166 -15.524 -26.545  1.00 40.00 LIG-0.23  N 
ATOM     14  NH2 ARG B   2     -11.403 -14.723 -24.404  1.00 54.23 LIG-0.23  N 
ATOM     15 1HH1 ARG B   2     -11.465 -15.980 -27.210  1.00 40.00 LIG 0.17  HD
ATOM     16 2HH1 ARG B   2     -10.408 -15.121 -26.607  1.00 40.00 LIG 0.17  HD
ATOM     17 1HH2 ARG B   2     -11.859 -14.660 -23.677  1.00 54.23 LIG 0.17  HD
ATOM     18 2HH2 ARG B   2     -10.645 -14.324 -24.472  1.00 54.23 LIG 0.17  HD
ENDBRANCH 9 10
ENDBRANCH 8 9
ENDBRANCH 7 8
ENDBRANCH 6 7
BRANCH 6 19
ATOM     19  N   ARG B   2     -13.844 -17.423 -29.283  1.00 29.89 LIG-0.35  N 
ATOM     20  C   ASN B   1     -12.840 -18.077 -29.852  1.00 39.87 LIG 0.25  C 
ATOM     21 O    ASN B   1     -12.520 -19.227 -29.522  1.00 37.46 LIG-0.27  OA
ATOM     22 H    ARG B   2     -13.956 -16.571 -29.322  1.00 29.89 LIG 0.16  HD
BRANCH 20 23
ATOM     23  CA  ASN B   1     -12.081 -17.310 -30.950  1.00 47.73 LIG 0.28  C 
BRANCH 23 24
ATOM     24  N   ASN B   1     -10.645 -17.372 -30.839  1.00 51.86 LIG-0.07  N 
ATOM     25 H3   ASN B   1     -10.277 -17.157 -31.620  1.00 51.86 LIG 0.28  HD
ATOM     26 H1   ASN B   1     -10.370 -16.800 -30.215  1.00 51.86 LIG 0.28  HD
ATOM     27 H2   ASN B   1     -10.400 -18.197 -30.613  1.00 51.86 LIG 0.28  HD
ENDBRANCH 23 24
BRANCH 23 28
ATOM     28  CB  ASN B   1     -12.455 -17.765 -32.346  1.00 49.79 LIG 0.14  C 
BRANCH 28 29
ATOM     29  CG  ASN B   1     -13.933 -18.058 -32.450  1.00 59.47 LIG 0.22  C 
ATOM     30  ND2 ASN B   1     -14.745 -17.009 -32.621  1.00 63.81 LIG-0.37  N 
ATOM     31 21HD ASN B   1     -15.596 -17.126 -32.663  1.00 63.81 LIG 0.16  HD
ATOM     32 22HD ASN B   1     -14.416 -16.217 -32.690  1.00 63.81 LIG 0.16  HD
ATOM     33 OD1  ASN B   1     -14.349 -19.208 -32.347  1.00 60.25 LIG-0.27  OA
ENDBRANCH 28 29
ENDBRANCH 23 28
ENDBRANCH 20 23
ENDBRANCH 6 19
ENDBRANCH 3 6
ENDBRANCH 1 2
BRANCH 1 34
ATOM     34  CB  LEU B   3     -14.939 -22.435 -30.360  1.00 28.79 LIG 0.04  C 
BRANCH 34 35
ATOM     35  CG  LEU B   3     -14.999 -23.492 -29.252  1.00 33.15 LIG-0.02  C 
ATOM     36  CD2 LEU B   3     -14.448 -22.899 -27.963  1.00 30.13 LIG 0.01  C 
ATOM     37  CD1 LEU B   3     -14.251 -24.815 -29.592  1.00 27.67 LIG 0.01  C 
ENDBRANCH 34 35
ENDBRANCH 1 34
BRANCH 1 38
ATOM     38  C   LEU B   3     -17.327 -21.893 -29.684  1.00 20.33 LIG 0.24  C 
ATOM     39  N   LEU B   4     -18.102 -22.391 -30.642  1.00 23.83 LIG-0.35  N 
ATOM     40 H    LEU B   4     -17.893 -22.404 -31.477  1.00 23.83 LIG 0.16  HD
ATOM     41 O    LEU B   3     -17.652 -21.899 -28.501  1.00 22.70 LIG-0.27  OA
BRANCH 39 42
ATOM     42  CA  LEU B   4     -19.403 -22.968 -30.329  1.00 22.91 LIG 0.18  C 
BRANCH 42 43
ATOM     43  C   LEU B   4     -20.305 -21.858 -29.780  1.00 30.74 LIG 0.24  C 
ATOM     44 O    LEU B   4     -19.862 -20.996 -28.970  1.00 30.11 LIG-0.27  OA
ATOM     45  N   LEU B   5     -21.574 -21.865 -30.167  1.00 32.41 LIG-0.35  N 
ATOM     46 H    LEU B   5     -21.914 -22.383 -30.763  1.00 32.41 LIG 0.16  HD
BRANCH 45 47
ATOM     47  CA  LEU B   5     -22.498 -20.912 -29.539  1.00 35.50 LIG 0.18  C 
BRANCH 47 48
ATOM     48  C   LEU B   5     -23.015 -21.463 -28.215  1.00 33.38 LIG 0.24  C 
ATOM     49 O    LEU B   5     -22.931 -22.681 -27.943  1.00 25.58 LIG-0.27  OA
ATOM     50  N   THR B   6     -23.551 -20.552 -27.409  1.00 32.99 LIG-0.34  N 
ATOM     51 H    THR B   6     -23.474 -19.707 -27.547  1.00 32.99 LIG 0.16  HD
BRANCH 50 52
ATOM     52  CA  THR B   6     -24.319 -20.874 -26.214  1.00 39.09 LIG 0.19  C 
BRANCH 52 53
ATOM     53  CB  THR B   6     -23.379 -21.067 -24.993  1.00 66.99 LIG 0.14  C 
ATOM     54  CG2 THR B   6     -24.097 -20.739 -23.698  1.00 64.52 LIG 0.04  C 
BRANCH 53 55
ATOM     55 OG1  THR B   6     -22.928 -22.435 -24.935  1.00 68.32 LIG-0.39  OA
ATOM     56 HG1  THR B   6     -22.255 -22.488 -24.435  1.00 68.32 LIG 0.21  HD
ENDBRANCH 53 55
ENDBRANCH 52 53
BRANCH 52 57
ATOM     57  C   THR B   6     -25.278 -19.713 -25.916  1.00 46.48 LIG 0.22  C 
ATOM     58 O    THR B   6     -25.989 -19.231 -26.812  1.00 50.47 LIG-0.29  OA
ENDBRANCH 52 57
ENDBRANCH 50 52
ENDBRANCH 47 48
BRANCH 47 59
ATOM     59  CB  LEU B   5     -23.693 -20.627 -30.441  1.00 41.25 LIG 0.04  C 
BRANCH 59 60
ATOM     60  CG  LEU B   5     -24.288 -21.786 -31.224  1.00 47.99 LIG-0.02  C 
ATOM     61  CD2 LEU B   5     -24.800 -21.308 -32.555  1.00 50.88 LIG 0.01  C 
ATOM     62  CD1 LEU B   5     -25.423 -22.369 -30.408  1.00 54.72 LIG 0.01  C 
ENDBRANCH 59 60
ENDBRANCH 47 59
ENDBRANCH 45 47
ENDBRANCH 42 43
BRANCH 42 63
ATOM     63  CB  LEU B   4     -19.198 -23.995 -29.234  1.00 23.96 LIG 0.04  C 
BRANCH 63 64
ATOM     64  CG  LEU B   4     -20.065 -25.225 -29.076  1.00 38.52 LIG-0.02  C 
ATOM     65  CD1 LEU B   4     -21.054 -25.061 -27.981  1.00 46.71 LIG 0.01  C 
ATOM     66  CD2 LEU B   4     -20.737 -25.529 -30.425  1.00 36.33 LIG 0.01  C 
ENDBRANCH 63 64
ENDBRANCH 42 63
ENDBRANCH 39 42
ENDBRANCH 1 38
TORSDOF 26
ENDMDL
MODEL 63
USER: ADFR SOLUTION from run 156
USER: SCORE 22.062642 LL:  -4.944 LR: -18.620 RR:   0.000 FEB: -10.865
USER: RMSD 11.470918
USER: SEED 155
USER: STATUS no improvement in best in 25 clusters for 5 generations
USER: GENES 28
USER: genes 0 Translation |==|  0.58442 0.59373 0.40440
USER: genes 1 Rotation |==|  0.32088 0.64790 0.94249 0.51576
USER: genes 2 Torsion [C]-CA--N-[C] |==|  0.52778
USER: genes 3 Torsion [N]-C--CA-[N] |==|  0.88694
USER: genes 4 Torsion [C]-CA--CB-[CG] |==|  0.53003
USER: genes 5 Torsion [CA]-CB--CG-[CD] |==|  0.75857
USER: genes 6 Torsion [CB]-CG--CD-[NE] |==|  0.41383
USER: genes 7 Torsion [CG]-CD--NE-[HE] |==|  0.02129
USER: genes 8 Torsion [C]-CA--N-[C] |==|  0.64015
USER: genes 9 Torsion [N]-C--CA-[N] |==|  0.31435
USER: genes 10 Torsion [C]-CA--N-[H3] |==|  0.37334
USER: genes 11 Torsion [C]-CA--CB-[CG] |==|  0.28645
USER: genes 12 Torsion [CA]-CB--CG-[ND2] |==|  0.83433
USER: genes 13 Torsion [N]-CA--CB-[CG] |==|  0.22718
USER: genes 14 Torsion [CA]-CB--CG-[CD1] |==|  0.47758
USER: genes 15 Torsion [N]-CA--C-[N] |==|  0.48570
USER: genes 16 Torsion [C]-N--CA-[CB] |==|  0.49089
USER: genes 17 Torsion [N]-CA--C-[N] |==|  0.45129
USER: genes 18 Torsion [C]-N--CA-[C] |==|  0.78305
USER: genes 19 Torsion [N]-CA--C-[N] |==|  0.92405
USER: genes 20 Torsion [C]-N--CA-[C] |==|  0.54490
USER: genes 21 Torsion [N]-CA--CB-[CG2] |==|  0.44627
USER: genes 22 Torsion [CA]-CB--OG1-[HG1] |==|  0.05861
USER: genes 23 Torsion [N]-CA--C-[O] |==|  0.83457
USER: genes 24 Torsion [N]-CA--CB-[CG] |==|  0.75925
USER: genes 25 Torsion [CA]-CB--CG-[CD2] |==|  0.17696
USER: genes 26 Torsion [N]-CA--CB-[CG] |==|  0.62411
USER: genes 27 Torsion [CA]-CB--CG-[CD1] |==|  0.16785
ROOT
ATOM      1  CA  LEU B   3     -16.013 -20.551 -30.325  1.00 17.18 LIG 0.18  C 
ENDROOT
BRANCH 1 2
ATOM      2  N   LEU B   3     -15.689 -19.559 -29.369  1.00 21.09 LIG-0.35  N 
ATOM      3  C   ARG B   2     -14.543 -18.888 -29.429  1.00 20.79 LIG 0.24  C 
ATOM      4 O    ARG B   2     -13.716 -19.017 -30.356  1.00 18.81 LIG-0.27  OA
ATOM      5 H    LEU B   3     -16.289 -19.435 -28.765  1.00 21.09 LIG 0.16  HD
BRANCH 3 6
ATOM      6  CA  ARG B   2     -14.250 -17.989 -28.234  1.00 21.42 LIG 0.18  C 
BRANCH 6 7
ATOM      7  CB  ARG B   2     -13.629 -18.746 -27.055  1.00 36.36 LIG 0.04  C 
BRANCH 7 8
ATOM      8  CG  ARG B   2     -13.588 -17.902 -25.795  1.00 41.67 LIG 0.02  C 
BRANCH 8 9
ATOM      9  CD  ARG B   2     -12.335 -17.030 -25.692  1.00 51.14 LIG 0.14  C 
BRANCH 9 10
ATOM     10  NE  ARG B   2     -12.599 -15.774 -24.967  1.00 53.41 LIG-0.23  N 
ATOM     11 HE   ARG B   2     -13.368 -15.690 -24.591  1.00 53.41 LIG 0.18  HD
ATOM     12  CZ  ARG B   2     -11.742 -14.754 -24.844  1.00 50.83 LIG 0.67  C 
ATOM     13  NH1 ARG B   2     -10.538 -14.811 -25.399  1.00 40.00 LIG-0.23  N 
ATOM     14  NH2 ARG B   2     -12.102 -13.662 -24.167  1.00 54.23 LIG-0.23  N 
ATOM     15 1HH1 ARG B   2     -10.303 -15.509 -25.843  1.00 40.00 LIG 0.17  HD
ATOM     16 2HH1 ARG B   2      -9.994 -14.151 -25.315  1.00 40.00 LIG 0.17  HD
ATOM     17 1HH2 ARG B   2     -12.883 -13.614 -23.810  1.00 54.23 LIG 0.17  HD
ATOM     18 2HH2 ARG B   2     -11.552 -13.006 -24.087  1.00 54.23 LIG 0.17  HD
ENDBRANCH 9 10
ENDBRANCH 8 9
ENDBRANCH 7 8
ENDBRANCH 6 7
BRANCH 6 19
ATOM     19  N   ARG B   2     -15.484 -17.337 -27.856  1.00 29.89 LIG-0.35  N 
ATOM     20  C   ASN B   1     -15.527 -16.022 -27.689  1.00 39.87 LIG 0.25  C 
ATOM     21 O    ASN B   1     -14.509 -15.337 -27.520  1.00 37.46 LIG-0.27  OA
ATOM     22 H    ARG B   2     -16.157 -17.864 -27.755  1.00 29.89 LIG 0.16  HD
BRANCH 20 23
ATOM     23  CA  ASN B   1     -16.932 -15.392 -27.704  1.00 47.73 LIG 0.28  C 
BRANCH 23 24
ATOM     24  N   ASN B   1     -17.352 -14.836 -26.442  1.00 51.86 LIG-0.07  N 
ATOM     25 H3   ASN B   1     -17.711 -14.032 -26.576  1.00 51.86 LIG 0.28  HD
ATOM     26 H1   ASN B   1     -17.956 -15.371 -26.068  1.00 51.86 LIG 0.28  HD
ATOM     27 H2   ASN B   1     -16.648 -14.760 -25.902  1.00 51.86 LIG 0.28  HD
ENDBRANCH 23 24
BRANCH 23 28
ATOM     28  CB  ASN B   1     -17.075 -14.310 -28.755  1.00 49.79 LIG 0.14  C 
BRANCH 28 29
ATOM     29  CG  ASN B   1     -17.840 -14.810 -29.957  1.00 59.47 LIG 0.22  C 
ATOM     30  ND2 ASN B   1     -17.322 -15.856 -30.611  1.00 63.81 LIG-0.37  N 
ATOM     31 21HD ASN B   1     -17.712 -16.159 -31.314  1.00 63.81 LIG 0.16  HD
ATOM     32 22HD ASN B   1     -16.599 -16.225 -30.326  1.00 63.81 LIG 0.16  HD
ATOM     33 OD1  ASN B   1     -18.870 -14.246 -30.319  1.00 60.25 LIG-0.27  OA
ENDBRANCH 28 29
ENDBRANCH 23 28
ENDBRANCH 20 23
ENDBRANCH 6 19
ENDBRANCH 3 6
ENDBRANCH 1 2
BRANCH 1 34
ATOM     34  CB  LEU B   3     -15.020 -21.742 -30.207  1.00 28.79 LIG 0.04  C 
BRANCH 34 35
ATOM     35  CG  LEU B   3     -15.423 -22.696 -29.077  1.00 33.15 LIG-0.02  C 
ATOM     36  CD2 LEU B   3     -15.323 -21.965 -27.744  1.00 30.13 LIG 0.01  C 
ATOM     37  CD1 LEU B   3     -14.592 -24.012 -29.026  1.00 27.67 LIG 0.01  C 
ENDBRANCH 34 35
ENDBRANCH 1 34
BRANCH 1 38
ATOM     38  C   LEU B   3     -17.451 -21.006 -30.208  1.00 20.33 LIG 0.24  C 
ATOM     39  N   LEU B   4     -17.865 -21.861 -31.138  1.00 23.83 LIG-0.35  N 
ATOM     40 H    LEU B   4     -17.373 -22.156 -31.778  1.00 23.83 LIG 0.16  HD
ATOM     41 O    LEU B   3     -18.179 -20.612 -29.301  1.00 22.70 LIG-0.27  OA
BRANCH 39 42
ATOM     42  CA  LEU B   4     -19.231 -22.370 -31.132  1.00 22.91 LIG 0.18  C 
BRANCH 42 43
ATOM     43  C   LEU B   4     -19.415 -23.248 -29.890  1.00 30.74 LIG 0.24  C 
ATOM     44 O    LEU B   4     -18.421 -23.725 -29.273  1.00 30.11 LIG-0.27  OA
ATOM     45  N   LEU B   5     -20.660 -23.509 -29.515  1.00 32.41 LIG-0.35  N 
ATOM     46 H    LEU B   5     -21.370 -23.161 -29.854  1.00 32.41 LIG 0.16  HD
BRANCH 45 47
ATOM     47  CA  LEU B   5     -20.871 -24.471 -28.426  1.00 35.50 LIG 0.18  C 
BRANCH 47 48
ATOM     48  C   LEU B   5     -20.720 -25.899 -28.937  1.00 33.38 LIG 0.24  C 
ATOM     49 O    LEU B   5     -20.352 -26.823 -28.178  1.00 25.58 LIG-0.27  OA
ATOM     50  N   THR B   6     -21.002 -26.057 -30.226  1.00 32.99 LIG-0.34  N 
ATOM     51 H    THR B   6     -21.386 -25.448 -30.697  1.00 32.99 LIG 0.16  HD
BRANCH 50 52
ATOM     52  CA  THR B   6     -20.700 -27.265 -30.983  1.00 39.09 LIG 0.19  C 
BRANCH 52 53
ATOM     53  CB  THR B   6     -21.720 -28.388 -30.655  1.00 66.99 LIG 0.14  C 
ATOM     54  CG2 THR B   6     -21.724 -29.450 -31.737  1.00 64.52 LIG 0.04  C 
BRANCH 53 55
ATOM     55 OG1  THR B   6     -21.376 -29.011 -29.402  1.00 68.32 LIG-0.39  OA
ATOM     56 HG1  THR B   6     -20.892 -28.490 -28.953  1.00 68.32 LIG 0.21  HD
ENDBRANCH 53 55
ENDBRANCH 52 53
BRANCH 52 57
ATOM     57  C   THR B   6     -20.788 -26.943 -32.481  1.00 46.48 LIG 0.22  C 
ATOM     58 O    THR B   6     -21.844 -26.524 -32.980  1.00 50.47 LIG-0.29  OA
ENDBRANCH 52 57
ENDBRANCH 50 52
ENDBRANCH 47 48
BRANCH 47 59
ATOM     59  CB  LEU B   5     -22.262 -24.322 -27.820  1.00 41.25 LIG 0.04  C 
BRANCH 59 60
ATOM     60  CG  LEU B   5     -22.450 -23.304 -26.707  1.00 47.99 LIG-0.02  C 
ATOM     61  CD2 LEU B   5     -22.188 -21.915 -27.220  1.00 50.88 LIG 0.01  C 
ATOM     62  CD1 LEU B   5     -21.478 -23.640 -25.595  1.00 54.72 LIG 0.01  C 
ENDBRANCH 59 60
ENDBRANCH 47 59
ENDBRANCH 45 47
ENDBRANCH 42 43
BRANCH 42 63
ATOM     63  CB  LEU B   4     -19.399 -23.246 -32.358  1.00 23.96 LIG 0.04  C 
BRANCH 63 64
ATOM     64  CG  LEU B   4     -20.609 -23.183 -33.263  1.00 38.52 LIG-0.02  C 
ATOM     65  CD1 LEU B   4     -20.770 -21.837 -33.870  1.00 46.71 LIG 0.01  C 
ATOM     66  CD2 LEU B   4     -20.488 -24.288 -34.324  1.00 36.33 LIG 0.01  C 
ENDBRANCH 63 64
ENDBRANCH 42 63
ENDBRANCH 39 42
ENDBRANCH 1 38
TORSDOF 26
ENDMDL
MODEL 64
USER: ADFR SOLUTION from run 32
USER: SCORE 22.516386 LL:  -5.274 LR: -18.605 RR:   0.000 FEB: -10.850
USER: RMSD 3.225207
USER: SEED 31
USER: STATUS searching
USER: GENES 28
USER: genes 0 Translation |==|  0.43821 0.48480 0.32473
USER: genes 1 Rotation |==|  0.47242 0.46690 0.60871 0.98613
USER: genes 2 Torsion [C]-CA--N-[C] |==|  0.79187
USER: genes 3 Torsion [N]-C--CA-[N] |==|  0.32869
USER: genes 4 Torsion [C]-CA--CB-[CG] |==|  0.21055
USER: genes 5 Torsion [CA]-CB--CG-[CD] |==|  0.81147
USER: genes 6 Torsion [CB]-CG--CD-[NE] |==|  0.60813
USER: genes 7 Torsion [CG]-CD--NE-[HE] |==|  0.16153
USER: genes 8 Torsion [C]-CA--N-[C] |==|  0.75932
USER: genes 9 Torsion [N]-C--CA-[N] |==|  0.21438
USER: genes 10 Torsion [C]-CA--N-[H3] |==|  0.57129
USER: genes 11 Torsion [C]-CA--CB-[CG] |==|  0.40455
USER: genes 12 Torsion [CA]-CB--CG-[ND2] |==|  0.50283
USER: genes 13 Torsion [N]-CA--CB-[CG] |==|  0.89951
USER: genes 14 Torsion [CA]-CB--CG-[CD1] |==|  0.45109
USER: genes 15 Torsion [N]-CA--C-[N] |==|  0.39486
USER: genes 16 Torsion [C]-N--CA-[CB] |==|  0.20914
USER: genes 17 Torsion [N]-CA--C-[N] |==|  0.45710
USER: genes 18 Torsion [C]-N--CA-[C] |==|  0.67222
USER: genes 19 Torsion [N]-CA--C-[N] |==|  0.93275
USER: genes 20 Torsion [C]-N--CA-[C] |==|  0.60633
USER: genes 21 Torsion [N]-CA--CB-[CG2] |==|  0.46049
USER: genes 22 Torsion [CA]-CB--OG1-[HG1] |==|  0.97225
USER: genes 23 Torsion [N]-CA--C-[O] |==|  0.97377
USER: genes 24 Torsion [N]-CA--CB-[CG] |==|  0.87431
USER: genes 25 Torsion [CA]-CB--CG-[CD2] |==|  0.62628
USER: genes 26 Torsion [N]-CA--CB-[CG] |==|  0.21724
USER: genes 27 Torsion [CA]-CB--CG-[CD1] |==|  0.44369
ROOT
ATOM      1  CA  LEU B   3     -19.631 -23.247 -31.998  1.00 17.18 LIG 0.18  C 
ENDROOT
BRANCH 1 2
ATOM      2  N   LEU B   3     -20.503 -23.998 -31.174  1.00 21.09 LIG-0.35  N 
ATOM      3  C   ARG B   2     -20.042 -24.729 -30.163  1.00 20.79 LIG 0.24  C 
ATOM      4 O    ARG B   2     -18.842 -24.746 -29.817  1.00 18.81 LIG-0.27  OA
ATOM      5 H    LEU B   3     -21.335 -23.937 -31.384  1.00 21.09 LIG 0.16  HD
BRANCH 3 6
ATOM      6  CA  ARG B   2     -21.069 -25.626 -29.485  1.00 21.42 LIG 0.18  C 
BRANCH 6 7
ATOM      7  CB  ARG B   2     -21.286 -25.275 -28.009  1.00 36.36 LIG 0.04  C 
BRANCH 7 8
ATOM      8  CG  ARG B   2     -22.125 -24.023 -27.838  1.00 41.67 LIG 0.02  C 
BRANCH 8 9
ATOM      9  CD  ARG B   2     -21.417 -22.752 -28.310  1.00 51.14 LIG 0.14  C 
BRANCH 9 10
ATOM     10  NE  ARG B   2     -21.691 -21.609 -27.419  1.00 53.41 LIG-0.23  N 
ATOM     11 HE   ARG B   2     -21.477 -21.695 -26.590  1.00 53.41 LIG 0.18  HD
ATOM     12  CZ  ARG B   2     -22.244 -20.449 -27.792  1.00 50.83 LIG 0.67  C 
ATOM     13  NH1 ARG B   2     -22.602 -20.246 -29.053  1.00 40.00 LIG-0.23  N 
ATOM     14  NH2 ARG B   2     -22.450 -19.490 -26.888  1.00 54.23 LIG-0.23  N 
ATOM     15 1HH1 ARG B   2     -22.479 -20.863 -29.640  1.00 40.00 LIG 0.17  HD
ATOM     16 2HH1 ARG B   2     -22.957 -19.497 -29.284  1.00 40.00 LIG 0.17  HD
ATOM     17 1HH2 ARG B   2     -22.227 -19.617 -26.067  1.00 54.23 LIG 0.17  HD
ATOM     18 2HH2 ARG B   2     -22.805 -18.744 -27.126  1.00 54.23 LIG 0.17  HD
ENDBRANCH 9 10
ENDBRANCH 8 9
ENDBRANCH 7 8
ENDBRANCH 6 7
BRANCH 6 19
ATOM     19  N   ARG B   2     -20.638 -26.997 -29.646  1.00 29.89 LIG-0.35  N 
ATOM     20  C   ASN B   1     -20.968 -27.683 -30.732  1.00 39.87 LIG 0.25  C 
ATOM     21 O    ASN B   1     -21.893 -27.341 -31.482  1.00 37.46 LIG-0.27  OA
ATOM     22 H    ARG B   2     -20.167 -27.309 -28.997  1.00 29.89 LIG 0.16  HD
BRANCH 20 23
ATOM     23  CA  ASN B   1     -20.134 -28.948 -31.002  1.00 47.73 LIG 0.28  C 
BRANCH 23 24
ATOM     24  N   ASN B   1     -20.480 -30.080 -30.179  1.00 51.86 LIG-0.07  N 
ATOM     25 H3   ASN B   1     -19.776 -30.619 -30.103  1.00 51.86 LIG 0.28  HD
ATOM     26 H1   ASN B   1     -20.724 -29.796 -29.371  1.00 51.86 LIG 0.28  HD
ATOM     27 H2   ASN B   1     -21.155 -30.524 -30.553  1.00 51.86 LIG 0.28  HD
ENDBRANCH 23 24
BRANCH 23 28
ATOM     28  CB  ASN B   1     -20.201 -29.394 -32.449  1.00 49.79 LIG 0.14  C 
BRANCH 28 29
ATOM     29  CG  ASN B   1     -18.890 -29.996 -32.899  1.00 59.47 LIG 0.22  C 
ATOM     30  ND2 ASN B   1     -18.821 -30.409 -34.169  1.00 63.81 LIG-0.37  N 
ATOM     31 21HD ASN B   1     -18.102 -30.778 -34.462  1.00 63.81 LIG 0.16  HD
ATOM     32 22HD ASN B   1     -19.495 -30.303 -34.693  1.00 63.81 LIG 0.16  HD
ATOM     33 OD1  ASN B   1     -17.958 -30.121 -32.109  1.00 60.25 LIG-0.27  OA
ENDBRANCH 28 29
ENDBRANCH 23 28
ENDBRANCH 20 23
ENDBRANCH 6 19
ENDBRANCH 3 6
ENDBRANCH 1 2
BRANCH 1 34
ATOM     34  CB  LEU B   3     -20.332 -22.915 -33.345  1.00 28.79 LIG 0.04  C 
BRANCH 34 35
ATOM     35  CG  LEU B   3     -21.227 -24.070 -33.809  1.00 33.15 LIG-0.02  C 
ATOM     36  CD2 LEU B   3     -20.352 -25.204 -34.328  1.00 30.13 LIG 0.01  C 
ATOM     37  CD1 LEU B   3     -22.277 -23.670 -34.888  1.00 27.67 LIG 0.01  C 
ENDBRANCH 34 35
ENDBRANCH 1 34
BRANCH 1 38
ATOM     38  C   LEU B   3     -19.127 -22.000 -31.305  1.00 20.33 LIG 0.24  C 
ATOM     39  N   LEU B   4     -17.861 -21.675 -31.547  1.00 23.83 LIG-0.35  N 
ATOM     40 H    LEU B   4     -17.336 -22.123 -32.059  1.00 23.83 LIG 0.16  HD
ATOM     41 O    LEU B   3     -19.853 -21.332 -30.575  1.00 22.70 LIG-0.27  OA
BRANCH 39 42
ATOM     42  CA  LEU B   4     -17.260 -20.495 -30.937  1.00 22.91 LIG 0.18  C 
BRANCH 42 43
ATOM     43  C   LEU B   4     -15.922 -20.221 -31.630  1.00 30.74 LIG 0.24  C 
ATOM     44 O    LEU B   4     -15.352 -21.108 -32.326  1.00 30.11 LIG-0.27  OA
ATOM     45  N   LEU B   5     -15.377 -19.027 -31.439  1.00 32.41 LIG-0.35  N 
ATOM     46 H    LEU B   5     -15.748 -18.365 -31.033  1.00 32.41 LIG 0.16  HD
BRANCH 45 47
ATOM     47  CA  LEU B   5     -14.025 -18.787 -31.959  1.00 35.50 LIG 0.18  C 
BRANCH 47 48
ATOM     48  C   LEU B   5     -13.063 -18.471 -30.820  1.00 33.38 LIG 0.24  C 
ATOM     49 O    LEU B   5     -11.834 -18.675 -30.935  1.00 25.58 LIG-0.27  OA
ATOM     50  N   THR B   6     -13.640 -17.980 -29.728  1.00 32.99 LIG-0.34  N 
ATOM     51 H    THR B   6     -14.458 -17.716 -29.714  1.00 32.99 LIG 0.16  HD
BRANCH 50 52
ATOM     52  CA  THR B   6     -12.965 -17.835 -28.446  1.00 39.09 LIG 0.19  C 
BRANCH 52 53
ATOM     53  CB  THR B   6     -12.480 -16.373 -28.244  1.00 66.99 LIG 0.14  C 
ATOM     54  CG2 THR B   6     -12.095 -16.124 -26.799  1.00 64.52 LIG 0.04  C 
BRANCH 53 55
ATOM     55 OG1  THR B   6     -11.330 -16.121 -29.076  1.00 68.32 LIG-0.39  OA
ATOM     56 HG1  THR B   6     -11.058 -16.844 -29.406  1.00 68.32 LIG 0.21  HD
ENDBRANCH 53 55
ENDBRANCH 52 53
BRANCH 52 57
ATOM     57  C   THR B   6     -13.954 -18.183 -27.325  1.00 46.48 LIG 0.22  C 
ATOM     58 O    THR B   6     -15.159 -18.352 -27.570  1.00 50.47 LIG-0.29  OA
ENDBRANCH 52 57
ENDBRANCH 50 52
ENDBRANCH 47 48
BRANCH 47 59
ATOM     59  CB  LEU B   5     -14.010 -17.621 -32.939  1.00 41.25 LIG 0.04  C 
BRANCH 59 60
ATOM     60  CG  LEU B   5     -15.102 -17.561 -33.995  1.00 47.99 LIG-0.02  C 
ATOM     61  CD2 LEU B   5     -14.512 -17.238 -35.339  1.00 50.88 LIG 0.01  C 
ATOM     62  CD1 LEU B   5     -16.089 -16.488 -33.587  1.00 54.72 LIG 0.01  C 
ENDBRANCH 59 60
ENDBRANCH 47 59
ENDBRANCH 45 47
ENDBRANCH 42 43
BRANCH 42 63
ATOM     63  CB  LEU B   4     -16.981 -20.822 -29.484  1.00 23.96 LIG 0.04  C 
BRANCH 63 64
ATOM     64  CG  LEU B   4     -15.800 -21.652 -29.032  1.00 38.52 LIG-0.02  C 
ATOM     65  CD1 LEU B   4     -15.486 -21.424 -27.599  1.00 46.71 LIG 0.01  C 
ATOM     66  CD2 LEU B   4     -16.092 -23.130 -29.335  1.00 36.33 LIG 0.01  C 
ENDBRANCH 63 64
ENDBRANCH 42 63
ENDBRANCH 39 42
ENDBRANCH 1 38
TORSDOF 26
ENDMDL
MODEL 65
USER: ADFR SOLUTION from run 94
USER: SCORE 21.621522 LL:  -4.250 LR: -18.602 RR:   0.000 FEB: -10.847
USER: RMSD 11.552366
USER: SEED 93
USER: STATUS no improvement in best in 32 clusters for 5 generations
USER: GENES 28
USER: genes 0 Translation |==|  0.54667 0.57139 0.44177
USER: genes 1 Rotation |==|  0.23973 0.78405 0.81637 0.53855
USER: genes 2 Torsion [C]-CA--N-[C] |==|  0.80822
USER: genes 3 Torsion [N]-C--CA-[N] |==|  0.11303
USER: genes 4 Torsion [C]-CA--CB-[CG] |==|  0.27971
USER: genes 5 Torsion [CA]-CB--CG-[CD] |==|  0.20832
USER: genes 6 Torsion [CB]-CG--CD-[NE] |==|  0.81988
USER: genes 7 Torsion [CG]-CD--NE-[HE] |==|  0.88958
USER: genes 8 Torsion [C]-CA--N-[C] |==|  0.72755
USER: genes 9 Torsion [N]-C--CA-[N] |==|  0.80338
USER: genes 10 Torsion [C]-CA--N-[H3] |==|  0.88139
USER: genes 11 Torsion [C]-CA--CB-[CG] |==|  0.27051
USER: genes 12 Torsion [CA]-CB--CG-[ND2] |==|  0.04418
USER: genes 13 Torsion [N]-CA--CB-[CG] |==|  0.70935
USER: genes 14 Torsion [CA]-CB--CG-[CD1] |==|  0.05710
USER: genes 15 Torsion [N]-CA--C-[N] |==|  0.42070
USER: genes 16 Torsion [C]-N--CA-[CB] |==|  0.53361
USER: genes 17 Torsion [N]-CA--C-[N] |==|  0.30931
USER: genes 18 Torsion [C]-N--CA-[C] |==|  0.57138
USER: genes 19 Torsion [N]-CA--C-[N] |==|  0.47585
USER: genes 20 Torsion [C]-N--CA-[C] |==|  0.69863
USER: genes 21 Torsion [N]-CA--CB-[CG2] |==|  0.17545
USER: genes 22 Torsion [CA]-CB--OG1-[HG1] |==|  0.04871
USER: genes 23 Torsion [N]-CA--C-[O] |==|  0.09135
USER: genes 24 Torsion [N]-CA--CB-[CG] |==|  0.64476
USER: genes 25 Torsion [CA]-CB--CG-[CD2] |==|  0.04020
USER: genes 26 Torsion [N]-CA--CB-[CG] |==|  0.65881
USER: genes 27 Torsion [CA]-CB--CG-[CD1] |==|  0.65090
ROOT
ATOM      1  CA  LEU B   3     -16.947 -21.104 -29.540  1.00 17.18 LIG 0.18  C 
ENDROOT
BRANCH 1 2
ATOM      2  N   LEU B   3     -16.706 -19.748 -29.217  1.00 21.09 LIG-0.35  N 
ATOM      3  C   ARG B   2     -16.728 -18.800 -30.150  1.00 20.79 LIG 0.24  C 
ATOM      4 O    ARG B   2     -17.037 -19.013 -31.341  1.00 18.81 LIG-0.27  OA
ATOM      5 H    LEU B   3     -16.549 -19.601 -28.385  1.00 21.09 LIG 0.16  HD
BRANCH 3 6
ATOM      6  CA  ARG B   2     -16.268 -17.422 -29.691  1.00 21.42 LIG 0.18  C 
BRANCH 6 7
ATOM      7  CB  ARG B   2     -15.950 -16.480 -30.857  1.00 36.36 LIG 0.04  C 
BRANCH 7 8
ATOM      8  CG  ARG B   2     -17.080 -15.503 -31.124  1.00 41.67 LIG 0.02  C 
BRANCH 8 9
ATOM      9  CD  ARG B   2     -17.162 -14.377 -30.091  1.00 51.14 LIG 0.14  C 
BRANCH 9 10
ATOM     10  NE  ARG B   2     -17.494 -14.888 -28.749  1.00 53.41 LIG-0.23  N 
ATOM     11 HE   ARG B   2     -18.078 -15.518 -28.700  1.00 53.41 LIG 0.18  HD
ATOM     12  CZ  ARG B   2     -16.963 -14.454 -27.599  1.00 50.83 LIG 0.67  C 
ATOM     13  NH1 ARG B   2     -16.059 -13.483 -27.597  1.00 40.00 LIG-0.23  N 
ATOM     14  NH2 ARG B   2     -17.352 -14.992 -26.442  1.00 54.23 LIG-0.23  N 
ATOM     15 1HH1 ARG B   2     -15.809 -13.126 -28.339  1.00 40.00 LIG 0.17  HD
ATOM     16 2HH1 ARG B   2     -15.723 -13.210 -26.854  1.00 40.00 LIG 0.17  HD
ATOM     17 1HH2 ARG B   2     -17.943 -15.617 -26.435  1.00 54.23 LIG 0.17  HD
ATOM     18 2HH2 ARG B   2     -17.012 -14.714 -25.703  1.00 54.23 LIG 0.17  HD
ENDBRANCH 9 10
ENDBRANCH 8 9
ENDBRANCH 7 8
ENDBRANCH 6 7
BRANCH 6 19
ATOM     19  N   ARG B   2     -15.122 -17.601 -28.826  1.00 29.89 LIG-0.35  N 
ATOM     20  C   ASN B   1     -15.267 -17.594 -27.508  1.00 39.87 LIG 0.25  C 
ATOM     21 O    ASN B   1     -16.267 -17.126 -26.949  1.00 37.46 LIG-0.27  OA
ATOM     22 H    ARG B   2     -14.372 -17.707 -29.234  1.00 29.89 LIG 0.16  HD
BRANCH 20 23
ATOM     23  CA  ASN B   1     -14.100 -18.198 -26.706  1.00 47.73 LIG 0.28  C 
BRANCH 23 24
ATOM     24  N   ASN B   1     -13.977 -19.631 -26.815  1.00 51.86 LIG-0.07  N 
ATOM     25 H3   ASN B   1     -14.783 -20.003 -26.763  1.00 51.86 LIG 0.28  HD
ATOM     26 H1   ASN B   1     -13.605 -19.838 -27.597  1.00 51.86 LIG 0.28  HD
ATOM     27 H2   ASN B   1     -13.465 -19.937 -26.154  1.00 51.86 LIG 0.28  HD
ENDBRANCH 23 24
BRANCH 23 28
ATOM     28  CB  ASN B   1     -12.762 -17.592 -27.074  1.00 49.79 LIG 0.14  C 
BRANCH 28 29
ATOM     29  CG  ASN B   1     -12.366 -16.504 -26.104  1.00 59.47 LIG 0.22  C 
ATOM     30  ND2 ASN B   1     -13.028 -16.462 -24.942  1.00 63.81 LIG-0.37  N 
ATOM     31 21HD ASN B   1     -12.852 -15.845 -24.369  1.00 63.81 LIG 0.16  HD
ATOM     32 22HD ASN B   1     -13.629 -17.052 -24.768  1.00 63.81 LIG 0.16  HD
ATOM     33 OD1  ASN B   1     -11.499 -15.687 -26.403  1.00 60.25 LIG-0.27  OA
ENDBRANCH 28 29
ENDBRANCH 23 28
ENDBRANCH 20 23
ENDBRANCH 6 19
ENDBRANCH 3 6
ENDBRANCH 1 2
BRANCH 1 34
ATOM     34  CB  LEU B   3     -16.518 -22.014 -28.354  1.00 28.79 LIG 0.04  C 
BRANCH 34 35
ATOM     35  CG  LEU B   3     -15.196 -22.730 -28.650  1.00 33.15 LIG-0.02  C 
ATOM     36  CD2 LEU B   3     -14.388 -22.841 -27.363  1.00 30.13 LIG 0.01  C 
ATOM     37  CD1 LEU B   3     -14.339 -22.056 -29.761  1.00 27.67 LIG 0.01  C 
ENDBRANCH 34 35
ENDBRANCH 1 34
BRANCH 1 38
ATOM     38  C   LEU B   3     -18.386 -21.347 -29.941  1.00 20.33 LIG 0.24  C 
ATOM     39  N   LEU B   4     -18.589 -22.353 -30.785  1.00 23.83 LIG-0.35  N 
ATOM     40 H    LEU B   4     -17.966 -22.853 -31.102  1.00 23.83 LIG 0.16  HD
ATOM     41 O    LEU B   3     -19.301 -20.657 -29.501  1.00 22.70 LIG-0.27  OA
BRANCH 39 42
ATOM     42  CA  LEU B   4     -19.932 -22.684 -31.247  1.00 22.91 LIG 0.18  C 
BRANCH 42 43
ATOM     43  C   LEU B   4     -20.844 -22.821 -30.023  1.00 30.74 LIG 0.24  C 
ATOM     44 O    LEU B   4     -20.726 -23.795 -29.225  1.00 30.11 LIG-0.27  OA
ATOM     45  N   LEU B   5     -21.778 -21.895 -29.859  1.00 32.41 LIG-0.35  N 
ATOM     46 H    LEU B   5     -21.863 -21.180 -30.329  1.00 32.41 LIG 0.16  HD
BRANCH 45 47
ATOM     47  CA  LEU B   5     -22.765 -22.083 -28.788  1.00 35.50 LIG 0.18  C 
BRANCH 47 48
ATOM     48  C   LEU B   5     -24.058 -21.345 -29.116  1.00 33.38 LIG 0.24  C 
ATOM     49 O    LEU B   5     -24.126 -20.559 -30.087  1.00 25.58 LIG-0.27  OA
ATOM     50  N   THR B   6     -25.068 -21.606 -28.293  1.00 32.99 LIG-0.34  N 
ATOM     51 H    THR B   6     -25.048 -22.249 -27.721  1.00 32.99 LIG 0.16  HD
BRANCH 50 52
ATOM     52  CA  THR B   6     -26.310 -20.846 -28.262  1.00 39.09 LIG 0.19  C 
BRANCH 52 53
ATOM     53  CB  THR B   6     -27.536 -21.799 -28.268  1.00 66.99 LIG 0.14  C 
ATOM     54  CG2 THR B   6     -27.558 -22.662 -27.022  1.00 64.52 LIG 0.04  C 
BRANCH 53 55
ATOM     55 OG1  THR B   6     -28.753 -21.028 -28.314  1.00 68.32 LIG-0.39  OA
ATOM     56 HG1  THR B   6     -28.581 -20.246 -28.568  1.00 68.32 LIG 0.21  HD
ENDBRANCH 53 55
ENDBRANCH 52 53
BRANCH 52 57
ATOM     57  C   THR B   6     -26.344 -20.009 -26.976  1.00 46.48 LIG 0.22  C 
ATOM     58 O    THR B   6     -25.299 -19.553 -26.487  1.00 50.47 LIG-0.29  OA
ENDBRANCH 52 57
ENDBRANCH 50 52
ENDBRANCH 47 48
BRANCH 47 59
ATOM     59  CB  LEU B   5     -22.239 -21.562 -27.456  1.00 41.25 LIG 0.04  C 
BRANCH 59 60
ATOM     60  CG  LEU B   5     -22.286 -22.494 -26.256  1.00 47.99 LIG-0.02  C 
ATOM     61  CD2 LEU B   5     -22.538 -23.908 -26.703  1.00 50.88 LIG 0.01  C 
ATOM     62  CD1 LEU B   5     -23.403 -22.029 -25.345  1.00 54.72 LIG 0.01  C 
ENDBRANCH 59 60
ENDBRANCH 47 59
ENDBRANCH 45 47
ENDBRANCH 42 43
BRANCH 42 63
ATOM     63  CB  LEU B   4     -19.861 -24.031 -31.936  1.00 23.96 LIG 0.04  C 
BRANCH 63 64
ATOM     64  CG  LEU B   4     -20.297 -24.255 -33.367  1.00 38.52 LIG-0.02  C 
ATOM     65  CD1 LEU B   4     -21.295 -25.349 -33.472  1.00 46.71 LIG 0.01  C 
ATOM     66  CD2 LEU B   4     -20.828 -22.928 -33.933  1.00 36.33 LIG 0.01  C 
ENDBRANCH 63 64
ENDBRANCH 42 63
ENDBRANCH 39 42
ENDBRANCH 1 38
TORSDOF 26
ENDMDL
MODEL 66
USER: ADFR SOLUTION from run 51
USER: SCORE 21.448199 LL:  -5.082 LR: -18.592 RR:   0.000 FEB: -10.836
USER: RMSD 11.337987
USER: SEED 50
USER: STATUS no improvement in best in 30 clusters for 5 generations
USER: GENES 28
USER: genes 0 Translation |==|  0.54177 0.55938 0.44284
USER: genes 1 Rotation |==|  0.23337 0.77450 0.81985 0.53532
USER: genes 2 Torsion [C]-CA--N-[C] |==|  0.82188
USER: genes 3 Torsion [N]-C--CA-[N] |==|  0.12070
USER: genes 4 Torsion [C]-CA--CB-[CG] |==|  0.47653
USER: genes 5 Torsion [CA]-CB--CG-[CD] |==|  0.80696
USER: genes 6 Torsion [CB]-CG--CD-[NE] |==|  0.43998
USER: genes 7 Torsion [CG]-CD--NE-[HE] |==|  0.21457
USER: genes 8 Torsion [C]-CA--N-[C] |==|  0.68003
USER: genes 9 Torsion [N]-C--CA-[N] |==|  0.82644
USER: genes 10 Torsion [C]-CA--N-[H3] |==|  0.23596
USER: genes 11 Torsion [C]-CA--CB-[CG] |==|  0.82161
USER: genes 12 Torsion [CA]-CB--CG-[ND2] |==|  0.38484
USER: genes 13 Torsion [N]-CA--CB-[CG] |==|  0.73870
USER: genes 14 Torsion [CA]-CB--CG-[CD1] |==|  0.04158
USER: genes 15 Torsion [N]-CA--C-[N] |==|  0.41421
USER: genes 16 Torsion [C]-N--CA-[CB] |==|  0.35133
USER: genes 17 Torsion [N]-CA--C-[N] |==|  0.52165
USER: genes 18 Torsion [C]-N--CA-[C] |==|  0.17767
USER: genes 19 Torsion [N]-CA--C-[N] |==|  0.07954
USER: genes 20 Torsion [C]-N--CA-[C] |==|  0.53006
USER: genes 21 Torsion [N]-CA--CB-[CG2] |==|  0.43659
USER: genes 22 Torsion [CA]-CB--OG1-[HG1] |==|  0.17171
USER: genes 23 Torsion [N]-CA--C-[O] |==|  0.92661
USER: genes 24 Torsion [N]-CA--CB-[CG] |==|  0.55906
USER: genes 25 Torsion [CA]-CB--CG-[CD2] |==|  0.66015
USER: genes 26 Torsion [N]-CA--CB-[CG] |==|  0.58852
USER: genes 27 Torsion [CA]-CB--CG-[CD1] |==|  0.25429
ROOT
ATOM      1  CA  LEU B   3     -17.068 -21.401 -29.517  1.00 17.18 LIG 0.18  C 
ENDROOT
BRANCH 1 2
ATOM      2  N   LEU B   3     -16.888 -20.044 -29.162  1.00 21.09 LIG-0.35  N 
ATOM      3  C   ARG B   2     -17.042 -19.068 -30.053  1.00 20.79 LIG 0.24  C 
ATOM      4 O    ARG B   2     -17.431 -19.261 -31.224  1.00 18.81 LIG-0.27  OA
ATOM      5 H    LEU B   3     -16.675 -19.915 -28.339  1.00 21.09 LIG 0.16  HD
BRANCH 3 6
ATOM      6  CA  ARG B   2     -16.635 -17.680 -29.578  1.00 21.42 LIG 0.18  C 
BRANCH 6 7
ATOM      7  CB  ARG B   2     -16.536 -16.663 -30.720  1.00 36.36 LIG 0.04  C 
BRANCH 7 8
ATOM      8  CG  ARG B   2     -16.332 -15.250 -30.209  1.00 41.67 LIG 0.02  C 
BRANCH 8 9
ATOM      9  CD  ARG B   2     -17.562 -14.680 -29.501  1.00 51.14 LIG 0.14  C 
BRANCH 9 10
ATOM     10  NE  ARG B   2     -17.209 -13.572 -28.594  1.00 53.41 LIG-0.23  N 
ATOM     11 HE   ARG B   2     -17.047 -12.806 -28.952  1.00 53.41 LIG 0.18  HD
ATOM     12  CZ  ARG B   2     -17.119 -13.657 -27.262  1.00 50.83 LIG 0.67  C 
ATOM     13  NH1 ARG B   2     -17.352 -14.807 -26.641  1.00 40.00 LIG-0.23  N 
ATOM     14  NH2 ARG B   2     -16.781 -12.582 -26.548  1.00 54.23 LIG-0.23  N 
ATOM     15 1HH1 ARG B   2     -17.563 -15.506 -27.096  1.00 40.00 LIG 0.17  HD
ATOM     16 2HH1 ARG B   2     -17.292 -14.853 -25.784  1.00 40.00 LIG 0.17  HD
ATOM     17 1HH2 ARG B   2     -16.621 -11.835 -26.944  1.00 54.23 LIG 0.17  HD
ATOM     18 2HH2 ARG B   2     -16.723 -12.635 -25.692  1.00 54.23 LIG 0.17  HD
ENDBRANCH 9 10
ENDBRANCH 8 9
ENDBRANCH 7 8
ENDBRANCH 6 7
BRANCH 6 19
ATOM     19  N   ARG B   2     -15.381 -17.803 -28.867  1.00 29.89 LIG-0.35  N 
ATOM     20  C   ASN B   1     -15.314 -17.532 -27.571  1.00 39.87 LIG 0.25  C 
ATOM     21 O    ASN B   1     -16.178 -16.870 -26.981  1.00 37.46 LIG-0.27  OA
ATOM     22 H    ARG B   2     -14.715 -18.058 -29.348  1.00 29.89 LIG 0.16  HD
BRANCH 20 23
ATOM     23  CA  ASN B   1     -14.078 -18.085 -26.837  1.00 47.73 LIG 0.28  C 
BRANCH 23 24
ATOM     24  N   ASN B   1     -13.977 -19.524 -26.835  1.00 51.86 LIG-0.07  N 
ATOM     25 H3   ASN B   1     -13.583 -19.794 -27.586  1.00 51.86 LIG 0.28  HD
ATOM     26 H1   ASN B   1     -13.494 -19.786 -26.135  1.00 51.86 LIG 0.28  HD
ATOM     27 H2   ASN B   1     -14.792 -19.878 -26.783  1.00 51.86 LIG 0.28  HD
ENDBRANCH 23 24
BRANCH 23 28
ATOM     28  CB  ASN B   1     -12.778 -17.533 -27.385  1.00 49.79 LIG 0.14  C 
BRANCH 28 29
ATOM     29  CG  ASN B   1     -12.560 -17.962 -28.817  1.00 59.47 LIG 0.22  C 
ATOM     30  ND2 ASN B   1     -12.079 -17.038 -29.657  1.00 63.81 LIG-0.37  N 
ATOM     31 21HD ASN B   1     -11.960 -17.232 -30.486  1.00 63.81 LIG 0.16  HD
ATOM     32 22HD ASN B   1     -11.887 -16.252 -29.367  1.00 63.81 LIG 0.16  HD
ATOM     33 OD1  ASN B   1     -12.848 -19.100 -29.177  1.00 60.25 LIG-0.27  OA
ENDBRANCH 28 29
ENDBRANCH 23 28
ENDBRANCH 20 23
ENDBRANCH 6 19
ENDBRANCH 3 6
ENDBRANCH 1 2
BRANCH 1 34
ATOM     34  CB  LEU B   3     -16.605 -22.319 -28.351  1.00 28.79 LIG 0.04  C 
BRANCH 34 35
ATOM     35  CG  LEU B   3     -15.149 -22.762 -28.533  1.00 33.15 LIG-0.02  C 
ATOM     36  CD2 LEU B   3     -14.435 -22.704 -27.189  1.00 30.13 LIG 0.01  C 
ATOM     37  CD1 LEU B   3     -14.358 -21.937 -29.592  1.00 27.67 LIG 0.01  C 
ENDBRANCH 34 35
ENDBRANCH 1 34
BRANCH 1 38
ATOM     38  C   LEU B   3     -18.493 -21.697 -29.931  1.00 20.33 LIG 0.24  C 
ATOM     39  N   LEU B   4     -18.646 -22.658 -30.836  1.00 23.83 LIG-0.35  N 
ATOM     40 H    LEU B   4     -17.998 -23.103 -31.184  1.00 23.83 LIG 0.16  HD
ATOM     41 O    LEU B   3     -19.443 -21.087 -29.448  1.00 22.70 LIG-0.27  OA
BRANCH 39 42
ATOM     42  CA  LEU B   4     -19.971 -23.033 -31.315  1.00 22.91 LIG 0.18  C 
BRANCH 42 43
ATOM     43  C   LEU B   4     -20.236 -24.488 -30.915  1.00 30.74 LIG 0.24  C 
ATOM     44 O    LEU B   4     -19.429 -25.121 -30.178  1.00 30.11 LIG-0.27  OA
ATOM     45  N   LEU B   5     -21.330 -25.058 -31.403  1.00 32.41 LIG-0.35  N 
ATOM     46 H    LEU B   5     -21.945 -24.660 -31.852  1.00 32.41 LIG 0.16  HD
BRANCH 45 47
ATOM     47  CA  LEU B   5     -21.531 -26.493 -31.166  1.00 35.50 LIG 0.18  C 
BRANCH 47 48
ATOM     48  C   LEU B   5     -21.688 -26.773 -29.676  1.00 33.38 LIG 0.24  C 
ATOM     49 O    LEU B   5     -21.353 -27.874 -29.186  1.00 25.58 LIG-0.27  OA
ATOM     50  N   THR B   6     -22.203 -25.768 -28.976  1.00 32.99 LIG-0.34  N 
ATOM     51 H    THR B   6     -22.296 -24.976 -29.298  1.00 32.99 LIG 0.16  HD
BRANCH 50 52
ATOM     52  CA  THR B   6     -22.665 -25.888 -27.600  1.00 39.09 LIG 0.19  C 
BRANCH 52 53
ATOM     53  CB  THR B   6     -21.463 -26.048 -26.630  1.00 66.99 LIG 0.14  C 
ATOM     54  CG2 THR B   6     -21.841 -25.622 -25.224  1.00 64.52 LIG 0.04  C 
BRANCH 53 55
ATOM     55 OG1  THR B   6     -21.043 -27.425 -26.595  1.00 68.32 LIG-0.39  OA
ATOM     56 HG1  THR B   6     -20.787 -27.660 -27.360  1.00 68.32 LIG 0.21  HD
ENDBRANCH 53 55
ENDBRANCH 52 53
BRANCH 52 57
ATOM     57  C   THR B   6     -23.433 -24.613 -27.225  1.00 46.48 LIG 0.22  C 
ATOM     58 O    THR B   6     -23.191 -23.535 -27.790  1.00 50.47 LIG-0.29  OA
ENDBRANCH 52 57
ENDBRANCH 50 52
ENDBRANCH 47 48
BRANCH 47 59
ATOM     59  CB  LEU B   5     -20.354 -27.308 -31.688  1.00 41.25 LIG 0.04  C 
BRANCH 59 60
ATOM     60  CG  LEU B   5     -20.580 -28.782 -31.983  1.00 47.99 LIG-0.02  C 
ATOM     61  CD2 LEU B   5     -19.631 -29.627 -31.180  1.00 50.88 LIG 0.01  C 
ATOM     62  CD1 LEU B   5     -20.352 -29.004 -33.464  1.00 54.72 LIG 0.01  C 
ENDBRANCH 59 60
ENDBRANCH 47 59
ENDBRANCH 45 47
ENDBRANCH 42 43
BRANCH 42 63
ATOM     63  CB  LEU B   4     -19.950 -22.956 -32.829  1.00 23.96 LIG 0.04  C 
BRANCH 63 64
ATOM     64  CG  LEU B   4     -21.159 -22.582 -33.657  1.00 38.52 LIG-0.02  C 
ATOM     65  CD1 LEU B   4     -21.215 -21.121 -33.916  1.00 46.71 LIG 0.01  C 
ATOM     66  CD2 LEU B   4     -21.137 -23.402 -34.957  1.00 36.33 LIG 0.01  C 
ENDBRANCH 63 64
ENDBRANCH 42 63
ENDBRANCH 39 42
ENDBRANCH 1 38
TORSDOF 26
ENDMDL
MODEL 67
USER: ADFR SOLUTION from run 36
USER: SCORE 22.224566 LL:  -4.538 LR: -18.594 RR:   0.000 FEB: -10.838
USER: RMSD 11.805350
USER: SEED 35
USER: STATUS no improvement in best in 13 clusters for 5 generations
USER: GENES 28
USER: genes 0 Translation |==|  0.56384 0.54713 0.41537
USER: genes 1 Rotation |==|  0.69026 0.17169 0.17538 0.52533
USER: genes 2 Torsion [C]-CA--N-[C] |==|  0.63816
USER: genes 3 Torsion [N]-C--CA-[N] |==|  0.14459
USER: genes 4 Torsion [C]-CA--CB-[CG] |==|  0.35095
USER: genes 5 Torsion [CA]-CB--CG-[CD] |==|  0.77872
USER: genes 6 Torsion [CB]-CG--CD-[NE] |==|  0.58399
USER: genes 7 Torsion [CG]-CD--NE-[HE] |==|  0.06024
USER: genes 8 Torsion [C]-CA--N-[C] |==|  0.76310
USER: genes 9 Torsion [N]-C--CA-[N] |==|  0.84107
USER: genes 10 Torsion [C]-CA--N-[H3] |==|  0.10807
USER: genes 11 Torsion [C]-CA--CB-[CG] |==|  0.43814
USER: genes 12 Torsion [CA]-CB--CG-[ND2] |==|  0.64177
USER: genes 13 Torsion [N]-CA--CB-[CG] |==|  0.78132
USER: genes 14 Torsion [CA]-CB--CG-[CD1] |==|  0.37269
USER: genes 15 Torsion [N]-CA--C-[N] |==|  0.42663
USER: genes 16 Torsion [C]-N--CA-[CB] |==|  0.51693
USER: genes 17 Torsion [N]-CA--C-[N] |==|  0.43816
USER: genes 18 Torsion [C]-N--CA-[C] |==|  0.83266
USER: genes 19 Torsion [N]-CA--C-[N] |==|  0.91450
USER: genes 20 Torsion [C]-N--CA-[C] |==|  0.53999
USER: genes 21 Torsion [N]-CA--CB-[CG2] |==|  0.48388
USER: genes 22 Torsion [CA]-CB--OG1-[HG1] |==|  0.78707
USER: genes 23 Torsion [N]-CA--C-[O] |==|  0.95904
USER: genes 24 Torsion [N]-CA--CB-[CG] |==|  0.72199
USER: genes 25 Torsion [CA]-CB--CG-[CD2] |==|  0.42906
USER: genes 26 Torsion [N]-CA--CB-[CG] |==|  0.71377
USER: genes 27 Torsion [CA]-CB--CG-[CD1] |==|  0.14868
ROOT
ATOM      1  CA  LEU B   3     -16.522 -21.705 -30.094  1.00 17.18 LIG 0.18  C 
ENDROOT
BRANCH 1 2
ATOM      2  N   LEU B   3     -16.116 -20.351 -30.172  1.00 21.09 LIG-0.35  N 
ATOM      3  C   ARG B   2     -15.314 -19.924 -31.143  1.00 20.79 LIG 0.24  C 
ATOM      4 O    ARG B   2     -14.932 -20.645 -32.088  1.00 18.81 LIG-0.27  OA
ATOM      5 H    LEU B   3     -16.429 -19.848 -29.549  1.00 21.09 LIG 0.16  HD
BRANCH 3 6
ATOM      6  CA  ARG B   2     -14.814 -18.493 -30.993  1.00 21.42 LIG 0.18  C 
BRANCH 6 7
ATOM      7  CB  ARG B   2     -13.815 -18.092 -32.084  1.00 36.36 LIG 0.04  C 
BRANCH 7 8
ATOM      8  CG  ARG B   2     -14.230 -16.819 -32.797  1.00 41.67 LIG 0.02  C 
BRANCH 8 9
ATOM      9  CD  ARG B   2     -15.309 -17.044 -33.858  1.00 51.14 LIG 0.14  C 
BRANCH 9 10
ATOM     10  NE  ARG B   2     -15.201 -16.076 -34.964  1.00 53.41 LIG-0.23  N 
ATOM     11 HE   ARG B   2     -14.439 -15.694 -35.080  1.00 53.41 LIG 0.18  HD
ATOM     12  CZ  ARG B   2     -16.188 -15.741 -35.803  1.00 50.83 LIG 0.67  C 
ATOM     13  NH1 ARG B   2     -17.391 -16.288 -35.682  1.00 40.00 LIG-0.23  N 
ATOM     14  NH2 ARG B   2     -15.969 -14.842 -36.764  1.00 54.23 LIG-0.23  N 
ATOM     15 1HH1 ARG B   2     -17.542 -16.862 -35.061  1.00 40.00 LIG 0.17  HD
ATOM     16 2HH1 ARG B   2     -18.021 -16.067 -36.226  1.00 40.00 LIG 0.17  HD
ATOM     17 1HH2 ARG B   2     -15.193 -14.478 -36.843  1.00 54.23 LIG 0.17  HD
ATOM     18 2HH2 ARG B   2     -16.602 -14.626 -37.303  1.00 54.23 LIG 0.17  HD
ENDBRANCH 9 10
ENDBRANCH 8 9
ENDBRANCH 7 8
ENDBRANCH 6 7
BRANCH 6 19
ATOM     19  N   ARG B   2     -14.239 -18.359 -29.673  1.00 29.89 LIG-0.35  N 
ATOM     20  C   ASN B   1     -15.007 -18.075 -28.630  1.00 39.87 LIG 0.25  C 
ATOM     21 O    ASN B   1     -16.143 -17.597 -28.749  1.00 37.46 LIG-0.27  OA
ATOM     22 H    ARG B   2     -13.387 -18.477 -29.634  1.00 29.89 LIG 0.16  HD
BRANCH 20 23
ATOM     23  CA  ASN B   1     -14.392 -18.365 -27.249  1.00 47.73 LIG 0.28  C 
BRANCH 23 24
ATOM     24  N   ASN B   1     -13.977 -19.732 -27.054  1.00 51.86 LIG-0.07  N 
ATOM     25 H3   ASN B   1     -13.615 -20.042 -27.805  1.00 51.86 LIG 0.28  HD
ATOM     26 H1   ASN B   1     -13.377 -19.770 -26.398  1.00 51.86 LIG 0.28  HD
ATOM     27 H2   ASN B   1     -14.683 -20.229 -26.838  1.00 51.86 LIG 0.28  HD
ENDBRANCH 23 24
BRANCH 23 28
ATOM     28  CB  ASN B   1     -13.206 -17.475 -26.939  1.00 49.79 LIG 0.14  C 
BRANCH 28 29
ATOM     29  CG  ASN B   1     -12.965 -17.379 -25.451  1.00 59.47 LIG 0.22  C 
ATOM     30  ND2 ASN B   1     -12.849 -16.150 -24.936  1.00 63.81 LIG-0.37  N 
ATOM     31 21HD ASN B   1     -12.688 -16.048 -24.098  1.00 63.81 LIG 0.16  HD
ATOM     32 22HD ASN B   1     -12.935 -15.462 -25.444  1.00 63.81 LIG 0.16  HD
ATOM     33 OD1  ASN B   1     -12.852 -18.396 -24.771  1.00 60.25 LIG-0.27  OA
ENDBRANCH 28 29
ENDBRANCH 23 28
ENDBRANCH 20 23
ENDBRANCH 6 19
ENDBRANCH 3 6
ENDBRANCH 1 2
BRANCH 1 34
ATOM     34  CB  LEU B   3     -15.746 -22.425 -28.956  1.00 28.79 LIG 0.04  C 
BRANCH 34 35
ATOM     35  CG  LEU B   3     -14.327 -22.800 -29.397  1.00 33.15 LIG-0.02  C 
ATOM     36  CD2 LEU B   3     -14.282 -24.285 -29.731  1.00 30.13 LIG 0.01  C 
ATOM     37  CD1 LEU B   3     -13.222 -22.454 -28.355  1.00 27.67 LIG 0.01  C 
ENDBRANCH 34 35
ENDBRANCH 1 34
BRANCH 1 38
ATOM     38  C   LEU B   3     -18.019 -21.841 -29.926  1.00 20.33 LIG 0.24  C 
ATOM     39  N   LEU B   4     -18.552 -22.973 -30.375  1.00 23.83 LIG-0.35  N 
ATOM     40 H    LEU B   4     -18.103 -23.607 -30.742  1.00 23.83 LIG 0.16  HD
ATOM     41 O    LEU B   3     -18.690 -20.959 -29.397  1.00 22.70 LIG-0.27  OA
BRANCH 39 42
ATOM     42  CA  LEU B   4     -19.985 -23.220 -30.270  1.00 22.91 LIG 0.18  C 
BRANCH 42 43
ATOM     43  C   LEU B   4     -20.388 -23.114 -28.796  1.00 30.74 LIG 0.24  C 
ATOM     44 O    LEU B   4     -19.544 -23.296 -27.872  1.00 30.11 LIG-0.27  OA
ATOM     45  N   LEU B   5     -21.662 -22.855 -28.535  1.00 32.41 LIG-0.35  N 
ATOM     46 H    LEU B   5     -22.263 -22.659 -29.118  1.00 32.41 LIG 0.16  HD
BRANCH 45 47
ATOM     47  CA  LEU B   5     -22.111 -22.902 -27.138  1.00 35.50 LIG 0.18  C 
BRANCH 47 48
ATOM     48  C   LEU B   5     -21.887 -24.290 -26.550  1.00 33.38 LIG 0.24  C 
ATOM     49 O    LEU B   5     -21.637 -24.447 -25.335  1.00 25.58 LIG-0.27  OA
ATOM     50  N   THR B   6     -21.974 -25.284 -27.430  1.00 32.99 LIG-0.34  N 
ATOM     51 H    THR B   6     -22.283 -25.175 -28.225  1.00 32.99 LIG 0.16  HD
BRANCH 50 52
ATOM     52  CA  THR B   6     -21.564 -26.653 -27.153  1.00 39.09 LIG 0.19  C 
BRANCH 52 53
ATOM     53  CB  THR B   6     -22.601 -27.364 -26.242  1.00 66.99 LIG 0.14  C 
ATOM     54  CG2 THR B   6     -22.255 -28.829 -26.066  1.00 64.52 LIG 0.04  C 
BRANCH 53 55
ATOM     55 OG1  THR B   6     -22.623 -26.738 -24.945  1.00 68.32 LIG-0.39  OA
ATOM     56 HG1  THR B   6     -21.952 -26.984 -24.503  1.00 68.32 LIG 0.21  HD
ENDBRANCH 53 55
ENDBRANCH 52 53
BRANCH 52 57
ATOM     57  C   THR B   6     -21.471 -27.418 -28.481  1.00 46.48 LIG 0.22  C 
ATOM     58 O    THR B   6     -21.978 -26.958 -29.516  1.00 50.47 LIG-0.29  OA
ENDBRANCH 52 57
ENDBRANCH 50 52
ENDBRANCH 47 48
BRANCH 47 59
ATOM     59  CB  LEU B   5     -23.592 -22.564 -27.023  1.00 41.25 LIG 0.04  C 
BRANCH 59 60
ATOM     60  CG  LEU B   5     -23.971 -21.155 -26.596  1.00 47.99 LIG-0.02  C 
ATOM     61  CD2 LEU B   5     -25.339 -20.804 -27.113  1.00 50.88 LIG 0.01  C 
ATOM     62  CD1 LEU B   5     -22.940 -20.201 -27.160  1.00 54.72 LIG 0.01  C 
ENDBRANCH 59 60
ENDBRANCH 47 59
ENDBRANCH 45 47
ENDBRANCH 42 43
BRANCH 42 63
ATOM     63  CB  LEU B   4     -20.239 -24.643 -30.727  1.00 23.96 LIG 0.04  C 
BRANCH 63 64
ATOM     64  CG  LEU B   4     -20.811 -24.988 -32.084  1.00 38.52 LIG-0.02  C 
ATOM     65  CD1 LEU B   4     -20.031 -24.363 -33.182  1.00 46.71 LIG 0.01  C 
ATOM     66  CD2 LEU B   4     -20.877 -26.518 -32.215  1.00 36.33 LIG 0.01  C 
ENDBRANCH 63 64
ENDBRANCH 42 63
ENDBRANCH 39 42
ENDBRANCH 1 38
TORSDOF 26
ENDMDL
MODEL 68
USER: ADFR SOLUTION from run 130
USER: SCORE 20.276365 LL:  -5.025 LR: -18.583 RR:   0.000 FEB: -10.827
USER: RMSD 10.016475
USER: SEED 129
USER: STATUS no improvement in best in 10 clusters for 5 generations
USER: GENES 28
USER: genes 0 Translation |==|  0.47678 0.49114 0.48239
USER: genes 1 Rotation |==|  0.30145 0.16336 0.69562 0.74287
USER: genes 2 Torsion [C]-CA--N-[C] |==|  0.18175
USER: genes 3 Torsion [N]-C--CA-[N] |==|  0.94018
USER: genes 4 Torsion [C]-CA--CB-[CG] |==|  0.15701
USER: genes 5 Torsion [CA]-CB--CG-[CD] |==|  0.13316
USER: genes 6 Torsion [CB]-CG--CD-[NE] |==|  0.39782
USER: genes 7 Torsion [CG]-CD--NE-[HE] |==|  0.84984
USER: genes 8 Torsion [C]-CA--N-[C] |==|  0.23166
USER: genes 9 Torsion [N]-C--CA-[N] |==|  0.45330
USER: genes 10 Torsion [C]-CA--N-[H3] |==|  0.87601
USER: genes 11 Torsion [C]-CA--CB-[CG] |==|  0.44302
USER: genes 12 Torsion [CA]-CB--CG-[ND2] |==|  0.78391
USER: genes 13 Torsion [N]-CA--CB-[CG] |==|  0.65290
USER: genes 14 Torsion [CA]-CB--CG-[CD1] |==|  0.42948
USER: genes 15 Torsion [N]-CA--C-[N] |==|  0.03016
USER: genes 16 Torsion [C]-N--CA-[CB] |==|  0.33791
USER: genes 17 Torsion [N]-CA--C-[N] |==|  0.05791
USER: genes 18 Torsion [C]-N--CA-[C] |==|  0.50000
USER: genes 19 Torsion [N]-CA--C-[N] |==|  0.43720
USER: genes 20 Torsion [C]-N--CA-[C] |==|  0.71102
USER: genes 21 Torsion [N]-CA--CB-[CG2] |==|  0.18158
USER: genes 22 Torsion [CA]-CB--OG1-[HG1] |==|  0.34447
USER: genes 23 Torsion [N]-CA--C-[O] |==|  0.87314
USER: genes 24 Torsion [N]-CA--CB-[CG] |==|  0.58364
USER: genes 25 Torsion [CA]-CB--CG-[CD2] |==|  0.37126
USER: genes 26 Torsion [N]-CA--CB-[CG] |==|  0.83632
USER: genes 27 Torsion [CA]-CB--CG-[CD1] |==|  0.59279
ROOT
ATOM      1  CA  LEU B   3     -18.677 -23.090 -28.687  1.00 17.18 LIG 0.18  C 
ENDROOT
BRANCH 1 2
ATOM      2  N   LEU B   3     -19.381 -24.307 -28.845  1.00 21.09 LIG-0.35  N 
ATOM      3  C   ARG B   2     -19.644 -24.803 -30.051  1.00 20.79 LIG 0.24  C 
ATOM      4 O    ARG B   2     -19.229 -24.291 -31.111  1.00 18.81 LIG-0.27  OA
ATOM      5 H    LEU B   3     -19.615 -24.683 -28.108  1.00 21.09 LIG 0.16  HD
BRANCH 3 6
ATOM      6  CA  ARG B   2     -20.566 -26.015 -30.071  1.00 21.42 LIG 0.18  C 
BRANCH 6 7
ATOM      7  CB  ARG B   2     -22.001 -25.667 -30.480  1.00 36.36 LIG 0.04  C 
BRANCH 7 8
ATOM      8  CG  ARG B   2     -22.058 -24.983 -31.833  1.00 41.67 LIG 0.02  C 
BRANCH 8 9
ATOM      9  CD  ARG B   2     -21.236 -25.698 -32.906  1.00 51.14 LIG 0.14  C 
BRANCH 9 10
ATOM     10  NE  ARG B   2     -21.894 -25.646 -34.225  1.00 53.41 LIG-0.23  N 
ATOM     11 HE   ARG B   2     -22.704 -25.929 -34.272  1.00 53.41 LIG 0.18  HD
ATOM     12  CZ  ARG B   2     -21.335 -25.196 -35.354  1.00 50.83 LIG 0.67  C 
ATOM     13  NH1 ARG B   2     -20.086 -24.746 -35.358  1.00 40.00 LIG-0.23  N 
ATOM     14  NH2 ARG B   2     -22.032 -25.207 -36.492  1.00 54.23 LIG-0.23  N 
ATOM     15 1HH1 ARG B   2     -19.628 -24.743 -34.630  1.00 40.00 LIG 0.17  HD
ATOM     16 2HH1 ARG B   2     -19.735 -24.458 -36.088  1.00 40.00 LIG 0.17  HD
ATOM     17 1HH2 ARG B   2     -22.839 -25.504 -36.499  1.00 54.23 LIG 0.17  HD
ATOM     18 2HH2 ARG B   2     -21.674 -24.918 -37.218  1.00 54.23 LIG 0.17  HD
ENDBRANCH 9 10
ENDBRANCH 8 9
ENDBRANCH 7 8
ENDBRANCH 6 7
BRANCH 6 19
ATOM     19  N   ARG B   2     -20.522 -26.629 -28.761  1.00 29.89 LIG-0.35  N 
ATOM     20  C   ASN B   1     -21.282 -26.169 -27.777  1.00 39.87 LIG 0.25  C 
ATOM     21 O    ASN B   1     -21.799 -25.044 -27.802  1.00 37.46 LIG-0.27  OA
ATOM     22 H    ARG B   2     -19.978 -27.292 -28.689  1.00 29.89 LIG 0.16  HD
BRANCH 20 23
ATOM     23  CA  ASN B   1     -21.476 -27.122 -26.583  1.00 47.73 LIG 0.28  C 
BRANCH 23 24
ATOM     24  N   ASN B   1     -21.967 -26.487 -25.385  1.00 51.86 LIG-0.07  N 
ATOM     25 H3   ASN B   1     -21.525 -25.728 -25.248  1.00 51.86 LIG 0.28  HD
ATOM     26 H1   ASN B   1     -22.835 -26.312 -25.476  1.00 51.86 LIG 0.28  HD
ATOM     27 H2   ASN B   1     -21.846 -27.030 -24.690  1.00 51.86 LIG 0.28  HD
ENDBRANCH 23 24
BRANCH 23 28
ATOM     28  CB  ASN B   1     -22.400 -28.279 -26.903  1.00 49.79 LIG 0.14  C 
BRANCH 28 29
ATOM     29  CG  ASN B   1     -22.193 -29.428 -25.945  1.00 59.47 LIG 0.22  C 
ATOM     30  ND2 ASN B   1     -21.123 -30.204 -26.156  1.00 63.81 LIG-0.37  N 
ATOM     31 21HD ASN B   1     -20.978 -30.883 -25.649  1.00 63.81 LIG 0.16  HD
ATOM     32 22HD ASN B   1     -20.580 -30.022 -26.797  1.00 63.81 LIG 0.16  HD
ATOM     33 OD1  ASN B   1     -22.999 -29.642 -25.044  1.00 60.25 LIG-0.27  OA
ENDBRANCH 28 29
ENDBRANCH 23 28
ENDBRANCH 20 23
ENDBRANCH 6 19
ENDBRANCH 3 6
ENDBRANCH 1 2
BRANCH 1 34
ATOM     34  CB  LEU B   3     -17.272 -23.203 -29.342  1.00 28.79 LIG 0.04  C 
BRANCH 34 35
ATOM     35  CG  LEU B   3     -16.160 -22.861 -28.345  1.00 33.15 LIG-0.02  C 
ATOM     36  CD2 LEU B   3     -16.010 -21.348 -28.261  1.00 30.13 LIG 0.01  C 
ATOM     37  CD1 LEU B   3     -14.785 -23.516 -28.672  1.00 27.67 LIG 0.01  C 
ENDBRANCH 34 35
ENDBRANCH 1 34
BRANCH 1 38
ATOM     38  C   LEU B   3     -19.454 -21.909 -29.225  1.00 20.33 LIG 0.24  C 
ATOM     39  N   LEU B   4     -20.723 -22.147 -29.541  1.00 23.83 LIG-0.35  N 
ATOM     40 H    LEU B   4     -21.108 -22.911 -29.456  1.00 23.83 LIG 0.16  HD
ATOM     41 O    LEU B   3     -18.938 -20.802 -29.350  1.00 22.70 LIG-0.27  OA
BRANCH 39 42
ATOM     42  CA  LEU B   4     -21.575 -21.088 -30.070  1.00 22.91 LIG 0.18  C 
BRANCH 42 43
ATOM     43  C   LEU B   4     -22.781 -20.927 -29.140  1.00 30.74 LIG 0.24  C 
ATOM     44 O    LEU B   4     -23.837 -20.353 -29.531  1.00 30.11 LIG-0.27  OA
ATOM     45  N   LEU B   5     -22.653 -21.385 -27.902  1.00 32.41 LIG-0.35  N 
ATOM     46 H    LEU B   5     -21.988 -21.839 -27.601  1.00 32.41 LIG 0.16  HD
BRANCH 45 47
ATOM     47  CA  LEU B   5     -23.729 -21.106 -26.942  1.00 35.50 LIG 0.18  C 
BRANCH 47 48
ATOM     48  C   LEU B   5     -23.402 -21.711 -25.581  1.00 33.38 LIG 0.24  C 
ATOM     49 O    LEU B   5     -22.603 -22.667 -25.473  1.00 25.58 LIG-0.27  OA
ATOM     50  N   THR B   6     -24.034 -21.144 -24.558  1.00 32.99 LIG-0.34  N 
ATOM     51 H    THR B   6     -24.467 -20.404 -24.631  1.00 32.99 LIG 0.16  HD
BRANCH 50 52
ATOM     52  CA  THR B   6     -24.066 -21.701 -23.213  1.00 39.09 LIG 0.19  C 
BRANCH 52 53
ATOM     53  CB  THR B   6     -23.840 -20.589 -22.153  1.00 66.99 LIG 0.14  C 
ATOM     54  CG2 THR B   6     -24.984 -19.594 -22.158  1.00 64.52 LIG 0.04  C 
BRANCH 53 55
ATOM     55 OG1  THR B   6     -23.749 -21.176 -20.840  1.00 68.32 LIG-0.39  OA
ATOM     56 HG1  THR B   6     -23.023 -20.950 -20.482  1.00 68.32 LIG 0.21  HD
ENDBRANCH 53 55
ENDBRANCH 52 53
BRANCH 52 57
ATOM     57  C   THR B   6     -25.444 -22.334 -22.975  1.00 46.48 LIG 0.22  C 
ATOM     58 O    THR B   6     -26.482 -21.735 -23.294  1.00 50.47 LIG-0.29  OA
ENDBRANCH 52 57
ENDBRANCH 50 52
ENDBRANCH 47 48
BRANCH 47 59
ATOM     59  CB  LEU B   5     -25.056 -21.684 -27.418  1.00 41.25 LIG 0.04  C 
BRANCH 59 60
ATOM     60  CG  LEU B   5     -26.334 -20.971 -27.007  1.00 47.99 LIG-0.02  C 
ATOM     61  CD2 LEU B   5     -27.247 -20.811 -28.190  1.00 50.88 LIG 0.01  C 
ATOM     62  CD1 LEU B   5     -25.956 -19.613 -26.453  1.00 54.72 LIG 0.01  C 
ENDBRANCH 59 60
ENDBRANCH 47 59
ENDBRANCH 45 47
ENDBRANCH 42 43
BRANCH 42 63
ATOM     63  CB  LEU B   4     -22.081 -21.542 -31.425  1.00 23.96 LIG 0.04  C 
BRANCH 63 64
ATOM     64  CG  LEU B   4     -21.166 -21.894 -32.577  1.00 38.52 LIG-0.02  C 
ATOM     65  CD1 LEU B   4     -21.770 -21.535 -33.885  1.00 46.71 LIG 0.01  C 
ATOM     66  CD2 LEU B   4     -19.809 -21.206 -32.355  1.00 36.33 LIG 0.01  C 
ENDBRANCH 63 64
ENDBRANCH 42 63
ENDBRANCH 39 42
ENDBRANCH 1 38
TORSDOF 26
ENDMDL
MODEL 69
USER: ADFR SOLUTION from run 78
USER: SCORE 21.653133 LL:  -4.825 LR: -18.571 RR:   0.000 FEB: -10.815
USER: RMSD 5.831271
USER: SEED 77
USER: STATUS no improvement in best in 15 clusters for 5 generations
USER: GENES 28
USER: genes 0 Translation |==|  0.57577 0.51536 0.45656
USER: genes 1 Rotation |==|  0.13943 0.25833 0.64297 0.70285
USER: genes 2 Torsion [C]-CA--N-[C] |==|  0.80556
USER: genes 3 Torsion [N]-C--CA-[N] |==|  0.52523
USER: genes 4 Torsion [C]-CA--CB-[CG] |==|  0.36205
USER: genes 5 Torsion [CA]-CB--CG-[CD] |==|  0.06238
USER: genes 6 Torsion [CB]-CG--CD-[NE] |==|  0.55797
USER: genes 7 Torsion [CG]-CD--NE-[HE] |==|  0.96862
USER: genes 8 Torsion [C]-CA--N-[C] |==|  0.67346
USER: genes 9 Torsion [N]-C--CA-[N] |==|  0.83424
USER: genes 10 Torsion [C]-CA--N-[H3] |==|  0.75318
USER: genes 11 Torsion [C]-CA--CB-[CG] |==|  0.30838
USER: genes 12 Torsion [CA]-CB--CG-[ND2] |==|  0.69218
USER: genes 13 Torsion [N]-CA--CB-[CG] |==|  0.63983
USER: genes 14 Torsion [CA]-CB--CG-[CD1] |==|  0.01344
USER: genes 15 Torsion [N]-CA--C-[N] |==|  0.48329
USER: genes 16 Torsion [C]-N--CA-[CB] |==|  0.18185
USER: genes 17 Torsion [N]-CA--C-[N] |==|  0.42482
USER: genes 18 Torsion [C]-N--CA-[C] |==|  0.76981
USER: genes 19 Torsion [N]-CA--C-[N] |==|  0.44484
USER: genes 20 Torsion [C]-N--CA-[C] |==|  0.80139
USER: genes 21 Torsion [N]-CA--CB-[CG2] |==|  0.78642
USER: genes 22 Torsion [CA]-CB--OG1-[HG1] |==|  0.74447
USER: genes 23 Torsion [N]-CA--C-[O] |==|  0.16672
USER: genes 24 Torsion [N]-CA--CB-[CG] |==|  0.23434
USER: genes 25 Torsion [CA]-CB--CG-[CD2] |==|  0.76036
USER: genes 26 Torsion [N]-CA--CB-[CG] |==|  0.57085
USER: genes 27 Torsion [CA]-CB--CG-[CD1] |==|  0.64402
ROOT
ATOM      1  CA  LEU B   3     -16.227 -22.491 -29.229  1.00 17.18 LIG 0.18  C 
ENDROOT
BRANCH 1 2
ATOM      2  N   LEU B   3     -17.513 -23.077 -29.292  1.00 21.09 LIG-0.35  N 
ATOM      3  C   ARG B   2     -18.605 -22.385 -28.978  1.00 20.79 LIG 0.24  C 
ATOM      4 O    ARG B   2     -18.591 -21.170 -28.690  1.00 18.81 LIG-0.27  OA
ATOM      5 H    LEU B   3     -17.520 -23.899 -29.545  1.00 21.09 LIG 0.16  HD
BRANCH 3 6
ATOM      6  CA  ARG B   2     -19.893 -23.195 -28.911  1.00 21.42 LIG 0.18  C 
BRANCH 6 7
ATOM      7  CB  ARG B   2     -20.082 -24.118 -30.119  1.00 36.36 LIG 0.04  C 
BRANCH 7 8
ATOM      8  CG  ARG B   2     -20.422 -25.537 -29.705  1.00 41.67 LIG 0.02  C 
BRANCH 8 9
ATOM      9  CD  ARG B   2     -21.026 -25.629 -28.302  1.00 51.14 LIG 0.14  C 
BRANCH 9 10
ATOM     10  NE  ARG B   2     -20.890 -26.983 -27.735  1.00 53.41 LIG-0.23  N 
ATOM     11 HE   ARG B   2     -20.640 -27.610 -28.267  1.00 53.41 LIG 0.18  HD
ATOM     12  CZ  ARG B   2     -21.124 -27.318 -26.460  1.00 50.83 LIG 0.67  C 
ATOM     13  NH1 ARG B   2     -21.515 -26.403 -25.582  1.00 40.00 LIG-0.23  N 
ATOM     14  NH2 ARG B   2     -20.973 -28.584 -26.067  1.00 54.23 LIG-0.23  N 
ATOM     15 1HH1 ARG B   2     -21.621 -25.587 -25.830  1.00 40.00 LIG 0.17  HD
ATOM     16 2HH1 ARG B   2     -21.663 -26.627 -24.765  1.00 40.00 LIG 0.17  HD
ATOM     17 1HH2 ARG B   2     -20.727 -29.184 -26.632  1.00 54.23 LIG 0.17  HD
ATOM     18 2HH2 ARG B   2     -21.123 -28.800 -25.249  1.00 54.23 LIG 0.17  HD
ENDBRANCH 9 10
ENDBRANCH 8 9
ENDBRANCH 7 8
ENDBRANCH 6 7
BRANCH 6 19
ATOM     19  N   ARG B   2     -20.995 -22.267 -28.775  1.00 29.89 LIG-0.35  N 
ATOM     20  C   ASN B   1     -21.764 -22.289 -27.695  1.00 39.87 LIG 0.25  C 
ATOM     21 O    ASN B   1     -21.810 -23.260 -26.928  1.00 37.46 LIG-0.27  OA
ATOM     22 H    ARG B   2     -21.096 -21.724 -29.435  1.00 29.89 LIG 0.16  HD
BRANCH 20 23
ATOM     23  CA  ASN B   1     -22.614 -21.028 -27.454  1.00 47.73 LIG 0.28  C 
BRANCH 23 24
ATOM     24  N   ASN B   1     -21.852 -19.813 -27.302  1.00 51.86 LIG-0.07  N 
ATOM     25 H3   ASN B   1     -21.640 -19.702 -26.445  1.00 51.86 LIG 0.28  HD
ATOM     26 H1   ASN B   1     -21.108 -19.867 -27.787  1.00 51.86 LIG 0.28  HD
ATOM     27 H2   ASN B   1     -22.338 -19.121 -27.579  1.00 51.86 LIG 0.28  HD
ENDBRANCH 23 24
BRANCH 23 28
ATOM     28  CB  ASN B   1     -23.636 -20.796 -28.548  1.00 49.79 LIG 0.14  C 
BRANCH 28 29
ATOM     29  CG  ASN B   1     -25.042 -21.013 -28.040  1.00 59.47 LIG 0.22  C 
ATOM     30  ND2 ASN B   1     -25.694 -22.083 -28.509  1.00 63.81 LIG-0.37  N 
ATOM     31 21HD ASN B   1     -26.504 -22.233 -28.266  1.00 63.81 LIG 0.16  HD
ATOM     32 22HD ASN B   1     -25.302 -22.620 -29.054  1.00 63.81 LIG 0.16  HD
ATOM     33 OD1  ASN B   1     -25.553 -20.214 -27.261  1.00 60.25 LIG-0.27  OA
ENDBRANCH 28 29
ENDBRANCH 23 28
ENDBRANCH 20 23
ENDBRANCH 6 19
ENDBRANCH 3 6
ENDBRANCH 1 2
BRANCH 1 34
ATOM     34  CB  LEU B   3     -15.138 -23.599 -29.277  1.00 28.79 LIG 0.04  C 
BRANCH 34 35
ATOM     35  CG  LEU B   3     -14.119 -23.431 -28.145  1.00 33.15 LIG-0.02  C 
ATOM     36  CD2 LEU B   3     -13.979 -24.750 -27.396  1.00 30.13 LIG 0.01  C 
ATOM     37  CD1 LEU B   3     -14.457 -22.285 -27.146  1.00 27.67 LIG 0.01  C 
ENDBRANCH 34 35
ENDBRANCH 1 34
BRANCH 1 38
ATOM     38  C   LEU B   3     -16.020 -21.455 -30.312  1.00 20.33 LIG 0.24  C 
ATOM     39  N   LEU B   4     -14.884 -20.768 -30.247  1.00 23.83 LIG-0.35  N 
ATOM     40 H    LEU B   4     -14.283 -20.882 -29.642  1.00 23.83 LIG 0.16  HD
ATOM     41 O    LEU B   3     -16.852 -21.274 -31.196  1.00 22.70 LIG-0.27  OA
BRANCH 39 42
ATOM     42  CA  LEU B   4     -14.571 -19.741 -31.234  1.00 22.91 LIG 0.18  C 
BRANCH 42 43
ATOM     43  C   LEU B   4     -13.181 -19.178 -30.922  1.00 30.74 LIG 0.24  C 
ATOM     44 O    LEU B   4     -12.730 -19.166 -29.741  1.00 30.11 LIG-0.27  OA
ATOM     45  N   LEU B   5     -12.491 -18.677 -31.937  1.00 32.41 LIG-0.35  N 
ATOM     46 H    LEU B   5     -12.717 -18.717 -32.766  1.00 32.41 LIG 0.16  HD
BRANCH 45 47
ATOM     47  CA  LEU B   5     -11.226 -17.990 -31.647  1.00 35.50 LIG 0.18  C 
BRANCH 47 48
ATOM     48  C   LEU B   5     -11.484 -16.545 -31.237  1.00 33.38 LIG 0.24  C 
ATOM     49 O    LEU B   5     -12.558 -15.972 -31.525  1.00 25.58 LIG-0.27  OA
ATOM     50  N   THR B   6     -10.486 -15.973 -30.570  1.00 32.99 LIG-0.34  N 
ATOM     51 H    THR B   6      -9.819 -16.418 -30.259  1.00 32.99 LIG 0.16  HD
BRANCH 50 52
ATOM     52  CA  THR B   6     -10.407 -14.545 -30.292  1.00 39.09 LIG 0.19  C 
BRANCH 52 53
ATOM     53  CB  THR B   6      -9.272 -14.247 -29.274  1.00 66.99 LIG 0.14  C 
ATOM     54  CG2 THR B   6      -9.699 -14.609 -27.865  1.00 64.52 LIG 0.04  C 
BRANCH 53 55
ATOM     55 OG1  THR B   6      -8.099 -15.013 -29.611  1.00 68.32 LIG-0.39  OA
ATOM     56 HG1  THR B   6      -8.113 -15.744 -29.196  1.00 68.32 LIG 0.21  HD
ENDBRANCH 53 55
ENDBRANCH 52 53
BRANCH 52 57
ATOM     57  C   THR B   6     -10.100 -13.804 -31.601  1.00 46.48 LIG 0.22  C 
ATOM     58 O    THR B   6     -10.872 -13.878 -32.569  1.00 50.47 LIG-0.29  OA
ENDBRANCH 52 57
ENDBRANCH 50 52
ENDBRANCH 47 48
BRANCH 47 59
ATOM     59  CB  LEU B   5     -10.309 -17.987 -32.864  1.00 41.25 LIG 0.04  C 
BRANCH 59 60
ATOM     60  CG  LEU B   5     -10.506 -16.897 -33.905  1.00 47.99 LIG-0.02  C 
ATOM     61  CD2 LEU B   5     -11.554 -17.308 -34.901  1.00 50.88 LIG 0.01  C 
ATOM     62  CD1 LEU B   5      -9.182 -16.671 -34.604  1.00 54.72 LIG 0.01  C 
ENDBRANCH 59 60
ENDBRANCH 47 59
ENDBRANCH 45 47
ENDBRANCH 42 43
BRANCH 42 63
ATOM     63  CB  LEU B   4     -15.581 -18.624 -31.069  1.00 23.96 LIG 0.04  C 
BRANCH 63 64
ATOM     64  CG  LEU B   4     -15.964 -17.680 -32.187  1.00 38.52 LIG-0.02  C 
ATOM     65  CD1 LEU B   4     -15.845 -16.260 -31.770  1.00 46.71 LIG 0.01  C 
ATOM     66  CD2 LEU B   4     -15.101 -17.999 -33.417  1.00 36.33 LIG 0.01  C 
ENDBRANCH 63 64
ENDBRANCH 42 63
ENDBRANCH 39 42
ENDBRANCH 1 38
TORSDOF 26
ENDMDL
MODEL 70
USER: ADFR SOLUTION from run 199
USER: SCORE 21.960390 LL:  -4.746 LR: -18.565 RR:   0.000 FEB: -10.809
USER: RMSD 12.085397
USER: SEED 198
USER: STATUS no improvement in best in 14 clusters for 5 generations
USER: GENES 28
USER: genes 0 Translation |==|  0.63852 0.53373 0.45357
USER: genes 1 Rotation |==|  0.63152 0.20884 0.11584 0.51874
USER: genes 2 Torsion [C]-CA--N-[C] |==|  0.79451
USER: genes 3 Torsion [N]-C--CA-[N] |==|  0.91606
USER: genes 4 Torsion [C]-CA--CB-[CG] |==|  0.35754
USER: genes 5 Torsion [CA]-CB--CG-[CD] |==|  0.48711
USER: genes 6 Torsion [CB]-CG--CD-[NE] |==|  0.88274
USER: genes 7 Torsion [CG]-CD--NE-[HE] |==|  0.90867
USER: genes 8 Torsion [C]-CA--N-[C] |==|  0.74962
USER: genes 9 Torsion [N]-C--CA-[N] |==|  0.84485
USER: genes 10 Torsion [C]-CA--N-[H3] |==|  0.87340
USER: genes 11 Torsion [C]-CA--CB-[CG] |==|  0.16936
USER: genes 12 Torsion [CA]-CB--CG-[ND2] |==|  0.24392
USER: genes 13 Torsion [N]-CA--CB-[CG] |==|  0.50804
USER: genes 14 Torsion [CA]-CB--CG-[CD1] |==|  0.17714
USER: genes 15 Torsion [N]-CA--C-[N] |==|  0.39347
USER: genes 16 Torsion [C]-N--CA-[CB] |==|  0.20107
USER: genes 17 Torsion [N]-CA--C-[N] |==|  0.36794
USER: genes 18 Torsion [C]-N--CA-[C] |==|  0.85113
USER: genes 19 Torsion [N]-CA--C-[N] |==|  0.35025
USER: genes 20 Torsion [C]-N--CA-[C] |==|  0.60570
USER: genes 21 Torsion [N]-CA--CB-[CG2] |==|  0.69018
USER: genes 22 Torsion [CA]-CB--OG1-[HG1] |==|  0.87675
USER: genes 23 Torsion [N]-CA--C-[O] |==|  0.12879
USER: genes 24 Torsion [N]-CA--CB-[CG] |==|  0.56433
USER: genes 25 Torsion [CA]-CB--CG-[CD2] |==|  0.44970
USER: genes 26 Torsion [N]-CA--CB-[CG] |==|  0.17793
USER: genes 27 Torsion [CA]-CB--CG-[CD1] |==|  0.89384
ROOT
ATOM      1  CA  LEU B   3     -14.674 -22.036 -29.292  1.00 17.18 LIG 0.18  C 
ENDROOT
BRANCH 1 2
ATOM      2  N   LEU B   3     -14.090 -20.755 -29.151  1.00 21.09 LIG-0.35  N 
ATOM      3  C   ARG B   2     -14.423 -19.750 -29.956  1.00 20.79 LIG 0.24  C 
ATOM      4 O    ARG B   2     -15.315 -19.831 -30.826  1.00 18.81 LIG-0.27  OA
ATOM      5 H    LEU B   3     -13.517 -20.691 -28.513  1.00 21.09 LIG 0.16  HD
BRANCH 3 6
ATOM      6  CA  ARG B   2     -13.582 -18.489 -29.808  1.00 21.42 LIG 0.18  C 
BRANCH 6 7
ATOM      7  CB  ARG B   2     -12.403 -18.439 -30.785  1.00 36.36 LIG 0.04  C 
BRANCH 7 8
ATOM      8  CG  ARG B   2     -12.356 -17.133 -31.556  1.00 41.67 LIG 0.02  C 
BRANCH 8 9
ATOM      9  CD  ARG B   2     -11.127 -17.006 -32.457  1.00 51.14 LIG 0.14  C 
BRANCH 9 10
ATOM     10  NE  ARG B   2      -9.904 -17.484 -31.786  1.00 53.41 LIG-0.23  N 
ATOM     11 HE   ARG B   2      -9.851 -17.370 -30.935  1.00 53.41 LIG 0.18  HD
ATOM     12  CZ  ARG B   2      -8.869 -18.079 -32.390  1.00 50.83 LIG 0.67  C 
ATOM     13  NH1 ARG B   2      -8.879 -18.286 -33.701  1.00 40.00 LIG-0.23  N 
ATOM     14  NH2 ARG B   2      -7.810 -18.461 -31.673  1.00 54.23 LIG-0.23  N 
ATOM     15 1HH1 ARG B   2      -9.554 -18.036 -34.170  1.00 40.00 LIG 0.17  HD
ATOM     16 2HH1 ARG B   2      -8.209 -18.669 -34.081  1.00 40.00 LIG 0.17  HD
ATOM     17 1HH2 ARG B   2      -7.793 -18.324 -30.824  1.00 54.23 LIG 0.17  HD
ATOM     18 2HH2 ARG B   2      -7.145 -18.844 -32.060  1.00 54.23 LIG 0.17  HD
ENDBRANCH 9 10
ENDBRANCH 8 9
ENDBRANCH 7 8
ENDBRANCH 6 7
BRANCH 6 19
ATOM     19  N   ARG B   2     -13.137 -18.411 -28.434  1.00 29.89 LIG-0.35  N 
ATOM     20  C   ASN B   1     -13.867 -17.778 -27.525  1.00 39.87 LIG 0.25  C 
ATOM     21 O    ASN B   1     -14.753 -16.968 -27.827  1.00 37.46 LIG-0.27  OA
ATOM     22 H    ARG B   2     -12.385 -18.798 -28.273  1.00 29.89 LIG 0.16  HD
BRANCH 20 23
ATOM     23  CA  ASN B   1     -13.535 -18.104 -26.058  1.00 47.73 LIG 0.28  C 
BRANCH 23 24
ATOM     24  N   ASN B   1     -13.602 -19.506 -25.726  1.00 51.86 LIG-0.07  N 
ATOM     25 H3   ASN B   1     -14.346 -19.856 -26.067  1.00 51.86 LIG 0.28  HD
ATOM     26 H1   ASN B   1     -12.894 -19.926 -26.065  1.00 51.86 LIG 0.28  HD
ATOM     27 H2   ASN B   1     -13.608 -19.602 -24.841  1.00 51.86 LIG 0.28  HD
ENDBRANCH 23 24
BRANCH 23 28
ATOM     28  CB  ASN B   1     -12.169 -17.598 -25.642  1.00 49.79 LIG 0.14  C 
BRANCH 28 29
ATOM     29  CG  ASN B   1     -12.078 -16.095 -25.767  1.00 59.47 LIG 0.22  C 
ATOM     30  ND2 ASN B   1     -12.471 -15.377 -24.709  1.00 63.81 LIG-0.37  N 
ATOM     31 21HD ASN B   1     -12.458 -14.518 -24.744  1.00 63.81 LIG 0.16  HD
ATOM     32 22HD ASN B   1     -12.735 -15.774 -23.994  1.00 63.81 LIG 0.16  HD
ATOM     33 OD1  ASN B   1     -11.692 -15.580 -26.812  1.00 60.25 LIG-0.27  OA
ENDBRANCH 28 29
ENDBRANCH 23 28
ENDBRANCH 20 23
ENDBRANCH 6 19
ENDBRANCH 3 6
ENDBRANCH 1 2
BRANCH 1 34
ATOM     34  CB  LEU B   3     -13.793 -23.099 -28.578  1.00 28.79 LIG 0.04  C 
BRANCH 34 35
ATOM     35  CG  LEU B   3     -14.355 -24.512 -28.770  1.00 33.15 LIG-0.02  C 
ATOM     36  CD2 LEU B   3     -13.567 -25.487 -27.905  1.00 30.13 LIG 0.01  C 
ATOM     37  CD1 LEU B   3     -14.366 -24.999 -30.249  1.00 27.67 LIG 0.01  C 
ENDBRANCH 34 35
ENDBRANCH 1 34
BRANCH 1 38
ATOM     38  C   LEU B   3     -16.103 -22.068 -28.798  1.00 20.33 LIG 0.24  C 
ATOM     39  N   LEU B   4     -16.947 -22.806 -29.512  1.00 23.83 LIG-0.35  N 
ATOM     40 H    LEU B   4     -16.726 -23.249 -30.215  1.00 23.83 LIG 0.16  HD
ATOM     41 O    LEU B   3     -16.450 -21.455 -27.792  1.00 22.70 LIG-0.27  OA
BRANCH 39 42
ATOM     42  CA  LEU B   4     -18.351 -22.915 -29.137  1.00 22.91 LIG 0.18  C 
BRANCH 42 43
ATOM     43  C   LEU B   4     -19.001 -23.999 -30.002  1.00 30.74 LIG 0.24  C 
ATOM     44 O    LEU B   4     -18.853 -24.010 -31.257  1.00 30.11 LIG-0.27  OA
ATOM     45  N   LEU B   5     -19.748 -24.901 -29.379  1.00 32.41 LIG-0.35  N 
ATOM     46 H    LEU B   5     -19.830 -24.982 -28.528  1.00 32.41 LIG 0.16  HD
BRANCH 45 47
ATOM     47  CA  LEU B   5     -20.509 -25.857 -30.194  1.00 35.50 LIG 0.18  C 
BRANCH 47 48
ATOM     48  C   LEU B   5     -21.371 -25.122 -31.214  1.00 33.38 LIG 0.24  C 
ATOM     49 O    LEU B   5     -22.175 -24.232 -30.860  1.00 25.58 LIG-0.27  OA
ATOM     50  N   THR B   6     -21.194 -25.513 -32.472  1.00 32.99 LIG-0.34  N 
ATOM     51 H    THR B   6     -20.544 -26.022 -32.714  1.00 32.99 LIG 0.16  HD
BRANCH 50 52
ATOM     52  CA  THR B   6     -22.068 -25.133 -33.573  1.00 39.09 LIG 0.19  C 
BRANCH 52 53
ATOM     53  CB  THR B   6     -21.460 -23.949 -34.373  1.00 66.99 LIG 0.14  C 
ATOM     54  CG2 THR B   6     -22.279 -22.688 -34.183  1.00 64.52 LIG 0.04  C 
BRANCH 53 55
ATOM     55 OG1  THR B   6     -20.115 -23.695 -33.923  1.00 68.32 LIG-0.39  OA
ATOM     56 HG1  THR B   6     -20.091 -23.713 -33.084  1.00 68.32 LIG 0.21  HD
ENDBRANCH 53 55
ENDBRANCH 52 53
BRANCH 52 57
ATOM     57  C   THR B   6     -22.225 -26.334 -34.516  1.00 46.48 LIG 0.22  C 
ATOM     58 O    THR B   6     -22.462 -27.466 -34.068  1.00 50.47 LIG-0.29  OA
ENDBRANCH 52 57
ENDBRANCH 50 52
ENDBRANCH 47 48
BRANCH 47 59
ATOM     59  CB  LEU B   5     -21.417 -26.719 -29.327  1.00 41.25 LIG 0.04  C 
BRANCH 59 60
ATOM     60  CG  LEU B   5     -21.856 -28.068 -29.874  1.00 47.99 LIG-0.02  C 
ATOM     61  CD2 LEU B   5     -22.355 -28.946 -28.760  1.00 50.88 LIG 0.01  C 
ATOM     62  CD1 LEU B   5     -20.662 -28.711 -30.549  1.00 54.72 LIG 0.01  C 
ENDBRANCH 59 60
ENDBRANCH 47 59
ENDBRANCH 45 47
ENDBRANCH 42 43
BRANCH 42 63
ATOM     63  CB  LEU B   4     -19.016 -21.592 -29.459  1.00 23.96 LIG 0.04  C 
BRANCH 63 64
ATOM     64  CG  LEU B   4     -19.147 -21.051 -30.866  1.00 38.52 LIG-0.02  C 
ATOM     65  CD1 LEU B   4     -17.936 -21.335 -31.677  1.00 46.71 LIG 0.01  C 
ATOM     66  CD2 LEU B   4     -20.420 -21.632 -31.500  1.00 36.33 LIG 0.01  C 
ENDBRANCH 63 64
ENDBRANCH 42 63
ENDBRANCH 39 42
ENDBRANCH 1 38
TORSDOF 26
ENDMDL
MODEL 71
USER: ADFR SOLUTION from run 15
USER: SCORE 21.977953 LL:  -4.808 LR: -18.536 RR:   0.000 FEB: -10.780
USER: RMSD 6.110362
USER: SEED 528755
USER: STATUS no improvement in best in 24 clusters for 5 generations
USER: GENES 28
USER: genes 0 Translation |==|  0.55738 0.56058 0.45582
USER: genes 1 Rotation |==|  0.24477 0.14939 0.52062 0.74800
USER: genes 2 Torsion [C]-CA--N-[C] |==|  0.81205
USER: genes 3 Torsion [N]-C--CA-[N] |==|  0.34762
USER: genes 4 Torsion [C]-CA--CB-[CG] |==|  0.31966
USER: genes 5 Torsion [CA]-CB--CG-[CD] |==|  0.37314
USER: genes 6 Torsion [CB]-CG--CD-[NE] |==|  0.61388
USER: genes 7 Torsion [CG]-CD--NE-[HE] |==|  0.92504
USER: genes 8 Torsion [C]-CA--N-[C] |==|  0.76433
USER: genes 9 Torsion [N]-C--CA-[N] |==|  0.10999
USER: genes 10 Torsion [C]-CA--N-[H3] |==|  0.68747
USER: genes 11 Torsion [C]-CA--CB-[CG] |==|  0.43472
USER: genes 12 Torsion [CA]-CB--CG-[ND2] |==|  0.52835
USER: genes 13 Torsion [N]-CA--CB-[CG] |==|  0.68142
USER: genes 14 Torsion [CA]-CB--CG-[CD1] |==|  0.68573
USER: genes 15 Torsion [N]-CA--C-[N] |==|  0.45000
USER: genes 16 Torsion [C]-N--CA-[CB] |==|  0.51722
USER: genes 17 Torsion [N]-CA--C-[N] |==|  0.90377
USER: genes 18 Torsion [C]-N--CA-[C] |==|  0.79224
USER: genes 19 Torsion [N]-CA--C-[N] |==|  0.35249
USER: genes 20 Torsion [C]-N--CA-[C] |==|  0.69000
USER: genes 21 Torsion [N]-CA--CB-[CG2] |==|  0.00544
USER: genes 22 Torsion [CA]-CB--OG1-[HG1] |==|  0.33203
USER: genes 23 Torsion [N]-CA--C-[O] |==|  0.03002
USER: genes 24 Torsion [N]-CA--CB-[CG] |==|  0.55512
USER: genes 25 Torsion [CA]-CB--CG-[CD2] |==|  0.40796
USER: genes 26 Torsion [N]-CA--CB-[CG] |==|  0.19336
USER: genes 27 Torsion [CA]-CB--CG-[CD1] |==|  0.29263
ROOT
ATOM      1  CA  LEU B   3     -16.682 -21.372 -29.245  1.00 17.18 LIG 0.18  C 
ENDROOT
BRANCH 1 2
ATOM      2  N   LEU B   3     -17.636 -21.947 -30.117  1.00 21.09 LIG-0.35  N 
ATOM      3  C   ARG B   2     -18.940 -21.751 -29.943  1.00 20.79 LIG 0.24  C 
ATOM      4 O    ARG B   2     -19.412 -20.996 -29.068  1.00 18.81 LIG-0.27  OA
ATOM      5 H    LEU B   3     -17.300 -22.421 -30.752  1.00 21.09 LIG 0.16  HD
BRANCH 3 6
ATOM      6  CA  ARG B   2     -19.849 -22.580 -30.841  1.00 21.42 LIG 0.18  C 
BRANCH 6 7
ATOM      7  CB  ARG B   2     -20.591 -21.735 -31.882  1.00 36.36 LIG 0.04  C 
BRANCH 7 8
ATOM      8  CG  ARG B   2     -20.171 -22.078 -33.299  1.00 41.67 LIG 0.02  C 
BRANCH 8 9
ATOM      9  CD  ARG B   2     -21.351 -22.236 -34.259  1.00 51.14 LIG 0.14  C 
BRANCH 9 10
ATOM     10  NE  ARG B   2     -21.164 -23.376 -35.175  1.00 53.41 LIG-0.23  N 
ATOM     11 HE   ARG B   2     -20.356 -23.607 -35.357  1.00 53.41 LIG 0.18  HD
ATOM     12  CZ  ARG B   2     -22.147 -24.081 -35.748  1.00 50.83 LIG 0.67  C 
ATOM     13  NH1 ARG B   2     -23.418 -23.781 -35.515  1.00 40.00 LIG-0.23  N 
ATOM     14  NH2 ARG B   2     -21.850 -25.090 -36.569  1.00 54.23 LIG-0.23  N 
ATOM     15 1HH1 ARG B   2     -23.617 -23.127 -34.993  1.00 40.00 LIG 0.17  HD
ATOM     16 2HH1 ARG B   2     -24.044 -24.239 -35.888  1.00 40.00 LIG 0.17  HD
ATOM     17 1HH2 ARG B   2     -21.028 -25.286 -36.730  1.00 54.23 LIG 0.17  HD
ATOM     18 2HH2 ARG B   2     -22.480 -25.544 -36.937  1.00 54.23 LIG 0.17  HD
ENDBRANCH 9 10
ENDBRANCH 8 9
ENDBRANCH 7 8
ENDBRANCH 6 7
BRANCH 6 19
ATOM     19  N   ARG B   2     -20.769 -23.306 -29.993  1.00 29.89 LIG-0.35  N 
ATOM     20  C   ASN B   1     -20.418 -24.469 -29.460  1.00 39.87 LIG 0.25  C 
ATOM     21 O    ASN B   1     -19.473 -25.142 -29.891  1.00 37.46 LIG-0.27  OA
ATOM     22 H    ARG B   2     -21.532 -22.925 -29.875  1.00 29.89 LIG 0.16  HD
BRANCH 20 23
ATOM     23  CA  ASN B   1     -21.273 -24.942 -28.270  1.00 47.73 LIG 0.28  C 
BRANCH 23 24
ATOM     24  N   ASN B   1     -22.686 -24.689 -28.410  1.00 51.86 LIG-0.07  N 
ATOM     25 H3   ASN B   1     -22.939 -24.080 -27.812  1.00 51.86 LIG 0.28  HD
ATOM     26 H1   ASN B   1     -22.854 -24.386 -29.230  1.00 51.86 LIG 0.28  HD
ATOM     27 H2   ASN B   1     -23.137 -25.444 -28.274  1.00 51.86 LIG 0.28  HD
ENDBRANCH 23 24
BRANCH 23 28
ATOM     28  CB  ASN B   1     -21.097 -26.418 -27.975  1.00 49.79 LIG 0.14  C 
BRANCH 28 29
ATOM     29  CG  ASN B   1     -21.450 -26.737 -26.542  1.00 59.47 LIG 0.22  C 
ATOM     30  ND2 ASN B   1     -21.137 -27.961 -26.102  1.00 63.81 LIG-0.37  N 
ATOM     31 21HD ASN B   1     -21.340 -28.194 -25.300  1.00 63.81 LIG 0.16  HD
ATOM     32 22HD ASN B   1     -20.732 -28.514 -26.621  1.00 63.81 LIG 0.16  HD
ATOM     33 OD1  ASN B   1     -22.028 -25.909 -25.843  1.00 60.25 LIG-0.27  OA
ENDBRANCH 28 29
ENDBRANCH 23 28
ENDBRANCH 20 23
ENDBRANCH 6 19
ENDBRANCH 3 6
ENDBRANCH 1 2
BRANCH 1 34
ATOM     34  CB  LEU B   3     -15.287 -22.014 -29.488  1.00 28.79 LIG 0.04  C 
BRANCH 34 35
ATOM     35  CG  LEU B   3     -14.816 -22.807 -28.264  1.00 33.15 LIG-0.02  C 
ATOM     36  CD2 LEU B   3     -15.969 -22.940 -27.278  1.00 30.13 LIG 0.01  C 
ATOM     37  CD1 LEU B   3     -13.572 -22.199 -27.551  1.00 27.67 LIG 0.01  C 
ENDBRANCH 34 35
ENDBRANCH 1 34
BRANCH 1 38
ATOM     38  C   LEU B   3     -16.634 -19.864 -29.368  1.00 20.33 LIG 0.24  C 
ATOM     39  N   LEU B   4     -16.061 -19.219 -28.357  1.00 23.83 LIG-0.35  N 
ATOM     40 H    LEU B   4     -15.728 -19.603 -27.663  1.00 23.83 LIG 0.16  HD
ATOM     41 O    LEU B   3     -17.091 -19.284 -30.348  1.00 22.70 LIG-0.27  OA
BRANCH 39 42
ATOM     42  CA  LEU B   4     -15.956 -17.765 -28.359  1.00 22.91 LIG 0.18  C 
BRANCH 42 43
ATOM     43  C   LEU B   4     -15.205 -17.336 -29.624  1.00 30.74 LIG 0.24  C 
ATOM     44 O    LEU B   4     -15.515 -16.278 -30.242  1.00 30.11 LIG-0.27  OA
ATOM     45  N   LEU B   5     -14.243 -18.140 -30.056  1.00 32.41 LIG-0.35  N 
ATOM     46 H    LEU B   5     -13.946 -18.833 -29.643  1.00 32.41 LIG 0.16  HD
BRANCH 45 47
ATOM     47  CA  LEU B   5     -13.612 -17.839 -31.347  1.00 35.50 LIG 0.18  C 
BRANCH 47 48
ATOM     48  C   LEU B   5     -14.542 -18.211 -32.496  1.00 33.38 LIG 0.24  C 
ATOM     49 O    LEU B   5     -15.038 -19.356 -32.583  1.00 25.58 LIG-0.27  OA
ATOM     50  N   THR B   6     -14.761 -17.232 -33.369  1.00 32.99 LIG-0.34  N 
ATOM     51 H    THR B   6     -14.530 -16.417 -33.221  1.00 32.99 LIG 0.16  HD
BRANCH 50 52
ATOM     52  CA  THR B   6     -15.410 -17.423 -34.658  1.00 39.09 LIG 0.19  C 
BRANCH 52 53
ATOM     53  CB  THR B   6     -16.565 -16.403 -34.848  1.00 66.99 LIG 0.14  C 
ATOM     54  CG2 THR B   6     -16.662 -15.465 -33.661  1.00 64.52 LIG 0.04  C 
BRANCH 53 55
ATOM     55 OG1  THR B   6     -16.334 -15.618 -36.035  1.00 68.32 LIG-0.39  OA
ATOM     56 HG1  THR B   6     -16.968 -15.733 -36.575  1.00 68.32 LIG 0.21  HD
ENDBRANCH 53 55
ENDBRANCH 52 53
BRANCH 52 57
ATOM     57  C   THR B   6     -14.373 -17.204 -35.769  1.00 46.48 LIG 0.22  C 
ATOM     58 O    THR B   6     -13.165 -17.112 -35.502  1.00 50.47 LIG-0.29  OA
ENDBRANCH 52 57
ENDBRANCH 50 52
ENDBRANCH 47 48
BRANCH 47 59
ATOM     59  CB  LEU B   5     -12.308 -18.609 -31.516  1.00 41.25 LIG 0.04  C 
BRANCH 59 60
ATOM     60  CG  LEU B   5     -11.306 -18.100 -32.540  1.00 47.99 LIG-0.02  C 
ATOM     61  CD2 LEU B   5      -9.902 -18.371 -32.077  1.00 50.88 LIG 0.01  C 
ATOM     62  CD1 LEU B   5     -11.522 -16.610 -32.707  1.00 54.72 LIG 0.01  C 
ENDBRANCH 59 60
ENDBRANCH 47 59
ENDBRANCH 45 47
ENDBRANCH 42 43
BRANCH 42 63
ATOM     63  CB  LEU B   4     -15.125 -17.363 -27.158  1.00 23.96 LIG 0.04  C 
BRANCH 63 64
ATOM     64  CG  LEU B   4     -13.642 -17.639 -27.045  1.00 38.52 LIG-0.02  C 
ATOM     65  CD1 LEU B   4     -12.838 -16.407 -27.249  1.00 46.71 LIG 0.01  C 
ATOM     66  CD2 LEU B   4     -13.366 -18.294 -25.683  1.00 36.33 LIG 0.01  C 
ENDBRANCH 63 64
ENDBRANCH 42 63
ENDBRANCH 39 42
ENDBRANCH 1 38
TORSDOF 26
ENDMDL
MODEL 72
USER: ADFR SOLUTION from run 183
USER: SCORE 21.257770 LL:  -4.040 LR: -18.525 RR:   0.000 FEB: -10.769
USER: RMSD 5.312314
USER: SEED 182
USER: STATUS no improvement in best in 6 clusters for 5 generations
USER: GENES 28
USER: genes 0 Translation |==|  0.54959 0.52838 0.48987
USER: genes 1 Rotation |==|  0.15137 0.17522 0.48828 0.65113
USER: genes 2 Torsion [C]-CA--N-[C] |==|  0.77101
USER: genes 3 Torsion [N]-C--CA-[N] |==|  0.27951
USER: genes 4 Torsion [C]-CA--CB-[CG] |==|  0.41483
USER: genes 5 Torsion [CA]-CB--CG-[CD] |==|  0.38230
USER: genes 6 Torsion [CB]-CG--CD-[NE] |==|  0.53436
USER: genes 7 Torsion [CG]-CD--NE-[HE] |==|  0.95089
USER: genes 8 Torsion [C]-CA--N-[C] |==|  0.67834
USER: genes 9 Torsion [N]-C--CA-[N] |==|  0.60257
USER: genes 10 Torsion [C]-CA--N-[H3] |==|  0.63716
USER: genes 11 Torsion [C]-CA--CB-[CG] |==|  0.47930
USER: genes 12 Torsion [CA]-CB--CG-[ND2] |==|  0.28562
USER: genes 13 Torsion [N]-CA--CB-[CG] |==|  0.24104
USER: genes 14 Torsion [CA]-CB--CG-[CD1] |==|  0.31531
USER: genes 15 Torsion [N]-CA--C-[N] |==|  0.47814
USER: genes 16 Torsion [C]-N--CA-[CB] |==|  0.52566
USER: genes 17 Torsion [N]-CA--C-[N] |==|  0.33585
USER: genes 18 Torsion [C]-N--CA-[C] |==|  0.83175
USER: genes 19 Torsion [N]-CA--C-[N] |==|  0.45556
USER: genes 20 Torsion [C]-N--CA-[C] |==|  0.88861
USER: genes 21 Torsion [N]-CA--CB-[CG2] |==|  0.12676
USER: genes 22 Torsion [CA]-CB--OG1-[HG1] |==|  0.38581
USER: genes 23 Torsion [N]-CA--C-[O] |==|  0.79981
USER: genes 24 Torsion [N]-CA--CB-[CG] |==|  0.83770
USER: genes 25 Torsion [CA]-CB--CG-[CD2] |==|  0.58739
USER: genes 26 Torsion [N]-CA--CB-[CG] |==|  0.52329
USER: genes 27 Torsion [CA]-CB--CG-[CD1] |==|  0.12808
ROOT
ATOM      1  CA  LEU B   3     -16.875 -22.169 -28.530  1.00 17.18 LIG 0.18  C 
ENDROOT
BRANCH 1 2
ATOM      2  N   LEU B   3     -17.742 -22.687 -29.520  1.00 21.09 LIG-0.35  N 
ATOM      3  C   ARG B   2     -18.986 -22.235 -29.656  1.00 20.79 LIG 0.24  C 
ATOM      4 O    ARG B   2     -19.449 -21.283 -28.994  1.00 18.81 LIG-0.27  OA
ATOM      5 H    LEU B   3     -17.398 -23.305 -30.009  1.00 21.09 LIG 0.16  HD
BRANCH 3 6
ATOM      6  CA  ARG B   2     -19.859 -23.012 -30.633  1.00 21.42 LIG 0.18  C 
BRANCH 6 7
ATOM      7  CB  ARG B   2     -20.676 -22.103 -31.557  1.00 36.36 LIG 0.04  C 
BRANCH 7 8
ATOM      8  CG  ARG B   2     -20.924 -22.741 -32.911  1.00 41.67 LIG 0.02  C 
BRANCH 8 9
ATOM      9  CD  ARG B   2     -22.351 -22.540 -33.422  1.00 51.14 LIG 0.14  C 
BRANCH 9 10
ATOM     10  NE  ARG B   2     -22.646 -23.405 -34.579  1.00 53.41 LIG-0.23  N 
ATOM     11 HE   ARG B   2     -21.976 -23.744 -34.999  1.00 53.41 LIG 0.18  HD
ATOM     12  CZ  ARG B   2     -23.869 -23.707 -35.032  1.00 50.83 LIG 0.67  C 
ATOM     13  NH1 ARG B   2     -24.949 -23.218 -34.436  1.00 40.00 LIG-0.23  N 
ATOM     14  NH2 ARG B   2     -24.007 -24.497 -36.098  1.00 54.23 LIG-0.23  N 
ATOM     15 1HH1 ARG B   2     -24.868 -22.702 -33.754  1.00 40.00 LIG 0.17  HD
ATOM     16 2HH1 ARG B   2     -25.731 -23.417 -34.734  1.00 40.00 LIG 0.17  HD
ATOM     17 1HH2 ARG B   2     -23.311 -24.812 -36.493  1.00 54.23 LIG 0.17  HD
ATOM     18 2HH2 ARG B   2     -24.791 -24.692 -36.389  1.00 54.23 LIG 0.17  HD
ENDBRANCH 9 10
ENDBRANCH 8 9
ENDBRANCH 7 8
ENDBRANCH 6 7
BRANCH 6 19
ATOM     19  N   ARG B   2     -20.712 -23.892 -29.864  1.00 29.89 LIG-0.35  N 
ATOM     20  C   ASN B   1     -20.599 -25.208 -29.979  1.00 39.87 LIG 0.25  C 
ATOM     21 O    ASN B   1     -20.031 -25.748 -30.937  1.00 37.46 LIG-0.27  OA
ATOM     22 H    ARG B   2     -21.274 -23.493 -29.349  1.00 29.89 LIG 0.16  HD
BRANCH 20 23
ATOM     23  CA  ASN B   1     -21.232 -26.034 -28.844  1.00 47.73 LIG 0.28  C 
BRANCH 23 24
ATOM     24  N   ASN B   1     -20.491 -27.215 -28.478  1.00 51.86 LIG-0.07  N 
ATOM     25 H3   ASN B   1     -21.041 -27.915 -28.452  1.00 51.86 LIG 0.28  HD
ATOM     26 H1   ASN B   1     -19.852 -27.363 -29.080  1.00 51.86 LIG 0.28  HD
ATOM     27 H2   ASN B   1     -20.122 -27.098 -27.677  1.00 51.86 LIG 0.28  HD
ENDBRANCH 23 24
BRANCH 23 28
ATOM     28  CB  ASN B   1     -21.454 -25.221 -27.584  1.00 49.79 LIG 0.14  C 
BRANCH 28 29
ATOM     29  CG  ASN B   1     -22.238 -26.004 -26.557  1.00 59.47 LIG 0.22  C 
ATOM     30  ND2 ASN B   1     -21.545 -26.525 -25.538  1.00 63.81 LIG-0.37  N 
ATOM     31 21HD ASN B   1     -21.946 -26.997 -24.943  1.00 63.81 LIG 0.16  HD
ATOM     32 22HD ASN B   1     -20.698 -26.387 -25.479  1.00 63.81 LIG 0.16  HD
ATOM     33 OD1  ASN B   1     -23.447 -26.170 -26.690  1.00 60.25 LIG-0.27  OA
ENDBRANCH 28 29
ENDBRANCH 23 28
ENDBRANCH 20 23
ENDBRANCH 6 19
ENDBRANCH 3 6
ENDBRANCH 1 2
BRANCH 1 34
ATOM     34  CB  LEU B   3     -15.831 -23.247 -28.124  1.00 28.79 LIG 0.04  C 
BRANCH 34 35
ATOM     35  CG  LEU B   3     -14.608 -23.217 -29.048  1.00 33.15 LIG-0.02  C 
ATOM     36  CD2 LEU B   3     -14.425 -24.589 -29.682  1.00 30.13 LIG 0.01  C 
ATOM     37  CD1 LEU B   3     -13.290 -22.773 -28.347  1.00 27.67 LIG 0.01  C 
ENDBRANCH 34 35
ENDBRANCH 1 34
BRANCH 1 38
ATOM     38  C   LEU B   3     -16.211 -20.883 -28.972  1.00 20.33 LIG 0.24  C 
ATOM     39  N   LEU B   4     -15.507 -20.245 -28.042  1.00 23.83 LIG-0.35  N 
ATOM     40 H    LEU B   4     -15.415 -20.518 -27.232  1.00 23.83 LIG 0.16  HD
ATOM     41 O    LEU B   3     -16.314 -20.469 -30.123  1.00 22.70 LIG-0.27  OA
BRANCH 39 42
ATOM     42  CA  LEU B   4     -14.822 -18.995 -28.347  1.00 22.91 LIG 0.18  C 
BRANCH 42 43
ATOM     43  C   LEU B   4     -13.921 -19.221 -29.565  1.00 30.74 LIG 0.24  C 
ATOM     44 O    LEU B   4     -12.986 -20.072 -29.538  1.00 30.11 LIG-0.27  OA
ATOM     45  N   LEU B   5     -14.145 -18.465 -30.631  1.00 32.41 LIG-0.35  N 
ATOM     46 H    LEU B   5     -14.803 -17.920 -30.730  1.00 32.41 LIG 0.16  HD
BRANCH 45 47
ATOM     47  CA  LEU B   5     -13.203 -18.547 -31.754  1.00 35.50 LIG 0.18  C 
BRANCH 47 48
ATOM     48  C   LEU B   5     -11.803 -18.142 -31.308  1.00 33.38 LIG 0.24  C 
ATOM     49 O    LEU B   5     -11.619 -17.521 -30.238  1.00 25.58 LIG-0.27  OA
ATOM     50  N   THR B   6     -10.832 -18.497 -32.144  1.00 32.99 LIG-0.34  N 
ATOM     51 H    THR B   6     -10.957 -19.041 -32.798  1.00 32.99 LIG 0.16  HD
BRANCH 50 52
ATOM     52  CA  THR B   6      -9.462 -18.013 -32.051  1.00 39.09 LIG 0.19  C 
BRANCH 52 53
ATOM     53  CB  THR B   6      -8.727 -18.180 -33.409  1.00 66.99 LIG 0.14  C 
ATOM     54  CG2 THR B   6      -9.597 -17.707 -34.558  1.00 64.52 LIG 0.04  C 
BRANCH 53 55
ATOM     55 OG1  THR B   6      -7.511 -17.407 -33.406  1.00 68.32 LIG-0.39  OA
ATOM     56 HG1  THR B   6      -6.896 -17.850 -33.770  1.00 68.32 LIG 0.21  HD
ENDBRANCH 53 55
ENDBRANCH 52 53
BRANCH 52 57
ATOM     57  C   THR B   6      -9.489 -16.522 -31.687  1.00 46.48 LIG 0.22  C 
ATOM     58 O    THR B   6      -9.846 -15.672 -32.517  1.00 50.47 LIG-0.29  OA
ENDBRANCH 52 57
ENDBRANCH 50 52
ENDBRANCH 47 48
BRANCH 47 59
ATOM     59  CB  LEU B   5     -13.627 -17.634 -32.897  1.00 41.25 LIG 0.04  C 
BRANCH 59 60
ATOM     60  CG  LEU B   5     -14.999 -17.852 -33.514  1.00 47.99 LIG-0.02  C 
ATOM     61  CD2 LEU B   5     -14.980 -17.490 -34.973  1.00 50.88 LIG 0.01  C 
ATOM     62  CD1 LEU B   5     -15.991 -16.979 -32.773  1.00 54.72 LIG 0.01  C 
ENDBRANCH 59 60
ENDBRANCH 47 59
ENDBRANCH 45 47
ENDBRANCH 42 43
BRANCH 42 63
ATOM     63  CB  LEU B   4     -13.939 -18.655 -27.163  1.00 23.96 LIG 0.04  C 
BRANCH 63 64
ATOM     64  CG  LEU B   4     -13.209 -17.338 -27.024  1.00 38.52 LIG-0.02  C 
ATOM     65  CD1 LEU B   4     -14.093 -16.186 -27.334  1.00 46.71 LIG 0.01  C 
ATOM     66  CD2 LEU B   4     -12.617 -17.251 -25.608  1.00 36.33 LIG 0.01  C 
ENDBRANCH 63 64
ENDBRANCH 42 63
ENDBRANCH 39 42
ENDBRANCH 1 38
TORSDOF 26
ENDMDL
MODEL 73
USER: ADFR SOLUTION from run 83
USER: SCORE 22.592256 LL:  -5.202 LR: -18.533 RR:   0.000 FEB: -10.777
USER: RMSD 5.660978
USER: SEED 82
USER: STATUS searching
USER: GENES 28
USER: genes 0 Translation |==|  0.57148 0.51968 0.48901
USER: genes 1 Rotation |==|  0.10040 0.26606 0.64582 0.61970
USER: genes 2 Torsion [C]-CA--N-[C] |==|  0.79192
USER: genes 3 Torsion [N]-C--CA-[N] |==|  0.48023
USER: genes 4 Torsion [C]-CA--CB-[CG] |==|  0.31908
USER: genes 5 Torsion [CA]-CB--CG-[CD] |==|  0.17713
USER: genes 6 Torsion [CB]-CG--CD-[NE] |==|  0.54240
USER: genes 7 Torsion [CG]-CD--NE-[HE] |==|  0.86388
USER: genes 8 Torsion [C]-CA--N-[C] |==|  0.67901
USER: genes 9 Torsion [N]-C--CA-[N] |==|  0.85257
USER: genes 10 Torsion [C]-CA--N-[H3] |==|  0.45942
USER: genes 11 Torsion [C]-CA--CB-[CG] |==|  0.31257
USER: genes 12 Torsion [CA]-CB--CG-[ND2] |==|  0.80715
USER: genes 13 Torsion [N]-CA--CB-[CG] |==|  0.56543
USER: genes 14 Torsion [CA]-CB--CG-[CD1] |==|  0.74336
USER: genes 15 Torsion [N]-CA--C-[N] |==|  0.42930
USER: genes 16 Torsion [C]-N--CA-[CB] |==|  0.16910
USER: genes 17 Torsion [N]-CA--C-[N] |==|  0.70868
USER: genes 18 Torsion [C]-N--CA-[C] |==|  0.17239
USER: genes 19 Torsion [N]-CA--C-[N] |==|  0.07222
USER: genes 20 Torsion [C]-N--CA-[C] |==|  0.53223
USER: genes 21 Torsion [N]-CA--CB-[CG2] |==|  0.68501
USER: genes 22 Torsion [CA]-CB--OG1-[HG1] |==|  0.64892
USER: genes 23 Torsion [N]-CA--C-[O] |==|  0.10788
USER: genes 24 Torsion [N]-CA--CB-[CG] |==|  0.91846
USER: genes 25 Torsion [CA]-CB--CG-[CD2] |==|  0.80589
USER: genes 26 Torsion [N]-CA--CB-[CG] |==|  0.08027
USER: genes 27 Torsion [CA]-CB--CG-[CD1] |==|  0.33821
ROOT
ATOM      1  CA  LEU B   3     -16.333 -22.384 -28.548  1.00 17.18 LIG 0.18  C 
ENDROOT
BRANCH 1 2
ATOM      2  N   LEU B   3     -17.602 -23.000 -28.656  1.00 21.09 LIG-0.35  N 
ATOM      3  C   ARG B   2     -18.721 -22.281 -28.680  1.00 20.79 LIG 0.24  C 
ATOM      4 O    ARG B   2     -18.737 -21.033 -28.692  1.00 18.81 LIG-0.27  OA
ATOM      5 H    LEU B   3     -17.580 -23.858 -28.704  1.00 21.09 LIG 0.16  HD
BRANCH 3 6
ATOM      6  CA  ARG B   2     -20.014 -23.084 -28.611  1.00 21.42 LIG 0.18  C 
BRANCH 6 7
ATOM      7  CB  ARG B   2     -20.208 -24.009 -29.818  1.00 36.36 LIG 0.04  C 
BRANCH 7 8
ATOM      8  CG  ARG B   2     -20.180 -25.473 -29.422  1.00 41.67 LIG 0.02  C 
BRANCH 8 9
ATOM      9  CD  ARG B   2     -21.327 -25.870 -28.491  1.00 51.14 LIG 0.14  C 
BRANCH 9 10
ATOM     10  NE  ARG B   2     -21.082 -27.171 -27.843  1.00 53.41 LIG-0.23  N 
ATOM     11 HE   ARG B   2     -20.842 -27.824 -28.349  1.00 53.41 LIG 0.18  HD
ATOM     12  CZ  ARG B   2     -21.203 -27.422 -26.534  1.00 50.83 LIG 0.67  C 
ATOM     13  NH1 ARG B   2     -21.572 -26.464 -25.694  1.00 40.00 LIG-0.23  N 
ATOM     14  NH2 ARG B   2     -20.960 -28.648 -26.067  1.00 54.23 LIG-0.23  N 
ATOM     15 1HH1 ARG B   2     -21.738 -25.673 -25.989  1.00 40.00 LIG 0.17  HD
ATOM     16 2HH1 ARG B   2     -21.648 -26.634 -24.854  1.00 40.00 LIG 0.17  HD
ATOM     17 1HH2 ARG B   2     -20.727 -29.276 -26.607  1.00 54.23 LIG 0.17  HD
ATOM     18 2HH2 ARG B   2     -21.037 -28.810 -25.227  1.00 54.23 LIG 0.17  HD
ENDBRANCH 9 10
ENDBRANCH 8 9
ENDBRANCH 7 8
ENDBRANCH 6 7
BRANCH 6 19
ATOM     19  N   ARG B   2     -21.110 -22.150 -28.477  1.00 29.89 LIG-0.35  N 
ATOM     20  C   ASN B   1     -21.854 -22.139 -27.380  1.00 39.87 LIG 0.25  C 
ATOM     21 O    ASN B   1     -21.885 -23.087 -26.584  1.00 37.46 LIG-0.27  OA
ATOM     22 H    ARG B   2     -21.225 -21.626 -29.150  1.00 29.89 LIG 0.16  HD
BRANCH 20 23
ATOM     23  CA  ASN B   1     -22.697 -20.869 -27.157  1.00 47.73 LIG 0.28  C 
BRANCH 23 24
ATOM     24  N   ASN B   1     -21.947 -19.638 -27.205  1.00 51.86 LIG-0.07  N 
ATOM     25 H3   ASN B   1     -22.509 -18.952 -27.282  1.00 51.86 LIG 0.28  HD
ATOM     26 H1   ASN B   1     -21.472 -19.550 -26.458  1.00 51.86 LIG 0.28  HD
ATOM     27 H2   ASN B   1     -21.399 -19.652 -27.906  1.00 51.86 LIG 0.28  HD
ENDBRANCH 23 24
BRANCH 23 28
ATOM     28  CB  ASN B   1     -23.844 -20.750 -28.139  1.00 49.79 LIG 0.14  C 
BRANCH 28 29
ATOM     29  CG  ASN B   1     -25.178 -20.896 -27.446  1.00 59.47 LIG 0.22  C 
ATOM     30  ND2 ASN B   1     -25.482 -22.110 -26.974  1.00 63.81 LIG-0.37  N 
ATOM     31 21HD ASN B   1     -26.240 -22.246 -26.593  1.00 63.81 LIG 0.16  HD
ATOM     32 22HD ASN B   1     -24.919 -22.755 -27.052  1.00 63.81 LIG 0.16  HD
ATOM     33 OD1  ASN B   1     -25.944 -19.941 -27.361  1.00 60.25 LIG-0.27  OA
ENDBRANCH 28 29
ENDBRANCH 23 28
ENDBRANCH 20 23
ENDBRANCH 6 19
ENDBRANCH 3 6
ENDBRANCH 1 2
BRANCH 1 34
ATOM     34  CB  LEU B   3     -15.285 -23.417 -28.049  1.00 28.79 LIG 0.04  C 
BRANCH 34 35
ATOM     35  CG  LEU B   3     -14.095 -22.726 -27.375  1.00 33.15 LIG-0.02  C 
ATOM     36  CD2 LEU B   3     -14.572 -21.442 -26.709  1.00 30.13 LIG 0.01  C 
ATOM     37  CD1 LEU B   3     -12.907 -22.418 -28.335  1.00 27.67 LIG 0.01  C 
ENDBRANCH 34 35
ENDBRANCH 1 34
BRANCH 1 38
ATOM     38  C   LEU B   3     -15.905 -21.731 -29.844  1.00 20.33 LIG 0.24  C 
ATOM     39  N   LEU B   4     -15.044 -20.724 -29.728  1.00 23.83 LIG-0.35  N 
ATOM     40 H    LEU B   4     -14.732 -20.438 -28.980  1.00 23.83 LIG 0.16  HD
ATOM     41 O    LEU B   3     -16.324 -22.121 -30.930  1.00 22.70 LIG-0.27  OA
BRANCH 39 42
ATOM     42  CA  LEU B   4     -14.559 -20.015 -30.906  1.00 22.91 LIG 0.18  C 
BRANCH 42 43
ATOM     43  C   LEU B   4     -13.638 -18.882 -30.442  1.00 30.74 LIG 0.24  C 
ATOM     44 O    LEU B   4     -12.477 -19.121 -30.002  1.00 30.11 LIG-0.27  OA
ATOM     45  N   LEU B   5     -14.125 -17.650 -30.492  1.00 32.41 LIG-0.35  N 
ATOM     46 H    LEU B   5     -14.877 -17.421 -30.840  1.00 32.41 LIG 0.16  HD
BRANCH 45 47
ATOM     47  CA  LEU B   5     -13.328 -16.562 -29.910  1.00 35.50 LIG 0.18  C 
BRANCH 47 48
ATOM     48  C   LEU B   5     -11.996 -16.426 -30.637  1.00 33.38 LIG 0.24  C 
ATOM     49 O    LEU B   5     -10.994 -15.938 -30.068  1.00 25.58 LIG-0.27  OA
ATOM     50  N   THR B   6     -12.006 -16.857 -31.895  1.00 32.99 LIG-0.34  N 
ATOM     51 H    THR B   6     -12.655 -17.314 -32.224  1.00 32.99 LIG 0.16  HD
BRANCH 50 52
ATOM     52  CA  THR B   6     -10.934 -16.608 -32.849  1.00 39.09 LIG 0.19  C 
BRANCH 52 53
ATOM     53  CB  THR B   6      -9.683 -17.460 -32.504  1.00 66.99 LIG 0.14  C 
ATOM     54  CG2 THR B   6      -8.528 -16.579 -32.071  1.00 64.52 LIG 0.04  C 
BRANCH 53 55
ATOM     55 OG1  THR B   6      -9.993 -18.371 -31.431  1.00 68.32 LIG-0.39  OA
ATOM     56 HG1  THR B   6      -9.432 -18.277 -30.812  1.00 68.32 LIG 0.21  HD
ENDBRANCH 53 55
ENDBRANCH 52 53
BRANCH 52 57
ATOM     57  C   THR B   6     -11.422 -16.997 -34.252  1.00 46.48 LIG 0.22  C 
ATOM     58 O    THR B   6     -12.586 -16.757 -34.608  1.00 50.47 LIG-0.29  OA
ENDBRANCH 52 57
ENDBRANCH 50 52
ENDBRANCH 47 48
BRANCH 47 59
ATOM     59  CB  LEU B   5     -13.046 -16.815 -28.434  1.00 41.25 LIG 0.04  C 
BRANCH 59 60
ATOM     60  CG  LEU B   5     -14.064 -17.618 -27.640  1.00 47.99 LIG-0.02  C 
ATOM     61  CD2 LEU B   5     -15.326 -16.823 -27.452  1.00 50.88 LIG 0.01  C 
ATOM     62  CD1 LEU B   5     -13.453 -17.951 -26.295  1.00 54.72 LIG 0.01  C 
ENDBRANCH 59 60
ENDBRANCH 47 59
ENDBRANCH 45 47
ENDBRANCH 42 43
BRANCH 42 63
ATOM     63  CB  LEU B   4     -15.758 -19.396 -31.596  1.00 23.96 LIG 0.04  C 
BRANCH 63 64
ATOM     64  CG  LEU B   4     -17.010 -18.972 -30.861  1.00 38.52 LIG-0.02  C 
ATOM     65  CD1 LEU B   4     -17.299 -17.529 -31.058  1.00 46.71 LIG 0.01  C 
ATOM     66  CD2 LEU B   4     -18.174 -19.865 -31.317  1.00 36.33 LIG 0.01  C 
ENDBRANCH 63 64
ENDBRANCH 42 63
ENDBRANCH 39 42
ENDBRANCH 1 38
TORSDOF 26
ENDMDL
MODEL 74
USER: ADFR SOLUTION from run 90
USER: SCORE 22.723414 LL:  -5.031 LR: -18.520 RR:   0.000 FEB: -10.764
USER: RMSD 3.349095
USER: SEED 89
USER: STATUS 1 or 2 clusters left
USER: GENES 28
USER: genes 0 Translation |==|  0.46652 0.51714 0.35787
USER: genes 1 Rotation |==|  0.56187 0.52523 0.48225 0.99520
USER: genes 2 Torsion [C]-CA--N-[C] |==|  0.80556
USER: genes 3 Torsion [N]-C--CA-[N] |==|  0.38381
USER: genes 4 Torsion [C]-CA--CB-[CG] |==|  0.39694
USER: genes 5 Torsion [CA]-CB--CG-[CD] |==|  0.71996
USER: genes 6 Torsion [CB]-CG--CD-[NE] |==|  0.19126
USER: genes 7 Torsion [CG]-CD--NE-[HE] |==|  0.08837
USER: genes 8 Torsion [C]-CA--N-[C] |==|  0.82325
USER: genes 9 Torsion [N]-C--CA-[N] |==|  0.14163
USER: genes 10 Torsion [C]-CA--N-[H3] |==|  0.87865
USER: genes 11 Torsion [C]-CA--CB-[CG] |==|  0.37632
USER: genes 12 Torsion [CA]-CB--CG-[ND2] |==|  0.55837
USER: genes 13 Torsion [N]-CA--CB-[CG] |==|  0.83912
USER: genes 14 Torsion [CA]-CB--CG-[CD1] |==|  0.54351
USER: genes 15 Torsion [N]-CA--C-[N] |==|  0.99348
USER: genes 16 Torsion [C]-N--CA-[CB] |==|  0.85148
USER: genes 17 Torsion [N]-CA--C-[N] |==|  0.47029
USER: genes 18 Torsion [C]-N--CA-[C] |==|  0.82448
USER: genes 19 Torsion [N]-CA--C-[N] |==|  0.94375
USER: genes 20 Torsion [C]-N--CA-[C] |==|  0.18092
USER: genes 21 Torsion [N]-CA--CB-[CG2] |==|  0.36485
USER: genes 22 Torsion [CA]-CB--OG1-[HG1] |==|  0.18738
USER: genes 23 Torsion [N]-CA--C-[O] |==|  0.24611
USER: genes 24 Torsion [N]-CA--CB-[CG] |==|  0.17537
USER: genes 25 Torsion [CA]-CB--CG-[CD2] |==|  0.67453
USER: genes 26 Torsion [N]-CA--CB-[CG] |==|  0.80500
USER: genes 27 Torsion [CA]-CB--CG-[CD1] |==|  0.39964
ROOT
ATOM      1  CA  LEU B   3     -18.931 -22.447 -31.302  1.00 17.18 LIG 0.18  C 
ENDROOT
BRANCH 1 2
ATOM      2  N   LEU B   3     -19.895 -23.019 -30.439  1.00 21.09 LIG-0.35  N 
ATOM      3  C   ARG B   2     -19.655 -24.153 -29.788  1.00 20.79 LIG 0.24  C 
ATOM      4 O    ARG B   2     -18.556 -24.746 -29.818  1.00 18.81 LIG-0.27  OA
ATOM      5 H    LEU B   3     -20.630 -22.575 -30.380  1.00 21.09 LIG 0.16  HD
BRANCH 3 6
ATOM      6  CA  ARG B   2     -20.847 -24.745 -29.047  1.00 21.42 LIG 0.18  C 
BRANCH 6 7
ATOM      7  CB  ARG B   2     -20.854 -24.400 -27.554  1.00 36.36 LIG 0.04  C 
BRANCH 7 8
ATOM      8  CG  ARG B   2     -22.257 -24.151 -27.033  1.00 41.67 LIG 0.02  C 
BRANCH 8 9
ATOM      9  CD  ARG B   2     -22.597 -22.666 -26.895  1.00 51.14 LIG 0.14  C 
BRANCH 9 10
ATOM     10  NE  ARG B   2     -22.711 -22.005 -28.208  1.00 53.41 LIG-0.23  N 
ATOM     11 HE   ARG B   2     -22.999 -22.480 -28.865  1.00 53.41 LIG 0.18  HD
ATOM     12  CZ  ARG B   2     -22.404 -20.728 -28.463  1.00 50.83 LIG 0.67  C 
ATOM     13  NH1 ARG B   2     -21.951 -19.936 -27.500  1.00 40.00 LIG-0.23  N 
ATOM     14  NH2 ARG B   2     -22.542 -20.245 -29.700  1.00 54.23 LIG-0.23  N 
ATOM     15 1HH1 ARG B   2     -21.852 -20.242 -26.702  1.00 40.00 LIG 0.17  HD
ATOM     16 2HH1 ARG B   2     -21.755 -19.116 -27.673  1.00 40.00 LIG 0.17  HD
ATOM     17 1HH2 ARG B   2     -22.828 -20.754 -30.331  1.00 54.23 LIG 0.17  HD
ATOM     18 2HH2 ARG B   2     -22.345 -19.425 -29.865  1.00 54.23 LIG 0.17  HD
ENDBRANCH 9 10
ENDBRANCH 8 9
ENDBRANCH 7 8
ENDBRANCH 6 7
BRANCH 6 19
ATOM     19  N   ARG B   2     -20.838 -26.176 -29.260  1.00 29.89 LIG-0.35  N 
ATOM     20  C   ASN B   1     -20.994 -26.675 -30.479  1.00 39.87 LIG 0.25  C 
ATOM     21 O    ASN B   1     -21.469 -26.018 -31.414  1.00 37.46 LIG-0.27  OA
ATOM     22 H    ARG B   2     -20.726 -26.648 -28.550  1.00 29.89 LIG 0.16  HD
BRANCH 20 23
ATOM     23  CA  ASN B   1     -20.556 -28.140 -30.661  1.00 47.73 LIG 0.28  C 
BRANCH 23 24
ATOM     24  N   ASN B   1     -21.105 -29.053 -29.689  1.00 51.86 LIG-0.07  N 
ATOM     25 H3   ASN B   1     -21.056 -28.689 -28.878  1.00 51.86 LIG 0.28  HD
ATOM     26 H1   ASN B   1     -21.956 -29.222 -29.887  1.00 51.86 LIG 0.28  HD
ATOM     27 H2   ASN B   1     -20.641 -29.813 -29.700  1.00 51.86 LIG 0.28  HD
ENDBRANCH 23 24
BRANCH 23 28
ATOM     28  CB  ASN B   1     -20.885 -28.681 -32.037  1.00 49.79 LIG 0.14  C 
BRANCH 28 29
ATOM     29  CG  ASN B   1     -19.726 -29.459 -32.613  1.00 59.47 LIG 0.22  C 
ATOM     30  ND2 ASN B   1     -19.704 -29.614 -33.942  1.00 63.81 LIG-0.37  N 
ATOM     31 21HD ASN B   1     -19.075 -30.069 -34.311  1.00 63.81 LIG 0.16  HD
ATOM     32 22HD ASN B   1     -20.319 -29.258 -34.426  1.00 63.81 LIG 0.16  HD
ATOM     33 OD1  ASN B   1     -18.873 -29.945 -31.875  1.00 60.25 LIG-0.27  OA
ENDBRANCH 28 29
ENDBRANCH 23 28
ENDBRANCH 20 23
ENDBRANCH 6 19
ENDBRANCH 3 6
ENDBRANCH 1 2
BRANCH 1 34
ATOM     34  CB  LEU B   3     -19.598 -21.366 -32.198  1.00 28.79 LIG 0.04  C 
BRANCH 34 35
ATOM     35  CG  LEU B   3     -20.749 -21.955 -33.020  1.00 33.15 LIG-0.02  C 
ATOM     36  CD2 LEU B   3     -20.346 -23.330 -33.535  1.00 30.13 LIG 0.01  C 
ATOM     37  CD1 LEU B   3     -21.212 -21.056 -34.205  1.00 27.67 LIG 0.01  C 
ENDBRANCH 34 35
ENDBRANCH 1 34
BRANCH 1 38
ATOM     38  C   LEU B   3     -17.746 -21.892 -30.542  1.00 20.33 LIG 0.24  C 
ATOM     39  N   LEU B   4     -17.815 -21.980 -29.217  1.00 23.83 LIG-0.35  N 
ATOM     40 H    LEU B   4     -18.476 -22.325 -28.789  1.00 23.83 LIG 0.16  HD
ATOM     41 O    LEU B   3     -16.782 -21.402 -31.122  1.00 22.70 LIG-0.27  OA
BRANCH 39 42
ATOM     42  CA  LEU B   4     -16.735 -21.480 -28.375  1.00 22.91 LIG 0.18  C 
BRANCH 42 43
ATOM     43  C   LEU B   4     -16.624 -19.966 -28.581  1.00 30.74 LIG 0.24  C 
ATOM     44 O    LEU B   4     -17.225 -19.389 -29.531  1.00 30.11 LIG-0.27  OA
ATOM     45  N   LEU B   5     -15.844 -19.298 -27.741  1.00 32.41 LIG-0.35  N 
ATOM     46 H    LEU B   5     -15.465 -19.624 -27.041  1.00 32.41 LIG 0.16  HD
BRANCH 45 47
ATOM     47  CA  LEU B   5     -15.593 -17.876 -28.006  1.00 35.50 LIG 0.18  C 
BRANCH 47 48
ATOM     48  C   LEU B   5     -14.852 -17.700 -29.326  1.00 33.38 LIG 0.24  C 
ATOM     49 O    LEU B   5     -14.864 -16.608 -29.935  1.00 25.58 LIG-0.27  OA
ATOM     50  N   THR B   6     -14.219 -18.788 -29.753  1.00 32.99 LIG-0.34  N 
ATOM     51 H    THR B   6     -14.103 -19.483 -29.260  1.00 32.99 LIG 0.16  HD
BRANCH 50 52
ATOM     52  CA  THR B   6     -13.655 -18.929 -31.089  1.00 39.09 LIG 0.19  C 
BRANCH 52 53
ATOM     53  CB  THR B   6     -14.731 -18.643 -32.172  1.00 66.99 LIG 0.14  C 
ATOM     54  CG2 THR B   6     -14.206 -17.677 -33.216  1.00 64.52 LIG 0.04  C 
BRANCH 53 55
ATOM     55 OG1  THR B   6     -15.103 -19.871 -32.828  1.00 68.32 LIG-0.39  OA
ATOM     56 HG1  THR B   6     -15.508 -20.368 -32.285  1.00 68.32 LIG 0.21  HD
ENDBRANCH 53 55
ENDBRANCH 52 53
BRANCH 52 57
ATOM     57  C   THR B   6     -12.513 -17.917 -31.252  1.00 46.48 LIG 0.22  C 
ATOM     58 O    THR B   6     -11.352 -18.212 -30.927  1.00 50.47 LIG-0.29  OA
ENDBRANCH 52 57
ENDBRANCH 50 52
ENDBRANCH 47 48
BRANCH 47 59
ATOM     59  CB  LEU B   5     -14.756 -17.249 -26.898  1.00 41.25 LIG 0.04  C 
BRANCH 59 60
ATOM     60  CG  LEU B   5     -13.346 -17.776 -26.683  1.00 47.99 LIG-0.02  C 
ATOM     61  CD2 LEU B   5     -13.219 -18.386 -25.315  1.00 50.88 LIG 0.01  C 
ATOM     62  CD1 LEU B   5     -12.384 -16.614 -26.827  1.00 54.72 LIG 0.01  C 
ENDBRANCH 59 60
ENDBRANCH 47 59
ENDBRANCH 45 47
ENDBRANCH 42 43
BRANCH 42 63
ATOM     63  CB  LEU B   4     -15.446 -22.117 -28.854  1.00 23.96 LIG 0.04  C 
BRANCH 63 64
ATOM     64  CG  LEU B   4     -15.126 -23.584 -28.665  1.00 38.52 LIG-0.02  C 
ATOM     65  CD1 LEU B   4     -14.381 -24.136 -29.825  1.00 46.71 LIG 0.01  C 
ATOM     66  CD2 LEU B   4     -14.357 -23.753 -27.346  1.00 36.33 LIG 0.01  C 
ENDBRANCH 63 64
ENDBRANCH 42 63
ENDBRANCH 39 42
ENDBRANCH 1 38
TORSDOF 26
ENDMDL
MODEL 75
USER: ADFR SOLUTION from run 5
USER: SCORE 21.540653 LL:  -4.882 LR: -18.513 RR:   0.000 FEB: -10.757
USER: RMSD 11.934055
USER: SEED 269819
USER: STATUS no improvement in best in 13 clusters for 5 generations
USER: GENES 28
USER: genes 0 Translation |==|  0.58373 0.55457 0.40929
USER: genes 1 Rotation |==|  0.60582 0.26593 0.09463 0.64030
USER: genes 2 Torsion [C]-CA--N-[C] |==|  0.83498
USER: genes 3 Torsion [N]-C--CA-[N] |==|  0.93340
USER: genes 4 Torsion [C]-CA--CB-[CG] |==|  0.38626
USER: genes 5 Torsion [CA]-CB--CG-[CD] |==|  0.62943
USER: genes 6 Torsion [CB]-CG--CD-[NE] |==|  0.71280
USER: genes 7 Torsion [CG]-CD--NE-[HE] |==|  0.94186
USER: genes 8 Torsion [C]-CA--N-[C] |==|  0.78392
USER: genes 9 Torsion [N]-C--CA-[N] |==|  0.71515
USER: genes 10 Torsion [C]-CA--N-[H3] |==|  0.24158
USER: genes 11 Torsion [C]-CA--CB-[CG] |==|  0.80628
USER: genes 12 Torsion [CA]-CB--CG-[ND2] |==|  0.37535
USER: genes 13 Torsion [N]-CA--CB-[CG] |==|  0.37269
USER: genes 14 Torsion [CA]-CB--CG-[CD1] |==|  0.37023
USER: genes 15 Torsion [N]-CA--C-[N] |==|  0.38355
USER: genes 16 Torsion [C]-N--CA-[CB] |==|  0.17627
USER: genes 17 Torsion [N]-CA--C-[N] |==|  0.44700
USER: genes 18 Torsion [C]-N--CA-[C] |==|  0.56971
USER: genes 19 Torsion [N]-CA--C-[N] |==|  0.82371
USER: genes 20 Torsion [C]-N--CA-[C] |==|  0.79383
USER: genes 21 Torsion [N]-CA--CB-[CG2] |==|  0.80389
USER: genes 22 Torsion [CA]-CB--OG1-[HG1] |==|  0.28435
USER: genes 23 Torsion [N]-CA--C-[O] |==|  0.37679
USER: genes 24 Torsion [N]-CA--CB-[CG] |==|  0.57622
USER: genes 25 Torsion [CA]-CB--CG-[CD2] |==|  0.47326
USER: genes 26 Torsion [N]-CA--CB-[CG] |==|  0.23597
USER: genes 27 Torsion [CA]-CB--CG-[CD1] |==|  0.48791
ROOT
ATOM      1  CA  LEU B   3     -16.030 -21.520 -30.222  1.00 17.18 LIG 0.18  C 
ENDROOT
BRANCH 1 2
ATOM      2  N   LEU B   3     -15.909 -20.116 -30.095  1.00 21.09 LIG-0.35  N 
ATOM      3  C   ARG B   2     -16.952 -19.312 -30.282  1.00 20.79 LIG 0.24  C 
ATOM      4 O    ARG B   2     -18.110 -19.725 -30.497  1.00 18.81 LIG-0.27  OA
ATOM      5 H    LEU B   3     -15.120 -19.842 -29.891  1.00 21.09 LIG 0.16  HD
BRANCH 3 6
ATOM      6  CA  ARG B   2     -16.633 -17.823 -30.297  1.00 21.42 LIG 0.18  C 
BRANCH 6 7
ATOM      7  CB  ARG B   2     -16.536 -17.247 -31.714  1.00 36.36 LIG 0.04  C 
BRANCH 7 8
ATOM      8  CG  ARG B   2     -17.187 -15.881 -31.819  1.00 41.67 LIG 0.02  C 
BRANCH 8 9
ATOM      9  CD  ARG B   2     -18.102 -15.739 -33.037  1.00 51.14 LIG 0.14  C 
BRANCH 9 10
ATOM     10  NE  ARG B   2     -17.466 -14.954 -34.111  1.00 53.41 LIG-0.23  N 
ATOM     11 HE   ARG B   2     -16.818 -14.435 -33.889  1.00 53.41 LIG 0.18  HD
ATOM     12  CZ  ARG B   2     -17.812 -14.983 -35.403  1.00 50.83 LIG 0.67  C 
ATOM     13  NH1 ARG B   2     -18.805 -15.760 -35.819  1.00 40.00 LIG-0.23  N 
ATOM     14  NH2 ARG B   2     -17.164 -14.218 -36.283  1.00 54.23 LIG-0.23  N 
ATOM     15 1HH1 ARG B   2     -19.232 -16.250 -35.257  1.00 40.00 LIG 0.17  HD
ATOM     16 2HH1 ARG B   2     -19.021 -15.772 -36.652  1.00 40.00 LIG 0.17  HD
ATOM     17 1HH2 ARG B   2     -16.525 -13.706 -36.019  1.00 54.23 LIG 0.17  HD
ATOM     18 2HH2 ARG B   2     -17.386 -14.235 -37.113  1.00 54.23 LIG 0.17  HD
ENDBRANCH 9 10
ENDBRANCH 8 9
ENDBRANCH 7 8
ENDBRANCH 6 7
BRANCH 6 19
ATOM     19  N   ARG B   2     -15.405 -17.624 -29.558  1.00 29.89 LIG-0.35  N 
ATOM     20  C   ASN B   1     -15.408 -17.634 -28.232  1.00 39.87 LIG 0.25  C 
ATOM     21 O    ASN B   1     -16.441 -17.482 -27.566  1.00 37.46 LIG-0.27  OA
ATOM     22 H    ARG B   2     -14.704 -17.504 -30.044  1.00 29.89 LIG 0.16  HD
BRANCH 20 23
ATOM     23  CA  ASN B   1     -14.036 -17.834 -27.563  1.00 47.73 LIG 0.28  C 
BRANCH 23 24
ATOM     24  N   ASN B   1     -13.807 -19.165 -27.056  1.00 51.86 LIG-0.07  N 
ATOM     25 H3   ASN B   1     -13.472 -19.675 -27.703  1.00 51.86 LIG 0.28  HD
ATOM     26 H1   ASN B   1     -13.230 -19.129 -26.379  1.00 51.86 LIG 0.28  HD
ATOM     27 H2   ASN B   1     -14.576 -19.511 -26.772  1.00 51.86 LIG 0.28  HD
ENDBRANCH 23 24
BRANCH 23 28
ATOM     28  CB  ASN B   1     -12.882 -17.486 -28.480  1.00 49.79 LIG 0.14  C 
BRANCH 28 29
ATOM     29  CG  ASN B   1     -12.749 -18.489 -29.601  1.00 59.47 LIG 0.22  C 
ATOM     30  ND2 ASN B   1     -12.551 -17.999 -30.829  1.00 63.81 LIG-0.37  N 
ATOM     31 21HD ASN B   1     -12.493 -18.533 -31.501  1.00 63.81 LIG 0.16  HD
ATOM     32 22HD ASN B   1     -12.482 -17.150 -30.947  1.00 63.81 LIG 0.16  HD
ATOM     33 OD1  ASN B   1     -12.854 -19.692 -29.376  1.00 60.25 LIG-0.27  OA
ENDBRANCH 28 29
ENDBRANCH 23 28
ENDBRANCH 20 23
ENDBRANCH 6 19
ENDBRANCH 3 6
ENDBRANCH 1 2
BRANCH 1 34
ATOM     34  CB  LEU B   3     -14.636 -22.188 -30.056  1.00 28.79 LIG 0.04  C 
BRANCH 34 35
ATOM     35  CG  LEU B   3     -14.704 -23.400 -29.122  1.00 33.15 LIG-0.02  C 
ATOM     36  CD2 LEU B   3     -14.139 -23.016 -27.760  1.00 30.13 LIG 0.01  C 
ATOM     37  CD1 LEU B   3     -13.974 -24.665 -29.663  1.00 27.67 LIG 0.01  C 
ENDBRANCH 34 35
ENDBRANCH 1 34
BRANCH 1 38
ATOM     38  C   LEU B   3     -17.044 -22.094 -29.257  1.00 20.33 LIG 0.24  C 
ATOM     39  N   LEU B   4     -17.847 -23.031 -29.751  1.00 23.83 LIG-0.35  N 
ATOM     40 H    LEU B   4     -17.818 -23.316 -30.562  1.00 23.83 LIG 0.16  HD
ATOM     41 O    LEU B   3     -17.107 -21.717 -28.091  1.00 22.70 LIG-0.27  OA
BRANCH 39 42
ATOM     42  CA  LEU B   4     -18.867 -23.658 -28.919  1.00 22.91 LIG 0.18  C 
BRANCH 42 43
ATOM     43  C   LEU B   4     -19.616 -24.690 -29.769  1.00 30.74 LIG 0.24  C 
ATOM     44 O    LEU B   4     -19.606 -24.630 -31.031  1.00 30.11 LIG-0.27  OA
ATOM     45  N   LEU B   5     -20.299 -25.624 -29.120  1.00 32.41 LIG-0.35  N 
ATOM     46 H    LEU B   5     -20.290 -25.753 -28.270  1.00 32.41 LIG 0.16  HD
BRANCH 45 47
ATOM     47  CA  LEU B   5     -21.153 -26.530 -29.900  1.00 35.50 LIG 0.18  C 
BRANCH 47 48
ATOM     48  C   LEU B   5     -22.279 -27.081 -29.034  1.00 33.38 LIG 0.24  C 
ATOM     49 O    LEU B   5     -23.477 -26.822 -29.288  1.00 25.58 LIG-0.27  OA
ATOM     50  N   THR B   6     -21.876 -27.833 -28.015  1.00 32.99 LIG-0.34  N 
ATOM     51 H    THR B   6     -21.068 -28.115 -27.937  1.00 32.99 LIG 0.16  HD
BRANCH 50 52
ATOM     52  CA  THR B   6     -22.744 -28.261 -26.926  1.00 39.09 LIG 0.19  C 
BRANCH 52 53
ATOM     53  CB  THR B   6     -22.069 -29.386 -26.096  1.00 66.99 LIG 0.14  C 
ATOM     54  CG2 THR B   6     -22.005 -30.679 -26.885  1.00 64.52 LIG 0.04  C 
BRANCH 53 55
ATOM     55 OG1  THR B   6     -20.727 -28.995 -25.743  1.00 68.32 LIG-0.39  OA
ATOM     56 HG1  THR B   6     -20.709 -28.745 -24.942  1.00 68.32 LIG 0.21  HD
ENDBRANCH 53 55
ENDBRANCH 52 53
BRANCH 52 57
ATOM     57  C   THR B   6     -23.008 -27.061 -26.005  1.00 46.48 LIG 0.22  C 
ATOM     58 O    THR B   6     -24.150 -26.823 -25.584  1.00 50.47 LIG-0.29  OA
ENDBRANCH 52 57
ENDBRANCH 50 52
ENDBRANCH 47 48
BRANCH 47 59
ATOM     59  CB  LEU B   5     -20.352 -27.703 -30.451  1.00 41.25 LIG 0.04  C 
BRANCH 59 60
ATOM     60  CG  LEU B   5     -20.839 -28.360 -31.733  1.00 47.99 LIG-0.02  C 
ATOM     61  CD2 LEU B   5     -19.811 -29.329 -32.246  1.00 50.88 LIG 0.01  C 
ATOM     62  CD1 LEU B   5     -21.084 -27.270 -32.755  1.00 54.72 LIG 0.01  C 
ENDBRANCH 59 60
ENDBRANCH 47 59
ENDBRANCH 45 47
ENDBRANCH 42 43
BRANCH 42 63
ATOM     63  CB  LEU B   4     -19.851 -22.581 -28.508  1.00 23.96 LIG 0.04  C 
BRANCH 63 64
ATOM     64  CG  LEU B   4     -21.021 -22.155 -29.367  1.00 38.52 LIG-0.02  C 
ATOM     65  CD1 LEU B   4     -21.875 -21.158 -28.674  1.00 46.71 LIG 0.01  C 
ATOM     66  CD2 LEU B   4     -20.482 -21.627 -30.706  1.00 36.33 LIG 0.01  C 
ENDBRANCH 63 64
ENDBRANCH 42 63
ENDBRANCH 39 42
ENDBRANCH 1 38
TORSDOF 26
ENDMDL
MODEL 76
USER: ADFR SOLUTION from run 120
USER: SCORE 22.641225 LL:  -4.858 LR: -18.507 RR:   0.000 FEB: -10.752
USER: RMSD 11.895852
USER: SEED 119
USER: STATUS no improvement in best in 11 clusters for 5 generations
USER: GENES 28
USER: genes 0 Translation |==|  0.61821 0.55480 0.40657
USER: genes 1 Rotation |==|  0.68203 0.19616 0.14855 0.53215
USER: genes 2 Torsion [C]-CA--N-[C] |==|  0.73638
USER: genes 3 Torsion [N]-C--CA-[N] |==|  0.99427
USER: genes 4 Torsion [C]-CA--CB-[CG] |==|  0.82039
USER: genes 5 Torsion [CA]-CB--CG-[CD] |==|  0.50886
USER: genes 6 Torsion [CB]-CG--CD-[NE] |==|  0.29069
USER: genes 7 Torsion [CG]-CD--NE-[HE] |==|  0.99233
USER: genes 8 Torsion [C]-CA--N-[C] |==|  0.79656
USER: genes 9 Torsion [N]-C--CA-[N] |==|  0.79620
USER: genes 10 Torsion [C]-CA--N-[H3] |==|  0.49861
USER: genes 11 Torsion [C]-CA--CB-[CG] |==|  0.47430
USER: genes 12 Torsion [CA]-CB--CG-[ND2] |==|  0.66390
USER: genes 13 Torsion [N]-CA--CB-[CG] |==|  0.47466
USER: genes 14 Torsion [CA]-CB--CG-[CD1] |==|  0.22656
USER: genes 15 Torsion [N]-CA--C-[N] |==|  0.29650
USER: genes 16 Torsion [C]-N--CA-[CB] |==|  0.52297
USER: genes 17 Torsion [N]-CA--C-[N] |==|  0.41746
USER: genes 18 Torsion [C]-N--CA-[C] |==|  0.83755
USER: genes 19 Torsion [N]-CA--C-[N] |==|  0.94139
USER: genes 20 Torsion [C]-N--CA-[C] |==|  0.48424
USER: genes 21 Torsion [N]-CA--CB-[CG2] |==|  0.39488
USER: genes 22 Torsion [CA]-CB--OG1-[HG1] |==|  0.15562
USER: genes 23 Torsion [N]-CA--C-[O] |==|  0.21857
USER: genes 24 Torsion [N]-CA--CB-[CG] |==|  0.82018
USER: genes 25 Torsion [CA]-CB--CG-[CD2] |==|  0.58923
USER: genes 26 Torsion [N]-CA--CB-[CG] |==|  0.57276
USER: genes 27 Torsion [CA]-CB--CG-[CD1] |==|  0.02173
ROOT
ATOM      1  CA  LEU B   3     -15.176 -21.515 -30.279  1.00 17.18 LIG 0.18  C 
ENDROOT
BRANCH 1 2
ATOM      2  N   LEU B   3     -14.810 -20.149 -30.224  1.00 21.09 LIG-0.35  N 
ATOM      3  C   ARG B   2     -14.759 -19.401 -31.322  1.00 20.79 LIG 0.24  C 
ATOM      4 O    ARG B   2     -15.102 -19.810 -32.451  1.00 18.81 LIG-0.27  OA
ATOM      5 H    LEU B   3     -14.628 -19.859 -29.434  1.00 21.09 LIG 0.16  HD
BRANCH 3 6
ATOM      6  CA  ARG B   2     -14.170 -18.008 -31.136  1.00 21.42 LIG 0.18  C 
BRANCH 6 7
ATOM      7  CB  ARG B   2     -12.949 -17.752 -32.025  1.00 36.36 LIG 0.04  C 
BRANCH 7 8
ATOM      8  CG  ARG B   2     -11.784 -18.655 -31.666  1.00 41.67 LIG 0.02  C 
BRANCH 8 9
ATOM      9  CD  ARG B   2     -10.523 -18.371 -32.485  1.00 51.14 LIG 0.14  C 
BRANCH 9 10
ATOM     10  NE  ARG B   2      -9.509 -17.648 -31.696  1.00 53.41 LIG-0.23  N 
ATOM     11 HE   ARG B   2      -9.720 -17.425 -30.892  1.00 53.41 LIG 0.18  HD
ATOM     12  CZ  ARG B   2      -8.288 -17.309 -32.125  1.00 50.83 LIG 0.67  C 
ATOM     13  NH1 ARG B   2      -7.894 -17.617 -33.354  1.00 40.00 LIG-0.23  N 
ATOM     14  NH2 ARG B   2      -7.459 -16.645 -31.317  1.00 54.23 LIG-0.23  N 
ATOM     15 1HH1 ARG B   2      -8.426 -18.038 -33.883  1.00 40.00 LIG 0.17  HD
ATOM     16 2HH1 ARG B   2      -7.108 -17.395 -33.623  1.00 40.00 LIG 0.17  HD
ATOM     17 1HH2 ARG B   2      -7.710 -16.436 -30.521  1.00 54.23 LIG 0.17  HD
ATOM     18 2HH2 ARG B   2      -6.675 -16.427 -31.592  1.00 54.23 LIG 0.17  HD
ENDBRANCH 9 10
ENDBRANCH 8 9
ENDBRANCH 7 8
ENDBRANCH 6 7
BRANCH 6 19
ATOM     19  N   ARG B   2     -13.850 -17.844 -29.735  1.00 29.89 LIG-0.35  N 
ATOM     20  C   ASN B   1     -14.814 -17.674 -28.840  1.00 39.87 LIG 0.25  C 
ATOM     21 O    ASN B   1     -15.960 -17.323 -29.152  1.00 37.46 LIG-0.27  OA
ATOM     22 H    ARG B   2     -13.011 -17.867 -29.549  1.00 29.89 LIG 0.16  HD
BRANCH 20 23
ATOM     23  CA  ASN B   1     -14.417 -17.928 -27.374  1.00 47.73 LIG 0.28  C 
BRANCH 23 24
ATOM     24  N   ASN B   1     -14.240 -19.318 -27.035  1.00 51.86 LIG-0.07  N 
ATOM     25 H3   ASN B   1     -14.006 -19.388 -26.179  1.00 51.86 LIG 0.28  HD
ATOM     26 H1   ASN B   1     -15.003 -19.757 -27.170  1.00 51.86 LIG 0.28  HD
ATOM     27 H2   ASN B   1     -13.602 -19.670 -27.547  1.00 51.86 LIG 0.28  HD
ENDBRANCH 23 24
BRANCH 23 28
ATOM     28  CB  ASN B   1     -13.155 -17.192 -26.975  1.00 49.79 LIG 0.14  C 
BRANCH 28 29
ATOM     29  CG  ASN B   1     -12.917 -17.278 -25.486  1.00 59.47 LIG 0.22  C 
ATOM     30  ND2 ASN B   1     -12.852 -16.121 -24.818  1.00 63.81 LIG-0.37  N 
ATOM     31 21HD ASN B   1     -12.695 -16.121 -23.973  1.00 63.81 LIG 0.16  HD
ATOM     32 22HD ASN B   1     -12.968 -15.377 -25.234  1.00 63.81 LIG 0.16  HD
ATOM     33 OD1  ASN B   1     -12.760 -18.368 -24.942  1.00 60.25 LIG-0.27  OA
ENDBRANCH 28 29
ENDBRANCH 23 28
ENDBRANCH 20 23
ENDBRANCH 6 19
ENDBRANCH 3 6
ENDBRANCH 1 2
BRANCH 1 34
ATOM     34  CB  LEU B   3     -14.288 -22.340 -29.306  1.00 28.79 LIG 0.04  C 
BRANCH 34 35
ATOM     35  CG  LEU B   3     -14.799 -23.779 -29.168  1.00 33.15 LIG-0.02  C 
ATOM     36  CD2 LEU B   3     -14.352 -24.342 -27.825  1.00 30.13 LIG 0.01  C 
ATOM     37  CD1 LEU B   3     -14.352 -24.728 -30.319  1.00 27.67 LIG 0.01  C 
ENDBRANCH 34 35
ENDBRANCH 1 34
BRANCH 1 38
ATOM     38  C   LEU B   3     -16.650 -21.719 -30.005  1.00 20.33 LIG 0.24  C 
ATOM     39  N   LEU B   4     -17.397 -22.033 -31.058  1.00 23.83 LIG-0.35  N 
ATOM     40 H    LEU B   4     -17.094 -22.121 -31.858  1.00 23.83 LIG 0.16  HD
ATOM     41 O    LEU B   3     -17.115 -21.610 -28.874  1.00 22.70 LIG-0.27  OA
BRANCH 39 42
ATOM     42  CA  LEU B   4     -18.832 -22.253 -30.921  1.00 22.91 LIG 0.18  C 
BRANCH 42 43
ATOM     43  C   LEU B   4     -19.055 -23.330 -29.854  1.00 30.74 LIG 0.24  C 
ATOM     44 O    LEU B   4     -18.215 -24.255 -29.672  1.00 30.11 LIG-0.27  OA
ATOM     45  N   LEU B   5     -20.182 -23.263 -29.157  1.00 32.41 LIG-0.35  N 
ATOM     46 H    LEU B   5     -20.756 -22.624 -29.191  1.00 32.41 LIG 0.16  HD
BRANCH 45 47
ATOM     47  CA  LEU B   5     -20.498 -24.365 -28.239  1.00 35.50 LIG 0.18  C 
BRANCH 47 48
ATOM     48  C   LEU B   5     -20.569 -25.687 -28.994  1.00 33.38 LIG 0.24  C 
ATOM     49 O    LEU B   5     -20.430 -26.779 -28.401  1.00 25.58 LIG-0.27  OA
ATOM     50  N   THR B   6     -20.779 -25.566 -30.301  1.00 32.99 LIG-0.34  N 
ATOM     51 H    THR B   6     -21.011 -24.824 -30.668  1.00 32.99 LIG 0.16  HD
BRANCH 50 52
ATOM     52  CA  THR B   6     -20.643 -26.662 -31.251  1.00 39.09 LIG 0.19  C 
BRANCH 52 53
ATOM     53  CB  THR B   6     -21.527 -27.867 -30.829  1.00 66.99 LIG 0.14  C 
ATOM     54  CG2 THR B   6     -22.143 -28.538 -32.041  1.00 64.52 LIG 0.04  C 
BRANCH 53 55
ATOM     55 OG1  THR B   6     -20.727 -28.837 -30.124  1.00 68.32 LIG-0.39  OA
ATOM     56 HG1  THR B   6     -20.352 -28.468 -29.469  1.00 68.32 LIG 0.21  HD
ENDBRANCH 53 55
ENDBRANCH 52 53
BRANCH 52 57
ATOM     57  C   THR B   6     -21.102 -26.176 -32.633  1.00 46.48 LIG 0.22  C 
ATOM     58 O    THR B   6     -20.359 -25.478 -33.340  1.00 50.47 LIG-0.29  OA
ENDBRANCH 52 57
ENDBRANCH 50 52
ENDBRANCH 47 48
BRANCH 47 59
ATOM     59  CB  LEU B   5     -21.835 -24.136 -27.544  1.00 41.25 LIG 0.04  C 
BRANCH 59 60
ATOM     60  CG  LEU B   5     -21.955 -22.949 -26.602  1.00 47.99 LIG-0.02  C 
ATOM     61  CD2 LEU B   5     -22.909 -23.264 -25.483  1.00 50.88 LIG 0.01  C 
ATOM     62  CD1 LEU B   5     -22.463 -21.766 -27.401  1.00 54.72 LIG 0.01  C 
ENDBRANCH 59 60
ENDBRANCH 47 59
ENDBRANCH 45 47
ENDBRANCH 42 43
BRANCH 42 63
ATOM     63  CB  LEU B   4     -19.342 -22.787 -32.244  1.00 23.96 LIG 0.04  C 
BRANCH 63 64
ATOM     64  CG  LEU B   4     -20.769 -22.611 -32.715  1.00 38.52 LIG-0.02  C 
ATOM     65  CD1 LEU B   4     -21.533 -21.706 -31.820  1.00 46.71 LIG 0.01  C 
ATOM     66  CD2 LEU B   4     -20.749 -22.112 -34.168  1.00 36.33 LIG 0.01  C 
ENDBRANCH 63 64
ENDBRANCH 42 63
ENDBRANCH 39 42
ENDBRANCH 1 38
TORSDOF 26
ENDMDL
MODEL 77
USER: ADFR SOLUTION from run 32
USER: SCORE 21.155194 LL:  -4.109 LR: -18.496 RR:   0.000 FEB: -10.741
USER: RMSD 3.024583
USER: SEED 31
USER: STATUS searching
USER: GENES 28
USER: genes 0 Translation |==|  0.44351 0.48842 0.33099
USER: genes 1 Rotation |==|  0.50196 0.47415 0.57953 0.99295
USER: genes 2 Torsion [C]-CA--N-[C] |==|  0.81370
USER: genes 3 Torsion [N]-C--CA-[N] |==|  0.33177
USER: genes 4 Torsion [C]-CA--CB-[CG] |==|  0.66634
USER: genes 5 Torsion [CA]-CB--CG-[CD] |==|  0.76185
USER: genes 6 Torsion [CB]-CG--CD-[NE] |==|  0.53327
USER: genes 7 Torsion [CG]-CD--NE-[HE] |==|  0.22035
USER: genes 8 Torsion [C]-CA--N-[C] |==|  0.76534
USER: genes 9 Torsion [N]-C--CA-[N] |==|  0.20313
USER: genes 10 Torsion [C]-CA--N-[H3] |==|  0.56724
USER: genes 11 Torsion [C]-CA--CB-[CG] |==|  0.40631
USER: genes 12 Torsion [CA]-CB--CG-[ND2] |==|  0.50636
USER: genes 13 Torsion [N]-CA--CB-[CG] |==|  0.88901
USER: genes 14 Torsion [CA]-CB--CG-[CD1] |==|  0.45463
USER: genes 15 Torsion [N]-CA--C-[N] |==|  0.41482
USER: genes 16 Torsion [C]-N--CA-[CB] |==|  0.25362
USER: genes 17 Torsion [N]-CA--C-[N] |==|  0.43614
USER: genes 18 Torsion [C]-N--CA-[C] |==|  0.72588
USER: genes 19 Torsion [N]-CA--C-[N] |==|  0.50359
USER: genes 20 Torsion [C]-N--CA-[C] |==|  0.77068
USER: genes 21 Torsion [N]-CA--CB-[CG2] |==|  0.60172
USER: genes 22 Torsion [CA]-CB--OG1-[HG1] |==|  0.87739
USER: genes 23 Torsion [N]-CA--C-[O] |==|  0.13354
USER: genes 24 Torsion [N]-CA--CB-[CG] |==|  0.11569
USER: genes 25 Torsion [CA]-CB--CG-[CD2] |==|  0.72965
USER: genes 26 Torsion [N]-CA--CB-[CG] |==|  0.22523
USER: genes 27 Torsion [CA]-CB--CG-[CD1] |==|  0.36366
ROOT
ATOM      1  CA  LEU B   3     -19.500 -23.158 -31.866  1.00 17.18 LIG 0.18  C 
ENDROOT
BRANCH 1 2
ATOM      2  N   LEU B   3     -20.417 -23.901 -31.086  1.00 21.09 LIG-0.35  N 
ATOM      3  C   ARG B   2     -20.006 -24.680 -30.089  1.00 20.79 LIG 0.24  C 
ATOM      4 O    ARG B   2     -18.816 -24.750 -29.716  1.00 18.81 LIG-0.27  OA
ATOM      5 H    LEU B   3     -21.241 -23.804 -31.313  1.00 21.09 LIG 0.16  HD
BRANCH 3 6
ATOM      6  CA  ARG B   2     -21.080 -25.560 -29.463  1.00 21.42 LIG 0.18  C 
BRANCH 6 7
ATOM      7  CB  ARG B   2     -21.339 -25.229 -27.989  1.00 36.36 LIG 0.04  C 
BRANCH 7 8
ATOM      8  CG  ARG B   2     -21.074 -26.417 -27.084  1.00 41.67 LIG 0.02  C 
BRANCH 8 9
ATOM      9  CD  ARG B   2     -22.275 -27.355 -26.949  1.00 51.14 LIG 0.14  C 
BRANCH 9 10
ATOM     10  NE  ARG B   2     -22.090 -28.330 -25.859  1.00 53.41 LIG-0.23  N 
ATOM     11 HE   ARG B   2     -22.233 -28.055 -25.057  1.00 53.41 LIG 0.18  HD
ATOM     12  CZ  ARG B   2     -21.718 -29.606 -26.013  1.00 50.83 LIG 0.67  C 
ATOM     13  NH1 ARG B   2     -21.477 -30.098 -27.222  1.00 40.00 LIG-0.23  N 
ATOM     14  NH2 ARG B   2     -21.575 -30.391 -24.944  1.00 54.23 LIG-0.23  N 
ATOM     15 1HH1 ARG B   2     -21.559 -29.596 -27.915  1.00 40.00 LIG 0.17  HD
ATOM     16 2HH1 ARG B   2     -21.238 -30.920 -27.312  1.00 40.00 LIG 0.17  HD
ATOM     17 1HH2 ARG B   2     -21.723 -30.077 -24.157  1.00 54.23 LIG 0.17  HD
ATOM     18 2HH2 ARG B   2     -21.337 -31.211 -25.042  1.00 54.23 LIG 0.17  HD
ENDBRANCH 9 10
ENDBRANCH 8 9
ENDBRANCH 7 8
ENDBRANCH 6 7
BRANCH 6 19
ATOM     19  N   ARG B   2     -20.680 -26.939 -29.635  1.00 29.89 LIG-0.35  N 
ATOM     20  C   ASN B   1     -20.954 -27.583 -30.762  1.00 39.87 LIG 0.25  C 
ATOM     21 O    ASN B   1     -21.812 -27.191 -31.563  1.00 37.46 LIG-0.27  OA
ATOM     22 H    ARG B   2     -20.267 -27.284 -28.964  1.00 29.89 LIG 0.16  HD
BRANCH 20 23
ATOM     23  CA  ASN B   1     -20.142 -28.868 -31.010  1.00 47.73 LIG 0.28  C 
BRANCH 23 24
ATOM     24  N   ASN B   1     -20.521 -29.985 -30.181  1.00 51.86 LIG-0.07  N 
ATOM     25 H3   ASN B   1     -19.835 -30.547 -30.109  1.00 51.86 LIG 0.28  HD
ATOM     26 H1   ASN B   1     -20.748 -29.691 -29.372  1.00 51.86 LIG 0.28  HD
ATOM     27 H2   ASN B   1     -21.213 -30.406 -30.549  1.00 51.86 LIG 0.28  HD
ENDBRANCH 23 24
BRANCH 23 28
ATOM     28  CB  ASN B   1     -20.200 -29.325 -32.453  1.00 49.79 LIG 0.14  C 
BRANCH 28 29
ATOM     29  CG  ASN B   1     -18.902 -29.971 -32.878  1.00 59.47 LIG 0.22  C 
ATOM     30  ND2 ASN B   1     -18.817 -30.374 -34.150  1.00 63.81 LIG-0.37  N 
ATOM     31 21HD ASN B   1     -18.105 -30.767 -34.430  1.00 63.81 LIG 0.16  HD
ATOM     32 22HD ASN B   1     -19.473 -30.239 -34.689  1.00 63.81 LIG 0.16  HD
ATOM     33 OD1  ASN B   1     -17.995 -30.137 -32.067  1.00 60.25 LIG-0.27  OA
ENDBRANCH 28 29
ENDBRANCH 23 28
ENDBRANCH 20 23
ENDBRANCH 6 19
ENDBRANCH 3 6
ENDBRANCH 1 2
BRANCH 1 34
ATOM     34  CB  LEU B   3     -20.215 -22.591 -33.125  1.00 28.79 LIG 0.04  C 
BRANCH 34 35
ATOM     35  CG  LEU B   3     -21.188 -23.613 -33.723  1.00 33.15 LIG-0.02  C 
ATOM     36  CD2 LEU B   3     -20.396 -24.720 -34.405  1.00 30.13 LIG 0.01  C 
ATOM     37  CD1 LEU B   3     -22.220 -23.005 -34.719  1.00 27.67 LIG 0.01  C 
ENDBRANCH 34 35
ENDBRANCH 1 34
BRANCH 1 38
ATOM     38  C   LEU B   3     -18.826 -22.066 -31.065  1.00 20.33 LIG 0.24  C 
ATOM     39  N   LEU B   4     -17.589 -21.753 -31.438  1.00 23.83 LIG-0.35  N 
ATOM     40 H    LEU B   4     -17.170 -22.128 -32.088  1.00 23.83 LIG 0.16  HD
ATOM     41 O    LEU B   3     -19.398 -21.503 -30.136  1.00 22.70 LIG-0.27  OA
BRANCH 39 42
ATOM     42  CA  LEU B   4     -16.835 -20.717 -30.741  1.00 22.91 LIG 0.18  C 
BRANCH 42 43
ATOM     43  C   LEU B   4     -15.840 -20.099 -31.727  1.00 30.74 LIG 0.24  C 
ATOM     44 O    LEU B   4     -15.429 -20.743 -32.734  1.00 30.11 LIG-0.27  OA
ATOM     45  N   LEU B   5     -15.406 -18.874 -31.459  1.00 32.41 LIG-0.35  N 
ATOM     46 H    LEU B   5     -15.697 -18.366 -30.830  1.00 32.41 LIG 0.16  HD
BRANCH 45 47
ATOM     47  CA  LEU B   5     -14.336 -18.316 -32.295  1.00 35.50 LIG 0.18  C 
BRANCH 47 48
ATOM     48  C   LEU B   5     -12.985 -18.465 -31.605  1.00 33.38 LIG 0.24  C 
ATOM     49 O    LEU B   5     -12.886 -19.020 -30.489  1.00 25.58 LIG-0.27  OA
ATOM     50  N   THR B   6     -11.959 -17.960 -32.283  1.00 32.99 LIG-0.34  N 
ATOM     51 H    THR B   6     -12.022 -17.711 -33.104  1.00 32.99 LIG 0.16  HD
BRANCH 50 52
ATOM     52  CA  THR B   6     -10.628 -17.771 -31.723  1.00 39.09 LIG 0.19  C 
BRANCH 52 53
ATOM     53  CB  THR B   6      -9.564 -17.697 -32.851  1.00 66.99 LIG 0.14  C 
ATOM     54  CG2 THR B   6      -8.274 -18.371 -32.425  1.00 64.52 LIG 0.04  C 
BRANCH 53 55
ATOM     55 OG1  THR B   6     -10.058 -18.355 -34.034  1.00 68.32 LIG-0.39  OA
ATOM     56 HG1  THR B   6     -10.421 -19.082 -33.820  1.00 68.32 LIG 0.21  HD
ENDBRANCH 53 55
ENDBRANCH 52 53
BRANCH 52 57
ATOM     57  C   THR B   6     -10.606 -16.451 -30.939  1.00 46.48 LIG 0.22  C 
ATOM     58 O    THR B   6     -11.502 -16.181 -30.124  1.00 50.47 LIG-0.29  OA
ENDBRANCH 52 57
ENDBRANCH 50 52
ENDBRANCH 47 48
BRANCH 47 59
ATOM     59  CB  LEU B   5     -14.572 -16.837 -32.576  1.00 41.25 LIG 0.04  C 
BRANCH 59 60
ATOM     60  CG  LEU B   5     -15.064 -15.963 -31.434  1.00 47.99 LIG-0.02  C 
ATOM     61  CD2 LEU B   5     -16.557 -15.799 -31.508  1.00 50.88 LIG 0.01  C 
ATOM     62  CD1 LEU B   5     -14.385 -14.614 -31.549  1.00 54.72 LIG 0.01  C 
ENDBRANCH 59 60
ENDBRANCH 47 59
ENDBRANCH 45 47
ENDBRANCH 42 43
BRANCH 42 63
ATOM     63  CB  LEU B   4     -16.048 -21.389 -29.634  1.00 23.96 LIG 0.04  C 
BRANCH 63 64
ATOM     64  CG  LEU B   4     -14.733 -22.100 -29.865  1.00 38.52 LIG-0.02  C 
ATOM     65  CD1 LEU B   4     -13.698 -21.667 -28.893  1.00 46.71 LIG 0.01  C 
ATOM     66  CD2 LEU B   4     -14.979 -23.616 -29.815  1.00 36.33 LIG 0.01  C 
ENDBRANCH 63 64
ENDBRANCH 42 63
ENDBRANCH 39 42
ENDBRANCH 1 38
TORSDOF 26
ENDMDL
MODEL 78
USER: ADFR SOLUTION from run 180
USER: SCORE 21.963649 LL:  -5.290 LR: -18.491 RR:   0.000 FEB: -10.735
USER: RMSD 5.130976
USER: SEED 179
USER: STATUS no improvement in best in 4 clusters for 5 generations
USER: GENES 28
USER: genes 0 Translation |==|  0.45393 0.53277 0.35115
USER: genes 1 Rotation |==|  0.55205 0.49139 0.49299 0.99716
USER: genes 2 Torsion [C]-CA--N-[C] |==|  0.79480
USER: genes 3 Torsion [N]-C--CA-[N] |==|  0.89944
USER: genes 4 Torsion [C]-CA--CB-[CG] |==|  0.78732
USER: genes 5 Torsion [CA]-CB--CG-[CD] |==|  0.39189
USER: genes 6 Torsion [CB]-CG--CD-[NE] |==|  0.48306
USER: genes 7 Torsion [CG]-CD--NE-[HE] |==|  0.93350
USER: genes 8 Torsion [C]-CA--N-[C] |==|  0.85233
USER: genes 9 Torsion [N]-C--CA-[N] |==|  0.50034
USER: genes 10 Torsion [C]-CA--N-[H3] |==|  0.42905
USER: genes 11 Torsion [C]-CA--CB-[CG] |==|  0.22303
USER: genes 12 Torsion [CA]-CB--CG-[ND2] |==|  0.08641
USER: genes 13 Torsion [N]-CA--CB-[CG] |==|  0.86639
USER: genes 14 Torsion [CA]-CB--CG-[CD1] |==|  0.50246
USER: genes 15 Torsion [N]-CA--C-[N] |==|  0.36728
USER: genes 16 Torsion [C]-N--CA-[CB] |==|  0.39543
USER: genes 17 Torsion [N]-CA--C-[N] |==|  0.38696
USER: genes 18 Torsion [C]-N--CA-[C] |==|  0.82404
USER: genes 19 Torsion [N]-CA--C-[N] |==|  0.40553
USER: genes 20 Torsion [C]-N--CA-[C] |==|  0.79833
USER: genes 21 Torsion [N]-CA--CB-[CG2] |==|  0.25943
USER: genes 22 Torsion [CA]-CB--OG1-[HG1] |==|  0.18915
USER: genes 23 Torsion [N]-CA--C-[O] |==|  0.96763
USER: genes 24 Torsion [N]-CA--CB-[CG] |==|  0.14596
USER: genes 25 Torsion [CA]-CB--CG-[CD2] |==|  0.73436
USER: genes 26 Torsion [N]-CA--CB-[CG] |==|  0.76705
USER: genes 27 Torsion [CA]-CB--CG-[CD1] |==|  0.44394
ROOT
ATOM      1  CA  LEU B   3     -19.242 -22.060 -31.443  1.00 17.18 LIG 0.18  C 
ENDROOT
BRANCH 1 2
ATOM      2  N   LEU B   3     -20.302 -22.626 -30.697  1.00 21.09 LIG-0.35  N 
ATOM      3  C   ARG B   2     -20.148 -23.767 -30.030  1.00 20.79 LIG 0.24  C 
ATOM      4 O    ARG B   2     -19.058 -24.371 -29.942  1.00 18.81 LIG-0.27  OA
ATOM      5 H    LEU B   3     -21.034 -22.175 -30.716  1.00 21.09 LIG 0.16  HD
BRANCH 3 6
ATOM      6  CA  ARG B   2     -21.421 -24.350 -29.430  1.00 21.42 LIG 0.18  C 
BRANCH 6 7
ATOM      7  CB  ARG B   2     -22.179 -25.257 -30.404  1.00 36.36 LIG 0.04  C 
BRANCH 7 8
ATOM      8  CG  ARG B   2     -22.941 -24.461 -31.447  1.00 41.67 LIG 0.02  C 
BRANCH 8 9
ATOM      9  CD  ARG B   2     -22.901 -25.094 -32.839  1.00 51.14 LIG 0.14  C 
BRANCH 9 10
ATOM     10  NE  ARG B   2     -23.766 -24.376 -33.793  1.00 53.41 LIG-0.23  N 
ATOM     11 HE   ARG B   2     -24.419 -23.921 -33.467  1.00 53.41 LIG 0.18  HD
ATOM     12  CZ  ARG B   2     -23.621 -24.374 -35.123  1.00 50.83 LIG 0.67  C 
ATOM     13  NH1 ARG B   2     -22.638 -25.056 -35.697  1.00 40.00 LIG-0.23  N 
ATOM     14  NH2 ARG B   2     -24.477 -23.689 -35.884  1.00 54.23 LIG-0.23  N 
ATOM     15 1HH1 ARG B   2     -22.087 -25.506 -35.213  1.00 40.00 LIG 0.17  HD
ATOM     16 2HH1 ARG B   2     -22.552 -25.049 -36.553  1.00 40.00 LIG 0.17  HD
ATOM     17 1HH2 ARG B   2     -25.121 -23.251 -35.520  1.00 54.23 LIG 0.17  HD
ATOM     18 2HH2 ARG B   2     -24.385 -23.687 -36.739  1.00 54.23 LIG 0.17  HD
ENDBRANCH 9 10
ENDBRANCH 8 9
ENDBRANCH 7 8
ENDBRANCH 6 7
BRANCH 6 19
ATOM     19  N   ARG B   2     -22.244 -23.249 -28.979  1.00 29.89 LIG-0.35  N 
ATOM     20  C   ASN B   1     -21.749 -22.328 -28.164  1.00 39.87 LIG 0.25  C 
ATOM     21 O    ASN B   1     -20.721 -22.509 -27.498  1.00 37.46 LIG-0.27  OA
ATOM     22 H    ARG B   2     -23.050 -23.252 -29.279  1.00 29.89 LIG 0.16  HD
BRANCH 20 23
ATOM     23  CA  ASN B   1     -22.542 -21.011 -28.083  1.00 47.73 LIG 0.28  C 
BRANCH 23 24
ATOM     24  N   ASN B   1     -21.979 -20.027 -27.192  1.00 51.86 LIG-0.07  N 
ATOM     25 H3   ASN B   1     -22.231 -19.213 -27.451  1.00 51.86 LIG 0.28  HD
ATOM     26 H1   ASN B   1     -22.268 -20.176 -26.364  1.00 51.86 LIG 0.28  HD
ATOM     27 H2   ASN B   1     -21.091 -20.082 -27.211  1.00 51.86 LIG 0.28  HD
ENDBRANCH 23 24
BRANCH 23 28
ATOM     28  CB  ASN B   1     -22.724 -20.355 -29.437  1.00 49.79 LIG 0.14  C 
BRANCH 28 29
ATOM     29  CG  ASN B   1     -23.852 -20.996 -30.210  1.00 59.47 LIG 0.22  C 
ATOM     30  ND2 ASN B   1     -24.866 -21.495 -29.495  1.00 63.81 LIG-0.37  N 
ATOM     31 21HD ASN B   1     -25.519 -21.889 -29.893  1.00 63.81 LIG 0.16  HD
ATOM     32 22HD ASN B   1     -24.866 -21.421 -28.639  1.00 63.81 LIG 0.16  HD
ATOM     33 OD1  ASN B   1     -23.802 -21.074 -31.435  1.00 60.25 LIG-0.27  OA
ENDBRANCH 28 29
ENDBRANCH 23 28
ENDBRANCH 20 23
ENDBRANCH 6 19
ENDBRANCH 3 6
ENDBRANCH 1 2
BRANCH 1 34
ATOM     34  CB  LEU B   3     -19.805 -21.038 -32.469  1.00 28.79 LIG 0.04  C 
BRANCH 34 35
ATOM     35  CG  LEU B   3     -20.985 -21.624 -33.252  1.00 33.15 LIG-0.02  C 
ATOM     36  CD2 LEU B   3     -20.551 -22.925 -33.914  1.00 30.13 LIG 0.01  C 
ATOM     37  CD1 LEU B   3     -21.587 -20.659 -34.317  1.00 27.67 LIG 0.01  C 
ENDBRANCH 34 35
ENDBRANCH 1 34
BRANCH 1 38
ATOM     38  C   LEU B   3     -18.188 -21.439 -30.552  1.00 20.33 LIG 0.24  C 
ATOM     39  N   LEU B   4     -16.930 -21.760 -30.834  1.00 23.83 LIG-0.35  N 
ATOM     40 H    LEU B   4     -16.695 -22.284 -31.474  1.00 23.83 LIG 0.16  HD
ATOM     41 O    LEU B   3     -18.487 -20.678 -29.636  1.00 22.70 LIG-0.27  OA
BRANCH 39 42
ATOM     42  CA  LEU B   4     -15.825 -21.225 -30.046  1.00 22.91 LIG 0.18  C 
BRANCH 42 43
ATOM     43  C   LEU B   4     -15.192 -20.068 -30.824  1.00 30.74 LIG 0.24  C 
ATOM     44 O    LEU B   4     -14.994 -20.148 -32.070  1.00 30.11 LIG-0.27  OA
ATOM     45  N   LEU B   5     -14.834 -18.997 -30.128  1.00 32.41 LIG-0.35  N 
ATOM     46 H    LEU B   5     -15.002 -18.861 -29.296  1.00 32.41 LIG 0.16  HD
BRANCH 45 47
ATOM     47  CA  LEU B   5     -14.084 -17.939 -30.816  1.00 35.50 LIG 0.18  C 
BRANCH 47 48
ATOM     48  C   LEU B   5     -12.736 -18.463 -31.295  1.00 33.38 LIG 0.24  C 
ATOM     49 O    LEU B   5     -12.102 -19.317 -30.637  1.00 25.58 LIG-0.27  OA
ATOM     50  N   THR B   6     -12.312 -17.936 -32.440  1.00 32.99 LIG-0.34  N 
ATOM     51 H    THR B   6     -12.818 -17.460 -32.948  1.00 32.99 LIG 0.16  HD
BRANCH 50 52
ATOM     52  CA  THR B   6     -10.962 -18.100 -32.961  1.00 39.09 LIG 0.19  C 
BRANCH 52 53
ATOM     53  CB  THR B   6     -10.881 -17.622 -34.436  1.00 66.99 LIG 0.14  C 
ATOM     54  CG2 THR B   6     -10.443 -16.172 -34.513  1.00 64.52 LIG 0.04  C 
BRANCH 53 55
ATOM     55 OG1  THR B   6      -9.931 -18.428 -35.159  1.00 68.32 LIG-0.39  OA
ATOM     56 HG1  THR B   6     -10.227 -19.210 -35.237  1.00 68.32 LIG 0.21  HD
ENDBRANCH 53 55
ENDBRANCH 52 53
BRANCH 52 57
ATOM     57  C   THR B   6     -10.001 -17.251 -32.116  1.00 46.48 LIG 0.22  C 
ATOM     58 O    THR B   6     -10.435 -16.414 -31.310  1.00 50.47 LIG-0.29  OA
ENDBRANCH 52 57
ENDBRANCH 50 52
ENDBRANCH 47 48
BRANCH 47 59
ATOM     59  CB  LEU B   5     -13.838 -16.750 -29.895  1.00 41.25 LIG 0.04  C 
BRANCH 59 60
ATOM     60  CG  LEU B   5     -13.203 -17.017 -28.540  1.00 47.99 LIG-0.02  C 
ATOM     61  CD2 LEU B   5     -14.264 -17.146 -27.482  1.00 50.88 LIG 0.01  C 
ATOM     62  CD1 LEU B   5     -12.284 -15.857 -28.217  1.00 54.72 LIG 0.01  C 
ENDBRANCH 59 60
ENDBRANCH 47 59
ENDBRANCH 45 47
ENDBRANCH 42 43
BRANCH 42 63
ATOM     63  CB  LEU B   4     -14.789 -22.322 -29.905  1.00 23.96 LIG 0.04  C 
BRANCH 63 64
ATOM     64  CG  LEU B   4     -14.861 -23.400 -28.847  1.00 38.52 LIG-0.02  C 
ATOM     65  CD1 LEU B   4     -14.039 -24.582 -29.211  1.00 46.71 LIG 0.01  C 
ATOM     66  CD2 LEU B   4     -14.442 -22.794 -27.498  1.00 36.33 LIG 0.01  C 
ENDBRANCH 63 64
ENDBRANCH 42 63
ENDBRANCH 39 42
ENDBRANCH 1 38
TORSDOF 26
ENDMDL
MODEL 79
USER: ADFR SOLUTION from run 163
USER: SCORE 21.927762 LL:  -4.480 LR: -18.482 RR:   0.000 FEB: -10.726
USER: RMSD 6.077926
USER: SEED 162
USER: STATUS no improvement in best in 11 clusters for 5 generations
USER: GENES 28
USER: genes 0 Translation |==|  0.58527 0.54405 0.45573
USER: genes 1 Rotation |==|  0.19400 0.17541 0.50855 0.72568
USER: genes 2 Torsion [C]-CA--N-[C] |==|  0.79461
USER: genes 3 Torsion [N]-C--CA-[N] |==|  0.34253
USER: genes 4 Torsion [C]-CA--CB-[CG] |==|  0.47141
USER: genes 5 Torsion [CA]-CB--CG-[CD] |==|  0.90344
USER: genes 6 Torsion [CB]-CG--CD-[NE] |==|  0.58368
USER: genes 7 Torsion [CG]-CD--NE-[HE] |==|  0.29794
USER: genes 8 Torsion [C]-CA--N-[C] |==|  0.76764
USER: genes 9 Torsion [N]-C--CA-[N] |==|  0.08033
USER: genes 10 Torsion [C]-CA--N-[H3] |==|  0.93168
USER: genes 11 Torsion [C]-CA--CB-[CG] |==|  0.41458
USER: genes 12 Torsion [CA]-CB--CG-[ND2] |==|  0.57090
USER: genes 13 Torsion [N]-CA--CB-[CG] |==|  0.61015
USER: genes 14 Torsion [CA]-CB--CG-[CD1] |==|  0.98936
USER: genes 15 Torsion [N]-CA--C-[N] |==|  0.40930
USER: genes 16 Torsion [C]-N--CA-[CB] |==|  0.48740
USER: genes 17 Torsion [N]-CA--C-[N] |==|  0.46781
USER: genes 18 Torsion [C]-N--CA-[C] |==|  0.57645
USER: genes 19 Torsion [N]-CA--C-[N] |==|  0.39839
USER: genes 20 Torsion [C]-N--CA-[C] |==|  0.67766
USER: genes 21 Torsion [N]-CA--CB-[CG2] |==|  0.64950
USER: genes 22 Torsion [CA]-CB--OG1-[HG1] |==|  0.12648
USER: genes 23 Torsion [N]-CA--C-[O] |==|  0.94820
USER: genes 24 Torsion [N]-CA--CB-[CG] |==|  0.52644
USER: genes 25 Torsion [CA]-CB--CG-[CD2] |==|  0.48404
USER: genes 26 Torsion [N]-CA--CB-[CG] |==|  0.25907
USER: genes 27 Torsion [CA]-CB--CG-[CD1] |==|  0.31925
ROOT
ATOM      1  CA  LEU B   3     -15.992 -21.781 -29.247  1.00 17.18 LIG 0.18  C 
ENDROOT
BRANCH 1 2
ATOM      2  N   LEU B   3     -17.020 -22.242 -30.102  1.00 21.09 LIG-0.35  N 
ATOM      3  C   ARG B   2     -18.280 -21.848 -29.945  1.00 20.79 LIG 0.24  C 
ATOM      4 O    ARG B   2     -18.636 -20.996 -29.104  1.00 18.81 LIG-0.27  OA
ATOM      5 H    LEU B   3     -16.758 -22.786 -30.715  1.00 21.09 LIG 0.16  HD
BRANCH 3 6
ATOM      6  CA  ARG B   2     -19.302 -22.567 -30.816  1.00 21.42 LIG 0.18  C 
BRANCH 6 7
ATOM      7  CB  ARG B   2     -19.942 -21.652 -31.865  1.00 36.36 LIG 0.04  C 
BRANCH 7 8
ATOM      8  CG  ARG B   2     -20.762 -22.432 -32.876  1.00 41.67 LIG 0.02  C 
BRANCH 8 9
ATOM      9  CD  ARG B   2     -20.174 -23.806 -33.201  1.00 51.14 LIG 0.14  C 
BRANCH 9 10
ATOM     10  NE  ARG B   2     -20.490 -24.225 -34.579  1.00 53.41 LIG-0.23  N 
ATOM     11 HE   ARG B   2     -19.849 -24.212 -35.152  1.00 53.41 LIG 0.18  HD
ATOM     12  CZ  ARG B   2     -21.692 -24.624 -35.013  1.00 50.83 LIG 0.67  C 
ATOM     13  NH1 ARG B   2     -22.729 -24.667 -34.186  1.00 40.00 LIG-0.23  N 
ATOM     14  NH2 ARG B   2     -21.856 -24.972 -36.291  1.00 54.23 LIG-0.23  N 
ATOM     15 1HH1 ARG B   2     -22.632 -24.436 -33.363  1.00 40.00 LIG 0.17  HD
ATOM     16 2HH1 ARG B   2     -23.498 -24.924 -34.473  1.00 40.00 LIG 0.17  HD
ATOM     17 1HH2 ARG B   2     -21.190 -24.940 -36.834  1.00 54.23 LIG 0.17  HD
ATOM     18 2HH2 ARG B   2     -22.627 -25.229 -36.570  1.00 54.23 LIG 0.17  HD
ENDBRANCH 9 10
ENDBRANCH 8 9
ENDBRANCH 7 8
ENDBRANCH 6 7
BRANCH 6 19
ATOM     19  N   ARG B   2     -20.298 -23.151 -29.942  1.00 29.89 LIG-0.35  N 
ATOM     20  C   ASN B   1     -20.084 -24.328 -29.371  1.00 39.87 LIG 0.25  C 
ATOM     21 O    ASN B   1     -19.227 -25.123 -29.780  1.00 37.46 LIG-0.27  OA
ATOM     22 H    ARG B   2     -21.009 -22.678 -29.836  1.00 29.89 LIG 0.16  HD
BRANCH 20 23
ATOM     23  CA  ASN B   1     -20.983 -24.657 -28.165  1.00 47.73 LIG 0.28  C 
BRANCH 23 24
ATOM     24  N   ASN B   1     -22.284 -24.037 -28.202  1.00 51.86 LIG-0.07  N 
ATOM     25 H3   ASN B   1     -22.250 -23.304 -28.704  1.00 51.86 LIG 0.28  HD
ATOM     26 H1   ASN B   1     -22.875 -24.607 -28.548  1.00 51.86 LIG 0.28  HD
ATOM     27 H2   ASN B   1     -22.532 -23.819 -27.375  1.00 51.86 LIG 0.28  HD
ENDBRANCH 23 24
BRANCH 23 28
ATOM     28  CB  ASN B   1     -21.187 -26.147 -27.978  1.00 49.79 LIG 0.14  C 
BRANCH 28 29
ATOM     29  CG  ASN B   1     -21.378 -26.497 -26.522  1.00 59.47 LIG 0.22  C 
ATOM     30  ND2 ASN B   1     -21.049 -27.739 -26.151  1.00 63.81 LIG-0.37  N 
ATOM     31 21HD ASN B   1     -21.163 -27.989 -25.337  1.00 63.81 LIG 0.16  HD
ATOM     32 22HD ASN B   1     -20.724 -28.288 -26.728  1.00 63.81 LIG 0.16  HD
ATOM     33 OD1  ASN B   1     -21.846 -25.674 -25.739  1.00 60.25 LIG-0.27  OA
ENDBRANCH 28 29
ENDBRANCH 23 28
ENDBRANCH 20 23
ENDBRANCH 6 19
ENDBRANCH 3 6
ENDBRANCH 1 2
BRANCH 1 34
ATOM     34  CB  LEU B   3     -14.763 -22.728 -29.338  1.00 28.79 LIG 0.04  C 
BRANCH 34 35
ATOM     35  CG  LEU B   3     -14.124 -22.950 -27.963  1.00 33.15 LIG-0.02  C 
ATOM     36  CD2 LEU B   3     -14.170 -24.434 -27.623  1.00 30.13 LIG 0.01  C 
ATOM     37  CD1 LEU B   3     -14.774 -22.121 -26.816  1.00 27.67 LIG 0.01  C 
ENDBRANCH 34 35
ENDBRANCH 1 34
BRANCH 1 38
ATOM     38  C   LEU B   3     -15.615 -20.344 -29.533  1.00 20.33 LIG 0.24  C 
ATOM     39  N   LEU B   4     -15.226 -19.627 -28.484  1.00 23.83 LIG-0.35  N 
ATOM     40 H    LEU B   4     -15.179 -19.930 -27.681  1.00 23.83 LIG 0.16  HD
ATOM     41 O    LEU B   3     -15.660 -19.881 -30.670  1.00 22.70 LIG-0.27  OA
BRANCH 39 42
ATOM     42  CA  LEU B   4     -14.838 -18.229 -28.633  1.00 22.91 LIG 0.18  C 
BRANCH 42 43
ATOM     43  C   LEU B   4     -13.536 -18.171 -29.438  1.00 30.74 LIG 0.24  C 
ATOM     44 O    LEU B   4     -12.847 -19.210 -29.643  1.00 30.11 LIG-0.27  OA
ATOM     45  N   LEU B   5     -13.152 -16.981 -29.878  1.00 32.41 LIG-0.35  N 
ATOM     46 H    LEU B   5     -13.610 -16.255 -29.826  1.00 32.41 LIG 0.16  HD
BRANCH 45 47
ATOM     47  CA  LEU B   5     -11.834 -16.867 -30.516  1.00 35.50 LIG 0.18  C 
BRANCH 47 48
ATOM     48  C   LEU B   5     -11.276 -15.459 -30.343  1.00 33.38 LIG 0.24  C 
ATOM     49 O    LEU B   5     -12.024 -14.457 -30.385  1.00 25.58 LIG-0.27  OA
ATOM     50  N   THR B   6      -9.962 -15.404 -30.155  1.00 32.99 LIG-0.34  N 
ATOM     51 H    THR B   6      -9.486 -16.101 -29.989  1.00 32.99 LIG 0.16  HD
BRANCH 50 52
ATOM     52  CA  THR B   6      -9.183 -14.174 -30.209  1.00 39.09 LIG 0.19  C 
BRANCH 52 53
ATOM     53  CB  THR B   6      -8.376 -13.978 -28.897  1.00 66.99 LIG 0.14  C 
ATOM     54  CG2 THR B   6      -8.657 -12.620 -28.284  1.00 64.52 LIG 0.04  C 
BRANCH 53 55
ATOM     55 OG1  THR B   6      -8.738 -14.996 -27.943  1.00 68.32 LIG-0.39  OA
ATOM     56 HG1  THR B   6      -8.756 -15.744 -28.325  1.00 68.32 LIG 0.21  HD
ENDBRANCH 53 55
ENDBRANCH 52 53
BRANCH 52 57
ATOM     57  C   THR B   6      -8.198 -14.265 -31.383  1.00 46.48 LIG 0.22  C 
ATOM     58 O    THR B   6      -7.907 -15.361 -31.885  1.00 50.47 LIG-0.29  OA
ENDBRANCH 52 57
ENDBRANCH 50 52
ENDBRANCH 47 48
BRANCH 47 59
ATOM     59  CB  LEU B   5     -11.914 -17.173 -32.006  1.00 41.25 LIG 0.04  C 
BRANCH 59 60
ATOM     60  CG  LEU B   5     -10.611 -17.317 -32.776  1.00 47.99 LIG-0.02  C 
ATOM     61  CD2 LEU B   5     -10.885 -17.754 -34.188  1.00 50.88 LIG 0.01  C 
ATOM     62  CD1 LEU B   5      -9.760 -18.350 -32.067  1.00 54.72 LIG 0.01  C 
ENDBRANCH 59 60
ENDBRANCH 47 59
ENDBRANCH 45 47
ENDBRANCH 42 43
BRANCH 42 63
ATOM     63  CB  LEU B   4     -14.562 -17.680 -27.248  1.00 23.96 LIG 0.04  C 
BRANCH 63 64
ATOM     64  CG  LEU B   4     -13.185 -17.661 -26.622  1.00 38.52 LIG-0.02  C 
ATOM     65  CD1 LEU B   4     -12.700 -16.274 -26.408  1.00 46.71 LIG 0.01  C 
ATOM     66  CD2 LEU B   4     -13.227 -18.469 -25.316  1.00 36.33 LIG 0.01  C 
ENDBRANCH 63 64
ENDBRANCH 42 63
ENDBRANCH 39 42
ENDBRANCH 1 38
TORSDOF 26
ENDMDL
MODEL 80
USER: ADFR SOLUTION from run 83
USER: SCORE 22.319326 LL:  -5.485 LR: -18.473 RR:   0.000 FEB: -10.718
USER: RMSD 6.097165
USER: SEED 82
USER: STATUS searching
USER: GENES 28
USER: genes 0 Translation |==|  0.55948 0.51383 0.47495
USER: genes 1 Rotation |==|  0.10555 0.26186 0.64534 0.62874
USER: genes 2 Torsion [C]-CA--N-[C] |==|  0.78181
USER: genes 3 Torsion [N]-C--CA-[N] |==|  0.49229
USER: genes 4 Torsion [C]-CA--CB-[CG] |==|  0.35295
USER: genes 5 Torsion [CA]-CB--CG-[CD] |==|  0.07429
USER: genes 6 Torsion [CB]-CG--CD-[NE] |==|  0.56184
USER: genes 7 Torsion [CG]-CD--NE-[HE] |==|  0.94852
USER: genes 8 Torsion [C]-CA--N-[C] |==|  0.72204
USER: genes 9 Torsion [N]-C--CA-[N] |==|  0.76963
USER: genes 10 Torsion [C]-CA--N-[H3] |==|  0.37688
USER: genes 11 Torsion [C]-CA--CB-[CG] |==|  0.29686
USER: genes 12 Torsion [CA]-CB--CG-[ND2] |==|  0.69932
USER: genes 13 Torsion [N]-CA--CB-[CG] |==|  0.59380
USER: genes 14 Torsion [CA]-CB--CG-[CD1] |==|  0.72289
USER: genes 15 Torsion [N]-CA--C-[N] |==|  0.48889
USER: genes 16 Torsion [C]-N--CA-[CB] |==|  0.16878
USER: genes 17 Torsion [N]-CA--C-[N] |==|  0.60856
USER: genes 18 Torsion [C]-N--CA-[C] |==|  0.74543
USER: genes 19 Torsion [N]-CA--C-[N] |==|  0.10252
USER: genes 20 Torsion [C]-N--CA-[C] |==|  0.76212
USER: genes 21 Torsion [N]-CA--CB-[CG2] |==|  0.76327
USER: genes 22 Torsion [CA]-CB--OG1-[HG1] |==|  0.29579
USER: genes 23 Torsion [N]-CA--C-[O] |==|  0.68033
USER: genes 24 Torsion [N]-CA--CB-[CG] |==|  0.72538
USER: genes 25 Torsion [CA]-CB--CG-[CD2] |==|  0.74752
USER: genes 26 Torsion [N]-CA--CB-[CG] |==|  0.16723
USER: genes 27 Torsion [CA]-CB--CG-[CD1] |==|  0.40103
ROOT
ATOM      1  CA  LEU B   3     -16.630 -22.529 -28.843  1.00 17.18 LIG 0.18  C 
ENDROOT
BRANCH 1 2
ATOM      2  N   LEU B   3     -17.893 -23.156 -28.954  1.00 21.09 LIG-0.35  N 
ATOM      3  C   ARG B   2     -19.023 -22.460 -28.859  1.00 20.79 LIG 0.24  C 
ATOM      4 O    ARG B   2     -19.058 -21.216 -28.750  1.00 18.81 LIG-0.27  OA
ATOM      5 H    LEU B   3     -17.861 -24.005 -29.086  1.00 21.09 LIG 0.16  HD
BRANCH 3 6
ATOM      6  CA  ARG B   2     -20.299 -23.290 -28.811  1.00 21.42 LIG 0.18  C 
BRANCH 6 7
ATOM      7  CB  ARG B   2     -20.480 -24.179 -30.046  1.00 36.36 LIG 0.04  C 
BRANCH 7 8
ATOM      8  CG  ARG B   2     -20.719 -25.630 -29.673  1.00 41.67 LIG 0.02  C 
BRANCH 8 9
ATOM      9  CD  ARG B   2     -21.356 -25.803 -28.293  1.00 51.14 LIG 0.14  C 
BRANCH 9 10
ATOM     10  NE  ARG B   2     -21.103 -27.144 -27.737  1.00 53.41 LIG-0.23  N 
ATOM     11 HE   ARG B   2     -20.863 -27.760 -28.287  1.00 53.41 LIG 0.18  HD
ATOM     12  CZ  ARG B   2     -21.214 -27.484 -26.447  1.00 50.83 LIG 0.67  C 
ATOM     13  NH1 ARG B   2     -21.581 -26.586 -25.541  1.00 40.00 LIG-0.23  N 
ATOM     14  NH2 ARG B   2     -20.965 -28.738 -26.065  1.00 54.23 LIG-0.23  N 
ATOM     15 1HH1 ARG B   2     -21.751 -25.778 -25.781  1.00 40.00 LIG 0.17  HD
ATOM     16 2HH1 ARG B   2     -21.651 -26.813 -24.714  1.00 40.00 LIG 0.17  HD
ATOM     17 1HH2 ARG B   2     -20.733 -29.326 -26.648  1.00 54.23 LIG 0.17  HD
ATOM     18 2HH2 ARG B   2     -21.036 -28.957 -25.237  1.00 54.23 LIG 0.17  HD
ENDBRANCH 9 10
ENDBRANCH 8 9
ENDBRANCH 7 8
ENDBRANCH 6 7
BRANCH 6 19
ATOM     19  N   ARG B   2     -21.413 -22.382 -28.641  1.00 29.89 LIG-0.35  N 
ATOM     20  C   ASN B   1     -21.958 -22.202 -27.446  1.00 39.87 LIG 0.25  C 
ATOM     21 O    ASN B   1     -21.793 -22.996 -26.510  1.00 37.46 LIG-0.27  OA
ATOM     22 H    ARG B   2     -21.674 -21.990 -29.361  1.00 29.89 LIG 0.16  HD
BRANCH 20 23
ATOM     23  CA  ASN B   1     -22.828 -20.941 -27.292  1.00 47.73 LIG 0.28  C 
BRANCH 23 24
ATOM     24  N   ASN B   1     -22.089 -19.735 -27.011  1.00 51.86 LIG-0.07  N 
ATOM     25 H3   ASN B   1     -22.401 -19.072 -27.515  1.00 51.86 LIG 0.28  HD
ATOM     26 H1   ASN B   1     -22.183 -19.524 -26.151  1.00 51.86 LIG 0.28  HD
ATOM     27 H2   ASN B   1     -21.228 -19.866 -27.191  1.00 51.86 LIG 0.28  HD
ENDBRANCH 23 24
BRANCH 23 28
ATOM     28  CB  ASN B   1     -23.694 -20.678 -28.507  1.00 49.79 LIG 0.14  C 
BRANCH 28 29
ATOM     29  CG  ASN B   1     -25.144 -20.994 -28.228  1.00 59.47 LIG 0.22  C 
ATOM     30  ND2 ASN B   1     -25.647 -22.086 -28.814  1.00 63.81 LIG-0.37  N 
ATOM     31 21HD ASN B   1     -26.474 -22.292 -28.701  1.00 63.81 LIG 0.16  HD
ATOM     32 22HD ASN B   1     -25.143 -22.582 -29.302  1.00 63.81 LIG 0.16  HD
ATOM     33 OD1  ASN B   1     -25.818 -20.251 -27.520  1.00 60.25 LIG-0.27  OA
ENDBRANCH 28 29
ENDBRANCH 23 28
ENDBRANCH 20 23
ENDBRANCH 6 19
ENDBRANCH 3 6
ENDBRANCH 1 2
BRANCH 1 34
ATOM     34  CB  LEU B   3     -15.561 -23.568 -28.403  1.00 28.79 LIG 0.04  C 
BRANCH 34 35
ATOM     35  CG  LEU B   3     -14.495 -22.929 -27.507  1.00 33.15 LIG-0.02  C 
ATOM     36  CD2 LEU B   3     -15.078 -21.689 -26.842  1.00 30.13 LIG 0.01  C 
ATOM     37  CD1 LEU B   3     -13.173 -22.566 -28.246  1.00 27.67 LIG 0.01  C 
ENDBRANCH 34 35
ENDBRANCH 1 34
BRANCH 1 38
ATOM     38  C   LEU B   3     -16.232 -21.820 -30.119  1.00 20.33 LIG 0.24  C 
ATOM     39  N   LEU B   4     -15.094 -21.135 -30.071  1.00 23.83 LIG-0.35  N 
ATOM     40 H    LEU B   4     -14.592 -21.079 -29.375  1.00 23.83 LIG 0.16  HD
ATOM     41 O    LEU B   3     -16.920 -21.888 -31.134  1.00 22.70 LIG-0.27  OA
BRANCH 39 42
ATOM     42  CA  LEU B   4     -14.605 -20.409 -31.237  1.00 22.91 LIG 0.18  C 
BRANCH 42 43
ATOM     43  C   LEU B   4     -13.317 -19.678 -30.847  1.00 30.74 LIG 0.24  C 
ATOM     44 O    LEU B   4     -12.477 -20.206 -30.063  1.00 30.11 LIG-0.27  OA
ATOM     45  N   LEU B   5     -13.141 -18.460 -31.340  1.00 32.41 LIG-0.35  N 
ATOM     46 H    LEU B   5     -13.643 -18.078 -31.925  1.00 32.41 LIG 0.16  HD
BRANCH 45 47
ATOM     47  CA  LEU B   5     -11.997 -17.674 -30.862  1.00 35.50 LIG 0.18  C 
BRANCH 47 48
ATOM     48  C   LEU B   5     -12.398 -16.817 -29.667  1.00 33.38 LIG 0.24  C 
ATOM     49 O    LEU B   5     -11.931 -15.667 -29.508  1.00 25.58 LIG-0.27  OA
ATOM     50  N   THR B   6     -13.260 -17.395 -28.837  1.00 32.99 LIG-0.34  N 
ATOM     51 H    THR B   6     -13.677 -18.122 -29.031  1.00 32.99 LIG 0.16  HD
BRANCH 50 52
ATOM     52  CA  THR B   6     -13.595 -16.873 -27.519  1.00 39.09 LIG 0.19  C 
BRANCH 52 53
ATOM     53  CB  THR B   6     -15.003 -17.358 -27.078  1.00 66.99 LIG 0.14  C 
ATOM     54  CG2 THR B   6     -16.086 -16.447 -27.624  1.00 64.52 LIG 0.04  C 
BRANCH 53 55
ATOM     55 OG1  THR B   6     -15.236 -18.693 -27.567  1.00 68.32 LIG-0.39  OA
ATOM     56 HG1  THR B   6     -15.187 -19.238 -26.930  1.00 68.32 LIG 0.21  HD
ENDBRANCH 53 55
ENDBRANCH 52 53
BRANCH 52 57
ATOM     57  C   THR B   6     -12.560 -17.386 -26.508  1.00 46.48 LIG 0.22  C 
ATOM     58 O    THR B   6     -12.894 -18.152 -25.591  1.00 50.47 LIG-0.29  OA
ENDBRANCH 52 57
ENDBRANCH 50 52
ENDBRANCH 47 48
BRANCH 47 59
ATOM     59  CB  LEU B   5     -11.464 -16.756 -31.955  1.00 41.25 LIG 0.04  C 
BRANCH 59 60
ATOM     60  CG  LEU B   5     -10.244 -17.212 -32.739  1.00 47.99 LIG-0.02  C 
ATOM     61  CD2 LEU B   5      -8.985 -16.720 -32.080  1.00 50.88 LIG 0.01  C 
ATOM     62  CD1 LEU B   5     -10.352 -16.652 -34.142  1.00 54.72 LIG 0.01  C 
ENDBRANCH 59 60
ENDBRANCH 47 59
ENDBRANCH 45 47
ENDBRANCH 42 43
BRANCH 42 63
ATOM     63  CB  LEU B   4     -15.647 -19.369 -31.599  1.00 23.96 LIG 0.04  C 
BRANCH 63 64
ATOM     64  CG  LEU B   4     -16.080 -18.267 -30.658  1.00 38.52 LIG-0.02  C 
ATOM     65  CD1 LEU B   4     -16.370 -17.007 -31.389  1.00 46.71 LIG 0.01  C 
ATOM     66  CD2 LEU B   4     -17.288 -18.759 -29.846  1.00 36.33 LIG 0.01  C 
ENDBRANCH 63 64
ENDBRANCH 42 63
ENDBRANCH 39 42
ENDBRANCH 1 38
TORSDOF 26
ENDMDL
MODEL 81
USER: ADFR SOLUTION from run 119
USER: SCORE 21.423098 LL:  -4.555 LR: -18.466 RR:   0.000 FEB: -10.711
USER: RMSD 10.653572
USER: SEED 118
USER: STATUS no improvement in best in 7 clusters for 5 generations
USER: GENES 28
USER: genes 0 Translation |==|  0.46348 0.53882 0.35346
USER: genes 1 Rotation |==|  0.34826 0.62662 0.04078 0.50772
USER: genes 2 Torsion [C]-CA--N-[C] |==|  0.75634
USER: genes 3 Torsion [N]-C--CA-[N] |==|  0.47188
USER: genes 4 Torsion [C]-CA--CB-[CG] |==|  0.91399
USER: genes 5 Torsion [CA]-CB--CG-[CD] |==|  0.62535
USER: genes 6 Torsion [CB]-CG--CD-[NE] |==|  0.13082
USER: genes 7 Torsion [CG]-CD--NE-[HE] |==|  0.65873
USER: genes 8 Torsion [C]-CA--N-[C] |==|  0.53981
USER: genes 9 Torsion [N]-C--CA-[N] |==|  0.05340
USER: genes 10 Torsion [C]-CA--N-[H3] |==|  0.50497
USER: genes 11 Torsion [C]-CA--CB-[CG] |==|  0.64904
USER: genes 12 Torsion [CA]-CB--CG-[ND2] |==|  0.74283
USER: genes 13 Torsion [N]-CA--CB-[CG] |==|  0.46184
USER: genes 14 Torsion [CA]-CB--CG-[CD1] |==|  0.36671
USER: genes 15 Torsion [N]-CA--C-[N] |==|  0.39606
USER: genes 16 Torsion [C]-N--CA-[CB] |==|  0.12514
USER: genes 17 Torsion [N]-CA--C-[N] |==|  0.92473
USER: genes 18 Torsion [C]-N--CA-[C] |==|  0.77845
USER: genes 19 Torsion [N]-CA--C-[N] |==|  0.00892
USER: genes 20 Torsion [C]-N--CA-[C] |==|  0.79072
USER: genes 21 Torsion [N]-CA--CB-[CG2] |==|  0.32539
USER: genes 22 Torsion [CA]-CB--OG1-[HG1] |==|  0.80389
USER: genes 23 Torsion [N]-CA--C-[O] |==|  0.18025
USER: genes 24 Torsion [N]-CA--CB-[CG] |==|  0.59629
USER: genes 25 Torsion [CA]-CB--CG-[CD2] |==|  0.04049
USER: genes 26 Torsion [N]-CA--CB-[CG] |==|  0.60279
USER: genes 27 Torsion [CA]-CB--CG-[CD1] |==|  0.73609
ROOT
ATOM      1  CA  LEU B   3     -19.006 -21.910 -31.394  1.00 17.18 LIG 0.18  C 
ENDROOT
BRANCH 1 2
ATOM      2  N   LEU B   3     -17.622 -21.758 -31.143  1.00 21.09 LIG-0.35  N 
ATOM      3  C   ARG B   2     -17.180 -21.103 -30.074  1.00 20.79 LIG 0.24  C 
ATOM      4 O    ARG B   2     -17.931 -20.652 -29.184  1.00 18.81 LIG-0.27  OA
ATOM      5 H    LEU B   3     -17.110 -22.121 -31.732  1.00 21.09 LIG 0.16  HD
BRANCH 3 6
ATOM      6  CA  ARG B   2     -15.677 -20.859 -30.033  1.00 21.42 LIG 0.18  C 
BRANCH 6 7
ATOM      7  CB  ARG B   2     -14.866 -22.151 -29.892  1.00 36.36 LIG 0.04  C 
BRANCH 7 8
ATOM      8  CG  ARG B   2     -15.615 -23.211 -29.108  1.00 41.67 LIG 0.02  C 
BRANCH 8 9
ATOM      9  CD  ARG B   2     -14.750 -23.913 -28.059  1.00 51.14 LIG 0.14  C 
BRANCH 9 10
ATOM     10  NE  ARG B   2     -13.976 -22.950 -27.254  1.00 53.41 LIG-0.23  N 
ATOM     11 HE   ARG B   2     -13.121 -23.041 -27.245  1.00 53.41 LIG 0.18  HD
ATOM     12  CZ  ARG B   2     -14.493 -21.946 -26.536  1.00 50.83 LIG 0.67  C 
ATOM     13  NH1 ARG B   2     -15.804 -21.746 -26.501  1.00 40.00 LIG-0.23  N 
ATOM     14  NH2 ARG B   2     -13.687 -21.143 -25.839  1.00 54.23 LIG-0.23  N 
ATOM     15 1HH1 ARG B   2     -16.331 -22.264 -26.941  1.00 40.00 LIG 0.17  HD
ATOM     16 2HH1 ARG B   2     -16.128 -21.098 -26.036  1.00 40.00 LIG 0.17  HD
ATOM     17 1HH2 ARG B   2     -12.837 -21.271 -25.852  1.00 54.23 LIG 0.17  HD
ATOM     18 2HH2 ARG B   2     -14.018 -20.498 -25.378  1.00 54.23 LIG 0.17  HD
ENDBRANCH 9 10
ENDBRANCH 8 9
ENDBRANCH 7 8
ENDBRANCH 6 7
BRANCH 6 19
ATOM     19  N   ARG B   2     -15.405 -19.941 -28.948  1.00 29.89 LIG-0.35  N 
ATOM     20  C   ASN B   1     -14.229 -19.336 -28.857  1.00 39.87 LIG 0.25  C 
ATOM     21 O    ASN B   1     -13.223 -19.739 -29.455  1.00 37.46 LIG-0.27  OA
ATOM     22 H    ARG B   2     -16.054 -19.832 -28.393  1.00 29.89 LIG 0.16  HD
BRANCH 20 23
ATOM     23  CA  ASN B   1     -14.184 -18.096 -27.945  1.00 47.73 LIG 0.28  C 
BRANCH 23 24
ATOM     24  N   ASN B   1     -15.267 -18.013 -26.995  1.00 51.86 LIG-0.07  N 
ATOM     25 H3   ASN B   1     -15.190 -17.263 -26.523  1.00 51.86 LIG 0.28  HD
ATOM     26 H1   ASN B   1     -16.043 -18.012 -27.430  1.00 51.86 LIG 0.28  HD
ATOM     27 H2   ASN B   1     -15.235 -18.713 -26.447  1.00 51.86 LIG 0.28  HD
ENDBRANCH 23 24
BRANCH 23 28
ATOM     28  CB  ASN B   1     -12.885 -17.985 -27.173  1.00 49.79 LIG 0.14  C 
BRANCH 28 29
ATOM     29  CG  ASN B   1     -13.138 -17.849 -25.690  1.00 59.47 LIG 0.22  C 
ATOM     30  ND2 ASN B   1     -13.219 -16.605 -25.204  1.00 63.81 LIG-0.37  N 
ATOM     31 21HD ASN B   1     -13.338 -16.480 -24.362  1.00 63.81 LIG 0.16  HD
ATOM     32 22HD ASN B   1     -13.151 -15.931 -25.734  1.00 63.81 LIG 0.16  HD
ATOM     33 OD1  ASN B   1     -13.227 -18.846 -24.979  1.00 60.25 LIG-0.27  OA
ENDBRANCH 28 29
ENDBRANCH 23 28
ENDBRANCH 20 23
ENDBRANCH 6 19
ENDBRANCH 3 6
ENDBRANCH 1 2
BRANCH 1 34
ATOM     34  CB  LEU B   3     -19.266 -21.925 -32.927  1.00 28.79 LIG 0.04  C 
BRANCH 34 35
ATOM     35  CG  LEU B   3     -20.680 -22.421 -33.248  1.00 33.15 LIG-0.02  C 
ATOM     36  CD2 LEU B   3     -20.604 -23.850 -33.770  1.00 30.13 LIG 0.01  C 
ATOM     37  CD1 LEU B   3     -21.456 -21.525 -34.260  1.00 27.67 LIG 0.01  C 
ENDBRANCH 34 35
ENDBRANCH 1 34
BRANCH 1 38
ATOM     38  C   LEU B   3     -19.576 -23.137 -30.716  1.00 20.33 LIG 0.24  C 
ATOM     39  N   LEU B   4     -20.803 -23.007 -30.221  1.00 23.83 LIG-0.35  N 
ATOM     40 H    LEU B   4     -21.270 -22.286 -30.267  1.00 23.83 LIG 0.16  HD
ATOM     41 O    LEU B   3     -18.941 -24.184 -30.641  1.00 22.70 LIG-0.27  OA
BRANCH 39 42
ATOM     42  CA  LEU B   4     -21.459 -24.118 -29.543  1.00 22.91 LIG 0.18  C 
BRANCH 42 43
ATOM     43  C   LEU B   4     -22.616 -23.560 -28.708  1.00 30.74 LIG 0.24  C 
ATOM     44 O    LEU B   4     -23.642 -24.256 -28.464  1.00 30.11 LIG-0.27  OA
ATOM     45  N   LEU B   5     -22.505 -22.308 -28.285  1.00 32.41 LIG-0.35  N 
ATOM     46 H    LEU B   5     -21.808 -21.812 -28.364  1.00 32.41 LIG 0.16  HD
BRANCH 45 47
ATOM     47  CA  LEU B   5     -23.660 -21.694 -27.618  1.00 35.50 LIG 0.18  C 
BRANCH 47 48
ATOM     48  C   LEU B   5     -24.683 -21.224 -28.646  1.00 33.38 LIG 0.24  C 
ATOM     49 O    LEU B   5     -25.722 -20.621 -28.296  1.00 25.58 LIG-0.27  OA
ATOM     50  N   THR B   6     -24.374 -21.513 -29.906  1.00 32.99 LIG-0.34  N 
ATOM     51 H    THR B   6     -23.597 -21.799 -30.140  1.00 32.99 LIG 0.16  HD
BRANCH 50 52
ATOM     52  CA  THR B   6     -25.301 -21.382 -31.021  1.00 39.09 LIG 0.19  C 
BRANCH 52 53
ATOM     53  CB  THR B   6     -24.542 -21.440 -32.375  1.00 66.99 LIG 0.14  C 
ATOM     54  CG2 THR B   6     -24.980 -22.640 -33.191  1.00 64.52 LIG 0.04  C 
BRANCH 53 55
ATOM     55 OG1  THR B   6     -24.807 -20.245 -33.136  1.00 68.32 LIG-0.39  OA
ATOM     56 HG1  THR B   6     -25.602 -20.255 -33.407  1.00 68.32 LIG 0.21  HD
ENDBRANCH 53 55
ENDBRANCH 52 53
BRANCH 52 57
ATOM     57  C   THR B   6     -26.303 -22.543 -30.969  1.00 46.48 LIG 0.22  C 
ATOM     58 O    THR B   6     -27.102 -22.651 -30.026  1.00 50.47 LIG-0.29  OA
ENDBRANCH 52 57
ENDBRANCH 50 52
ENDBRANCH 47 48
BRANCH 47 59
ATOM     59  CB  LEU B   5     -23.238 -20.496 -26.776  1.00 41.25 LIG 0.04  C 
BRANCH 59 60
ATOM     60  CG  LEU B   5     -23.988 -20.235 -25.480  1.00 47.99 LIG-0.02  C 
ATOM     61  CD2 LEU B   5     -24.800 -21.441 -25.094  1.00 50.88 LIG 0.01  C 
ATOM     62  CD1 LEU B   5     -24.896 -19.042 -25.695  1.00 54.72 LIG 0.01  C 
ENDBRANCH 59 60
ENDBRANCH 47 59
ENDBRANCH 45 47
ENDBRANCH 42 43
BRANCH 42 63
ATOM     63  CB  LEU B   4     -20.451 -24.739 -28.598  1.00 23.96 LIG 0.04  C 
BRANCH 63 64
ATOM     64  CG  LEU B   4     -20.362 -26.227 -28.340  1.00 38.52 LIG-0.02  C 
ATOM     65  CD1 LEU B   4     -21.133 -26.621 -27.134  1.00 46.71 LIG 0.01  C 
ATOM     66  CD2 LEU B   4     -20.831 -26.973 -29.599  1.00 36.33 LIG 0.01  C 
ENDBRANCH 63 64
ENDBRANCH 42 63
ENDBRANCH 39 42
ENDBRANCH 1 38
TORSDOF 26
ENDMDL
MODEL 82
USER: ADFR SOLUTION from run 119
USER: SCORE 22.063891 LL:  -4.921 LR: -18.460 RR:   0.000 FEB: -10.705
USER: RMSD 11.268413
USER: SEED 118
USER: STATUS no improvement in best in 7 clusters for 5 generations
USER: GENES 28
USER: genes 0 Translation |==|  0.47232 0.54703 0.35262
USER: genes 1 Rotation |==|  0.62293 0.46735 0.98120 0.54762
USER: genes 2 Torsion [C]-CA--N-[C] |==|  0.80767
USER: genes 3 Torsion [N]-C--CA-[N] |==|  0.49883
USER: genes 4 Torsion [C]-CA--CB-[CG] |==|  0.90765
USER: genes 5 Torsion [CA]-CB--CG-[CD] |==|  0.62402
USER: genes 6 Torsion [CB]-CG--CD-[NE] |==|  0.14062
USER: genes 7 Torsion [CG]-CD--NE-[HE] |==|  0.65794
USER: genes 8 Torsion [C]-CA--N-[C] |==|  0.57766
USER: genes 9 Torsion [N]-C--CA-[N] |==|  0.03690
USER: genes 10 Torsion [C]-CA--N-[H3] |==|  0.52660
USER: genes 11 Torsion [C]-CA--CB-[CG] |==|  0.64528
USER: genes 12 Torsion [CA]-CB--CG-[ND2] |==|  0.74671
USER: genes 13 Torsion [N]-CA--CB-[CG] |==|  0.47646
USER: genes 14 Torsion [CA]-CB--CG-[CD1] |==|  0.31529
USER: genes 15 Torsion [N]-CA--C-[N] |==|  0.42775
USER: genes 16 Torsion [C]-N--CA-[CB] |==|  0.24294
USER: genes 17 Torsion [N]-CA--C-[N] |==|  0.91989
USER: genes 18 Torsion [C]-N--CA-[C] |==|  0.17357
USER: genes 19 Torsion [N]-CA--C-[N] |==|  0.10205
USER: genes 20 Torsion [C]-N--CA-[C] |==|  0.44100
USER: genes 21 Torsion [N]-CA--CB-[CG2] |==|  0.34189
USER: genes 22 Torsion [CA]-CB--OG1-[HG1] |==|  0.94796
USER: genes 23 Torsion [N]-CA--C-[O] |==|  0.26262
USER: genes 24 Torsion [N]-CA--CB-[CG] |==|  0.68009
USER: genes 25 Torsion [CA]-CB--CG-[CD2] |==|  0.37772
USER: genes 26 Torsion [N]-CA--CB-[CG] |==|  0.33226
USER: genes 27 Torsion [CA]-CB--CG-[CD1] |==|  0.33408
ROOT
ATOM      1  CA  LEU B   3     -18.787 -21.707 -31.412  1.00 17.18 LIG 0.18  C 
ENDROOT
BRANCH 1 2
ATOM      2  N   LEU B   3     -17.411 -21.600 -31.102  1.00 21.09 LIG-0.35  N 
ATOM      3  C   ARG B   2     -16.985 -20.843 -30.095  1.00 20.79 LIG 0.24  C 
ATOM      4 O    ARG B   2     -17.751 -20.246 -29.310  1.00 18.81 LIG-0.27  OA
ATOM      5 H    LEU B   3     -16.892 -22.059 -31.612  1.00 21.09 LIG 0.16  HD
BRANCH 3 6
ATOM      6  CA  ARG B   2     -15.474 -20.676 -29.997  1.00 21.42 LIG 0.18  C 
BRANCH 6 7
ATOM      7  CB  ARG B   2     -14.731 -22.013 -29.892  1.00 36.36 LIG 0.04  C 
BRANCH 7 8
ATOM      8  CG  ARG B   2     -15.534 -23.052 -29.133  1.00 41.67 LIG 0.02  C 
BRANCH 8 9
ATOM      9  CD  ARG B   2     -14.702 -23.833 -28.114  1.00 51.14 LIG 0.14  C 
BRANCH 9 10
ATOM     10  NE  ARG B   2     -13.932 -22.936 -27.233  1.00 53.41 LIG-0.23  N 
ATOM     11 HE   ARG B   2     -13.079 -23.044 -27.209  1.00 53.41 LIG 0.18  HD
ATOM     12  CZ  ARG B   2     -14.449 -21.968 -26.467  1.00 50.83 LIG 0.67  C 
ATOM     13  NH1 ARG B   2     -15.758 -21.746 -26.450  1.00 40.00 LIG-0.23  N 
ATOM     14  NH2 ARG B   2     -13.647 -21.225 -25.703  1.00 54.23 LIG-0.23  N 
ATOM     15 1HH1 ARG B   2     -16.281 -22.226 -26.934  1.00 40.00 LIG 0.17  HD
ATOM     16 2HH1 ARG B   2     -16.082 -21.122 -25.954  1.00 40.00 LIG 0.17  HD
ATOM     17 1HH2 ARG B   2     -12.799 -21.368 -25.703  1.00 54.23 LIG 0.17  HD
ATOM     18 2HH2 ARG B   2     -13.978 -20.603 -25.210  1.00 54.23 LIG 0.17  HD
ENDBRANCH 9 10
ENDBRANCH 8 9
ENDBRANCH 7 8
ENDBRANCH 6 7
BRANCH 6 19
ATOM     19  N   ARG B   2     -15.193 -19.823 -28.863  1.00 29.89 LIG-0.35  N 
ATOM     20  C   ASN B   1     -14.100 -19.072 -28.840  1.00 39.87 LIG 0.25  C 
ATOM     21 O    ASN B   1     -13.130 -19.283 -29.580  1.00 37.46 LIG-0.27  OA
ATOM     22 H    ARG B   2     -15.779 -19.851 -28.234  1.00 29.89 LIG 0.16  HD
BRANCH 20 23
ATOM     23  CA  ASN B   1     -14.105 -17.918 -27.821  1.00 47.73 LIG 0.28  C 
BRANCH 23 24
ATOM     24  N   ASN B   1     -15.155 -17.994 -26.835  1.00 51.86 LIG-0.07  N 
ATOM     25 H3   ASN B   1     -15.183 -17.235 -26.372  1.00 51.86 LIG 0.28  HD
ATOM     26 H1   ASN B   1     -15.936 -18.122 -27.243  1.00 51.86 LIG 0.28  HD
ATOM     27 H2   ASN B   1     -14.994 -18.673 -26.283  1.00 51.86 LIG 0.28  HD
ENDBRANCH 23 24
BRANCH 23 28
ATOM     28  CB  ASN B   1     -12.789 -17.786 -27.082  1.00 49.79 LIG 0.14  C 
BRANCH 28 29
ATOM     29  CG  ASN B   1     -12.998 -17.766 -25.587  1.00 59.47 LIG 0.22  C 
ATOM     30  ND2 ASN B   1     -13.160 -16.567 -25.016  1.00 63.81 LIG-0.37  N 
ATOM     31 21HD ASN B   1     -13.259 -16.507 -24.164  1.00 63.81 LIG 0.16  HD
ATOM     32 22HD ASN B   1     -13.165 -15.858 -25.501  1.00 63.81 LIG 0.16  HD
ATOM     33 OD1  ASN B   1     -12.983 -18.811 -24.942  1.00 60.25 LIG-0.27  OA
ENDBRANCH 28 29
ENDBRANCH 23 28
ENDBRANCH 20 23
ENDBRANCH 6 19
ENDBRANCH 3 6
ENDBRANCH 1 2
BRANCH 1 34
ATOM     34  CB  LEU B   3     -18.964 -22.348 -32.817  1.00 28.79 LIG 0.04  C 
BRANCH 34 35
ATOM     35  CG  LEU B   3     -20.434 -22.673 -33.102  1.00 33.15 LIG-0.02  C 
ATOM     36  CD2 LEU B   3     -20.568 -24.157 -33.414  1.00 30.13 LIG 0.01  C 
ATOM     37  CD1 LEU B   3     -21.063 -21.828 -34.250  1.00 27.67 LIG 0.01  C 
ENDBRANCH 34 35
ENDBRANCH 1 34
BRANCH 1 38
ATOM     38  C   LEU B   3     -19.553 -22.464 -30.349  1.00 20.33 LIG 0.24  C 
ATOM     39  N   LEU B   4     -20.846 -22.173 -30.250  1.00 23.83 LIG-0.35  N 
ATOM     40 H    LEU B   4     -21.252 -21.597 -30.742  1.00 23.83 LIG 0.16  HD
ATOM     41 O    LEU B   3     -19.006 -23.300 -29.635  1.00 22.70 LIG-0.27  OA
BRANCH 39 42
ATOM     42  CA  LEU B   4     -21.689 -22.836 -29.262  1.00 22.91 LIG 0.18  C 
BRANCH 42 43
ATOM     43  C   LEU B   4     -23.140 -22.784 -29.752  1.00 30.74 LIG 0.24  C 
ATOM     44 O    LEU B   4     -23.963 -23.696 -29.457  1.00 30.11 LIG-0.27  OA
ATOM     45  N   LEU B   5     -23.480 -21.761 -30.524  1.00 32.41 LIG-0.35  N 
ATOM     46 H    LEU B   5     -22.984 -21.081 -30.703  1.00 32.41 LIG 0.16  HD
BRANCH 45 47
ATOM     47  CA  LEU B   5     -24.814 -21.764 -31.137  1.00 35.50 LIG 0.18  C 
BRANCH 47 48
ATOM     48  C   LEU B   5     -25.896 -21.738 -30.064  1.00 33.38 LIG 0.24  C 
ATOM     49 O    LEU B   5     -26.965 -22.370 -30.207  1.00 25.58 LIG-0.27  OA
ATOM     50  N   THR B   6     -25.602 -20.997 -29.000  1.00 32.99 LIG-0.34  N 
ATOM     51 H    THR B   6     -24.813 -20.685 -28.854  1.00 32.99 LIG 0.16  HD
BRANCH 50 52
ATOM     52  CA  THR B   6     -26.566 -20.630 -27.973  1.00 39.09 LIG 0.19  C 
BRANCH 52 53
ATOM     53  CB  THR B   6     -27.515 -21.819 -27.661  1.00 66.99 LIG 0.14  C 
ATOM     54  CG2 THR B   6     -27.466 -22.181 -26.190  1.00 64.52 LIG 0.04  C 
BRANCH 53 55
ATOM     55 OG1  THR B   6     -28.870 -21.465 -28.002  1.00 68.32 LIG-0.39  OA
ATOM     56 HG1  THR B   6     -28.936 -20.629 -28.058  1.00 68.32 LIG 0.21  HD
ENDBRANCH 53 55
ENDBRANCH 52 53
BRANCH 52 57
ATOM     57  C   THR B   6     -25.805 -20.260 -26.692  1.00 46.48 LIG 0.22  C 
ATOM     58 O    THR B   6     -25.518 -19.079 -26.442  1.00 50.47 LIG-0.29  OA
ENDBRANCH 52 57
ENDBRANCH 50 52
ENDBRANCH 47 48
BRANCH 47 59
ATOM     59  CB  LEU B   5     -25.021 -23.003 -31.999  1.00 41.25 LIG 0.04  C 
BRANCH 59 60
ATOM     60  CG  LEU B   5     -25.204 -22.810 -33.496  1.00 47.99 LIG-0.02  C 
ATOM     61  CD2 LEU B   5     -24.390 -23.819 -34.256  1.00 50.88 LIG 0.01  C 
ATOM     62  CD1 LEU B   5     -24.753 -21.407 -33.845  1.00 54.72 LIG 0.01  C 
ENDBRANCH 59 60
ENDBRANCH 47 59
ENDBRANCH 45 47
ENDBRANCH 42 43
BRANCH 42 63
ATOM     63  CB  LEU B   4     -21.598 -22.042 -27.974  1.00 23.96 LIG 0.04  C 
BRANCH 63 64
ATOM     64  CG  LEU B   4     -22.794 -21.396 -27.312  1.00 38.52 LIG-0.02  C 
ATOM     65  CD1 LEU B   4     -23.007 -21.916 -25.938  1.00 46.71 LIG 0.01  C 
ATOM     66  CD2 LEU B   4     -22.603 -19.871 -27.332  1.00 36.33 LIG 0.01  C 
ENDBRANCH 63 64
ENDBRANCH 42 63
ENDBRANCH 39 42
ENDBRANCH 1 38
TORSDOF 26
ENDMDL
MODEL 83
USER: ADFR SOLUTION from run 32
USER: SCORE 21.714754 LL:  -4.780 LR: -18.448 RR:   0.000 FEB: -10.692
USER: RMSD 2.034230
USER: SEED 31
USER: STATUS searching
USER: GENES 28
USER: genes 0 Translation |==|  0.44443 0.50427 0.35471
USER: genes 1 Rotation |==|  0.51457 0.49410 0.56237 0.99584
USER: genes 2 Torsion [C]-CA--N-[C] |==|  0.78898
USER: genes 3 Torsion [N]-C--CA-[N] |==|  0.36071
USER: genes 4 Torsion [C]-CA--CB-[CG] |==|  0.27681
USER: genes 5 Torsion [CA]-CB--CG-[CD] |==|  0.83163
USER: genes 6 Torsion [CB]-CG--CD-[NE] |==|  0.64985
USER: genes 7 Torsion [CG]-CD--NE-[HE] |==|  0.03495
USER: genes 8 Torsion [C]-CA--N-[C] |==|  0.78229
USER: genes 9 Torsion [N]-C--CA-[N] |==|  0.20702
USER: genes 10 Torsion [C]-CA--N-[H3] |==|  0.54191
USER: genes 11 Torsion [C]-CA--CB-[CG] |==|  0.40036
USER: genes 12 Torsion [CA]-CB--CG-[ND2] |==|  0.51821
USER: genes 13 Torsion [N]-CA--CB-[CG] |==|  0.82614
USER: genes 14 Torsion [CA]-CB--CG-[CD1] |==|  0.55872
USER: genes 15 Torsion [N]-CA--C-[N] |==|  0.38295
USER: genes 16 Torsion [C]-N--CA-[CB] |==|  0.28106
USER: genes 17 Torsion [N]-CA--C-[N] |==|  0.38336
USER: genes 18 Torsion [C]-N--CA-[C] |==|  0.75000
USER: genes 19 Torsion [N]-CA--C-[N] |==|  0.50547
USER: genes 20 Torsion [C]-N--CA-[C] |==|  0.74985
USER: genes 21 Torsion [N]-CA--CB-[CG2] |==|  0.62879
USER: genes 22 Torsion [CA]-CB--OG1-[HG1] |==|  0.86761
USER: genes 23 Torsion [N]-CA--C-[O] |==|  0.99359
USER: genes 24 Torsion [N]-CA--CB-[CG] |==|  0.08972
USER: genes 25 Torsion [CA]-CB--CG-[CD2] |==|  0.73174
USER: genes 26 Torsion [N]-CA--CB-[CG] |==|  0.23426
USER: genes 27 Torsion [CA]-CB--CG-[CD1] |==|  0.38642
ROOT
ATOM      1  CA  LEU B   3     -19.477 -22.765 -31.368  1.00 17.18 LIG 0.18  C 
ENDROOT
BRANCH 1 2
ATOM      2  N   LEU B   3     -20.372 -23.481 -30.538  1.00 21.09 LIG-0.35  N 
ATOM      3  C   ARG B   2     -19.946 -24.452 -29.735  1.00 20.79 LIG 0.24  C 
ATOM      4 O    ARG B   2     -18.741 -24.746 -29.590  1.00 18.81 LIG-0.27  OA
ATOM      5 H    LEU B   3     -21.194 -23.235 -30.603  1.00 21.09 LIG 0.16  HD
BRANCH 3 6
ATOM      6  CA  ARG B   2     -21.040 -25.256 -29.045  1.00 21.42 LIG 0.18  C 
BRANCH 6 7
ATOM      7  CB  ARG B   2     -21.174 -24.926 -27.554  1.00 36.36 LIG 0.04  C 
BRANCH 7 8
ATOM      8  CG  ARG B   2     -22.318 -23.967 -27.284  1.00 41.67 LIG 0.02  C 
BRANCH 8 9
ATOM      9  CD  ARG B   2     -22.159 -22.621 -27.992  1.00 51.14 LIG 0.14  C 
BRANCH 9 10
ATOM     10  NE  ARG B   2     -22.259 -21.491 -27.049  1.00 53.41 LIG-0.23  N 
ATOM     11 HE   ARG B   2     -22.224 -21.674 -26.209  1.00 53.41 LIG 0.18  HD
ATOM     12  CZ  ARG B   2     -22.398 -20.205 -27.391  1.00 50.83 LIG 0.67  C 
ATOM     13  NH1 ARG B   2     -22.460 -19.847 -28.667  1.00 40.00 LIG-0.23  N 
ATOM     14  NH2 ARG B   2     -22.485 -19.270 -26.442  1.00 54.23 LIG-0.23  N 
ATOM     15 1HH1 ARG B   2     -22.412 -20.445 -29.284  1.00 40.00 LIG 0.17  HD
ATOM     16 2HH1 ARG B   2     -22.550 -19.018 -28.878  1.00 40.00 LIG 0.17  HD
ATOM     17 1HH2 ARG B   2     -22.452 -19.495 -25.613  1.00 54.23 LIG 0.17  HD
ATOM     18 2HH2 ARG B   2     -22.574 -18.444 -26.660  1.00 54.23 LIG 0.17  HD
ENDBRANCH 9 10
ENDBRANCH 8 9
ENDBRANCH 7 8
ENDBRANCH 6 7
BRANCH 6 19
ATOM     19  N   ARG B   2     -20.760 -26.659 -29.255  1.00 29.89 LIG-0.35  N 
ATOM     20  C   ASN B   1     -21.048 -27.237 -30.413  1.00 39.87 LIG 0.25  C 
ATOM     21 O    ASN B   1     -21.838 -26.742 -31.228  1.00 37.46 LIG-0.27  OA
ATOM     22 H    ARG B   2     -20.404 -27.063 -28.583  1.00 29.89 LIG 0.16  HD
BRANCH 20 23
ATOM     23  CA  ASN B   1     -20.346 -28.581 -30.681  1.00 47.73 LIG 0.28  C 
BRANCH 23 24
ATOM     24  N   ASN B   1     -20.875 -29.693 -29.930  1.00 51.86 LIG-0.07  N 
ATOM     25 H3   ASN B   1     -20.301 -30.372 -29.962  1.00 51.86 LIG 0.28  HD
ATOM     26 H1   ASN B   1     -20.998 -29.448 -29.083  1.00 51.86 LIG 0.28  HD
ATOM     27 H2   ASN B   1     -21.653 -29.945 -30.281  1.00 51.86 LIG 0.28  HD
ENDBRANCH 23 24
BRANCH 23 28
ATOM     28  CB  ASN B   1     -20.363 -28.966 -32.146  1.00 49.79 LIG 0.14  C 
BRANCH 28 29
ATOM     29  CG  ASN B   1     -19.085 -29.667 -32.544  1.00 59.47 LIG 0.22  C 
ATOM     30  ND2 ASN B   1     -18.924 -29.936 -33.845  1.00 63.81 LIG-0.37  N 
ATOM     31 21HD ASN B   1     -18.223 -30.354 -34.113  1.00 63.81 LIG 0.16  HD
ATOM     32 22HD ASN B   1     -19.522 -29.689 -34.411  1.00 63.81 LIG 0.16  HD
ATOM     33 OD1  ASN B   1     -18.264 -29.996 -31.693  1.00 60.25 LIG-0.27  OA
ENDBRANCH 28 29
ENDBRANCH 23 28
ENDBRANCH 20 23
ENDBRANCH 6 19
ENDBRANCH 3 6
ENDBRANCH 1 2
BRANCH 1 34
ATOM     34  CB  LEU B   3     -20.257 -22.100 -32.537  1.00 28.79 LIG 0.04  C 
BRANCH 34 35
ATOM     35  CG  LEU B   3     -20.924 -23.149 -33.433  1.00 33.15 LIG-0.02  C 
ATOM     36  CD2 LEU B   3     -20.028 -24.378 -33.519  1.00 30.13 LIG 0.01  C 
ATOM     37  CD1 LEU B   3     -21.269 -22.640 -34.864  1.00 27.67 LIG 0.01  C 
ENDBRANCH 34 35
ENDBRANCH 1 34
BRANCH 1 38
ATOM     38  C   LEU B   3     -18.664 -21.755 -30.589  1.00 20.33 LIG 0.24  C 
ATOM     39  N   LEU B   4     -17.376 -21.680 -30.908  1.00 23.83 LIG-0.35  N 
ATOM     40 H    LEU B   4     -16.998 -22.159 -31.513  1.00 23.83 LIG 0.16  HD
ATOM     41 O    LEU B   3     -19.174 -21.048 -29.725  1.00 22.70 LIG-0.27  OA
BRANCH 39 42
ATOM     42  CA  LEU B   4     -16.488 -20.745 -30.226  1.00 22.91 LIG 0.18  C 
BRANCH 42 43
ATOM     43  C   LEU B   4     -15.505 -20.175 -31.253  1.00 30.74 LIG 0.24  C 
ATOM     44 O    LEU B   4     -14.945 -20.921 -32.106  1.00 30.11 LIG-0.27  OA
ATOM     45  N   LEU B   5     -15.245 -18.877 -31.184  1.00 32.41 LIG-0.35  N 
ATOM     46 H    LEU B   5     -15.642 -18.312 -30.671  1.00 32.41 LIG 0.16  HD
BRANCH 45 47
ATOM     47  CA  LEU B   5     -14.191 -18.331 -32.050  1.00 35.50 LIG 0.18  C 
BRANCH 47 48
ATOM     48  C   LEU B   5     -12.841 -18.380 -31.345  1.00 33.38 LIG 0.24  C 
ATOM     49 O    LEU B   5     -12.726 -18.867 -30.198  1.00 25.58 LIG-0.27  OA
ATOM     50  N   THR B   6     -11.834 -17.866 -32.043  1.00 32.99 LIG-0.34  N 
ATOM     51 H    THR B   6     -11.900 -17.665 -32.877  1.00 32.99 LIG 0.16  HD
BRANCH 50 52
ATOM     52  CA  THR B   6     -10.517 -17.585 -31.486  1.00 39.09 LIG 0.19  C 
BRANCH 52 53
ATOM     53  CB  THR B   6      -9.421 -17.710 -32.579  1.00 66.99 LIG 0.14  C 
ATOM     54  CG2 THR B   6      -8.240 -18.515 -32.073  1.00 64.52 LIG 0.04  C 
BRANCH 53 55
ATOM     55 OG1  THR B   6      -9.962 -18.367 -33.741  1.00 68.32 LIG-0.39  OA
ATOM     56 HG1  THR B   6     -10.380 -19.057 -33.505  1.00 68.32 LIG 0.21  HD
ENDBRANCH 53 55
ENDBRANCH 52 53
BRANCH 52 57
ATOM     57  C   THR B   6     -10.508 -16.150 -30.942  1.00 46.48 LIG 0.22  C 
ATOM     58 O    THR B   6     -11.505 -15.420 -31.057  1.00 50.47 LIG-0.29  OA
ENDBRANCH 52 57
ENDBRANCH 50 52
ENDBRANCH 47 48
BRANCH 47 59
ATOM     59  CB  LEU B   5     -14.484 -16.884 -32.428  1.00 41.25 LIG 0.04  C 
BRANCH 59 60
ATOM     60  CG  LEU B   5     -15.219 -16.017 -31.419  1.00 47.99 LIG-0.02  C 
ATOM     61  CD2 LEU B   5     -16.690 -15.987 -31.729  1.00 50.88 LIG 0.01  C 
ATOM     62  CD1 LEU B   5     -14.642 -14.619 -31.494  1.00 54.72 LIG 0.01  C 
ENDBRANCH 59 60
ENDBRANCH 47 59
ENDBRANCH 45 47
ENDBRANCH 42 43
BRANCH 42 63
ATOM     63  CB  LEU B   4     -15.697 -21.529 -29.199  1.00 23.96 LIG 0.04  C 
BRANCH 63 64
ATOM     64  CG  LEU B   4     -14.430 -22.285 -29.529  1.00 38.52 LIG-0.02  C 
ATOM     65  CD1 LEU B   4     -13.404 -22.126 -28.467  1.00 46.71 LIG 0.01  C 
ATOM     66  CD2 LEU B   4     -14.786 -23.760 -29.776  1.00 36.33 LIG 0.01  C 
ENDBRANCH 63 64
ENDBRANCH 42 63
ENDBRANCH 39 42
ENDBRANCH 1 38
TORSDOF 26
ENDMDL
MODEL 84
USER: ADFR SOLUTION from run 12
USER: SCORE 22.457564 LL:  -4.967 LR: -18.453 RR:   0.000 FEB: -10.697
USER: RMSD 11.085242
USER: SEED 784364
USER: STATUS no improvement in best in 11 clusters for 5 generations
USER: GENES 28
USER: genes 0 Translation |==|  0.57694 0.58243 0.44216
USER: genes 1 Rotation |==|  0.76261 0.19067 0.21387 0.55899
USER: genes 2 Torsion [C]-CA--N-[C] |==|  0.84487
USER: genes 3 Torsion [N]-C--CA-[N] |==|  0.96057
USER: genes 4 Torsion [C]-CA--CB-[CG] |==|  0.83892
USER: genes 5 Torsion [CA]-CB--CG-[CD] |==|  0.54399
USER: genes 6 Torsion [CB]-CG--CD-[NE] |==|  0.50301
USER: genes 7 Torsion [CG]-CD--NE-[HE] |==|  0.30687
USER: genes 8 Torsion [C]-CA--N-[C] |==|  0.68711
USER: genes 9 Torsion [N]-C--CA-[N] |==|  0.54931
USER: genes 10 Torsion [C]-CA--N-[H3] |==|  0.32032
USER: genes 11 Torsion [C]-CA--CB-[CG] |==|  0.22496
USER: genes 12 Torsion [CA]-CB--CG-[ND2] |==|  0.50366
USER: genes 13 Torsion [N]-CA--CB-[CG] |==|  0.54989
USER: genes 14 Torsion [CA]-CB--CG-[CD1] |==|  0.11635
USER: genes 15 Torsion [N]-CA--C-[N] |==|  0.36823
USER: genes 16 Torsion [C]-N--CA-[CB] |==|  0.84444
USER: genes 17 Torsion [N]-CA--C-[N] |==|  0.48641
USER: genes 18 Torsion [C]-N--CA-[C] |==|  0.71216
USER: genes 19 Torsion [N]-CA--C-[N] |==|  0.01208
USER: genes 20 Torsion [C]-N--CA-[C] |==|  0.13943
USER: genes 21 Torsion [N]-CA--CB-[CG2] |==|  0.57220
USER: genes 22 Torsion [CA]-CB--OG1-[HG1] |==|  0.45064
USER: genes 23 Torsion [N]-CA--C-[O] |==|  0.67311
USER: genes 24 Torsion [N]-CA--CB-[CG] |==|  0.79324
USER: genes 25 Torsion [CA]-CB--CG-[CD2] |==|  0.25588
USER: genes 26 Torsion [N]-CA--CB-[CG] |==|  0.50922
USER: genes 27 Torsion [CA]-CB--CG-[CD1] |==|  0.21364
ROOT
ATOM      1  CA  LEU B   3     -16.198 -20.831 -29.532  1.00 17.18 LIG 0.18  C 
ENDROOT
BRANCH 1 2
ATOM      2  N   LEU B   3     -16.213 -19.426 -29.703  1.00 21.09 LIG-0.35  N 
ATOM      3  C   ARG B   2     -16.791 -18.864 -30.760  1.00 20.79 LIG 0.24  C 
ATOM      4 O    ARG B   2     -17.424 -19.508 -31.623  1.00 18.81 LIG-0.27  OA
ATOM      5 H    LEU B   3     -15.823 -18.986 -29.076  1.00 21.09 LIG 0.16  HD
BRANCH 3 6
ATOM      6  CA  ARG B   2     -16.567 -17.364 -30.906  1.00 21.42 LIG 0.18  C 
BRANCH 6 7
ATOM      7  CB  ARG B   2     -15.647 -17.009 -32.079  1.00 36.36 LIG 0.04  C 
BRANCH 7 8
ATOM      8  CG  ARG B   2     -14.288 -17.672 -31.957  1.00 41.67 LIG 0.02  C 
BRANCH 8 9
ATOM      9  CD  ARG B   2     -13.230 -17.056 -32.874  1.00 51.14 LIG 0.14  C 
BRANCH 9 10
ATOM     10  NE  ARG B   2     -11.930 -17.740 -32.748  1.00 53.41 LIG-0.23  N 
ATOM     11 HE   ARG B   2     -11.666 -18.210 -33.418  1.00 53.41 LIG 0.18  HD
ATOM     12  CZ  ARG B   2     -11.127 -17.691 -31.679  1.00 50.83 LIG 0.67  C 
ATOM     13  NH1 ARG B   2     -11.470 -16.987 -30.608  1.00 40.00 LIG-0.23  N 
ATOM     14  NH2 ARG B   2      -9.974 -18.362 -31.682  1.00 54.23 LIG-0.23  N 
ATOM     15 1HH1 ARG B   2     -12.215 -16.558 -30.596  1.00 40.00 LIG 0.17  HD
ATOM     16 2HH1 ARG B   2     -10.948 -16.961 -29.925  1.00 40.00 LIG 0.17  HD
ATOM     17 1HH2 ARG B   2      -9.748 -18.826 -32.370  1.00 54.23 LIG 0.17  HD
ATOM     18 2HH2 ARG B   2      -9.457 -18.331 -30.996  1.00 54.23 LIG 0.17  HD
ENDBRANCH 9 10
ENDBRANCH 8 9
ENDBRANCH 7 8
ENDBRANCH 6 7
BRANCH 6 19
ATOM     19  N   ARG B   2     -16.044 -16.869 -29.652  1.00 29.89 LIG-0.35  N 
ATOM     20  C   ASN B   1     -16.766 -16.053 -28.896  1.00 39.87 LIG 0.25  C 
ATOM     21 O    ASN B   1     -17.737 -15.422 -29.335  1.00 37.46 LIG-0.27  OA
ATOM     22 H    ARG B   2     -15.253 -17.145 -29.454  1.00 29.89 LIG 0.16  HD
BRANCH 20 23
ATOM     23  CA  ASN B   1     -16.314 -15.925 -27.430  1.00 47.73 LIG 0.28  C 
BRANCH 23 24
ATOM     24  N   ASN B   1     -17.309 -15.376 -26.543  1.00 51.86 LIG-0.07  N 
ATOM     25 H3   ASN B   1     -17.545 -15.991 -25.944  1.00 51.86 LIG 0.28  HD
ATOM     26 H1   ASN B   1     -16.974 -14.667 -26.122  1.00 51.86 LIG 0.28  HD
ATOM     27 H2   ASN B   1     -18.024 -15.131 -27.014  1.00 51.86 LIG 0.28  HD
ENDBRANCH 23 24
BRANCH 23 28
ATOM     28  CB  ASN B   1     -15.852 -17.244 -26.844  1.00 49.79 LIG 0.14  C 
BRANCH 28 29
ATOM     29  CG  ASN B   1     -14.430 -17.556 -27.247  1.00 59.47 LIG 0.22  C 
ATOM     30  ND2 ASN B   1     -13.919 -18.712 -26.811  1.00 63.81 LIG-0.37  N 
ATOM     31 21HD ASN B   1     -13.106 -18.920 -26.996  1.00 63.81 LIG 0.16  HD
ATOM     32 22HD ASN B   1     -14.405 -19.248 -26.345  1.00 63.81 LIG 0.16  HD
ATOM     33 OD1  ASN B   1     -13.782 -16.755 -27.915  1.00 60.25 LIG-0.27  OA
ENDBRANCH 28 29
ENDBRANCH 23 28
ENDBRANCH 20 23
ENDBRANCH 6 19
ENDBRANCH 3 6
ENDBRANCH 1 2
BRANCH 1 34
ATOM     34  CB  LEU B   3     -15.440 -21.196 -28.224  1.00 28.79 LIG 0.04  C 
BRANCH 34 35
ATOM     35  CG  LEU B   3     -15.014 -22.668 -28.218  1.00 33.15 LIG-0.02  C 
ATOM     36  CD2 LEU B   3     -13.986 -22.887 -27.116  1.00 30.13 LIG 0.01  C 
ATOM     37  CD1 LEU B   3     -14.453 -23.177 -29.579  1.00 27.67 LIG 0.01  C 
ENDBRANCH 34 35
ENDBRANCH 1 34
BRANCH 1 38
ATOM     38  C   LEU B   3     -17.590 -21.422 -29.557  1.00 20.33 LIG 0.24  C 
ATOM     39  N   LEU B   4     -17.751 -22.493 -30.328  1.00 23.83 LIG-0.35  N 
ATOM     40 H    LEU B   4     -17.124 -22.851 -30.795  1.00 23.83 LIG 0.16  HD
ATOM     41 O    LEU B   3     -18.505 -20.941 -28.895  1.00 22.70 LIG-0.27  OA
BRANCH 39 42
ATOM     42  CA  LEU B   4     -19.047 -23.151 -30.436  1.00 22.91 LIG 0.18  C 
BRANCH 42 43
ATOM     43  C   LEU B   4     -20.055 -22.145 -31.002  1.00 30.74 LIG 0.24  C 
ATOM     44 O    LEU B   4     -19.741 -20.934 -31.177  1.00 30.11 LIG-0.27  OA
ATOM     45  N   LEU B   5     -21.274 -22.596 -31.265  1.00 32.41 LIG-0.35  N 
ATOM     46 H    LEU B   5     -21.524 -23.418 -31.228  1.00 32.41 LIG 0.16  HD
BRANCH 45 47
ATOM     47  CA  LEU B   5     -22.304 -21.627 -31.658  1.00 35.50 LIG 0.18  C 
BRANCH 47 48
ATOM     48  C   LEU B   5     -23.254 -21.355 -30.497  1.00 33.38 LIG 0.24  C 
ATOM     49 O    LEU B   5     -24.253 -20.615 -30.637  1.00 25.58 LIG-0.27  OA
ATOM     50  N   THR B   6     -22.922 -21.957 -29.360  1.00 32.99 LIG-0.34  N 
ATOM     51 H    THR B   6     -22.319 -22.568 -29.316  1.00 32.99 LIG 0.16  HD
BRANCH 50 52
ATOM     52  CA  THR B   6     -23.532 -21.656 -28.072  1.00 39.09 LIG 0.19  C 
BRANCH 52 53
ATOM     53  CB  THR B   6     -23.119 -20.240 -27.587  1.00 66.99 LIG 0.14  C 
ATOM     54  CG2 THR B   6     -23.181 -20.145 -26.075  1.00 64.52 LIG 0.04  C 
BRANCH 53 55
ATOM     55 OG1  THR B   6     -21.773 -19.951 -28.011  1.00 68.32 LIG-0.39  OA
ATOM     56 HG1  THR B   6     -21.637 -19.123 -27.968  1.00 68.32 LIG 0.21  HD
ENDBRANCH 53 55
ENDBRANCH 52 53
BRANCH 52 57
ATOM     57  C   THR B   6     -25.059 -21.696 -28.228  1.00 46.48 LIG 0.22  C 
ATOM     58 O    THR B   6     -25.745 -20.681 -28.030  1.00 50.47 LIG-0.29  OA
ENDBRANCH 52 57
ENDBRANCH 50 52
ENDBRANCH 47 48
BRANCH 47 59
ATOM     59  CB  LEU B   5     -23.121 -22.139 -32.838  1.00 41.25 LIG 0.04  C 
BRANCH 59 60
ATOM     60  CG  LEU B   5     -22.474 -22.126 -34.214  1.00 47.99 LIG-0.02  C 
ATOM     61  CD2 LEU B   5     -21.800 -23.442 -34.486  1.00 50.88 LIG 0.01  C 
ATOM     62  CD1 LEU B   5     -21.458 -21.004 -34.243  1.00 54.72 LIG 0.01  C 
ENDBRANCH 59 60
ENDBRANCH 47 59
ENDBRANCH 45 47
ENDBRANCH 42 43
BRANCH 42 63
ATOM     63  CB  LEU B   4     -19.489 -23.526 -29.036  1.00 23.96 LIG 0.04  C 
BRANCH 63 64
ATOM     64  CG  LEU B   4     -20.759 -24.296 -28.745  1.00 38.52 LIG-0.02  C 
ATOM     65  CD1 LEU B   4     -20.602 -25.742 -29.041  1.00 46.71 LIG 0.01  C 
ATOM     66  CD2 LEU B   4     -21.164 -24.042 -27.285  1.00 36.33 LIG 0.01  C 
ENDBRANCH 63 64
ENDBRANCH 42 63
ENDBRANCH 39 42
ENDBRANCH 1 38
TORSDOF 26
ENDMDL
MODEL 85
USER: ADFR SOLUTION from run 14
USER: SCORE 22.402407 LL:  -4.883 LR: -18.447 RR:   0.000 FEB: -10.691
USER: RMSD 3.523877
USER: SEED 123630
USER: STATUS no improvement in best in 1 clusters for 5 generations
USER: GENES 28
USER: genes 0 Translation |==|  0.44294 0.49135 0.41836
USER: genes 1 Rotation |==|  0.54450 0.50589 0.53924 0.99643
USER: genes 2 Torsion [C]-CA--N-[C] |==|  0.67517
USER: genes 3 Torsion [N]-C--CA-[N] |==|  0.51042
USER: genes 4 Torsion [C]-CA--CB-[CG] |==|  0.39327
USER: genes 5 Torsion [CA]-CB--CG-[CD] |==|  0.24591
USER: genes 6 Torsion [CB]-CG--CD-[NE] |==|  0.19979
USER: genes 7 Torsion [CG]-CD--NE-[HE] |==|  0.78198
USER: genes 8 Torsion [C]-CA--N-[C] |==|  0.62563
USER: genes 9 Torsion [N]-C--CA-[N] |==|  0.91021
USER: genes 10 Torsion [C]-CA--N-[H3] |==|  0.34553
USER: genes 11 Torsion [C]-CA--CB-[CG] |==|  0.99816
USER: genes 12 Torsion [CA]-CB--CG-[ND2] |==|  0.73143
USER: genes 13 Torsion [N]-CA--CB-[CG] |==|  0.68402
USER: genes 14 Torsion [CA]-CB--CG-[CD1] |==|  0.14461
USER: genes 15 Torsion [N]-CA--C-[N] |==|  0.34251
USER: genes 16 Torsion [C]-N--CA-[CB] |==|  0.53087
USER: genes 17 Torsion [N]-CA--C-[N] |==|  0.44444
USER: genes 18 Torsion [C]-N--CA-[C] |==|  0.85459
USER: genes 19 Torsion [N]-CA--C-[N] |==|  0.88262
USER: genes 20 Torsion [C]-N--CA-[C] |==|  0.78743
USER: genes 21 Torsion [N]-CA--CB-[CG2] |==|  0.59792
USER: genes 22 Torsion [CA]-CB--OG1-[HG1] |==|  0.67519
USER: genes 23 Torsion [N]-CA--C-[O] |==|  0.78250
USER: genes 24 Torsion [N]-CA--CB-[CG] |==|  0.17914
USER: genes 25 Torsion [CA]-CB--CG-[CD2] |==|  0.67914
USER: genes 26 Torsion [N]-CA--CB-[CG] |==|  0.70827
USER: genes 27 Torsion [CA]-CB--CG-[CD1] |==|  0.91933
ROOT
ATOM      1  CA  LEU B   3     -19.514 -23.085 -30.031  1.00 17.18 LIG 0.18  C 
ENDROOT
BRANCH 1 2
ATOM      2  N   LEU B   3     -20.421 -23.814 -29.226  1.00 21.09 LIG-0.35  N 
ATOM      3  C   ARG B   2     -20.426 -25.144 -29.218  1.00 20.79 LIG 0.24  C 
ATOM      4 O    ARG B   2     -19.597 -25.839 -29.842  1.00 18.81 LIG-0.27  OA
ATOM      5 H    LEU B   3     -20.953 -23.327 -28.756  1.00 21.09 LIG 0.16  HD
BRANCH 3 6
ATOM      6  CA  ARG B   2     -21.574 -25.788 -28.452  1.00 21.42 LIG 0.18  C 
BRANCH 6 7
ATOM      7  CB  ARG B   2     -21.707 -25.259 -27.020  1.00 36.36 LIG 0.04  C 
BRANCH 7 8
ATOM      8  CG  ARG B   2     -23.157 -25.102 -26.603  1.00 41.67 LIG 0.02  C 
BRANCH 8 9
ATOM      9  CD  ARG B   2     -23.748 -26.369 -25.983  1.00 51.14 LIG 0.14  C 
BRANCH 9 10
ATOM     10  NE  ARG B   2     -23.207 -26.625 -24.635  1.00 53.41 LIG-0.23  N 
ATOM     11 HE   ARG B   2     -22.422 -26.972 -24.585  1.00 53.41 LIG 0.18  HD
ATOM     12  CZ  ARG B   2     -23.835 -26.360 -23.483  1.00 50.83 LIG 0.67  C 
ATOM     13  NH1 ARG B   2     -25.049 -25.825 -23.483  1.00 40.00 LIG-0.23  N 
ATOM     14  NH2 ARG B   2     -23.242 -26.645 -22.322  1.00 54.23 LIG-0.23  N 
ATOM     15 1HH1 ARG B   2     -25.440 -25.646 -24.227  1.00 40.00 LIG 0.17  HD
ATOM     16 2HH1 ARG B   2     -25.446 -25.659 -22.738  1.00 40.00 LIG 0.17  HD
ATOM     17 1HH2 ARG B   2     -22.458 -26.998 -22.315  1.00 54.23 LIG 0.17  HD
ATOM     18 2HH2 ARG B   2     -23.644 -26.475 -21.582  1.00 54.23 LIG 0.17  HD
ENDBRANCH 9 10
ENDBRANCH 8 9
ENDBRANCH 7 8
ENDBRANCH 6 7
BRANCH 6 19
ATOM     19  N   ARG B   2     -21.374 -27.220 -28.472  1.00 29.89 LIG-0.35  N 
ATOM     20  C   ASN B   1     -22.384 -28.037 -28.739  1.00 39.87 LIG 0.25  C 
ATOM     21 O    ASN B   1     -23.568 -27.683 -28.659  1.00 37.46 LIG-0.27  OA
ATOM     22 H    ARG B   2     -20.570 -27.477 -28.302  1.00 29.89 LIG 0.16  HD
BRANCH 20 23
ATOM     23  CA  ASN B   1     -21.994 -29.470 -29.146  1.00 47.73 LIG 0.28  C 
BRANCH 23 24
ATOM     24  N   ASN B   1     -20.751 -29.569 -29.871  1.00 51.86 LIG-0.07  N 
ATOM     25 H3   ASN B   1     -20.208 -30.136 -29.452  1.00 51.86 LIG 0.28  HD
ATOM     26 H1   ASN B   1     -20.911 -29.866 -30.695  1.00 51.86 LIG 0.28  HD
ATOM     27 H2   ASN B   1     -20.368 -28.767 -29.913  1.00 51.86 LIG 0.28  HD
ENDBRANCH 23 24
BRANCH 23 28
ATOM     28  CB  ASN B   1     -21.912 -30.411 -27.961  1.00 49.79 LIG 0.14  C 
BRANCH 28 29
ATOM     29  CG  ASN B   1     -22.221 -29.695 -26.668  1.00 59.47 LIG 0.22  C 
ATOM     30  ND2 ASN B   1     -21.176 -29.265 -25.952  1.00 63.81 LIG-0.37  N 
ATOM     31 21HD ASN B   1     -21.304 -28.872 -25.198  1.00 63.81 LIG 0.16  HD
ATOM     32 22HD ASN B   1     -20.377 -29.381 -26.247  1.00 63.81 LIG 0.16  HD
ATOM     33 OD1  ASN B   1     -23.383 -29.555 -26.295  1.00 60.25 LIG-0.27  OA
ENDBRANCH 28 29
ENDBRANCH 23 28
ENDBRANCH 20 23
ENDBRANCH 6 19
ENDBRANCH 3 6
ENDBRANCH 1 2
BRANCH 1 34
ATOM     34  CB  LEU B   3     -20.297 -22.224 -31.062  1.00 28.79 LIG 0.04  C 
BRANCH 34 35
ATOM     35  CG  LEU B   3     -20.046 -22.703 -32.496  1.00 33.15 LIG-0.02  C 
ATOM     36  CD2 LEU B   3     -20.915 -21.898 -33.453  1.00 30.13 LIG 0.01  C 
ATOM     37  CD1 LEU B   3     -20.286 -24.227 -32.712  1.00 27.67 LIG 0.01  C 
ENDBRANCH 34 35
ENDBRANCH 1 34
BRANCH 1 38
ATOM     38  C   LEU B   3     -18.566 -22.245 -29.204  1.00 20.33 LIG 0.24  C 
ATOM     39  N   LEU B   4     -17.271 -22.470 -29.401  1.00 23.83 LIG-0.35  N 
ATOM     40 H    LEU B   4     -16.959 -23.048 -29.956  1.00 23.83 LIG 0.16  HD
ATOM     41 O    LEU B   3     -18.978 -21.405 -28.409  1.00 22.70 LIG-0.27  OA
BRANCH 39 42
ATOM     42  CA  LEU B   4     -16.260 -21.725 -28.661  1.00 22.91 LIG 0.18  C 
BRANCH 42 43
ATOM     43  C   LEU B   4     -16.554 -20.229 -28.814  1.00 30.74 LIG 0.24  C 
ATOM     44 O    LEU B   4     -17.249 -19.794 -29.776  1.00 30.11 LIG-0.27  OA
ATOM     45  N   LEU B   5     -16.020 -19.414 -27.914  1.00 32.41 LIG-0.35  N 
ATOM     46 H    LEU B   5     -15.596 -19.657 -27.207  1.00 32.41 LIG 0.16  HD
BRANCH 45 47
ATOM     47  CA  LEU B   5     -16.151 -17.966 -28.121  1.00 35.50 LIG 0.18  C 
BRANCH 47 48
ATOM     48  C   LEU B   5     -15.670 -17.579 -29.515  1.00 33.38 LIG 0.24  C 
ATOM     49 O    LEU B   5     -16.304 -16.757 -30.213  1.00 25.58 LIG-0.27  OA
ATOM     50  N   THR B   6     -14.553 -18.186 -29.902  1.00 32.99 LIG-0.34  N 
ATOM     51 H    THR B   6     -14.057 -18.636 -29.363  1.00 32.99 LIG 0.16  HD
BRANCH 50 52
ATOM     52  CA  THR B   6     -14.044 -18.160 -31.267  1.00 39.09 LIG 0.19  C 
BRANCH 52 53
ATOM     53  CB  THR B   6     -12.558 -18.608 -31.307  1.00 66.99 LIG 0.14  C 
ATOM     54  CG2 THR B   6     -11.789 -17.841 -32.365  1.00 64.52 LIG 0.04  C 
BRANCH 53 55
ATOM     55 OG1  THR B   6     -11.941 -18.371 -30.027  1.00 68.32 LIG-0.39  OA
ATOM     56 HG1  THR B   6     -11.322 -17.810 -30.114  1.00 68.32 LIG 0.21  HD
ENDBRANCH 53 55
ENDBRANCH 52 53
BRANCH 52 57
ATOM     57  C   THR B   6     -14.874 -19.129 -32.121  1.00 46.48 LIG 0.22  C 
ATOM     58 O    THR B   6     -14.673 -20.352 -32.069  1.00 50.47 LIG-0.29  OA
ENDBRANCH 52 57
ENDBRANCH 50 52
ENDBRANCH 47 48
BRANCH 47 59
ATOM     59  CB  LEU B   5     -15.336 -17.187 -27.097  1.00 41.25 LIG 0.04  C 
BRANCH 59 60
ATOM     60  CG  LEU B   5     -13.823 -17.338 -27.125  1.00 47.99 LIG-0.02  C 
ATOM     61  CD2 LEU B   5     -13.340 -17.984 -25.856  1.00 50.88 LIG 0.01  C 
ATOM     62  CD1 LEU B   5     -13.217 -15.958 -27.271  1.00 54.72 LIG 0.01  C 
ENDBRANCH 59 60
ENDBRANCH 47 59
ENDBRANCH 45 47
ENDBRANCH 42 43
BRANCH 42 63
ATOM     63  CB  LEU B   4     -14.918 -22.010 -29.305  1.00 23.96 LIG 0.04  C 
BRANCH 63 64
ATOM     64  CG  LEU B   4     -13.881 -22.924 -28.690  1.00 38.52 LIG-0.02  C 
ATOM     65  CD1 LEU B   4     -13.974 -22.940 -27.208  1.00 46.71 LIG 0.01  C 
ATOM     66  CD2 LEU B   4     -14.040 -24.327 -29.297  1.00 36.33 LIG 0.01  C 
ENDBRANCH 63 64
ENDBRANCH 42 63
ENDBRANCH 39 42
ENDBRANCH 1 38
TORSDOF 26
ENDMDL
MODEL 86
USER: ADFR SOLUTION from run 83
USER: SCORE 21.854658 LL:  -5.025 LR: -18.435 RR:   0.000 FEB: -10.679
USER: RMSD 5.581650
USER: SEED 82
USER: STATUS searching
USER: GENES 28
USER: genes 0 Translation |==|  0.55557 0.53494 0.44402
USER: genes 1 Rotation |==|  0.16908 0.24721 0.67907 0.71100
USER: genes 2 Torsion [C]-CA--N-[C] |==|  0.81484
USER: genes 3 Torsion [N]-C--CA-[N] |==|  0.53019
USER: genes 4 Torsion [C]-CA--CB-[CG] |==|  0.33740
USER: genes 5 Torsion [CA]-CB--CG-[CD] |==|  0.19278
USER: genes 6 Torsion [CB]-CG--CD-[NE] |==|  0.53134
USER: genes 7 Torsion [CG]-CD--NE-[HE] |==|  0.84202
USER: genes 8 Torsion [C]-CA--N-[C] |==|  0.73097
USER: genes 9 Torsion [N]-C--CA-[N] |==|  0.72085
USER: genes 10 Torsion [C]-CA--N-[H3] |==|  0.33704
USER: genes 11 Torsion [C]-CA--CB-[CG] |==|  0.32311
USER: genes 12 Torsion [CA]-CB--CG-[ND2] |==|  0.69493
USER: genes 13 Torsion [N]-CA--CB-[CG] |==|  0.71492
USER: genes 14 Torsion [CA]-CB--CG-[CD1] |==|  0.72226
USER: genes 15 Torsion [N]-CA--C-[N] |==|  0.33959
USER: genes 16 Torsion [C]-N--CA-[CB] |==|  0.48333
USER: genes 17 Torsion [N]-CA--C-[N] |==|  0.53561
USER: genes 18 Torsion [C]-N--CA-[C] |==|  0.81721
USER: genes 19 Torsion [N]-CA--C-[N] |==|  0.91642
USER: genes 20 Torsion [C]-N--CA-[C] |==|  0.73155
USER: genes 21 Torsion [N]-CA--CB-[CG2] |==|  0.76820
USER: genes 22 Torsion [CA]-CB--OG1-[HG1] |==|  0.74708
USER: genes 23 Torsion [N]-CA--C-[O] |==|  0.13389
USER: genes 24 Torsion [N]-CA--CB-[CG] |==|  0.73294
USER: genes 25 Torsion [CA]-CB--CG-[CD2] |==|  0.78118
USER: genes 26 Torsion [N]-CA--CB-[CG] |==|  0.97566
USER: genes 27 Torsion [CA]-CB--CG-[CD1] |==|  0.19769
ROOT
ATOM      1  CA  LEU B   3     -16.727 -22.006 -29.493  1.00 17.18 LIG 0.18  C 
ENDROOT
BRANCH 1 2
ATOM      2  N   LEU B   3     -17.917 -22.765 -29.396  1.00 21.09 LIG-0.35  N 
ATOM      3  C   ARG B   2     -19.056 -22.216 -28.984  1.00 20.79 LIG 0.24  C 
ATOM      4 O    ARG B   2     -19.184 -20.999 -28.735  1.00 18.81 LIG-0.27  OA
ATOM      5 H    LEU B   3     -17.834 -23.590 -29.623  1.00 21.09 LIG 0.16  HD
BRANCH 3 6
ATOM      6  CA  ARG B   2     -20.204 -23.191 -28.752  1.00 21.42 LIG 0.18  C 
BRANCH 6 7
ATOM      7  CB  ARG B   2     -20.359 -24.211 -29.885  1.00 36.36 LIG 0.04  C 
BRANCH 7 8
ATOM      8  CG  ARG B   2     -20.237 -25.639 -29.386  1.00 41.67 LIG 0.02  C 
BRANCH 8 9
ATOM      9  CD  ARG B   2     -21.416 -26.078 -28.516  1.00 51.14 LIG 0.14  C 
BRANCH 9 10
ATOM     10  NE  ARG B   2     -21.148 -27.357 -27.835  1.00 53.41 LIG-0.23  N 
ATOM     11 HE   ARG B   2     -20.947 -28.033 -28.328  1.00 53.41 LIG 0.18  HD
ATOM     12  CZ  ARG B   2     -21.189 -27.556 -26.512  1.00 50.83 LIG 0.67  C 
ATOM     13  NH1 ARG B   2     -21.494 -26.561 -25.688  1.00 40.00 LIG-0.23  N 
ATOM     14  NH2 ARG B   2     -20.934 -28.767 -26.013  1.00 54.23 LIG-0.23  N 
ATOM     15 1HH1 ARG B   2     -21.667 -25.780 -26.003  1.00 40.00 LIG 0.17  HD
ATOM     16 2HH1 ARG B   2     -21.519 -26.698 -24.839  1.00 40.00 LIG 0.17  HD
ATOM     17 1HH2 ARG B   2     -20.743 -29.418 -26.541  1.00 54.23 LIG 0.17  HD
ATOM     18 2HH2 ARG B   2     -20.960 -28.896 -25.164  1.00 54.23 LIG 0.17  HD
ENDBRANCH 9 10
ENDBRANCH 8 9
ENDBRANCH 7 8
ENDBRANCH 6 7
BRANCH 6 19
ATOM     19  N   ARG B   2     -21.412 -22.418 -28.565  1.00 29.89 LIG-0.35  N 
ATOM     20  C   ASN B   1     -21.849 -22.139 -27.344  1.00 39.87 LIG 0.25  C 
ATOM     21 O    ASN B   1     -21.475 -22.762 -26.342  1.00 37.46 LIG-0.27  OA
ATOM     22 H    ARG B   2     -21.801 -22.170 -29.291  1.00 29.89 LIG 0.16  HD
BRANCH 20 23
ATOM     23  CA  ASN B   1     -22.870 -20.990 -27.248  1.00 47.73 LIG 0.28  C 
BRANCH 23 24
ATOM     24  N   ASN B   1     -22.314 -19.730 -26.821  1.00 51.86 LIG-0.07  N 
ATOM     25 H3   ASN B   1     -22.463 -19.113 -27.445  1.00 51.86 LIG 0.28  HD
ATOM     26 H1   ASN B   1     -22.698 -19.479 -26.058  1.00 51.86 LIG 0.28  HD
ATOM     27 H2   ASN B   1     -21.437 -19.819 -26.697  1.00 51.86 LIG 0.28  HD
ENDBRANCH 23 24
BRANCH 23 28
ATOM     28  CB  ASN B   1     -23.605 -20.751 -28.551  1.00 49.79 LIG 0.14  C 
BRANCH 28 29
ATOM     29  CG  ASN B   1     -25.084 -21.022 -28.404  1.00 59.47 LIG 0.22  C 
ATOM     30  ND2 ASN B   1     -25.564 -22.105 -29.026  1.00 63.81 LIG-0.37  N 
ATOM     31 21HD ASN B   1     -26.403 -22.286 -28.989  1.00 63.81 LIG 0.16  HD
ATOM     32 22HD ASN B   1     -25.031 -22.621 -29.462  1.00 63.81 LIG 0.16  HD
ATOM     33 OD1  ASN B   1     -25.799 -20.252 -27.768  1.00 60.25 LIG-0.27  OA
ENDBRANCH 28 29
ENDBRANCH 23 28
ENDBRANCH 20 23
ENDBRANCH 6 19
ENDBRANCH 3 6
ENDBRANCH 1 2
BRANCH 1 34
ATOM     34  CB  LEU B   3     -15.513 -22.952 -29.712  1.00 28.79 LIG 0.04  C 
BRANCH 34 35
ATOM     35  CG  LEU B   3     -14.712 -23.144 -28.420  1.00 33.15 LIG-0.02  C 
ATOM     36  CD2 LEU B   3     -15.614 -22.863 -27.225  1.00 30.13 LIG 0.01  C 
ATOM     37  CD1 LEU B   3     -13.424 -22.272 -28.332  1.00 27.67 LIG 0.01  C 
ENDBRANCH 34 35
ENDBRANCH 1 34
BRANCH 1 38
ATOM     38  C   LEU B   3     -16.813 -20.946 -30.568  1.00 20.33 LIG 0.24  C 
ATOM     39  N   LEU B   4     -16.616 -19.695 -30.165  1.00 23.83 LIG-0.35  N 
ATOM     40 H    LEU B   4     -16.448 -19.469 -29.353  1.00 23.83 LIG 0.16  HD
ATOM     41 O    LEU B   3     -17.043 -21.235 -31.739  1.00 22.70 LIG-0.27  OA
BRANCH 39 42
ATOM     42  CA  LEU B   4     -16.675 -18.585 -31.109  1.00 22.91 LIG 0.18  C 
BRANCH 42 43
ATOM     43  C   LEU B   4     -15.465 -18.680 -32.044  1.00 30.74 LIG 0.24  C 
ATOM     44 O    LEU B   4     -14.736 -19.712 -32.067  1.00 30.11 LIG-0.27  OA
ATOM     45  N   LEU B   5     -15.202 -17.621 -32.798  1.00 32.41 LIG-0.35  N 
ATOM     46 H    LEU B   5     -15.696 -16.922 -32.872  1.00 32.41 LIG 0.16  HD
BRANCH 45 47
ATOM     47  CA  LEU B   5     -13.962 -17.620 -33.587  1.00 35.50 LIG 0.18  C 
BRANCH 47 48
ATOM     48  C   LEU B   5     -12.745 -17.598 -32.670  1.00 33.38 LIG 0.24  C 
ATOM     49 O    LEU B   5     -11.668 -18.133 -33.011  1.00 25.58 LIG-0.27  OA
ATOM     50  N   THR B   6     -12.938 -16.979 -31.509  1.00 32.99 LIG-0.34  N 
ATOM     51 H    THR B   6     -13.633 -16.498 -31.349  1.00 32.99 LIG 0.16  HD
BRANCH 50 52
ATOM     52  CA  THR B   6     -12.010 -17.042 -30.389  1.00 39.09 LIG 0.19  C 
BRANCH 52 53
ATOM     53  CB  THR B   6     -11.964 -15.684 -29.637  1.00 66.99 LIG 0.14  C 
ATOM     54  CG2 THR B   6     -11.013 -14.719 -30.318  1.00 64.52 LIG 0.04  C 
BRANCH 53 55
ATOM     55 OG1  THR B   6     -13.278 -15.094 -29.612  1.00 68.32 LIG-0.39  OA
ATOM     56 HG1  THR B   6     -13.375 -14.596 -30.281  1.00 68.32 LIG 0.21  HD
ENDBRANCH 53 55
ENDBRANCH 52 53
BRANCH 52 57
ATOM     57  C   THR B   6     -12.486 -18.128 -29.414  1.00 46.48 LIG 0.22  C 
ATOM     58 O    THR B   6     -12.803 -19.255 -29.824  1.00 50.47 LIG-0.29  OA
ENDBRANCH 52 57
ENDBRANCH 50 52
ENDBRANCH 47 48
BRANCH 47 59
ATOM     59  CB  LEU B   5     -13.895 -16.407 -34.505  1.00 41.25 LIG 0.04  C 
BRANCH 59 60
ATOM     60  CG  LEU B   5     -14.347 -16.577 -35.947  1.00 47.99 LIG-0.02  C 
ATOM     61  CD2 LEU B   5     -13.272 -17.245 -36.756  1.00 50.88 LIG 0.01  C 
ATOM     62  CD1 LEU B   5     -14.645 -15.202 -36.510  1.00 54.72 LIG 0.01  C 
ENDBRANCH 59 60
ENDBRANCH 47 59
ENDBRANCH 45 47
ENDBRANCH 42 43
BRANCH 42 63
ATOM     63  CB  LEU B   4     -16.558 -17.300 -30.314  1.00 23.96 LIG 0.04  C 
BRANCH 63 64
ATOM     64  CG  LEU B   4     -16.602 -17.253 -28.803  1.00 38.52 LIG-0.02  C 
ATOM     65  CD1 LEU B   4     -15.369 -17.823 -28.201  1.00 46.71 LIG 0.01  C 
ATOM     66  CD2 LEU B   4     -16.845 -15.801 -28.362  1.00 36.33 LIG 0.01  C 
ENDBRANCH 63 64
ENDBRANCH 42 63
ENDBRANCH 39 42
ENDBRANCH 1 38
TORSDOF 26
ENDMDL
MODEL 87
USER: ADFR SOLUTION from run 146
USER: SCORE 22.103774 LL:  -5.213 LR: -18.433 RR:   0.000 FEB: -10.677
USER: RMSD 6.858622
USER: SEED 145
USER: STATUS no improvement in best in 3 clusters for 5 generations
USER: GENES 28
USER: genes 0 Translation |==|  0.52627 0.53137 0.43131
USER: genes 1 Rotation |==|  0.08353 0.26240 0.58439 0.61393
USER: genes 2 Torsion [C]-CA--N-[C] |==|  0.68775
USER: genes 3 Torsion [N]-C--CA-[N] |==|  0.41279
USER: genes 4 Torsion [C]-CA--CB-[CG] |==|  0.31588
USER: genes 5 Torsion [CA]-CB--CG-[CD] |==|  0.54285
USER: genes 6 Torsion [CB]-CG--CD-[NE] |==|  0.68007
USER: genes 7 Torsion [CG]-CD--NE-[HE] |==|  0.18717
USER: genes 8 Torsion [C]-CA--N-[C] |==|  0.82020
USER: genes 9 Torsion [N]-C--CA-[N] |==|  0.65918
USER: genes 10 Torsion [C]-CA--N-[H3] |==|  0.91318
USER: genes 11 Torsion [C]-CA--CB-[CG] |==|  0.73000
USER: genes 12 Torsion [CA]-CB--CG-[ND2] |==|  0.17504
USER: genes 13 Torsion [N]-CA--CB-[CG] |==|  0.59711
USER: genes 14 Torsion [CA]-CB--CG-[CD1] |==|  0.68871
USER: genes 15 Torsion [N]-CA--C-[N] |==|  0.48534
USER: genes 16 Torsion [C]-N--CA-[CB] |==|  0.17914
USER: genes 17 Torsion [N]-CA--C-[N] |==|  0.62935
USER: genes 18 Torsion [C]-N--CA-[C] |==|  0.77222
USER: genes 19 Torsion [N]-CA--C-[N] |==|  0.08706
USER: genes 20 Torsion [C]-N--CA-[C] |==|  0.19953
USER: genes 21 Torsion [N]-CA--CB-[CG2] |==|  0.30923
USER: genes 22 Torsion [CA]-CB--OG1-[HG1] |==|  0.95562
USER: genes 23 Torsion [N]-CA--C-[O] |==|  0.25786
USER: genes 24 Torsion [N]-CA--CB-[CG] |==|  0.82818
USER: genes 25 Torsion [CA]-CB--CG-[CD2] |==|  0.91127
USER: genes 26 Torsion [N]-CA--CB-[CG] |==|  0.06112
USER: genes 27 Torsion [CA]-CB--CG-[CD1] |==|  0.13867
ROOT
ATOM      1  CA  LEU B   3     -17.452 -22.095 -29.760  1.00 17.18 LIG 0.18  C 
ENDROOT
BRANCH 1 2
ATOM      2  N   LEU B   3     -18.697 -22.596 -30.208  1.00 21.09 LIG-0.35  N 
ATOM      3  C   ARG B   2     -19.845 -22.094 -29.763  1.00 20.79 LIG 0.24  C 
ATOM      4 O    ARG B   2     -19.917 -21.111 -28.998  1.00 18.81 LIG-0.27  OA
ATOM      5 H    LEU B   3     -18.639 -23.237 -30.778  1.00 21.09 LIG 0.16  HD
BRANCH 3 6
ATOM      6  CA  ARG B   2     -21.096 -22.853 -30.188  1.00 21.42 LIG 0.18  C 
BRANCH 6 7
ATOM      7  CB  ARG B   2     -21.650 -22.384 -31.537  1.00 36.36 LIG 0.04  C 
BRANCH 7 8
ATOM      8  CG  ARG B   2     -21.541 -23.459 -32.602  1.00 41.67 LIG 0.02  C 
BRANCH 8 9
ATOM      9  CD  ARG B   2     -21.727 -22.923 -34.023  1.00 51.14 LIG 0.14  C 
BRANCH 9 10
ATOM     10  NE  ARG B   2     -22.937 -23.473 -34.662  1.00 53.41 LIG-0.23  N 
ATOM     11 HE   ARG B   2     -23.697 -23.236 -34.337  1.00 53.41 LIG 0.18  HD
ATOM     12  CZ  ARG B   2     -22.951 -24.311 -35.706  1.00 50.83 LIG 0.67  C 
ATOM     13  NH1 ARG B   2     -21.817 -24.722 -36.257  1.00 40.00 LIG-0.23  N 
ATOM     14  NH2 ARG B   2     -24.114 -24.748 -36.192  1.00 54.23 LIG-0.23  N 
ATOM     15 1HH1 ARG B   2     -21.063 -24.451 -35.945  1.00 40.00 LIG 0.17  HD
ATOM     16 2HH1 ARG B   2     -21.835 -25.261 -36.928  1.00 40.00 LIG 0.17  HD
ATOM     17 1HH2 ARG B   2     -24.853 -24.491 -35.835  1.00 54.23 LIG 0.17  HD
ATOM     18 2HH2 ARG B   2     -24.125 -25.286 -36.862  1.00 54.23 LIG 0.17  HD
ENDBRANCH 9 10
ENDBRANCH 8 9
ENDBRANCH 7 8
ENDBRANCH 6 7
BRANCH 6 19
ATOM     19  N   ARG B   2     -22.078 -22.715 -29.134  1.00 29.89 LIG-0.35  N 
ATOM     20  C   ASN B   1     -21.856 -23.236 -27.935  1.00 39.87 LIG 0.25  C 
ATOM     21 O    ASN B   1     -21.005 -24.113 -27.735  1.00 37.46 LIG-0.27  OA
ATOM     22 H    ARG B   2     -22.788 -22.282 -29.354  1.00 29.89 LIG 0.16  HD
BRANCH 20 23
ATOM     23  CA  ASN B   1     -22.736 -22.689 -26.796  1.00 47.73 LIG 0.28  C 
BRANCH 23 24
ATOM     24  N   ASN B   1     -22.002 -22.121 -25.693  1.00 51.86 LIG-0.07  N 
ATOM     25 H3   ASN B   1     -21.225 -22.544 -25.604  1.00 51.86 LIG 0.28  HD
ATOM     26 H1   ASN B   1     -21.854 -21.257 -25.848  1.00 51.86 LIG 0.28  HD
ATOM     27 H2   ASN B   1     -22.476 -22.210 -24.944  1.00 51.86 LIG 0.28  HD
ENDBRANCH 23 24
BRANCH 23 28
ATOM     28  CB  ASN B   1     -23.729 -21.649 -27.274  1.00 49.79 LIG 0.14  C 
BRANCH 28 29
ATOM     29  CG  ASN B   1     -23.212 -20.249 -27.040  1.00 59.47 LIG 0.22  C 
ATOM     30  ND2 ASN B   1     -22.097 -19.901 -27.692  1.00 63.81 LIG-0.37  N 
ATOM     31 21HD ASN B   1     -21.755 -19.122 -27.572  1.00 63.81 LIG 0.16  HD
ATOM     32 22HD ASN B   1     -21.725 -20.456 -28.233  1.00 63.81 LIG 0.16  HD
ATOM     33 OD1  ASN B   1     -23.785 -19.496 -26.258  1.00 60.25 LIG-0.27  OA
ENDBRANCH 28 29
ENDBRANCH 23 28
ENDBRANCH 20 23
ENDBRANCH 6 19
ENDBRANCH 3 6
ENDBRANCH 1 2
BRANCH 1 34
ATOM     34  CB  LEU B   3     -16.613 -23.244 -29.134  1.00 28.79 LIG 0.04  C 
BRANCH 34 35
ATOM     35  CG  LEU B   3     -15.773 -22.746 -27.954  1.00 33.15 LIG-0.02  C 
ATOM     36  CD2 LEU B   3     -16.229 -21.344 -27.571  1.00 30.13 LIG 0.01  C 
ATOM     37  CD1 LEU B   3     -14.237 -22.754 -28.214  1.00 27.67 LIG 0.01  C 
ENDBRANCH 34 35
ENDBRANCH 1 34
BRANCH 1 38
ATOM     38  C   LEU B   3     -16.696 -21.383 -30.860  1.00 20.33 LIG 0.24  C 
ATOM     39  N   LEU B   4     -15.565 -20.788 -30.494  1.00 23.83 LIG-0.35  N 
ATOM     40 H    LEU B   4     -15.255 -20.788 -29.692  1.00 23.83 LIG 0.16  HD
ATOM     41 O    LEU B   3     -17.105 -21.370 -32.017  1.00 22.70 LIG-0.27  OA
BRANCH 39 42
ATOM     42  CA  LEU B   4     -14.748 -20.068 -31.464  1.00 22.91 LIG 0.18  C 
BRANCH 42 43
ATOM     43  C   LEU B   4     -13.508 -19.527 -30.746  1.00 30.74 LIG 0.24  C 
ATOM     44 O    LEU B   4     -12.848 -20.249 -29.945  1.00 30.11 LIG-0.27  OA
ATOM     45  N   LEU B   5     -13.180 -18.263 -30.976  1.00 32.41 LIG-0.35  N 
ATOM     46 H    LEU B   5     -13.550 -17.747 -31.556  1.00 32.41 LIG 0.16  HD
BRANCH 45 47
ATOM     47  CA  LEU B   5     -12.094 -17.670 -30.186  1.00 35.50 LIG 0.18  C 
BRANCH 47 48
ATOM     48  C   LEU B   5     -12.611 -17.206 -28.829  1.00 33.38 LIG 0.24  C 
ATOM     49 O    LEU B   5     -12.105 -16.222 -28.246  1.00 25.58 LIG-0.27  OA
ATOM     50  N   THR B   6     -13.614 -17.930 -28.343  1.00 32.99 LIG-0.34  N 
ATOM     51 H    THR B   6     -14.041 -18.509 -28.814  1.00 32.99 LIG 0.16  HD
BRANCH 50 52
ATOM     52  CA  THR B   6     -14.103 -17.827 -26.975  1.00 39.09 LIG 0.19  C 
BRANCH 52 53
ATOM     53  CB  THR B   6     -12.922 -17.855 -25.967  1.00 66.99 LIG 0.14  C 
ATOM     54  CG2 THR B   6     -12.754 -16.508 -25.291  1.00 64.52 LIG 0.04  C 
BRANCH 53 55
ATOM     55 OG1  THR B   6     -13.166 -18.850 -24.954  1.00 68.32 LIG-0.39  OA
ATOM     56 HG1  THR B   6     -13.977 -19.070 -24.967  1.00 68.32 LIG 0.21  HD
ENDBRANCH 53 55
ENDBRANCH 52 53
BRANCH 52 57
ATOM     57  C   THR B   6     -14.853 -16.497 -26.817  1.00 46.48 LIG 0.22  C 
ATOM     58 O    THR B   6     -16.080 -16.435 -26.989  1.00 50.47 LIG-0.29  OA
ENDBRANCH 52 57
ENDBRANCH 50 52
ENDBRANCH 47 48
BRANCH 47 59
ATOM     59  CB  LEU B   5     -11.481 -16.473 -30.902  1.00 41.25 LIG 0.04  C 
BRANCH 59 60
ATOM     60  CG  LEU B   5     -10.820 -16.710 -32.251  1.00 47.99 LIG-0.02  C 
ATOM     61  CD2 LEU B   5     -10.211 -18.083 -32.300  1.00 50.88 LIG 0.01  C 
ATOM     62  CD1 LEU B   5      -9.748 -15.657 -32.438  1.00 54.72 LIG 0.01  C 
ENDBRANCH 59 60
ENDBRANCH 47 59
ENDBRANCH 45 47
ENDBRANCH 42 43
BRANCH 42 63
ATOM     63  CB  LEU B   4     -15.559 -18.888 -31.960  1.00 23.96 LIG 0.04  C 
BRANCH 63 64
ATOM     64  CG  LEU B   4     -16.713 -18.291 -31.187  1.00 38.52 LIG-0.02  C 
ATOM     65  CD1 LEU B   4     -16.342 -18.011 -29.776  1.00 46.71 LIG 0.01  C 
ATOM     66  CD2 LEU B   4     -17.198 -17.030 -31.920  1.00 36.33 LIG 0.01  C 
ENDBRANCH 63 64
ENDBRANCH 42 63
ENDBRANCH 39 42
ENDBRANCH 1 38
TORSDOF 26
ENDMDL
MODEL 88
USER: ADFR SOLUTION from run 51
USER: SCORE 21.882287 LL:  -4.547 LR: -18.432 RR:   0.000 FEB: -10.676
USER: RMSD 11.365829
USER: SEED 50
USER: STATUS no improvement in best in 30 clusters for 5 generations
USER: GENES 28
USER: genes 0 Translation |==|  0.55104 0.55615 0.45330
USER: genes 1 Rotation |==|  0.24132 0.79817 0.80650 0.51526
USER: genes 2 Torsion [C]-CA--N-[C] |==|  0.83707
USER: genes 3 Torsion [N]-C--CA-[N] |==|  0.08034
USER: genes 4 Torsion [C]-CA--CB-[CG] |==|  0.23009
USER: genes 5 Torsion [CA]-CB--CG-[CD] |==|  0.47692
USER: genes 6 Torsion [CB]-CG--CD-[NE] |==|  0.42594
USER: genes 7 Torsion [CG]-CD--NE-[HE] |==|  0.11183
USER: genes 8 Torsion [C]-CA--N-[C] |==|  0.69965
USER: genes 9 Torsion [N]-C--CA-[N] |==|  0.84970
USER: genes 10 Torsion [C]-CA--N-[H3] |==|  0.20121
USER: genes 11 Torsion [C]-CA--CB-[CG] |==|  0.84232
USER: genes 12 Torsion [CA]-CB--CG-[ND2] |==|  0.35205
USER: genes 13 Torsion [N]-CA--CB-[CG] |==|  0.70462
USER: genes 14 Torsion [CA]-CB--CG-[CD1] |==|  0.99307
USER: genes 15 Torsion [N]-CA--C-[N] |==|  0.39060
USER: genes 16 Torsion [C]-N--CA-[CB] |==|  0.50232
USER: genes 17 Torsion [N]-CA--C-[N] |==|  0.51509
USER: genes 18 Torsion [C]-N--CA-[C] |==|  0.18114
USER: genes 19 Torsion [N]-CA--C-[N] |==|  0.11111
USER: genes 20 Torsion [C]-N--CA-[C] |==|  0.62736
USER: genes 21 Torsion [N]-CA--CB-[CG2] |==|  0.09642
USER: genes 22 Torsion [CA]-CB--OG1-[HG1] |==|  0.58506
USER: genes 23 Torsion [N]-CA--C-[O] |==|  0.51299
USER: genes 24 Torsion [N]-CA--CB-[CG] |==|  0.77906
USER: genes 25 Torsion [CA]-CB--CG-[CD2] |==|  0.22135
USER: genes 26 Torsion [N]-CA--CB-[CG] |==|  0.66222
USER: genes 27 Torsion [CA]-CB--CG-[CD1] |==|  0.69236
ROOT
ATOM      1  CA  LEU B   3     -16.839 -21.481 -29.298  1.00 17.18 LIG 0.18  C 
ENDROOT
BRANCH 1 2
ATOM      2  N   LEU B   3     -16.619 -20.093 -29.131  1.00 21.09 LIG-0.35  N 
ATOM      3  C   ARG B   2     -16.898 -19.227 -30.100  1.00 20.79 LIG 0.24  C 
ATOM      4 O    ARG B   2     -17.439 -19.550 -31.178  1.00 18.81 LIG-0.27  OA
ATOM      5 H    LEU B   3     -16.298 -19.872 -28.364  1.00 21.09 LIG 0.16  HD
BRANCH 3 6
ATOM      6  CA  ARG B   2     -16.437 -17.797 -29.849  1.00 21.42 LIG 0.18  C 
BRANCH 6 7
ATOM      7  CB  ARG B   2     -16.158 -17.023 -31.142  1.00 36.36 LIG 0.04  C 
BRANCH 7 8
ATOM      8  CG  ARG B   2     -17.425 -16.445 -31.745  1.00 41.67 LIG 0.02  C 
BRANCH 8 9
ATOM      9  CD  ARG B   2     -17.160 -15.502 -32.920  1.00 51.14 LIG 0.14  C 
BRANCH 9 10
ATOM     10  NE  ARG B   2     -18.301 -15.457 -33.853  1.00 53.41 LIG-0.23  N 
ATOM     11 HE   ARG B   2     -19.090 -15.450 -33.511  1.00 53.41 LIG 0.18  HD
ATOM     12  CZ  ARG B   2     -18.211 -15.424 -35.188  1.00 50.83 LIG 0.67  C 
ATOM     13  NH1 ARG B   2     -17.026 -15.434 -35.786  1.00 40.00 LIG-0.23  N 
ATOM     14  NH2 ARG B   2     -19.320 -15.392 -35.929  1.00 54.23 LIG-0.23  N 
ATOM     15 1HH1 ARG B   2     -16.307 -15.462 -35.315  1.00 40.00 LIG 0.17  HD
ATOM     16 2HH1 ARG B   2     -16.977 -15.413 -36.644  1.00 40.00 LIG 0.17  HD
ATOM     17 1HH2 ARG B   2     -20.091 -15.393 -35.549  1.00 54.23 LIG 0.17  HD
ATOM     18 2HH2 ARG B   2     -19.263 -15.371 -36.786  1.00 54.23 LIG 0.17  HD
ENDBRANCH 9 10
ENDBRANCH 8 9
ENDBRANCH 7 8
ENDBRANCH 6 7
BRANCH 6 19
ATOM     19  N   ARG B   2     -15.267 -17.849 -28.999  1.00 29.89 LIG-0.35  N 
ATOM     20  C   ASN B   1     -15.340 -17.468 -27.731  1.00 39.87 LIG 0.25  C 
ATOM     21 O    ASN B   1     -16.261 -16.765 -27.297  1.00 37.46 LIG-0.27  OA
ATOM     22 H    ARG B   2     -14.553 -18.139 -29.382  1.00 29.89 LIG 0.16  HD
BRANCH 20 23
ATOM     23  CA  ASN B   1     -14.191 -17.946 -26.824  1.00 47.73 LIG 0.28  C 
BRANCH 23 24
ATOM     24  N   ASN B   1     -13.972 -19.372 -26.837  1.00 51.86 LIG-0.07  N 
ATOM     25 H3   ASN B   1     -13.603 -19.608 -27.612  1.00 51.86 LIG 0.28  HD
ATOM     26 H1   ASN B   1     -13.428 -19.595 -26.169  1.00 51.86 LIG 0.28  HD
ATOM     27 H2   ASN B   1     -14.750 -19.792 -26.739  1.00 51.86 LIG 0.28  HD
ENDBRANCH 23 24
BRANCH 23 28
ATOM     28  CB  ASN B   1     -12.872 -17.275 -27.149  1.00 49.79 LIG 0.14  C 
BRANCH 28 29
ATOM     29  CG  ASN B   1     -12.489 -17.488 -28.595  1.00 59.47 LIG 0.22  C 
ATOM     30  ND2 ASN B   1     -12.206 -16.394 -29.311  1.00 63.81 LIG-0.37  N 
ATOM     31 21HD ASN B   1     -12.006 -16.466 -30.144  1.00 63.81 LIG 0.16  HD
ATOM     32 22HD ASN B   1     -12.224 -15.619 -28.938  1.00 63.81 LIG 0.16  HD
ATOM     33 OD1  ASN B   1     -12.478 -18.617 -29.077  1.00 60.25 LIG-0.27  OA
ENDBRANCH 28 29
ENDBRANCH 23 28
ENDBRANCH 20 23
ENDBRANCH 6 19
ENDBRANCH 3 6
ENDBRANCH 1 2
BRANCH 1 34
ATOM     34  CB  LEU B   3     -16.341 -22.250 -28.042  1.00 28.79 LIG 0.04  C 
BRANCH 34 35
ATOM     35  CG  LEU B   3     -15.036 -23.001 -28.327  1.00 33.15 LIG-0.02  C 
ATOM     36  CD2 LEU B   3     -13.956 -22.510 -27.372  1.00 30.13 LIG 0.01  C 
ATOM     37  CD1 LEU B   3     -14.539 -22.882 -29.799  1.00 27.67 LIG 0.01  C 
ENDBRANCH 34 35
ENDBRANCH 1 34
BRANCH 1 38
ATOM     38  C   LEU B   3     -18.285 -21.795 -29.610  1.00 20.33 LIG 0.24  C 
ATOM     39  N   LEU B   4     -18.489 -22.750 -30.512  1.00 23.83 LIG-0.35  N 
ATOM     40 H    LEU B   4     -17.861 -23.181 -30.911  1.00 23.83 LIG 0.16  HD
ATOM     41 O    LEU B   3     -19.207 -21.205 -29.053  1.00 22.70 LIG-0.27  OA
BRANCH 39 42
ATOM     42  CA  LEU B   4     -19.840 -23.140 -30.898  1.00 22.91 LIG 0.18  C 
BRANCH 42 43
ATOM     43  C   LEU B   4     -20.554 -23.698 -29.663  1.00 30.74 LIG 0.24  C 
ATOM     44 O    LEU B   4     -19.996 -23.695 -28.529  1.00 30.11 LIG-0.27  OA
ATOM     45  N   LEU B   5     -21.763 -24.209 -29.845  1.00 32.41 LIG-0.35  N 
ATOM     46 H    LEU B   5     -22.216 -24.180 -30.575  1.00 32.41 LIG 0.16  HD
BRANCH 45 47
ATOM     47  CA  LEU B   5     -22.408 -24.891 -28.715  1.00 35.50 LIG 0.18  C 
BRANCH 47 48
ATOM     48  C   LEU B   5     -22.695 -23.905 -27.589  1.00 33.38 LIG 0.24  C 
ATOM     49 O    LEU B   5     -22.530 -24.225 -26.391  1.00 25.58 LIG-0.27  OA
ATOM     50  N   THR B   6     -23.128 -22.715 -27.992  1.00 32.99 LIG-0.34  N 
ATOM     51 H    THR B   6     -23.101 -22.465 -28.815  1.00 32.99 LIG 0.16  HD
BRANCH 50 52
ATOM     52  CA  THR B   6     -23.690 -21.709 -27.102  1.00 39.09 LIG 0.19  C 
BRANCH 52 53
ATOM     53  CB  THR B   6     -22.685 -20.545 -26.886  1.00 66.99 LIG 0.14  C 
ATOM     54  CG2 THR B   6     -21.882 -20.280 -28.144  1.00 64.52 LIG 0.04  C 
BRANCH 53 55
ATOM     55 OG1  THR B   6     -23.399 -19.343 -26.535  1.00 68.32 LIG-0.39  OA
ATOM     56 HG1  THR B   6     -22.976 -18.673 -26.816  1.00 68.32 LIG 0.21  HD
ENDBRANCH 53 55
ENDBRANCH 52 53
BRANCH 52 57
ATOM     57  C   THR B   6     -24.967 -21.144 -27.740  1.00 46.48 LIG 0.22  C 
ATOM     58 O    THR B   6     -25.581 -20.207 -27.208  1.00 50.47 LIG-0.29  OA
ENDBRANCH 52 57
ENDBRANCH 50 52
ENDBRANCH 47 48
BRANCH 47 59
ATOM     59  CB  LEU B   5     -21.524 -26.004 -28.166  1.00 41.25 LIG 0.04  C 
BRANCH 59 60
ATOM     60  CG  LEU B   5     -21.500 -27.329 -28.912  1.00 47.99 LIG-0.02  C 
ATOM     61  CD2 LEU B   5     -20.600 -27.237 -30.112  1.00 50.88 LIG 0.01  C 
ATOM     62  CD1 LEU B   5     -22.916 -27.649 -29.345  1.00 54.72 LIG 0.01  C 
ENDBRANCH 59 60
ENDBRANCH 47 59
ENDBRANCH 45 47
ENDBRANCH 42 43
BRANCH 42 63
ATOM     63  CB  LEU B   4     -19.721 -24.255 -31.918  1.00 23.96 LIG 0.04  C 
BRANCH 63 64
ATOM     64  CG  LEU B   4     -20.300 -24.169 -33.313  1.00 38.52 LIG-0.02  C 
ATOM     65  CD1 LEU B   4     -21.447 -25.096 -33.487  1.00 46.71 LIG 0.01  C 
ATOM     66  CD2 LEU B   4     -20.684 -22.709 -33.596  1.00 36.33 LIG 0.01  C 
ENDBRANCH 63 64
ENDBRANCH 42 63
ENDBRANCH 39 42
ENDBRANCH 1 38
TORSDOF 26
ENDMDL
MODEL 89
USER: ADFR SOLUTION from run 77
USER: SCORE 21.786543 LL:  -4.386 LR: -18.413 RR:   0.000 FEB: -10.657
USER: RMSD 11.227569
USER: SEED 76
USER: STATUS searching
USER: GENES 28
USER: genes 0 Translation |==|  0.54686 0.57375 0.43824
USER: genes 1 Rotation |==|  0.22737 0.78583 0.79985 0.56376
USER: genes 2 Torsion [C]-CA--N-[C] |==|  0.85694
USER: genes 3 Torsion [N]-C--CA-[N] |==|  0.08750
USER: genes 4 Torsion [C]-CA--CB-[CG] |==|  0.19150
USER: genes 5 Torsion [CA]-CB--CG-[CD] |==|  0.57527
USER: genes 6 Torsion [CB]-CG--CD-[NE] |==|  0.40091
USER: genes 7 Torsion [CG]-CD--NE-[HE] |==|  0.99046
USER: genes 8 Torsion [C]-CA--N-[C] |==|  0.69206
USER: genes 9 Torsion [N]-C--CA-[N] |==|  0.84781
USER: genes 10 Torsion [C]-CA--N-[H3] |==|  0.60083
USER: genes 11 Torsion [C]-CA--CB-[CG] |==|  0.85286
USER: genes 12 Torsion [CA]-CB--CG-[ND2] |==|  0.33827
USER: genes 13 Torsion [N]-CA--CB-[CG] |==|  0.73728
USER: genes 14 Torsion [CA]-CB--CG-[CD1] |==|  0.03360
USER: genes 15 Torsion [N]-CA--C-[N] |==|  0.39283
USER: genes 16 Torsion [C]-N--CA-[CB] |==|  0.55166
USER: genes 17 Torsion [N]-CA--C-[N] |==|  0.27634
USER: genes 18 Torsion [C]-N--CA-[C] |==|  0.67914
USER: genes 19 Torsion [N]-CA--C-[N] |==|  0.02848
USER: genes 20 Torsion [C]-N--CA-[C] |==|  0.83967
USER: genes 21 Torsion [N]-CA--CB-[CG2] |==|  0.31037
USER: genes 22 Torsion [CA]-CB--OG1-[HG1] |==|  0.02254
USER: genes 23 Torsion [N]-CA--C-[O] |==|  0.91977
USER: genes 24 Torsion [N]-CA--CB-[CG] |==|  0.55507
USER: genes 25 Torsion [CA]-CB--CG-[CD2] |==|  0.54681
USER: genes 26 Torsion [N]-CA--CB-[CG] |==|  0.56571
USER: genes 27 Torsion [CA]-CB--CG-[CD1] |==|  0.70801
ROOT
ATOM      1  CA  LEU B   3     -16.942 -21.046 -29.614  1.00 17.18 LIG 0.18  C 
ENDROOT
BRANCH 1 2
ATOM      2  N   LEU B   3     -16.683 -19.703 -29.252  1.00 21.09 LIG-0.35  N 
ATOM      3  C   ARG B   2     -16.885 -18.704 -30.106  1.00 20.79 LIG 0.24  C 
ATOM      4 O    ARG B   2     -17.387 -18.858 -31.240  1.00 18.81 LIG-0.27  OA
ATOM      5 H    LEU B   3     -16.390 -19.599 -28.450  1.00 21.09 LIG 0.16  HD
BRANCH 3 6
ATOM      6  CA  ARG B   2     -16.388 -17.340 -29.645  1.00 21.42 LIG 0.18  C 
BRANCH 6 7
ATOM      7  CB  ARG B   2     -16.082 -16.391 -30.809  1.00 36.36 LIG 0.04  C 
BRANCH 7 8
ATOM      8  CG  ARG B   2     -17.340 -15.958 -31.537  1.00 41.67 LIG 0.02  C 
BRANCH 8 9
ATOM      9  CD  ARG B   2     -17.097 -15.596 -33.003  1.00 51.14 LIG 0.14  C 
BRANCH 9 10
ATOM     10  NE  ARG B   2     -18.229 -15.991 -33.861  1.00 53.41 LIG-0.23  N 
ATOM     11 HE   ARG B   2     -18.878 -16.414 -33.487  1.00 53.41 LIG 0.18  HD
ATOM     12  CZ  ARG B   2     -18.332 -15.747 -35.172  1.00 50.83 LIG 0.67  C 
ATOM     13  NH1 ARG B   2     -17.369 -15.101 -35.817  1.00 40.00 LIG-0.23  N 
ATOM     14  NH2 ARG B   2     -19.407 -16.164 -35.844  1.00 54.23 LIG-0.23  N 
ATOM     15 1HH1 ARG B   2     -16.670 -14.836 -35.392  1.00 40.00 LIG 0.17  HD
ATOM     16 2HH1 ARG B   2     -17.443 -14.948 -36.660  1.00 40.00 LIG 0.17  HD
ATOM     17 1HH2 ARG B   2     -20.032 -16.589 -35.435  1.00 54.23 LIG 0.17  HD
ATOM     18 2HH2 ARG B   2     -19.474 -16.007 -36.686  1.00 54.23 LIG 0.17  HD
ENDBRANCH 9 10
ENDBRANCH 8 9
ENDBRANCH 7 8
ENDBRANCH 6 7
BRANCH 6 19
ATOM     19  N   ARG B   2     -15.225 -17.550 -28.811  1.00 29.89 LIG-0.35  N 
ATOM     20  C   ASN B   1     -15.278 -17.307 -27.509  1.00 39.87 LIG 0.25  C 
ATOM     21 O    ASN B   1     -16.161 -16.607 -26.996  1.00 37.46 LIG-0.27  OA
ATOM     22 H    ARG B   2     -14.527 -17.834 -29.227  1.00 29.89 LIG 0.16  HD
BRANCH 20 23
ATOM     23  CA  ASN B   1     -14.159 -17.945 -26.665  1.00 47.73 LIG 0.28  C 
BRANCH 23 24
ATOM     24  N   ASN B   1     -14.029 -19.372 -26.824  1.00 51.86 LIG-0.07  N 
ATOM     25 H3   ASN B   1     -13.811 -19.739 -26.043  1.00 51.86 LIG 0.28  HD
ATOM     26 H1   ASN B   1     -14.802 -19.711 -27.105  1.00 51.86 LIG 0.28  HD
ATOM     27 H2   ASN B   1     -13.393 -19.547 -27.422  1.00 51.86 LIG 0.28  HD
ENDBRANCH 23 24
BRANCH 23 28
ATOM     28  CB  ASN B   1     -12.802 -17.326 -26.931  1.00 49.79 LIG 0.14  C 
BRANCH 28 29
ATOM     29  CG  ASN B   1     -12.477 -17.331 -28.406  1.00 59.47 LIG 0.22  C 
ATOM     30  ND2 ASN B   1     -12.230 -16.144 -28.974  1.00 63.81 LIG-0.37  N 
ATOM     31 21HD ASN B   1     -12.063 -16.097 -29.815  1.00 63.81 LIG 0.16  HD
ATOM     32 22HD ASN B   1     -12.238 -15.430 -28.495  1.00 63.81 LIG 0.16  HD
ATOM     33 OD1  ASN B   1     -12.478 -18.382 -29.041  1.00 60.25 LIG-0.27  OA
ENDBRANCH 28 29
ENDBRANCH 23 28
ENDBRANCH 20 23
ENDBRANCH 6 19
ENDBRANCH 3 6
ENDBRANCH 1 2
BRANCH 1 34
ATOM     34  CB  LEU B   3     -16.702 -21.978 -28.394  1.00 28.79 LIG 0.04  C 
BRANCH 34 35
ATOM     35  CG  LEU B   3     -15.285 -22.561 -28.406  1.00 33.15 LIG-0.02  C 
ATOM     36  CD2 LEU B   3     -14.696 -22.478 -27.004  1.00 30.13 LIG 0.01  C 
ATOM     37  CD1 LEU B   3     -14.325 -21.884 -29.429  1.00 27.67 LIG 0.01  C 
ENDBRANCH 34 35
ENDBRANCH 1 34
BRANCH 1 38
ATOM     38  C   LEU B   3     -18.330 -21.222 -30.190  1.00 20.33 LIG 0.24  C 
ATOM     39  N   LEU B   4     -18.431 -22.070 -31.208  1.00 23.83 LIG-0.35  N 
ATOM     40 H    LEU B   4     -17.770 -22.507 -31.542  1.00 23.83 LIG 0.16  HD
ATOM     41 O    LEU B   3     -19.298 -20.621 -29.732  1.00 22.70 LIG-0.27  OA
BRANCH 39 42
ATOM     42  CA  LEU B   4     -19.716 -22.323 -31.848  1.00 22.91 LIG 0.18  C 
BRANCH 42 43
ATOM     43  C   LEU B   4     -20.773 -22.510 -30.755  1.00 30.74 LIG 0.24  C 
ATOM     44 O    LEU B   4     -20.921 -23.620 -30.170  1.00 30.11 LIG-0.27  OA
ATOM     45  N   LEU B   5     -21.543 -21.466 -30.476  1.00 32.41 LIG-0.35  N 
ATOM     46 H    LEU B   5     -21.446 -20.673 -30.792  1.00 32.41 LIG 0.16  HD
BRANCH 45 47
ATOM     47  CA  LEU B   5     -22.665 -21.658 -29.548  1.00 35.50 LIG 0.18  C 
BRANCH 47 48
ATOM     48  C   LEU B   5     -23.993 -21.437 -30.262  1.00 33.38 LIG 0.24  C 
ATOM     49 O    LEU B   5     -25.067 -21.367 -29.624  1.00 25.58 LIG-0.27  OA
ATOM     50  N   THR B   6     -23.900 -21.336 -31.584  1.00 32.99 LIG-0.34  N 
ATOM     51 H    THR B   6     -23.149 -21.245 -31.992  1.00 32.99 LIG 0.16  HD
BRANCH 50 52
ATOM     52  CA  THR B   6     -25.044 -21.366 -32.484  1.00 39.09 LIG 0.19  C 
BRANCH 52 53
ATOM     53  CB  THR B   6     -24.580 -21.299 -33.965  1.00 66.99 LIG 0.14  C 
ATOM     54  CG2 THR B   6     -24.852 -22.608 -34.678  1.00 64.52 LIG 0.04  C 
BRANCH 53 55
ATOM     55 OG1  THR B   6     -25.285 -20.246 -34.651  1.00 68.32 LIG-0.39  OA
ATOM     56 HG1  THR B   6     -25.730 -19.798 -34.097  1.00 68.32 LIG 0.21  HD
ENDBRANCH 53 55
ENDBRANCH 52 53
BRANCH 52 57
ATOM     57  C   THR B   6     -25.808 -22.680 -32.268  1.00 46.48 LIG 0.22  C 
ATOM     58 O    THR B   6     -25.218 -23.702 -31.885  1.00 50.47 LIG-0.29  OA
ENDBRANCH 52 57
ENDBRANCH 50 52
ENDBRANCH 47 48
BRANCH 47 59
ATOM     59  CB  LEU B   5     -22.581 -20.688 -28.376  1.00 41.25 LIG 0.04  C 
BRANCH 59 60
ATOM     60  CG  LEU B   5     -23.359 -21.025 -27.113  1.00 47.99 LIG-0.02  C 
ATOM     61  CD2 LEU B   5     -23.499 -19.806 -26.245  1.00 50.88 LIG 0.01  C 
ATOM     62  CD1 LEU B   5     -22.602 -22.108 -26.373  1.00 54.72 LIG 0.01  C 
ENDBRANCH 59 60
ENDBRANCH 47 59
ENDBRANCH 45 47
ENDBRANCH 42 43
BRANCH 42 63
ATOM     63  CB  LEU B   4     -19.598 -23.624 -32.617  1.00 23.96 LIG 0.04  C 
BRANCH 63 64
ATOM     64  CG  LEU B   4     -20.479 -23.975 -33.795  1.00 38.52 LIG-0.02  C 
ATOM     65  CD1 LEU B   4     -21.505 -24.985 -33.430  1.00 46.71 LIG 0.01  C 
ATOM     66  CD2 LEU B   4     -21.105 -22.683 -34.343  1.00 36.33 LIG 0.01  C 
ENDBRANCH 63 64
ENDBRANCH 42 63
ENDBRANCH 39 42
ENDBRANCH 1 38
TORSDOF 26
ENDMDL
MODEL 90
USER: ADFR SOLUTION from run 171
USER: SCORE 21.754741 LL:  -4.330 LR: -18.407 RR:   0.000 FEB: -10.651
USER: RMSD 11.289378
USER: SEED 170
USER: STATUS no improvement in best in 13 clusters for 5 generations
USER: GENES 28
USER: genes 0 Translation |==|  0.58834 0.54522 0.43455
USER: genes 1 Rotation |==|  0.72409 0.16673 0.21307 0.57989
USER: genes 2 Torsion [C]-CA--N-[C] |==|  0.68277
USER: genes 3 Torsion [N]-C--CA-[N] |==|  0.11605
USER: genes 4 Torsion [C]-CA--CB-[CG] |==|  0.28225
USER: genes 5 Torsion [CA]-CB--CG-[CD] |==|  0.18834
USER: genes 6 Torsion [CB]-CG--CD-[NE] |==|  0.59004
USER: genes 7 Torsion [CG]-CD--NE-[HE] |==|  0.26123
USER: genes 8 Torsion [C]-CA--N-[C] |==|  0.17918
USER: genes 9 Torsion [N]-C--CA-[N] |==|  0.74647
USER: genes 10 Torsion [C]-CA--N-[H3] |==|  0.40273
USER: genes 11 Torsion [C]-CA--CB-[CG] |==|  0.13390
USER: genes 12 Torsion [CA]-CB--CG-[ND2] |==|  0.13596
USER: genes 13 Torsion [N]-CA--CB-[CG] |==|  0.63389
USER: genes 14 Torsion [CA]-CB--CG-[CD1] |==|  0.64836
USER: genes 15 Torsion [N]-CA--C-[N] |==|  0.23698
USER: genes 16 Torsion [C]-N--CA-[CB] |==|  0.83889
USER: genes 17 Torsion [N]-CA--C-[N] |==|  0.44082
USER: genes 18 Torsion [C]-N--CA-[C] |==|  0.75132
USER: genes 19 Torsion [N]-CA--C-[N] |==|  0.36273
USER: genes 20 Torsion [C]-N--CA-[C] |==|  0.13696
USER: genes 21 Torsion [N]-CA--CB-[CG2] |==|  0.61530
USER: genes 22 Torsion [CA]-CB--OG1-[HG1] |==|  0.77416
USER: genes 23 Torsion [N]-CA--C-[O] |==|  0.11885
USER: genes 24 Torsion [N]-CA--CB-[CG] |==|  0.13290
USER: genes 25 Torsion [CA]-CB--CG-[CD2] |==|  0.63921
USER: genes 26 Torsion [N]-CA--CB-[CG] |==|  0.49747
USER: genes 27 Torsion [CA]-CB--CG-[CD1] |==|  0.34030
ROOT
ATOM      1  CA  LEU B   3     -15.916 -21.752 -29.691  1.00 17.18 LIG 0.18  C 
ENDROOT
BRANCH 1 2
ATOM      2  N   LEU B   3     -15.827 -20.380 -30.028  1.00 21.09 LIG-0.35  N 
ATOM      3  C   ARG B   2     -15.400 -19.987 -31.224  1.00 20.79 LIG 0.24  C 
ATOM      4 O    ARG B   2     -15.129 -20.777 -32.153  1.00 18.81 LIG-0.27  OA
ATOM      5 H    LEU B   3     -16.069 -19.842 -29.402  1.00 21.09 LIG 0.16  HD
BRANCH 3 6
ATOM      6  CA  ARG B   2     -15.180 -18.488 -31.378  1.00 21.42 LIG 0.18  C 
BRANCH 6 7
ATOM      7  CB  ARG B   2     -14.367 -18.128 -32.627  1.00 36.36 LIG 0.04  C 
BRANCH 7 8
ATOM      8  CG  ARG B   2     -15.248 -17.625 -33.754  1.00 41.67 LIG 0.02  C 
BRANCH 8 9
ATOM      9  CD  ARG B   2     -15.893 -16.269 -33.459  1.00 51.14 LIG 0.14  C 
BRANCH 9 10
ATOM     10  NE  ARG B   2     -17.222 -16.147 -34.085  1.00 53.41 LIG-0.23  N 
ATOM     11 HE   ARG B   2     -17.905 -16.354 -33.605  1.00 53.41 LIG 0.18  HD
ATOM     12  CZ  ARG B   2     -17.455 -15.739 -35.338  1.00 50.83 LIG 0.67  C 
ATOM     13  NH1 ARG B   2     -16.451 -15.405 -36.138  1.00 40.00 LIG-0.23  N 
ATOM     14  NH2 ARG B   2     -18.707 -15.677 -35.795  1.00 54.23 LIG-0.23  N 
ATOM     15 1HH1 ARG B   2     -15.641 -15.449 -35.853  1.00 40.00 LIG 0.17  HD
ATOM     16 2HH1 ARG B   2     -16.610 -15.144 -36.942  1.00 40.00 LIG 0.17  HD
ATOM     17 1HH2 ARG B   2     -19.363 -15.899 -35.285  1.00 54.23 LIG 0.17  HD
ATOM     18 2HH2 ARG B   2     -18.859 -15.415 -36.600  1.00 54.23 LIG 0.17  HD
ENDBRANCH 9 10
ENDBRANCH 8 9
ENDBRANCH 7 8
ENDBRANCH 6 7
BRANCH 6 19
ATOM     19  N   ARG B   2     -14.542 -18.006 -30.173  1.00 29.89 LIG-0.35  N 
ATOM     20  C   ASN B   1     -13.324 -18.417 -29.846  1.00 39.87 LIG 0.25  C 
ATOM     21 O    ASN B   1     -12.810 -19.434 -30.331  1.00 37.46 LIG-0.27  OA
ATOM     22 H    ARG B   2     -15.011 -17.452 -29.710  1.00 29.89 LIG 0.16  HD
BRANCH 20 23
ATOM     23  CA  ASN B   1     -12.584 -17.553 -28.808  1.00 47.73 LIG 0.28  C 
BRANCH 23 24
ATOM     24  N   ASN B   1     -11.769 -16.506 -29.374  1.00 51.86 LIG-0.07  N 
ATOM     25 H3   ASN B   1     -11.790 -15.793 -28.842  1.00 51.86 LIG 0.28  HD
ATOM     26 H1   ASN B   1     -10.929 -16.793 -29.451  1.00 51.86 LIG 0.28  HD
ATOM     27 H2   ASN B   1     -12.082 -16.287 -30.177  1.00 51.86 LIG 0.28  HD
ENDBRANCH 23 24
BRANCH 23 28
ATOM     28  CB  ASN B   1     -13.522 -16.914 -27.805  1.00 49.79 LIG 0.14  C 
BRANCH 28 29
ATOM     29  CG  ASN B   1     -14.493 -17.924 -27.241  1.00 59.47 LIG 0.22  C 
ATOM     30  ND2 ASN B   1     -13.977 -19.075 -26.797  1.00 63.81 LIG-0.37  N 
ATOM     31 21HD ASN B   1     -14.495 -19.688 -26.489  1.00 63.81 LIG 0.16  HD
ATOM     32 22HD ASN B   1     -13.127 -19.201 -26.819  1.00 63.81 LIG 0.16  HD
ATOM     33 OD1  ASN B   1     -15.699 -17.691 -27.232  1.00 60.25 LIG-0.27  OA
ENDBRANCH 28 29
ENDBRANCH 23 28
ENDBRANCH 20 23
ENDBRANCH 6 19
ENDBRANCH 3 6
ENDBRANCH 1 2
BRANCH 1 34
ATOM     34  CB  LEU B   3     -15.024 -22.051 -28.454  1.00 28.79 LIG 0.04  C 
BRANCH 34 35
ATOM     35  CG  LEU B   3     -14.143 -23.284 -28.685  1.00 33.15 LIG-0.02  C 
ATOM     36  CD2 LEU B   3     -14.469 -23.886 -30.045  1.00 30.13 LIG 0.01  C 
ATOM     37  CD1 LEU B   3     -14.265 -24.372 -27.577  1.00 27.67 LIG 0.01  C 
ENDBRANCH 34 35
ENDBRANCH 1 34
BRANCH 1 38
ATOM     38  C   LEU B   3     -17.346 -22.193 -29.472  1.00 20.33 LIG 0.24  C 
ATOM     39  N   LEU B   4     -18.016 -22.548 -30.564  1.00 23.83 LIG-0.35  N 
ATOM     40 H    LEU B   4     -17.687 -22.540 -31.358  1.00 23.83 LIG 0.16  HD
ATOM     41 O    LEU B   3     -17.845 -22.225 -28.351  1.00 22.70 LIG-0.27  OA
BRANCH 39 42
ATOM     42  CA  LEU B   4     -19.403 -22.990 -30.482  1.00 22.91 LIG 0.18  C 
BRANCH 42 43
ATOM     43  C   LEU B   4     -20.233 -21.866 -29.854  1.00 30.74 LIG 0.24  C 
ATOM     44 O    LEU B   4     -19.695 -20.983 -29.127  1.00 30.11 LIG-0.27  OA
ATOM     45  N   LEU B   5     -21.539 -21.881 -30.082  1.00 32.41 LIG-0.35  N 
ATOM     46 H    LEU B   5     -21.949 -22.414 -30.617  1.00 32.41 LIG 0.16  HD
BRANCH 45 47
ATOM     47  CA  LEU B   5     -22.381 -20.911 -29.369  1.00 35.50 LIG 0.18  C 
BRANCH 47 48
ATOM     48  C   LEU B   5     -22.853 -21.489 -28.039  1.00 33.38 LIG 0.24  C 
ATOM     49 O    LEU B   5     -23.371 -22.625 -27.974  1.00 25.58 LIG-0.27  OA
ATOM     50  N   THR B   6     -22.669 -20.689 -26.993  1.00 32.99 LIG-0.34  N 
ATOM     51 H    THR B   6     -22.188 -19.977 -27.031  1.00 32.99 LIG 0.16  HD
BRANCH 50 52
ATOM     52  CA  THR B   6     -23.253 -20.921 -25.680  1.00 39.09 LIG 0.19  C 
BRANCH 52 53
ATOM     53  CB  THR B   6     -24.790 -20.698 -25.715  1.00 66.99 LIG 0.14  C 
ATOM     54  CG2 THR B   6     -25.258 -19.955 -24.479  1.00 64.52 LIG 0.04  C 
BRANCH 53 55
ATOM     55 OG1  THR B   6     -25.146 -19.927 -26.878  1.00 68.32 LIG-0.39  OA
ATOM     56 HG1  THR B   6     -25.013 -19.111 -26.726  1.00 68.32 LIG 0.21  HD
ENDBRANCH 53 55
ENDBRANCH 52 53
BRANCH 52 57
ATOM     57  C   THR B   6     -22.977 -22.374 -25.267  1.00 46.48 LIG 0.22  C 
ATOM     58 O    THR B   6     -21.864 -22.888 -25.458  1.00 50.47 LIG-0.29  OA
ENDBRANCH 52 57
ENDBRANCH 50 52
ENDBRANCH 47 48
BRANCH 47 59
ATOM     59  CB  LEU B   5     -23.607 -20.536 -30.192  1.00 41.25 LIG 0.04  C 
BRANCH 59 60
ATOM     60  CG  LEU B   5     -24.417 -21.659 -30.819  1.00 47.99 LIG-0.02  C 
ATOM     61  CD2 LEU B   5     -24.649 -21.383 -32.279  1.00 50.88 LIG 0.01  C 
ATOM     62  CD1 LEU B   5     -25.741 -21.747 -30.089  1.00 54.72 LIG 0.01  C 
ENDBRANCH 59 60
ENDBRANCH 47 59
ENDBRANCH 45 47
ENDBRANCH 42 43
BRANCH 42 63
ATOM     63  CB  LEU B   4     -19.449 -24.186 -29.552  1.00 23.96 LIG 0.04  C 
BRANCH 63 64
ATOM     64  CG  LEU B   4     -20.727 -24.914 -29.199  1.00 38.52 LIG-0.02  C 
ATOM     65  CD1 LEU B   4     -20.651 -26.355 -29.548  1.00 46.71 LIG 0.01  C 
ATOM     66  CD2 LEU B   4     -21.023 -24.693 -27.707  1.00 36.33 LIG 0.01  C 
ENDBRANCH 63 64
ENDBRANCH 42 63
ENDBRANCH 39 42
ENDBRANCH 1 38
TORSDOF 26
ENDMDL
MODEL 91
USER: ADFR SOLUTION from run 37
USER: SCORE 22.405144 LL:  -5.221 LR: -18.396 RR:   0.000 FEB: -10.640
USER: RMSD 5.657887
USER: SEED 36
USER: STATUS no improvement in best in 6 clusters for 5 generations
USER: GENES 28
USER: genes 0 Translation |==|  0.42818 0.50240 0.40249
USER: genes 1 Rotation |==|  0.81906 0.58084 0.58299 0.86712
USER: genes 2 Torsion [C]-CA--N-[C] |==|  0.73279
USER: genes 3 Torsion [N]-C--CA-[N] |==|  0.97561
USER: genes 4 Torsion [C]-CA--CB-[CG] |==|  0.38090
USER: genes 5 Torsion [CA]-CB--CG-[CD] |==|  0.07571
USER: genes 6 Torsion [CB]-CG--CD-[NE] |==|  0.60778
USER: genes 7 Torsion [CG]-CD--NE-[HE] |==|  0.87861
USER: genes 8 Torsion [C]-CA--N-[C] |==|  0.71830
USER: genes 9 Torsion [N]-C--CA-[N] |==|  0.43112
USER: genes 10 Torsion [C]-CA--N-[H3] |==|  0.63343
USER: genes 11 Torsion [C]-CA--CB-[CG] |==|  0.47168
USER: genes 12 Torsion [CA]-CB--CG-[ND2] |==|  0.26648
USER: genes 13 Torsion [N]-CA--CB-[CG] |==|  0.11025
USER: genes 14 Torsion [CA]-CB--CG-[CD1] |==|  0.27185
USER: genes 15 Torsion [N]-CA--C-[N] |==|  0.44478
USER: genes 16 Torsion [C]-N--CA-[CB] |==|  0.19080
USER: genes 17 Torsion [N]-CA--C-[N] |==|  0.44010
USER: genes 18 Torsion [C]-N--CA-[C] |==|  0.83846
USER: genes 19 Torsion [N]-CA--C-[N] |==|  0.35307
USER: genes 20 Torsion [C]-N--CA-[C] |==|  0.24850
USER: genes 21 Torsion [N]-CA--CB-[CG2] |==|  0.40636
USER: genes 22 Torsion [CA]-CB--OG1-[HG1] |==|  0.39149
USER: genes 23 Torsion [N]-CA--C-[O] |==|  0.94438
USER: genes 24 Torsion [N]-CA--CB-[CG] |==|  0.51439
USER: genes 25 Torsion [CA]-CB--CG-[CD2] |==|  0.50276
USER: genes 26 Torsion [N]-CA--CB-[CG] |==|  0.51729
USER: genes 27 Torsion [CA]-CB--CG-[CD1] |==|  0.07091
ROOT
ATOM      1  CA  LEU B   3     -19.880 -22.812 -30.365  1.00 17.18 LIG 0.18  C 
ENDROOT
BRANCH 1 2
ATOM      2  N   LEU B   3     -20.374 -24.108 -30.641  1.00 21.09 LIG-0.35  N 
ATOM      3  C   ARG B   2     -20.054 -24.746 -31.763  1.00 20.79 LIG 0.24  C 
ATOM      4 O    ARG B   2     -19.245 -24.300 -32.603  1.00 18.81 LIG-0.27  OA
ATOM      5 H    LEU B   3     -20.887 -24.433 -30.032  1.00 21.09 LIG 0.16  HD
BRANCH 3 6
ATOM      6  CA  ARG B   2     -20.806 -26.048 -32.011  1.00 21.42 LIG 0.18  C 
BRANCH 6 7
ATOM      7  CB  ARG B   2     -21.713 -25.988 -33.245  1.00 36.36 LIG 0.04  C 
BRANCH 7 8
ATOM      8  CG  ARG B   2     -21.623 -27.252 -34.079  1.00 41.67 LIG 0.02  C 
BRANCH 8 9
ATOM      9  CD  ARG B   2     -21.240 -28.488 -33.265  1.00 51.14 LIG 0.14  C 
BRANCH 9 10
ATOM     10  NE  ARG B   2     -20.319 -29.369 -34.006  1.00 53.41 LIG-0.23  N 
ATOM     11 HE   ARG B   2     -20.496 -29.517 -34.835  1.00 53.41 LIG 0.18  HD
ATOM     12  CZ  ARG B   2     -19.230 -29.959 -33.498  1.00 50.83 LIG 0.67  C 
ATOM     13  NH1 ARG B   2     -18.896 -29.779 -32.226  1.00 40.00 LIG-0.23  N 
ATOM     14  NH2 ARG B   2     -18.477 -30.744 -34.271  1.00 54.23 LIG-0.23  N 
ATOM     15 1HH1 ARG B   2     -19.381 -29.281 -31.721  1.00 40.00 LIG 0.17  HD
ATOM     16 2HH1 ARG B   2     -18.194 -30.162 -31.908  1.00 40.00 LIG 0.17  HD
ATOM     17 1HH2 ARG B   2     -18.691 -30.871 -35.094  1.00 54.23 LIG 0.17  HD
ATOM     18 2HH2 ARG B   2     -17.778 -31.123 -33.945  1.00 54.23 LIG 0.17  HD
ENDBRANCH 9 10
ENDBRANCH 8 9
ENDBRANCH 7 8
ENDBRANCH 6 7
BRANCH 6 19
ATOM     19  N   ARG B   2     -21.557 -26.362 -30.815  1.00 29.89 LIG-0.35  N 
ATOM     20  C   ASN B   1     -21.112 -27.274 -29.962  1.00 39.87 LIG 0.25  C 
ATOM     21 O    ASN B   1     -20.257 -28.115 -30.269  1.00 37.46 LIG-0.27  OA
ATOM     22 H    ARG B   2     -22.287 -25.917 -30.718  1.00 29.89 LIG 0.16  HD
BRANCH 20 23
ATOM     23  CA  ASN B   1     -21.738 -27.235 -28.555  1.00 47.73 LIG 0.28  C 
BRANCH 23 24
ATOM     24  N   ASN B   1     -21.699 -28.490 -27.848  1.00 51.86 LIG-0.07  N 
ATOM     25 H3   ASN B   1     -22.503 -28.664 -27.507  1.00 51.86 LIG 0.28  HD
ATOM     26 H1   ASN B   1     -21.469 -29.141 -28.410  1.00 51.86 LIG 0.28  HD
ATOM     27 H2   ASN B   1     -21.102 -28.442 -27.190  1.00 51.86 LIG 0.28  HD
ENDBRANCH 23 24
BRANCH 23 28
ATOM     28  CB  ASN B   1     -21.107 -26.184 -27.665  1.00 49.79 LIG 0.14  C 
BRANCH 28 29
ATOM     29  CG  ASN B   1     -21.896 -25.999 -26.390  1.00 59.47 LIG 0.22  C 
ATOM     30  ND2 ASN B   1     -21.477 -26.679 -25.317  1.00 63.81 LIG-0.37  N 
ATOM     31 21HD ASN B   1     -21.909 -26.621 -24.576  1.00 63.81 LIG 0.16  HD
ATOM     32 22HD ASN B   1     -20.775 -27.172 -25.368  1.00 63.81 LIG 0.16  HD
ATOM     33 OD1  ASN B   1     -22.891 -25.279 -26.373  1.00 60.25 LIG-0.27  OA
ENDBRANCH 28 29
ENDBRANCH 23 28
ENDBRANCH 20 23
ENDBRANCH 6 19
ENDBRANCH 3 6
ENDBRANCH 1 2
BRANCH 1 34
ATOM     34  CB  LEU B   3     -21.005 -21.938 -29.742  1.00 28.79 LIG 0.04  C 
BRANCH 34 35
ATOM     35  CG  LEU B   3     -21.856 -22.743 -28.754  1.00 33.15 LIG-0.02  C 
ATOM     36  CD2 LEU B   3     -23.323 -22.384 -28.949  1.00 30.13 LIG 0.01  C 
ATOM     37  CD1 LEU B   3     -21.454 -22.553 -27.262  1.00 27.67 LIG 0.01  C 
ENDBRANCH 34 35
ENDBRANCH 1 34
BRANCH 1 38
ATOM     38  C   LEU B   3     -18.647 -22.848 -29.488  1.00 20.33 LIG 0.24  C 
ATOM     39  N   LEU B   4     -17.888 -21.758 -29.511  1.00 23.83 LIG-0.35  N 
ATOM     40 H    LEU B   4     -18.058 -21.059 -29.982  1.00 23.83 LIG 0.16  HD
ATOM     41 O    LEU B   3     -18.380 -23.826 -28.795  1.00 22.70 LIG-0.27  OA
BRANCH 39 42
ATOM     42  CA  LEU B   4     -16.673 -21.673 -28.709  1.00 22.91 LIG 0.18  C 
BRANCH 42 43
ATOM     43  C   LEU B   4     -16.101 -20.258 -28.844  1.00 30.74 LIG 0.24  C 
ATOM     44 O    LEU B   4     -16.377 -19.535 -29.843  1.00 30.11 LIG-0.27  OA
ATOM     45  N   LEU B   5     -15.283 -19.844 -27.887  1.00 32.41 LIG-0.35  N 
ATOM     46 H    LEU B   5     -15.112 -20.264 -27.156  1.00 32.41 LIG 0.16  HD
BRANCH 45 47
ATOM     47  CA  LEU B   5     -14.597 -18.558 -28.065  1.00 35.50 LIG 0.18  C 
BRANCH 47 48
ATOM     48  C   LEU B   5     -13.763 -18.570 -29.341  1.00 33.38 LIG 0.24  C 
ATOM     49 O    LEU B   5     -12.925 -19.473 -29.558  1.00 25.58 LIG-0.27  OA
ATOM     50  N   THR B   6     -14.001 -17.556 -30.167  1.00 32.99 LIG-0.34  N 
ATOM     51 H    THR B   6     -14.672 -17.026 -30.072  1.00 32.99 LIG 0.16  HD
BRANCH 50 52
ATOM     52  CA  THR B   6     -13.166 -17.228 -31.314  1.00 39.09 LIG 0.19  C 
BRANCH 52 53
ATOM     53  CB  THR B   6     -11.691 -17.638 -31.055  1.00 66.99 LIG 0.14  C 
ATOM     54  CG2 THR B   6     -11.020 -18.089 -32.337  1.00 64.52 LIG 0.04  C 
BRANCH 53 55
ATOM     55 OG1  THR B   6     -10.959 -16.517 -30.523  1.00 68.32 LIG-0.39  OA
ATOM     56 HG1  THR B   6     -10.428 -16.784 -29.929  1.00 68.32 LIG 0.21  HD
ENDBRANCH 53 55
ENDBRANCH 52 53
BRANCH 52 57
ATOM     57  C   THR B   6     -13.683 -18.000 -32.537  1.00 46.48 LIG 0.22  C 
ATOM     58 O    THR B   6     -14.395 -19.006 -32.398  1.00 50.47 LIG-0.29  OA
ENDBRANCH 52 57
ENDBRANCH 50 52
ENDBRANCH 47 48
BRANCH 47 59
ATOM     59  CB  LEU B   5     -13.675 -18.257 -26.890  1.00 41.25 LIG 0.04  C 
BRANCH 59 60
ATOM     60  CG  LEU B   5     -12.978 -16.906 -26.857  1.00 47.99 LIG-0.02  C 
ATOM     61  CD2 LEU B   5     -12.098 -16.802 -25.643  1.00 50.88 LIG 0.01  C 
ATOM     62  CD1 LEU B   5     -14.043 -15.830 -26.822  1.00 54.72 LIG 0.01  C 
ENDBRANCH 59 60
ENDBRANCH 47 59
ENDBRANCH 45 47
ENDBRANCH 42 43
BRANCH 42 63
ATOM     63  CB  LEU B   4     -15.669 -22.646 -29.293  1.00 23.96 LIG 0.04  C 
BRANCH 63 64
ATOM     64  CG  LEU B   4     -14.332 -22.945 -28.651  1.00 38.52 LIG-0.02  C 
ATOM     65  CD1 LEU B   4     -14.361 -22.700 -27.187  1.00 46.71 LIG 0.01  C 
ATOM     66  CD2 LEU B   4     -13.935 -24.390 -28.991  1.00 36.33 LIG 0.01  C 
ENDBRANCH 63 64
ENDBRANCH 42 63
ENDBRANCH 39 42
ENDBRANCH 1 38
TORSDOF 26
ENDMDL
MODEL 92
USER: ADFR SOLUTION from run 85
USER: SCORE 21.594424 LL:  -4.762 LR: -18.404 RR:   0.000 FEB: -10.648
USER: RMSD 6.263222
USER: SEED 84
USER: STATUS no improvement in best in 1 clusters for 5 generations
USER: GENES 28
USER: genes 0 Translation |==|  0.55285 0.52861 0.47277
USER: genes 1 Rotation |==|  0.10647 0.20754 0.52274 0.59532
USER: genes 2 Torsion [C]-CA--N-[C] |==|  0.74353
USER: genes 3 Torsion [N]-C--CA-[N] |==|  0.27641
USER: genes 4 Torsion [C]-CA--CB-[CG] |==|  0.28470
USER: genes 5 Torsion [CA]-CB--CG-[CD] |==|  0.15256
USER: genes 6 Torsion [CB]-CG--CD-[NE] |==|  0.39037
USER: genes 7 Torsion [CG]-CD--NE-[HE] |==|  0.13314
USER: genes 8 Torsion [C]-CA--N-[C] |==|  0.74041
USER: genes 9 Torsion [N]-C--CA-[N] |==|  0.98282
USER: genes 10 Torsion [C]-CA--N-[H3] |==|  0.19633
USER: genes 11 Torsion [C]-CA--CB-[CG] |==|  0.37933
USER: genes 12 Torsion [CA]-CB--CG-[ND2] |==|  0.02543
USER: genes 13 Torsion [N]-CA--CB-[CG] |==|  0.38173
USER: genes 14 Torsion [CA]-CB--CG-[CD1] |==|  0.27978
USER: genes 15 Torsion [N]-CA--C-[N] |==|  0.88333
USER: genes 16 Torsion [C]-N--CA-[CB] |==|  0.79983
USER: genes 17 Torsion [N]-CA--C-[N] |==|  0.56834
USER: genes 18 Torsion [C]-N--CA-[C] |==|  0.76363
USER: genes 19 Torsion [N]-CA--C-[N] |==|  0.29103
USER: genes 20 Torsion [C]-N--CA-[C] |==|  0.57615
USER: genes 21 Torsion [N]-CA--CB-[CG2] |==|  0.71955
USER: genes 22 Torsion [CA]-CB--OG1-[HG1] |==|  0.92487
USER: genes 23 Torsion [N]-CA--C-[O] |==|  0.81394
USER: genes 24 Torsion [N]-CA--CB-[CG] |==|  0.87185
USER: genes 25 Torsion [CA]-CB--CG-[CD2] |==|  0.66525
USER: genes 26 Torsion [N]-CA--CB-[CG] |==|  0.23083
USER: genes 27 Torsion [CA]-CB--CG-[CD1] |==|  0.34525
ROOT
ATOM      1  CA  LEU B   3     -16.794 -22.163 -28.889  1.00 17.18 LIG 0.18  C 
ENDROOT
BRANCH 1 2
ATOM      2  N   LEU B   3     -17.756 -22.796 -29.711  1.00 21.09 LIG-0.35  N 
ATOM      3  C   ARG B   2     -18.980 -22.296 -29.855  1.00 20.79 LIG 0.24  C 
ATOM      4 O    ARG B   2     -19.344 -21.211 -29.356  1.00 18.81 LIG-0.27  OA
ATOM      5 H    LEU B   3     -17.481 -23.514 -30.096  1.00 21.09 LIG 0.16  HD
BRANCH 3 6
ATOM      6  CA  ARG B   2     -19.961 -23.180 -30.616  1.00 21.42 LIG 0.18  C 
BRANCH 6 7
ATOM      7  CB  ARG B   2     -20.810 -22.399 -31.624  1.00 36.36 LIG 0.04  C 
BRANCH 7 8
ATOM      8  CG  ARG B   2     -20.319 -22.584 -33.047  1.00 41.67 LIG 0.02  C 
BRANCH 8 9
ATOM      9  CD  ARG B   2     -20.227 -24.051 -33.469  1.00 51.14 LIG 0.14  C 
BRANCH 9 10
ATOM     10  NE  ARG B   2     -20.670 -24.250 -34.861  1.00 53.41 LIG-0.23  N 
ATOM     11 HE   ARG B   2     -20.352 -23.716 -35.456  1.00 53.41 LIG 0.18  HD
ATOM     12  CZ  ARG B   2     -21.525 -25.192 -35.277  1.00 50.83 LIG 0.67  C 
ATOM     13  NH1 ARG B   2     -22.058 -26.049 -34.415  1.00 40.00 LIG-0.23  N 
ATOM     14  NH2 ARG B   2     -21.856 -25.267 -36.567  1.00 54.23 LIG-0.23  N 
ATOM     15 1HH1 ARG B   2     -21.855 -26.002 -33.581  1.00 40.00 LIG 0.17  HD
ATOM     16 2HH1 ARG B   2     -22.607 -26.651 -34.691  1.00 40.00 LIG 0.17  HD
ATOM     17 1HH2 ARG B   2     -21.520 -24.710 -37.130  1.00 54.23 LIG 0.17  HD
ATOM     18 2HH2 ARG B   2     -22.405 -25.871 -36.836  1.00 54.23 LIG 0.17  HD
ENDBRANCH 9 10
ENDBRANCH 8 9
ENDBRANCH 7 8
ENDBRANCH 6 7
BRANCH 6 19
ATOM     19  N   ARG B   2     -20.785 -23.866 -29.645  1.00 29.89 LIG-0.35  N 
ATOM     20  C   ASN B   1     -20.452 -25.075 -29.214  1.00 39.87 LIG 0.25  C 
ATOM     21 O    ASN B   1     -19.654 -25.803 -29.819  1.00 37.46 LIG-0.27  OA
ATOM     22 H    ARG B   2     -21.481 -23.431 -29.388  1.00 29.89 LIG 0.16  HD
BRANCH 20 23
ATOM     23  CA  ASN B   1     -21.134 -25.530 -27.911  1.00 47.73 LIG 0.28  C 
BRANCH 23 24
ATOM     24  N   ASN B   1     -21.933 -24.517 -27.268  1.00 51.86 LIG-0.07  N 
ATOM     25 H3   ASN B   1     -22.666 -24.366 -27.751  1.00 51.86 LIG 0.28  HD
ATOM     26 H1   ASN B   1     -22.167 -24.794 -26.455  1.00 51.86 LIG 0.28  HD
ATOM     27 H2   ASN B   1     -21.462 -23.765 -27.202  1.00 51.86 LIG 0.28  HD
ENDBRANCH 23 24
BRANCH 23 28
ATOM     28  CB  ASN B   1     -22.008 -26.752 -28.105  1.00 49.79 LIG 0.14  C 
BRANCH 28 29
ATOM     29  CG  ASN B   1     -21.813 -27.750 -26.988  1.00 59.47 LIG 0.22  C 
ATOM     30  ND2 ASN B   1     -21.084 -27.348 -25.940  1.00 63.81 LIG-0.37  N 
ATOM     31 21HD ASN B   1     -20.928 -27.890 -25.292  1.00 63.81 LIG 0.16  HD
ATOM     32 22HD ASN B   1     -20.772 -26.547 -25.916  1.00 63.81 LIG 0.16  HD
ATOM     33 OD1  ASN B   1     -22.282 -28.881 -27.074  1.00 60.25 LIG-0.27  OA
ENDBRANCH 28 29
ENDBRANCH 23 28
ENDBRANCH 20 23
ENDBRANCH 6 19
ENDBRANCH 3 6
ENDBRANCH 1 2
BRANCH 1 34
ATOM     34  CB  LEU B   3     -15.939 -23.234 -28.155  1.00 28.79 LIG 0.04  C 
BRANCH 34 35
ATOM     35  CG  LEU B   3     -14.453 -22.859 -28.154  1.00 33.15 LIG-0.02  C 
ATOM     36  CD2 LEU B   3     -13.626 -24.091 -28.499  1.00 30.13 LIG 0.01  C 
ATOM     37  CD1 LEU B   3     -13.952 -22.237 -26.817  1.00 27.67 LIG 0.01  C 
ENDBRANCH 34 35
ENDBRANCH 1 34
BRANCH 1 38
ATOM     38  C   LEU B   3     -15.932 -21.193 -29.666  1.00 20.33 LIG 0.24  C 
ATOM     39  N   LEU B   4     -15.528 -21.608 -30.863  1.00 23.83 LIG-0.35  N 
ATOM     40 H    LEU B   4     -15.727 -22.372 -31.203  1.00 23.83 LIG 0.16  HD
ATOM     41 O    LEU B   3     -15.637 -20.090 -29.215  1.00 22.70 LIG-0.27  OA
BRANCH 39 42
ATOM     42  CA  LEU B   4     -14.691 -20.762 -31.706  1.00 22.91 LIG 0.18  C 
BRANCH 42 43
ATOM     43  C   LEU B   4     -13.587 -20.154 -30.836  1.00 30.74 LIG 0.24  C 
ATOM     44 O    LEU B   4     -13.230 -20.701 -29.754  1.00 30.11 LIG-0.27  OA
ATOM     45  N   LEU B   5     -13.049 -19.015 -31.253  1.00 32.41 LIG-0.35  N 
ATOM     46 H    LEU B   5     -13.205 -18.634 -32.007  1.00 32.41 LIG 0.16  HD
BRANCH 45 47
ATOM     47  CA  LEU B   5     -12.103 -18.327 -30.366  1.00 35.50 LIG 0.18  C 
BRANCH 47 48
ATOM     48  C   LEU B   5     -12.847 -17.442 -29.372  1.00 33.38 LIG 0.24  C 
ATOM     49 O    LEU B   5     -13.347 -16.351 -29.725  1.00 25.58 LIG-0.27  OA
ATOM     50  N   THR B   6     -12.905 -17.927 -28.136  1.00 32.99 LIG-0.34  N 
ATOM     51 H    THR B   6     -12.682 -18.734 -27.942  1.00 32.99 LIG 0.16  HD
BRANCH 50 52
ATOM     52  CA  THR B   6     -13.345 -17.157 -26.981  1.00 39.09 LIG 0.19  C 
BRANCH 52 53
ATOM     53  CB  THR B   6     -14.884 -17.261 -26.806  1.00 66.99 LIG 0.14  C 
ATOM     54  CG2 THR B   6     -15.576 -16.020 -27.337  1.00 64.52 LIG 0.04  C 
BRANCH 53 55
ATOM     55 OG1  THR B   6     -15.382 -18.407 -27.525  1.00 68.32 LIG-0.39  OA
ATOM     56 HG1  THR B   6     -14.870 -18.578 -28.168  1.00 68.32 LIG 0.21  HD
ENDBRANCH 53 55
ENDBRANCH 52 53
BRANCH 52 57
ATOM     57  C   THR B   6     -12.669 -17.723 -25.724  1.00 46.48 LIG 0.22  C 
ATOM     58 O    THR B   6     -12.945 -18.860 -25.312  1.00 50.47 LIG-0.29  OA
ENDBRANCH 52 57
ENDBRANCH 50 52
ENDBRANCH 47 48
BRANCH 47 59
ATOM     59  CB  LEU B   5     -11.139 -17.453 -31.160  1.00 41.25 LIG 0.04  C 
BRANCH 59 60
ATOM     60  CG  LEU B   5     -10.490 -18.050 -32.398  1.00 47.99 LIG-0.02  C 
ATOM     61  CD2 LEU B   5      -8.993 -18.044 -32.258  1.00 50.88 LIG 0.01  C 
ATOM     62  CD1 LEU B   5     -10.905 -17.217 -33.593  1.00 54.72 LIG 0.01  C 
ENDBRANCH 59 60
ENDBRANCH 47 59
ENDBRANCH 45 47
ENDBRANCH 42 43
BRANCH 42 63
ATOM     63  CB  LEU B   4     -15.557 -19.634 -32.228  1.00 23.96 LIG 0.04  C 
BRANCH 63 64
ATOM     64  CG  LEU B   4     -15.846 -18.377 -31.438  1.00 38.52 LIG-0.02  C 
ATOM     65  CD1 LEU B   4     -15.464 -17.156 -32.192  1.00 46.71 LIG 0.01  C 
ATOM     66  CD2 LEU B   4     -17.331 -18.374 -31.042  1.00 36.33 LIG 0.01  C 
ENDBRANCH 63 64
ENDBRANCH 42 63
ENDBRANCH 39 42
ENDBRANCH 1 38
TORSDOF 26
ENDMDL
MODEL 93
USER: ADFR SOLUTION from run 48
USER: SCORE 22.089132 LL:  -4.521 LR: -18.403 RR:   0.000 FEB: -10.647
USER: RMSD 12.137911
USER: SEED 47
USER: STATUS no improvement in best in 24 clusters for 5 generations
USER: GENES 28
USER: genes 0 Translation |==|  0.59846 0.54401 0.40111
USER: genes 1 Rotation |==|  0.56975 0.25251 0.07242 0.53255
USER: genes 2 Torsion [C]-CA--N-[C] |==|  0.62911
USER: genes 3 Torsion [N]-C--CA-[N] |==|  0.98230
USER: genes 4 Torsion [C]-CA--CB-[CG] |==|  0.49582
USER: genes 5 Torsion [CA]-CB--CG-[CD] |==|  0.52716
USER: genes 6 Torsion [CB]-CG--CD-[NE] |==|  0.07860
USER: genes 7 Torsion [CG]-CD--NE-[HE] |==|  0.83029
USER: genes 8 Torsion [C]-CA--N-[C] |==|  0.77125
USER: genes 9 Torsion [N]-C--CA-[N] |==|  0.92538
USER: genes 10 Torsion [C]-CA--N-[H3] |==|  0.77297
USER: genes 11 Torsion [C]-CA--CB-[CG] |==|  0.66102
USER: genes 12 Torsion [CA]-CB--CG-[ND2] |==|  0.31698
USER: genes 13 Torsion [N]-CA--CB-[CG] |==|  0.24032
USER: genes 14 Torsion [CA]-CB--CG-[CD1] |==|  0.47129
USER: genes 15 Torsion [N]-CA--C-[N] |==|  0.46019
USER: genes 16 Torsion [C]-N--CA-[CB] |==|  0.18242
USER: genes 17 Torsion [N]-CA--C-[N] |==|  0.66667
USER: genes 18 Torsion [C]-N--CA-[C] |==|  0.16423
USER: genes 19 Torsion [N]-CA--C-[N] |==|  0.12455
USER: genes 20 Torsion [C]-N--CA-[C] |==|  0.62073
USER: genes 21 Torsion [N]-CA--CB-[CG2] |==|  0.58939
USER: genes 22 Torsion [CA]-CB--OG1-[HG1] |==|  0.82266
USER: genes 23 Torsion [N]-CA--C-[O] |==|  0.07516
USER: genes 24 Torsion [N]-CA--CB-[CG] |==|  0.81282
USER: genes 25 Torsion [CA]-CB--CG-[CD2] |==|  0.56177
USER: genes 26 Torsion [N]-CA--CB-[CG] |==|  0.55293
USER: genes 27 Torsion [CA]-CB--CG-[CD1] |==|  0.61823
ROOT
ATOM      1  CA  LEU B   3     -15.665 -21.782 -30.394  1.00 17.18 LIG 0.18  C 
ENDROOT
BRANCH 1 2
ATOM      2  N   LEU B   3     -14.953 -20.581 -30.167  1.00 21.09 LIG-0.35  N 
ATOM      3  C   ARG B   2     -14.503 -19.841 -31.176  1.00 20.79 LIG 0.24  C 
ATOM      4 O    ARG B   2     -14.740 -20.095 -32.375  1.00 18.81 LIG-0.27  OA
ATOM      5 H    LEU B   3     -14.841 -20.382 -29.337  1.00 21.09 LIG 0.16  HD
BRANCH 3 6
ATOM      6  CA  ARG B   2     -13.597 -18.681 -30.783  1.00 21.42 LIG 0.18  C 
BRANCH 6 7
ATOM      7  CB  ARG B   2     -12.181 -18.809 -31.355  1.00 36.36 LIG 0.04  C 
BRANCH 7 8
ATOM      8  CG  ARG B   2     -11.307 -17.627 -30.981  1.00 41.67 LIG 0.02  C 
BRANCH 8 9
ATOM      9  CD  ARG B   2      -9.971 -17.603 -31.726  1.00 51.14 LIG 0.14  C 
BRANCH 9 10
ATOM     10  NE  ARG B   2     -10.066 -18.259 -33.043  1.00 53.41 LIG-0.23  N 
ATOM     11 HE   ARG B   2     -10.283 -19.091 -33.054  1.00 53.41 LIG 0.18  HD
ATOM     12  CZ  ARG B   2      -9.844 -17.667 -34.223  1.00 50.83 LIG 0.67  C 
ATOM     13  NH1 ARG B   2      -9.504 -16.386 -34.283  1.00 40.00 LIG-0.23  N 
ATOM     14  NH2 ARG B   2      -9.954 -18.371 -35.351  1.00 54.23 LIG-0.23  N 
ATOM     15 1HH1 ARG B   2      -9.424 -15.928 -33.560  1.00 40.00 LIG 0.17  HD
ATOM     16 2HH1 ARG B   2      -9.363 -16.014 -35.045  1.00 40.00 LIG 0.17  HD
ATOM     17 1HH2 ARG B   2     -10.167 -19.204 -35.319  1.00 54.23 LIG 0.17  HD
ATOM     18 2HH2 ARG B   2      -9.812 -17.992 -36.109  1.00 54.23 LIG 0.17  HD
ENDBRANCH 9 10
ENDBRANCH 8 9
ENDBRANCH 7 8
ENDBRANCH 6 7
BRANCH 6 19
ATOM     19  N   ARG B   2     -13.580 -18.601 -29.338  1.00 29.89 LIG-0.35  N 
ATOM     20  C   ASN B   1     -14.554 -17.979 -28.688  1.00 39.87 LIG 0.25  C 
ATOM     21 O    ASN B   1     -15.321 -17.179 -29.240  1.00 37.46 LIG-0.27  OA
ATOM     22 H    ARG B   2     -12.906 -18.980 -28.961  1.00 29.89 LIG 0.16  HD
BRANCH 20 23
ATOM     23  CA  ASN B   1     -14.668 -18.304 -27.187  1.00 47.73 LIG 0.28  C 
BRANCH 23 24
ATOM     24  N   ASN B   1     -14.169 -19.606 -26.817  1.00 51.86 LIG-0.07  N 
ATOM     25 H3   ASN B   1     -14.791 -20.220 -26.984  1.00 51.86 LIG 0.28  HD
ATOM     26 H1   ASN B   1     -13.438 -19.789 -27.290  1.00 51.86 LIG 0.28  HD
ATOM     27 H2   ASN B   1     -13.971 -19.612 -25.950  1.00 51.86 LIG 0.28  HD
ENDBRANCH 23 24
BRANCH 23 28
ATOM     28  CB  ASN B   1     -13.974 -17.280 -26.313  1.00 49.79 LIG 0.14  C 
BRANCH 28 29
ATOM     29  CG  ASN B   1     -12.916 -17.923 -25.448  1.00 59.47 LIG 0.22  C 
ATOM     30  ND2 ASN B   1     -11.646 -17.579 -25.692  1.00 63.81 LIG-0.37  N 
ATOM     31 21HD ASN B   1     -11.010 -17.937 -25.239  1.00 63.81 LIG 0.16  HD
ATOM     32 22HD ASN B   1     -11.468 -16.998 -26.301  1.00 63.81 LIG 0.16  HD
ATOM     33 OD1  ASN B   1     -13.227 -18.745 -24.591  1.00 60.25 LIG-0.27  OA
ENDBRANCH 28 29
ENDBRANCH 23 28
ENDBRANCH 20 23
ENDBRANCH 6 19
ENDBRANCH 3 6
ENDBRANCH 1 2
BRANCH 1 34
ATOM     34  CB  LEU B   3     -14.727 -23.002 -30.179  1.00 28.79 LIG 0.04  C 
BRANCH 34 35
ATOM     35  CG  LEU B   3     -14.693 -23.429 -28.707  1.00 33.15 LIG-0.02  C 
ATOM     36  CD2 LEU B   3     -14.030 -22.333 -27.883  1.00 30.13 LIG 0.01  C 
ATOM     37  CD1 LEU B   3     -13.980 -24.790 -28.453  1.00 27.67 LIG 0.01  C 
ENDBRANCH 34 35
ENDBRANCH 1 34
BRANCH 1 38
ATOM     38  C   LEU B   3     -16.911 -21.874 -29.540  1.00 20.33 LIG 0.24  C 
ATOM     39  N   LEU B   4     -17.786 -22.810 -29.893  1.00 23.83 LIG-0.35  N 
ATOM     40 H    LEU B   4     -17.682 -23.344 -30.558  1.00 23.83 LIG 0.16  HD
ATOM     41 O    LEU B   3     -17.087 -21.133 -28.577  1.00 22.70 LIG-0.27  OA
BRANCH 39 42
ATOM     42  CA  LEU B   4     -19.026 -22.996 -29.148  1.00 22.91 LIG 0.18  C 
BRANCH 42 43
ATOM     43  C   LEU B   4     -19.784 -24.178 -29.759  1.00 30.74 LIG 0.24  C 
ATOM     44 O    LEU B   4     -19.262 -25.327 -29.825  1.00 30.11 LIG-0.27  OA
ATOM     45  N   LEU B   5     -20.995 -23.934 -30.243  1.00 32.41 LIG-0.35  N 
ATOM     46 H    LEU B   5     -21.425 -23.193 -30.168  1.00 32.41 LIG 0.16  HD
BRANCH 45 47
ATOM     47  CA  LEU B   5     -21.682 -25.007 -30.973  1.00 35.50 LIG 0.18  C 
BRANCH 47 48
ATOM     48  C   LEU B   5     -21.856 -26.233 -30.085  1.00 33.38 LIG 0.24  C 
ATOM     49 O    LEU B   5     -21.616 -27.383 -30.514  1.00 25.58 LIG-0.27  OA
ATOM     50  N   THR B   6     -22.279 -25.967 -28.853  1.00 32.99 LIG-0.34  N 
ATOM     51 H    THR B   6     -22.304 -25.170 -28.532  1.00 32.99 LIG 0.16  HD
BRANCH 50 52
ATOM     52  CA  THR B   6     -22.744 -26.981 -27.916  1.00 39.09 LIG 0.19  C 
BRANCH 52 53
ATOM     53  CB  THR B   6     -21.665 -27.266 -26.836  1.00 66.99 LIG 0.14  C 
ATOM     54  CG2 THR B   6     -21.716 -28.713 -26.386  1.00 64.52 LIG 0.04  C 
BRANCH 53 55
ATOM     55 OG1  THR B   6     -20.355 -26.996 -27.370  1.00 68.32 LIG-0.39  OA
ATOM     56 HG1  THR B   6     -20.195 -27.525 -28.003  1.00 68.32 LIG 0.21  HD
ENDBRANCH 53 55
ENDBRANCH 52 53
BRANCH 52 57
ATOM     57  C   THR B   6     -24.012 -26.466 -27.221  1.00 46.48 LIG 0.22  C 
ATOM     58 O    THR B   6     -24.755 -25.646 -27.781  1.00 50.47 LIG-0.29  OA
ENDBRANCH 52 57
ENDBRANCH 50 52
ENDBRANCH 47 48
BRANCH 47 59
ATOM     59  CB  LEU B   5     -20.899 -25.418 -32.213  1.00 41.25 LIG 0.04  C 
BRANCH 59 60
ATOM     60  CG  LEU B   5     -20.781 -24.415 -33.349  1.00 47.99 LIG-0.02  C 
ATOM     61  CD2 LEU B   5     -20.481 -25.122 -34.642  1.00 50.88 LIG 0.01  C 
ATOM     62  CD1 LEU B   5     -19.662 -23.452 -33.010  1.00 54.72 LIG 0.01  C 
ENDBRANCH 59 60
ENDBRANCH 47 59
ENDBRANCH 45 47
ENDBRANCH 42 43
BRANCH 42 63
ATOM     63  CB  LEU B   4     -19.866 -21.748 -29.337  1.00 23.96 LIG 0.04  C 
BRANCH 63 64
ATOM     64  CG  LEU B   4     -21.006 -21.370 -28.418  1.00 38.52 LIG-0.02  C 
ATOM     65  CD1 LEU B   4     -22.183 -20.879 -29.179  1.00 46.71 LIG 0.01  C 
ATOM     66  CD2 LEU B   4     -21.349 -22.579 -27.535  1.00 36.33 LIG 0.01  C 
ENDBRANCH 63 64
ENDBRANCH 42 63
ENDBRANCH 39 42
ENDBRANCH 1 38
TORSDOF 26
ENDMDL
MODEL 94
USER: ADFR SOLUTION from run 137
USER: SCORE 22.177180 LL:  -5.701 LR: -18.390 RR:   0.000 FEB: -10.634
USER: RMSD 10.075845
USER: SEED 136
USER: STATUS searching
USER: GENES 28
USER: genes 0 Translation |==|  0.47054 0.48510 0.48185
USER: genes 1 Rotation |==|  0.29694 0.17408 0.70927 0.74238
USER: genes 2 Torsion [C]-CA--N-[C] |==|  0.18950
USER: genes 3 Torsion [N]-C--CA-[N] |==|  0.96022
USER: genes 4 Torsion [C]-CA--CB-[CG] |==|  0.28363
USER: genes 5 Torsion [CA]-CB--CG-[CD] |==|  0.81891
USER: genes 6 Torsion [CB]-CG--CD-[NE] |==|  0.60622
USER: genes 7 Torsion [CG]-CD--NE-[HE] |==|  0.96432
USER: genes 8 Torsion [C]-CA--N-[C] |==|  0.22222
USER: genes 9 Torsion [N]-C--CA-[N] |==|  0.02712
USER: genes 10 Torsion [C]-CA--N-[H3] |==|  0.89142
USER: genes 11 Torsion [C]-CA--CB-[CG] |==|  0.13858
USER: genes 12 Torsion [CA]-CB--CG-[ND2] |==|  0.62848
USER: genes 13 Torsion [N]-CA--CB-[CG] |==|  0.57843
USER: genes 14 Torsion [CA]-CB--CG-[CD1] |==|  0.18445
USER: genes 15 Torsion [N]-CA--C-[N] |==|  0.01767
USER: genes 16 Torsion [C]-N--CA-[CB] |==|  0.18674
USER: genes 17 Torsion [N]-CA--C-[N] |==|  0.50707
USER: genes 18 Torsion [C]-N--CA-[C] |==|  0.17187
USER: genes 19 Torsion [N]-CA--C-[N] |==|  0.09087
USER: genes 20 Torsion [C]-N--CA-[C] |==|  0.82360
USER: genes 21 Torsion [N]-CA--CB-[CG2] |==|  0.83221
USER: genes 22 Torsion [CA]-CB--OG1-[HG1] |==|  0.11767
USER: genes 23 Torsion [N]-CA--C-[O] |==|  0.32415
USER: genes 24 Torsion [N]-CA--CB-[CG] |==|  0.74940
USER: genes 25 Torsion [CA]-CB--CG-[CD2] |==|  0.39585
USER: genes 26 Torsion [N]-CA--CB-[CG] |==|  0.13545
USER: genes 27 Torsion [CA]-CB--CG-[CD1] |==|  0.36640
ROOT
ATOM      1  CA  LEU B   3     -18.831 -23.240 -28.698  1.00 17.18 LIG 0.18  C 
ENDROOT
BRANCH 1 2
ATOM      2  N   LEU B   3     -19.541 -24.462 -28.755  1.00 21.09 LIG-0.35  N 
ATOM      3  C   ARG B   2     -19.798 -25.060 -29.915  1.00 20.79 LIG 0.24  C 
ATOM      4 O    ARG B   2     -19.372 -24.645 -31.013  1.00 18.81 LIG-0.27  OA
ATOM      5 H    LEU B   3     -19.783 -24.771 -27.990  1.00 21.09 LIG 0.16  HD
BRANCH 3 6
ATOM      6  CA  ARG B   2     -20.728 -26.264 -29.837  1.00 21.42 LIG 0.18  C 
BRANCH 6 7
ATOM      7  CB  ARG B   2     -22.107 -25.996 -30.449  1.00 36.36 LIG 0.04  C 
BRANCH 7 8
ATOM      8  CG  ARG B   2     -22.244 -26.604 -31.832  1.00 41.67 LIG 0.02  C 
BRANCH 8 9
ATOM      9  CD  ARG B   2     -21.307 -25.975 -32.865  1.00 51.14 LIG 0.14  C 
BRANCH 9 10
ATOM     10  NE  ARG B   2     -21.957 -25.838 -34.182  1.00 53.41 LIG-0.23  N 
ATOM     11 HE   ARG B   2     -22.697 -26.258 -34.301  1.00 53.41 LIG 0.18  HD
ATOM     12  CZ  ARG B   2     -21.490 -25.114 -35.206  1.00 50.83 LIG 0.67  C 
ATOM     13  NH1 ARG B   2     -20.352 -24.441 -35.095  1.00 40.00 LIG-0.23  N 
ATOM     14  NH2 ARG B   2     -22.167 -25.075 -36.355  1.00 54.23 LIG-0.23  N 
ATOM     15 1HH1 ARG B   2     -19.907 -24.468 -34.360  1.00 40.00 LIG 0.17  HD
ATOM     16 2HH1 ARG B   2     -20.059 -23.978 -35.758  1.00 40.00 LIG 0.17  HD
ATOM     17 1HH2 ARG B   2     -22.902 -25.514 -36.437  1.00 54.23 LIG 0.17  HD
ATOM     18 2HH2 ARG B   2     -21.868 -24.610 -37.014  1.00 54.23 LIG 0.17  HD
ENDBRANCH 9 10
ENDBRANCH 8 9
ENDBRANCH 7 8
ENDBRANCH 6 7
BRANCH 6 19
ATOM     19  N   ARG B   2     -20.831 -26.656 -28.448  1.00 29.89 LIG-0.35  N 
ATOM     20  C   ASN B   1     -21.637 -26.003 -27.623  1.00 39.87 LIG 0.25  C 
ATOM     21 O    ASN B   1     -22.075 -24.872 -27.873  1.00 37.46 LIG-0.27  OA
ATOM     22 H    ARG B   2     -20.339 -27.325 -28.222  1.00 29.89 LIG 0.16  HD
BRANCH 20 23
ATOM     23  CA  ASN B   1     -21.990 -26.735 -26.315  1.00 47.73 LIG 0.28  C 
BRANCH 23 24
ATOM     24  N   ASN B   1     -21.221 -27.931 -26.073  1.00 51.86 LIG-0.07  N 
ATOM     25 H3   ASN B   1     -21.103 -28.368 -26.838  1.00 51.86 LIG 0.28  HD
ATOM     26 H1   ASN B   1     -20.429 -27.710 -25.732  1.00 51.86 LIG 0.28  HD
ATOM     27 H2   ASN B   1     -21.656 -28.452 -25.497  1.00 51.86 LIG 0.28  HD
ENDBRANCH 23 24
BRANCH 23 28
ATOM     28  CB  ASN B   1     -21.859 -25.847 -25.095  1.00 49.79 LIG 0.14  C 
BRANCH 28 29
ATOM     29  CG  ASN B   1     -22.580 -24.535 -25.290  1.00 59.47 LIG 0.22  C 
ATOM     30  ND2 ASN B   1     -21.919 -23.425 -24.941  1.00 63.81 LIG-0.37  N 
ATOM     31 21HD ASN B   1     -22.299 -22.658 -25.014  1.00 63.81 LIG 0.16  HD
ATOM     32 22HD ASN B   1     -21.113 -23.480 -24.646  1.00 63.81 LIG 0.16  HD
ATOM     33 OD1  ASN B   1     -23.730 -24.514 -25.718  1.00 60.25 LIG-0.27  OA
ENDBRANCH 28 29
ENDBRANCH 23 28
ENDBRANCH 20 23
ENDBRANCH 6 19
ENDBRANCH 3 6
ENDBRANCH 1 2
BRANCH 1 34
ATOM     34  CB  LEU B   3     -17.450 -23.398 -29.393  1.00 28.79 LIG 0.04  C 
BRANCH 34 35
ATOM     35  CG  LEU B   3     -16.412 -22.440 -28.798  1.00 33.15 LIG-0.02  C 
ATOM     36  CD2 LEU B   3     -15.161 -22.454 -29.666  1.00 30.13 LIG 0.01  C 
ATOM     37  CD1 LEU B   3     -16.036 -22.746 -27.317  1.00 27.67 LIG 0.01  C 
ENDBRANCH 34 35
ENDBRANCH 1 34
BRANCH 1 38
ATOM     38  C   LEU B   3     -19.626 -22.093 -29.283  1.00 20.33 LIG 0.24  C 
ATOM     39  N   LEU B   4     -20.879 -22.372 -29.626  1.00 23.83 LIG-0.35  N 
ATOM     40 H    LEU B   4     -21.246 -23.144 -29.534  1.00 23.83 LIG 0.16  HD
ATOM     41 O    LEU B   3     -19.137 -20.975 -29.419  1.00 22.70 LIG-0.27  OA
BRANCH 39 42
ATOM     42  CA  LEU B   4     -21.745 -21.349 -30.201  1.00 22.91 LIG 0.18  C 
BRANCH 42 43
ATOM     43  C   LEU B   4     -23.141 -21.949 -30.393  1.00 30.74 LIG 0.24  C 
ATOM     44 O    LEU B   4     -23.393 -23.140 -30.054  1.00 30.11 LIG-0.27  OA
ATOM     45  N   LEU B   5     -24.058 -21.176 -30.958  1.00 32.41 LIG-0.35  N 
ATOM     46 H    LEU B   5     -23.963 -20.343 -31.148  1.00 32.41 LIG 0.16  HD
BRANCH 45 47
ATOM     47  CA  LEU B   5     -25.357 -21.770 -31.298  1.00 35.50 LIG 0.18  C 
BRANCH 47 48
ATOM     48  C   LEU B   5     -26.062 -22.269 -30.042  1.00 33.38 LIG 0.24  C 
ATOM     49 O    LEU B   5     -26.807 -23.273 -30.073  1.00 25.58 LIG-0.27  OA
ATOM     50  N   THR B   6     -25.819 -21.552 -28.950  1.00 32.99 LIG-0.34  N 
ATOM     51 H    THR B   6     -25.200 -20.955 -28.913  1.00 32.99 LIG 0.16  HD
BRANCH 50 52
ATOM     52  CA  THR B   6     -26.561 -21.689 -27.704  1.00 39.09 LIG 0.19  C 
BRANCH 52 53
ATOM     53  CB  THR B   6     -25.976 -20.754 -26.611  1.00 66.99 LIG 0.14  C 
ATOM     54  CG2 THR B   6     -24.527 -21.093 -26.325  1.00 64.52 LIG 0.04  C 
BRANCH 53 55
ATOM     55 OG1  THR B   6     -26.050 -19.384 -27.049  1.00 68.32 LIG-0.39  OA
ATOM     56 HG1  THR B   6     -26.793 -19.246 -27.416  1.00 68.32 LIG 0.21  HD
ENDBRANCH 53 55
ENDBRANCH 52 53
BRANCH 52 57
ATOM     57  C   THR B   6     -28.024 -21.297 -27.956  1.00 46.48 LIG 0.22  C 
ATOM     58 O    THR B   6     -28.936 -22.127 -27.822  1.00 50.47 LIG-0.29  OA
ENDBRANCH 52 57
ENDBRANCH 50 52
ENDBRANCH 47 48
BRANCH 47 59
ATOM     59  CB  LEU B   5     -25.192 -22.944 -32.255  1.00 41.25 LIG 0.04  C 
BRANCH 59 60
ATOM     60  CG  LEU B   5     -25.230 -22.658 -33.748  1.00 47.99 LIG-0.02  C 
ATOM     61  CD2 LEU B   5     -24.241 -23.530 -34.472  1.00 50.88 LIG 0.01  C 
ATOM     62  CD1 LEU B   5     -24.886 -21.198 -33.955  1.00 54.72 LIG 0.01  C 
ENDBRANCH 59 60
ENDBRANCH 47 59
ENDBRANCH 45 47
ENDBRANCH 42 43
BRANCH 42 63
ATOM     63  CB  LEU B   4     -21.191 -20.996 -31.567  1.00 23.96 LIG 0.04  C 
BRANCH 63 64
ATOM     64  CG  LEU B   4     -20.811 -22.032 -32.602  1.00 38.52 LIG-0.02  C 
ATOM     65  CD1 LEU B   4     -21.377 -21.707 -33.936  1.00 46.71 LIG 0.01  C 
ATOM     66  CD2 LEU B   4     -19.280 -22.155 -32.635  1.00 36.33 LIG 0.01  C 
ENDBRANCH 63 64
ENDBRANCH 42 63
ENDBRANCH 39 42
ENDBRANCH 1 38
TORSDOF 26
ENDMDL
MODEL 95
USER: ADFR SOLUTION from run 37
USER: SCORE 20.685759 LL:  -4.695 LR: -18.378 RR:   0.000 FEB: -10.622
USER: RMSD 5.959196
USER: SEED 36
USER: STATUS no improvement in best in 6 clusters for 5 generations
USER: GENES 28
USER: genes 0 Translation |==|  0.44937 0.47904 0.44051
USER: genes 1 Rotation |==|  0.74294 0.64242 0.58095 0.90515
USER: genes 2 Torsion [C]-CA--N-[C] |==|  0.62829
USER: genes 3 Torsion [N]-C--CA-[N] |==|  0.02844
USER: genes 4 Torsion [C]-CA--CB-[CG] |==|  0.39865
USER: genes 5 Torsion [CA]-CB--CG-[CD] |==|  0.91860
USER: genes 6 Torsion [CB]-CG--CD-[NE] |==|  0.69298
USER: genes 7 Torsion [CG]-CD--NE-[HE] |==|  0.96068
USER: genes 8 Torsion [C]-CA--N-[C] |==|  0.20026
USER: genes 9 Torsion [N]-C--CA-[N] |==|  0.97244
USER: genes 10 Torsion [C]-CA--N-[H3] |==|  0.62705
USER: genes 11 Torsion [C]-CA--CB-[CG] |==|  0.20046
USER: genes 12 Torsion [CA]-CB--CG-[ND2] |==|  0.56362
USER: genes 13 Torsion [N]-CA--CB-[CG] |==|  0.62442
USER: genes 14 Torsion [CA]-CB--CG-[CD1] |==|  0.97622
USER: genes 15 Torsion [N]-CA--C-[N] |==|  0.30355
USER: genes 16 Torsion [C]-N--CA-[CB] |==|  0.33017
USER: genes 17 Torsion [N]-CA--C-[N] |==|  0.09466
USER: genes 18 Torsion [C]-N--CA-[C] |==|  0.80030
USER: genes 19 Torsion [N]-CA--C-[N] |==|  0.88796
USER: genes 20 Torsion [C]-N--CA-[C] |==|  0.19687
USER: genes 21 Torsion [N]-CA--CB-[CG2] |==|  0.49111
USER: genes 22 Torsion [CA]-CB--OG1-[HG1] |==|  0.92423
USER: genes 23 Torsion [N]-CA--C-[O] |==|  0.17505
USER: genes 24 Torsion [N]-CA--CB-[CG] |==|  0.54473
USER: genes 25 Torsion [CA]-CB--CG-[CD2] |==|  0.06344
USER: genes 26 Torsion [N]-CA--CB-[CG] |==|  0.61357
USER: genes 27 Torsion [CA]-CB--CG-[CD1] |==|  0.98246
ROOT
ATOM      1  CA  LEU B   3     -19.355 -23.390 -29.566  1.00 17.18 LIG 0.18  C 
ENDROOT
BRANCH 1 2
ATOM      2  N   LEU B   3     -19.612 -24.757 -29.306  1.00 21.09 LIG-0.35  N 
ATOM      3  C   ARG B   2     -19.978 -25.589 -30.277  1.00 20.79 LIG 0.24  C 
ATOM      4 O    ARG B   2     -20.042 -25.259 -31.480  1.00 18.81 LIG-0.27  OA
ATOM      5 H    LEU B   3     -19.512 -24.989 -28.484  1.00 21.09 LIG 0.16  HD
BRANCH 3 6
ATOM      6  CA  ARG B   2     -20.401 -26.979 -29.819  1.00 21.42 LIG 0.18  C 
BRANCH 6 7
ATOM      7  CB  ARG B   2     -21.696 -27.459 -30.484  1.00 36.36 LIG 0.04  C 
BRANCH 7 8
ATOM      8  CG  ARG B   2     -21.669 -28.947 -30.776  1.00 41.67 LIG 0.02  C 
BRANCH 8 9
ATOM      9  CD  ARG B   2     -20.261 -29.487 -31.034  1.00 51.14 LIG 0.14  C 
BRANCH 9 10
ATOM     10  NE  ARG B   2     -20.074 -29.877 -32.444  1.00 53.41 LIG-0.23  N 
ATOM     11 HE   ARG B   2     -20.780 -29.951 -32.930  1.00 53.41 LIG 0.18  HD
ATOM     12  CZ  ARG B   2     -18.897 -30.126 -33.031  1.00 50.83 LIG 0.67  C 
ATOM     13  NH1 ARG B   2     -17.766 -30.034 -32.343  1.00 40.00 LIG-0.23  N 
ATOM     14  NH2 ARG B   2     -18.858 -30.480 -34.317  1.00 54.23 LIG-0.23  N 
ATOM     15 1HH1 ARG B   2     -17.785 -29.814 -31.513  1.00 40.00 LIG 0.17  HD
ATOM     16 2HH1 ARG B   2     -17.014 -30.196 -32.729  1.00 40.00 LIG 0.17  HD
ATOM     17 1HH2 ARG B   2     -19.587 -30.548 -34.767  1.00 54.23 LIG 0.17  HD
ATOM     18 2HH2 ARG B   2     -18.103 -30.640 -34.695  1.00 54.23 LIG 0.17  HD
ENDBRANCH 9 10
ENDBRANCH 8 9
ENDBRANCH 7 8
ENDBRANCH 6 7
BRANCH 6 19
ATOM     19  N   ARG B   2     -20.521 -26.955 -28.378  1.00 29.89 LIG-0.35  N 
ATOM     20  C   ASN B   1     -21.529 -26.318 -27.797  1.00 39.87 LIG 0.25  C 
ATOM     21 O    ASN B   1     -22.207 -25.466 -28.386  1.00 37.46 LIG-0.27  OA
ATOM     22 H    ARG B   2     -19.901 -27.377 -27.955  1.00 29.89 LIG 0.16  HD
BRANCH 20 23
ATOM     23  CA  ASN B   1     -21.800 -26.696 -26.330  1.00 47.73 LIG 0.28  C 
BRANCH 23 24
ATOM     24  N   ASN B   1     -21.067 -27.847 -25.863  1.00 51.86 LIG-0.07  N 
ATOM     25 H3   ASN B   1     -21.615 -28.386 -25.415  1.00 51.86 LIG 0.28  HD
ATOM     26 H1   ASN B   1     -20.725 -28.283 -26.559  1.00 51.86 LIG 0.28  HD
ATOM     27 H2   ASN B   1     -20.409 -27.582 -25.326  1.00 51.86 LIG 0.28  HD
ENDBRANCH 23 24
BRANCH 23 28
ATOM     28  CB  ASN B   1     -21.524 -25.555 -25.372  1.00 49.79 LIG 0.14  C 
BRANCH 28 29
ATOM     29  CG  ASN B   1     -22.576 -24.477 -25.485  1.00 59.47 LIG 0.22  C 
ATOM     30  ND2 ASN B   1     -22.229 -23.250 -25.078  1.00 63.81 LIG-0.37  N 
ATOM     31 21HD ASN B   1     -22.803 -22.611 -25.103  1.00 63.81 LIG 0.16  HD
ATOM     32 22HD ASN B   1     -21.432 -23.102 -24.793  1.00 63.81 LIG 0.16  HD
ATOM     33 OD1  ASN B   1     -23.700 -24.744 -25.901  1.00 60.25 LIG-0.27  OA
ENDBRANCH 28 29
ENDBRANCH 23 28
ENDBRANCH 20 23
ENDBRANCH 6 19
ENDBRANCH 3 6
ENDBRANCH 1 2
BRANCH 1 34
ATOM     34  CB  LEU B   3     -20.575 -22.530 -29.132  1.00 28.79 LIG 0.04  C 
BRANCH 34 35
ATOM     35  CG  LEU B   3     -20.928 -21.483 -30.194  1.00 33.15 LIG-0.02  C 
ATOM     36  CD2 LEU B   3     -22.305 -21.793 -30.765  1.00 30.13 LIG 0.01  C 
ATOM     37  CD1 LEU B   3     -19.887 -21.367 -31.346  1.00 27.67 LIG 0.01  C 
ENDBRANCH 34 35
ENDBRANCH 1 34
BRANCH 1 38
ATOM     38  C   LEU B   3     -18.075 -22.918 -28.913  1.00 20.33 LIG 0.24  C 
ATOM     39  N   LEU B   4     -17.065 -22.660 -29.737  1.00 23.83 LIG-0.35  N 
ATOM     40 H    LEU B   4     -17.103 -22.746 -30.592  1.00 23.83 LIG 0.16  HD
ATOM     41 O    LEU B   3     -17.988 -22.775 -27.696  1.00 22.70 LIG-0.27  OA
BRANCH 39 42
ATOM     42  CA  LEU B   4     -15.779 -22.200 -29.226  1.00 22.91 LIG 0.18  C 
BRANCH 42 43
ATOM     43  C   LEU B   4     -15.428 -20.880 -29.920  1.00 30.74 LIG 0.24  C 
ATOM     44 O    LEU B   4     -14.228 -20.567 -30.162  1.00 30.11 LIG-0.27  OA
ATOM     45  N   LEU B   5     -16.434 -20.071 -30.222  1.00 32.41 LIG-0.35  N 
ATOM     46 H    LEU B   5     -17.270 -20.257 -30.141  1.00 32.41 LIG 0.16  HD
BRANCH 45 47
ATOM     47  CA  LEU B   5     -16.121 -18.734 -30.743  1.00 35.50 LIG 0.18  C 
BRANCH 47 48
ATOM     48  C   LEU B   5     -15.559 -17.847 -29.637  1.00 33.38 LIG 0.24  C 
ATOM     49 O    LEU B   5     -14.603 -17.070 -29.853  1.00 25.58 LIG-0.27  OA
ATOM     50  N   THR B   6     -16.163 -17.982 -28.461  1.00 32.99 LIG-0.34  N 
ATOM     51 H    THR B   6     -16.902 -18.411 -28.363  1.00 32.99 LIG 0.16  HD
BRANCH 50 52
ATOM     52  CA  THR B   6     -15.650 -17.427 -27.215  1.00 39.09 LIG 0.19  C 
BRANCH 52 53
ATOM     53  CB  THR B   6     -14.146 -17.769 -27.040  1.00 66.99 LIG 0.14  C 
ATOM     54  CG2 THR B   6     -13.586 -17.129 -25.785  1.00 64.52 LIG 0.04  C 
BRANCH 53 55
ATOM     55 OG1  THR B   6     -13.977 -19.197 -26.941  1.00 68.32 LIG-0.39  OA
ATOM     56 HG1  THR B   6     -14.677 -19.541 -26.629  1.00 68.32 LIG 0.21  HD
ENDBRANCH 53 55
ENDBRANCH 52 53
BRANCH 52 57
ATOM     57  C   THR B   6     -15.805 -15.900 -27.255  1.00 46.48 LIG 0.22  C 
ATOM     58 O    THR B   6     -16.928 -15.377 -27.323  1.00 50.47 LIG-0.29  OA
ENDBRANCH 52 57
ENDBRANCH 50 52
ENDBRANCH 47 48
BRANCH 47 59
ATOM     59  CB  LEU B   5     -17.362 -18.060 -31.316  1.00 41.25 LIG 0.04  C 
BRANCH 59 60
ATOM     60  CG  LEU B   5     -17.166 -16.854 -32.220  1.00 47.99 LIG-0.02  C 
ATOM     61  CD2 LEU B   5     -15.789 -16.873 -32.825  1.00 50.88 LIG 0.01  C 
ATOM     62  CD1 LEU B   5     -17.351 -15.606 -31.383  1.00 54.72 LIG 0.01  C 
ENDBRANCH 59 60
ENDBRANCH 47 59
ENDBRANCH 45 47
ENDBRANCH 42 43
BRANCH 42 63
ATOM     63  CB  LEU B   4     -14.736 -23.229 -29.614  1.00 23.96 LIG 0.04  C 
BRANCH 63 64
ATOM     64  CG  LEU B   4     -13.626 -23.674 -28.688  1.00 38.52 LIG-0.02  C 
ATOM     65  CD1 LEU B   4     -13.604 -22.876 -27.436  1.00 46.71 LIG 0.01  C 
ATOM     66  CD2 LEU B   4     -13.787 -25.178 -28.416  1.00 36.33 LIG 0.01  C 
ENDBRANCH 63 64
ENDBRANCH 42 63
ENDBRANCH 39 42
ENDBRANCH 1 38
TORSDOF 26
ENDMDL
MODEL 96
USER: ADFR SOLUTION from run 67
USER: SCORE 22.145502 LL:  -4.719 LR: -18.376 RR:   0.000 FEB: -10.620
USER: RMSD 10.796472
USER: SEED 66
USER: STATUS no improvement in best in 4 clusters for 5 generations
USER: GENES 28
USER: genes 0 Translation |==|  0.56778 0.54354 0.47696
USER: genes 1 Rotation |==|  0.75138 0.24483 0.15119 0.50562
USER: genes 2 Torsion [C]-CA--N-[C] |==|  0.78180
USER: genes 3 Torsion [N]-C--CA-[N] |==|  0.02729
USER: genes 4 Torsion [C]-CA--CB-[CG] |==|  0.26319
USER: genes 5 Torsion [CA]-CB--CG-[CD] |==|  0.22574
USER: genes 6 Torsion [CB]-CG--CD-[NE] |==|  0.86717
USER: genes 7 Torsion [CG]-CD--NE-[HE] |==|  0.83759
USER: genes 8 Torsion [C]-CA--N-[C] |==|  0.21088
USER: genes 9 Torsion [N]-C--CA-[N] |==|  0.32485
USER: genes 10 Torsion [C]-CA--N-[H3] |==|  0.03892
USER: genes 11 Torsion [C]-CA--CB-[CG] |==|  0.24618
USER: genes 12 Torsion [CA]-CB--CG-[ND2] |==|  0.39672
USER: genes 13 Torsion [N]-CA--CB-[CG] |==|  0.67997
USER: genes 14 Torsion [CA]-CB--CG-[CD1] |==|  0.90550
USER: genes 15 Torsion [N]-CA--C-[N] |==|  0.42879
USER: genes 16 Torsion [C]-N--CA-[CB] |==|  0.84778
USER: genes 17 Torsion [N]-CA--C-[N] |==|  0.46659
USER: genes 18 Torsion [C]-N--CA-[C] |==|  0.75780
USER: genes 19 Torsion [N]-CA--C-[N] |==|  0.99927
USER: genes 20 Torsion [C]-N--CA-[C] |==|  0.15233
USER: genes 21 Torsion [N]-CA--CB-[CG2] |==|  0.53830
USER: genes 22 Torsion [CA]-CB--OG1-[HG1] |==|  0.74247
USER: genes 23 Torsion [N]-CA--C-[O] |==|  0.65481
USER: genes 24 Torsion [N]-CA--CB-[CG] |==|  0.72128
USER: genes 25 Torsion [CA]-CB--CG-[CD2] |==|  0.36681
USER: genes 26 Torsion [N]-CA--CB-[CG] |==|  0.55402
USER: genes 27 Torsion [CA]-CB--CG-[CD1] |==|  0.20472
ROOT
ATOM      1  CA  LEU B   3     -16.424 -21.793 -28.801  1.00 17.18 LIG 0.18  C 
ENDROOT
BRANCH 1 2
ATOM      2  N   LEU B   3     -16.342 -20.431 -28.429  1.00 21.09 LIG-0.35  N 
ATOM      3  C   ARG B   2     -16.500 -19.458 -29.323  1.00 20.79 LIG 0.24  C 
ATOM      4 O    ARG B   2     -16.810 -19.663 -30.515  1.00 18.81 LIG-0.27  OA
ATOM      5 H    LEU B   3     -16.183 -20.297 -27.595  1.00 21.09 LIG 0.16  HD
BRANCH 3 6
ATOM      6  CA  ARG B   2     -16.200 -18.053 -28.818  1.00 21.42 LIG 0.18  C 
BRANCH 6 7
ATOM      7  CB  ARG B   2     -15.325 -17.246 -29.784  1.00 36.36 LIG 0.04  C 
BRANCH 7 8
ATOM      8  CG  ARG B   2     -16.154 -16.379 -30.713  1.00 41.67 LIG 0.02  C 
BRANCH 8 9
ATOM      9  CD  ARG B   2     -16.606 -15.066 -30.071  1.00 51.14 LIG 0.14  C 
BRANCH 9 10
ATOM     10  NE  ARG B   2     -17.183 -15.280 -28.731  1.00 53.41 LIG-0.23  N 
ATOM     11 HE   ARG B   2     -17.863 -15.804 -28.675  1.00 53.41 LIG 0.18  HD
ATOM     12  CZ  ARG B   2     -16.738 -14.729 -27.596  1.00 50.83 LIG 0.67  C 
ATOM     13  NH1 ARG B   2     -15.695 -13.909 -27.607  1.00 40.00 LIG-0.23  N 
ATOM     14  NH2 ARG B   2     -17.352 -14.995 -26.442  1.00 54.23 LIG-0.23  N 
ATOM     15 1HH1 ARG B   2     -15.299 -13.727 -28.349  1.00 40.00 LIG 0.17  HD
ATOM     16 2HH1 ARG B   2     -15.415 -13.559 -26.873  1.00 40.00 LIG 0.17  HD
ATOM     17 1HH2 ARG B   2     -18.033 -15.520 -26.428  1.00 54.23 LIG 0.17  HD
ATOM     18 2HH2 ARG B   2     -17.067 -14.642 -25.712  1.00 54.23 LIG 0.17  HD
ENDBRANCH 9 10
ENDBRANCH 8 9
ENDBRANCH 7 8
ENDBRANCH 6 7
BRANCH 6 19
ATOM     19  N   ARG B   2     -15.582 -18.171 -27.515  1.00 29.89 LIG-0.35  N 
ATOM     20  C   ASN B   1     -14.315 -18.545 -27.403  1.00 39.87 LIG 0.25  C 
ATOM     21 O    ASN B   1     -13.703 -19.114 -28.318  1.00 37.46 LIG-0.27  OA
ATOM     22 H    ARG B   2     -16.096 -17.983 -26.851  1.00 29.89 LIG 0.16  HD
BRANCH 20 23
ATOM     23  CA  ASN B   1     -13.645 -18.240 -26.051  1.00 47.73 LIG 0.28  C 
BRANCH 23 24
ATOM     24  N   ASN B   1     -13.222 -19.406 -25.315  1.00 51.86 LIG-0.07  N 
ATOM     25 H3   ASN B   1     -13.234 -20.116 -25.852  1.00 51.86 LIG 0.28  HD
ATOM     26 H1   ASN B   1     -12.396 -19.280 -25.008  1.00 51.86 LIG 0.28  HD
ATOM     27 H2   ASN B   1     -13.775 -19.542 -24.631  1.00 51.86 LIG 0.28  HD
ENDBRANCH 23 24
BRANCH 23 28
ATOM     28  CB  ASN B   1     -12.448 -17.321 -26.186  1.00 49.79 LIG 0.14  C 
BRANCH 28 29
ATOM     29  CG  ASN B   1     -12.857 -15.870 -26.106  1.00 59.47 LIG 0.22  C 
ATOM     30  ND2 ASN B   1     -12.022 -15.041 -25.469  1.00 63.81 LIG-0.37  N 
ATOM     31 21HD ASN B   1     -12.225 -14.211 -25.380  1.00 63.81 LIG 0.16  HD
ATOM     32 22HD ASN B   1     -11.281 -15.340 -25.150  1.00 63.81 LIG 0.16  HD
ATOM     33 OD1  ASN B   1     -13.927 -15.497 -26.581  1.00 60.25 LIG-0.27  OA
ENDBRANCH 28 29
ENDBRANCH 23 28
ENDBRANCH 20 23
ENDBRANCH 6 19
ENDBRANCH 3 6
ENDBRANCH 1 2
BRANCH 1 34
ATOM     34  CB  LEU B   3     -15.648 -22.669 -27.778  1.00 28.79 LIG 0.04  C 
BRANCH 34 35
ATOM     35  CG  LEU B   3     -14.443 -23.355 -28.430  1.00 33.15 LIG-0.02  C 
ATOM     36  CD2 LEU B   3     -13.225 -22.447 -28.313  1.00 30.13 LIG 0.01  C 
ATOM     37  CD1 LEU B   3     -14.666 -23.759 -29.917  1.00 27.67 LIG 0.01  C 
ENDBRANCH 34 35
ENDBRANCH 1 34
BRANCH 1 38
ATOM     38  C   LEU B   3     -17.857 -22.254 -28.960  1.00 20.33 LIG 0.24  C 
ATOM     39  N   LEU B   4     -18.047 -23.282 -29.780  1.00 23.83 LIG-0.35  N 
ATOM     40 H    LEU B   4     -17.418 -23.683 -30.208  1.00 23.83 LIG 0.16  HD
ATOM     41 O    LEU B   3     -18.778 -21.710 -28.357  1.00 22.70 LIG-0.27  OA
BRANCH 39 42
ATOM     42  CA  LEU B   4     -19.383 -23.816 -30.016  1.00 22.91 LIG 0.18  C 
BRANCH 42 43
ATOM     43  C   LEU B   4     -20.238 -22.715 -30.652  1.00 30.74 LIG 0.24  C 
ATOM     44 O    LEU B   4     -19.856 -21.511 -30.657  1.00 30.11 LIG-0.27  OA
ATOM     45  N   LEU B   5     -21.406 -23.078 -31.163  1.00 32.41 LIG-0.35  N 
ATOM     46 H    LEU B   5     -21.688 -23.886 -31.247  1.00 32.41 LIG 0.16  HD
BRANCH 45 47
ATOM     47  CA  LEU B   5     -22.316 -22.027 -31.637  1.00 35.50 LIG 0.18  C 
BRANCH 47 48
ATOM     48  C   LEU B   5     -23.191 -21.522 -30.496  1.00 33.38 LIG 0.24  C 
ATOM     49 O    LEU B   5     -24.033 -20.616 -30.678  1.00 25.58 LIG-0.27  OA
ATOM     50  N   THR B   6     -22.972 -22.117 -29.327  1.00 32.99 LIG-0.34  N 
ATOM     51 H    THR B   6     -22.495 -22.828 -29.249  1.00 32.99 LIG 0.16  HD
BRANCH 50 52
ATOM     52  CA  THR B   6     -23.508 -21.640 -28.060  1.00 39.09 LIG 0.19  C 
BRANCH 52 53
ATOM     53  CB  THR B   6     -22.919 -20.248 -27.703  1.00 66.99 LIG 0.14  C 
ATOM     54  CG2 THR B   6     -23.197 -19.896 -26.255  1.00 64.52 LIG 0.04  C 
BRANCH 53 55
ATOM     55 OG1  THR B   6     -21.493 -20.253 -27.910  1.00 68.32 LIG-0.39  OA
ATOM     56 HG1  THR B   6     -21.106 -20.455 -27.192  1.00 68.32 LIG 0.21  HD
ENDBRANCH 53 55
ENDBRANCH 52 53
BRANCH 52 57
ATOM     57  C   THR B   6     -25.033 -21.511 -28.186  1.00 46.48 LIG 0.22  C 
ATOM     58 O    THR B   6     -25.601 -20.435 -27.943  1.00 50.47 LIG-0.29  OA
ENDBRANCH 52 57
ENDBRANCH 50 52
ENDBRANCH 47 48
BRANCH 47 59
ATOM     59  CB  LEU B   5     -23.223 -22.543 -32.747  1.00 41.25 LIG 0.04  C 
BRANCH 59 60
ATOM     60  CG  LEU B   5     -22.860 -22.201 -34.183  1.00 47.99 LIG-0.02  C 
ATOM     61  CD2 LEU B   5     -22.919 -23.433 -35.044  1.00 50.88 LIG 0.01  C 
ATOM     62  CD1 LEU B   5     -21.457 -21.629 -34.188  1.00 54.72 LIG 0.01  C 
ENDBRANCH 59 60
ENDBRANCH 47 59
ENDBRANCH 45 47
ENDBRANCH 42 43
BRANCH 42 63
ATOM     63  CB  LEU B   4     -19.984 -24.161 -28.668  1.00 23.96 LIG 0.04  C 
BRANCH 63 64
ATOM     64  CG  LEU B   4     -21.149 -25.111 -28.498  1.00 38.52 LIG-0.02  C 
ATOM     65  CD1 LEU B   4     -20.740 -26.523 -28.704  1.00 46.71 LIG 0.01  C 
ATOM     66  CD2 LEU B   4     -21.771 -24.882 -27.112  1.00 36.33 LIG 0.01  C 
ENDBRANCH 63 64
ENDBRANCH 42 63
ENDBRANCH 39 42
ENDBRANCH 1 38
TORSDOF 26
ENDMDL
MODEL 97
USER: ADFR SOLUTION from run 112
USER: SCORE 22.201531 LL:  -4.375 LR: -18.373 RR:   0.000 FEB: -10.617
USER: RMSD 11.116664
USER: SEED 111
USER: STATUS searching
USER: GENES 28
USER: genes 0 Translation |==|  0.59273 0.55178 0.48390
USER: genes 1 Rotation |==|  0.27555 0.75273 0.85915 0.58221
USER: genes 2 Torsion [C]-CA--N-[C] |==|  0.80993
USER: genes 3 Torsion [N]-C--CA-[N] |==|  0.37372
USER: genes 4 Torsion [C]-CA--CB-[CG] |==|  0.75775
USER: genes 5 Torsion [CA]-CB--CG-[CD] |==|  0.46636
USER: genes 6 Torsion [CB]-CG--CD-[NE] |==|  0.24021
USER: genes 7 Torsion [CG]-CD--NE-[HE] |==|  0.74202
USER: genes 8 Torsion [C]-CA--N-[C] |==|  0.84817
USER: genes 9 Torsion [N]-C--CA-[N] |==|  0.34007
USER: genes 10 Torsion [C]-CA--N-[H3] |==|  0.84213
USER: genes 11 Torsion [C]-CA--CB-[CG] |==|  0.13293
USER: genes 12 Torsion [CA]-CB--CG-[ND2] |==|  0.17096
USER: genes 13 Torsion [N]-CA--CB-[CG] |==|  0.69650
USER: genes 14 Torsion [CA]-CB--CG-[CD1] |==|  0.51359
USER: genes 15 Torsion [N]-CA--C-[N] |==|  0.43333
USER: genes 16 Torsion [C]-N--CA-[CB] |==|  0.54085
USER: genes 17 Torsion [N]-CA--C-[N] |==|  0.40045
USER: genes 18 Torsion [C]-N--CA-[C] |==|  0.81660
USER: genes 19 Torsion [N]-CA--C-[N] |==|  0.32947
USER: genes 20 Torsion [C]-N--CA-[C] |==|  0.63161
USER: genes 21 Torsion [N]-CA--CB-[CG2] |==|  0.89524
USER: genes 22 Torsion [CA]-CB--OG1-[HG1] |==|  0.25161
USER: genes 23 Torsion [N]-CA--C-[O] |==|  0.12617
USER: genes 24 Torsion [N]-CA--CB-[CG] |==|  0.60835
USER: genes 25 Torsion [CA]-CB--CG-[CD2] |==|  0.58501
USER: genes 26 Torsion [N]-CA--CB-[CG] |==|  0.63113
USER: genes 27 Torsion [CA]-CB--CG-[CD1] |==|  0.69136
ROOT
ATOM      1  CA  LEU B   3     -15.807 -21.589 -28.655  1.00 17.18 LIG 0.18  C 
ENDROOT
BRANCH 1 2
ATOM      2  N   LEU B   3     -15.385 -20.409 -27.999  1.00 21.09 LIG-0.35  N 
ATOM      3  C   ARG B   2     -15.353 -19.239 -28.631  1.00 20.79 LIG 0.24  C 
ATOM      4 O    ARG B   2     -15.761 -19.077 -29.800  1.00 18.81 LIG-0.27  OA
ATOM      5 H    LEU B   3     -15.158 -20.518 -27.177  1.00 21.09 LIG 0.16  HD
BRANCH 3 6
ATOM      6  CA  ARG B   2     -14.703 -18.098 -27.859  1.00 21.42 LIG 0.18  C 
BRANCH 6 7
ATOM      7  CB  ARG B   2     -15.725 -17.144 -27.231  1.00 36.36 LIG 0.04  C 
BRANCH 7 8
ATOM      8  CG  ARG B   2     -16.143 -16.046 -28.190  1.00 41.67 LIG 0.02  C 
BRANCH 8 9
ATOM      9  CD  ARG B   2     -17.364 -15.258 -27.711  1.00 51.14 LIG 0.14  C 
BRANCH 9 10
ATOM     10  NE  ARG B   2     -16.984 -14.145 -26.822  1.00 53.41 LIG-0.23  N 
ATOM     11 HE   ARG B   2     -16.981 -14.300 -25.976  1.00 53.41 LIG 0.18  HD
ATOM     12  CZ  ARG B   2     -16.644 -12.913 -27.221  1.00 50.83 LIG 0.67  C 
ATOM     13  NH1 ARG B   2     -16.629 -12.601 -28.511  1.00 40.00 LIG-0.23  N 
ATOM     14  NH2 ARG B   2     -16.327 -11.985 -26.317  1.00 54.23 LIG-0.23  N 
ATOM     15 1HH1 ARG B   2     -16.840 -13.192 -29.099  1.00 40.00 LIG 0.17  HD
ATOM     16 2HH1 ARG B   2     -16.410 -11.807 -28.759  1.00 40.00 LIG 0.17  HD
ATOM     17 1HH2 ARG B   2     -16.341 -12.178 -25.479  1.00 54.23 LIG 0.17  HD
ATOM     18 2HH2 ARG B   2     -16.108 -11.194 -26.572  1.00 54.23 LIG 0.17  HD
ENDBRANCH 9 10
ENDBRANCH 8 9
ENDBRANCH 7 8
ENDBRANCH 6 7
BRANCH 6 19
ATOM     19  N   ARG B   2     -13.812 -17.402 -28.762  1.00 29.89 LIG-0.35  N 
ATOM     20  C   ASN B   1     -12.866 -18.062 -29.416  1.00 39.87 LIG 0.25  C 
ATOM     21 O    ASN B   1     -12.477 -19.185 -29.071  1.00 37.46 LIG-0.27  OA
ATOM     22 H    ARG B   2     -13.952 -16.555 -28.828  1.00 29.89 LIG 0.16  HD
BRANCH 20 23
ATOM     23  CA  ASN B   1     -12.266 -17.336 -30.634  1.00 47.73 LIG 0.28  C 
BRANCH 23 24
ATOM     24  N   ASN B   1     -10.838 -17.145 -30.573  1.00 51.86 LIG-0.07  N 
ATOM     25 H3   ASN B   1     -10.630 -16.698 -29.832  1.00 51.86 LIG 0.28  HD
ATOM     26 H1   ASN B   1     -10.433 -17.937 -30.565  1.00 51.86 LIG 0.28  HD
ATOM     27 H2   ASN B   1     -10.570 -16.681 -31.284  1.00 51.86 LIG 0.28  HD
ENDBRANCH 23 24
BRANCH 23 28
ATOM     28  CB  ASN B   1     -12.582 -18.032 -31.942  1.00 49.79 LIG 0.14  C 
BRANCH 28 29
ATOM     29  CG  ASN B   1     -14.048 -18.381 -32.039  1.00 59.47 LIG 0.22  C 
ATOM     30  ND2 ASN B   1     -14.914 -17.361 -32.012  1.00 63.81 LIG-0.37  N 
ATOM     31 21HD ASN B   1     -15.759 -17.514 -32.042  1.00 63.81 LIG 0.16  HD
ATOM     32 22HD ASN B   1     -14.624 -16.553 -31.967  1.00 63.81 LIG 0.16  HD
ATOM     33 OD1  ASN B   1     -14.407 -19.553 -32.104  1.00 60.25 LIG-0.27  OA
ENDBRANCH 28 29
ENDBRANCH 23 28
ENDBRANCH 20 23
ENDBRANCH 6 19
ENDBRANCH 3 6
ENDBRANCH 1 2
BRANCH 1 34
ATOM     34  CB  LEU B   3     -15.428 -22.832 -27.802  1.00 28.79 LIG 0.04  C 
BRANCH 34 35
ATOM     35  CG  LEU B   3     -14.296 -23.634 -28.453  1.00 33.15 LIG-0.02  C 
ATOM     36  CD2 LEU B   3     -14.658 -23.925 -29.904  1.00 30.13 LIG 0.01  C 
ATOM     37  CD1 LEU B   3     -13.945 -24.959 -27.715  1.00 27.67 LIG 0.01  C 
ENDBRANCH 34 35
ENDBRANCH 1 34
BRANCH 1 38
ATOM     38  C   LEU B   3     -17.284 -21.562 -28.982  1.00 20.33 LIG 0.24  C 
ATOM     39  N   LEU B   4     -17.669 -22.340 -29.989  1.00 23.83 LIG-0.35  N 
ATOM     40 H    LEU B   4     -17.138 -22.839 -30.445  1.00 23.83 LIG 0.16  HD
ATOM     41 O    LEU B   3     -18.071 -20.868 -28.345  1.00 22.70 LIG-0.27  OA
BRANCH 39 42
ATOM     42  CA  LEU B   4     -19.067 -22.398 -30.399  1.00 22.91 LIG 0.18  C 
BRANCH 42 43
ATOM     43  C   LEU B   4     -19.929 -22.602 -29.150  1.00 30.74 LIG 0.24  C 
ATOM     44 O    LEU B   4     -19.543 -23.343 -28.202  1.00 30.11 LIG-0.27  OA
ATOM     45  N   LEU B   5     -21.108 -21.996 -29.125  1.00 32.41 LIG-0.35  N 
ATOM     46 H    LEU B   5     -21.394 -21.431 -29.707  1.00 32.41 LIG 0.16  HD
BRANCH 45 47
ATOM     47  CA  LEU B   5     -22.022 -22.296 -28.016  1.00 35.50 LIG 0.18  C 
BRANCH 47 48
ATOM     48  C   LEU B   5     -22.482 -23.748 -28.080  1.00 33.38 LIG 0.24  C 
ATOM     49 O    LEU B   5     -23.129 -24.180 -29.059  1.00 25.58 LIG-0.27  OA
ATOM     50  N   THR B   6     -22.143 -24.482 -27.025  1.00 32.99 LIG-0.34  N 
ATOM     51 H    THR B   6     -21.582 -24.212 -26.431  1.00 32.99 LIG 0.16  HD
BRANCH 50 52
ATOM     52  CA  THR B   6     -22.673 -25.812 -26.755  1.00 39.09 LIG 0.19  C 
BRANCH 52 53
ATOM     53  CB  THR B   6     -21.589 -26.896 -27.001  1.00 66.99 LIG 0.14  C 
ATOM     54  CG2 THR B   6     -20.732 -26.544 -28.201  1.00 64.52 LIG 0.04  C 
BRANCH 53 55
ATOM     55 OG1  THR B   6     -20.736 -27.006 -25.844  1.00 68.32 LIG-0.39  OA
ATOM     56 HG1  THR B   6     -21.048 -27.583 -25.320  1.00 68.32 LIG 0.21  HD
ENDBRANCH 53 55
ENDBRANCH 52 53
BRANCH 52 57
ATOM     57  C   THR B   6     -23.111 -25.879 -25.285  1.00 46.48 LIG 0.22  C 
ATOM     58 O    THR B   6     -23.770 -24.960 -24.776  1.00 50.47 LIG-0.29  OA
ENDBRANCH 52 57
ENDBRANCH 50 52
ENDBRANCH 47 48
BRANCH 47 59
ATOM     59  CB  LEU B   5     -23.254 -21.400 -28.058  1.00 41.25 LIG 0.04  C 
BRANCH 59 60
ATOM     60  CG  LEU B   5     -23.802 -20.878 -26.740  1.00 47.99 LIG-0.02  C 
ATOM     61  CD2 LEU B   5     -25.291 -20.690 -26.832  1.00 50.88 LIG 0.01  C 
ATOM     62  CD1 LEU B   5     -23.127 -19.556 -26.441  1.00 54.72 LIG 0.01  C 
ENDBRANCH 59 60
ENDBRANCH 47 59
ENDBRANCH 45 47
ENDBRANCH 42 43
BRANCH 42 63
ATOM     63  CB  LEU B   4     -19.232 -23.611 -31.292  1.00 23.96 LIG 0.04  C 
BRANCH 63 64
ATOM     64  CG  LEU B   4     -19.961 -23.574 -32.617  1.00 38.52 LIG-0.02  C 
ATOM     65  CD1 LEU B   4     -21.236 -24.333 -32.563  1.00 46.71 LIG 0.01  C 
ATOM     66  CD2 LEU B   4     -20.176 -22.106 -33.018  1.00 36.33 LIG 0.01  C 
ENDBRANCH 63 64
ENDBRANCH 42 63
ENDBRANCH 39 42
ENDBRANCH 1 38
TORSDOF 26
ENDMDL
MODEL 98
USER: ADFR SOLUTION from run 82
USER: SCORE 21.229582 LL:  -5.061 LR: -18.353 RR:   0.000 FEB: -10.597
USER: RMSD 11.738319
USER: SEED 81
USER: STATUS no improvement in best in 14 clusters for 5 generations
USER: GENES 28
USER: genes 0 Translation |==|  0.54861 0.58029 0.44909
USER: genes 1 Rotation |==|  0.77876 0.22800 0.18664 0.51066
USER: genes 2 Torsion [C]-CA--N-[C] |==|  0.78163
USER: genes 3 Torsion [N]-C--CA-[N] |==|  0.16667
USER: genes 4 Torsion [C]-CA--CB-[CG] |==|  0.83805
USER: genes 5 Torsion [CA]-CB--CG-[CD] |==|  0.49349
USER: genes 6 Torsion [CB]-CG--CD-[NE] |==|  0.81924
USER: genes 7 Torsion [CG]-CD--NE-[HE] |==|  0.05813
USER: genes 8 Torsion [C]-CA--N-[C] |==|  0.77217
USER: genes 9 Torsion [N]-C--CA-[N] |==|  0.65599
USER: genes 10 Torsion [C]-CA--N-[H3] |==|  0.91183
USER: genes 11 Torsion [C]-CA--CB-[CG] |==|  0.80908
USER: genes 12 Torsion [CA]-CB--CG-[ND2] |==|  0.33221
USER: genes 13 Torsion [N]-CA--CB-[CG] |==|  0.61973
USER: genes 14 Torsion [CA]-CB--CG-[CD1] |==|  0.06544
USER: genes 15 Torsion [N]-CA--C-[N] |==|  0.39151
USER: genes 16 Torsion [C]-N--CA-[CB] |==|  0.39513
USER: genes 17 Torsion [N]-CA--C-[N] |==|  0.51207
USER: genes 18 Torsion [C]-N--CA-[C] |==|  0.71044
USER: genes 19 Torsion [N]-CA--C-[N] |==|  0.44003
USER: genes 20 Torsion [C]-N--CA-[C] |==|  0.18626
USER: genes 21 Torsion [N]-CA--CB-[CG2] |==|  0.51081
USER: genes 22 Torsion [CA]-CB--OG1-[HG1] |==|  0.34368
USER: genes 23 Torsion [N]-CA--C-[O] |==|  0.31826
USER: genes 24 Torsion [N]-CA--CB-[CG] |==|  0.63828
USER: genes 25 Torsion [CA]-CB--CG-[CD2] |==|  0.08039
USER: genes 26 Torsion [N]-CA--CB-[CG] |==|  0.56858
USER: genes 27 Torsion [CA]-CB--CG-[CD1] |==|  0.29035
ROOT
ATOM      1  CA  LEU B   3     -16.899 -20.884 -29.386  1.00 17.18 LIG 0.18  C 
ENDROOT
BRANCH 1 2
ATOM      2  N   LEU B   3     -16.908 -19.483 -29.187  1.00 21.09 LIG-0.35  N 
ATOM      3  C   ARG B   2     -16.967 -18.638 -30.213  1.00 20.79 LIG 0.24  C 
ATOM      4 O    ARG B   2     -17.100 -19.004 -31.400  1.00 18.81 LIG-0.27  OA
ATOM      5 H    LEU B   3     -16.873 -19.238 -28.363  1.00 21.09 LIG 0.16  HD
BRANCH 3 6
ATOM      6  CA  ARG B   2     -16.780 -17.168 -29.860  1.00 21.42 LIG 0.18  C 
BRANCH 6 7
ATOM      7  CB  ARG B   2     -16.948 -16.238 -31.066  1.00 36.36 LIG 0.04  C 
BRANCH 7 8
ATOM      8  CG  ARG B   2     -15.973 -16.569 -32.180  1.00 41.67 LIG 0.02  C 
BRANCH 8 9
ATOM      9  CD  ARG B   2     -16.154 -15.694 -33.422  1.00 51.14 LIG 0.14  C 
BRANCH 9 10
ATOM     10  NE  ARG B   2     -17.459 -15.924 -34.069  1.00 53.41 LIG-0.23  N 
ATOM     11 HE   ARG B   2     -18.081 -16.274 -33.589  1.00 53.41 LIG 0.18  HD
ATOM     12  CZ  ARG B   2     -17.757 -15.633 -35.341  1.00 50.83 LIG 0.67  C 
ATOM     13  NH1 ARG B   2     -16.847 -15.094 -36.141  1.00 40.00 LIG-0.23  N 
ATOM     14  NH2 ARG B   2     -18.976 -15.896 -35.815  1.00 54.23 LIG-0.23  N 
ATOM     15 1HH1 ARG B   2     -16.057 -14.928 -35.845  1.00 40.00 LIG 0.17  HD
ATOM     16 2HH1 ARG B   2     -17.046 -14.910 -36.958  1.00 40.00 LIG 0.17  HD
ATOM     17 1HH2 ARG B   2     -19.569 -16.252 -35.304  1.00 54.23 LIG 0.17  HD
ATOM     18 2HH2 ARG B   2     -19.168 -15.710 -36.632  1.00 54.23 LIG 0.17  HD
ENDBRANCH 9 10
ENDBRANCH 8 9
ENDBRANCH 7 8
ENDBRANCH 6 7
BRANCH 6 19
ATOM     19  N   ARG B   2     -15.476 -17.019 -29.252  1.00 29.89 LIG-0.35  N 
ATOM     20  C   ASN B   1     -15.297 -17.293 -27.967  1.00 39.87 LIG 0.25  C 
ATOM     21 O    ASN B   1     -16.235 -17.364 -27.163  1.00 37.46 LIG-0.27  OA
ATOM     22 H    ARG B   2     -14.857 -16.748 -29.784  1.00 29.89 LIG 0.16  HD
BRANCH 20 23
ATOM     23  CA  ASN B   1     -13.837 -17.509 -27.527  1.00 47.73 LIG 0.28  C 
BRANCH 23 24
ATOM     24  N   ASN B   1     -13.586 -18.775 -26.885  1.00 51.86 LIG-0.07  N 
ATOM     25 H3   ASN B   1     -14.313 -19.031 -26.440  1.00 51.86 LIG 0.28  HD
ATOM     26 H1   ASN B   1     -13.385 -19.386 -27.501  1.00 51.86 LIG 0.28  HD
ATOM     27 H2   ASN B   1     -12.906 -18.691 -26.318  1.00 51.86 LIG 0.28  HD
ENDBRANCH 23 24
BRANCH 23 28
ATOM     28  CB  ASN B   1     -12.856 -17.371 -28.673  1.00 49.79 LIG 0.14  C 
BRANCH 28 29
ATOM     29  CG  ASN B   1     -13.000 -18.507 -29.659  1.00 59.47 LIG 0.22  C 
ATOM     30  ND2 ASN B   1     -13.325 -18.179 -30.914  1.00 63.81 LIG-0.37  N 
ATOM     31 21HD ASN B   1     -13.440 -18.794 -31.503  1.00 63.81 LIG 0.16  HD
ATOM     32 22HD ASN B   1     -13.419 -17.352 -31.132  1.00 63.81 LIG 0.16  HD
ATOM     33 OD1  ASN B   1     -12.854 -19.670 -29.294  1.00 60.25 LIG-0.27  OA
ENDBRANCH 28 29
ENDBRANCH 23 28
ENDBRANCH 20 23
ENDBRANCH 6 19
ENDBRANCH 3 6
ENDBRANCH 1 2
BRANCH 1 34
ATOM     34  CB  LEU B   3     -16.248 -21.587 -28.162  1.00 28.79 LIG 0.04  C 
BRANCH 34 35
ATOM     35  CG  LEU B   3     -15.291 -22.700 -28.601  1.00 33.15 LIG-0.02  C 
ATOM     36  CD2 LEU B   3     -14.143 -22.796 -27.604  1.00 30.13 LIG 0.01  C 
ATOM     37  CD1 LEU B   3     -14.731 -22.529 -30.044  1.00 27.67 LIG 0.01  C 
ENDBRANCH 34 35
ENDBRANCH 1 34
BRANCH 1 38
ATOM     38  C   LEU B   3     -18.281 -21.426 -29.676  1.00 20.33 LIG 0.24  C 
ATOM     39  N   LEU B   4     -18.346 -22.386 -30.593  1.00 23.83 LIG-0.35  N 
ATOM     40 H    LEU B   4     -17.665 -22.701 -31.013  1.00 23.83 LIG 0.16  HD
ATOM     41 O    LEU B   3     -19.273 -21.006 -29.088  1.00 22.70 LIG-0.27  OA
BRANCH 39 42
ATOM     42  CA  LEU B   4     -19.623 -22.988 -30.960  1.00 22.91 LIG 0.18  C 
BRANCH 42 43
ATOM     43  C   LEU B   4     -19.744 -24.337 -30.244  1.00 30.74 LIG 0.24  C 
ATOM     44 O    LEU B   4     -18.851 -24.736 -29.445  1.00 30.11 LIG-0.27  OA
ATOM     45  N   LEU B   5     -20.809 -25.076 -30.527  1.00 32.41 LIG-0.35  N 
ATOM     46 H    LEU B   5     -21.477 -24.829 -31.009  1.00 32.41 LIG 0.16  HD
BRANCH 45 47
ATOM     47  CA  LEU B   5     -20.876 -26.437 -29.981  1.00 35.50 LIG 0.18  C 
BRANCH 47 48
ATOM     48  C   LEU B   5     -20.576 -27.464 -31.066  1.00 33.38 LIG 0.24  C 
ATOM     49 O    LEU B   5     -20.713 -27.186 -32.277  1.00 25.58 LIG-0.27  OA
ATOM     50  N   THR B   6     -20.173 -28.647 -30.611  1.00 32.99 LIG-0.34  N 
ATOM     51 H    THR B   6     -19.949 -28.778 -29.791  1.00 32.99 LIG 0.16  HD
BRANCH 50 52
ATOM     52  CA  THR B   6     -20.063 -29.841 -31.437  1.00 39.09 LIG 0.19  C 
BRANCH 52 53
ATOM     53  CB  THR B   6     -21.389 -30.103 -32.202  1.00 66.99 LIG 0.14  C 
ATOM     54  CG2 THR B   6     -21.315 -31.397 -32.989  1.00 64.52 LIG 0.04  C 
BRANCH 53 55
ATOM     55 OG1  THR B   6     -22.482 -30.195 -31.268  1.00 68.32 LIG-0.39  OA
ATOM     56 HG1  THR B   6     -23.073 -29.633 -31.470  1.00 68.32 LIG 0.21  HD
ENDBRANCH 53 55
ENDBRANCH 52 53
BRANCH 52 57
ATOM     57  C   THR B   6     -18.938 -29.632 -32.460  1.00 46.48 LIG 0.22  C 
ATOM     58 O    THR B   6     -17.909 -30.324 -32.423  1.00 50.47 LIG-0.29  OA
ENDBRANCH 52 57
ENDBRANCH 50 52
ENDBRANCH 47 48
BRANCH 47 59
ATOM     59  CB  LEU B   5     -22.257 -26.733 -29.407  1.00 41.25 LIG 0.04  C 
BRANCH 59 60
ATOM     60  CG  LEU B   5     -22.337 -27.316 -28.006  1.00 47.99 LIG-0.02  C 
ATOM     61  CD2 LEU B   5     -21.161 -26.867 -27.185  1.00 50.88 LIG 0.01  C 
ATOM     62  CD1 LEU B   5     -22.343 -28.826 -28.126  1.00 54.72 LIG 0.01  C 
ENDBRANCH 59 60
ENDBRANCH 47 59
ENDBRANCH 45 47
ENDBRANCH 42 43
BRANCH 42 63
ATOM     63  CB  LEU B   4     -19.596 -23.245 -32.453  1.00 23.96 LIG 0.04  C 
BRANCH 63 64
ATOM     64  CG  LEU B   4     -20.845 -23.341 -33.300  1.00 38.52 LIG-0.02  C 
ATOM     65  CD1 LEU B   4     -21.051 -22.116 -34.114  1.00 46.71 LIG 0.01  C 
ATOM     66  CD2 LEU B   4     -20.755 -24.607 -34.168  1.00 36.33 LIG 0.01  C 
ENDBRANCH 63 64
ENDBRANCH 42 63
ENDBRANCH 39 42
ENDBRANCH 1 38
TORSDOF 26
ENDMDL
MODEL 99
USER: ADFR SOLUTION from run 100
USER: SCORE 21.652652 LL:  -4.912 LR: -18.353 RR:   0.000 FEB: -10.597
USER: RMSD 4.963198
USER: SEED 99
USER: STATUS no improvement in best in 14 clusters for 5 generations
USER: GENES 28
USER: genes 0 Translation |==|  0.57696 0.52567 0.43367
USER: genes 1 Rotation |==|  0.11697 0.24647 0.61418 0.66116
USER: genes 2 Torsion [C]-CA--N-[C] |==|  0.76049
USER: genes 3 Torsion [N]-C--CA-[N] |==|  0.70216
USER: genes 4 Torsion [C]-CA--CB-[CG] |==|  0.42825
USER: genes 5 Torsion [CA]-CB--CG-[CD] |==|  0.78540
USER: genes 6 Torsion [CB]-CG--CD-[NE] |==|  0.66518
USER: genes 7 Torsion [CG]-CD--NE-[HE] |==|  0.03922
USER: genes 8 Torsion [C]-CA--N-[C] |==|  0.18332
USER: genes 9 Torsion [N]-C--CA-[N] |==|  0.42204
USER: genes 10 Torsion [C]-CA--N-[H3] |==|  0.15788
USER: genes 11 Torsion [C]-CA--CB-[CG] |==|  0.87692
USER: genes 12 Torsion [CA]-CB--CG-[ND2] |==|  0.78995
USER: genes 13 Torsion [N]-CA--CB-[CG] |==|  0.72589
USER: genes 14 Torsion [CA]-CB--CG-[CD1] |==|  0.48424
USER: genes 15 Torsion [N]-CA--C-[N] |==|  0.44334
USER: genes 16 Torsion [C]-N--CA-[CB] |==|  0.14902
USER: genes 17 Torsion [N]-CA--C-[N] |==|  0.66590
USER: genes 18 Torsion [C]-N--CA-[C] |==|  0.16504
USER: genes 19 Torsion [N]-CA--C-[N] |==|  0.06465
USER: genes 20 Torsion [C]-N--CA-[C] |==|  0.70831
USER: genes 21 Torsion [N]-CA--CB-[CG2] |==|  0.69316
USER: genes 22 Torsion [CA]-CB--OG1-[HG1] |==|  0.40189
USER: genes 23 Torsion [N]-CA--C-[O] |==|  0.89745
USER: genes 24 Torsion [N]-CA--CB-[CG] |==|  0.93856
USER: genes 25 Torsion [CA]-CB--CG-[CD2] |==|  0.70750
USER: genes 26 Torsion [N]-CA--CB-[CG] |==|  0.13603
USER: genes 27 Torsion [CA]-CB--CG-[CD1] |==|  0.36919
ROOT
ATOM      1  CA  LEU B   3     -16.197 -22.236 -29.710  1.00 17.18 LIG 0.18  C 
ENDROOT
BRANCH 1 2
ATOM      2  N   LEU B   3     -17.453 -22.826 -29.988  1.00 21.09 LIG-0.35  N 
ATOM      3  C   ARG B   2     -18.590 -22.217 -29.666  1.00 20.79 LIG 0.24  C 
ATOM      4 O    ARG B   2     -18.643 -21.068 -29.181  1.00 18.81 LIG-0.27  OA
ATOM      5 H    LEU B   3     -17.409 -23.594 -30.373  1.00 21.09 LIG 0.16  HD
BRANCH 3 6
ATOM      6  CA  ARG B   2     -19.852 -23.050 -29.854  1.00 21.42 LIG 0.18  C 
BRANCH 6 7
ATOM      7  CB  ARG B   2     -19.563 -24.548 -29.993  1.00 36.36 LIG 0.04  C 
BRANCH 7 8
ATOM      8  CG  ARG B   2     -20.742 -25.398 -29.559  1.00 41.67 LIG 0.02  C 
BRANCH 8 9
ATOM      9  CD  ARG B   2     -20.883 -25.505 -28.039  1.00 51.14 LIG 0.14  C 
BRANCH 9 10
ATOM     10  NE  ARG B   2     -20.806 -26.904 -27.579  1.00 53.41 LIG-0.23  N 
ATOM     11 HE   ARG B   2     -20.512 -27.487 -28.138  1.00 53.41 LIG 0.18  HD
ATOM     12  CZ  ARG B   2     -21.156 -27.341 -26.363  1.00 50.83 LIG 0.67  C 
ATOM     13  NH1 ARG B   2     -21.621 -26.499 -25.450  1.00 40.00 LIG-0.23  N 
ATOM     14  NH2 ARG B   2     -21.048 -28.638 -26.067  1.00 54.23 LIG-0.23  N 
ATOM     15 1HH1 ARG B   2     -21.701 -25.663 -25.636  1.00 40.00 LIG 0.17  HD
ATOM     16 2HH1 ARG B   2     -21.844 -26.789 -24.671  1.00 40.00 LIG 0.17  HD
ATOM     17 1HH2 ARG B   2     -20.754 -29.191 -26.656  1.00 54.23 LIG 0.17  HD
ATOM     18 2HH2 ARG B   2     -21.272 -28.920 -25.287  1.00 54.23 LIG 0.17  HD
ENDBRANCH 9 10
ENDBRANCH 8 9
ENDBRANCH 7 8
ENDBRANCH 6 7
BRANCH 6 19
ATOM     19  N   ARG B   2     -20.556 -22.535 -31.008  1.00 29.89 LIG-0.35  N 
ATOM     20  C   ASN B   1     -20.026 -22.634 -32.219  1.00 39.87 LIG 0.25  C 
ATOM     21 O    ASN B   1     -18.821 -22.851 -32.404  1.00 37.46 LIG-0.27  OA
ATOM     22 H    ARG B   2     -21.319 -22.175 -30.837  1.00 29.89 LIG 0.16  HD
BRANCH 20 23
ATOM     23  CA  ASN B   1     -21.004 -22.450 -33.393  1.00 47.73 LIG 0.28  C 
BRANCH 23 24
ATOM     24  N   ASN B   1     -20.402 -21.935 -34.598  1.00 51.86 LIG-0.07  N 
ATOM     25 H3   ASN B   1     -19.737 -22.470 -34.850  1.00 51.86 LIG 0.28  HD
ATOM     26 H1   ASN B   1     -21.014 -21.899 -35.244  1.00 51.86 LIG 0.28  HD
ATOM     27 H2   ASN B   1     -20.084 -21.118 -34.445  1.00 51.86 LIG 0.28  HD
ENDBRANCH 23 24
BRANCH 23 28
ATOM     28  CB  ASN B   1     -21.732 -23.729 -33.753  1.00 49.79 LIG 0.14  C 
BRANCH 28 29
ATOM     29  CG  ASN B   1     -20.788 -24.908 -33.784  1.00 59.47 LIG 0.22  C 
ATOM     30  ND2 ASN B   1     -19.977 -25.004 -34.843  1.00 63.81 LIG-0.37  N 
ATOM     31 21HD ASN B   1     -19.439 -25.671 -34.914  1.00 63.81 LIG 0.16  HD
ATOM     32 22HD ASN B   1     -19.993 -24.398 -35.453  1.00 63.81 LIG 0.16  HD
ATOM     33 OD1  ASN B   1     -20.806 -25.744 -32.884  1.00 60.25 LIG-0.27  OA
ENDBRANCH 28 29
ENDBRANCH 23 28
ENDBRANCH 20 23
ENDBRANCH 6 19
ENDBRANCH 3 6
ENDBRANCH 1 2
BRANCH 1 34
ATOM     34  CB  LEU B   3     -15.142 -23.343 -29.435  1.00 28.79 LIG 0.04  C 
BRANCH 34 35
ATOM     35  CG  LEU B   3     -14.932 -23.555 -27.932  1.00 33.15 LIG-0.02  C 
ATOM     36  CD2 LEU B   3     -14.399 -22.269 -27.314  1.00 30.13 LIG 0.01  C 
ATOM     37  CD1 LEU B   3     -13.991 -24.745 -27.580  1.00 27.67 LIG 0.01  C 
ENDBRANCH 34 35
ENDBRANCH 1 34
BRANCH 1 38
ATOM     38  C   LEU B   3     -15.753 -21.298 -30.811  1.00 20.33 LIG 0.24  C 
ATOM     39  N   LEU B   4     -14.834 -20.400 -30.472  1.00 23.83 LIG-0.35  N 
ATOM     40 H    LEU B   4     -14.493 -20.330 -29.685  1.00 23.83 LIG 0.16  HD
ATOM     41 O    LEU B   3     -16.212 -21.377 -31.947  1.00 22.70 LIG-0.27  OA
BRANCH 39 42
ATOM     42  CA  LEU B   4     -14.327 -19.441 -31.446  1.00 22.91 LIG 0.18  C 
BRANCH 42 43
ATOM     43  C   LEU B   4     -13.478 -18.403 -30.705  1.00 30.74 LIG 0.24  C 
ATOM     44 O    LEU B   4     -12.473 -18.748 -30.020  1.00 30.11 LIG-0.27  OA
ATOM     45  N   LEU B   5     -13.863 -17.137 -30.790  1.00 32.41 LIG-0.35  N 
ATOM     46 H    LEU B   5     -14.495 -16.837 -31.290  1.00 32.41 LIG 0.16  HD
BRANCH 45 47
ATOM     47  CA  LEU B   5     -13.165 -16.140 -29.967  1.00 35.50 LIG 0.18  C 
BRANCH 47 48
ATOM     48  C   LEU B   5     -11.679 -16.115 -30.304  1.00 33.38 LIG 0.24  C 
ATOM     49 O    LEU B   5     -10.837 -15.687 -29.484  1.00 25.58 LIG-0.27  OA
ATOM     50  N   THR B   6     -11.379 -16.571 -31.516  1.00 32.99 LIG-0.34  N 
ATOM     51 H    THR B   6     -11.946 -16.988 -32.009  1.00 32.99 LIG 0.16  HD
BRANCH 50 52
ATOM     52  CA  THR B   6     -10.073 -16.419 -32.142  1.00 39.09 LIG 0.19  C 
BRANCH 52 53
ATOM     53  CB  THR B   6      -9.629 -17.746 -32.815  1.00 66.99 LIG 0.14  C 
ATOM     54  CG2 THR B   6      -8.468 -18.371 -32.067  1.00 64.52 LIG 0.04  C 
BRANCH 53 55
ATOM     55 OG1  THR B   6     -10.726 -18.680 -32.824  1.00 68.32 LIG-0.39  OA
ATOM     56 HG1  THR B   6     -10.700 -19.137 -33.529  1.00 68.32 LIG 0.21  HD
ENDBRANCH 53 55
ENDBRANCH 52 53
BRANCH 52 57
ATOM     57  C   THR B   6     -10.166 -15.329 -33.220  1.00 46.48 LIG 0.22  C 
ATOM     58 O    THR B   6     -11.186 -15.210 -33.916  1.00 50.47 LIG-0.29  OA
ENDBRANCH 52 57
ENDBRANCH 50 52
ENDBRANCH 47 48
BRANCH 47 59
ATOM     59  CB  LEU B   5     -13.317 -16.448 -28.482  1.00 41.25 LIG 0.04  C 
BRANCH 59 60
ATOM     60  CG  LEU B   5     -14.489 -17.314 -28.049  1.00 47.99 LIG-0.02  C 
ATOM     61  CD2 LEU B   5     -15.546 -16.470 -27.393  1.00 50.88 LIG 0.01  C 
ATOM     62  CD1 LEU B   5     -13.971 -18.350 -27.074  1.00 54.72 LIG 0.01  C 
ENDBRANCH 59 60
ENDBRANCH 47 59
ENDBRANCH 45 47
ENDBRANCH 42 43
BRANCH 42 63
ATOM     63  CB  LEU B   4     -15.520 -18.729 -32.052  1.00 23.96 LIG 0.04  C 
BRANCH 63 64
ATOM     64  CG  LEU B   4     -16.633 -18.123 -31.225  1.00 38.52 LIG-0.02  C 
ATOM     65  CD1 LEU B   4     -16.963 -16.747 -31.676  1.00 46.71 LIG 0.01  C 
ATOM     66  CD2 LEU B   4     -17.850 -19.059 -31.277  1.00 36.33 LIG 0.01  C 
ENDBRANCH 63 64
ENDBRANCH 42 63
ENDBRANCH 39 42
ENDBRANCH 1 38
TORSDOF 26
ENDMDL
MODEL 100
USER: ADFR SOLUTION from run 153
USER: SCORE 21.933937 LL:  -4.988 LR: -18.340 RR:   0.000 FEB: -10.584
USER: RMSD 11.635535
USER: SEED 152
USER: STATUS no improvement in best in 8 clusters for 5 generations
USER: GENES 28
USER: genes 0 Translation |==|  0.57748 0.56093 0.42588
USER: genes 1 Rotation |==|  0.37216 0.65942 0.95593 0.51937
USER: genes 2 Torsion [C]-CA--N-[C] |==|  0.73897
USER: genes 3 Torsion [N]-C--CA-[N] |==|  0.33758
USER: genes 4 Torsion [C]-CA--CB-[CG] |==|  0.51721
USER: genes 5 Torsion [CA]-CB--CG-[CD] |==|  0.89953
USER: genes 6 Torsion [CB]-CG--CD-[NE] |==|  0.55168
USER: genes 7 Torsion [CG]-CD--NE-[HE] |==|  0.18778
USER: genes 8 Torsion [C]-CA--N-[C] |==|  0.81013
USER: genes 9 Torsion [N]-C--CA-[N] |==|  0.37351
USER: genes 10 Torsion [C]-CA--N-[H3] |==|  0.44796
USER: genes 11 Torsion [C]-CA--CB-[CG] |==|  0.09830
USER: genes 12 Torsion [CA]-CB--CG-[ND2] |==|  0.22039
USER: genes 13 Torsion [N]-CA--CB-[CG] |==|  0.09418
USER: genes 14 Torsion [CA]-CB--CG-[CD1] |==|  0.16109
USER: genes 15 Torsion [N]-CA--C-[N] |==|  0.43438
USER: genes 16 Torsion [C]-N--CA-[CB] |==|  0.43333
USER: genes 17 Torsion [N]-CA--C-[N] |==|  0.45568
USER: genes 18 Torsion [C]-N--CA-[C] |==|  0.81448
USER: genes 19 Torsion [N]-CA--C-[N] |==|  0.43199
USER: genes 20 Torsion [C]-N--CA-[C] |==|  0.53678
USER: genes 21 Torsion [N]-CA--CB-[CG2] |==|  0.39410
USER: genes 22 Torsion [CA]-CB--OG1-[HG1] |==|  0.10352
USER: genes 23 Torsion [N]-CA--C-[O] |==|  0.23913
USER: genes 24 Torsion [N]-CA--CB-[CG] |==|  0.63466
USER: genes 25 Torsion [CA]-CB--CG-[CD2] |==|  0.32091
USER: genes 26 Torsion [N]-CA--CB-[CG] |==|  0.10451
USER: genes 27 Torsion [CA]-CB--CG-[CD1] |==|  0.22089
ROOT
ATOM      1  CA  LEU B   3     -16.184 -21.363 -29.874  1.00 17.18 LIG 0.18  C 
ENDROOT
BRANCH 1 2
ATOM      2  N   LEU B   3     -15.594 -20.399 -29.022  1.00 21.09 LIG-0.35  N 
ATOM      3  C   ARG B   2     -15.621 -19.103 -29.321  1.00 20.79 LIG 0.24  C 
ATOM      4 O    ARG B   2     -16.226 -18.636 -30.308  1.00 18.81 LIG-0.27  OA
ATOM      5 H    LEU B   3     -15.228 -20.723 -28.315  1.00 21.09 LIG 0.16  HD
BRANCH 3 6
ATOM      6  CA  ARG B   2     -14.788 -18.207 -28.413  1.00 21.42 LIG 0.18  C 
BRANCH 6 7
ATOM      7  CB  ARG B   2     -15.638 -17.227 -27.598  1.00 36.36 LIG 0.04  C 
BRANCH 7 8
ATOM      8  CG  ARG B   2     -14.785 -16.246 -26.817  1.00 41.67 LIG 0.02  C 
BRANCH 8 9
ATOM      9  CD  ARG B   2     -13.494 -16.864 -26.276  1.00 51.14 LIG 0.14  C 
BRANCH 9 10
ATOM     10  NE  ARG B   2     -12.916 -16.059 -25.185  1.00 53.41 LIG-0.23  N 
ATOM     11 HE   ARG B   2     -13.355 -16.023 -24.447  1.00 53.41 LIG 0.18  HD
ATOM     12  CZ  ARG B   2     -11.765 -15.379 -25.248  1.00 50.83 LIG 0.67  C 
ATOM     13  NH1 ARG B   2     -11.035 -15.387 -26.356  1.00 40.00 LIG-0.23  N 
ATOM     14  NH2 ARG B   2     -11.348 -14.678 -24.192  1.00 54.23 LIG-0.23  N 
ATOM     15 1HH1 ARG B   2     -11.301 -15.831 -27.043  1.00 40.00 LIG 0.17  HD
ATOM     16 2HH1 ARG B   2     -10.296 -14.947 -26.388  1.00 40.00 LIG 0.17  HD
ATOM     17 1HH2 ARG B   2     -11.819 -14.662 -23.473  1.00 54.23 LIG 0.17  HD
ATOM     18 2HH2 ARG B   2     -10.609 -14.241 -24.231  1.00 54.23 LIG 0.17  HD
ENDBRANCH 9 10
ENDBRANCH 8 9
ENDBRANCH 7 8
ENDBRANCH 6 7
BRANCH 6 19
ATOM     19  N   ARG B   2     -13.822 -17.514 -29.237  1.00 29.89 LIG-0.35  N 
ATOM     20  C   ASN B   1     -12.832 -18.179 -29.816  1.00 39.87 LIG 0.25  C 
ATOM     21 O    ASN B   1     -12.480 -19.307 -29.447  1.00 37.46 LIG-0.27  OA
ATOM     22 H    ARG B   2     -13.949 -16.666 -29.311  1.00 29.89 LIG 0.16  HD
BRANCH 20 23
ATOM     23  CA  ASN B   1     -12.130 -17.453 -30.979  1.00 47.73 LIG 0.28  C 
BRANCH 23 24
ATOM     24  N   ASN B   1     -10.690 -17.511 -30.938  1.00 51.86 LIG-0.07  N 
ATOM     25 H3   ASN B   1     -10.362 -17.324 -31.744  1.00 51.86 LIG 0.28  HD
ATOM     26 H1   ASN B   1     -10.385 -16.918 -30.349  1.00 51.86 LIG 0.28  HD
ATOM     27 H2   ASN B   1     -10.433 -18.328 -30.697  1.00 51.86 LIG 0.28  HD
ENDBRANCH 23 24
BRANCH 23 28
ATOM     28  CB  ASN B   1     -12.574 -17.959 -32.336  1.00 49.79 LIG 0.14  C 
BRANCH 28 29
ATOM     29  CG  ASN B   1     -14.037 -18.333 -32.332  1.00 59.47 LIG 0.22  C 
ATOM     30  ND2 ASN B   1     -14.916 -17.330 -32.433  1.00 63.81 LIG-0.37  N 
ATOM     31 21HD ASN B   1     -15.760 -17.494 -32.412  1.00 63.81 LIG 0.16  HD
ATOM     32 22HD ASN B   1     -14.637 -16.521 -32.521  1.00 63.81 LIG 0.16  HD
ATOM     33 OD1  ASN B   1     -14.380 -19.505 -32.206  1.00 60.25 LIG-0.27  OA
ENDBRANCH 28 29
ENDBRANCH 23 28
ENDBRANCH 20 23
ENDBRANCH 6 19
ENDBRANCH 3 6
ENDBRANCH 1 2
BRANCH 1 34
ATOM     34  CB  LEU B   3     -15.295 -22.636 -29.927  1.00 28.79 LIG 0.04  C 
BRANCH 34 35
ATOM     35  CG  LEU B   3     -14.602 -22.891 -28.584  1.00 33.15 LIG-0.02  C 
ATOM     36  CD2 LEU B   3     -13.714 -24.123 -28.703  1.00 30.13 LIG 0.01  C 
ATOM     37  CD1 LEU B   3     -15.579 -23.052 -27.382  1.00 27.67 LIG 0.01  C 
ENDBRANCH 34 35
ENDBRANCH 1 34
BRANCH 1 38
ATOM     38  C   LEU B   3     -17.605 -21.688 -29.467  1.00 20.33 LIG 0.24  C 
ATOM     39  N   LEU B   4     -18.386 -22.172 -30.427  1.00 23.83 LIG-0.35  N 
ATOM     40 H    LEU B   4     -18.131 -22.305 -31.238  1.00 23.83 LIG 0.16  HD
ATOM     41 O    LEU B   3     -17.999 -21.519 -28.317  1.00 22.70 LIG-0.27  OA
BRANCH 39 42
ATOM     42  CA  LEU B   4     -19.776 -22.522 -30.159  1.00 22.91 LIG 0.18  C 
BRANCH 42 43
ATOM     43  C   LEU B   4     -19.822 -23.967 -29.653  1.00 30.74 LIG 0.24  C 
ATOM     44 O    LEU B   4     -18.849 -24.754 -29.831  1.00 30.11 LIG-0.27  OA
ATOM     45  N   LEU B   5     -20.937 -24.361 -29.053  1.00 32.41 LIG-0.35  N 
ATOM     46 H    LEU B   5     -21.601 -23.856 -28.847  1.00 32.41 LIG 0.16  HD
BRANCH 45 47
ATOM     47  CA  LEU B   5     -21.072 -25.780 -28.698  1.00 35.50 LIG 0.18  C 
BRANCH 47 48
ATOM     48  C   LEU B   5     -21.157 -26.639 -29.954  1.00 33.38 LIG 0.24  C 
ATOM     49 O    LEU B   5     -21.563 -26.164 -31.038  1.00 25.58 LIG-0.27  OA
ATOM     50  N   THR B   6     -20.775 -27.901 -29.787  1.00 32.99 LIG-0.34  N 
ATOM     51 H    THR B   6     -20.368 -28.175 -29.080  1.00 32.99 LIG 0.16  HD
BRANCH 50 52
ATOM     52  CA  THR B   6     -20.996 -28.955 -30.768  1.00 39.09 LIG 0.19  C 
BRANCH 52 53
ATOM     53  CB  THR B   6     -20.030 -28.794 -31.974  1.00 66.99 LIG 0.14  C 
ATOM     54  CG2 THR B   6     -19.545 -30.144 -32.465  1.00 64.52 LIG 0.04  C 
BRANCH 53 55
ATOM     55 OG1  THR B   6     -20.708 -28.127 -33.057  1.00 68.32 LIG-0.39  OA
ATOM     56 HG1  THR B   6     -21.220 -27.537 -32.747  1.00 68.32 LIG 0.21  HD
ENDBRANCH 53 55
ENDBRANCH 52 53
BRANCH 52 57
ATOM     57  C   THR B   6     -20.728 -30.312 -30.103  1.00 46.48 LIG 0.22  C 
ATOM     58 O    THR B   6     -21.623 -30.898 -29.473  1.00 50.47 LIG-0.29  OA
ENDBRANCH 52 57
ENDBRANCH 50 52
ENDBRANCH 47 48
BRANCH 47 59
ATOM     59  CB  LEU B   5     -22.324 -26.022 -27.864  1.00 41.25 LIG 0.04  C 
BRANCH 59 60
ATOM     60  CG  LEU B   5     -22.187 -26.843 -26.592  1.00 47.99 LIG-0.02  C 
ATOM     61  CD2 LEU B   5     -22.500 -25.998 -25.389  1.00 50.88 LIG 0.01  C 
ATOM     62  CD1 LEU B   5     -20.762 -27.353 -26.515  1.00 54.72 LIG 0.01  C 
ENDBRANCH 59 60
ENDBRANCH 47 59
ENDBRANCH 45 47
ENDBRANCH 42 43
BRANCH 42 63
ATOM     63  CB  LEU B   4     -20.527 -22.457 -31.473  1.00 23.96 LIG 0.04  C 
BRANCH 63 64
ATOM     64  CG  LEU B   4     -19.932 -22.900 -32.791  1.00 38.52 LIG-0.02  C 
ATOM     65  CD1 LEU B   4     -19.976 -24.376 -32.943  1.00 46.71 LIG 0.01  C 
ATOM     66  CD2 LEU B   4     -20.667 -22.177 -33.930  1.00 36.33 LIG 0.01  C 
ENDBRANCH 63 64
ENDBRANCH 42 63
ENDBRANCH 39 42
ENDBRANCH 1 38
TORSDOF 26
ENDMDL
MODEL 101
USER: ADFR SOLUTION from run 165
USER: SCORE 22.607533 LL:  -5.221 LR: -18.342 RR:   0.000 FEB: -10.586
USER: RMSD 11.080656
USER: SEED 164
USER: STATUS no improvement in best in 2 clusters for 5 generations
USER: GENES 28
USER: genes 0 Translation |==|  0.56539 0.72924 0.46319
USER: genes 1 Rotation |==|  0.31452 0.79457 0.16865 0.63796
USER: genes 2 Torsion [C]-CA--N-[C] |==|  0.76667
USER: genes 3 Torsion [N]-C--CA-[N] |==|  0.89035
USER: genes 4 Torsion [C]-CA--CB-[CG] |==|  0.48463
USER: genes 5 Torsion [CA]-CB--CG-[CD] |==|  0.71483
USER: genes 6 Torsion [CB]-CG--CD-[NE] |==|  0.76390
USER: genes 7 Torsion [CG]-CD--NE-[HE] |==|  0.16873
USER: genes 8 Torsion [C]-CA--N-[C] |==|  0.85425
USER: genes 9 Torsion [N]-C--CA-[N] |==|  0.23240
USER: genes 10 Torsion [C]-CA--N-[H3] |==|  0.75007
USER: genes 11 Torsion [C]-CA--CB-[CG] |==|  0.19320
USER: genes 12 Torsion [CA]-CB--CG-[ND2] |==|  0.09323
USER: genes 13 Torsion [N]-CA--CB-[CG] |==|  0.81108
USER: genes 14 Torsion [CA]-CB--CG-[CD1] |==|  0.94000
USER: genes 15 Torsion [N]-CA--C-[N] |==|  0.16991
USER: genes 16 Torsion [C]-N--CA-[CB] |==|  0.51824
USER: genes 17 Torsion [N]-CA--C-[N] |==|  0.37976
USER: genes 18 Torsion [C]-N--CA-[C] |==|  0.79019
USER: genes 19 Torsion [N]-CA--C-[N] |==|  0.44422
USER: genes 20 Torsion [C]-N--CA-[C] |==|  0.21102
USER: genes 21 Torsion [N]-CA--CB-[CG2] |==|  0.53592
USER: genes 22 Torsion [CA]-CB--OG1-[HG1] |==|  0.58022
USER: genes 23 Torsion [N]-CA--C-[O] |==|  0.02347
USER: genes 24 Torsion [N]-CA--CB-[CG] |==|  0.54237
USER: genes 25 Torsion [CA]-CB--CG-[CD2] |==|  0.60791
USER: genes 26 Torsion [N]-CA--CB-[CG] |==|  0.53430
USER: genes 27 Torsion [CA]-CB--CG-[CD1] |==|  0.07504
ROOT
ATOM      1  CA  LEU B   3     -16.484 -17.197 -29.090  1.00 17.18 LIG 0.18  C 
ENDROOT
BRANCH 1 2
ATOM      2  N   LEU B   3     -15.147 -16.825 -28.814  1.00 21.09 LIG-0.35  N 
ATOM      3  C   ARG B   2     -14.544 -17.196 -27.688  1.00 20.79 LIG 0.24  C 
ATOM      4 O    ARG B   2     -15.066 -17.953 -26.843  1.00 18.81 LIG-0.27  OA
ATOM      5 H    LEU B   3     -14.774 -16.350 -29.426  1.00 21.09 LIG 0.16  HD
BRANCH 3 6
ATOM      6  CA  ARG B   2     -13.177 -16.569 -27.442  1.00 21.42 LIG 0.18  C 
BRANCH 6 7
ATOM      7  CB  ARG B   2     -13.264 -15.185 -26.789  1.00 36.36 LIG 0.04  C 
BRANCH 7 8
ATOM      8  CG  ARG B   2     -11.895 -14.638 -26.432  1.00 41.67 LIG 0.02  C 
BRANCH 8 9
ATOM      9  CD  ARG B   2     -11.568 -14.753 -24.942  1.00 51.14 LIG 0.14  C 
BRANCH 9 10
ATOM     10  NE  ARG B   2     -12.105 -13.615 -24.174  1.00 53.41 LIG-0.23  N 
ATOM     11 HE   ARG B   2     -12.957 -13.500 -24.183  1.00 53.41 LIG 0.18  HD
ATOM     12  CZ  ARG B   2     -11.377 -12.746 -23.462  1.00 50.83 LIG 0.67  C 
ATOM     13  NH1 ARG B   2     -10.056 -12.860 -23.403  1.00 40.00 LIG-0.23  N 
ATOM     14  NH2 ARG B   2     -11.980 -11.748 -22.813  1.00 54.23 LIG-0.23  N 
ATOM     15 1HH1 ARG B   2      -9.660 -13.496 -23.825  1.00 40.00 LIG 0.17  HD
ATOM     16 2HH1 ARG B   2      -9.596 -12.296 -22.944  1.00 40.00 LIG 0.17  HD
ATOM     17 1HH2 ARG B   2     -12.835 -11.664 -22.852  1.00 54.23 LIG 0.17  HD
ATOM     18 2HH2 ARG B   2     -11.514 -11.190 -22.355  1.00 54.23 LIG 0.17  HD
ENDBRANCH 9 10
ENDBRANCH 8 9
ENDBRANCH 7 8
ENDBRANCH 6 7
BRANCH 6 19
ATOM     19  N   ARG B   2     -12.479 -16.515 -28.708  1.00 29.89 LIG-0.35  N 
ATOM     20  C   ASN B   1     -12.353 -17.605 -29.454  1.00 39.87 LIG 0.25  C 
ATOM     21 O    ASN B   1     -12.513 -18.746 -29.000  1.00 37.46 LIG-0.27  OA
ATOM     22 H    ARG B   2     -12.168 -15.741 -28.919  1.00 29.89 LIG 0.16  HD
BRANCH 20 23
ATOM     23  CA  ASN B   1     -11.982 -17.366 -30.929  1.00 47.73 LIG 0.28  C 
BRANCH 23 24
ATOM     24  N   ASN B   1     -10.570 -17.195 -31.170  1.00 51.86 LIG-0.07  N 
ATOM     25 H3   ASN B   1     -10.360 -16.332 -31.105  1.00 51.86 LIG 0.28  HD
ATOM     26 H1   ASN B   1     -10.108 -17.658 -30.567  1.00 51.86 LIG 0.28  HD
ATOM     27 H2   ASN B   1     -10.371 -17.488 -31.986  1.00 51.86 LIG 0.28  HD
ENDBRANCH 23 24
BRANCH 23 28
ATOM     28  CB  ASN B   1     -12.474 -18.470 -31.842  1.00 49.79 LIG 0.14  C 
BRANCH 28 29
ATOM     29  CG  ASN B   1     -13.980 -18.449 -31.965  1.00 59.47 LIG 0.22  C 
ATOM     30  ND2 ASN B   1     -14.573 -17.251 -31.920  1.00 63.81 LIG-0.37  N 
ATOM     31 21HD ASN B   1     -15.429 -17.194 -31.964  1.00 63.81 LIG 0.16  HD
ATOM     32 22HD ASN B   1     -14.097 -16.539 -31.849  1.00 63.81 LIG 0.16  HD
ATOM     33 OD1  ASN B   1     -14.611 -19.498 -32.067  1.00 60.25 LIG-0.27  OA
ENDBRANCH 28 29
ENDBRANCH 23 28
ENDBRANCH 20 23
ENDBRANCH 6 19
ENDBRANCH 3 6
ENDBRANCH 1 2
BRANCH 1 34
ATOM     34  CB  LEU B   3     -17.155 -16.125 -29.993  1.00 28.79 LIG 0.04  C 
BRANCH 34 35
ATOM     35  CG  LEU B   3     -17.348 -14.803 -29.242  1.00 33.15 LIG-0.02  C 
ATOM     36  CD2 LEU B   3     -16.267 -13.819 -29.672  1.00 30.13 LIG 0.01  C 
ATOM     37  CD1 LEU B   3     -17.352 -14.945 -27.691  1.00 27.67 LIG 0.01  C 
ENDBRANCH 34 35
ENDBRANCH 1 34
BRANCH 1 38
ATOM     38  C   LEU B   3     -16.575 -18.580 -29.698  1.00 20.33 LIG 0.24  C 
ATOM     39  N   LEU B   4     -16.119 -19.575 -28.944  1.00 23.83 LIG-0.35  N 
ATOM     40 H    LEU B   4     -15.787 -19.474 -28.158  1.00 23.83 LIG 0.16  HD
ATOM     41 O    LEU B   3     -17.052 -18.761 -30.814  1.00 22.70 LIG-0.27  OA
BRANCH 39 42
ATOM     42  CA  LEU B   4     -16.152 -20.952 -29.421  1.00 22.91 LIG 0.18  C 
BRANCH 42 43
ATOM     43  C   LEU B   4     -17.599 -21.305 -29.780  1.00 30.74 LIG 0.24  C 
ATOM     44 O    LEU B   4     -18.557 -20.996 -29.015  1.00 30.11 LIG-0.27  OA
ATOM     45  N   LEU B   5     -17.795 -21.975 -30.907  1.00 32.41 LIG-0.35  N 
ATOM     46 H    LEU B   5     -17.194 -22.154 -31.496  1.00 32.41 LIG 0.16  HD
BRANCH 45 47
ATOM     47  CA  LEU B   5     -19.149 -22.464 -31.200  1.00 35.50 LIG 0.18  C 
BRANCH 47 48
ATOM     48  C   LEU B   5     -19.473 -23.685 -30.347  1.00 33.38 LIG 0.24  C 
ATOM     49 O    LEU B   5     -18.565 -24.370 -29.826  1.00 25.58 LIG-0.27  OA
ATOM     50  N   THR B   6     -20.771 -23.943 -30.222  1.00 32.99 LIG-0.34  N 
ATOM     51 H    THR B   6     -21.381 -23.388 -30.466  1.00 32.99 LIG 0.16  HD
BRANCH 50 52
ATOM     52  CA  THR B   6     -21.304 -25.178 -29.665  1.00 39.09 LIG 0.19  C 
BRANCH 52 53
ATOM     53  CB  THR B   6     -20.529 -26.407 -30.214  1.00 66.99 LIG 0.14  C 
ATOM     54  CG2 THR B   6     -21.263 -27.696 -29.899  1.00 64.52 LIG 0.04  C 
BRANCH 53 55
ATOM     55 OG1  THR B   6     -20.386 -26.297 -31.643  1.00 68.32 LIG-0.39  OA
ATOM     56 HG1  THR B   6     -20.346 -27.065 -31.981  1.00 68.32 LIG 0.21  HD
ENDBRANCH 53 55
ENDBRANCH 52 53
BRANCH 52 57
ATOM     57  C   THR B   6     -21.147 -25.139 -28.139  1.00 46.48 LIG 0.22  C 
ATOM     58 O    THR B   6     -20.779 -24.103 -27.564  1.00 50.47 LIG-0.29  OA
ENDBRANCH 52 57
ENDBRANCH 50 52
ENDBRANCH 47 48
BRANCH 47 59
ATOM     59  CB  LEU B   5     -19.289 -22.851 -32.667  1.00 41.25 LIG 0.04  C 
BRANCH 59 60
ATOM     60  CG  LEU B   5     -20.691 -23.037 -33.225  1.00 47.99 LIG-0.02  C 
ATOM     61  CD2 LEU B   5     -20.724 -24.201 -34.176  1.00 50.88 LIG 0.01  C 
ATOM     62  CD1 LEU B   5     -21.083 -21.764 -33.945  1.00 54.72 LIG 0.01  C 
ENDBRANCH 59 60
ENDBRANCH 47 59
ENDBRANCH 45 47
ENDBRANCH 42 43
BRANCH 42 63
ATOM     63  CB  LEU B   4     -15.718 -21.845 -28.276  1.00 23.96 LIG 0.04  C 
BRANCH 63 64
ATOM     64  CG  LEU B   4     -15.366 -23.305 -28.450  1.00 38.52 LIG-0.02  C 
ATOM     65  CD1 LEU B   4     -14.873 -23.590 -29.822  1.00 46.71 LIG 0.01  C 
ATOM     66  CD2 LEU B   4     -14.342 -23.696 -27.372  1.00 36.33 LIG 0.01  C 
ENDBRANCH 63 64
ENDBRANCH 42 63
ENDBRANCH 39 42
ENDBRANCH 1 38
TORSDOF 26
ENDMDL
MODEL 102
USER: ADFR SOLUTION from run 100
USER: SCORE 21.662890 LL:  -4.627 LR: -18.325 RR:   0.000 FEB: -10.569
USER: RMSD 7.363886
USER: SEED 99
USER: STATUS no improvement in best in 14 clusters for 5 generations
USER: GENES 28
USER: genes 0 Translation |==|  0.55922 0.53052 0.47775
USER: genes 1 Rotation |==|  0.12077 0.19604 0.49559 0.61735
USER: genes 2 Torsion [C]-CA--N-[C] |==|  0.76321
USER: genes 3 Torsion [N]-C--CA-[N] |==|  0.35730
USER: genes 4 Torsion [C]-CA--CB-[CG] |==|  0.47881
USER: genes 5 Torsion [CA]-CB--CG-[CD] |==|  0.44529
USER: genes 6 Torsion [CB]-CG--CD-[NE] |==|  0.64101
USER: genes 7 Torsion [CG]-CD--NE-[HE] |==|  0.22713
USER: genes 8 Torsion [C]-CA--N-[C] |==|  0.82242
USER: genes 9 Torsion [N]-C--CA-[N] |==|  0.41182
USER: genes 10 Torsion [C]-CA--N-[H3] |==|  0.21791
USER: genes 11 Torsion [C]-CA--CB-[CG] |==|  0.22514
USER: genes 12 Torsion [CA]-CB--CG-[ND2] |==|  0.50905
USER: genes 13 Torsion [N]-CA--CB-[CG] |==|  0.27196
USER: genes 14 Torsion [CA]-CB--CG-[CD1] |==|  0.25813
USER: genes 15 Torsion [N]-CA--C-[N] |==|  0.38352
USER: genes 16 Torsion [C]-N--CA-[CB] |==|  0.15304
USER: genes 17 Torsion [N]-CA--C-[N] |==|  0.45713
USER: genes 18 Torsion [C]-N--CA-[C] |==|  0.76843
USER: genes 19 Torsion [N]-CA--C-[N] |==|  0.33623
USER: genes 20 Torsion [C]-N--CA-[C] |==|  0.12963
USER: genes 21 Torsion [N]-CA--CB-[CG2] |==|  0.59233
USER: genes 22 Torsion [CA]-CB--OG1-[HG1] |==|  0.93807
USER: genes 23 Torsion [N]-CA--C-[O] |==|  0.28041
USER: genes 24 Torsion [N]-CA--CB-[CG] |==|  0.79703
USER: genes 25 Torsion [CA]-CB--CG-[CD2] |==|  0.01062
USER: genes 26 Torsion [N]-CA--CB-[CG] |==|  0.15535
USER: genes 27 Torsion [CA]-CB--CG-[CD1] |==|  0.36918
ROOT
ATOM      1  CA  LEU B   3     -16.636 -22.116 -28.784  1.00 17.18 LIG 0.18  C 
ENDROOT
BRANCH 1 2
ATOM      2  N   LEU B   3     -17.536 -22.661 -29.730  1.00 21.09 LIG-0.35  N 
ATOM      3  C   ARG B   2     -18.726 -22.110 -29.951  1.00 20.79 LIG 0.24  C 
ATOM      4 O    ARG B   2     -19.103 -21.046 -29.417  1.00 18.81 LIG-0.27  OA
ATOM      5 H    LEU B   3     -17.247 -23.363 -30.135  1.00 21.09 LIG 0.16  HD
BRANCH 3 6
ATOM      6  CA  ARG B   2     -19.658 -22.909 -30.854  1.00 21.42 LIG 0.18  C 
BRANCH 6 7
ATOM      7  CB  ARG B   2     -19.827 -22.282 -32.242  1.00 36.36 LIG 0.04  C 
BRANCH 7 8
ATOM      8  CG  ARG B   2     -20.605 -23.183 -33.182  1.00 41.67 LIG 0.02  C 
BRANCH 8 9
ATOM      9  CD  ARG B   2     -21.203 -22.437 -34.377  1.00 51.14 LIG 0.14  C 
BRANCH 9 10
ATOM     10  NE  ARG B   2     -22.638 -22.730 -34.542  1.00 53.41 LIG-0.23  N 
ATOM     11 HE   ARG B   2     -23.190 -22.290 -34.050  1.00 53.41 LIG 0.18  HD
ATOM     12  CZ  ARG B   2     -23.156 -23.622 -35.395  1.00 50.83 LIG 0.67  C 
ATOM     13  NH1 ARG B   2     -22.367 -24.339 -36.185  1.00 40.00 LIG-0.23  N 
ATOM     14  NH2 ARG B   2     -24.477 -23.803 -35.448  1.00 54.23 LIG-0.23  N 
ATOM     15 1HH1 ARG B   2     -21.514 -24.232 -36.151  1.00 40.00 LIG 0.17  HD
ATOM     16 2HH1 ARG B   2     -22.708 -24.910 -36.730  1.00 40.00 LIG 0.17  HD
ATOM     17 1HH2 ARG B   2     -24.994 -23.347 -34.934  1.00 54.23 LIG 0.17  HD
ATOM     18 2HH2 ARG B   2     -24.811 -24.375 -35.995  1.00 54.23 LIG 0.17  HD
ENDBRANCH 9 10
ENDBRANCH 8 9
ENDBRANCH 7 8
ENDBRANCH 6 7
BRANCH 6 19
ATOM     19  N   ARG B   2     -20.927 -23.045 -30.174  1.00 29.89 LIG-0.35  N 
ATOM     20  C   ASN B   1     -21.012 -23.717 -29.034  1.00 39.87 LIG 0.25  C 
ATOM     21 O    ASN B   1     -20.141 -24.516 -28.664  1.00 37.46 LIG-0.27  OA
ATOM     22 H    ARG B   2     -21.592 -22.663 -30.566  1.00 29.89 LIG 0.16  HD
BRANCH 20 23
ATOM     23  CA  ASN B   1     -22.276 -23.453 -28.195  1.00 47.73 LIG 0.28  C 
BRANCH 23 24
ATOM     24  N   ASN B   1     -22.729 -24.585 -27.425  1.00 51.86 LIG-0.07  N 
ATOM     25 H3   ASN B   1     -22.226 -24.668 -26.695  1.00 51.86 LIG 0.28  HD
ATOM     26 H1   ASN B   1     -23.578 -24.461 -27.187  1.00 51.86 LIG 0.28  HD
ATOM     27 H2   ASN B   1     -22.664 -25.324 -27.916  1.00 51.86 LIG 0.28  HD
ENDBRANCH 23 24
BRANCH 23 28
ATOM     28  CB  ASN B   1     -22.112 -22.285 -27.245  1.00 49.79 LIG 0.14  C 
BRANCH 28 29
ATOM     29  CG  ASN B   1     -22.319 -20.967 -27.954  1.00 59.47 LIG 0.22  C 
ATOM     30  ND2 ASN B   1     -22.134 -19.857 -27.231  1.00 63.81 LIG-0.37  N 
ATOM     31 21HD ASN B   1     -22.263 -19.086 -27.587  1.00 63.81 LIG 0.16  HD
ATOM     32 22HD ASN B   1     -21.885 -19.916 -26.410  1.00 63.81 LIG 0.16  HD
ATOM     33 OD1  ASN B   1     -22.674 -20.941 -29.129  1.00 60.25 LIG-0.27  OA
ENDBRANCH 28 29
ENDBRANCH 23 28
ENDBRANCH 20 23
ENDBRANCH 6 19
ENDBRANCH 3 6
ENDBRANCH 1 2
BRANCH 1 34
ATOM     34  CB  LEU B   3     -15.759 -23.246 -28.176  1.00 28.79 LIG 0.04  C 
BRANCH 34 35
ATOM     35  CG  LEU B   3     -14.394 -23.327 -28.868  1.00 33.15 LIG-0.02  C 
ATOM     36  CD2 LEU B   3     -13.971 -24.787 -28.972  1.00 30.13 LIG 0.01  C 
ATOM     37  CD1 LEU B   3     -13.275 -22.497 -28.172  1.00 27.67 LIG 0.01  C 
ENDBRANCH 34 35
ENDBRANCH 1 34
BRANCH 1 38
ATOM     38  C   LEU B   3     -15.793 -21.007 -29.375  1.00 20.33 LIG 0.24  C 
ATOM     39  N   LEU B   4     -15.613 -19.941 -28.601  1.00 23.83 LIG-0.35  N 
ATOM     40 H    LEU B   4     -15.941 -19.856 -27.811  1.00 23.83 LIG 0.16  HD
ATOM     41 O    LEU B   3     -15.303 -21.100 -30.497  1.00 22.70 LIG-0.27  OA
BRANCH 39 42
ATOM     42  CA  LEU B   4     -14.821 -18.807 -29.060  1.00 22.91 LIG 0.18  C 
BRANCH 42 43
ATOM     43  C   LEU B   4     -14.969 -17.671 -28.044  1.00 30.74 LIG 0.24  C 
ATOM     44 O    LEU B   4     -15.909 -17.667 -27.199  1.00 30.11 LIG-0.27  OA
ATOM     45  N   LEU B   5     -14.090 -16.680 -28.114  1.00 32.41 LIG-0.35  N 
ATOM     46 H    LEU B   5     -13.396 -16.660 -28.621  1.00 32.41 LIG 0.16  HD
BRANCH 45 47
ATOM     47  CA  LEU B   5     -14.298 -15.503 -27.260  1.00 35.50 LIG 0.18  C 
BRANCH 47 48
ATOM     48  C   LEU B   5     -15.278 -14.535 -27.912  1.00 33.38 LIG 0.24  C 
ATOM     49 O    LEU B   5     -15.044 -14.036 -29.035  1.00 25.58 LIG-0.27  OA
ATOM     50  N   THR B   6     -16.365 -14.280 -27.192  1.00 32.99 LIG-0.34  N 
ATOM     51 H    THR B   6     -16.578 -14.734 -26.494  1.00 32.99 LIG 0.16  HD
BRANCH 50 52
ATOM     52  CA  THR B   6     -17.311 -13.215 -27.496  1.00 39.09 LIG 0.19  C 
BRANCH 52 53
ATOM     53  CB  THR B   6     -16.700 -11.826 -27.164  1.00 66.99 LIG 0.14  C 
ATOM     54  CG2 THR B   6     -17.769 -10.863 -26.688  1.00 64.52 LIG 0.04  C 
BRANCH 53 55
ATOM     55 OG1  THR B   6     -15.710 -11.963 -26.126  1.00 68.32 LIG-0.39  OA
ATOM     56 HG1  THR B   6     -15.854 -12.668 -25.692  1.00 68.32 LIG 0.21  HD
ENDBRANCH 53 55
ENDBRANCH 52 53
BRANCH 52 57
ATOM     57  C   THR B   6     -17.640 -13.261 -28.995  1.00 46.48 LIG 0.22  C 
ATOM     58 O    THR B   6     -18.696 -13.772 -29.398  1.00 50.47 LIG-0.29  OA
ENDBRANCH 52 57
ENDBRANCH 50 52
ENDBRANCH 47 48
BRANCH 47 59
ATOM     59  CB  LEU B   5     -12.988 -14.766 -27.009  1.00 41.25 LIG 0.04  C 
BRANCH 59 60
ATOM     60  CG  LEU B   5     -11.979 -15.404 -26.068  1.00 47.99 LIG-0.02  C 
ATOM     61  CD2 LEU B   5     -12.466 -16.753 -25.616  1.00 50.88 LIG 0.01  C 
ATOM     62  CD1 LEU B   5     -11.806 -14.486 -24.875  1.00 54.72 LIG 0.01  C 
ENDBRANCH 59 60
ENDBRANCH 47 59
ENDBRANCH 45 47
ENDBRANCH 42 43
BRANCH 42 63
ATOM     63  CB  LEU B   4     -15.406 -18.341 -30.378  1.00 23.96 LIG 0.04  C 
BRANCH 63 64
ATOM     64  CG  LEU B   4     -16.855 -17.942 -30.547  1.00 38.52 LIG-0.02  C 
ATOM     65  CD1 LEU B   4     -16.988 -16.660 -31.284  1.00 46.71 LIG 0.01  C 
ATOM     66  CD2 LEU B   4     -17.604 -19.091 -31.240  1.00 36.33 LIG 0.01  C 
ENDBRANCH 63 64
ENDBRANCH 42 63
ENDBRANCH 39 42
ENDBRANCH 1 38
TORSDOF 26
ENDMDL
MODEL 103
USER: ADFR SOLUTION from run 189
USER: SCORE 21.903721 LL:  -4.609 LR: -18.334 RR:   0.000 FEB: -10.578
USER: RMSD 11.365403
USER: SEED 188
USER: STATUS no improvement in best in 10 clusters for 5 generations
USER: GENES 28
USER: genes 0 Translation |==|  0.42865 0.50503 0.35527
USER: genes 1 Rotation |==|  0.34232 0.59517 0.04253 0.58245
USER: genes 2 Torsion [C]-CA--N-[C] |==|  0.71878
USER: genes 3 Torsion [N]-C--CA-[N] |==|  0.85559
USER: genes 4 Torsion [C]-CA--CB-[CG] |==|  0.53253
USER: genes 5 Torsion [CA]-CB--CG-[CD] |==|  0.76863
USER: genes 6 Torsion [CB]-CG--CD-[NE] |==|  0.30351
USER: genes 7 Torsion [CG]-CD--NE-[HE] |==|  0.24053
USER: genes 8 Torsion [C]-CA--N-[C] |==|  0.81545
USER: genes 9 Torsion [N]-C--CA-[N] |==|  0.94752
USER: genes 10 Torsion [C]-CA--N-[H3] |==|  0.02352
USER: genes 11 Torsion [C]-CA--CB-[CG] |==|  0.96520
USER: genes 12 Torsion [CA]-CB--CG-[ND2] |==|  0.31804
USER: genes 13 Torsion [N]-CA--CB-[CG] |==|  0.63356
USER: genes 14 Torsion [CA]-CB--CG-[CD1] |==|  0.31318
USER: genes 15 Torsion [N]-CA--C-[N] |==|  0.27020
USER: genes 16 Torsion [C]-N--CA-[CB] |==|  0.56111
USER: genes 17 Torsion [N]-CA--C-[N] |==|  0.37379
USER: genes 18 Torsion [C]-N--CA-[C] |==|  0.69738
USER: genes 19 Torsion [N]-CA--C-[N] |==|  0.97027
USER: genes 20 Torsion [C]-N--CA-[C] |==|  0.63051
USER: genes 21 Torsion [N]-CA--CB-[CG2] |==|  0.79144
USER: genes 22 Torsion [CA]-CB--OG1-[HG1] |==|  0.96446
USER: genes 23 Torsion [N]-CA--C-[O] |==|  0.10841
USER: genes 24 Torsion [N]-CA--CB-[CG] |==|  0.54880
USER: genes 25 Torsion [CA]-CB--CG-[CD2] |==|  0.69304
USER: genes 26 Torsion [N]-CA--CB-[CG] |==|  0.69692
USER: genes 27 Torsion [CA]-CB--CG-[CD1] |==|  0.83707
ROOT
ATOM      1  CA  LEU B   3     -19.868 -22.747 -31.356  1.00 17.18 LIG 0.18  C 
ENDROOT
BRANCH 1 2
ATOM      2  N   LEU B   3     -18.618 -22.162 -31.042  1.00 21.09 LIG-0.35  N 
ATOM      3  C   ARG B   2     -18.516 -21.186 -30.145  1.00 20.79 LIG 0.24  C 
ATOM      4 O    ARG B   2     -19.478 -20.774 -29.463  1.00 18.81 LIG-0.27  OA
ATOM      5 H    LEU B   3     -17.951 -22.490 -31.475  1.00 21.09 LIG 0.16  HD
BRANCH 3 6
ATOM      6  CA  ARG B   2     -17.145 -20.530 -30.047  1.00 21.42 LIG 0.18  C 
BRANCH 6 7
ATOM      7  CB  ARG B   2     -16.817 -19.648 -31.257  1.00 36.36 LIG 0.04  C 
BRANCH 7 8
ATOM      8  CG  ARG B   2     -15.357 -19.236 -31.283  1.00 41.67 LIG 0.02  C 
BRANCH 8 9
ATOM      9  CD  ARG B   2     -15.057 -18.018 -30.408  1.00 51.14 LIG 0.14  C 
BRANCH 9 10
ATOM     10  NE  ARG B   2     -14.277 -18.382 -29.211  1.00 53.41 LIG-0.23  N 
ATOM     11 HE   ARG B   2     -13.421 -18.405 -29.290  1.00 53.41 LIG 0.18  HD
ATOM     12  CZ  ARG B   2     -14.790 -18.679 -28.011  1.00 50.83 LIG 0.67  C 
ATOM     13  NH1 ARG B   2     -16.102 -18.666 -27.815  1.00 40.00 LIG-0.23  N 
ATOM     14  NH2 ARG B   2     -13.978 -19.002 -27.002  1.00 54.23 LIG-0.23  N 
ATOM     15 1HH1 ARG B   2     -16.632 -18.466 -28.462  1.00 40.00 LIG 0.17  HD
ATOM     16 2HH1 ARG B   2     -16.423 -18.859 -27.040  1.00 40.00 LIG 0.17  HD
ATOM     17 1HH2 ARG B   2     -13.127 -19.019 -27.124  1.00 54.23 LIG 0.17  HD
ATOM     18 2HH2 ARG B   2     -14.306 -19.193 -26.231  1.00 54.23 LIG 0.17  HD
ENDBRANCH 9 10
ENDBRANCH 8 9
ENDBRANCH 7 8
ENDBRANCH 6 7
BRANCH 6 19
ATOM     19  N   ARG B   2     -16.162 -21.578 -29.873  1.00 29.89 LIG-0.35  N 
ATOM     20  C   ASN B   1     -16.146 -22.307 -28.765  1.00 39.87 LIG 0.25  C 
ATOM     21 O    ASN B   1     -16.709 -21.949 -27.722  1.00 37.46 LIG-0.27  OA
ATOM     22 H    ARG B   2     -15.615 -21.675 -30.529  1.00 29.89 LIG 0.16  HD
BRANCH 20 23
ATOM     23  CA  ASN B   1     -15.366 -23.632 -28.849  1.00 47.73 LIG 0.28  C 
BRANCH 23 24
ATOM     24  N   ASN B   1     -15.130 -24.103 -30.192  1.00 51.86 LIG-0.07  N 
ATOM     25 H3   ASN B   1     -15.376 -23.476 -30.774  1.00 51.86 LIG 0.28  HD
ATOM     26 H1   ASN B   1     -14.265 -24.281 -30.296  1.00 51.86 LIG 0.28  HD
ATOM     27 H2   ASN B   1     -15.605 -24.842 -30.335  1.00 51.86 LIG 0.28  HD
ENDBRANCH 23 24
BRANCH 23 28
ATOM     28  CB  ASN B   1     -14.027 -23.567 -28.143  1.00 49.79 LIG 0.14  C 
BRANCH 28 29
ATOM     29  CG  ASN B   1     -13.657 -22.144 -27.796  1.00 59.47 LIG 0.22  C 
ATOM     30  ND2 ASN B   1     -13.588 -21.839 -26.496  1.00 63.81 LIG-0.37  N 
ATOM     31 21HD ASN B   1     -13.403 -21.035 -26.252  1.00 63.81 LIG 0.16  HD
ATOM     32 22HD ASN B   1     -13.728 -22.446 -25.904  1.00 63.81 LIG 0.16  HD
ATOM     33 OD1  ASN B   1     -13.466 -21.317 -28.683  1.00 60.25 LIG-0.27  OA
ENDBRANCH 28 29
ENDBRANCH 23 28
ENDBRANCH 20 23
ENDBRANCH 6 19
ENDBRANCH 3 6
ENDBRANCH 1 2
BRANCH 1 34
ATOM     34  CB  LEU B   3     -20.023 -22.865 -32.898  1.00 28.79 LIG 0.04  C 
BRANCH 34 35
ATOM     35  CG  LEU B   3     -21.383 -22.336 -33.366  1.00 33.15 LIG-0.02  C 
ATOM     36  CD2 LEU B   3     -22.107 -23.429 -34.141  1.00 30.13 LIG 0.01  C 
ATOM     37  CD1 LEU B   3     -21.302 -21.039 -34.224  1.00 27.67 LIG 0.01  C 
ENDBRANCH 34 35
ENDBRANCH 1 34
BRANCH 1 38
ATOM     38  C   LEU B   3     -20.062 -24.080 -30.668  1.00 20.33 LIG 0.24  C 
ATOM     39  N   LEU B   4     -20.763 -24.053 -29.540  1.00 23.83 LIG-0.35  N 
ATOM     40 H    LEU B   4     -21.100 -23.340 -29.196  1.00 23.83 LIG 0.16  HD
ATOM     41 O    LEU B   3     -19.603 -25.118 -31.137  1.00 22.70 LIG-0.27  OA
BRANCH 39 42
ATOM     42  CA  LEU B   4     -21.017 -25.274 -28.785  1.00 22.91 LIG 0.18  C 
BRANCH 42 43
ATOM     43  C   LEU B   4     -21.348 -26.395 -29.775  1.00 30.74 LIG 0.24  C 
ATOM     44 O    LEU B   4     -22.176 -26.215 -30.714  1.00 30.11 LIG-0.27  OA
ATOM     45  N   LEU B   5     -20.755 -27.565 -29.583  1.00 32.41 LIG-0.35  N 
ATOM     46 H    LEU B   5     -20.138 -27.726 -29.006  1.00 32.41 LIG 0.16  HD
BRANCH 45 47
ATOM     47  CA  LEU B   5     -21.168 -28.701 -30.417  1.00 35.50 LIG 0.18  C 
BRANCH 47 48
ATOM     48  C   LEU B   5     -21.954 -29.713 -29.590  1.00 33.38 LIG 0.24  C 
ATOM     49 O    LEU B   5     -22.574 -30.652 -30.136  1.00 25.58 LIG-0.27  OA
ATOM     50  N   THR B   6     -21.919 -29.501 -28.279  1.00 32.99 LIG-0.34  N 
ATOM     51 H    THR B   6     -21.379 -28.941 -27.912  1.00 32.99 LIG 0.16  HD
BRANCH 50 52
ATOM     52  CA  THR B   6     -22.780 -30.183 -27.322  1.00 39.09 LIG 0.19  C 
BRANCH 52 53
ATOM     53  CB  THR B   6     -21.970 -31.218 -26.494  1.00 66.99 LIG 0.14  C 
ATOM     54  CG2 THR B   6     -21.660 -32.450 -27.321  1.00 64.52 LIG 0.04  C 
BRANCH 53 55
ATOM     55 OG1  THR B   6     -20.727 -30.631 -26.060  1.00 68.32 LIG-0.39  OA
ATOM     56 HG1  THR B   6     -20.595 -29.913 -26.476  1.00 68.32 LIG 0.21  HD
ENDBRANCH 53 55
ENDBRANCH 52 53
BRANCH 52 57
ATOM     57  C   THR B   6     -23.372 -29.141 -26.361  1.00 46.48 LIG 0.22  C 
ATOM     58 O    THR B   6     -23.732 -28.028 -26.775  1.00 50.47 LIG-0.29  OA
ENDBRANCH 52 57
ENDBRANCH 50 52
ENDBRANCH 47 48
BRANCH 47 59
ATOM     59  CB  LEU B   5     -19.963 -29.407 -31.023  1.00 41.25 LIG 0.04  C 
BRANCH 59 60
ATOM     60  CG  LEU B   5     -20.197 -30.326 -32.212  1.00 47.99 LIG-0.02  C 
ATOM     61  CD2 LEU B   5     -19.977 -31.759 -31.816  1.00 50.88 LIG 0.01  C 
ATOM     62  CD1 LEU B   5     -19.227 -29.933 -33.307  1.00 54.72 LIG 0.01  C 
ENDBRANCH 59 60
ENDBRANCH 47 59
ENDBRANCH 45 47
ENDBRANCH 42 43
BRANCH 42 63
ATOM     63  CB  LEU B   4     -22.237 -25.033 -27.919  1.00 23.96 LIG 0.04  C 
BRANCH 63 64
ATOM     64  CG  LEU B   4     -22.170 -24.888 -26.415  1.00 38.52 LIG-0.02  C 
ATOM     65  CD1 LEU B   4     -21.580 -26.090 -25.774  1.00 46.71 LIG 0.01  C 
ATOM     66  CD2 LEU B   4     -21.390 -23.608 -26.078  1.00 36.33 LIG 0.01  C 
ENDBRANCH 63 64
ENDBRANCH 42 63
ENDBRANCH 39 42
ENDBRANCH 1 38
TORSDOF 26
ENDMDL
MODEL 104
USER: ADFR SOLUTION from run 143
USER: SCORE 21.450916 LL:  -4.961 LR: -18.324 RR:   0.000 FEB: -10.568
USER: RMSD 12.251157
USER: SEED 142
USER: STATUS no improvement in best in 9 clusters for 5 generations
USER: GENES 28
USER: genes 0 Translation |==|  0.39422 0.38426 0.49829
USER: genes 1 Rotation |==|  0.11582 0.79843 0.57305 0.58948
USER: genes 2 Torsion [C]-CA--N-[C] |==|  0.84946
USER: genes 3 Torsion [N]-C--CA-[N] |==|  0.99496
USER: genes 4 Torsion [C]-CA--CB-[CG] |==|  0.62539
USER: genes 5 Torsion [CA]-CB--CG-[CD] |==|  0.50293
USER: genes 6 Torsion [CB]-CG--CD-[NE] |==|  0.67245
USER: genes 7 Torsion [CG]-CD--NE-[HE] |==|  0.91208
USER: genes 8 Torsion [C]-CA--N-[C] |==|  0.69532
USER: genes 9 Torsion [N]-C--CA-[N] |==|  0.29369
USER: genes 10 Torsion [C]-CA--N-[H3] |==|  0.97974
USER: genes 11 Torsion [C]-CA--CB-[CG] |==|  0.51732
USER: genes 12 Torsion [CA]-CB--CG-[ND2] |==|  0.82523
USER: genes 13 Torsion [N]-CA--CB-[CG] |==|  0.05478
USER: genes 14 Torsion [CA]-CB--CG-[CD1] |==|  0.36312
USER: genes 15 Torsion [N]-CA--C-[N] |==|  0.37778
USER: genes 16 Torsion [C]-N--CA-[CB] |==|  0.39262
USER: genes 17 Torsion [N]-CA--C-[N] |==|  0.75439
USER: genes 18 Torsion [C]-N--CA-[C] |==|  0.76934
USER: genes 19 Torsion [N]-CA--C-[N] |==|  0.97391
USER: genes 20 Torsion [C]-N--CA-[C] |==|  0.15678
USER: genes 21 Torsion [N]-CA--CB-[CG2] |==|  0.30327
USER: genes 22 Torsion [CA]-CB--OG1-[HG1] |==|  0.87833
USER: genes 23 Torsion [N]-CA--C-[O] |==|  0.08936
USER: genes 24 Torsion [N]-CA--CB-[CG] |==|  0.81776
USER: genes 25 Torsion [CA]-CB--CG-[CD2] |==|  0.28731
USER: genes 26 Torsion [N]-CA--CB-[CG] |==|  0.48860
USER: genes 27 Torsion [CA]-CB--CG-[CD1] |==|  0.16757
ROOT
ATOM      1  CA  LEU B   3     -20.720 -25.736 -28.353  1.00 17.18 LIG 0.18  C 
ENDROOT
BRANCH 1 2
ATOM      2  N   LEU B   3     -20.567 -24.362 -28.655  1.00 21.09 LIG-0.35  N 
ATOM      3  C   ARG B   2     -19.859 -23.959 -29.707  1.00 20.79 LIG 0.24  C 
ATOM      4 O    ARG B   2     -19.356 -24.743 -30.539  1.00 18.81 LIG-0.27  OA
ATOM      5 H    LEU B   3     -20.964 -23.829 -28.109  1.00 21.09 LIG 0.16  HD
BRANCH 3 6
ATOM      6  CA  ARG B   2     -19.626 -22.457 -29.800  1.00 21.42 LIG 0.18  C 
BRANCH 6 7
ATOM      7  CB  ARG B   2     -18.140 -22.084 -29.834  1.00 36.36 LIG 0.04  C 
BRANCH 7 8
ATOM      8  CG  ARG B   2     -17.823 -20.925 -28.908  1.00 41.67 LIG 0.02  C 
BRANCH 8 9
ATOM      9  CD  ARG B   2     -16.350 -20.513 -28.939  1.00 51.14 LIG 0.14  C 
BRANCH 9 10
ATOM     10  NE  ARG B   2     -15.705 -20.685 -27.624  1.00 53.41 LIG-0.23  N 
ATOM     11 HE   ARG B   2     -16.196 -20.576 -26.927  1.00 53.41 LIG 0.18  HD
ATOM     12  CZ  ARG B   2     -14.419 -20.997 -27.425  1.00 50.83 LIG 0.67  C 
ATOM     13  NH1 ARG B   2     -13.601 -21.178 -28.454  1.00 40.00 LIG-0.23  N 
ATOM     14  NH2 ARG B   2     -13.949 -21.118 -26.182  1.00 54.23 LIG-0.23  N 
ATOM     15 1HH1 ARG B   2     -13.895 -21.094 -29.257  1.00 40.00 LIG 0.17  HD
ATOM     16 2HH1 ARG B   2     -12.775 -21.378 -28.317  1.00 40.00 LIG 0.17  HD
ATOM     17 1HH2 ARG B   2     -14.472 -20.996 -25.511  1.00 54.23 LIG 0.17  HD
ATOM     18 2HH2 ARG B   2     -13.123 -21.319 -26.053  1.00 54.23 LIG 0.17  HD
ENDBRANCH 9 10
ENDBRANCH 8 9
ENDBRANCH 7 8
ENDBRANCH 6 7
BRANCH 6 19
ATOM     19  N   ARG B   2     -20.305 -21.832 -28.686  1.00 29.89 LIG-0.35  N 
ATOM     20  C   ASN B   1     -21.389 -21.095 -28.886  1.00 39.87 LIG 0.25  C 
ATOM     21 O    ASN B   1     -21.687 -20.634 -29.996  1.00 37.46 LIG-0.27  OA
ATOM     22 H    ARG B   2     -19.950 -21.980 -27.916  1.00 29.89 LIG 0.16  HD
BRANCH 20 23
ATOM     23  CA  ASN B   1     -22.257 -20.833 -27.642  1.00 47.73 LIG 0.28  C 
BRANCH 23 24
ATOM     24  N   ASN B   1     -22.156 -19.496 -27.112  1.00 51.86 LIG-0.07  N 
ATOM     25 H3   ASN B   1     -21.512 -19.055 -27.540  1.00 51.86 LIG 0.28  HD
ATOM     26 H1   ASN B   1     -22.930 -19.072 -27.225  1.00 51.86 LIG 0.28  HD
ATOM     27 H2   ASN B   1     -21.963 -19.535 -26.244  1.00 51.86 LIG 0.28  HD
ENDBRANCH 23 24
BRANCH 23 28
ATOM     28  CB  ASN B   1     -23.725 -21.123 -27.883  1.00 49.79 LIG 0.14  C 
BRANCH 28 29
ATOM     29  CG  ASN B   1     -24.567 -20.714 -26.698  1.00 59.47 LIG 0.22  C 
ATOM     30  ND2 ASN B   1     -24.334 -21.351 -25.544  1.00 63.81 LIG-0.37  N 
ATOM     31 21HD ASN B   1     -24.805 -21.166 -24.849  1.00 63.81 LIG 0.16  HD
ATOM     32 22HD ASN B   1     -23.713 -21.943 -25.498  1.00 63.81 LIG 0.16  HD
ATOM     33 OD1  ASN B   1     -25.440 -19.860 -26.819  1.00 60.25 LIG-0.27  OA
ENDBRANCH 28 29
ENDBRANCH 23 28
ENDBRANCH 20 23
ENDBRANCH 6 19
ENDBRANCH 3 6
ENDBRANCH 1 2
BRANCH 1 34
ATOM     34  CB  LEU B   3     -21.610 -25.903 -27.089  1.00 28.79 LIG 0.04  C 
BRANCH 34 35
ATOM     35  CG  LEU B   3     -22.446 -24.646 -26.824  1.00 33.15 LIG-0.02  C 
ATOM     36  CD2 LEU B   3     -21.856 -23.892 -25.639  1.00 30.13 LIG 0.01  C 
ATOM     37  CD1 LEU B   3     -23.958 -24.925 -26.578  1.00 27.67 LIG 0.01  C 
ENDBRANCH 34 35
ENDBRANCH 1 34
BRANCH 1 38
ATOM     38  C   LEU B   3     -21.261 -26.520 -29.528  1.00 20.33 LIG 0.24  C 
ATOM     39  N   LEU B   4     -20.668 -27.685 -29.769  1.00 23.83 LIG-0.35  N 
ATOM     40 H    LEU B   4     -20.016 -28.002 -29.305  1.00 23.83 LIG 0.16  HD
ATOM     41 O    LEU B   3     -22.196 -26.102 -30.205  1.00 22.70 LIG-0.27  OA
BRANCH 39 42
ATOM     42  CA  LEU B   4     -21.099 -28.532 -30.875  1.00 22.91 LIG 0.18  C 
BRANCH 42 43
ATOM     43  C   LEU B   4     -21.961 -29.665 -30.309  1.00 30.74 LIG 0.24  C 
ATOM     44 O    LEU B   4     -23.213 -29.537 -30.189  1.00 30.11 LIG-0.27  OA
ATOM     45  N   LEU B   5     -21.332 -30.766 -29.922  1.00 32.41 LIG-0.35  N 
ATOM     46 H    LEU B   5     -20.497 -30.934 -30.038  1.00 32.41 LIG 0.16  HD
BRANCH 45 47
ATOM     47  CA  LEU B   5     -22.107 -31.805 -29.232  1.00 35.50 LIG 0.18  C 
BRANCH 47 48
ATOM     48  C   LEU B   5     -22.237 -31.480 -27.749  1.00 33.38 LIG 0.24  C 
ATOM     49 O    LEU B   5     -23.005 -32.132 -27.008  1.00 25.58 LIG-0.27  OA
ATOM     50  N   THR B   6     -21.483 -30.465 -27.337  1.00 32.99 LIG-0.34  N 
ATOM     51 H    THR B   6     -20.862 -30.121 -27.822  1.00 32.99 LIG 0.16  HD
BRANCH 50 52
ATOM     52  CA  THR B   6     -21.620 -29.825 -26.036  1.00 39.09 LIG 0.19  C 
BRANCH 52 53
ATOM     53  CB  THR B   6     -23.018 -29.163 -25.894  1.00 66.99 LIG 0.14  C 
ATOM     54  CG2 THR B   6     -23.881 -29.926 -24.908  1.00 64.52 LIG 0.04  C 
BRANCH 53 55
ATOM     55 OG1  THR B   6     -22.872 -27.809 -25.424  1.00 68.32 LIG-0.39  OA
ATOM     56 HG1  THR B   6     -22.306 -27.786 -24.804  1.00 68.32 LIG 0.21  HD
ENDBRANCH 53 55
ENDBRANCH 52 53
BRANCH 52 57
ATOM     57  C   THR B   6     -21.469 -30.893 -24.943  1.00 46.48 LIG 0.22  C 
ATOM     58 O    THR B   6     -20.727 -31.873 -25.112  1.00 50.47 LIG-0.29  OA
ENDBRANCH 52 57
ENDBRANCH 50 52
ENDBRANCH 47 48
BRANCH 47 59
ATOM     59  CB  LEU B   5     -21.444 -33.170 -29.369  1.00 41.25 LIG 0.04  C 
BRANCH 59 60
ATOM     60  CG  LEU B   5     -21.360 -33.787 -30.756  1.00 47.99 LIG-0.02  C 
ATOM     61  CD2 LEU B   5     -19.967 -33.651 -31.305  1.00 50.88 LIG 0.01  C 
ATOM     62  CD1 LEU B   5     -22.345 -33.064 -31.651  1.00 54.72 LIG 0.01  C 
ENDBRANCH 59 60
ENDBRANCH 47 59
ENDBRANCH 45 47
ENDBRANCH 42 43
BRANCH 42 63
ATOM     63  CB  LEU B   4     -19.859 -29.145 -31.493  1.00 23.96 LIG 0.04  C 
BRANCH 63 64
ATOM     64  CG  LEU B   4     -19.907 -30.158 -32.616  1.00 38.52 LIG-0.02  C 
ATOM     65  CD1 LEU B   4     -20.567 -29.604 -33.825  1.00 46.71 LIG 0.01  C 
ATOM     66  CD2 LEU B   4     -18.477 -30.640 -32.905  1.00 36.33 LIG 0.01  C 
ENDBRANCH 63 64
ENDBRANCH 42 63
ENDBRANCH 39 42
ENDBRANCH 1 38
TORSDOF 26
ENDMDL
