MODEL 1
USER: ADFR SOLUTION from run 66
USER: SCORE 20.165396 LL:  -2.497 LR: -20.744 RR:   0.000 FEB: -12.093
USER: RMSD 7.769074
USER: SEED 65
USER: STATUS no improvement in best in 4 clusters for 5 generations
USER: GENES 31
USER: genes 0 Translation |==|  0.49513 0.68380 0.49835
USER: genes 1 Rotation |==|  0.69414 0.09639 0.55041 0.71649
USER: genes 2 Torsion [C]-CA--CB-[CG] |==|  0.34441
USER: genes 3 Torsion [CA]-CB--CG-[CD] |==|  0.31858
USER: genes 4 Torsion [CB]-CG--CD-[NE] |==|  0.50295
USER: genes 5 Torsion [CG]-CD--NE-[HE] |==|  0.83295
USER: genes 6 Torsion [N]-CA--C-[N] |==|  0.60210
USER: genes 7 Torsion [C]-N--CA-[CB] |==|  0.44733
USER: genes 8 Torsion [N]-CA--CB-[CG] |==|  0.28845
USER: genes 9 Torsion [CA]-CB--CG-[CD] |==|  0.30937
USER: genes 10 Torsion [CB]-CG--CD-[CE] |==|  0.50655
USER: genes 11 Torsion [CG]-CD--CE-[NZ] |==|  0.72561
USER: genes 12 Torsion [CD]-CE--NZ-[HZ2] |==|  0.75335
USER: genes 13 Torsion [N]-CA--C-[N] |==|  0.91753
USER: genes 14 Torsion [C]-N--CA-[CB] |==|  0.29427
USER: genes 15 Torsion [N]-CA--C-[O] |==|  0.18517
USER: genes 16 Torsion [N]-CA--CB-[CG1] |==|  0.37370
USER: genes 17 Torsion [CB]-CA--N-[C] |==|  0.86642
USER: genes 18 Torsion [N]-C--CA-[N] |==|  0.97778
USER: genes 19 Torsion [C]-CA--CB-[CG] |==|  0.43021
USER: genes 20 Torsion [CA]-CB--CG-[CD] |==|  0.91185
USER: genes 21 Torsion [CB]-CG--CD-[CE] |==|  0.75974
USER: genes 22 Torsion [CG]-CD--CE-[NZ] |==|  0.50258
USER: genes 23 Torsion [CD]-CE--NZ-[HZ1] |==|  0.95895
USER: genes 24 Torsion [C]-CA--N-[C] |==|  0.72108
USER: genes 25 Torsion [N]-C--CA-[N] |==|  0.43325
USER: genes 26 Torsion [C]-CA--CB-[CG] |==|  0.91025
USER: genes 27 Torsion [CA]-CB--CG-[CD] |==|  0.54850
USER: genes 28 Torsion [CB]-CG--CD-[CE] |==|  0.62151
USER: genes 29 Torsion [CG]-CD--CE-[NZ] |==|  0.57829
USER: genes 30 Torsion [CD]-CE--NZ-[HZ2] |==|  0.93747
ROOT
ATOM      1  CA  ARG A 130     -30.916  91.337 202.441  1.00 33.49 LIG 0.18  C 
ENDROOT
BRANCH 1 2
ATOM      2  CB  ARG A 130     -30.214  90.606 203.587  1.00 35.16 LIG 0.04  C 
BRANCH 2 3
ATOM      3  CG  ARG A 130     -29.147  91.401 204.312  1.00 39.71 LIG 0.02  C 
BRANCH 3 4
ATOM      4  CD  ARG A 130     -29.570  91.655 205.758  1.00 38.05 LIG 0.14  C 
BRANCH 4 5
ATOM      5  NE  ARG A 130     -28.575  92.443 206.486  1.00 39.97 LIG-0.23  N 
ATOM      6 HE   ARG A 130     -27.782  92.117 206.561  1.00 39.97 LIG 0.18  HD
ATOM      7  CZ  ARG A 130     -28.812  93.628 207.040  1.00 35.35 LIG 0.67  C 
ATOM      8  NH1 ARG A 130     -30.019  94.173 206.968  1.00 35.08 LIG-0.23  N 
ATOM      9  NH2 ARG A 130     -27.841  94.268 207.676  1.00 36.08 LIG-0.23  N 
ATOM     10 2HH1 ARG A 130     -30.166  94.940 207.329  1.00 35.08 LIG 0.17  HD
ATOM     11 1HH1 ARG A 130     -30.654  93.760 206.562  1.00 35.08 LIG 0.17  HD
ATOM     12 1HH2 ARG A 130     -27.059  93.917 207.731  1.00 36.08 LIG 0.17  HD
ATOM     13 2HH2 ARG A 130     -27.995  95.035 208.035  1.00 36.08 LIG 0.17  HD
ENDBRANCH 4 5
ENDBRANCH 3 4
ENDBRANCH 2 3
ENDBRANCH 1 2
BRANCH 1 14
ATOM     14  C   ARG A 130     -30.772  90.517 201.172  1.00 35.02 LIG 0.24  C 
ATOM     15  N   LYS A 131     -29.792  89.619 201.144  1.00 32.29 LIG-0.35  N 
ATOM     16 H    LYS A 131     -29.227  89.495 201.780  1.00 32.29 LIG 0.16  HD
ATOM     17 O    ARG A 130     -31.549  90.678 200.235  1.00 31.53 LIG-0.27  OA
BRANCH 15 18
ATOM     18  CA  LYS A 131     -29.610  88.759 199.984  1.00 31.30 LIG 0.18  C 
BRANCH 18 19
ATOM     19  CB  LYS A 131     -28.190  88.169 199.977  1.00 33.79 LIG 0.04  C 
BRANCH 19 20
ATOM     20  CG  LYS A 131     -28.189  86.712 200.417  1.00 34.08 LIG 0.00  C 
BRANCH 20 21
ATOM     21  CD  LYS A 131     -27.852  85.746 199.325  1.00 36.35 LIG 0.03  C 
BRANCH 21 22
ATOM     22  CE  LYS A 131     -27.931  84.314 199.841  1.00 32.79 LIG 0.23  C 
BRANCH 22 23
ATOM     23  NZ  LYS A 131     -26.581  83.788 200.191  1.00 29.22 LIG-0.08  N 
ATOM     24 HZ3  LYS A 131     -26.065  84.456 200.472  1.00 29.22 LIG 0.27  HD
ATOM     25 HZ2  LYS A 131     -26.214  83.412 199.473  1.00 29.22 LIG 0.27  HD
ATOM     26 HZ1  LYS A 131     -26.658  83.181 200.837  1.00 29.22 LIG 0.27  HD
ENDBRANCH 22 23
ENDBRANCH 21 22
ENDBRANCH 20 21
ENDBRANCH 19 20
ENDBRANCH 18 19
BRANCH 18 27
ATOM     27  C   LYS A 131     -30.672  87.664 199.974  1.00 34.74 LIG 0.24  C 
ATOM     28  N   VAL A 132     -31.131  87.267 201.157  1.00 33.85 LIG-0.35  N 
ATOM     29 H    VAL A 132     -30.850  87.573 201.910  1.00 33.85 LIG 0.16  HD
ATOM     30 O    LYS A 131     -31.044  87.163 198.912  1.00 35.56 LIG-0.27  OA
BRANCH 28 31
ATOM     31  CA  VAL A 132     -32.176  86.252 201.266  1.00 36.14 LIG 0.17  C 
BRANCH 31 32
ATOM     32  C   VAL A 132     -33.291  86.682 202.222  1.00 41.88 LIG 0.22  C 
ATOM     33 O    VAL A 132     -34.022  87.637 201.934  1.00 46.22 LIG-0.29  OA
ENDBRANCH 31 32
BRANCH 31 34
ATOM     34  CB  VAL A 132     -31.603  84.898 201.744  1.00 35.83 LIG 0.01  C 
ATOM     35  CG1 VAL A 132     -32.487  84.302 202.835  1.00 39.48 LIG 0.01  C 
ATOM     36  CG2 VAL A 132     -31.480  83.936 200.588  1.00 35.02 LIG 0.01  C 
ENDBRANCH 31 34
ENDBRANCH 28 31
ENDBRANCH 18 27
ENDBRANCH 15 18
ENDBRANCH 1 14
BRANCH 1 37
ATOM     37  N   ARG A 130     -32.326  91.585 202.746  1.00 35.65 LIG-0.35  N 
ATOM     38 H    ARG A 130     -32.583  92.391 202.595  1.00 35.65 LIG 0.16  HD
ATOM     39  C   LYS A 129     -33.125  90.630 203.217  1.00 38.36 LIG 0.24  C 
ATOM     40 O    LYS A 129     -32.749  89.476 203.395  1.00 38.91 LIG-0.27  OA
BRANCH 39 41
ATOM     41  CA  LYS A 129     -34.558  91.038 203.548  1.00 41.62 LIG 0.18  C 
BRANCH 41 42
ATOM     42  CB  LYS A 129     -35.523  90.310 202.615  1.00 37.07 LIG 0.04  C 
BRANCH 42 43
ATOM     43  CG  LYS A 129     -36.929  90.129 203.166  1.00 37.25 LIG 0.00  C 
BRANCH 43 44
ATOM     44  CD  LYS A 129     -36.935  89.976 204.686  1.00 32.25 LIG 0.03  C 
BRANCH 44 45
ATOM     45  CE  LYS A 129     -36.723  88.515 205.064  1.00 33.17 LIG 0.23  C 
BRANCH 45 46
ATOM     46  NZ  LYS A 129     -36.738  88.279 206.543  1.00 31.02 LIG-0.08  N 
ATOM     47 HZ2  LYS A 129     -37.507  87.894 206.774  1.00 31.02 LIG 0.27  HD
ATOM     48 HZ3  LYS A 129     -36.061  87.747 206.766  1.00 31.02 LIG 0.27  HD
ATOM     49 HZ1  LYS A 129     -36.656  89.057 206.969  1.00 31.02 LIG 0.27  HD
ENDBRANCH 45 46
ENDBRANCH 44 45
ENDBRANCH 43 44
ENDBRANCH 42 43
ENDBRANCH 41 42
BRANCH 41 50
ATOM     50  N   LYS A 129     -34.758  92.484 203.459  1.00 48.91 LIG-0.35  N 
ATOM     51  C   LYS A 128     -34.773  93.260 204.543  1.00 46.33 LIG 0.26  C 
ATOM     52 O    LYS A 128     -34.560  92.832 205.676  1.00 48.39 LIG-0.27  OA
ATOM     53 H    LYS A 129     -34.863  92.779 202.658  1.00 48.91 LIG 0.16  HD
BRANCH 51 54
ATOM     54  CA  LYS A 128     -35.056  94.745 204.313  1.00 52.62 LIG 0.40  C 
ATOM     55  N   LYS A 128     -35.596  95.362 205.516  1.00 52.42 LIG 0.61  N 
BRANCH 54 56
ATOM     56  CB  LYS A 128     -33.778  95.467 203.867  1.00 53.69 LIG 0.05  C 
BRANCH 56 57
ATOM     57  CG  LYS A 128     -32.496  94.894 204.455  1.00 48.68 LIG 0.00  C 
BRANCH 57 58
ATOM     58  CD  LYS A 128     -31.345  95.877 204.332  1.00 52.15 LIG 0.03  C 
BRANCH 58 59
ATOM     59  CE  LYS A 128     -30.081  95.169 203.871  1.00 44.05 LIG 0.23  C 
BRANCH 59 60
ATOM     60  NZ  LYS A 128     -28.828  95.833 204.344  1.00 43.39 LIG-0.08  N 
ATOM     61 HZ1  LYS A 128     -28.209  95.788 203.706  1.00 43.39 LIG 0.27  HD
ATOM     62 HZ2  LYS A 128     -28.997  96.686 204.534  1.00 43.39 LIG 0.27  HD
ATOM     63 HZ3  LYS A 128     -28.531  95.420 205.074  1.00 43.39 LIG 0.27  HD
ENDBRANCH 59 60
ENDBRANCH 58 59
ENDBRANCH 57 58
ENDBRANCH 56 57
ENDBRANCH 54 56
ENDBRANCH 51 54
ENDBRANCH 41 50
ENDBRANCH 39 41
ENDBRANCH 1 37
TORSDOF 29
ENDMDL
MODEL 2
USER: ADFR SOLUTION from run 93
USER: SCORE 20.698048 LL:  -1.937 LR: -20.168 RR:   0.000 FEB: -11.518
USER: RMSD 7.670528
USER: SEED 92
USER: STATUS no improvement in best in 3 clusters for 5 generations
USER: GENES 31
USER: genes 0 Translation |==|  0.39926 0.56546 0.52483
USER: genes 1 Rotation |==|  0.67407 0.92244 0.70306 0.50364
USER: genes 2 Torsion [C]-CA--CB-[CG] |==|  0.82124
USER: genes 3 Torsion [CA]-CB--CG-[CD] |==|  0.65831
USER: genes 4 Torsion [CB]-CG--CD-[NE] |==|  0.97967
USER: genes 5 Torsion [CG]-CD--NE-[HE] |==|  0.12441
USER: genes 6 Torsion [N]-CA--C-[N] |==|  0.23745
USER: genes 7 Torsion [C]-N--CA-[CB] |==|  0.19849
USER: genes 8 Torsion [N]-CA--CB-[CG] |==|  0.12307
USER: genes 9 Torsion [CA]-CB--CG-[CD] |==|  0.24305
USER: genes 10 Torsion [CB]-CG--CD-[CE] |==|  0.10439
USER: genes 11 Torsion [CG]-CD--CE-[NZ] |==|  0.49262
USER: genes 12 Torsion [CD]-CE--NZ-[HZ2] |==|  0.18426
USER: genes 13 Torsion [N]-CA--C-[N] |==|  0.98942
USER: genes 14 Torsion [C]-N--CA-[CB] |==|  0.85385
USER: genes 15 Torsion [N]-CA--C-[O] |==|  0.98930
USER: genes 16 Torsion [N]-CA--CB-[CG1] |==|  0.51416
USER: genes 17 Torsion [CB]-CA--N-[C] |==|  0.51667
USER: genes 18 Torsion [N]-C--CA-[N] |==|  0.96394
USER: genes 19 Torsion [C]-CA--CB-[CG] |==|  0.43482
USER: genes 20 Torsion [CA]-CB--CG-[CD] |==|  0.43277
USER: genes 21 Torsion [CB]-CG--CD-[CE] |==|  0.44713
USER: genes 22 Torsion [CG]-CD--CE-[NZ] |==|  0.26797
USER: genes 23 Torsion [CD]-CE--NZ-[HZ1] |==|  0.94047
USER: genes 24 Torsion [C]-CA--N-[C] |==|  0.79448
USER: genes 25 Torsion [N]-C--CA-[N] |==|  0.83862
USER: genes 26 Torsion [C]-CA--CB-[CG] |==|  0.13014
USER: genes 27 Torsion [CA]-CB--CG-[CD] |==|  0.71371
USER: genes 28 Torsion [CB]-CG--CD-[CE] |==|  0.41561
USER: genes 29 Torsion [CG]-CD--CE-[NZ] |==|  0.41436
USER: genes 30 Torsion [CD]-CE--NZ-[HZ2] |==|  0.44981
ROOT
ATOM      1  CA  ARG A 130     -33.001  88.408 202.897  1.00 33.49 LIG 0.18  C 
ENDROOT
BRANCH 1 2
ATOM      2  CB  ARG A 130     -34.493  88.175 203.144  1.00 35.16 LIG 0.04  C 
BRANCH 2 3
ATOM      3  CG  ARG A 130     -35.416  89.267 202.643  1.00 39.71 LIG 0.02  C 
BRANCH 3 4
ATOM      4  CD  ARG A 130     -36.267  89.807 203.792  1.00 38.05 LIG 0.14  C 
BRANCH 4 5
ATOM      5  NE  ARG A 130     -36.093  89.021 205.014  1.00 39.97 LIG-0.23  N 
ATOM      6 HE   ARG A 130     -35.292  88.804 205.241  1.00 39.97 LIG 0.18  HD
ATOM      7  CZ  ARG A 130     -37.088  88.619 205.799  1.00 35.35 LIG 0.67  C 
ATOM      8  NH1 ARG A 130     -38.346  88.912 205.491  1.00 35.08 LIG-0.23  N 
ATOM      9  NH2 ARG A 130     -36.829  87.914 206.890  1.00 36.08 LIG-0.23  N 
ATOM     10 2HH1 ARG A 130     -38.985  88.649 206.002  1.00 35.08 LIG 0.17  HD
ATOM     11 1HH1 ARG A 130     -38.520  89.364 204.780  1.00 35.08 LIG 0.17  HD
ATOM     12 1HH2 ARG A 130     -36.017  87.716 207.091  1.00 36.08 LIG 0.17  HD
ATOM     13 2HH2 ARG A 130     -37.473  87.654 207.397  1.00 36.08 LIG 0.17  HD
ENDBRANCH 4 5
ENDBRANCH 3 4
ENDBRANCH 2 3
ENDBRANCH 1 2
BRANCH 1 14
ATOM     14  C   ARG A 130     -32.745  88.422 201.402  1.00 35.02 LIG 0.24  C 
ATOM     15  N   LYS A 131     -31.542  88.032 200.993  1.00 32.29 LIG-0.35  N 
ATOM     16 H    LYS A 131     -30.901  87.801 201.518  1.00 32.29 LIG 0.16  HD
ATOM     17 O    ARG A 130     -33.631  88.762 200.622  1.00 31.53 LIG-0.27  OA
BRANCH 15 18
ATOM     18  CA  LYS A 131     -31.226  87.972 199.574  1.00 31.30 LIG 0.18  C 
BRANCH 18 19
ATOM     19  CB  LYS A 131     -31.100  89.391 198.997  1.00 33.79 LIG 0.04  C 
BRANCH 19 20
ATOM     20  CG  LYS A 131     -30.292  90.298 199.915  1.00 34.08 LIG 0.00  C 
BRANCH 20 21
ATOM     21  CD  LYS A 131     -28.817  90.251 199.674  1.00 36.35 LIG 0.03  C 
BRANCH 21 22
ATOM     22  CE  LYS A 131     -28.526  90.130 198.184  1.00 32.79 LIG 0.23  C 
BRANCH 22 23
ATOM     23  NZ  LYS A 131     -27.060  90.145 197.914  1.00 29.22 LIG-0.08  N 
ATOM     24 HZ3  LYS A 131     -26.920  90.166 197.035  1.00 29.22 LIG 0.27  HD
ATOM     25 HZ2  LYS A 131     -26.687  89.413 198.256  1.00 29.22 LIG 0.27  HD
ATOM     26 HZ1  LYS A 131     -26.696  90.865 198.289  1.00 29.22 LIG 0.27  HD
ENDBRANCH 22 23
ENDBRANCH 21 22
ENDBRANCH 20 21
ENDBRANCH 19 20
ENDBRANCH 18 19
BRANCH 18 27
ATOM     27  C   LYS A 131     -29.952  87.162 199.355  1.00 34.74 LIG 0.24  C 
ATOM     28  N   VAL A 132     -29.323  86.734 200.446  1.00 33.85 LIG-0.35  N 
ATOM     29 H    VAL A 132     -29.580  86.905 201.249  1.00 33.85 LIG 0.16  HD
ATOM     30 O    LYS A 131     -29.527  86.959 198.217  1.00 35.56 LIG-0.27  OA
BRANCH 28 31
ATOM     31  CA  VAL A 132     -28.115  85.919 200.356  1.00 36.14 LIG 0.17  C 
BRANCH 31 32
ATOM     32  C   VAL A 132     -26.923  86.722 199.828  1.00 41.88 LIG 0.22  C 
ATOM     33 O    VAL A 132     -27.075  87.895 199.470  1.00 46.22 LIG-0.29  OA
ENDBRANCH 31 32
BRANCH 31 34
ATOM     34  CB  VAL A 132     -28.329  84.687 199.446  1.00 35.83 LIG 0.01  C 
ATOM     35  CG1 VAL A 132     -27.096  83.788 199.470  1.00 39.48 LIG 0.01  C 
ATOM     36  CG2 VAL A 132     -29.549  83.913 199.881  1.00 35.02 LIG 0.01  C 
ENDBRANCH 31 34
ENDBRANCH 28 31
ENDBRANCH 18 27
ENDBRANCH 15 18
ENDBRANCH 1 14
BRANCH 1 37
ATOM     37  N   ARG A 130     -32.543  89.652 203.518  1.00 35.65 LIG-0.35  N 
ATOM     38 H    ARG A 130     -33.136  90.044 204.001  1.00 35.65 LIG 0.16  HD
ATOM     39  C   LYS A 129     -31.310  90.120 203.337  1.00 38.36 LIG 0.24  C 
ATOM     40 O    LYS A 129     -30.466  89.529 202.671  1.00 38.91 LIG-0.27  OA
BRANCH 39 41
ATOM     41  CA  LYS A 129     -30.981  91.457 203.994  1.00 41.62 LIG 0.18  C 
BRANCH 41 42
ATOM     42  CB  LYS A 129     -30.005  91.232 205.147  1.00 37.07 LIG 0.04  C 
BRANCH 42 43
ATOM     43  CG  LYS A 129     -29.171  92.447 205.523  1.00 37.25 LIG 0.00  C 
BRANCH 43 44
ATOM     44  CD  LYS A 129     -28.683  92.384 206.969  1.00 32.25 LIG 0.03  C 
BRANCH 44 45
ATOM     45  CE  LYS A 129     -27.505  93.330 207.164  1.00 33.17 LIG 0.23  C 
BRANCH 45 46
ATOM     46  NZ  LYS A 129     -27.903  94.661 207.724  1.00 31.02 LIG-0.08  N 
ATOM     47 HZ2  LYS A 129     -27.755  94.670 208.601  1.00 31.02 LIG 0.27  HD
ATOM     48 HZ3  LYS A 129     -27.423  95.302 207.336  1.00 31.02 LIG 0.27  HD
ATOM     49 HZ1  LYS A 129     -28.768  94.802 207.568  1.00 31.02 LIG 0.27  HD
ENDBRANCH 45 46
ENDBRANCH 44 45
ENDBRANCH 43 44
ENDBRANCH 42 43
ENDBRANCH 41 42
BRANCH 41 50
ATOM     50  N   LYS A 129     -32.178  92.152 204.469  1.00 48.91 LIG-0.35  N 
ATOM     51  C   LYS A 128     -33.025  92.747 203.629  1.00 46.33 LIG 0.26  C 
ATOM     52 O    LYS A 128     -32.898  92.704 202.407  1.00 48.39 LIG-0.27  OA
ATOM     53 H    LYS A 129     -32.280  92.139 205.322  1.00 48.91 LIG 0.16  HD
BRANCH 51 54
ATOM     54  CA  LYS A 128     -34.200  93.492 204.263  1.00 52.62 LIG 0.40  C 
ATOM     55  N   LYS A 128     -34.997  92.595 205.088  1.00 52.42 LIG 0.61  N 
BRANCH 54 56
ATOM     56  CB  LYS A 128     -33.692  94.676 205.095  1.00 53.69 LIG 0.05  C 
BRANCH 56 57
ATOM     57  CG  LYS A 128     -32.651  95.536 204.391  1.00 48.68 LIG 0.00  C 
BRANCH 57 58
ATOM     58  CD  LYS A 128     -31.253  95.245 204.908  1.00 52.15 LIG 0.03  C 
BRANCH 58 59
ATOM     59  CE  LYS A 128     -30.219  95.470 203.817  1.00 44.05 LIG 0.23  C 
BRANCH 59 60
ATOM     60  NZ  LYS A 128     -28.895  95.921 204.344  1.00 43.39 LIG-0.08  N 
ATOM     61 HZ1  LYS A 128     -28.693  95.457 205.076  1.00 43.39 LIG 0.27  HD
ATOM     62 HZ2  LYS A 128     -28.268  95.788 203.726  1.00 43.39 LIG 0.27  HD
ATOM     63 HZ3  LYS A 128     -28.934  96.787 204.544  1.00 43.39 LIG 0.27  HD
ENDBRANCH 59 60
ENDBRANCH 58 59
ENDBRANCH 57 58
ENDBRANCH 56 57
ENDBRANCH 54 56
ENDBRANCH 51 54
ENDBRANCH 41 50
ENDBRANCH 39 41
ENDBRANCH 1 37
TORSDOF 29
ENDMDL
MODEL 3
USER: ADFR SOLUTION from run 135
USER: SCORE 19.960344 LL:  -2.554 LR: -20.076 RR:   0.000 FEB: -11.425
USER: RMSD 7.027579
USER: SEED 134
USER: STATUS no improvement in best in 2 clusters for 5 generations
USER: GENES 31
USER: genes 0 Translation |==|  0.43431 0.61487 0.48223
USER: genes 1 Rotation |==|  0.58265 0.14448 0.64368 0.81005
USER: genes 2 Torsion [C]-CA--CB-[CG] |==|  0.42911
USER: genes 3 Torsion [CA]-CB--CG-[CD] |==|  0.37641
USER: genes 4 Torsion [CB]-CG--CD-[NE] |==|  0.37549
USER: genes 5 Torsion [CG]-CD--NE-[HE] |==|  0.85655
USER: genes 6 Torsion [N]-CA--C-[N] |==|  0.53889
USER: genes 7 Torsion [C]-N--CA-[CB] |==|  0.44761
USER: genes 8 Torsion [N]-CA--CB-[CG] |==|  0.82321
USER: genes 9 Torsion [CA]-CB--CG-[CD] |==|  0.53179
USER: genes 10 Torsion [CB]-CG--CD-[CE] |==|  0.02924
USER: genes 11 Torsion [CG]-CD--CE-[NZ] |==|  0.63210
USER: genes 12 Torsion [CD]-CE--NZ-[HZ2] |==|  0.44449
USER: genes 13 Torsion [N]-CA--C-[N] |==|  0.22324
USER: genes 14 Torsion [C]-N--CA-[CB] |==|  0.46259
USER: genes 15 Torsion [N]-CA--C-[O] |==|  0.42101
USER: genes 16 Torsion [N]-CA--CB-[CG1] |==|  0.61538
USER: genes 17 Torsion [CB]-CA--N-[C] |==|  0.81610
USER: genes 18 Torsion [N]-C--CA-[N] |==|  0.91954
USER: genes 19 Torsion [C]-CA--CB-[CG] |==|  0.26226
USER: genes 20 Torsion [CA]-CB--CG-[CD] |==|  0.09778
USER: genes 21 Torsion [CB]-CG--CD-[CE] |==|  0.69118
USER: genes 22 Torsion [CG]-CD--CE-[NZ] |==|  0.27638
USER: genes 23 Torsion [CD]-CE--NZ-[HZ1] |==|  0.17570
USER: genes 24 Torsion [C]-CA--N-[C] |==|  0.74928
USER: genes 25 Torsion [N]-C--CA-[N] |==|  0.40541
USER: genes 26 Torsion [C]-CA--CB-[CG] |==|  0.78539
USER: genes 27 Torsion [CA]-CB--CG-[CD] |==|  0.61249
USER: genes 28 Torsion [CB]-CG--CD-[CE] |==|  0.75964
USER: genes 29 Torsion [CG]-CD--CE-[NZ] |==|  0.61470
USER: genes 30 Torsion [CD]-CE--NZ-[HZ2] |==|  0.20646
ROOT
ATOM      1  CA  ARG A 130     -32.239  89.631 202.162  1.00 33.49 LIG 0.18  C 
ENDROOT
BRANCH 1 2
ATOM      2  CB  ARG A 130     -31.352  89.606 203.409  1.00 35.16 LIG 0.04  C 
BRANCH 2 3
ATOM      3  CG  ARG A 130     -30.541  90.860 203.659  1.00 39.71 LIG 0.02  C 
BRANCH 3 4
ATOM      4  CD  ARG A 130     -30.617  91.254 205.133  1.00 38.05 LIG 0.14  C 
BRANCH 4 5
ATOM      5  NE  ARG A 130     -29.305  91.617 205.669  1.00 39.97 LIG-0.23  N 
ATOM      6 HE   ARG A 130     -28.656  91.064 205.550  1.00 39.97 LIG 0.18  HD
ATOM      7  CZ  ARG A 130     -29.045  92.743 206.326  1.00 35.35 LIG 0.67  C 
ATOM      8  NH1 ARG A 130     -30.010  93.626 206.552  1.00 35.08 LIG-0.23  N 
ATOM      9  NH2 ARG A 130     -27.820  92.984 206.770  1.00 36.08 LIG-0.23  N 
ATOM     10 2HH1 ARG A 130     -29.836  94.352 206.978  1.00 35.08 LIG 0.17  HD
ATOM     11 1HH1 ARG A 130     -30.808  93.472 206.271  1.00 35.08 LIG 0.17  HD
ATOM     12 1HH2 ARG A 130     -27.193  92.413 206.632  1.00 36.08 LIG 0.17  HD
ATOM     13 2HH2 ARG A 130     -27.653  93.713 207.196  1.00 36.08 LIG 0.17  HD
ENDBRANCH 4 5
ENDBRANCH 3 4
ENDBRANCH 2 3
ENDBRANCH 1 2
BRANCH 1 14
ATOM     14  C   ARG A 130     -32.470  88.207 201.694  1.00 35.02 LIG 0.24  C 
ATOM     15  N   LYS A 131     -31.418  87.393 201.697  1.00 32.29 LIG-0.35  N 
ATOM     16 H    LYS A 131     -30.622  87.628 201.921  1.00 32.29 LIG 0.16  HD
ATOM     17 O    ARG A 130     -33.590  87.838 201.350  1.00 31.53 LIG-0.27  OA
BRANCH 15 18
ATOM     18  CA  LYS A 131     -31.560  85.999 201.306  1.00 31.30 LIG 0.18  C 
BRANCH 18 19
ATOM     19  CB  LYS A 131     -30.189  85.407 200.941  1.00 33.79 LIG 0.04  C 
BRANCH 19 20
ATOM     20  CG  LYS A 131     -29.587  86.101 199.727  1.00 34.08 LIG 0.00  C 
BRANCH 20 21
ATOM     21  CD  LYS A 131     -28.392  85.404 199.157  1.00 36.35 LIG 0.03  C 
BRANCH 21 22
ATOM     22  CE  LYS A 131     -28.231  84.026 199.785  1.00 32.79 LIG 0.23  C 
BRANCH 22 23
ATOM     23  NZ  LYS A 131     -26.826  83.788 200.221  1.00 29.22 LIG-0.08  N 
ATOM     24 HZ3  LYS A 131     -26.332  83.555 199.518  1.00 29.22 LIG 0.27  HD
ATOM     25 HZ2  LYS A 131     -26.809  83.134 200.825  1.00 29.22 LIG 0.27  HD
ATOM     26 HZ1  LYS A 131     -26.496  84.532 200.581  1.00 29.22 LIG 0.27  HD
ENDBRANCH 22 23
ENDBRANCH 21 22
ENDBRANCH 20 21
ENDBRANCH 19 20
ENDBRANCH 18 19
BRANCH 18 27
ATOM     27  C   LYS A 131     -32.234  85.208 202.423  1.00 34.74 LIG 0.24  C 
ATOM     28  N   VAL A 132     -33.557  85.301 202.505  1.00 33.85 LIG-0.35  N 
ATOM     29 H    VAL A 132     -34.040  85.790 201.987  1.00 33.85 LIG 0.16  HD
ATOM     30 O    LYS A 131     -31.560  84.552 203.219  1.00 35.56 LIG-0.27  OA
BRANCH 28 31
ATOM     31  CA  VAL A 132     -34.311  84.558 203.512  1.00 36.14 LIG 0.17  C 
BRANCH 31 32
ATOM     32  C   VAL A 132     -34.343  83.058 203.206  1.00 41.88 LIG 0.22  C 
ATOM     33 O    VAL A 132     -34.445  82.239 204.126  1.00 46.22 LIG-0.29  OA
ENDBRANCH 31 32
BRANCH 31 34
ATOM     34  CB  VAL A 132     -35.763  85.075 203.629  1.00 35.83 LIG 0.01  C 
ATOM     35  CG1 VAL A 132     -36.186  85.145 205.093  1.00 39.48 LIG 0.01  C 
ATOM     36  CG2 VAL A 132     -35.897  86.431 202.980  1.00 35.02 LIG 0.01  C 
ENDBRANCH 31 34
ENDBRANCH 28 31
ENDBRANCH 18 27
ENDBRANCH 15 18
ENDBRANCH 1 14
BRANCH 1 37
ATOM     37  N   ARG A 130     -33.510  90.309 202.422  1.00 35.65 LIG-0.35  N 
ATOM     38 H    ARG A 130     -33.611  91.045 201.989  1.00 35.65 LIG 0.16  HD
ATOM     39  C   LYS A 129     -34.417  89.812 203.259  1.00 38.36 LIG 0.24  C 
ATOM     40 O    LYS A 129     -34.269  88.743 203.842  1.00 38.91 LIG-0.27  OA
BRANCH 39 41
ATOM     41  CA  LYS A 129     -35.674  90.650 203.483  1.00 41.62 LIG 0.18  C 
BRANCH 41 42
ATOM     42  CB  LYS A 129     -36.770  90.187 202.526  1.00 37.07 LIG 0.04  C 
BRANCH 42 43
ATOM     43  CG  LYS A 129     -37.731  89.160 203.106  1.00 37.25 LIG 0.00  C 
BRANCH 43 44
ATOM     44  CD  LYS A 129     -38.001  89.399 204.591  1.00 32.25 LIG 0.03  C 
BRANCH 44 45
ATOM     45  CE  LYS A 129     -37.377  88.284 205.420  1.00 33.17 LIG 0.23  C 
BRANCH 45 46
ATOM     46  NZ  LYS A 129     -36.061  88.663 206.025  1.00 31.02 LIG-0.08  N 
ATOM     47 HZ2  LYS A 129     -35.720  87.964 206.457  1.00 31.02 LIG 0.27  HD
ATOM     48 HZ3  LYS A 129     -35.500  88.916 205.382  1.00 31.02 LIG 0.27  HD
ATOM     49 HZ1  LYS A 129     -36.179  89.336 206.597  1.00 31.02 LIG 0.27  HD
ENDBRANCH 45 46
ENDBRANCH 44 45
ENDBRANCH 43 44
ENDBRANCH 42 43
ENDBRANCH 41 42
BRANCH 41 50
ATOM     50  N   LYS A 129     -35.424  92.082 203.317  1.00 48.91 LIG-0.35  N 
ATOM     51  C   LYS A 128     -35.057  92.854 204.340  1.00 46.33 LIG 0.26  C 
ATOM     52 O    LYS A 128     -34.844  92.415 205.468  1.00 48.39 LIG-0.27  OA
ATOM     53 H    LYS A 129     -35.534  92.370 202.515  1.00 48.91 LIG 0.16  HD
BRANCH 51 54
ATOM     54  CA  LYS A 128     -34.891  94.345 204.040  1.00 52.62 LIG 0.40  C 
ATOM     55  N   LYS A 128     -35.282  95.150 205.189  1.00 52.42 LIG 0.61  N 
BRANCH 54 56
ATOM     56  CB  LYS A 128     -33.442  94.648 203.640  1.00 53.69 LIG 0.05  C 
BRANCH 56 57
ATOM     57  CG  LYS A 128     -32.467  94.703 204.807  1.00 48.68 LIG 0.00  C 
BRANCH 57 58
ATOM     58  CD  LYS A 128     -31.472  95.838 204.643  1.00 52.15 LIG 0.03  C 
BRANCH 58 59
ATOM     59  CE  LYS A 128     -30.277  95.390 203.816  1.00 44.05 LIG 0.23  C 
BRANCH 59 60
ATOM     60  NZ  LYS A 128     -28.972  95.894 204.344  1.00 43.39 LIG-0.08  N 
ATOM     61 HZ1  LYS A 128     -29.047  96.758 204.544  1.00 43.39 LIG 0.27  HD
ATOM     62 HZ2  LYS A 128     -28.752  95.438 205.076  1.00 43.39 LIG 0.27  HD
ATOM     63 HZ3  LYS A 128     -28.341  95.786 203.727  1.00 43.39 LIG 0.27  HD
ENDBRANCH 59 60
ENDBRANCH 58 59
ENDBRANCH 57 58
ENDBRANCH 56 57
ENDBRANCH 54 56
ENDBRANCH 51 54
ENDBRANCH 41 50
ENDBRANCH 39 41
ENDBRANCH 1 37
TORSDOF 29
ENDMDL
MODEL 4
USER: ADFR SOLUTION from run 188
USER: SCORE 19.422985 LL:  -0.580 LR: -20.071 RR:   0.000 FEB: -11.420
USER: RMSD 7.159269
USER: SEED 187
USER: STATUS searching
USER: GENES 31
USER: genes 0 Translation |==|  0.42430 0.48862 0.52160
USER: genes 1 Rotation |==|  0.66289 0.91081 0.66548 0.66529
USER: genes 2 Torsion [C]-CA--CB-[CG] |==|  0.28912
USER: genes 3 Torsion [CA]-CB--CG-[CD] |==|  0.32165
USER: genes 4 Torsion [CB]-CG--CD-[NE] |==|  0.66059
USER: genes 5 Torsion [CG]-CD--NE-[HE] |==|  0.27412
USER: genes 6 Torsion [N]-CA--C-[N] |==|  0.94124
USER: genes 7 Torsion [C]-N--CA-[CB] |==|  0.86097
USER: genes 8 Torsion [N]-CA--CB-[CG] |==|  0.53681
USER: genes 9 Torsion [CA]-CB--CG-[CD] |==|  0.80439
USER: genes 10 Torsion [CB]-CG--CD-[CE] |==|  0.69246
USER: genes 11 Torsion [CG]-CD--CE-[NZ] |==|  0.13678
USER: genes 12 Torsion [CD]-CE--NZ-[HZ2] |==|  0.78925
USER: genes 13 Torsion [N]-CA--C-[N] |==|  0.38868
USER: genes 14 Torsion [C]-N--CA-[CB] |==|  0.85703
USER: genes 15 Torsion [N]-CA--C-[O] |==|  0.35308
USER: genes 16 Torsion [N]-CA--CB-[CG1] |==|  0.32590
USER: genes 17 Torsion [CB]-CA--N-[C] |==|  0.86089
USER: genes 18 Torsion [N]-C--CA-[N] |==|  0.72437
USER: genes 19 Torsion [C]-CA--CB-[CG] |==|  0.43475
USER: genes 20 Torsion [CA]-CB--CG-[CD] |==|  0.31099
USER: genes 21 Torsion [CB]-CG--CD-[CE] |==|  0.55341
USER: genes 22 Torsion [CG]-CD--CE-[NZ] |==|  0.43154
USER: genes 23 Torsion [CD]-CE--NZ-[HZ1] |==|  0.99618
USER: genes 24 Torsion [C]-CA--N-[C] |==|  0.63928
USER: genes 25 Torsion [N]-C--CA-[N] |==|  0.03995
USER: genes 26 Torsion [C]-CA--CB-[CG] |==|  0.89759
USER: genes 27 Torsion [CA]-CB--CG-[CD] |==|  0.41828
USER: genes 28 Torsion [CB]-CG--CD-[CE] |==|  0.68199
USER: genes 29 Torsion [CG]-CD--CE-[NZ] |==|  0.68501
USER: genes 30 Torsion [CD]-CE--NZ-[HZ2] |==|  0.81185
ROOT
ATOM      1  CA  ARG A 130     -32.457  86.506 202.842  1.00 33.49 LIG 0.18  C 
ENDROOT
BRANCH 1 2
ATOM      2  CB  ARG A 130     -33.891  86.600 202.319  1.00 35.16 LIG 0.04  C 
BRANCH 2 3
ATOM      3  CG  ARG A 130     -34.848  85.549 202.846  1.00 39.71 LIG 0.02  C 
BRANCH 3 4
ATOM      4  CD  ARG A 130     -35.950  86.208 203.674  1.00 38.05 LIG 0.14  C 
BRANCH 4 5
ATOM      5  NE  ARG A 130     -35.994  85.681 205.039  1.00 39.97 LIG-0.23  N 
ATOM      6 HE   ARG A 130     -35.610  86.139 205.658  1.00 39.97 LIG 0.18  HD
ATOM      7  CZ  ARG A 130     -36.586  84.543 205.388  1.00 35.35 LIG 0.67  C 
ATOM      8  NH1 ARG A 130     -37.182  83.788 204.473  1.00 35.08 LIG-0.23  N 
ATOM      9  NH2 ARG A 130     -36.576  84.152 206.654  1.00 36.08 LIG-0.23  N 
ATOM     10 2HH1 ARG A 130     -37.563  83.053 204.705  1.00 35.08 LIG 0.17  HD
ATOM     11 1HH1 ARG A 130     -37.186  84.034 203.649  1.00 35.08 LIG 0.17  HD
ATOM     12 1HH2 ARG A 130     -36.187  84.634 207.249  1.00 36.08 LIG 0.17  HD
ATOM     13 2HH2 ARG A 130     -36.960  83.416 206.880  1.00 36.08 LIG 0.17  HD
ENDBRANCH 4 5
ENDBRANCH 3 4
ENDBRANCH 2 3
ENDBRANCH 1 2
BRANCH 1 14
ATOM     14  C   ARG A 130     -31.574  85.919 201.756  1.00 35.02 LIG 0.24  C 
ATOM     15  N   LYS A 131     -30.814  86.768 201.073  1.00 32.29 LIG-0.35  N 
ATOM     16 H    LYS A 131     -30.811  87.620 201.188  1.00 32.29 LIG 0.16  HD
ATOM     17 O    ARG A 130     -31.564  84.708 201.550  1.00 31.53 LIG-0.27  OA
BRANCH 15 18
ATOM     18  CA  LYS A 131     -29.905  86.285 200.045  1.00 31.30 LIG 0.18  C 
BRANCH 18 19
ATOM     19  CB  LYS A 131     -29.046  85.133 200.593  1.00 33.79 LIG 0.04  C 
BRANCH 19 20
ATOM     20  CG  LYS A 131     -27.876  84.821 199.671  1.00 34.08 LIG 0.00  C 
BRANCH 20 21
ATOM     21  CD  LYS A 131     -28.273  84.180 198.378  1.00 36.35 LIG 0.03  C 
BRANCH 21 22
ATOM     22  CE  LYS A 131     -27.808  82.730 198.340  1.00 32.79 LIG 0.23  C 
BRANCH 22 23
ATOM     23  NZ  LYS A 131     -28.194  82.004 199.583  1.00 29.22 LIG-0.08  N 
ATOM     24 HZ3  LYS A 131     -29.035  82.204 199.795  1.00 29.22 LIG 0.27  HD
ATOM     25 HZ2  LYS A 131     -27.655  82.246 200.248  1.00 29.22 LIG 0.27  HD
ATOM     26 HZ1  LYS A 131     -28.124  81.127 199.449  1.00 29.22 LIG 0.27  HD
ENDBRANCH 22 23
ENDBRANCH 21 22
ENDBRANCH 20 21
ENDBRANCH 19 20
ENDBRANCH 18 19
BRANCH 18 27
ATOM     27  C   LYS A 131     -30.691  85.859 198.809  1.00 34.74 LIG 0.24  C 
ATOM     28  N   VAL A 132     -30.163  86.173 197.629  1.00 33.85 LIG-0.35  N 
ATOM     29 H    VAL A 132     -29.430  86.612 197.531  1.00 33.85 LIG 0.16  HD
ATOM     30 O    LYS A 131     -31.776  85.287 198.923  1.00 35.56 LIG-0.27  OA
BRANCH 28 31
ATOM     31  CA  VAL A 132     -30.809  85.782 196.379  1.00 36.14 LIG 0.17  C 
BRANCH 31 32
ATOM     32  C   VAL A 132     -32.096  86.573 196.132  1.00 41.88 LIG 0.22  C 
ATOM     33 O    VAL A 132     -32.262  87.170 195.062  1.00 46.22 LIG-0.29  OA
ENDBRANCH 31 32
BRANCH 31 34
ATOM     34  CB  VAL A 132     -31.140  84.272 196.359  1.00 35.83 LIG 0.01  C 
ATOM     35  CG1 VAL A 132     -32.647  84.059 196.264  1.00 39.48 LIG 0.01  C 
ATOM     36  CG2 VAL A 132     -30.441  83.592 195.207  1.00 35.02 LIG 0.01  C 
ENDBRANCH 31 34
ENDBRANCH 28 31
ENDBRANCH 18 27
ENDBRANCH 15 18
ENDBRANCH 1 14
BRANCH 1 37
ATOM     37  N   ARG A 130     -31.956  87.813 203.272  1.00 35.65 LIG-0.35  N 
ATOM     38 H    ARG A 130     -31.605  87.815 204.056  1.00 35.65 LIG 0.16  HD
ATOM     39  C   LYS A 129     -32.047  88.893 202.499  1.00 38.36 LIG 0.24  C 
ATOM     40 O    LYS A 129     -32.521  88.864 201.368  1.00 38.91 LIG-0.27  OA
BRANCH 39 41
ATOM     41  CA  LYS A 129     -31.538  90.205 203.093  1.00 41.62 LIG 0.18  C 
BRANCH 41 42
ATOM     42  CB  LYS A 129     -30.520  89.905 204.191  1.00 37.07 LIG 0.04  C 
BRANCH 42 43
ATOM     43  CG  LYS A 129     -29.541  91.034 204.477  1.00 37.25 LIG 0.00  C 
BRANCH 43 44
ATOM     44  CD  LYS A 129     -29.764  91.653 205.855  1.00 32.25 LIG 0.03  C 
BRANCH 44 45
ATOM     45  CE  LYS A 129     -29.123  93.033 205.917  1.00 33.17 LIG 0.23  C 
BRANCH 45 46
ATOM     46  NZ  LYS A 129     -29.750  93.930 206.939  1.00 31.02 LIG-0.08  N 
ATOM     47 HZ2  LYS A 129     -29.142  94.158 207.548  1.00 31.02 LIG 0.27  HD
ATOM     48 HZ3  LYS A 129     -30.060  94.664 206.541  1.00 31.02 LIG 0.27  HD
ATOM     49 HZ1  LYS A 129     -30.423  93.504 207.337  1.00 31.02 LIG 0.27  HD
ENDBRANCH 45 46
ENDBRANCH 44 45
ENDBRANCH 43 44
ENDBRANCH 42 43
ENDBRANCH 41 42
BRANCH 41 50
ATOM     50  N   LYS A 129     -32.624  91.034 203.617  1.00 48.91 LIG-0.35  N 
ATOM     51  C   LYS A 128     -32.745  92.321 203.291  1.00 46.33 LIG 0.26  C 
ATOM     52 O    LYS A 128     -32.002  92.882 202.488  1.00 48.39 LIG-0.27  OA
ATOM     53 H    LYS A 129     -33.163  90.621 204.143  1.00 48.91 LIG 0.16  HD
BRANCH 51 54
ATOM     54  CA  LYS A 128     -33.887  93.087 203.961  1.00 52.62 LIG 0.40  C 
ATOM     55  N   LYS A 128     -34.421  92.338 205.089  1.00 52.42 LIG 0.61  N 
BRANCH 54 56
ATOM     56  CB  LYS A 128     -33.403  94.470 204.416  1.00 53.69 LIG 0.05  C 
BRANCH 56 57
ATOM     57  CG  LYS A 128     -31.974  94.493 204.943  1.00 48.68 LIG 0.00  C 
BRANCH 57 58
ATOM     58  CD  LYS A 128     -31.319  95.841 204.701  1.00 52.15 LIG 0.03  C 
BRANCH 58 59
ATOM     59  CE  LYS A 128     -30.162  95.709 203.723  1.00 44.05 LIG 0.23  C 
BRANCH 59 60
ATOM     60  NZ  LYS A 128     -28.830  95.982 204.344  1.00 43.39 LIG-0.08  N 
ATOM     61 HZ1  LYS A 128     -28.186  95.783 203.764  1.00 43.39 LIG 0.27  HD
ATOM     62 HZ2  LYS A 128     -28.776  96.843 204.564  1.00 43.39 LIG 0.27  HD
ATOM     63 HZ3  LYS A 128     -28.736  95.483 205.074  1.00 43.39 LIG 0.27  HD
ENDBRANCH 59 60
ENDBRANCH 58 59
ENDBRANCH 57 58
ENDBRANCH 56 57
ENDBRANCH 54 56
ENDBRANCH 51 54
ENDBRANCH 41 50
ENDBRANCH 39 41
ENDBRANCH 1 37
TORSDOF 29
ENDMDL
MODEL 5
USER: ADFR SOLUTION from run 133
USER: SCORE 19.477799 LL:  -1.851 LR: -19.758 RR:   0.000 FEB: -11.107
USER: RMSD 7.111193
USER: SEED 132
USER: STATUS searching
USER: GENES 31
USER: genes 0 Translation |==|  0.41352 0.39776 0.51754
USER: genes 1 Rotation |==|  0.63022 0.97906 0.45635 0.54046
USER: genes 2 Torsion [C]-CA--CB-[CG] |==|  0.60656
USER: genes 3 Torsion [CA]-CB--CG-[CD] |==|  0.49750
USER: genes 4 Torsion [CB]-CG--CD-[NE] |==|  0.28066
USER: genes 5 Torsion [CG]-CD--NE-[HE] |==|  0.17457
USER: genes 6 Torsion [N]-CA--C-[N] |==|  0.60023
USER: genes 7 Torsion [C]-N--CA-[CB] |==|  0.84893
USER: genes 8 Torsion [N]-CA--CB-[CG] |==|  0.35680
USER: genes 9 Torsion [CA]-CB--CG-[CD] |==|  0.70881
USER: genes 10 Torsion [CB]-CG--CD-[CE] |==|  0.42975
USER: genes 11 Torsion [CG]-CD--CE-[NZ] |==|  0.80210
USER: genes 12 Torsion [CD]-CE--NZ-[HZ2] |==|  0.02547
USER: genes 13 Torsion [N]-CA--C-[N] |==|  0.35864
USER: genes 14 Torsion [C]-N--CA-[CB] |==|  0.15242
USER: genes 15 Torsion [N]-CA--C-[O] |==|  0.47689
USER: genes 16 Torsion [N]-CA--CB-[CG1] |==|  0.23555
USER: genes 17 Torsion [CB]-CA--N-[C] |==|  0.47108
USER: genes 18 Torsion [N]-C--CA-[N] |==|  0.26116
USER: genes 19 Torsion [C]-CA--CB-[CG] |==|  0.80614
USER: genes 20 Torsion [CA]-CB--CG-[CD] |==|  0.39406
USER: genes 21 Torsion [CB]-CG--CD-[CE] |==|  0.75470
USER: genes 22 Torsion [CG]-CD--CE-[NZ] |==|  0.68889
USER: genes 23 Torsion [CD]-CE--NZ-[HZ1] |==|  0.30926
USER: genes 24 Torsion [C]-CA--N-[C] |==|  0.78996
USER: genes 25 Torsion [N]-C--CA-[N] |==|  0.38753
USER: genes 26 Torsion [C]-CA--CB-[CG] |==|  0.41734
USER: genes 27 Torsion [CA]-CB--CG-[CD] |==|  0.21750
USER: genes 28 Torsion [CB]-CG--CD-[CE] |==|  0.46127
USER: genes 29 Torsion [CG]-CD--CE-[NZ] |==|  0.54310
USER: genes 30 Torsion [CD]-CE--NZ-[HZ2] |==|  0.79747
ROOT
ATOM      1  CA  ARG A 130     -32.691  84.257 202.771  1.00 33.49 LIG 0.18  C 
ENDROOT
BRANCH 1 2
ATOM      2  CB  ARG A 130     -34.085  84.253 203.402  1.00 35.16 LIG 0.04  C 
BRANCH 2 3
ATOM      3  CG  ARG A 130     -34.780  85.598 203.458  1.00 39.71 LIG 0.02  C 
BRANCH 3 4
ATOM      4  CD  ARG A 130     -36.165  85.450 204.086  1.00 38.05 LIG 0.14  C 
BRANCH 4 5
ATOM      5  NE  ARG A 130     -36.175  85.872 205.488  1.00 39.97 LIG-0.23  N 
ATOM      6 HE   ARG A 130     -35.994  86.696 205.660  1.00 39.97 LIG 0.18  HD
ATOM      7  CZ  ARG A 130     -36.446  85.071 206.514  1.00 35.35 LIG 0.67  C 
ATOM      8  NH1 ARG A 130     -36.718  83.788 206.310  1.00 35.08 LIG-0.23  N 
ATOM      9  NH2 ARG A 130     -36.435  85.549 207.749  1.00 36.08 LIG-0.23  N 
ATOM     10 2HH1 ARG A 130     -36.891  83.275 206.977  1.00 35.08 LIG 0.17  HD
ATOM     11 1HH1 ARG A 130     -36.720  83.471 205.510  1.00 35.08 LIG 0.17  HD
ATOM     12 1HH2 ARG A 130     -36.253  86.378 207.887  1.00 36.08 LIG 0.17  HD
ATOM     13 2HH2 ARG A 130     -36.610  85.031 208.413  1.00 36.08 LIG 0.17  HD
ENDBRANCH 4 5
ENDBRANCH 3 4
ENDBRANCH 2 3
ENDBRANCH 1 2
BRANCH 1 14
ATOM     14  C   ARG A 130     -32.521  82.997 201.944  1.00 35.02 LIG 0.24  C 
ATOM     15  N   LYS A 131     -33.325  81.978 202.227  1.00 32.29 LIG-0.35  N 
ATOM     16 H    LYS A 131     -33.909  81.979 202.858  1.00 32.29 LIG 0.16  HD
ATOM     17 O    ARG A 130     -31.686  82.951 201.045  1.00 31.53 LIG-0.27  OA
BRANCH 15 18
ATOM     18  CA  LYS A 131     -33.260  80.747 201.453  1.00 31.30 LIG 0.18  C 
BRANCH 18 19
ATOM     19  CB  LYS A 131     -33.426  81.052 199.955  1.00 33.79 LIG 0.04  C 
BRANCH 19 20
ATOM     20  CG  LYS A 131     -32.311  80.424 199.131  1.00 34.08 LIG 0.00  C 
BRANCH 20 21
ATOM     21  CD  LYS A 131     -31.282  81.400 198.652  1.00 36.35 LIG 0.03  C 
BRANCH 21 22
ATOM     22  CE  LYS A 131     -29.954  80.695 198.410  1.00 32.79 LIG 0.23  C 
BRANCH 22 23
ATOM     23  NZ  LYS A 131     -29.310  80.294 199.693  1.00 29.22 LIG-0.08  N 
ATOM     24 HZ3  LYS A 131     -29.083  79.434 199.656  1.00 29.22 LIG 0.27  HD
ATOM     25 HZ2  LYS A 131     -29.881  80.421 200.364  1.00 29.22 LIG 0.27  HD
ATOM     26 HZ1  LYS A 131     -28.581  80.787 199.827  1.00 29.22 LIG 0.27  HD
ENDBRANCH 22 23
ENDBRANCH 21 22
ENDBRANCH 20 21
ENDBRANCH 19 20
ENDBRANCH 18 19
BRANCH 18 27
ATOM     27  C   LYS A 131     -31.949  80.020 201.736  1.00 34.74 LIG 0.24  C 
ATOM     28  N   VAL A 132     -32.040  78.734 202.063  1.00 33.85 LIG-0.35  N 
ATOM     29 H    VAL A 132     -32.783  78.308 202.143  1.00 33.85 LIG 0.16  HD
ATOM     30 O    LYS A 131     -30.876  80.623 201.691  1.00 35.56 LIG-0.27  OA
BRANCH 28 31
ATOM     31  CA  VAL A 132     -30.848  77.929 202.318  1.00 36.14 LIG 0.17  C 
BRANCH 31 32
ATOM     32  C   VAL A 132     -31.205  76.504 202.747  1.00 41.88 LIG 0.22  C 
ATOM     33 O    VAL A 132     -30.321  75.647 202.853  1.00 46.22 LIG-0.29  OA
ENDBRANCH 31 32
BRANCH 31 34
ATOM     34  CB  VAL A 132     -29.953  78.568 203.404  1.00 35.83 LIG 0.01  C 
ATOM     35  CG1 VAL A 132     -30.433  78.163 204.794  1.00 39.48 LIG 0.01  C 
ATOM     36  CG2 VAL A 132     -28.512  78.163 203.210  1.00 35.02 LIG 0.01  C 
ENDBRANCH 31 34
ENDBRANCH 28 31
ENDBRANCH 18 27
ENDBRANCH 15 18
ENDBRANCH 1 14
BRANCH 1 37
ATOM     37  N   ARG A 130     -32.475  85.453 201.955  1.00 35.65 LIG-0.35  N 
ATOM     38 H    ARG A 130     -33.185  85.918 201.817  1.00 35.65 LIG 0.16  HD
ATOM     39  C   LYS A 129     -31.276  85.775 201.476  1.00 38.36 LIG 0.24  C 
ATOM     40 O    LYS A 129     -30.268  85.116 201.712  1.00 38.91 LIG-0.27  OA
BRANCH 39 41
ATOM     41  CA  LYS A 129     -31.202  87.016 200.591  1.00 41.62 LIG 0.18  C 
BRANCH 41 42
ATOM     42  CB  LYS A 129     -30.193  86.781 199.469  1.00 37.07 LIG 0.04  C 
BRANCH 42 43
ATOM     43  CG  LYS A 129     -28.741  86.724 199.920  1.00 37.25 LIG 0.00  C 
BRANCH 43 44
ATOM     44  CD  LYS A 129     -27.942  85.670 199.155  1.00 32.25 LIG 0.03  C 
BRANCH 44 45
ATOM     45  CE  LYS A 129     -28.049  84.323 199.858  1.00 33.17 LIG 0.23  C 
BRANCH 45 46
ATOM     46  NZ  LYS A 129     -26.757  83.868 200.462  1.00 31.02 LIG-0.08  N 
ATOM     47 HZ2  LYS A 129     -26.580  83.038 200.194  1.00 31.02 LIG 0.27  HD
ATOM     48 HZ3  LYS A 129     -26.100  84.410 200.201  1.00 31.02 LIG 0.27  HD
ATOM     49 HZ1  LYS A 129     -26.821  83.886 201.350  1.00 31.02 LIG 0.27  HD
ENDBRANCH 45 46
ENDBRANCH 44 45
ENDBRANCH 43 44
ENDBRANCH 42 43
ENDBRANCH 41 42
BRANCH 41 50
ATOM     50  N   LYS A 129     -30.851  88.218 201.348  1.00 48.91 LIG-0.35  N 
ATOM     51  C   LYS A 128     -31.734  88.837 202.132  1.00 46.33 LIG 0.26  C 
ATOM     52 O    LYS A 128     -32.873  88.415 202.322  1.00 48.39 LIG-0.27  OA
ATOM     53 H    LYS A 129     -30.040  88.480 201.241  1.00 48.91 LIG 0.16  HD
BRANCH 51 54
ATOM     54  CA  LYS A 128     -31.255  90.119 202.815  1.00 52.62 LIG 0.40  C 
ATOM     55  N   LYS A 128     -32.300  91.132 202.805  1.00 52.42 LIG 0.61  N 
BRANCH 54 56
ATOM     56  CB  LYS A 128     -30.811  89.820 204.252  1.00 53.69 LIG 0.05  C 
BRANCH 56 57
ATOM     57  CG  LYS A 128     -29.715  90.740 204.775  1.00 48.68 LIG 0.00  C 
BRANCH 57 58
ATOM     58  CD  LYS A 128     -30.278  92.087 205.192  1.00 52.15 LIG 0.03  C 
BRANCH 58 59
ATOM     59  CE  LYS A 128     -29.263  92.861 206.017  1.00 44.05 LIG 0.23  C 
BRANCH 59 60
ATOM     60  NZ  LYS A 128     -29.862  94.011 206.762  1.00 43.39 LIG-0.08  N 
ATOM     61 HZ1  LYS A 128     -29.279  94.310 207.364  1.00 43.39 LIG 0.27  HD
ATOM     62 HZ2  LYS A 128     -30.060  94.664 206.191  1.00 43.39 LIG 0.27  HD
ATOM     63 HZ3  LYS A 128     -30.603  93.743 207.175  1.00 43.39 LIG 0.27  HD
ENDBRANCH 59 60
ENDBRANCH 58 59
ENDBRANCH 57 58
ENDBRANCH 56 57
ENDBRANCH 54 56
ENDBRANCH 51 54
ENDBRANCH 41 50
ENDBRANCH 39 41
ENDBRANCH 1 37
TORSDOF 29
ENDMDL
MODEL 6
USER: ADFR SOLUTION from run 27
USER: SCORE 19.523378 LL:  -1.112 LR: -19.745 RR:   0.000 FEB: -11.094
USER: RMSD 9.211909
USER: SEED 26
USER: STATUS no improvement in best in 3 clusters for 5 generations
USER: GENES 31
USER: genes 0 Translation |==|  0.43891 0.60162 0.54107
USER: genes 1 Rotation |==|  0.97596 0.56444 0.36421 0.52948
USER: genes 2 Torsion [C]-CA--CB-[CG] |==|  0.41936
USER: genes 3 Torsion [CA]-CB--CG-[CD] |==|  0.71136
USER: genes 4 Torsion [CB]-CG--CD-[NE] |==|  0.61947
USER: genes 5 Torsion [CG]-CD--NE-[HE] |==|  0.91337
USER: genes 6 Torsion [N]-CA--C-[N] |==|  0.36936
USER: genes 7 Torsion [C]-N--CA-[CB] |==|  0.21480
USER: genes 8 Torsion [N]-CA--CB-[CG] |==|  0.22985
USER: genes 9 Torsion [CA]-CB--CG-[CD] |==|  0.82142
USER: genes 10 Torsion [CB]-CG--CD-[CE] |==|  0.40908
USER: genes 11 Torsion [CG]-CD--CE-[NZ] |==|  0.68619
USER: genes 12 Torsion [CD]-CE--NZ-[HZ2] |==|  0.80389
USER: genes 13 Torsion [N]-CA--C-[N] |==|  0.48788
USER: genes 14 Torsion [C]-N--CA-[CB] |==|  0.34935
USER: genes 15 Torsion [N]-CA--C-[O] |==|  0.37774
USER: genes 16 Torsion [N]-CA--CB-[CG1] |==|  0.42379
USER: genes 17 Torsion [CB]-CA--N-[C] |==|  0.84981
USER: genes 18 Torsion [N]-C--CA-[N] |==|  0.17990
USER: genes 19 Torsion [C]-CA--CB-[CG] |==|  0.43205
USER: genes 20 Torsion [CA]-CB--CG-[CD] |==|  0.87716
USER: genes 21 Torsion [CB]-CG--CD-[CE] |==|  0.34606
USER: genes 22 Torsion [CG]-CD--CE-[NZ] |==|  0.36252
USER: genes 23 Torsion [CD]-CE--NZ-[HZ1] |==|  0.70914
USER: genes 24 Torsion [C]-CA--N-[C] |==|  0.73388
USER: genes 25 Torsion [N]-C--CA-[N] |==|  0.84022
USER: genes 26 Torsion [C]-CA--CB-[CG] |==|  0.15766
USER: genes 27 Torsion [CA]-CB--CG-[CD] |==|  0.51520
USER: genes 28 Torsion [CB]-CG--CD-[CE] |==|  0.34282
USER: genes 29 Torsion [CG]-CD--CE-[NZ] |==|  0.24245
USER: genes 30 Torsion [CD]-CE--NZ-[HZ2] |==|  0.02842
ROOT
ATOM      1  CA  ARG A 130     -32.139  89.303 203.177  1.00 33.49 LIG 0.18  C 
ENDROOT
BRANCH 1 2
ATOM      2  CB  ARG A 130     -31.110  90.434 203.227  1.00 35.16 LIG 0.04  C 
BRANCH 2 3
ATOM      3  CG  ARG A 130     -30.113  90.362 204.366  1.00 39.71 LIG 0.02  C 
BRANCH 3 4
ATOM      4  CD  ARG A 130     -30.477  91.374 205.450  1.00 38.05 LIG 0.14  C 
BRANCH 4 5
ATOM      5  NE  ARG A 130     -29.299  92.080 205.954  1.00 39.97 LIG-0.23  N 
ATOM      6 HE   ARG A 130     -28.550  91.657 205.960  1.00 39.97 LIG 0.18  HD
ATOM      7  CZ  ARG A 130     -29.306  93.331 206.405  1.00 35.35 LIG 0.67  C 
ATOM      8  NH1 ARG A 130     -30.435  94.028 206.434  1.00 35.08 LIG-0.23  N 
ATOM      9  NH2 ARG A 130     -28.183  93.886 206.837  1.00 36.08 LIG-0.23  N 
ATOM     10 2HH1 ARG A 130     -30.433  94.836 206.726  1.00 35.08 LIG 0.17  HD
ATOM     11 1HH1 ARG A 130     -31.168  93.670 206.160  1.00 35.08 LIG 0.17  HD
ATOM     12 1HH2 ARG A 130     -27.450  93.437 206.826  1.00 36.08 LIG 0.17  HD
ATOM     13 2HH2 ARG A 130     -28.188  94.695 207.129  1.00 36.08 LIG 0.17  HD
ENDBRANCH 4 5
ENDBRANCH 3 4
ENDBRANCH 2 3
ENDBRANCH 1 2
BRANCH 1 14
ATOM     14  C   ARG A 130     -33.411  89.823 202.535  1.00 35.02 LIG 0.24  C 
ATOM     15  N   LYS A 131     -34.431  90.086 203.347  1.00 32.29 LIG-0.35  N 
ATOM     16 H    LYS A 131     -34.423  89.957 204.197  1.00 32.29 LIG 0.16  HD
ATOM     17 O    ARG A 130     -33.468  90.003 201.322  1.00 31.53 LIG-0.27  OA
BRANCH 15 18
ATOM     18  CA  LYS A 131     -35.673  90.630 202.820  1.00 31.30 LIG 0.18  C 
BRANCH 18 19
ATOM     19  CB  LYS A 131     -36.495  89.520 202.144  1.00 33.79 LIG 0.04  C 
BRANCH 19 20
ATOM     20  CG  LYS A 131     -37.303  88.725 203.160  1.00 34.08 LIG 0.00  C 
BRANCH 20 21
ATOM     21  CD  LYS A 131     -36.469  87.963 204.141  1.00 36.35 LIG 0.03  C 
BRANCH 21 22
ATOM     22  CE  LYS A 131     -37.172  87.888 205.490  1.00 32.79 LIG 0.23  C 
BRANCH 22 23
ATOM     23  NZ  LYS A 131     -36.437  88.663 206.529  1.00 29.22 LIG-0.08  N 
ATOM     24 HZ3  LYS A 131     -36.252  89.477 206.219  1.00 29.22 LIG 0.27  HD
ATOM     25 HZ2  LYS A 131     -35.678  88.244 206.730  1.00 29.22 LIG 0.27  HD
ATOM     26 HZ1  LYS A 131     -36.939  88.732 207.260  1.00 29.22 LIG 0.27  HD
ENDBRANCH 22 23
ENDBRANCH 21 22
ENDBRANCH 20 21
ENDBRANCH 19 20
ENDBRANCH 18 19
BRANCH 18 27
ATOM     27  C   LYS A 131     -36.461  91.310 203.936  1.00 34.74 LIG 0.24  C 
ATOM     28  N   VAL A 132     -37.581  91.932 203.581  1.00 33.85 LIG-0.35  N 
ATOM     29 H    VAL A 132     -37.866  91.988 202.770  1.00 33.85 LIG 0.16  HD
ATOM     30 O    LYS A 131     -36.042  91.300 205.094  1.00 35.56 LIG-0.27  OA
BRANCH 28 31
ATOM     31  CA  VAL A 132     -38.435  92.585 204.570  1.00 36.14 LIG 0.17  C 
BRANCH 31 32
ATOM     32  C   VAL A 132     -39.777  91.867 204.726  1.00 41.88 LIG 0.22  C 
ATOM     33 O    VAL A 132     -40.245  91.663 205.852  1.00 46.22 LIG-0.29  OA
ENDBRANCH 31 32
BRANCH 31 34
ATOM     34  CB  VAL A 132     -38.699  94.064 204.203  1.00 35.83 LIG 0.01  C 
ATOM     35  CG1 VAL A 132     -40.035  94.523 204.777  1.00 39.48 LIG 0.01  C 
ATOM     36  CG2 VAL A 132     -37.582  94.943 204.709  1.00 35.02 LIG 0.01  C 
ENDBRANCH 31 34
ENDBRANCH 28 31
ENDBRANCH 18 27
ENDBRANCH 15 18
ENDBRANCH 1 14
BRANCH 1 37
ATOM     37  N   ARG A 130     -31.624  88.141 202.452  1.00 35.65 LIG-0.35  N 
ATOM     38 H    ARG A 130     -31.664  87.404 202.893  1.00 35.65 LIG 0.16  HD
ATOM     39  C   LYS A 129     -31.140  88.237 201.216  1.00 38.36 LIG 0.24  C 
ATOM     40 O    LYS A 129     -31.122  89.291 200.589  1.00 38.91 LIG-0.27  OA
BRANCH 39 41
ATOM     41  CA  LYS A 129     -30.582  86.958 200.597  1.00 41.62 LIG 0.18  C 
BRANCH 41 42
ATOM     42  CB  LYS A 129     -29.903  87.289 199.270  1.00 37.07 LIG 0.04  C 
BRANCH 42 43
ATOM     43  CG  LYS A 129     -28.834  86.297 198.836  1.00 37.25 LIG 0.00  C 
BRANCH 43 44
ATOM     44  CD  LYS A 129     -27.916  85.900 199.990  1.00 32.25 LIG 0.03  C 
BRANCH 44 45
ATOM     45  CE  LYS A 129     -27.906  84.385 200.152  1.00 33.17 LIG 0.23  C 
BRANCH 45 46
ATOM     46  NZ  LYS A 129     -26.526  83.809 200.234  1.00 31.02 LIG-0.08  N 
ATOM     47 HZ2  LYS A 129     -25.942  84.460 200.397  1.00 31.02 LIG 0.27  HD
ATOM     48 HZ3  LYS A 129     -26.493  83.210 200.892  1.00 31.02 LIG 0.27  HD
ATOM     49 HZ1  LYS A 129     -26.322  83.413 199.463  1.00 31.02 LIG 0.27  HD
ENDBRANCH 45 46
ENDBRANCH 44 45
ENDBRANCH 43 44
ENDBRANCH 42 43
ENDBRANCH 41 42
BRANCH 41 50
ATOM     50  N   LYS A 129     -31.614  85.940 200.401  1.00 48.91 LIG-0.35  N 
ATOM     51  C   LYS A 128     -31.826  84.972 201.292  1.00 46.33 LIG 0.26  C 
ATOM     52 O    LYS A 128     -31.220  84.900 202.359  1.00 48.39 LIG-0.27  OA
ATOM     53 H    LYS A 129     -32.061  86.025 199.671  1.00 48.91 LIG 0.16  HD
BRANCH 51 54
ATOM     54  CA  LYS A 128     -32.892  83.936 200.931  1.00 52.62 LIG 0.40  C 
ATOM     55  N   LYS A 128     -34.176  84.578 200.689  1.00 52.42 LIG 0.61  N 
BRANCH 54 56
ATOM     56  CB  LYS A 128     -32.454  83.130 199.702  1.00 53.69 LIG 0.05  C 
BRANCH 56 57
ATOM     57  CG  LYS A 128     -31.112  82.428 199.857  1.00 48.68 LIG 0.00  C 
BRANCH 57 58
ATOM     58  CD  LYS A 128     -30.684  81.764 198.560  1.00 52.15 LIG 0.03  C 
BRANCH 58 59
ATOM     59  CE  LYS A 128     -29.319  82.270 198.122  1.00 44.05 LIG 0.23  C 
BRANCH 59 60
ATOM     60  NZ  LYS A 128     -28.185  81.499 198.719  1.00 43.39 LIG-0.08  N 
ATOM     61 HZ1  LYS A 128     -27.762  82.007 199.315  1.00 43.39 LIG 0.27  HD
ATOM     62 HZ2  LYS A 128     -28.500  80.771 199.122  1.00 43.39 LIG 0.27  HD
ATOM     63 HZ3  LYS A 128     -27.618  81.261 198.077  1.00 43.39 LIG 0.27  HD
ENDBRANCH 59 60
ENDBRANCH 58 59
ENDBRANCH 57 58
ENDBRANCH 56 57
ENDBRANCH 54 56
ENDBRANCH 51 54
ENDBRANCH 41 50
ENDBRANCH 39 41
ENDBRANCH 1 37
TORSDOF 29
ENDMDL
MODEL 7
USER: ADFR SOLUTION from run 27
USER: SCORE 20.459174 LL:  -2.155 LR: -19.739 RR:   0.000 FEB: -11.089
USER: RMSD 9.028757
USER: SEED 26
USER: STATUS no improvement in best in 3 clusters for 5 generations
USER: GENES 31
USER: genes 0 Translation |==|  0.43919 0.60488 0.54815
USER: genes 1 Rotation |==|  0.97560 0.54503 0.35807 0.54044
USER: genes 2 Torsion [C]-CA--CB-[CG] |==|  0.41253
USER: genes 3 Torsion [CA]-CB--CG-[CD] |==|  0.72666
USER: genes 4 Torsion [CB]-CG--CD-[NE] |==|  0.61000
USER: genes 5 Torsion [CG]-CD--NE-[HE] |==|  0.92344
USER: genes 6 Torsion [N]-CA--C-[N] |==|  0.35658
USER: genes 7 Torsion [C]-N--CA-[CB] |==|  0.21293
USER: genes 8 Torsion [N]-CA--CB-[CG] |==|  0.22586
USER: genes 9 Torsion [CA]-CB--CG-[CD] |==|  0.80259
USER: genes 10 Torsion [CB]-CG--CD-[CE] |==|  0.41409
USER: genes 11 Torsion [CG]-CD--CE-[NZ] |==|  0.71712
USER: genes 12 Torsion [CD]-CE--NZ-[HZ2] |==|  0.79290
USER: genes 13 Torsion [N]-CA--C-[N] |==|  0.47695
USER: genes 14 Torsion [C]-N--CA-[CB] |==|  0.37231
USER: genes 15 Torsion [N]-CA--C-[O] |==|  0.38230
USER: genes 16 Torsion [N]-CA--CB-[CG1] |==|  0.36521
USER: genes 17 Torsion [CB]-CA--N-[C] |==|  0.53334
USER: genes 18 Torsion [N]-C--CA-[N] |==|  0.98705
USER: genes 19 Torsion [C]-CA--CB-[CG] |==|  0.20696
USER: genes 20 Torsion [CA]-CB--CG-[CD] |==|  0.63021
USER: genes 21 Torsion [CB]-CG--CD-[CE] |==|  0.39072
USER: genes 22 Torsion [CG]-CD--CE-[NZ] |==|  0.35343
USER: genes 23 Torsion [CD]-CE--NZ-[HZ1] |==|  0.85744
USER: genes 24 Torsion [C]-CA--N-[C] |==|  0.75173
USER: genes 25 Torsion [N]-C--CA-[N] |==|  0.74172
USER: genes 26 Torsion [C]-CA--CB-[CG] |==|  0.24166
USER: genes 27 Torsion [CA]-CB--CG-[CD] |==|  0.80620
USER: genes 28 Torsion [CB]-CG--CD-[CE] |==|  0.47473
USER: genes 29 Torsion [CG]-CD--CE-[NZ] |==|  0.14283
USER: genes 30 Torsion [CD]-CE--NZ-[HZ2] |==|  0.97752
ROOT
ATOM      1  CA  ARG A 130     -32.133  89.384 203.300  1.00 33.49 LIG 0.18  C 
ENDROOT
BRANCH 1 2
ATOM      2  CB  ARG A 130     -31.034  90.448 203.262  1.00 35.16 LIG 0.04  C 
BRANCH 2 3
ATOM      3  CG  ARG A 130     -30.061  90.423 204.423  1.00 39.71 LIG 0.02  C 
BRANCH 3 4
ATOM      4  CD  ARG A 130     -30.456  91.468 205.465  1.00 38.05 LIG 0.14  C 
BRANCH 4 5
ATOM      5  NE  ARG A 130     -29.288  92.146 206.027  1.00 39.97 LIG-0.23  N 
ATOM      6 HE   ARG A 130     -28.543  91.716 206.041  1.00 39.97 LIG 0.18  HD
ATOM      7  CZ  ARG A 130     -29.298  93.382 206.517  1.00 35.35 LIG 0.67  C 
ATOM      8  NH1 ARG A 130     -30.422  94.088 206.534  1.00 35.08 LIG-0.23  N 
ATOM      9  NH2 ARG A 130     -28.185  93.913 207.001  1.00 36.08 LIG-0.23  N 
ATOM     10 2HH1 ARG A 130     -30.423  94.887 206.852  1.00 35.08 LIG 0.17  HD
ATOM     11 1HH1 ARG A 130     -31.149  93.746 206.227  1.00 35.08 LIG 0.17  HD
ATOM     12 1HH2 ARG A 130     -27.456  93.458 206.998  1.00 36.08 LIG 0.17  HD
ATOM     13 2HH2 ARG A 130     -28.192  94.712 207.318  1.00 36.08 LIG 0.17  HD
ENDBRANCH 4 5
ENDBRANCH 3 4
ENDBRANCH 2 3
ENDBRANCH 1 2
BRANCH 1 14
ATOM     14  C   ARG A 130     -33.380  89.940 202.639  1.00 35.02 LIG 0.24  C 
ATOM     15  N   LYS A 131     -34.404  90.232 203.435  1.00 32.29 LIG-0.35  N 
ATOM     16 H    LYS A 131     -34.412  90.103 204.285  1.00 32.29 LIG 0.16  HD
ATOM     17 O    ARG A 130     -33.413  90.123 201.425  1.00 31.53 LIG-0.27  OA
BRANCH 15 18
ATOM     18  CA  LYS A 131     -35.622  90.812 202.891  1.00 31.30 LIG 0.18  C 
BRANCH 18 19
ATOM     19  CB  LYS A 131     -36.457  89.730 202.186  1.00 33.79 LIG 0.04  C 
BRANCH 19 20
ATOM     20  CG  LYS A 131     -37.278  88.921 203.182  1.00 34.08 LIG 0.00  C 
BRANCH 20 21
ATOM     21  CD  LYS A 131     -36.464  88.004 204.039  1.00 36.35 LIG 0.03  C 
BRANCH 21 22
ATOM     22  CE  LYS A 131     -37.118  87.835 205.405  1.00 32.79 LIG 0.23  C 
BRANCH 22 23
ATOM     23  NZ  LYS A 131     -36.435  88.663 206.439  1.00 29.22 LIG-0.08  N 
ATOM     24 HZ3  LYS A 131     -36.291  89.481 206.119  1.00 29.22 LIG 0.27  HD
ATOM     25 HZ2  LYS A 131     -35.657  88.288 206.654  1.00 29.22 LIG 0.27  HD
ATOM     26 HZ1  LYS A 131     -36.949  88.715 207.164  1.00 29.22 LIG 0.27  HD
ENDBRANCH 22 23
ENDBRANCH 21 22
ENDBRANCH 20 21
ENDBRANCH 19 20
ENDBRANCH 18 19
BRANCH 18 27
ATOM     27  C   LYS A 131     -36.415  91.499 203.998  1.00 34.74 LIG 0.24  C 
ATOM     28  N   VAL A 132     -37.466  92.220 203.619  1.00 33.85 LIG-0.35  N 
ATOM     29 H    VAL A 132     -37.703  92.333 202.800  1.00 33.85 LIG 0.16  HD
ATOM     30 O    LYS A 131     -36.058  91.407 205.173  1.00 35.56 LIG-0.27  OA
BRANCH 28 31
ATOM     31  CA  VAL A 132     -38.320  92.891 204.596  1.00 36.14 LIG 0.17  C 
BRANCH 31 32
ATOM     32  C   VAL A 132     -39.643  92.150 204.800  1.00 41.88 LIG 0.22  C 
ATOM     33 O    VAL A 132     -40.105  92.005 205.938  1.00 46.22 LIG-0.29  OA
ENDBRANCH 31 32
BRANCH 31 34
ATOM     34  CB  VAL A 132     -38.623  94.348 204.177  1.00 35.83 LIG 0.01  C 
ATOM     35  CG1 VAL A 132     -40.118  94.632 204.284  1.00 39.48 LIG 0.01  C 
ATOM     36  CG2 VAL A 132     -37.844  95.318 205.031  1.00 35.02 LIG 0.01  C 
ENDBRANCH 31 34
ENDBRANCH 28 31
ENDBRANCH 18 27
ENDBRANCH 15 18
ENDBRANCH 1 14
BRANCH 1 37
ATOM     37  N   ARG A 130     -31.703  88.146 202.647  1.00 35.65 LIG-0.35  N 
ATOM     38 H    ARG A 130     -30.861  88.111 202.477  1.00 35.65 LIG 0.16  HD
ATOM     39  C   LYS A 129     -32.558  87.170 202.351  1.00 38.36 LIG 0.24  C 
ATOM     40 O    LYS A 129     -33.751  87.224 202.632  1.00 38.91 LIG-0.27  OA
BRANCH 39 41
ATOM     41  CA  LYS A 129     -31.988  85.958 201.619  1.00 41.62 LIG 0.18  C 
BRANCH 41 42
ATOM     42  CB  LYS A 129     -32.169  84.711 202.481  1.00 37.07 LIG 0.04  C 
BRANCH 42 43
ATOM     43  CG  LYS A 129     -33.592  84.177 202.539  1.00 37.25 LIG 0.00  C 
BRANCH 43 44
ATOM     44  CD  LYS A 129     -34.028  83.858 203.967  1.00 32.25 LIG 0.03  C 
BRANCH 44 45
ATOM     45  CE  LYS A 129     -35.481  84.270 204.174  1.00 33.17 LIG 0.23  C 
BRANCH 45 46
ATOM     46  NZ  LYS A 129     -36.335  83.168 204.719  1.00 31.02 LIG-0.08  N 
ATOM     47 HZ2  LYS A 129     -36.095  82.993 205.558  1.00 31.02 LIG 0.27  HD
ATOM     48 HZ3  LYS A 129     -37.190  83.418 204.702  1.00 31.02 LIG 0.27  HD
ATOM     49 HZ1  LYS A 129     -36.231  82.437 204.222  1.00 31.02 LIG 0.27  HD
ENDBRANCH 45 46
ENDBRANCH 44 45
ENDBRANCH 43 44
ENDBRANCH 42 43
ENDBRANCH 41 42
BRANCH 41 50
ATOM     50  N   LYS A 129     -30.579  86.135 201.267  1.00 48.91 LIG-0.35  N 
ATOM     51  C   LYS A 128     -30.206  86.686 200.112  1.00 46.33 LIG 0.26  C 
ATOM     52 O    LYS A 128     -31.006  87.138 199.296  1.00 48.39 LIG-0.27  OA
ATOM     53 H    LYS A 129     -30.027  85.855 201.864  1.00 48.91 LIG 0.16  HD
BRANCH 51 54
ATOM     54  CA  LYS A 128     -28.702  86.750 199.844  1.00 52.62 LIG 0.40  C 
ATOM     55  N   LYS A 128     -28.150  88.022 200.290  1.00 52.42 LIG 0.61  N 
BRANCH 54 56
ATOM     56  CB  LYS A 128     -27.988  85.583 200.537  1.00 53.69 LIG 0.05  C 
BRANCH 56 57
ATOM     57  CG  LYS A 128     -27.929  84.305 199.712  1.00 48.68 LIG 0.00  C 
BRANCH 57 58
ATOM     58  CD  LYS A 128     -29.303  83.671 199.576  1.00 52.15 LIG 0.03  C 
BRANCH 58 59
ATOM     59  CE  LYS A 128     -29.271  82.529 198.573  1.00 44.05 LIG 0.23  C 
BRANCH 59 60
ATOM     60  NZ  LYS A 128     -28.185  81.538 198.842  1.00 43.39 LIG-0.08  N 
ATOM     61 HZ1  LYS A 128     -27.708  81.412 198.102  1.00 43.39 LIG 0.27  HD
ATOM     62 HZ2  LYS A 128     -27.655  81.846 199.488  1.00 43.39 LIG 0.27  HD
ATOM     63 HZ3  LYS A 128     -28.545  80.765 199.097  1.00 43.39 LIG 0.27  HD
ENDBRANCH 59 60
ENDBRANCH 58 59
ENDBRANCH 57 58
ENDBRANCH 56 57
ENDBRANCH 54 56
ENDBRANCH 51 54
ENDBRANCH 41 50
ENDBRANCH 39 41
ENDBRANCH 1 37
TORSDOF 29
ENDMDL
MODEL 8
USER: ADFR SOLUTION from run 188
USER: SCORE 19.901524 LL:  -1.437 LR: -19.690 RR:   0.000 FEB: -11.039
USER: RMSD 8.683741
USER: SEED 187
USER: STATUS searching
USER: GENES 31
USER: genes 0 Translation |==|  0.44148 0.49395 0.47868
USER: genes 1 Rotation |==|  0.62989 0.91350 0.73246 0.59002
USER: genes 2 Torsion [C]-CA--CB-[CG] |==|  0.36748
USER: genes 3 Torsion [CA]-CB--CG-[CD] |==|  0.33858
USER: genes 4 Torsion [CB]-CG--CD-[NE] |==|  0.62192
USER: genes 5 Torsion [CG]-CD--NE-[HE] |==|  0.24511
USER: genes 6 Torsion [N]-CA--C-[N] |==|  0.20497
USER: genes 7 Torsion [C]-N--CA-[CB] |==|  0.87222
USER: genes 8 Torsion [N]-CA--CB-[CG] |==|  0.69611
USER: genes 9 Torsion [CA]-CB--CG-[CD] |==|  0.52479
USER: genes 10 Torsion [CB]-CG--CD-[CE] |==|  0.53034
USER: genes 11 Torsion [CG]-CD--CE-[NZ] |==|  0.05654
USER: genes 12 Torsion [CD]-CE--NZ-[HZ2] |==|  0.10106
USER: genes 13 Torsion [N]-CA--C-[N] |==|  0.86256
USER: genes 14 Torsion [C]-N--CA-[CB] |==|  0.84462
USER: genes 15 Torsion [N]-CA--C-[O] |==|  0.19718
USER: genes 16 Torsion [N]-CA--CB-[CG1] |==|  0.35193
USER: genes 17 Torsion [CB]-CA--N-[C] |==|  0.78319
USER: genes 18 Torsion [N]-C--CA-[N] |==|  0.77081
USER: genes 19 Torsion [C]-CA--CB-[CG] |==|  0.37626
USER: genes 20 Torsion [CA]-CB--CG-[CD] |==|  0.29053
USER: genes 21 Torsion [CB]-CG--CD-[CE] |==|  0.55728
USER: genes 22 Torsion [CG]-CD--CE-[NZ] |==|  0.43081
USER: genes 23 Torsion [CD]-CE--NZ-[HZ1] |==|  0.99368
USER: genes 24 Torsion [C]-CA--N-[C] |==|  0.63761
USER: genes 25 Torsion [N]-C--CA-[N] |==|  0.45794
USER: genes 26 Torsion [C]-CA--CB-[CG] |==|  0.20902
USER: genes 27 Torsion [CA]-CB--CG-[CD] |==|  0.26169
USER: genes 28 Torsion [CB]-CG--CD-[CE] |==|  0.55449
USER: genes 29 Torsion [CG]-CD--CE-[NZ] |==|  0.36685
USER: genes 30 Torsion [CD]-CE--NZ-[HZ2] |==|  0.34882
ROOT
ATOM      1  CA  ARG A 130     -32.083  86.638 202.101  1.00 33.49 LIG 0.18  C 
ENDROOT
BRANCH 1 2
ATOM      2  CB  ARG A 130     -33.551  86.409 201.738  1.00 35.16 LIG 0.04  C 
BRANCH 2 3
ATOM      3  CG  ARG A 130     -34.271  85.358 202.559  1.00 39.71 LIG 0.02  C 
BRANCH 3 4
ATOM      4  CD  ARG A 130     -35.487  85.971 203.250  1.00 38.05 LIG 0.14  C 
BRANCH 4 5
ATOM      5  NE  ARG A 130     -35.596  85.540 204.645  1.00 39.97 LIG-0.23  N 
ATOM      6 HE   ARG A 130     -35.184  86.003 205.241  1.00 39.97 LIG 0.18  HD
ATOM      7  CZ  ARG A 130     -36.289  84.481 205.053  1.00 35.35 LIG 0.67  C 
ATOM      8  NH1 ARG A 130     -36.933  83.721 204.175  1.00 35.08 LIG-0.23  N 
ATOM      9  NH2 ARG A 130     -36.332  84.173 206.341  1.00 36.08 LIG-0.23  N 
ATOM     10 2HH1 ARG A 130     -37.379  83.038 204.445  1.00 35.08 LIG 0.17  HD
ATOM     11 1HH1 ARG A 130     -36.904  83.913 203.338  1.00 35.08 LIG 0.17  HD
ATOM     12 1HH2 ARG A 130     -35.911  84.658 206.912  1.00 36.08 LIG 0.17  HD
ATOM     13 2HH2 ARG A 130     -36.780  83.488 206.605  1.00 36.08 LIG 0.17  HD
ENDBRANCH 4 5
ENDBRANCH 3 4
ENDBRANCH 2 3
ENDBRANCH 1 2
BRANCH 1 14
ATOM     14  C   ARG A 130     -31.255  86.640 200.830  1.00 35.02 LIG 0.24  C 
ATOM     15  N   LYS A 131     -29.942  86.480 200.966  1.00 32.29 LIG-0.35  N 
ATOM     16 H    LYS A 131     -29.537  86.403 201.720  1.00 32.29 LIG 0.16  HD
ATOM     17 O    ARG A 130     -31.796  86.765 199.734  1.00 31.53 LIG-0.27  OA
BRANCH 15 18
ATOM     18  CA  LYS A 131     -29.079  86.424 199.796  1.00 31.30 LIG 0.18  C 
BRANCH 18 19
ATOM     19  CB  LYS A 131     -29.683  85.491 198.733  1.00 33.79 LIG 0.04  C 
BRANCH 19 20
ATOM     20  CG  LYS A 131     -28.879  84.205 198.599  1.00 34.08 LIG 0.00  C 
BRANCH 20 21
ATOM     21  CD  LYS A 131     -29.287  83.350 197.441  1.00 36.35 LIG 0.03  C 
BRANCH 21 22
ATOM     22  CE  LYS A 131     -28.629  81.979 197.536  1.00 32.79 LIG 0.23  C 
BRANCH 22 23
ATOM     23  NZ  LYS A 131     -28.185  81.686 198.928  1.00 29.22 LIG-0.08  N 
ATOM     24 HZ3  LYS A 131     -28.129  80.805 199.043  1.00 29.22 LIG 0.27  HD
ATOM     25 HZ2  LYS A 131     -28.773  82.022 199.505  1.00 29.22 LIG 0.27  HD
ATOM     26 HZ1  LYS A 131     -27.388  82.054 199.070  1.00 29.22 LIG 0.27  HD
ENDBRANCH 22 23
ENDBRANCH 21 22
ENDBRANCH 20 21
ENDBRANCH 19 20
ENDBRANCH 18 19
BRANCH 18 27
ATOM     27  C   LYS A 131     -28.853  87.829 199.245  1.00 34.74 LIG 0.24  C 
ATOM     28  N   VAL A 132     -29.935  88.578 199.058  1.00 33.85 LIG-0.35  N 
ATOM     29 H    VAL A 132     -30.739  88.309 199.208  1.00 33.85 LIG 0.16  HD
ATOM     30 O    LYS A 131     -27.717  88.214 198.961  1.00 35.56 LIG-0.27  OA
BRANCH 28 31
ATOM     31  CA  VAL A 132     -29.835  89.951 198.571  1.00 36.14 LIG 0.17  C 
BRANCH 31 32
ATOM     32  C   VAL A 132     -29.310  90.009 197.134  1.00 41.88 LIG 0.22  C 
ATOM     33 O    VAL A 132     -30.022  89.631 196.197  1.00 46.22 LIG-0.29  OA
ENDBRANCH 31 32
BRANCH 31 34
ATOM     34  CB  VAL A 132     -28.916  90.807 199.473  1.00 35.83 LIG 0.01  C 
ATOM     35  CG1 VAL A 132     -27.834  91.485 198.639  1.00 39.48 LIG 0.01  C 
ATOM     36  CG2 VAL A 132     -29.723  91.840 200.222  1.00 35.02 LIG 0.01  C 
ENDBRANCH 31 34
ENDBRANCH 28 31
ENDBRANCH 18 27
ENDBRANCH 15 18
ENDBRANCH 1 14
BRANCH 1 37
ATOM     37  N   ARG A 130     -31.903  87.887 202.844  1.00 35.65 LIG-0.35  N 
ATOM     38 H    ARG A 130     -31.805  87.782 203.691  1.00 35.65 LIG 0.16  HD
ATOM     39  C   LYS A 129     -31.896  89.073 202.240  1.00 38.36 LIG 0.24  C 
ATOM     40 O    LYS A 129     -32.004  89.201 201.025  1.00 38.91 LIG-0.27  OA
BRANCH 39 41
ATOM     41  CA  LYS A 129     -31.757  90.299 203.139  1.00 41.62 LIG 0.18  C 
BRANCH 41 42
ATOM     42  CB  LYS A 129     -30.739  90.010 204.240  1.00 37.07 LIG 0.04  C 
BRANCH 42 43
ATOM     43  CG  LYS A 129     -29.742  91.131 204.495  1.00 37.25 LIG 0.00  C 
BRANCH 43 44
ATOM     44  CD  LYS A 129     -30.060  91.902 205.775  1.00 32.25 LIG 0.03  C 
BRANCH 44 45
ATOM     45  CE  LYS A 129     -29.398  93.273 205.736  1.00 33.17 LIG 0.23  C 
BRANCH 45 46
ATOM     46  NZ  LYS A 129     -30.088  94.288 206.594  1.00 31.02 LIG-0.08  N 
ATOM     47 HZ2  LYS A 129     -29.532  94.566 207.230  1.00 31.02 LIG 0.27  HD
ATOM     48 HZ3  LYS A 129     -30.336  94.981 206.093  1.00 31.02 LIG 0.27  HD
ATOM     49 HZ1  LYS A 129     -30.807  93.920 206.969  1.00 31.02 LIG 0.27  HD
ENDBRANCH 45 46
ENDBRANCH 44 45
ENDBRANCH 43 44
ENDBRANCH 42 43
ENDBRANCH 41 42
BRANCH 41 50
ATOM     50  N   LYS A 129     -33.036  90.706 203.723  1.00 48.91 LIG-0.35  N 
ATOM     51  C   LYS A 128     -33.460  91.969 203.674  1.00 46.33 LIG 0.26  C 
ATOM     52 O    LYS A 128     -32.848  92.860 203.089  1.00 48.39 LIG-0.27  OA
ATOM     53 H    LYS A 129     -33.477  90.067 204.092  1.00 48.91 LIG 0.16  HD
BRANCH 51 54
ATOM     54  CA  LYS A 128     -34.783  92.269 204.380  1.00 52.62 LIG 0.40  C 
ATOM     55  N   LYS A 128     -34.958  93.702 204.565  1.00 52.42 LIG 0.61  N 
BRANCH 54 56
ATOM     56  CB  LYS A 128     -35.956  91.684 203.582  1.00 53.69 LIG 0.05  C 
BRANCH 56 57
ATOM     57  CG  LYS A 128     -36.103  90.173 203.700  1.00 48.68 LIG 0.00  C 
BRANCH 57 58
ATOM     58  CD  LYS A 128     -37.085  89.799 204.797  1.00 52.15 LIG 0.03  C 
BRANCH 58 59
ATOM     59  CE  LYS A 128     -36.876  88.358 205.236  1.00 44.05 LIG 0.23  C 
BRANCH 59 60
ATOM     60  NZ  LYS A 128     -36.810  88.198 206.721  1.00 43.39 LIG-0.08  N 
ATOM     61 HZ1  LYS A 128     -36.986  88.977 207.111  1.00 43.39 LIG 0.27  HD
ATOM     62 HZ2  LYS A 128     -37.409  87.593 206.981  1.00 43.39 LIG 0.27  HD
ATOM     63 HZ3  LYS A 128     -35.996  87.927 206.954  1.00 43.39 LIG 0.27  HD
ENDBRANCH 59 60
ENDBRANCH 58 59
ENDBRANCH 57 58
ENDBRANCH 56 57
ENDBRANCH 54 56
ENDBRANCH 51 54
ENDBRANCH 41 50
ENDBRANCH 39 41
ENDBRANCH 1 37
TORSDOF 29
ENDMDL
MODEL 9
USER: ADFR SOLUTION from run 62
USER: SCORE 19.294358 LL:  -1.931 LR: -19.690 RR:   0.000 FEB: -11.039
USER: RMSD 3.357193
USER: SEED 61
USER: STATUS no improvement in best in 2 clusters for 5 generations
USER: GENES 31
USER: genes 0 Translation |==|  0.44575 0.54994 0.43597
USER: genes 1 Rotation |==|  0.39698 0.45597 0.38981 0.97467
USER: genes 2 Torsion [C]-CA--CB-[CG] |==|  0.48999
USER: genes 3 Torsion [CA]-CB--CG-[CD] |==|  0.39216
USER: genes 4 Torsion [CB]-CG--CD-[NE] |==|  0.31715
USER: genes 5 Torsion [CG]-CD--NE-[HE] |==|  0.96505
USER: genes 6 Torsion [N]-CA--C-[N] |==|  0.41454
USER: genes 7 Torsion [C]-N--CA-[CB] |==|  0.35762
USER: genes 8 Torsion [N]-CA--CB-[CG] |==|  0.39114
USER: genes 9 Torsion [CA]-CB--CG-[CD] |==|  0.24089
USER: genes 10 Torsion [CB]-CG--CD-[CE] |==|  0.98141
USER: genes 11 Torsion [CG]-CD--CE-[NZ] |==|  0.64979
USER: genes 12 Torsion [CD]-CE--NZ-[HZ2] |==|  0.99337
USER: genes 13 Torsion [N]-CA--C-[N] |==|  0.35165
USER: genes 14 Torsion [C]-N--CA-[CB] |==|  0.25295
USER: genes 15 Torsion [N]-CA--C-[O] |==|  0.03429
USER: genes 16 Torsion [N]-CA--CB-[CG1] |==|  0.51350
USER: genes 17 Torsion [CB]-CA--N-[C] |==|  0.51119
USER: genes 18 Torsion [N]-C--CA-[N] |==|  0.44040
USER: genes 19 Torsion [C]-CA--CB-[CG] |==|  0.59163
USER: genes 20 Torsion [CA]-CB--CG-[CD] |==|  0.34170
USER: genes 21 Torsion [CB]-CG--CD-[CE] |==|  0.36141
USER: genes 22 Torsion [CG]-CD--CE-[NZ] |==|  0.37129
USER: genes 23 Torsion [CD]-CE--NZ-[HZ1] |==|  0.64398
USER: genes 24 Torsion [C]-CA--N-[C] |==|  0.64436
USER: genes 25 Torsion [N]-C--CA-[N] |==|  0.76771
USER: genes 26 Torsion [C]-CA--CB-[CG] |==|  0.23996
USER: genes 27 Torsion [CA]-CB--CG-[CD] |==|  0.11507
USER: genes 28 Torsion [CB]-CG--CD-[CE] |==|  0.41925
USER: genes 29 Torsion [CG]-CD--CE-[NZ] |==|  0.05834
USER: genes 30 Torsion [CD]-CE--NZ-[HZ2] |==|  0.05494
ROOT
ATOM      1  CA  ARG A 130     -31.990  88.024 201.364  1.00 33.49 LIG 0.18  C 
ENDROOT
BRANCH 1 2
ATOM      2  CB  ARG A 130     -31.356  86.639 201.231  1.00 35.16 LIG 0.04  C 
BRANCH 2 3
ATOM      3  CG  ARG A 130     -30.384  86.473 200.081  1.00 39.71 LIG 0.02  C 
BRANCH 3 4
ATOM      4  CD  ARG A 130     -29.199  85.610 200.511  1.00 38.05 LIG 0.14  C 
BRANCH 4 5
ATOM      5  NE  ARG A 130     -29.162  84.337 199.790  1.00 39.97 LIG-0.23  N 
ATOM      6 HE   ARG A 130     -29.858  84.111 199.339  1.00 39.97 LIG 0.18  HD
ATOM      7  CZ  ARG A 130     -28.125  83.505 199.786  1.00 35.35 LIG 0.67  C 
ATOM      8  NH1 ARG A 130     -27.029  83.794 200.476  1.00 35.08 LIG-0.23  N 
ATOM      9  NH2 ARG A 130     -28.185  82.374 199.097  1.00 36.08 LIG-0.23  N 
ATOM     10 2HH1 ARG A 130     -26.361  83.251 200.469  1.00 35.08 LIG 0.17  HD
ATOM     11 1HH1 ARG A 130     -26.986  84.523 200.929  1.00 35.08 LIG 0.17  HD
ATOM     12 1HH2 ARG A 130     -28.895  82.179 198.653  1.00 36.08 LIG 0.17  HD
ATOM     13 2HH2 ARG A 130     -27.515  81.836 199.094  1.00 36.08 LIG 0.17  HD
ENDBRANCH 4 5
ENDBRANCH 3 4
ENDBRANCH 2 3
ENDBRANCH 1 2
BRANCH 1 14
ATOM     14  C   ARG A 130     -32.996  87.998 202.500  1.00 35.02 LIG 0.24  C 
ATOM     15  N   LYS A 131     -34.236  87.625 202.197  1.00 32.29 LIG-0.35  N 
ATOM     16 H    LYS A 131     -34.505  87.426 201.405  1.00 32.29 LIG 0.16  HD
ATOM     17 O    ARG A 130     -32.654  88.293 203.642  1.00 31.53 LIG-0.27  OA
BRANCH 15 18
ATOM     18  CA  LYS A 131     -35.253  87.529 203.233  1.00 31.30 LIG 0.18  C 
BRANCH 18 19
ATOM     19  CB  LYS A 131     -36.510  88.310 202.818  1.00 33.79 LIG 0.04  C 
BRANCH 19 20
ATOM     20  CG  LYS A 131     -37.782  87.575 203.219  1.00 34.08 LIG 0.00  C 
BRANCH 20 21
ATOM     21  CD  LYS A 131     -38.243  87.870 204.612  1.00 36.35 LIG 0.03  C 
BRANCH 21 22
ATOM     22  CE  LYS A 131     -37.213  88.722 205.342  1.00 32.79 LIG 0.23  C 
BRANCH 22 23
ATOM     23  NZ  LYS A 131     -36.810  88.097 206.634  1.00 29.22 LIG-0.08  N 
ATOM     24 HZ3  LYS A 131     -35.941  87.906 206.614  1.00 29.22 LIG 0.27  HD
ATOM     25 HZ2  LYS A 131     -37.275  87.349 206.760  1.00 29.22 LIG 0.27  HD
ATOM     26 HZ1  LYS A 131     -36.973  88.663 207.302  1.00 29.22 LIG 0.27  HD
ENDBRANCH 22 23
ENDBRANCH 21 22
ENDBRANCH 20 21
ENDBRANCH 19 20
ENDBRANCH 18 19
BRANCH 18 27
ATOM     27  C   LYS A 131     -35.571  86.065 203.519  1.00 34.74 LIG 0.24  C 
ATOM     28  N   VAL A 132     -35.487  85.673 204.787  1.00 33.85 LIG-0.35  N 
ATOM     29 H    VAL A 132     -35.247  86.186 205.435  1.00 33.85 LIG 0.16  HD
ATOM     30 O    LYS A 131     -35.854  85.294 202.601  1.00 35.56 LIG-0.27  OA
BRANCH 28 31
ATOM     31  CA  VAL A 132     -35.806  84.304 205.183  1.00 36.14 LIG 0.17  C 
BRANCH 31 32
ATOM     32  C   VAL A 132     -36.426  84.245 206.581  1.00 41.88 LIG 0.22  C 
ATOM     33 O    VAL A 132     -36.810  85.282 207.135  1.00 46.22 LIG-0.29  OA
ENDBRANCH 31 32
BRANCH 31 34
ATOM     34  CB  VAL A 132     -34.553  83.399 205.154  1.00 35.83 LIG 0.01  C 
ATOM     35  CG1 VAL A 132     -34.935  81.953 205.454  1.00 39.48 LIG 0.01  C 
ATOM     36  CG2 VAL A 132     -33.864  83.491 203.815  1.00 35.02 LIG 0.01  C 
ENDBRANCH 31 34
ENDBRANCH 28 31
ENDBRANCH 18 27
ENDBRANCH 15 18
ENDBRANCH 1 14
BRANCH 1 37
ATOM     37  N   ARG A 130     -30.978  89.058 201.586  1.00 35.65 LIG-0.35  N 
ATOM     38 H    ARG A 130     -30.169  88.771 201.559  1.00 35.65 LIG 0.16  HD
ATOM     39  C   LYS A 129     -31.304  90.329 201.810  1.00 38.36 LIG 0.24  C 
ATOM     40 O    LYS A 129     -32.464  90.727 201.812  1.00 38.91 LIG-0.27  OA
BRANCH 39 41
ATOM     41  CA  LYS A 129     -30.153  91.294 202.083  1.00 41.62 LIG 0.18  C 
BRANCH 41 42
ATOM     42  CB  LYS A 129     -29.684  91.131 203.527  1.00 37.07 LIG 0.04  C 
BRANCH 42 43
ATOM     43  CG  LYS A 129     -29.180  92.408 204.181  1.00 37.25 LIG 0.00  C 
BRANCH 43 44
ATOM     44  CD  LYS A 129     -29.944  92.739 205.461  1.00 32.25 LIG 0.03  C 
BRANCH 44 45
ATOM     45  CE  LYS A 129     -28.966  93.024 206.594  1.00 33.17 LIG 0.23  C 
BRANCH 45 46
ATOM     46  NZ  LYS A 129     -29.310  94.253 207.377  1.00 31.02 LIG-0.08  N 
ATOM     47 HZ2  LYS A 129     -29.975  94.685 206.973  1.00 31.02 LIG 0.27  HD
ATOM     48 HZ3  LYS A 129     -29.564  94.020 208.198  1.00 31.02 LIG 0.27  HD
ATOM     49 HZ1  LYS A 129     -28.597  94.783 207.427  1.00 31.02 LIG 0.27  HD
ENDBRANCH 45 46
ENDBRANCH 44 45
ENDBRANCH 43 44
ENDBRANCH 42 43
ENDBRANCH 41 42
BRANCH 41 50
ATOM     50  N   LYS A 129     -30.521  92.686 201.821  1.00 48.91 LIG-0.35  N 
ATOM     51  C   LYS A 128     -29.784  93.472 201.036  1.00 46.33 LIG 0.26  C 
ATOM     52 O    LYS A 128     -28.790  93.074 200.433  1.00 48.39 LIG-0.27  OA
ATOM     53 H    LYS A 129     -31.242  92.941 202.213  1.00 48.91 LIG 0.16  HD
BRANCH 51 54
ATOM     54  CA  LYS A 128     -30.248  94.923 200.900  1.00 52.62 LIG 0.40  C 
ATOM     55  N   LYS A 128     -31.284  95.042 199.885  1.00 52.42 LIG 0.61  N 
BRANCH 54 56
ATOM     56  CB  LYS A 128     -30.755  95.447 202.249  1.00 53.69 LIG 0.05  C 
BRANCH 56 57
ATOM     57  CG  LYS A 128     -29.669  96.021 203.148  1.00 48.68 LIG 0.00  C 
BRANCH 57 58
ATOM     58  CD  LYS A 128     -28.681  96.858 202.355  1.00 52.15 LIG 0.03  C 
BRANCH 58 59
ATOM     59  CE  LYS A 128     -28.082  97.951 203.225  1.00 44.05 LIG 0.23  C 
BRANCH 59 60
ATOM     60  NZ  LYS A 128     -28.187  97.664 204.688  1.00 43.39 LIG-0.08  N 
ATOM     61 HZ1  LYS A 128     -28.871  98.118 205.032  1.00 43.39 LIG 0.27  HD
ATOM     62 HZ2  LYS A 128     -28.319  96.792 204.812  1.00 43.39 LIG 0.27  HD
ATOM     63 HZ3  LYS A 128     -27.435  97.910 205.094  1.00 43.39 LIG 0.27  HD
ENDBRANCH 59 60
ENDBRANCH 58 59
ENDBRANCH 57 58
ENDBRANCH 56 57
ENDBRANCH 54 56
ENDBRANCH 51 54
ENDBRANCH 41 50
ENDBRANCH 39 41
ENDBRANCH 1 37
TORSDOF 29
ENDMDL
MODEL 10
USER: ADFR SOLUTION from run 8
USER: SCORE 18.584818 LL:  -1.262 LR: -19.676 RR:   0.000 FEB: -11.025
USER: RMSD 6.798113
USER: SEED 194907
USER: STATUS no improvement in best in 11 clusters for 5 generations
USER: GENES 31
USER: genes 0 Translation |==|  0.38831 0.53623 0.49970
USER: genes 1 Rotation |==|  0.70151 0.89760 0.71397 0.57432
USER: genes 2 Torsion [C]-CA--CB-[CG] |==|  0.48873
USER: genes 3 Torsion [CA]-CB--CG-[CD] |==|  0.67708
USER: genes 4 Torsion [CB]-CG--CD-[NE] |==|  0.35666
USER: genes 5 Torsion [CG]-CD--NE-[HE] |==|  0.01914
USER: genes 6 Torsion [N]-CA--C-[N] |==|  0.16534
USER: genes 7 Torsion [C]-N--CA-[CB] |==|  0.44145
USER: genes 8 Torsion [N]-CA--CB-[CG] |==|  0.37544
USER: genes 9 Torsion [CA]-CB--CG-[CD] |==|  0.63063
USER: genes 10 Torsion [CB]-CG--CD-[CE] |==|  0.29066
USER: genes 11 Torsion [CG]-CD--CE-[NZ] |==|  0.39488
USER: genes 12 Torsion [CD]-CE--NZ-[HZ2] |==|  0.43345
USER: genes 13 Torsion [N]-CA--C-[N] |==|  0.86979
USER: genes 14 Torsion [C]-N--CA-[CB] |==|  0.29513
USER: genes 15 Torsion [N]-CA--C-[O] |==|  0.99314
USER: genes 16 Torsion [N]-CA--CB-[CG1] |==|  0.42725
USER: genes 17 Torsion [CB]-CA--N-[C] |==|  0.77221
USER: genes 18 Torsion [N]-C--CA-[N] |==|  0.74362
USER: genes 19 Torsion [C]-CA--CB-[CG] |==|  0.39363
USER: genes 20 Torsion [CA]-CB--CG-[CD] |==|  0.33421
USER: genes 21 Torsion [CB]-CG--CD-[CE] |==|  0.60424
USER: genes 22 Torsion [CG]-CD--CE-[NZ] |==|  0.37648
USER: genes 23 Torsion [CD]-CE--NZ-[HZ1] |==|  0.24558
USER: genes 24 Torsion [C]-CA--N-[C] |==|  0.71555
USER: genes 25 Torsion [N]-C--CA-[N] |==|  0.94024
USER: genes 26 Torsion [C]-CA--CB-[CG] |==|  0.15074
USER: genes 27 Torsion [CA]-CB--CG-[CD] |==|  0.69050
USER: genes 28 Torsion [CB]-CG--CD-[CE] |==|  0.44793
USER: genes 29 Torsion [CG]-CD--CE-[NZ] |==|  0.47018
USER: genes 30 Torsion [CD]-CE--NZ-[HZ2] |==|  0.74438
ROOT
ATOM      1  CA  ARG A 130     -33.239  87.685 202.464  1.00 33.49 LIG 0.18  C 
ENDROOT
BRANCH 1 2
ATOM      2  CB  ARG A 130     -34.761  87.822 202.390  1.00 35.16 LIG 0.04  C 
BRANCH 2 3
ATOM      3  CG  ARG A 130     -35.479  87.852 203.724  1.00 39.71 LIG 0.02  C 
BRANCH 3 4
ATOM      4  CD  ARG A 130     -36.399  86.640 203.855  1.00 38.05 LIG 0.14  C 
BRANCH 4 5
ATOM      5  NE  ARG A 130     -36.172  85.917 205.107  1.00 39.97 LIG-0.23  N 
ATOM      6 HE   ARG A 130     -35.635  86.267 205.681  1.00 39.97 LIG 0.18  HD
ATOM      7  CZ  ARG A 130     -36.739  84.755 205.419  1.00 35.35 LIG 0.67  C 
ATOM      8  NH1 ARG A 130     -37.564  84.161 204.566  1.00 35.08 LIG-0.23  N 
ATOM      9  NH2 ARG A 130     -36.473  84.179 206.582  1.00 36.08 LIG-0.23  N 
ATOM     10 2HH1 ARG A 130     -37.928  83.409 204.773  1.00 35.08 LIG 0.17  HD
ATOM     11 1HH1 ARG A 130     -37.736  84.527 203.807  1.00 35.08 LIG 0.17  HD
ATOM     12 1HH2 ARG A 130     -35.934  84.556 207.135  1.00 36.08 LIG 0.17  HD
ATOM     13 2HH2 ARG A 130     -36.840  83.427 206.784  1.00 36.08 LIG 0.17  HD
ENDBRANCH 4 5
ENDBRANCH 3 4
ENDBRANCH 2 3
ENDBRANCH 1 2
BRANCH 1 14
ATOM     14  C   ARG A 130     -32.687  87.570 201.055  1.00 35.02 LIG 0.24  C 
ATOM     15  N   LYS A 131     -31.375  87.388 200.936  1.00 32.29 LIG-0.35  N 
ATOM     16 H    LYS A 131     -30.825  87.358 201.597  1.00 32.29 LIG 0.16  HD
ATOM     17 O    ARG A 130     -33.438  87.624 200.086  1.00 31.53 LIG-0.27  OA
BRANCH 15 18
ATOM     18  CA  LYS A 131     -30.768  87.223 199.625  1.00 31.30 LIG 0.18  C 
BRANCH 18 19
ATOM     19  CB  LYS A 131     -29.267  87.552 199.688  1.00 33.79 LIG 0.04  C 
BRANCH 19 20
ATOM     20  CG  LYS A 131     -28.436  86.516 198.944  1.00 34.08 LIG 0.00  C 
BRANCH 20 21
ATOM     21  CD  LYS A 131     -27.244  86.029 199.707  1.00 36.35 LIG 0.03  C 
BRANCH 21 22
ATOM     22  CE  LYS A 131     -27.499  84.630 200.253  1.00 32.79 LIG 0.23  C 
BRANCH 22 23
ATOM     23  NZ  LYS A 131     -26.271  83.788 200.184  1.00 29.22 LIG-0.08  N 
ATOM     24 HZ3  LYS A 131     -26.202  83.430 199.372  1.00 29.22 LIG 0.27  HD
ATOM     25 HZ2  LYS A 131     -26.322  83.139 200.791  1.00 29.22 LIG 0.27  HD
ATOM     26 HZ1  LYS A 131     -25.556  84.291 200.347  1.00 29.22 LIG 0.27  HD
ENDBRANCH 22 23
ENDBRANCH 21 22
ENDBRANCH 20 21
ENDBRANCH 19 20
ENDBRANCH 18 19
BRANCH 18 27
ATOM     27  C   LYS A 131     -31.009  85.807 199.111  1.00 34.74 LIG 0.24  C 
ATOM     28  N   VAL A 132     -30.775  84.815 199.964  1.00 33.85 LIG-0.35  N 
ATOM     29 H    VAL A 132     -30.480  84.927 200.765  1.00 33.85 LIG 0.16  HD
ATOM     30 O    LYS A 131     -31.369  85.616 197.948  1.00 35.56 LIG-0.27  OA
BRANCH 28 31
ATOM     31  CA  VAL A 132     -31.008  83.421 199.593  1.00 36.14 LIG 0.17  C 
BRANCH 31 32
ATOM     32  C   VAL A 132     -31.809  82.674 200.662  1.00 41.88 LIG 0.22  C 
ATOM     33 O    VAL A 132     -32.136  83.247 201.707  1.00 46.22 LIG-0.29  OA
ENDBRANCH 31 32
BRANCH 31 34
ATOM     34  CB  VAL A 132     -29.678  82.670 199.349  1.00 35.83 LIG 0.01  C 
ATOM     35  CG1 VAL A 132     -29.858  81.176 199.604  1.00 39.48 LIG 0.01  C 
ATOM     36  CG2 VAL A 132     -29.188  82.905 197.942  1.00 35.02 LIG 0.01  C 
ENDBRANCH 31 34
ENDBRANCH 28 31
ENDBRANCH 18 27
ENDBRANCH 15 18
ENDBRANCH 1 14
BRANCH 1 37
ATOM     37  N   ARG A 130     -32.632  88.812 203.173  1.00 35.65 LIG-0.35  N 
ATOM     38 H    ARG A 130     -32.454  88.654 203.999  1.00 35.65 LIG 0.16  HD
ATOM     39  C   LYS A 129     -32.384  89.974 202.573  1.00 38.36 LIG 0.24  C 
ATOM     40 O    LYS A 129     -32.614  90.170 201.384  1.00 38.91 LIG-0.27  OA
BRANCH 39 41
ATOM     41  CA  LYS A 129     -31.802  91.085 203.443  1.00 41.62 LIG 0.18  C 
BRANCH 41 42
ATOM     42  CB  LYS A 129     -30.950  90.469 204.551  1.00 37.07 LIG 0.04  C 
BRANCH 42 43
ATOM     43  CG  LYS A 129     -29.682  91.241 204.883  1.00 37.25 LIG 0.00  C 
BRANCH 43 44
ATOM     44  CD  LYS A 129     -29.653  91.699 206.340  1.00 32.25 LIG 0.03  C 
BRANCH 44 45
ATOM     45  CE  LYS A 129     -29.024  93.083 206.439  1.00 33.17 LIG 0.23  C 
BRANCH 45 46
ATOM     46  NZ  LYS A 129     -29.777  94.010 207.343  1.00 31.02 LIG-0.08  N 
ATOM     47 HZ2  LYS A 129     -29.657  94.849 207.074  1.00 31.02 LIG 0.27  HD
ATOM     48 HZ3  LYS A 129     -30.644  93.811 207.316  1.00 31.02 LIG 0.27  HD
ATOM     49 HZ1  LYS A 129     -29.478  93.920 208.177  1.00 31.02 LIG 0.27  HD
ENDBRANCH 45 46
ENDBRANCH 44 45
ENDBRANCH 43 44
ENDBRANCH 42 43
ENDBRANCH 41 42
BRANCH 41 50
ATOM     50  N   LYS A 129     -32.840  91.943 204.015  1.00 48.91 LIG-0.35  N 
ATOM     51  C   LYS A 128     -33.108  93.149 203.517  1.00 46.33 LIG 0.26  C 
ATOM     52 O    LYS A 128     -32.555  93.599 202.516  1.00 48.39 LIG-0.27  OA
ATOM     53 H    LYS A 129     -33.251  91.601 204.689  1.00 48.91 LIG 0.16  HD
BRANCH 51 54
ATOM     54  CA  LYS A 128     -34.172  93.967 204.251  1.00 52.62 LIG 0.40  C 
ATOM     55  N   LYS A 128     -35.038  93.102 205.039  1.00 52.42 LIG 0.61  N 
BRANCH 54 56
ATOM     56  CB  LYS A 128     -33.507  95.020 205.147  1.00 53.69 LIG 0.05  C 
BRANCH 56 57
ATOM     57  CG  LYS A 128     -32.526  95.932 204.422  1.00 48.68 LIG 0.00  C 
BRANCH 57 58
ATOM     58  CD  LYS A 128     -31.098  95.670 204.866  1.00 52.15 LIG 0.03  C 
BRANCH 58 59
ATOM     59  CE  LYS A 128     -30.110  96.221 203.851  1.00 44.05 LIG 0.23  C 
BRANCH 59 60
ATOM     60  NZ  LYS A 128     -28.698  96.224 204.344  1.00 43.39 LIG-0.08  N 
ATOM     61 HZ1  LYS A 128     -28.145  96.096 203.659  1.00 43.39 LIG 0.27  HD
ATOM     62 HZ2  LYS A 128     -28.519  97.008 204.727  1.00 43.39 LIG 0.27  HD
ATOM     63 HZ3  LYS A 128     -28.590  95.572 204.939  1.00 43.39 LIG 0.27  HD
ENDBRANCH 59 60
ENDBRANCH 58 59
ENDBRANCH 57 58
ENDBRANCH 56 57
ENDBRANCH 54 56
ENDBRANCH 51 54
ENDBRANCH 41 50
ENDBRANCH 39 41
ENDBRANCH 1 37
TORSDOF 29
ENDMDL
MODEL 11
USER: ADFR SOLUTION from run 27
USER: SCORE 19.996247 LL:  -1.689 LR: -19.650 RR:   0.000 FEB: -10.999
USER: RMSD 9.555609
USER: SEED 26
USER: STATUS no improvement in best in 3 clusters for 5 generations
USER: GENES 31
USER: genes 0 Translation |==|  0.43788 0.60147 0.54062
USER: genes 1 Rotation |==|  0.97610 0.56215 0.36342 0.52840
USER: genes 2 Torsion [C]-CA--CB-[CG] |==|  0.41764
USER: genes 3 Torsion [CA]-CB--CG-[CD] |==|  0.71159
USER: genes 4 Torsion [CB]-CG--CD-[NE] |==|  0.62037
USER: genes 5 Torsion [CG]-CD--NE-[HE] |==|  0.91321
USER: genes 6 Torsion [N]-CA--C-[N] |==|  0.36908
USER: genes 7 Torsion [C]-N--CA-[CB] |==|  0.21512
USER: genes 8 Torsion [N]-CA--CB-[CG] |==|  0.22895
USER: genes 9 Torsion [CA]-CB--CG-[CD] |==|  0.82059
USER: genes 10 Torsion [CB]-CG--CD-[CE] |==|  0.40993
USER: genes 11 Torsion [CG]-CD--CE-[NZ] |==|  0.68591
USER: genes 12 Torsion [CD]-CE--NZ-[HZ2] |==|  0.80358
USER: genes 13 Torsion [N]-CA--C-[N] |==|  0.48757
USER: genes 14 Torsion [C]-N--CA-[CB] |==|  0.34960
USER: genes 15 Torsion [N]-CA--C-[O] |==|  0.37809
USER: genes 16 Torsion [N]-CA--CB-[CG1] |==|  0.42364
USER: genes 17 Torsion [CB]-CA--N-[C] |==|  0.84724
USER: genes 18 Torsion [N]-C--CA-[N] |==|  0.17420
USER: genes 19 Torsion [C]-CA--CB-[CG] |==|  0.45360
USER: genes 20 Torsion [CA]-CB--CG-[CD] |==|  0.84845
USER: genes 21 Torsion [CB]-CG--CD-[CE] |==|  0.35453
USER: genes 22 Torsion [CG]-CD--CE-[NZ] |==|  0.42026
USER: genes 23 Torsion [CD]-CE--NZ-[HZ1] |==|  0.71561
USER: genes 24 Torsion [C]-CA--N-[C] |==|  0.73425
USER: genes 25 Torsion [N]-C--CA-[N] |==|  0.26859
USER: genes 26 Torsion [C]-CA--CB-[CG] |==|  0.14136
USER: genes 27 Torsion [CA]-CB--CG-[CD] |==|  0.40367
USER: genes 28 Torsion [CB]-CG--CD-[CE] |==|  0.22319
USER: genes 29 Torsion [CG]-CD--CE-[NZ] |==|  0.43332
USER: genes 30 Torsion [CD]-CE--NZ-[HZ2] |==|  0.44984
ROOT
ATOM      1  CA  ARG A 130     -32.161  89.299 203.170  1.00 33.49 LIG 0.18  C 
ENDROOT
BRANCH 1 2
ATOM      2  CB  ARG A 130     -31.121  90.420 203.217  1.00 35.16 LIG 0.04  C 
BRANCH 2 3
ATOM      3  CG  ARG A 130     -30.131  90.344 204.362  1.00 39.71 LIG 0.02  C 
BRANCH 3 4
ATOM      4  CD  ARG A 130     -30.491  91.365 205.439  1.00 38.05 LIG 0.14  C 
BRANCH 4 5
ATOM      5  NE  ARG A 130     -29.309  92.068 205.941  1.00 39.97 LIG-0.23  N 
ATOM      6 HE   ARG A 130     -28.562  91.640 205.950  1.00 39.97 LIG 0.18  HD
ATOM      7  CZ  ARG A 130     -29.310  93.322 206.382  1.00 35.35 LIG 0.67  C 
ATOM      8  NH1 ARG A 130     -30.435  94.025 206.404  1.00 35.08 LIG-0.23  N 
ATOM      9  NH2 ARG A 130     -28.185  93.874 206.812  1.00 36.08 LIG-0.23  N 
ATOM     10 2HH1 ARG A 130     -30.429  94.836 206.691  1.00 35.08 LIG 0.17  HD
ATOM     11 1HH1 ARG A 130     -31.169  93.670 206.131  1.00 35.08 LIG 0.17  HD
ATOM     12 1HH2 ARG A 130     -27.454  93.421 206.806  1.00 36.08 LIG 0.17  HD
ATOM     13 2HH2 ARG A 130     -28.185  94.685 207.098  1.00 36.08 LIG 0.17  HD
ENDBRANCH 4 5
ENDBRANCH 3 4
ENDBRANCH 2 3
ENDBRANCH 1 2
BRANCH 1 14
ATOM     14  C   ARG A 130     -33.430  89.833 202.532  1.00 35.02 LIG 0.24  C 
ATOM     15  N   LYS A 131     -34.445  90.103 203.346  1.00 32.29 LIG-0.35  N 
ATOM     16 H    LYS A 131     -34.437  89.972 204.196  1.00 32.29 LIG 0.16  HD
ATOM     17 O    ARG A 130     -33.488  90.017 201.319  1.00 31.53 LIG-0.27  OA
BRANCH 15 18
ATOM     18  CA  LYS A 131     -35.684  90.660 202.824  1.00 31.30 LIG 0.18  C 
BRANCH 18 19
ATOM     19  CB  LYS A 131     -36.519  89.560 202.149  1.00 33.79 LIG 0.04  C 
BRANCH 19 20
ATOM     20  CG  LYS A 131     -37.326  88.767 203.168  1.00 34.08 LIG 0.00  C 
BRANCH 20 21
ATOM     21  CD  LYS A 131     -36.491  87.989 204.135  1.00 36.35 LIG 0.03  C 
BRANCH 21 22
ATOM     22  CE  LYS A 131     -37.185  87.906 205.488  1.00 32.79 LIG 0.23  C 
BRANCH 22 23
ATOM     23  NZ  LYS A 131     -36.435  88.663 206.531  1.00 29.22 LIG-0.08  N 
ATOM     24 HZ3  LYS A 131     -36.244  89.478 206.227  1.00 29.22 LIG 0.27  HD
ATOM     25 HZ2  LYS A 131     -35.680  88.234 206.723  1.00 29.22 LIG 0.27  HD
ATOM     26 HZ1  LYS A 131     -36.933  88.730 207.265  1.00 29.22 LIG 0.27  HD
ENDBRANCH 22 23
ENDBRANCH 21 22
ENDBRANCH 20 21
ENDBRANCH 19 20
ENDBRANCH 18 19
BRANCH 18 27
ATOM     27  C   LYS A 131     -36.461  91.347 203.943  1.00 34.74 LIG 0.24  C 
ATOM     28  N   VAL A 132     -37.575  91.983 203.591  1.00 33.85 LIG-0.35  N 
ATOM     29 H    VAL A 132     -37.860  92.044 202.782  1.00 33.85 LIG 0.16  HD
ATOM     30 O    LYS A 131     -36.040  91.330 205.100  1.00 35.56 LIG-0.27  OA
BRANCH 28 31
ATOM     31  CA  VAL A 132     -38.419  92.644 204.583  1.00 36.14 LIG 0.17  C 
BRANCH 31 32
ATOM     32  C   VAL A 132     -39.768  91.940 204.743  1.00 41.88 LIG 0.22  C 
ATOM     33 O    VAL A 132     -40.236  91.742 205.870  1.00 46.22 LIG-0.29  OA
ENDBRANCH 31 32
BRANCH 31 34
ATOM     34  CB  VAL A 132     -38.669  94.126 204.219  1.00 35.83 LIG 0.01  C 
ATOM     35  CG1 VAL A 132     -39.999  94.598 204.796  1.00 39.48 LIG 0.01  C 
ATOM     36  CG2 VAL A 132     -37.541  94.993 204.724  1.00 35.02 LIG 0.01  C 
ENDBRANCH 31 34
ENDBRANCH 28 31
ENDBRANCH 18 27
ENDBRANCH 15 18
ENDBRANCH 1 14
BRANCH 1 37
ATOM     37  N   ARG A 130     -31.660  88.133 202.441  1.00 35.65 LIG-0.35  N 
ATOM     38 H    ARG A 130     -31.695  87.398 202.886  1.00 35.65 LIG 0.16  HD
ATOM     39  C   LYS A 129     -31.195  88.223 201.197  1.00 38.36 LIG 0.24  C 
ATOM     40 O    LYS A 129     -31.186  89.274 200.566  1.00 38.91 LIG-0.27  OA
BRANCH 39 41
ATOM     41  CA  LYS A 129     -30.650  86.940 200.575  1.00 41.62 LIG 0.18  C 
BRANCH 41 42
ATOM     42  CB  LYS A 129     -30.036  87.255 199.214  1.00 37.07 LIG 0.04  C 
BRANCH 42 43
ATOM     43  CG  LYS A 129     -29.115  86.176 198.664  1.00 37.25 LIG 0.00  C 
BRANCH 43 44
ATOM     44  CD  LYS A 129     -28.003  85.815 199.646  1.00 32.25 LIG 0.03  C 
BRANCH 44 45
ATOM     45  CE  LYS A 129     -27.974  84.308 199.869  1.00 33.17 LIG 0.23  C 
BRANCH 45 46
ATOM     46  NZ  LYS A 129     -26.613  83.788 200.214  1.00 31.02 LIG-0.08  N 
ATOM     47 HZ2  LYS A 129     -26.097  84.462 200.482  1.00 31.02 LIG 0.27  HD
ATOM     48 HZ3  LYS A 129     -26.681  83.189 200.869  1.00 31.02 LIG 0.27  HD
ATOM     49 HZ1  LYS A 129     -26.251  83.403 199.498  1.00 31.02 LIG 0.27  HD
ENDBRANCH 45 46
ENDBRANCH 44 45
ENDBRANCH 43 44
ENDBRANCH 42 43
ENDBRANCH 41 42
BRANCH 41 50
ATOM     50  N   LYS A 129     -31.677  85.906 200.444  1.00 48.91 LIG-0.35  N 
ATOM     51  C   LYS A 128     -31.837  84.953 201.362  1.00 46.33 LIG 0.26  C 
ATOM     52 O    LYS A 128     -31.184  84.909 202.402  1.00 48.39 LIG-0.27  OA
ATOM     53 H    LYS A 129     -32.157  85.972 199.734  1.00 48.91 LIG 0.16  HD
BRANCH 51 54
ATOM     54  CA  LYS A 128     -32.905  83.898 201.068  1.00 52.62 LIG 0.40  C 
ATOM     55  N   LYS A 128     -32.308  82.709 200.477  1.00 52.42 LIG 0.61  N 
BRANCH 54 56
ATOM     56  CB  LYS A 128     -33.662  83.537 202.352  1.00 53.69 LIG 0.05  C 
BRANCH 56 57
ATOM     57  CG  LYS A 128     -34.195  84.736 203.124  1.00 48.68 LIG 0.00  C 
BRANCH 57 58
ATOM     58  CD  LYS A 128     -35.522  84.419 203.790  1.00 52.15 LIG 0.03  C 
BRANCH 58 59
ATOM     59  CE  LYS A 128     -35.305  83.648 205.082  1.00 44.05 LIG 0.23  C 
BRANCH 59 60
ATOM     60  NZ  LYS A 128     -36.435  83.791 206.051  1.00 43.39 LIG-0.08  N 
ATOM     61 HZ1  LYS A 128     -37.208  83.740 205.614  1.00 43.39 LIG 0.27  HD
ATOM     62 HZ2  LYS A 128     -36.393  83.139 206.655  1.00 43.39 LIG 0.27  HD
ATOM     63 HZ3  LYS A 128     -36.377  84.579 206.460  1.00 43.39 LIG 0.27  HD
ENDBRANCH 59 60
ENDBRANCH 58 59
ENDBRANCH 57 58
ENDBRANCH 56 57
ENDBRANCH 54 56
ENDBRANCH 51 54
ENDBRANCH 41 50
ENDBRANCH 39 41
ENDBRANCH 1 37
TORSDOF 29
ENDMDL
MODEL 12
USER: ADFR SOLUTION from run 84
USER: SCORE 17.999397 LL:  -1.415 LR: -19.598 RR:   0.000 FEB: -10.948
USER: RMSD 11.304063
USER: SEED 83
USER: STATUS no improvement in best in 7 clusters for 5 generations
USER: GENES 31
USER: genes 0 Translation |==|  0.47964 0.64627 0.45970
USER: genes 1 Rotation |==|  0.97029 0.35307 0.58494 0.50529
USER: genes 2 Torsion [C]-CA--CB-[CG] |==|  0.41250
USER: genes 3 Torsion [CA]-CB--CG-[CD] |==|  0.67625
USER: genes 4 Torsion [CB]-CG--CD-[NE] |==|  0.77638
USER: genes 5 Torsion [CG]-CD--NE-[HE] |==|  0.00631
USER: genes 6 Torsion [N]-CA--C-[N] |==|  0.68615
USER: genes 7 Torsion [C]-N--CA-[CB] |==|  0.29257
USER: genes 8 Torsion [N]-CA--CB-[CG] |==|  0.02149
USER: genes 9 Torsion [CA]-CB--CG-[CD] |==|  0.46607
USER: genes 10 Torsion [CB]-CG--CD-[CE] |==|  0.51123
USER: genes 11 Torsion [CG]-CD--CE-[NZ] |==|  0.31593
USER: genes 12 Torsion [CD]-CE--NZ-[HZ2] |==|  0.62896
USER: genes 13 Torsion [N]-CA--C-[N] |==|  0.61341
USER: genes 14 Torsion [C]-N--CA-[CB] |==|  0.29112
USER: genes 15 Torsion [N]-CA--C-[O] |==|  0.01586
USER: genes 16 Torsion [N]-CA--CB-[CG1] |==|  0.03019
USER: genes 17 Torsion [CB]-CA--N-[C] |==|  0.79442
USER: genes 18 Torsion [N]-C--CA-[N] |==|  0.02930
USER: genes 19 Torsion [C]-CA--CB-[CG] |==|  0.35734
USER: genes 20 Torsion [CA]-CB--CG-[CD] |==|  0.94246
USER: genes 21 Torsion [CB]-CG--CD-[CE] |==|  0.44386
USER: genes 22 Torsion [CG]-CD--CE-[NZ] |==|  0.42559
USER: genes 23 Torsion [CD]-CE--NZ-[HZ1] |==|  0.29887
USER: genes 24 Torsion [C]-CA--N-[C] |==|  0.67218
USER: genes 25 Torsion [N]-C--CA-[N] |==|  0.39589
USER: genes 26 Torsion [C]-CA--CB-[CG] |==|  0.63936
USER: genes 27 Torsion [CA]-CB--CG-[CD] |==|  0.68154
USER: genes 28 Torsion [CB]-CG--CD-[CE] |==|  0.58899
USER: genes 29 Torsion [CG]-CD--CE-[NZ] |==|  0.21214
USER: genes 30 Torsion [CD]-CE--NZ-[HZ2] |==|  0.99749
ROOT
ATOM      1  CA  ARG A 130     -31.253  90.408 201.774  1.00 33.49 LIG 0.18  C 
ENDROOT
BRANCH 1 2
ATOM      2  CB  ARG A 130     -30.234  90.579 202.902  1.00 35.16 LIG 0.04  C 
BRANCH 2 3
ATOM      3  CG  ARG A 130     -30.772  90.377 204.304  1.00 39.71 LIG 0.02  C 
BRANCH 3 4
ATOM      4  CD  ARG A 130     -30.664  91.674 205.103  1.00 38.05 LIG 0.14  C 
BRANCH 4 5
ATOM      5  NE  ARG A 130     -29.313  91.881 205.627  1.00 39.97 LIG-0.23  N 
ATOM      6 HE   ARG A 130     -28.712  91.299 205.426  1.00 39.97 LIG 0.18  HD
ATOM      7  CZ  ARG A 130     -28.951  92.906 206.393  1.00 35.35 LIG 0.67  C 
ATOM      8  NH1 ARG A 130     -29.840  93.826 206.746  1.00 35.08 LIG-0.23  N 
ATOM      9  NH2 ARG A 130     -27.699  93.008 206.815  1.00 36.08 LIG-0.23  N 
ATOM     10 2HH1 ARG A 130     -29.600  94.486 207.242  1.00 35.08 LIG 0.17  HD
ATOM     11 1HH1 ARG A 130     -30.655  93.761 206.480  1.00 35.08 LIG 0.17  HD
ATOM     12 1HH2 ARG A 130     -27.122  92.411 206.594  1.00 36.08 LIG 0.17  HD
ATOM     13 2HH2 ARG A 130     -27.465  93.671 207.310  1.00 36.08 LIG 0.17  HD
ENDBRANCH 4 5
ENDBRANCH 3 4
ENDBRANCH 2 3
ENDBRANCH 1 2
BRANCH 1 14
ATOM     14  C   ARG A 130     -30.877  91.329 200.628  1.00 35.02 LIG 0.24  C 
ATOM     15  N   LYS A 131     -29.690  91.924 200.698  1.00 32.29 LIG-0.35  N 
ATOM     16 H    LYS A 131     -29.142  91.841 201.355  1.00 32.29 LIG 0.16  HD
ATOM     17 O    ARG A 130     -31.642  91.487 199.680  1.00 31.53 LIG-0.27  OA
BRANCH 15 18
ATOM     18  CA  LYS A 131     -29.232  92.788 199.621  1.00 31.30 LIG 0.18  C 
BRANCH 18 19
ATOM     19  CB  LYS A 131     -29.326  94.263 200.045  1.00 33.79 LIG 0.04  C 
BRANCH 19 20
ATOM     20  CG  LYS A 131     -29.685  94.398 201.519  1.00 34.08 LIG 0.00  C 
BRANCH 20 21
ATOM     21  CD  LYS A 131     -29.512  95.780 202.064  1.00 36.35 LIG 0.03  C 
BRANCH 21 22
ATOM     22  CE  LYS A 131     -29.798  95.800 203.560  1.00 32.79 LIG 0.23  C 
BRANCH 22 23
ATOM     23  NZ  LYS A 131     -28.568  96.108 204.344  1.00 29.22 LIG-0.08  N 
ATOM     24 HZ3  LYS A 131     -27.853  96.032 203.819  1.00 29.22 LIG 0.27  HD
ATOM     25 HZ2  LYS A 131     -28.498  95.537 205.023  1.00 29.22 LIG 0.27  HD
ATOM     26 HZ1  LYS A 131     -28.616  96.938 204.659  1.00 29.22 LIG 0.27  HD
ENDBRANCH 22 23
ENDBRANCH 21 22
ENDBRANCH 20 21
ENDBRANCH 19 20
ENDBRANCH 18 19
BRANCH 18 27
ATOM     27  C   LYS A 131     -27.810  92.410 199.216  1.00 34.74 LIG 0.24  C 
ATOM     28  N   VAL A 132     -26.977  93.414 198.959  1.00 33.85 LIG-0.35  N 
ATOM     29 H    VAL A 132     -27.200  94.245 198.987  1.00 33.85 LIG 0.16  HD
ATOM     30 O    LYS A 131     -27.484  91.227 199.106  1.00 35.56 LIG-0.27  OA
BRANCH 28 31
ATOM     31  CA  VAL A 132     -25.582  93.171 198.600  1.00 36.14 LIG 0.17  C 
BRANCH 31 32
ATOM     32  C   VAL A 132     -24.626  94.070 199.388  1.00 41.88 LIG 0.22  C 
ATOM     33 O    VAL A 132     -25.060  94.801 200.285  1.00 46.22 LIG-0.29  OA
ENDBRANCH 31 32
BRANCH 31 34
ATOM     34  CB  VAL A 132     -25.340  93.389 197.088  1.00 35.83 LIG 0.01  C 
ATOM     35  CG1 VAL A 132     -26.554  94.052 196.445  1.00 39.48 LIG 0.01  C 
ATOM     36  CG2 VAL A 132     -24.106  94.230 196.865  1.00 35.02 LIG 0.01  C 
ENDBRANCH 31 34
ENDBRANCH 28 31
ENDBRANCH 18 27
ENDBRANCH 15 18
ENDBRANCH 1 14
BRANCH 1 37
ATOM     37  N   ARG A 130     -31.327  89.017 201.324  1.00 35.65 LIG-0.35  N 
ATOM     38 H    ARG A 130     -32.036  88.602 201.579  1.00 35.65 LIG 0.16  HD
ATOM     39  C   LYS A 129     -30.370  88.462 200.585  1.00 38.36 LIG 0.24  C 
ATOM     40 O    LYS A 129     -29.383  89.080 200.202  1.00 38.91 LIG-0.27  OA
BRANCH 39 41
ATOM     41  CA  LYS A 129     -30.546  86.986 200.233  1.00 41.62 LIG 0.18  C 
BRANCH 41 42
ATOM     42  CB  LYS A 129     -30.264  86.781 198.746  1.00 37.07 LIG 0.04  C 
BRANCH 42 43
ATOM     43  CG  LYS A 129     -29.267  85.676 198.433  1.00 37.25 LIG 0.00  C 
BRANCH 43 44
ATOM     44  CD  LYS A 129     -28.384  85.341 199.634  1.00 32.25 LIG 0.03  C 
BRANCH 44 45
ATOM     45  CE  LYS A 129     -27.776  83.955 199.465  1.00 33.17 LIG 0.23  C 
BRANCH 45 46
ATOM     46  NZ  LYS A 129     -26.475  83.788 200.187  1.00 31.02 LIG-0.08  N 
ATOM     47 HZ2  LYS A 129     -25.878  83.417 199.641  1.00 31.02 LIG 0.27  HD
ATOM     48 HZ3  LYS A 129     -26.178  84.584 200.452  1.00 31.02 LIG 0.27  HD
ATOM     49 HZ1  LYS A 129     -26.593  83.264 200.897  1.00 31.02 LIG 0.27  HD
ENDBRANCH 45 46
ENDBRANCH 44 45
ENDBRANCH 43 44
ENDBRANCH 42 43
ENDBRANCH 41 42
BRANCH 41 50
ATOM     50  N   LYS A 129     -31.879  86.490 200.572  1.00 48.91 LIG-0.35  N 
ATOM     51  C   LYS A 128     -32.061  85.514 201.462  1.00 46.33 LIG 0.26  C 
ATOM     52 O    LYS A 128     -31.139  85.009 202.100  1.00 48.39 LIG-0.27  OA
ATOM     53 H    LYS A 129     -32.520  86.879 200.152  1.00 48.91 LIG 0.16  HD
BRANCH 51 54
ATOM     54  CA  LYS A 128     -33.501  85.046 201.674  1.00 52.62 LIG 0.40  C 
ATOM     55  N   LYS A 128     -33.553  83.606 201.877  1.00 52.42 LIG 0.61  N 
BRANCH 54 56
ATOM     56  CB  LYS A 128     -34.127  85.780 202.867  1.00 53.69 LIG 0.05  C 
BRANCH 56 57
ATOM     57  CG  LYS A 128     -34.796  84.866 203.885  1.00 48.68 LIG 0.00  C 
BRANCH 57 58
ATOM     58  CD  LYS A 128     -36.296  85.102 203.937  1.00 52.15 LIG 0.03  C 
BRANCH 58 59
ATOM     59  CE  LYS A 128     -36.830  84.858 205.339  1.00 44.05 LIG 0.23  C 
BRANCH 59 60
ATOM     60  NZ  LYS A 128     -36.526  85.972 206.288  1.00 43.39 LIG-0.08  N 
ATOM     61 HZ1  LYS A 128     -36.050  85.659 206.971  1.00 43.39 LIG 0.27  HD
ATOM     62 HZ2  LYS A 128     -36.060  86.603 205.866  1.00 43.39 LIG 0.27  HD
ATOM     63 HZ3  LYS A 128     -37.286  86.319 206.592  1.00 43.39 LIG 0.27  HD
ENDBRANCH 59 60
ENDBRANCH 58 59
ENDBRANCH 57 58
ENDBRANCH 56 57
ENDBRANCH 54 56
ENDBRANCH 51 54
ENDBRANCH 41 50
ENDBRANCH 39 41
ENDBRANCH 1 37
TORSDOF 29
ENDMDL
MODEL 13
USER: ADFR SOLUTION from run 168
USER: SCORE 18.665299 LL:  -1.216 LR: -19.570 RR:   0.000 FEB: -10.919
USER: RMSD 3.255511
USER: SEED 167
USER: STATUS 1 or 2 clusters left
USER: GENES 31
USER: genes 0 Translation |==|  0.45281 0.49468 0.43959
USER: genes 1 Rotation |==|  0.48579 0.47180 0.52185 0.99852
USER: genes 2 Torsion [C]-CA--CB-[CG] |==|  0.20887
USER: genes 3 Torsion [CA]-CB--CG-[CD] |==|  0.40467
USER: genes 4 Torsion [CB]-CG--CD-[NE] |==|  0.13379
USER: genes 5 Torsion [CG]-CD--NE-[HE] |==|  0.76714
USER: genes 6 Torsion [N]-CA--C-[N] |==|  0.25489
USER: genes 7 Torsion [C]-N--CA-[CB] |==|  0.47794
USER: genes 8 Torsion [N]-CA--CB-[CG] |==|  0.65016
USER: genes 9 Torsion [CA]-CB--CG-[CD] |==|  0.74802
USER: genes 10 Torsion [CB]-CG--CD-[CE] |==|  0.29010
USER: genes 11 Torsion [CG]-CD--CE-[NZ] |==|  0.21193
USER: genes 12 Torsion [CD]-CE--NZ-[HZ2] |==|  0.90652
USER: genes 13 Torsion [N]-CA--C-[N] |==|  0.49444
USER: genes 14 Torsion [C]-N--CA-[CB] |==|  0.33165
USER: genes 15 Torsion [N]-CA--C-[O] |==|  0.18039
USER: genes 16 Torsion [N]-CA--CB-[CG1] |==|  0.28583
USER: genes 17 Torsion [CB]-CA--N-[C] |==|  0.50406
USER: genes 18 Torsion [N]-C--CA-[N] |==|  0.48726
USER: genes 19 Torsion [C]-CA--CB-[CG] |==|  0.42811
USER: genes 20 Torsion [CA]-CB--CG-[CD] |==|  0.31543
USER: genes 21 Torsion [CB]-CG--CD-[CE] |==|  0.60262
USER: genes 22 Torsion [CG]-CD--CE-[NZ] |==|  0.44964
USER: genes 23 Torsion [CD]-CE--NZ-[HZ1] |==|  0.09418
USER: genes 24 Torsion [C]-CA--N-[C] |==|  0.66873
USER: genes 25 Torsion [N]-C--CA-[N] |==|  0.89901
USER: genes 26 Torsion [C]-CA--CB-[CG] |==|  0.24762
USER: genes 27 Torsion [CA]-CB--CG-[CD] |==|  0.76244
USER: genes 28 Torsion [CB]-CG--CD-[CE] |==|  0.50327
USER: genes 29 Torsion [CG]-CD--CE-[NZ] |==|  0.40076
USER: genes 30 Torsion [CD]-CE--NZ-[HZ2] |==|  0.32277
ROOT
ATOM      1  CA  ARG A 130     -31.836  86.656 201.427  1.00 33.49 LIG 0.18  C 
ENDROOT
BRANCH 1 2
ATOM      2  CB  ARG A 130     -30.634  85.919 200.835  1.00 35.16 LIG 0.04  C 
BRANCH 2 3
ATOM      3  CG  ARG A 130     -30.966  84.788 199.882  1.00 39.71 LIG 0.02  C 
BRANCH 3 4
ATOM      4  CD  ARG A 130     -29.915  84.701 198.778  1.00 38.05 LIG 0.14  C 
BRANCH 4 5
ATOM      5  NE  ARG A 130     -28.554  84.735 199.317  1.00 39.97 LIG-0.23  N 
ATOM      6 HE   ARG A 130     -28.209  85.505 199.485  1.00 39.97 LIG 0.18  HD
ATOM      7  CZ  ARG A 130     -27.816  83.658 199.565  1.00 35.35 LIG 0.67  C 
ATOM      8  NH1 ARG A 130     -28.292  82.445 199.312  1.00 35.08 LIG-0.23  N 
ATOM      9  NH2 ARG A 130     -26.594  83.791 200.059  1.00 36.08 LIG-0.23  N 
ATOM     10 2HH1 ARG A 130     -27.810  81.752 199.475  1.00 35.08 LIG 0.17  HD
ATOM     11 1HH1 ARG A 130     -29.082  82.353 198.986  1.00 35.08 LIG 0.17  HD
ATOM     12 1HH2 ARG A 130     -26.278  84.574 200.219  1.00 36.08 LIG 0.17  HD
ATOM     13 2HH2 ARG A 130     -26.116  83.094 200.220  1.00 36.08 LIG 0.17  HD
ENDBRANCH 4 5
ENDBRANCH 3 4
ENDBRANCH 2 3
ENDBRANCH 1 2
BRANCH 1 14
ATOM     14  C   ARG A 130     -32.472  85.785 202.494  1.00 35.02 LIG 0.24  C 
ATOM     15  N   LYS A 131     -33.794  85.847 202.614  1.00 32.29 LIG-0.35  N 
ATOM     16 H    LYS A 131     -34.302  86.362 202.148  1.00 32.29 LIG 0.16  HD
ATOM     17 O    ARG A 130     -31.778  85.049 203.191  1.00 31.53 LIG-0.27  OA
BRANCH 15 18
ATOM     18  CA  LYS A 131     -34.489  85.012 203.581  1.00 31.30 LIG 0.18  C 
BRANCH 18 19
ATOM     19  CB  LYS A 131     -35.972  85.411 203.660  1.00 33.79 LIG 0.04  C 
BRANCH 19 20
ATOM     20  CG  LYS A 131     -36.391  85.721 205.091  1.00 34.08 LIG 0.00  C 
BRANCH 20 21
ATOM     21  CD  LYS A 131     -36.917  84.539 205.842  1.00 36.35 LIG 0.03  C 
BRANCH 21 22
ATOM     22  CE  LYS A 131     -35.877  84.034 206.833  1.00 32.79 LIG 0.23  C 
BRANCH 22 23
ATOM     23  NZ  LYS A 131     -35.798  84.913 208.034  1.00 29.22 LIG-0.08  N 
ATOM     24 HZ3  LYS A 131     -36.406  84.656 208.631  1.00 29.22 LIG 0.27  HD
ATOM     25 HZ2  LYS A 131     -35.955  85.756 207.795  1.00 29.22 LIG 0.27  HD
ATOM     26 HZ1  LYS A 131     -34.986  84.854 208.393  1.00 29.22 LIG 0.27  HD
ENDBRANCH 22 23
ENDBRANCH 21 22
ENDBRANCH 20 21
ENDBRANCH 19 20
ENDBRANCH 18 19
BRANCH 18 27
ATOM     27  C   LYS A 131     -34.324  83.540 203.217  1.00 34.74 LIG 0.24  C 
ATOM     28  N   VAL A 132     -34.876  82.655 204.042  1.00 33.85 LIG-0.35  N 
ATOM     29 H    VAL A 132     -35.293  82.865 204.765  1.00 33.85 LIG 0.16  HD
ATOM     30 O    LYS A 131     -33.676  83.210 202.222  1.00 35.56 LIG-0.27  OA
BRANCH 28 31
ATOM     31  CA  VAL A 132     -34.813  81.221 203.772  1.00 36.14 LIG 0.17  C 
BRANCH 31 32
ATOM     32  C   VAL A 132     -36.206  80.613 203.597  1.00 41.88 LIG 0.22  C 
ATOM     33 O    VAL A 132     -36.917  80.953 202.645  1.00 46.22 LIG-0.29  OA
ENDBRANCH 31 32
BRANCH 31 34
ATOM     34  CB  VAL A 132     -34.076  80.464 204.901  1.00 35.83 LIG 0.01  C 
ATOM     35  CG1 VAL A 132     -35.076  79.750 205.804  1.00 39.48 LIG 0.01  C 
ATOM     36  CG2 VAL A 132     -33.094  79.475 204.322  1.00 35.02 LIG 0.01  C 
ENDBRANCH 31 34
ENDBRANCH 28 31
ENDBRANCH 18 27
ENDBRANCH 15 18
ENDBRANCH 1 14
BRANCH 1 37
ATOM     37  N   ARG A 130     -31.450  87.957 201.975  1.00 35.65 LIG-0.35  N 
ATOM     38 H    ARG A 130     -30.618  88.147 201.879  1.00 35.65 LIG 0.16  HD
ATOM     39  C   LYS A 129     -32.328  88.763 202.568  1.00 38.36 LIG 0.24  C 
ATOM     40 O    LYS A 129     -33.520  88.489 202.667  1.00 38.91 LIG-0.27  OA
BRANCH 39 41
ATOM     41  CA  LYS A 129     -31.782  90.065 203.148  1.00 41.62 LIG 0.18  C 
BRANCH 41 42
ATOM     42  CB  LYS A 129     -30.758  89.748 204.235  1.00 37.07 LIG 0.04  C 
BRANCH 42 43
ATOM     43  CG  LYS A 129     -29.714  90.831 204.462  1.00 37.25 LIG 0.00  C 
BRANCH 43 44
ATOM     44  CD  LYS A 129     -29.849  91.479 205.839  1.00 32.25 LIG 0.03  C 
BRANCH 44 45
ATOM     45  CE  LYS A 129     -29.543  92.969 205.745  1.00 33.17 LIG 0.23  C 
BRANCH 45 46
ATOM     46  NZ  LYS A 129     -30.057  93.752 206.914  1.00 31.02 LIG-0.08  N 
ATOM     47 HZ2  LYS A 129     -29.565  94.485 207.020  1.00 31.02 LIG 0.27  HD
ATOM     48 HZ3  LYS A 129     -30.904  93.982 206.768  1.00 31.02 LIG 0.27  HD
ATOM     49 HZ1  LYS A 129     -30.009  93.253 207.650  1.00 31.02 LIG 0.27  HD
ENDBRANCH 45 46
ENDBRANCH 44 45
ENDBRANCH 43 44
ENDBRANCH 42 43
ENDBRANCH 41 42
BRANCH 41 50
ATOM     50  N   LYS A 129     -32.840  90.923 203.680  1.00 48.91 LIG-0.35  N 
ATOM     51  C   LYS A 128     -33.064  92.145 203.196  1.00 46.33 LIG 0.26  C 
ATOM     52 O    LYS A 128     -32.448  92.611 202.240  1.00 48.39 LIG-0.27  OA
ATOM     53 H    LYS A 129     -33.293  90.572 204.320  1.00 48.91 LIG 0.16  HD
BRANCH 51 54
ATOM     54  CA  LYS A 128     -34.158  92.960 203.887  1.00 52.62 LIG 0.40  C 
ATOM     55  N   LYS A 128     -35.259  92.102 204.300  1.00 52.42 LIG 0.61  N 
BRANCH 54 56
ATOM     56  CB  LYS A 128     -33.580  93.710 205.094  1.00 53.69 LIG 0.05  C 
BRANCH 56 57
ATOM     57  CG  LYS A 128     -33.031  95.093 204.770  1.00 48.68 LIG 0.00  C 
BRANCH 57 58
ATOM     58  CD  LYS A 128     -31.593  95.017 204.288  1.00 52.15 LIG 0.03  C 
BRANCH 58 59
ATOM     59  CE  LYS A 128     -31.050  96.407 203.996  1.00 44.05 LIG 0.23  C 
BRANCH 59 60
ATOM     60  NZ  LYS A 128     -29.604  96.560 204.344  1.00 43.39 LIG-0.08  N 
ATOM     61 HZ1  LYS A 128     -29.309  95.811 204.723  1.00 43.39 LIG 0.27  HD
ATOM     62 HZ2  LYS A 128     -29.136  96.723 203.604  1.00 43.39 LIG 0.27  HD
ATOM     63 HZ3  LYS A 128     -29.506  97.238 204.912  1.00 43.39 LIG 0.27  HD
ENDBRANCH 59 60
ENDBRANCH 58 59
ENDBRANCH 57 58
ENDBRANCH 56 57
ENDBRANCH 54 56
ENDBRANCH 51 54
ENDBRANCH 41 50
ENDBRANCH 39 41
ENDBRANCH 1 37
TORSDOF 29
ENDMDL
MODEL 14
USER: ADFR SOLUTION from run 64
USER: SCORE 18.660668 LL:  -1.378 LR: -19.524 RR:   0.000 FEB: -10.873
USER: RMSD 8.971318
USER: SEED 63
USER: STATUS no improvement in best in 2 clusters for 5 generations
USER: GENES 31
USER: genes 0 Translation |==|  0.43031 0.58215 0.55414
USER: genes 1 Rotation |==|  0.01067 0.44768 0.57093 0.55282
USER: genes 2 Torsion [C]-CA--CB-[CG] |==|  0.96469
USER: genes 3 Torsion [CA]-CB--CG-[CD] |==|  0.52399
USER: genes 4 Torsion [CB]-CG--CD-[NE] |==|  0.75031
USER: genes 5 Torsion [CG]-CD--NE-[HE] |==|  0.09805
USER: genes 6 Torsion [N]-CA--C-[N] |==|  0.41231
USER: genes 7 Torsion [C]-N--CA-[CB] |==|  0.35286
USER: genes 8 Torsion [N]-CA--CB-[CG] |==|  0.89149
USER: genes 9 Torsion [CA]-CB--CG-[CD] |==|  0.26509
USER: genes 10 Torsion [CB]-CG--CD-[CE] |==|  0.04407
USER: genes 11 Torsion [CG]-CD--CE-[NZ] |==|  0.49509
USER: genes 12 Torsion [CD]-CE--NZ-[HZ2] |==|  0.84055
USER: genes 13 Torsion [N]-CA--C-[N] |==|  0.92757
USER: genes 14 Torsion [C]-N--CA-[CB] |==|  0.76146
USER: genes 15 Torsion [N]-CA--C-[O] |==|  0.37755
USER: genes 16 Torsion [N]-CA--CB-[CG1] |==|  0.08845
USER: genes 17 Torsion [CB]-CA--N-[C] |==|  0.47323
USER: genes 18 Torsion [N]-C--CA-[N] |==|  0.95896
USER: genes 19 Torsion [C]-CA--CB-[CG] |==|  0.40878
USER: genes 20 Torsion [CA]-CB--CG-[CD] |==|  0.23813
USER: genes 21 Torsion [CB]-CG--CD-[CE] |==|  0.35879
USER: genes 22 Torsion [CG]-CD--CE-[NZ] |==|  0.49282
USER: genes 23 Torsion [CD]-CE--NZ-[HZ1] |==|  0.55104
USER: genes 24 Torsion [C]-CA--N-[C] |==|  0.76002
USER: genes 25 Torsion [N]-C--CA-[N] |==|  0.56173
USER: genes 26 Torsion [C]-CA--CB-[CG] |==|  0.29279
USER: genes 27 Torsion [CA]-CB--CG-[CD] |==|  0.82430
USER: genes 28 Torsion [CB]-CG--CD-[CE] |==|  0.37062
USER: genes 29 Torsion [CG]-CD--CE-[NZ] |==|  0.27915
USER: genes 30 Torsion [CD]-CE--NZ-[HZ2] |==|  0.77257
ROOT
ATOM      1  CA  ARG A 130     -32.326  88.821 203.403  1.00 33.49 LIG 0.18  C 
ENDROOT
BRANCH 1 2
ATOM      2  CB  ARG A 130     -31.244  89.697 204.037  1.00 35.16 LIG 0.04  C 
BRANCH 2 3
ATOM      3  CG  ARG A 130     -31.261  91.156 203.628  1.00 39.71 LIG 0.02  C 
BRANCH 3 4
ATOM      4  CD  ARG A 130     -30.017  91.867 204.156  1.00 38.05 LIG 0.14  C 
BRANCH 4 5
ATOM      5  NE  ARG A 130     -30.235  92.431 205.488  1.00 39.97 LIG-0.23  N 
ATOM      6 HE   ARG A 130     -30.740  91.994 206.031  1.00 39.97 LIG 0.18  HD
ATOM      7  CZ  ARG A 130     -29.707  93.573 205.918  1.00 35.35 LIG 0.67  C 
ATOM      8  NH1 ARG A 130     -28.933  94.297 205.120  1.00 35.08 LIG-0.23  N 
ATOM      9  NH2 ARG A 130     -29.961  94.000 207.147  1.00 36.08 LIG-0.23  N 
ATOM     10 2HH1 ARG A 130     -28.594  95.035 205.404  1.00 35.08 LIG 0.17  HD
ATOM     11 1HH1 ARG A 130     -28.769  94.028 204.320  1.00 35.08 LIG 0.17  HD
ATOM     12 1HH2 ARG A 130     -30.468  93.538 207.666  1.00 36.08 LIG 0.17  HD
ATOM     13 2HH2 ARG A 130     -29.620  94.739 207.425  1.00 36.08 LIG 0.17  HD
ENDBRANCH 4 5
ENDBRANCH 3 4
ENDBRANCH 2 3
ENDBRANCH 1 2
BRANCH 1 14
ATOM     14  C   ARG A 130     -33.359  89.715 202.743  1.00 35.02 LIG 0.24  C 
ATOM     15  N   LYS A 131     -34.370  90.127 203.500  1.00 32.29 LIG-0.35  N 
ATOM     16 H    LYS A 131     -34.488  89.901 204.321  1.00 32.29 LIG 0.16  HD
ATOM     17 O    ARG A 130     -33.235  90.046 201.567  1.00 31.53 LIG-0.27  OA
BRANCH 15 18
ATOM     18  CA  LYS A 131     -35.381  91.023 202.960  1.00 31.30 LIG 0.18  C 
BRANCH 18 19
ATOM     19  CB  LYS A 131     -36.786  90.440 203.188  1.00 33.79 LIG 0.04  C 
BRANCH 19 20
ATOM     20  CG  LYS A 131     -36.805  88.932 202.981  1.00 34.08 LIG 0.00  C 
BRANCH 20 21
ATOM     21  CD  LYS A 131     -36.648  88.141 204.242  1.00 36.35 LIG 0.03  C 
BRANCH 21 22
ATOM     22  CE  LYS A 131     -36.897  89.025 205.457  1.00 32.79 LIG 0.23  C 
BRANCH 22 23
ATOM     23  NZ  LYS A 131     -36.787  88.249 206.725  1.00 29.22 LIG-0.08  N 
ATOM     24 HZ3  LYS A 131     -35.960  87.933 206.809  1.00 29.22 LIG 0.27  HD
ATOM     25 HZ2  LYS A 131     -37.363  87.571 206.708  1.00 29.22 LIG 0.27  HD
ATOM     26 HZ1  LYS A 131     -36.974  88.779 207.415  1.00 29.22 LIG 0.27  HD
ENDBRANCH 22 23
ENDBRANCH 21 22
ENDBRANCH 20 21
ENDBRANCH 19 20
ENDBRANCH 18 19
BRANCH 18 27
ATOM     27  C   LYS A 131     -35.241  92.408 203.584  1.00 34.74 LIG 0.24  C 
ATOM     28  N   VAL A 132     -34.688  92.464 204.792  1.00 33.85 LIG-0.35  N 
ATOM     29 H    VAL A 132     -34.431  91.774 205.237  1.00 33.85 LIG 0.16  HD
ATOM     30 O    LYS A 131     -35.659  93.406 202.994  1.00 35.56 LIG-0.27  OA
BRANCH 28 31
ATOM     31  CA  VAL A 132     -34.469  93.740 205.469  1.00 36.14 LIG 0.17  C 
BRANCH 31 32
ATOM     32  C   VAL A 132     -35.598  94.734 205.190  1.00 41.88 LIG 0.22  C 
ATOM     33 O    VAL A 132     -36.074  95.408 206.110  1.00 46.22 LIG-0.29  OA
ENDBRANCH 31 32
BRANCH 31 34
ATOM     34  CB  VAL A 132     -33.124  94.380 205.052  1.00 35.83 LIG 0.01  C 
ATOM     35  CG1 VAL A 132     -32.789  94.018 203.608  1.00 39.48 LIG 0.01  C 
ATOM     36  CG2 VAL A 132     -33.178  95.879 205.216  1.00 35.02 LIG 0.01  C 
ENDBRANCH 31 34
ENDBRANCH 28 31
ENDBRANCH 18 27
ENDBRANCH 15 18
ENDBRANCH 1 14
BRANCH 1 37
ATOM     37  N   ARG A 130     -31.756  87.879 202.438  1.00 35.65 LIG-0.35  N 
ATOM     38 H    ARG A 130     -30.928  88.021 202.254  1.00 35.65 LIG 0.16  HD
ATOM     39  C   LYS A 129     -32.474  86.895 201.903  1.00 38.36 LIG 0.24  C 
ATOM     40 O    LYS A 129     -33.645  86.688 202.203  1.00 38.91 LIG-0.27  OA
BRANCH 39 41
ATOM     41  CA  LYS A 129     -31.773  86.021 200.866  1.00 41.62 LIG 0.18  C 
BRANCH 41 42
ATOM     42  CB  LYS A 129     -31.498  84.643 201.465  1.00 37.07 LIG 0.04  C 
BRANCH 42 43
ATOM     43  CG  LYS A 129     -31.557  83.493 200.471  1.00 37.25 LIG 0.00  C 
BRANCH 43 44
ATOM     44  CD  LYS A 129     -30.226  83.286 199.752  1.00 32.25 LIG 0.03  C 
BRANCH 44 45
ATOM     45  CE  LYS A 129     -29.809  81.823 199.838  1.00 33.17 LIG 0.23  C 
BRANCH 45 46
ATOM     46  NZ  LYS A 129     -28.539  81.526 199.102  1.00 31.02 LIG-0.08  N 
ATOM     47 HZ2  LYS A 129     -28.539  81.959 198.325  1.00 31.02 LIG 0.27  HD
ATOM     48 HZ3  LYS A 129     -27.844  81.792 199.590  1.00 31.02 LIG 0.27  HD
ATOM     49 HZ1  LYS A 129     -28.479  80.650 198.954  1.00 31.02 LIG 0.27  HD
ENDBRANCH 45 46
ENDBRANCH 44 45
ENDBRANCH 43 44
ENDBRANCH 42 43
ENDBRANCH 41 42
BRANCH 41 50
ATOM     50  N   LYS A 129     -30.531  86.622 200.382  1.00 48.91 LIG-0.35  N 
ATOM     51  C   LYS A 128     -30.517  87.486 199.366  1.00 46.33 LIG 0.26  C 
ATOM     52 O    LYS A 128     -31.540  87.883 198.811  1.00 48.39 LIG-0.27  OA
ATOM     53 H    LYS A 129     -29.826  86.371 200.805  1.00 48.91 LIG 0.16  HD
BRANCH 51 54
ATOM     54  CA  LYS A 128     -29.144  87.989 198.919  1.00 52.62 LIG 0.40  C 
ATOM     55  N   LYS A 128     -29.261  89.256 198.212  1.00 52.42 LIG 0.61  N 
BRANCH 54 56
ATOM     56  CB  LYS A 128     -28.212  88.133 200.129  1.00 53.69 LIG 0.05  C 
BRANCH 56 57
ATOM     57  CG  LYS A 128     -27.152  87.046 200.238  1.00 48.68 LIG 0.00  C 
BRANCH 57 58
ATOM     58  CD  LYS A 128     -27.782  85.679 200.440  1.00 52.15 LIG 0.03  C 
BRANCH 58 59
ATOM     59  CE  LYS A 128     -27.150  84.654 199.513  1.00 44.05 LIG 0.23  C 
BRANCH 59 60
ATOM     60  NZ  LYS A 128     -26.133  83.793 200.191  1.00 43.39 LIG-0.08  N 
ATOM     61 HZ1  LYS A 128     -26.029  83.038 199.732  1.00 43.39 LIG 0.27  HD
ATOM     62 HZ2  LYS A 128     -25.356  84.226 200.229  1.00 43.39 LIG 0.27  HD
ATOM     63 HZ3  LYS A 128     -26.407  83.603 201.016  1.00 43.39 LIG 0.27  HD
ENDBRANCH 59 60
ENDBRANCH 58 59
ENDBRANCH 57 58
ENDBRANCH 56 57
ENDBRANCH 54 56
ENDBRANCH 51 54
ENDBRANCH 41 50
ENDBRANCH 39 41
ENDBRANCH 1 37
TORSDOF 29
ENDMDL
MODEL 15
USER: ADFR SOLUTION from run 132
USER: SCORE 20.481939 LL:  -1.937 LR: -19.480 RR:   0.000 FEB: -10.829
USER: RMSD 8.808087
USER: SEED 131
USER: STATUS no improvement in best in 2 clusters for 5 generations
USER: GENES 31
USER: genes 0 Translation |==|  0.47952 0.62713 0.57547
USER: genes 1 Rotation |==|  0.04429 0.52181 0.69999 0.54309
USER: genes 2 Torsion [C]-CA--CB-[CG] |==|  0.12957
USER: genes 3 Torsion [CA]-CB--CG-[CD] |==|  0.18909
USER: genes 4 Torsion [CB]-CG--CD-[NE] |==|  0.39091
USER: genes 5 Torsion [CG]-CD--NE-[HE] |==|  0.75422
USER: genes 6 Torsion [N]-CA--C-[N] |==|  0.40900
USER: genes 7 Torsion [C]-N--CA-[CB] |==|  0.78886
USER: genes 8 Torsion [N]-CA--CB-[CG] |==|  0.76790
USER: genes 9 Torsion [CA]-CB--CG-[CD] |==|  0.45615
USER: genes 10 Torsion [CB]-CG--CD-[CE] |==|  0.79829
USER: genes 11 Torsion [CG]-CD--CE-[NZ] |==|  0.61505
USER: genes 12 Torsion [CD]-CE--NZ-[HZ2] |==|  0.29273
USER: genes 13 Torsion [N]-CA--C-[N] |==|  0.15601
USER: genes 14 Torsion [C]-N--CA-[CB] |==|  0.46865
USER: genes 15 Torsion [N]-CA--C-[O] |==|  0.81605
USER: genes 16 Torsion [N]-CA--CB-[CG1] |==|  0.71514
USER: genes 17 Torsion [CB]-CA--N-[C] |==|  0.51787
USER: genes 18 Torsion [N]-C--CA-[N] |==|  0.96803
USER: genes 19 Torsion [C]-CA--CB-[CG] |==|  0.23735
USER: genes 20 Torsion [CA]-CB--CG-[CD] |==|  0.51485
USER: genes 21 Torsion [CB]-CG--CD-[CE] |==|  0.55140
USER: genes 22 Torsion [CG]-CD--CE-[NZ] |==|  0.66917
USER: genes 23 Torsion [CD]-CE--NZ-[HZ1] |==|  0.52524
USER: genes 24 Torsion [C]-CA--N-[C] |==|  0.79297
USER: genes 25 Torsion [N]-C--CA-[N] |==|  0.73627
USER: genes 26 Torsion [C]-CA--CB-[CG] |==|  0.70194
USER: genes 27 Torsion [CA]-CB--CG-[CD] |==|  0.42083
USER: genes 28 Torsion [CB]-CG--CD-[CE] |==|  0.32888
USER: genes 29 Torsion [CG]-CD--CE-[NZ] |==|  0.25193
USER: genes 30 Torsion [CD]-CE--NZ-[HZ2] |==|  0.82729
ROOT
ATOM      1  CA  ARG A 130     -31.255  89.934 203.771  1.00 33.49 LIG 0.18  C 
ENDROOT
BRANCH 1 2
ATOM      2  CB  ARG A 130     -29.870  90.560 203.597  1.00 35.16 LIG 0.04  C 
BRANCH 2 3
ATOM      3  CG  ARG A 130     -29.642  91.859 204.342  1.00 39.71 LIG 0.02  C 
BRANCH 3 4
ATOM      4  CD  ARG A 130     -29.622  91.608 205.849  1.00 38.05 LIG 0.14  C 
BRANCH 4 5
ATOM      5  NE  ARG A 130     -28.602  92.413 206.522  1.00 39.97 LIG-0.23  N 
ATOM      6 HE   ARG A 130     -27.810  92.083 206.588  1.00 39.97 LIG 0.18  HD
ATOM      7  CZ  ARG A 130     -28.815  93.620 207.038  1.00 35.35 LIG 0.67  C 
ATOM      8  NH1 ARG A 130     -30.020  94.173 206.977  1.00 35.08 LIG-0.23  N 
ATOM      9  NH2 ARG A 130     -27.823  94.274 207.625  1.00 36.08 LIG-0.23  N 
ATOM     10 2HH1 ARG A 130     -30.151  94.953 207.313  1.00 35.08 LIG 0.17  HD
ATOM     11 1HH1 ARG A 130     -30.668  93.750 206.603  1.00 35.08 LIG 0.17  HD
ATOM     12 1HH2 ARG A 130     -27.042  93.918 207.673  1.00 36.08 LIG 0.17  HD
ATOM     13 2HH2 ARG A 130     -27.961  95.054 207.959  1.00 36.08 LIG 0.17  HD
ENDBRANCH 4 5
ENDBRANCH 3 4
ENDBRANCH 2 3
ENDBRANCH 1 2
BRANCH 1 14
ATOM     14  C   ARG A 130     -32.308  91.012 203.590  1.00 35.02 LIG 0.24  C 
ATOM     15  N   LYS A 131     -32.681  91.678 204.678  1.00 32.29 LIG-0.35  N 
ATOM     16 H    LYS A 131     -32.386  91.521 205.470  1.00 32.29 LIG 0.16  HD
ATOM     17 O    ARG A 130     -32.766  91.254 202.477  1.00 31.53 LIG-0.27  OA
BRANCH 15 18
ATOM     18  CA  LYS A 131     -33.652  92.758 204.588  1.00 31.30 LIG 0.18  C 
BRANCH 18 19
ATOM     19  CB  LYS A 131     -32.993  94.019 204.005  1.00 33.79 LIG 0.04  C 
BRANCH 19 20
ATOM     20  CG  LYS A 131     -32.269  94.818 205.080  1.00 34.08 LIG 0.00  C 
BRANCH 20 21
ATOM     21  CD  LYS A 131     -31.309  95.832 204.544  1.00 36.35 LIG 0.03  C 
BRANCH 21 22
ATOM     22  CE  LYS A 131     -30.073  95.145 203.978  1.00 32.79 LIG 0.23  C 
BRANCH 22 23
ATOM     23  NZ  LYS A 131     -28.828  95.879 204.344  1.00 29.22 LIG-0.08  N 
ATOM     24 HZ3  LYS A 131     -28.305  95.953 203.628  1.00 29.22 LIG 0.27  HD
ATOM     25 HZ2  LYS A 131     -28.397  95.432 204.981  1.00 29.22 LIG 0.27  HD
ATOM     26 HZ1  LYS A 131     -29.038  96.691 204.642  1.00 29.22 LIG 0.27  HD
ENDBRANCH 22 23
ENDBRANCH 21 22
ENDBRANCH 20 21
ENDBRANCH 19 20
ENDBRANCH 18 19
BRANCH 18 27
ATOM     27  C   LYS A 131     -34.850  92.316 203.754  1.00 34.74 LIG 0.24  C 
ATOM     28  N   VAL A 132     -35.484  91.218 204.156  1.00 33.85 LIG-0.35  N 
ATOM     29 H    VAL A 132     -35.245  90.744 204.833  1.00 33.85 LIG 0.16  HD
ATOM     30 O    LYS A 131     -35.174  92.940 202.743  1.00 35.56 LIG-0.27  OA
BRANCH 28 31
ATOM     31  CA  VAL A 132     -36.667  90.723 203.457  1.00 36.14 LIG 0.17  C 
BRANCH 31 32
ATOM     32  C   VAL A 132     -37.870  91.650 203.646  1.00 41.88 LIG 0.22  C 
ATOM     33 O    VAL A 132     -38.379  91.786 204.764  1.00 46.22 LIG-0.29  OA
ENDBRANCH 31 32
BRANCH 31 34
ATOM     34  CB  VAL A 132     -37.052  89.302 203.930  1.00 35.83 LIG 0.01  C 
ATOM     35  CG1 VAL A 132     -36.609  88.263 202.905  1.00 39.48 LIG 0.01  C 
ATOM     36  CG2 VAL A 132     -36.436  89.006 205.275  1.00 35.02 LIG 0.01  C 
ENDBRANCH 31 34
ENDBRANCH 28 31
ENDBRANCH 18 27
ENDBRANCH 15 18
ENDBRANCH 1 14
BRANCH 1 37
ATOM     37  N   ARG A 130     -31.468  88.832 202.831  1.00 35.65 LIG-0.35  N 
ATOM     38 H    ARG A 130     -30.773  88.622 202.372  1.00 35.65 LIG 0.16  HD
ATOM     39  C   LYS A 129     -32.645  88.222 202.713  1.00 38.36 LIG 0.24  C 
ATOM     40 O    LYS A 129     -33.617  88.514 203.402  1.00 38.91 LIG-0.27  OA
BRANCH 39 41
ATOM     41  CA  LYS A 129     -32.745  87.127 201.654  1.00 41.62 LIG 0.18  C 
BRANCH 41 42
ATOM     42  CB  LYS A 129     -32.900  85.770 202.338  1.00 37.07 LIG 0.04  C 
BRANCH 42 43
ATOM     43  CG  LYS A 129     -34.330  85.399 202.701  1.00 37.25 LIG 0.00  C 
BRANCH 43 44
ATOM     44  CD  LYS A 129     -34.402  84.097 203.495  1.00 32.25 LIG 0.03  C 
BRANCH 44 45
ATOM     45  CE  LYS A 129     -35.815  83.530 203.442  1.00 33.17 LIG 0.23  C 
BRANCH 45 46
ATOM     46  NZ  LYS A 129     -36.456  83.413 204.790  1.00 31.02 LIG-0.08  N 
ATOM     47 HZ2  LYS A 129     -35.907  82.985 205.344  1.00 31.02 LIG 0.27  HD
ATOM     48 HZ3  LYS A 129     -36.624  84.227 205.111  1.00 31.02 LIG 0.27  HD
ATOM     49 HZ1  LYS A 129     -37.219  82.960 204.719  1.00 31.02 LIG 0.27  HD
ENDBRANCH 45 46
ENDBRANCH 44 45
ENDBRANCH 43 44
ENDBRANCH 42 43
ENDBRANCH 41 42
BRANCH 41 50
ATOM     50  N   LYS A 129     -31.591  87.116 200.756  1.00 48.91 LIG-0.35  N 
ATOM     51  C   LYS A 128     -31.430  88.037 199.807  1.00 46.33 LIG 0.26  C 
ATOM     52 O    LYS A 128     -32.196  88.987 199.658  1.00 48.39 LIG-0.27  OA
ATOM     53 H    LYS A 129     -31.039  86.472 200.897  1.00 48.91 LIG 0.16  HD
BRANCH 51 54
ATOM     54  CA  LYS A 128     -30.212  87.870 198.896  1.00 52.62 LIG 0.40  C 
ATOM     55  N   LYS A 128     -29.090  88.659 199.382  1.00 52.42 LIG 0.61  N 
BRANCH 54 56
ATOM     56  CB  LYS A 128     -29.824  86.389 198.796  1.00 53.69 LIG 0.05  C 
BRANCH 56 57
ATOM     57  CG  LYS A 128     -28.552  86.022 199.549  1.00 48.68 LIG 0.00  C 
BRANCH 57 58
ATOM     58  CD  LYS A 128     -28.581  84.574 200.006  1.00 52.15 LIG 0.03  C 
BRANCH 58 59
ATOM     59  CE  LYS A 128     -27.445  83.787 199.373  1.00 44.05 LIG 0.23  C 
BRANCH 59 60
ATOM     60  NZ  LYS A 128     -26.196  83.788 200.195  1.00 43.39 LIG-0.08  N 
ATOM     61 HZ1  LYS A 128     -25.577  83.290 199.796  1.00 43.39 LIG 0.27  HD
ATOM     62 HZ2  LYS A 128     -25.897  84.622 200.280  1.00 43.39 LIG 0.27  HD
ATOM     63 HZ3  LYS A 128     -26.371  83.453 201.001  1.00 43.39 LIG 0.27  HD
ENDBRANCH 59 60
ENDBRANCH 58 59
ENDBRANCH 57 58
ENDBRANCH 56 57
ENDBRANCH 54 56
ENDBRANCH 51 54
ENDBRANCH 41 50
ENDBRANCH 39 41
ENDBRANCH 1 37
TORSDOF 29
ENDMDL
MODEL 16
USER: ADFR SOLUTION from run 66
USER: SCORE 19.264133 LL:  -2.117 LR: -19.473 RR:   0.000 FEB: -10.822
USER: RMSD 8.549814
USER: SEED 65
USER: STATUS no improvement in best in 4 clusters for 5 generations
USER: GENES 31
USER: genes 0 Translation |==|  0.48743 0.67220 0.49849
USER: genes 1 Rotation |==|  0.68247 0.09432 0.56000 0.72029
USER: genes 2 Torsion [C]-CA--CB-[CG] |==|  0.33894
USER: genes 3 Torsion [CA]-CB--CG-[CD] |==|  0.30783
USER: genes 4 Torsion [CB]-CG--CD-[NE] |==|  0.50154
USER: genes 5 Torsion [CG]-CD--NE-[HE] |==|  0.85142
USER: genes 6 Torsion [N]-CA--C-[N] |==|  0.51510
USER: genes 7 Torsion [C]-N--CA-[CB] |==|  0.52813
USER: genes 8 Torsion [N]-CA--CB-[CG] |==|  0.28476
USER: genes 9 Torsion [CA]-CB--CG-[CD] |==|  0.30437
USER: genes 10 Torsion [CB]-CG--CD-[CE] |==|  0.52197
USER: genes 11 Torsion [CG]-CD--CE-[NZ] |==|  0.71512
USER: genes 12 Torsion [CD]-CE--NZ-[HZ2] |==|  0.76354
USER: genes 13 Torsion [N]-CA--C-[N] |==|  0.92134
USER: genes 14 Torsion [C]-N--CA-[CB] |==|  0.29316
USER: genes 15 Torsion [N]-CA--C-[O] |==|  0.19110
USER: genes 16 Torsion [N]-CA--CB-[CG1] |==|  0.38214
USER: genes 17 Torsion [CB]-CA--N-[C] |==|  0.86111
USER: genes 18 Torsion [N]-C--CA-[N] |==|  0.98356
USER: genes 19 Torsion [C]-CA--CB-[CG] |==|  0.42072
USER: genes 20 Torsion [CA]-CB--CG-[CD] |==|  0.91487
USER: genes 21 Torsion [CB]-CG--CD-[CE] |==|  0.77275
USER: genes 22 Torsion [CG]-CD--CE-[NZ] |==|  0.51043
USER: genes 23 Torsion [CD]-CE--NZ-[HZ1] |==|  0.95476
USER: genes 24 Torsion [C]-CA--N-[C] |==|  0.71960
USER: genes 25 Torsion [N]-C--CA-[N] |==|  0.15708
USER: genes 26 Torsion [C]-CA--CB-[CG] |==|  0.62054
USER: genes 27 Torsion [CA]-CB--CG-[CD] |==|  0.35254
USER: genes 28 Torsion [CB]-CG--CD-[CE] |==|  0.36862
USER: genes 29 Torsion [CG]-CD--CE-[NZ] |==|  0.60777
USER: genes 30 Torsion [CD]-CE--NZ-[HZ2] |==|  0.97070
ROOT
ATOM      1  CA  ARG A 130     -31.083  91.050 202.443  1.00 33.49 LIG 0.18  C 
ENDROOT
BRANCH 1 2
ATOM      2  CB  ARG A 130     -30.413  90.367 203.636  1.00 35.16 LIG 0.04  C 
BRANCH 2 3
ATOM      3  CG  ARG A 130     -29.301  91.155 204.299  1.00 39.71 LIG 0.02  C 
BRANCH 3 4
ATOM      4  CD  ARG A 130     -29.737  91.615 205.689  1.00 38.05 LIG 0.14  C 
BRANCH 4 5
ATOM      5  NE  ARG A 130     -28.693  92.393 206.358  1.00 39.97 LIG-0.23  N 
ATOM      6 HE   ARG A 130     -27.911  92.041 206.422  1.00 39.97 LIG 0.18  HD
ATOM      7  CZ  ARG A 130     -28.871  93.605 206.874  1.00 35.35 LIG 0.67  C 
ATOM      8  NH1 ARG A 130     -30.060  94.191 206.817  1.00 35.08 LIG-0.23  N 
ATOM      9  NH2 ARG A 130     -27.860  94.232 207.458  1.00 36.08 LIG-0.23  N 
ATOM     10 2HH1 ARG A 130     -30.169  94.975 207.153  1.00 35.08 LIG 0.17  HD
ATOM     11 1HH1 ARG A 130     -30.722  93.786 206.445  1.00 35.08 LIG 0.17  HD
ATOM     12 1HH2 ARG A 130     -27.089  93.854 207.503  1.00 36.08 LIG 0.17  HD
ATOM     13 2HH2 ARG A 130     -27.975  95.016 207.792  1.00 36.08 LIG 0.17  HD
ENDBRANCH 4 5
ENDBRANCH 3 4
ENDBRANCH 2 3
ENDBRANCH 1 2
BRANCH 1 14
ATOM     14  C   ARG A 130     -30.948  90.156 201.224  1.00 35.02 LIG 0.24  C 
ATOM     15  N   LYS A 131     -29.728  89.718 200.932  1.00 32.29 LIG-0.35  N 
ATOM     16 H    LYS A 131     -29.017  89.927 201.369  1.00 32.29 LIG 0.16  HD
ATOM     17 O    ARG A 130     -31.937  89.849 200.565  1.00 31.53 LIG-0.27  OA
BRANCH 15 18
ATOM     18  CA  LYS A 131     -29.514  88.820 199.807  1.00 31.30 LIG 0.18  C 
BRANCH 18 19
ATOM     19  CB  LYS A 131     -28.080  88.265 199.834  1.00 33.79 LIG 0.04  C 
BRANCH 19 20
ATOM     20  CG  LYS A 131     -28.044  86.836 200.359  1.00 34.08 LIG 0.00  C 
BRANCH 20 21
ATOM     21  CD  LYS A 131     -27.725  85.811 199.317  1.00 36.35 LIG 0.03  C 
BRANCH 21 22
ATOM     22  CE  LYS A 131     -27.901  84.408 199.881  1.00 32.79 LIG 0.23  C 
BRANCH 22 23
ATOM     23  NZ  LYS A 131     -26.587  83.788 200.215  1.00 29.22 LIG-0.08  N 
ATOM     24 HZ3  LYS A 131     -26.029  84.415 200.512  1.00 29.22 LIG 0.27  HD
ATOM     25 HZ2  LYS A 131     -26.245  83.407 199.488  1.00 29.22 LIG 0.27  HD
ATOM     26 HZ1  LYS A 131     -26.702  83.171 200.846  1.00 29.22 LIG 0.27  HD
ENDBRANCH 22 23
ENDBRANCH 21 22
ENDBRANCH 20 21
ENDBRANCH 19 20
ENDBRANCH 18 19
BRANCH 18 27
ATOM     27  C   LYS A 131     -30.549  87.699 199.828  1.00 34.74 LIG 0.24  C 
ATOM     28  N   VAL A 132     -31.031  87.355 201.018  1.00 33.85 LIG-0.35  N 
ATOM     29 H    VAL A 132     -30.778  87.708 201.761  1.00 33.85 LIG 0.16  HD
ATOM     30 O    LYS A 131     -30.880  87.133 198.785  1.00 35.56 LIG-0.27  OA
BRANCH 28 31
ATOM     31  CA  VAL A 132     -32.054  86.321 201.155  1.00 36.14 LIG 0.17  C 
BRANCH 31 32
ATOM     32  C   VAL A 132     -33.199  86.770 202.065  1.00 41.88 LIG 0.22  C 
ATOM     33 O    VAL A 132     -33.970  87.664 201.698  1.00 46.22 LIG-0.29  OA
ENDBRANCH 31 32
BRANCH 31 34
ATOM     34  CB  VAL A 132     -31.460  85.006 201.711  1.00 35.83 LIG 0.01  C 
ATOM     35  CG1 VAL A 132     -32.392  84.403 202.758  1.00 39.48 LIG 0.01  C 
ATOM     36  CG2 VAL A 132     -31.220  84.019 200.594  1.00 35.02 LIG 0.01  C 
ENDBRANCH 31 34
ENDBRANCH 28 31
ENDBRANCH 18 27
ENDBRANCH 15 18
ENDBRANCH 1 14
BRANCH 1 37
ATOM     37  N   ARG A 130     -32.490  91.350 202.718  1.00 35.65 LIG-0.35  N 
ATOM     38 H    ARG A 130     -32.717  92.160 202.542  1.00 35.65 LIG 0.16  HD
ATOM     39  C   LYS A 129     -33.327  90.434 203.197  1.00 38.36 LIG 0.24  C 
ATOM     40 O    LYS A 129     -32.992  89.273 203.409  1.00 38.91 LIG-0.27  OA
BRANCH 39 41
ATOM     41  CA  LYS A 129     -34.752  90.895 203.493  1.00 41.62 LIG 0.18  C 
BRANCH 41 42
ATOM     42  CB  LYS A 129     -35.728  90.138 202.596  1.00 37.07 LIG 0.04  C 
BRANCH 42 43
ATOM     43  CG  LYS A 129     -37.120  89.954 203.183  1.00 37.25 LIG 0.00  C 
BRANCH 43 44
ATOM     44  CD  LYS A 129     -37.093  89.858 204.707  1.00 32.25 LIG 0.03  C 
BRANCH 44 45
ATOM     45  CE  LYS A 129     -36.733  88.441 205.135  1.00 33.17 LIG 0.23  C 
BRANCH 45 46
ATOM     46  NZ  LYS A 129     -36.774  88.244 206.619  1.00 31.02 LIG-0.08  N 
ATOM     47 HZ2  LYS A 129     -37.513  87.800 206.839  1.00 31.02 LIG 0.27  HD
ATOM     48 HZ3  LYS A 129     -36.060  87.778 206.876  1.00 31.02 LIG 0.27  HD
ATOM     49 HZ1  LYS A 129     -36.772  89.036 207.024  1.00 31.02 LIG 0.27  HD
ENDBRANCH 45 46
ENDBRANCH 44 45
ENDBRANCH 43 44
ENDBRANCH 42 43
ENDBRANCH 41 42
BRANCH 41 50
ATOM     50  N   LYS A 129     -34.915  92.339 203.319  1.00 48.91 LIG-0.35  N 
ATOM     51  C   LYS A 128     -34.927  93.175 204.357  1.00 46.33 LIG 0.26  C 
ATOM     52 O    LYS A 128     -34.742  92.808 205.515  1.00 48.39 LIG-0.27  OA
ATOM     53 H    LYS A 129     -35.000  92.590 202.501  1.00 48.91 LIG 0.16  HD
BRANCH 51 54
ATOM     54  CA  LYS A 128     -35.170  94.651 204.038  1.00 52.62 LIG 0.40  C 
ATOM     55  N   LYS A 128     -36.422  94.825 203.316  1.00 52.42 LIG 0.61  N 
BRANCH 54 56
ATOM     56  CB  LYS A 128     -35.176  95.479 205.329  1.00 53.69 LIG 0.05  C 
BRANCH 56 57
ATOM     57  CG  LYS A 128     -36.287  96.517 205.404  1.00 48.68 LIG 0.00  C 
BRANCH 57 58
ATOM     58  CD  LYS A 128     -37.092  96.373 206.684  1.00 52.15 LIG 0.03  C 
BRANCH 58 59
ATOM     59  CE  LYS A 128     -37.283  97.724 207.354  1.00 44.05 LIG 0.23  C 
BRANCH 59 60
ATOM     60  NZ  LYS A 128     -37.186  97.662 208.844  1.00 43.39 LIG-0.08  N 
ATOM     61 HZ1  LYS A 128     -37.883  98.079 209.205  1.00 43.39 LIG 0.27  HD
ATOM     62 HZ2  LYS A 128     -37.181  96.811 209.107  1.00 43.39 LIG 0.27  HD
ATOM     63 HZ3  LYS A 128     -36.434  98.057 209.109  1.00 43.39 LIG 0.27  HD
ENDBRANCH 59 60
ENDBRANCH 58 59
ENDBRANCH 57 58
ENDBRANCH 56 57
ENDBRANCH 54 56
ENDBRANCH 51 54
ENDBRANCH 41 50
ENDBRANCH 39 41
ENDBRANCH 1 37
TORSDOF 29
ENDMDL
MODEL 17
USER: ADFR SOLUTION from run 9
USER: SCORE 19.554767 LL:  -1.964 LR: -19.456 RR:   0.000 FEB: -10.805
USER: RMSD 8.800119
USER: SEED 385239
USER: STATUS no improvement in best in 5 clusters for 5 generations
USER: GENES 31
USER: genes 0 Translation |==|  0.48709 0.62585 0.52636
USER: genes 1 Rotation |==|  0.03655 0.41837 0.62002 0.61895
USER: genes 2 Torsion [C]-CA--CB-[CG] |==|  0.29126
USER: genes 3 Torsion [CA]-CB--CG-[CD] |==|  0.68994
USER: genes 4 Torsion [CB]-CG--CD-[NE] |==|  0.69565
USER: genes 5 Torsion [CG]-CD--NE-[HE] |==|  0.95781
USER: genes 6 Torsion [N]-CA--C-[N] |==|  0.35869
USER: genes 7 Torsion [C]-N--CA-[CB] |==|  0.41801
USER: genes 8 Torsion [N]-CA--CB-[CG] |==|  0.91285
USER: genes 9 Torsion [CA]-CB--CG-[CD] |==|  0.51337
USER: genes 10 Torsion [CB]-CG--CD-[CE] |==|  0.70386
USER: genes 11 Torsion [CG]-CD--CE-[NZ] |==|  0.22392
USER: genes 12 Torsion [CD]-CE--NZ-[HZ2] |==|  0.30182
USER: genes 13 Torsion [N]-CA--C-[N] |==|  0.18611
USER: genes 14 Torsion [C]-N--CA-[CB] |==|  0.47541
USER: genes 15 Torsion [N]-CA--C-[O] |==|  0.26038
USER: genes 16 Torsion [N]-CA--CB-[CG1] |==|  0.53199
USER: genes 17 Torsion [CB]-CA--N-[C] |==|  0.86111
USER: genes 18 Torsion [N]-C--CA-[N] |==|  0.47071
USER: genes 19 Torsion [C]-CA--CB-[CG] |==|  0.31873
USER: genes 20 Torsion [CA]-CB--CG-[CD] |==|  0.54956
USER: genes 21 Torsion [CB]-CG--CD-[CE] |==|  0.56422
USER: genes 22 Torsion [CG]-CD--CE-[NZ] |==|  0.46427
USER: genes 23 Torsion [CD]-CE--NZ-[HZ1] |==|  0.30041
USER: genes 24 Torsion [C]-CA--N-[C] |==|  0.79627
USER: genes 25 Torsion [N]-C--CA-[N] |==|  0.79080
USER: genes 26 Torsion [C]-CA--CB-[CG] |==|  0.69463
USER: genes 27 Torsion [CA]-CB--CG-[CD] |==|  0.52482
USER: genes 28 Torsion [CB]-CG--CD-[CE] |==|  0.46032
USER: genes 29 Torsion [CG]-CD--CE-[NZ] |==|  0.26026
USER: genes 30 Torsion [CD]-CE--NZ-[HZ2] |==|  0.04598
ROOT
ATOM      1  CA  ARG A 130     -31.091  89.903 202.924  1.00 33.49 LIG 0.18  C 
ENDROOT
BRANCH 1 2
ATOM      2  CB  ARG A 130     -29.962  90.732 203.539  1.00 35.16 LIG 0.04  C 
BRANCH 2 3
ATOM      3  CG  ARG A 130     -29.679  90.465 205.003  1.00 39.71 LIG 0.02  C 
BRANCH 3 4
ATOM      4  CD  ARG A 130     -30.074  91.675 205.847  1.00 38.05 LIG 0.14  C 
BRANCH 4 5
ATOM      5  NE  ARG A 130     -28.903  92.371 206.384  1.00 39.97 LIG-0.23  N 
ATOM      6 HE   ARG A 130     -28.148  91.958 206.364  1.00 39.97 LIG 0.18  HD
ATOM      7  CZ  ARG A 130     -28.927  93.596 206.900  1.00 35.35 LIG 0.67  C 
ATOM      8  NH1 ARG A 130     -30.065  94.273 206.969  1.00 35.08 LIG-0.23  N 
ATOM      9  NH2 ARG A 130     -27.810  94.144 207.357  1.00 36.08 LIG-0.23  N 
ATOM     10 2HH1 ARG A 130     -30.074  95.065 207.304  1.00 35.08 LIG 0.17  HD
ATOM     11 1HH1 ARG A 130     -30.794  93.921 206.679  1.00 35.08 LIG 0.17  HD
ATOM     12 1HH2 ARG A 130     -27.071  93.706 207.321  1.00 36.08 LIG 0.17  HD
ATOM     13 2HH2 ARG A 130     -27.825  94.936 207.691  1.00 36.08 LIG 0.17  HD
ENDBRANCH 4 5
ENDBRANCH 3 4
ENDBRANCH 2 3
ENDBRANCH 1 2
BRANCH 1 14
ATOM     14  C   ARG A 130     -32.315  90.784 202.758  1.00 35.02 LIG 0.24  C 
ATOM     15  N   LYS A 131     -33.332  90.562 203.585  1.00 32.29 LIG-0.35  N 
ATOM     16 H    LYS A 131     -33.349  89.944 204.182  1.00 32.29 LIG 0.16  HD
ATOM     17 O    ARG A 130     -32.336  91.667 201.906  1.00 31.53 LIG-0.27  OA
BRANCH 15 18
ATOM     18  CA  LYS A 131     -34.527  91.390 203.526  1.00 31.30 LIG 0.18  C 
BRANCH 18 19
ATOM     19  CB  LYS A 131     -35.757  90.581 203.969  1.00 33.79 LIG 0.04  C 
BRANCH 19 20
ATOM     20  CG  LYS A 131     -35.614  89.107 203.614  1.00 34.08 LIG 0.00  C 
BRANCH 20 21
ATOM     21  CD  LYS A 131     -36.827  88.286 203.917  1.00 36.35 LIG 0.03  C 
BRANCH 21 22
ATOM     22  CE  LYS A 131     -36.582  87.408 205.137  1.00 32.79 LIG 0.23  C 
BRANCH 22 23
ATOM     23  NZ  LYS A 131     -36.756  88.175 206.403  1.00 29.22 LIG-0.08  N 
ATOM     24 HZ3  LYS A 131     -36.060  88.029 206.937  1.00 29.22 LIG 0.27  HD
ATOM     25 HZ2  LYS A 131     -37.502  87.911 206.809  1.00 29.22 LIG 0.27  HD
ATOM     26 HZ1  LYS A 131     -36.811  89.044 206.219  1.00 29.22 LIG 0.27  HD
ENDBRANCH 22 23
ENDBRANCH 21 22
ENDBRANCH 20 21
ENDBRANCH 19 20
ENDBRANCH 18 19
BRANCH 18 27
ATOM     27  C   LYS A 131     -34.341  92.640 204.380  1.00 34.74 LIG 0.24  C 
ATOM     28  N   VAL A 132     -33.431  93.517 203.964  1.00 33.85 LIG-0.35  N 
ATOM     29 H    VAL A 132     -32.939  93.406 203.267  1.00 33.85 LIG 0.16  HD
ATOM     30 O    LYS A 131     -34.986  92.791 205.418  1.00 35.56 LIG-0.27  OA
BRANCH 28 31
ATOM     31  CA  VAL A 132     -33.195  94.766 204.682  1.00 36.14 LIG 0.17  C 
BRANCH 31 32
ATOM     32  C   VAL A 132     -34.402  95.705 204.604  1.00 41.88 LIG 0.22  C 
ATOM     33 O    VAL A 132     -35.253  95.697 205.500  1.00 46.22 LIG-0.29  OA
ENDBRANCH 31 32
BRANCH 31 34
ATOM     34  CB  VAL A 132     -31.951  95.506 204.137  1.00 35.83 LIG 0.01  C 
ATOM     35  CG1 VAL A 132     -31.560  96.646 205.072  1.00 39.48 LIG 0.01  C 
ATOM     36  CG2 VAL A 132     -30.797  94.549 203.968  1.00 35.02 LIG 0.01  C 
ENDBRANCH 31 34
ENDBRANCH 28 31
ENDBRANCH 18 27
ENDBRANCH 15 18
ENDBRANCH 1 14
BRANCH 1 37
ATOM     37  N   ARG A 130     -30.690  89.318 201.643  1.00 35.65 LIG-0.35  N 
ATOM     38 H    ARG A 130     -30.845  88.476 201.576  1.00 35.65 LIG 0.16  HD
ATOM     39  C   LYS A 129     -30.135  90.047 200.677  1.00 38.36 LIG 0.24  C 
ATOM     40 O    LYS A 129     -29.952  91.255 200.777  1.00 38.91 LIG-0.27  OA
BRANCH 39 41
ATOM     41  CA  LYS A 129     -29.712  89.301 199.414  1.00 41.62 LIG 0.18  C 
BRANCH 41 42
ATOM     42  CB  LYS A 129     -28.549  88.367 199.740  1.00 37.07 LIG 0.04  C 
BRANCH 42 43
ATOM     43  CG  LYS A 129     -28.861  86.886 199.595  1.00 37.25 LIG 0.00  C 
BRANCH 43 44
ATOM     44  CD  LYS A 129     -27.848  86.010 200.330  1.00 32.25 LIG 0.03  C 
BRANCH 44 45
ATOM     45  CE  LYS A 129     -27.830  84.612 199.725  1.00 33.17 LIG 0.23  C 
BRANCH 45 46
ATOM     46  NZ  LYS A 129     -26.664  83.788 200.176  1.00 31.02 LIG-0.08  N 
ATOM     47 HZ2  LYS A 129     -26.276  83.411 199.470  1.00 31.02 LIG 0.27  HD
ATOM     48 HZ3  LYS A 129     -26.076  84.310 200.594  1.00 31.02 LIG 0.27  HD
ATOM     49 HZ1  LYS A 129     -26.946  83.154 200.733  1.00 31.02 LIG 0.27  HD
ENDBRANCH 45 46
ENDBRANCH 44 45
ENDBRANCH 43 44
ENDBRANCH 42 43
ENDBRANCH 41 42
BRANCH 41 50
ATOM     50  N   LYS A 129     -29.346  90.211 198.328  1.00 48.91 LIG-0.35  N 
ATOM     51  C   LYS A 128     -30.262  90.904 197.653  1.00 46.33 LIG 0.26  C 
ATOM     52 O    LYS A 128     -31.460  90.878 197.929  1.00 48.39 LIG-0.27  OA
ATOM     53 H    LYS A 129     -28.502  90.255 198.172  1.00 48.91 LIG 0.16  HD
BRANCH 51 54
ATOM     54  CA  LYS A 128     -29.748  91.768 196.500  1.00 52.62 LIG 0.40  C 
ATOM     55  N   LYS A 128     -29.097  92.969 197.004  1.00 52.42 LIG 0.61  N 
BRANCH 54 56
ATOM     56  CB  LYS A 128     -28.783  90.962 195.622  1.00 53.69 LIG 0.05  C 
BRANCH 56 57
ATOM     57  CG  LYS A 128     -27.329  91.401 195.722  1.00 48.68 LIG 0.00  C 
BRANCH 57 58
ATOM     58  CD  LYS A 128     -26.471  90.713 194.674  1.00 52.15 LIG 0.03  C 
BRANCH 58 59
ATOM     59  CE  LYS A 128     -25.122  91.402 194.548  1.00 44.05 LIG 0.23  C 
BRANCH 59 60
ATOM     60  NZ  LYS A 128     -24.061  90.781 195.399  1.00 43.39 LIG-0.08  N 
ATOM     61 HZ1  LYS A 128     -23.920  91.290 196.115  1.00 43.39 LIG 0.27  HD
ATOM     62 HZ2  LYS A 128     -24.325  89.971 195.659  1.00 43.39 LIG 0.27  HD
ATOM     63 HZ3  LYS A 128     -23.308  90.712 194.932  1.00 43.39 LIG 0.27  HD
ENDBRANCH 59 60
ENDBRANCH 58 59
ENDBRANCH 57 58
ENDBRANCH 56 57
ENDBRANCH 54 56
ENDBRANCH 51 54
ENDBRANCH 41 50
ENDBRANCH 39 41
ENDBRANCH 1 37
TORSDOF 29
ENDMDL
MODEL 18
USER: ADFR SOLUTION from run 77
USER: SCORE 18.518756 LL:  -1.505 LR: -19.385 RR:   0.000 FEB: -10.734
USER: RMSD 9.302229
USER: SEED 76
USER: STATUS no improvement in best in 8 clusters for 5 generations
USER: GENES 31
USER: genes 0 Translation |==|  0.49038 0.67509 0.50307
USER: genes 1 Rotation |==|  0.68806 0.09121 0.56673 0.70753
USER: genes 2 Torsion [C]-CA--CB-[CG] |==|  0.32824
USER: genes 3 Torsion [CA]-CB--CG-[CD] |==|  0.32443
USER: genes 4 Torsion [CB]-CG--CD-[NE] |==|  0.50621
USER: genes 5 Torsion [CG]-CD--NE-[HE] |==|  0.84023
USER: genes 6 Torsion [N]-CA--C-[N] |==|  0.58249
USER: genes 7 Torsion [C]-N--CA-[CB] |==|  0.80000
USER: genes 8 Torsion [N]-CA--CB-[CG] |==|  0.58008
USER: genes 9 Torsion [CA]-CB--CG-[CD] |==|  0.18462
USER: genes 10 Torsion [CB]-CG--CD-[CE] |==|  0.52279
USER: genes 11 Torsion [CG]-CD--CE-[NZ] |==|  0.46738
USER: genes 12 Torsion [CD]-CE--NZ-[HZ2] |==|  0.79909
USER: genes 13 Torsion [N]-CA--C-[N] |==|  0.14695
USER: genes 14 Torsion [C]-N--CA-[CB] |==|  0.37282
USER: genes 15 Torsion [N]-CA--C-[O] |==|  0.40402
USER: genes 16 Torsion [N]-CA--CB-[CG1] |==|  0.14277
USER: genes 17 Torsion [CB]-CA--N-[C] |==|  0.86614
USER: genes 18 Torsion [N]-C--CA-[N] |==|  0.97152
USER: genes 19 Torsion [C]-CA--CB-[CG] |==|  0.24170
USER: genes 20 Torsion [CA]-CB--CG-[CD] |==|  0.02896
USER: genes 21 Torsion [CB]-CG--CD-[CE] |==|  0.28933
USER: genes 22 Torsion [CG]-CD--CE-[NZ] |==|  0.48604
USER: genes 23 Torsion [CD]-CE--NZ-[HZ1] |==|  0.30378
USER: genes 24 Torsion [C]-CA--N-[C] |==|  0.73764
USER: genes 25 Torsion [N]-C--CA-[N] |==|  0.34023
USER: genes 26 Torsion [C]-CA--CB-[CG] |==|  0.07019
USER: genes 27 Torsion [CA]-CB--CG-[CD] |==|  0.41788
USER: genes 28 Torsion [CB]-CG--CD-[CE] |==|  0.47085
USER: genes 29 Torsion [CG]-CD--CE-[NZ] |==|  0.57563
USER: genes 30 Torsion [CD]-CE--NZ-[HZ2] |==|  0.04624
ROOT
ATOM      1  CA  ARG A 130     -31.019  91.121 202.522  1.00 33.49 LIG 0.18  C 
ENDROOT
BRANCH 1 2
ATOM      2  CB  ARG A 130     -30.392  90.449 203.745  1.00 35.16 LIG 0.04  C 
BRANCH 2 3
ATOM      3  CG  ARG A 130     -29.280  91.227 204.419  1.00 39.71 LIG 0.02  C 
BRANCH 3 4
ATOM      4  CD  ARG A 130     -29.685  91.598 205.844  1.00 38.05 LIG 0.14  C 
BRANCH 4 5
ATOM      5  NE  ARG A 130     -28.656  92.396 206.513  1.00 39.97 LIG-0.23  N 
ATOM      6 HE   ARG A 130     -27.867  92.060 206.578  1.00 39.97 LIG 0.18  HD
ATOM      7  CZ  ARG A 130     -28.858  93.606 207.026  1.00 35.35 LIG 0.67  C 
ATOM      8  NH1 ARG A 130     -30.058  94.169 206.968  1.00 35.08 LIG-0.23  N 
ATOM      9  NH2 ARG A 130     -27.859  94.253 207.609  1.00 36.08 LIG-0.23  N 
ATOM     10 2HH1 ARG A 130     -30.183  94.951 207.302  1.00 35.08 LIG 0.17  HD
ATOM     11 1HH1 ARG A 130     -30.712  93.750 206.596  1.00 35.08 LIG 0.17  HD
ATOM     12 1HH2 ARG A 130     -27.081  93.891 207.655  1.00 36.08 LIG 0.17  HD
ATOM     13 2HH2 ARG A 130     -27.990  95.036 207.942  1.00 36.08 LIG 0.17  HD
ENDBRANCH 4 5
ENDBRANCH 3 4
ENDBRANCH 2 3
ENDBRANCH 1 2
BRANCH 1 14
ATOM     14  C   ARG A 130     -30.790  90.243 201.306  1.00 35.02 LIG 0.24  C 
ATOM     15  N   LYS A 131     -29.721  89.453 201.327  1.00 32.29 LIG-0.35  N 
ATOM     16 H    LYS A 131     -29.146  89.429 201.965  1.00 32.29 LIG 0.16  HD
ATOM     17 O    ARG A 130     -31.580  90.263 200.366  1.00 31.53 LIG-0.27  OA
BRANCH 15 18
ATOM     18  CA  LYS A 131     -29.450  88.546 200.222  1.00 31.30 LIG 0.18  C 
BRANCH 18 19
ATOM     19  CB  LYS A 131     -30.453  87.381 200.233  1.00 33.79 LIG 0.04  C 
BRANCH 19 20
ATOM     20  CG  LYS A 131     -29.850  86.120 199.628  1.00 34.08 LIG 0.00  C 
BRANCH 20 21
ATOM     21  CD  LYS A 131     -28.728  85.537 200.427  1.00 36.35 LIG 0.03  C 
BRANCH 21 22
ATOM     22  CE  LYS A 131     -28.057  84.408 199.654  1.00 32.79 LIG 0.23  C 
BRANCH 22 23
ATOM     23  NZ  LYS A 131     -26.774  84.001 200.294  1.00 29.22 LIG-0.08  N 
ATOM     24 HZ3  LYS A 131     -26.899  83.892 201.168  1.00 29.22 LIG 0.27  HD
ATOM     25 HZ2  LYS A 131     -26.161  84.632 200.159  1.00 29.22 LIG 0.27  HD
ATOM     26 HZ1  LYS A 131     -26.494  83.235 199.937  1.00 29.22 LIG 0.27  HD
ENDBRANCH 22 23
ENDBRANCH 21 22
ENDBRANCH 20 21
ENDBRANCH 19 20
ENDBRANCH 18 19
BRANCH 18 27
ATOM     27  C   LYS A 131     -29.488  89.306 198.900  1.00 34.74 LIG 0.24  C 
ATOM     28  N   VAL A 132     -28.724  90.391 198.813  1.00 33.85 LIG-0.35  N 
ATOM     29 H    VAL A 132     -28.238  90.691 199.457  1.00 33.85 LIG 0.16  HD
ATOM     30 O    LYS A 131     -30.225  88.934 197.985  1.00 35.56 LIG-0.27  OA
BRANCH 28 31
ATOM     31  CA  VAL A 132     -28.652  91.175 197.583  1.00 36.14 LIG 0.17  C 
BRANCH 31 32
ATOM     32  C   VAL A 132     -27.353  90.913 196.816  1.00 41.88 LIG 0.22  C 
ATOM     33 O    VAL A 132     -27.348  90.926 195.580  1.00 46.22 LIG-0.29  OA
ENDBRANCH 31 32
BRANCH 31 34
ATOM     34  CB  VAL A 132     -28.767  92.690 197.868  1.00 35.83 LIG 0.01  C 
ATOM     35  CG1 VAL A 132     -27.770  93.105 198.945  1.00 39.48 LIG 0.01  C 
ATOM     36  CG2 VAL A 132     -28.537  93.486 196.607  1.00 35.02 LIG 0.01  C 
ENDBRANCH 31 34
ENDBRANCH 28 31
ENDBRANCH 18 27
ENDBRANCH 15 18
ENDBRANCH 1 14
BRANCH 1 37
ATOM     37  N   ARG A 130     -32.447  91.375 202.722  1.00 35.65 LIG-0.35  N 
ATOM     38 H    ARG A 130     -32.695  92.172 202.518  1.00 35.65 LIG 0.16  HD
ATOM     39  C   LYS A 129     -33.273  90.438 203.182  1.00 38.36 LIG 0.24  C 
ATOM     40 O    LYS A 129     -32.907  89.296 203.437  1.00 38.91 LIG-0.27  OA
BRANCH 39 41
ATOM     41  CA  LYS A 129     -34.726  90.853 203.399  1.00 41.62 LIG 0.18  C 
BRANCH 41 42
ATOM     42  CB  LYS A 129     -35.619  90.120 202.401  1.00 37.07 LIG 0.04  C 
BRANCH 42 43
ATOM     43  CG  LYS A 129     -36.094  88.749 202.858  1.00 37.25 LIG 0.00  C 
BRANCH 43 44
ATOM     44  CD  LYS A 129     -35.784  88.495 204.332  1.00 32.25 LIG 0.03  C 
BRANCH 44 45
ATOM     45  CE  LYS A 129     -37.054  88.634 205.163  1.00 33.17 LIG 0.23  C 
BRANCH 45 46
ATOM     46  NZ  LYS A 129     -36.857  88.283 206.606  1.00 31.02 LIG-0.08  N 
ATOM     47 HZ2  LYS A 129     -37.493  87.716 206.863  1.00 31.02 LIG 0.27  HD
ATOM     48 HZ3  LYS A 129     -36.059  87.901 206.712  1.00 31.02 LIG 0.27  HD
ATOM     49 HZ1  LYS A 129     -36.899  89.022 207.100  1.00 31.02 LIG 0.27  HD
ENDBRANCH 45 46
ENDBRANCH 44 45
ENDBRANCH 43 44
ENDBRANCH 42 43
ENDBRANCH 41 42
BRANCH 41 50
ATOM     50  N   LYS A 129     -34.914  92.299 203.284  1.00 48.91 LIG-0.35  N 
ATOM     51  C   LYS A 128     -34.892  93.099 204.350  1.00 46.33 LIG 0.26  C 
ATOM     52 O    LYS A 128     -34.654  92.694 205.486  1.00 48.39 LIG-0.27  OA
ATOM     53 H    LYS A 129     -35.036  92.578 202.480  1.00 48.91 LIG 0.16  HD
BRANCH 51 54
ATOM     54  CA  LYS A 128     -35.166  94.581 204.095  1.00 52.62 LIG 0.40  C 
ATOM     55  N   LYS A 128     -36.303  95.040 204.880  1.00 52.42 LIG 0.61  N 
BRANCH 54 56
ATOM     56  CB  LYS A 128     -33.920  95.415 204.417  1.00 53.69 LIG 0.05  C 
BRANCH 56 57
ATOM     57  CG  LYS A 128     -32.608  94.650 204.311  1.00 48.68 LIG 0.00  C 
BRANCH 57 58
ATOM     58  CD  LYS A 128     -31.463  95.569 203.923  1.00 52.15 LIG 0.03  C 
BRANCH 58 59
ATOM     59  CE  LYS A 128     -30.128  94.856 204.071  1.00 44.05 LIG 0.23  C 
BRANCH 59 60
ATOM     60  NZ  LYS A 128     -28.990  95.786 204.344  1.00 43.39 LIG-0.08  N 
ATOM     61 HZ1  LYS A 128     -28.512  95.897 203.602  1.00 43.39 LIG 0.27  HD
ATOM     62 HZ2  LYS A 128     -29.307  96.573 204.613  1.00 43.39 LIG 0.27  HD
ATOM     63 HZ3  LYS A 128     -28.472  95.443 204.981  1.00 43.39 LIG 0.27  HD
ENDBRANCH 59 60
ENDBRANCH 58 59
ENDBRANCH 57 58
ENDBRANCH 56 57
ENDBRANCH 54 56
ENDBRANCH 51 54
ENDBRANCH 41 50
ENDBRANCH 39 41
ENDBRANCH 1 37
TORSDOF 29
ENDMDL
MODEL 19
USER: ADFR SOLUTION from run 198
USER: SCORE 18.914096 LL:  -1.954 LR: -19.361 RR:   0.000 FEB: -10.711
USER: RMSD 5.670249
USER: SEED 197
USER: STATUS no improvement in best in 1 clusters for 5 generations
USER: GENES 31
USER: genes 0 Translation |==|  0.51282 0.63707 0.50589
USER: genes 1 Rotation |==|  0.82907 0.76341 0.23996 0.56858
USER: genes 2 Torsion [C]-CA--CB-[CG] |==|  0.26665
USER: genes 3 Torsion [CA]-CB--CG-[CD] |==|  0.95254
USER: genes 4 Torsion [CB]-CG--CD-[NE] |==|  0.32405
USER: genes 5 Torsion [CG]-CD--NE-[HE] |==|  0.74190
USER: genes 6 Torsion [N]-CA--C-[N] |==|  0.07334
USER: genes 7 Torsion [C]-N--CA-[CB] |==|  0.20556
USER: genes 8 Torsion [N]-CA--CB-[CG] |==|  0.68642
USER: genes 9 Torsion [CA]-CB--CG-[CD] |==|  0.92796
USER: genes 10 Torsion [CB]-CG--CD-[CE] |==|  0.57842
USER: genes 11 Torsion [CG]-CD--CE-[NZ] |==|  0.56612
USER: genes 12 Torsion [CD]-CE--NZ-[HZ2] |==|  0.24658
USER: genes 13 Torsion [N]-CA--C-[N] |==|  0.48538
USER: genes 14 Torsion [C]-N--CA-[CB] |==|  0.49493
USER: genes 15 Torsion [N]-CA--C-[O] |==|  0.28604
USER: genes 16 Torsion [N]-CA--CB-[CG1] |==|  0.52358
USER: genes 17 Torsion [CB]-CA--N-[C] |==|  0.81915
USER: genes 18 Torsion [N]-C--CA-[N] |==|  0.83005
USER: genes 19 Torsion [C]-CA--CB-[CG] |==|  0.75037
USER: genes 20 Torsion [CA]-CB--CG-[CD] |==|  0.61613
USER: genes 21 Torsion [CB]-CG--CD-[CE] |==|  0.82710
USER: genes 22 Torsion [CG]-CD--CE-[NZ] |==|  0.61133
USER: genes 23 Torsion [CD]-CE--NZ-[HZ1] |==|  0.27123
USER: genes 24 Torsion [C]-CA--N-[C] |==|  0.76640
USER: genes 25 Torsion [N]-C--CA-[N] |==|  0.35864
USER: genes 26 Torsion [C]-CA--CB-[CG] |==|  0.36653
USER: genes 27 Torsion [CA]-CB--CG-[CD] |==|  0.38776
USER: genes 28 Torsion [CB]-CG--CD-[CE] |==|  0.38381
USER: genes 29 Torsion [CG]-CD--CE-[NZ] |==|  0.19007
USER: genes 30 Torsion [CD]-CE--NZ-[HZ2] |==|  0.51053
ROOT
ATOM      1  CA  ARG A 130     -30.531  90.180 202.571  1.00 33.49 LIG 0.18  C 
ENDROOT
BRANCH 1 2
ATOM      2  CB  ARG A 130     -30.887  91.645 202.309  1.00 35.16 LIG 0.04  C 
BRANCH 2 3
ATOM      3  CG  ARG A 130     -30.704  92.582 203.485  1.00 39.71 LIG 0.02  C 
BRANCH 3 4
ATOM      4  CD  ARG A 130     -30.604  91.786 204.784  1.00 38.05 LIG 0.14  C 
BRANCH 4 5
ATOM      5  NE  ARG A 130     -29.300  91.953 205.427  1.00 39.97 LIG-0.23  N 
ATOM      6 HE   ARG A 130     -28.686  91.378 205.245  1.00 39.97 LIG 0.18  HD
ATOM      7  CZ  ARG A 130     -28.998  92.933 206.273  1.00 35.35 LIG 0.67  C 
ATOM      8  NH1 ARG A 130     -29.909  93.840 206.602  1.00 35.08 LIG-0.23  N 
ATOM      9  NH2 ARG A 130     -27.785  93.003 206.801  1.00 36.08 LIG-0.23  N 
ATOM     10 2HH1 ARG A 130     -29.708  94.471 207.151  1.00 35.08 LIG 0.17  HD
ATOM     11 1HH1 ARG A 130     -30.700  93.796 206.268  1.00 35.08 LIG 0.17  HD
ATOM     12 1HH2 ARG A 130     -27.193  92.414 206.596  1.00 36.08 LIG 0.17  HD
ATOM     13 2HH2 ARG A 130     -27.590  93.637 207.349  1.00 36.08 LIG 0.17  HD
ENDBRANCH 4 5
ENDBRANCH 3 4
ENDBRANCH 2 3
ENDBRANCH 1 2
BRANCH 1 14
ATOM     14  C   ARG A 130     -31.797  89.422 202.925  1.00 35.02 LIG 0.24  C 
ATOM     15  N   LYS A 131     -31.842  88.137 202.587  1.00 32.29 LIG-0.35  N 
ATOM     16 H    LYS A 131     -31.220  87.722 202.163  1.00 32.29 LIG 0.16  HD
ATOM     17 O    ARG A 130     -32.715  89.984 203.514  1.00 31.53 LIG-0.27  OA
BRANCH 15 18
ATOM     18  CA  LYS A 131     -32.999  87.323 202.928  1.00 31.30 LIG 0.18  C 
BRANCH 18 19
ATOM     19  CB  LYS A 131     -34.187  87.680 202.019  1.00 33.79 LIG 0.04  C 
BRANCH 19 20
ATOM     20  CG  LYS A 131     -35.312  88.340 202.804  1.00 34.08 LIG 0.00  C 
BRANCH 20 21
ATOM     21  CD  LYS A 131     -35.342  87.971 204.254  1.00 36.35 LIG 0.03  C 
BRANCH 21 22
ATOM     22  CE  LYS A 131     -36.764  88.054 204.793  1.00 32.79 LIG 0.23  C 
BRANCH 22 23
ATOM     23  NZ  LYS A 131     -36.773  88.260 206.270  1.00 29.22 LIG-0.08  N 
ATOM     24 HZ3  LYS A 131     -37.513  87.905 206.615  1.00 29.22 LIG 0.27  HD
ATOM     25 HZ2  LYS A 131     -36.753  89.132 206.447  1.00 29.22 LIG 0.27  HD
ATOM     26 HZ1  LYS A 131     -36.060  87.868 206.629  1.00 29.22 LIG 0.27  HD
ENDBRANCH 22 23
ENDBRANCH 21 22
ENDBRANCH 20 21
ENDBRANCH 19 20
ENDBRANCH 18 19
BRANCH 18 27
ATOM     27  C   LYS A 131     -32.645  85.843 202.832  1.00 34.74 LIG 0.24  C 
ATOM     28  N   VAL A 132     -33.578  84.980 203.222  1.00 33.85 LIG-0.35  N 
ATOM     29 H    VAL A 132     -34.345  85.209 203.539  1.00 33.85 LIG 0.16  HD
ATOM     30 O    LYS A 131     -31.530  85.490 202.444  1.00 35.56 LIG-0.27  OA
BRANCH 28 31
ATOM     31  CA  VAL A 132     -33.362  83.537 203.139  1.00 36.14 LIG 0.17  C 
BRANCH 31 32
ATOM     32  C   VAL A 132     -33.094  83.084 201.703  1.00 41.88 LIG 0.22  C 
ATOM     33 O    VAL A 132     -31.942  82.817 201.341  1.00 46.22 LIG-0.29  OA
ENDBRANCH 31 32
BRANCH 31 34
ATOM     34  CB  VAL A 132     -34.573  82.751 203.693  1.00 35.83 LIG 0.01  C 
ATOM     35  CG1 VAL A 132     -34.242  81.265 203.790  1.00 39.48 LIG 0.01  C 
ATOM     36  CG2 VAL A 132     -34.978  83.285 205.045  1.00 35.02 LIG 0.01  C 
ENDBRANCH 31 34
ENDBRANCH 28 31
ENDBRANCH 18 27
ENDBRANCH 15 18
ENDBRANCH 1 14
BRANCH 1 37
ATOM     37  N   ARG A 130     -29.864  89.576 201.416  1.00 35.65 LIG-0.35  N 
ATOM     38 H    ARG A 130     -29.050  89.344 201.562  1.00 35.65 LIG 0.16  HD
ATOM     39  C   LYS A 129     -30.484  89.407 200.251  1.00 38.36 LIG 0.24  C 
ATOM     40 O    LYS A 129     -31.659  89.713 200.072  1.00 38.91 LIG-0.27  OA
BRANCH 39 41
ATOM     41  CA  LYS A 129     -29.655  88.817 199.113  1.00 41.62 LIG 0.18  C 
BRANCH 41 42
ATOM     42  CB  LYS A 129     -29.185  87.417 199.498  1.00 37.07 LIG 0.04  C 
BRANCH 42 43
ATOM     43  CG  LYS A 129     -27.845  87.371 200.218  1.00 37.25 LIG 0.00  C 
BRANCH 43 44
ATOM     44  CD  LYS A 129     -26.967  86.222 199.724  1.00 32.25 LIG 0.03  C 
BRANCH 44 45
ATOM     45  CE  LYS A 129     -27.645  84.888 200.008  1.00 33.17 LIG 0.23  C 
BRANCH 45 46
ATOM     46  NZ  LYS A 129     -26.693  83.830 200.474  1.00 31.02 LIG-0.08  N 
ATOM     47 HZ2  LYS A 129     -26.929  83.045 200.127  1.00 31.02 LIG 0.27  HD
ATOM     48 HZ3  LYS A 129     -25.868  84.035 200.211  1.00 31.02 LIG 0.27  HD
ATOM     49 HZ1  LYS A 129     -26.716  83.780 201.363  1.00 31.02 LIG 0.27  HD
ENDBRANCH 45 46
ENDBRANCH 44 45
ENDBRANCH 43 44
ENDBRANCH 42 43
ENDBRANCH 41 42
BRANCH 41 50
ATOM     50  N   LYS A 129     -28.512  89.661 198.764  1.00 48.91 LIG-0.35  N 
ATOM     51  C   LYS A 128     -28.629  90.694 197.930  1.00 46.33 LIG 0.26  C 
ATOM     52 O    LYS A 128     -29.703  91.048 197.448  1.00 48.39 LIG-0.27  OA
ATOM     53 H    LYS A 129     -27.774  89.431 199.140  1.00 48.91 LIG 0.16  HD
BRANCH 51 54
ATOM     54  CA  LYS A 128     -27.342  91.452 197.601  1.00 52.62 LIG 0.40  C 
ATOM     55  N   LYS A 128     -27.180  91.597 196.162  1.00 52.42 LIG 0.61  N 
BRANCH 54 56
ATOM     56  CB  LYS A 128     -27.345  92.826 198.283  1.00 53.69 LIG 0.05  C 
BRANCH 56 57
ATOM     57  CG  LYS A 128     -26.060  93.161 199.028  1.00 48.68 LIG 0.00  C 
BRANCH 57 58
ATOM     58  CD  LYS A 128     -25.666  94.613 198.823  1.00 52.15 LIG 0.03  C 
BRANCH 58 59
ATOM     59  CE  LYS A 128     -25.180  95.227 200.126  1.00 44.05 LIG 0.23  C 
BRANCH 59 60
ATOM     60  NZ  LYS A 128     -23.877  94.663 200.594  1.00 43.39 LIG-0.08  N 
ATOM     61 HZ1  LYS A 128     -23.240  94.858 200.004  1.00 43.39 LIG 0.27  HD
ATOM     62 HZ2  LYS A 128     -23.667  95.015 201.384  1.00 43.39 LIG 0.27  HD
ATOM     63 HZ3  LYS A 128     -23.947  93.779 200.673  1.00 43.39 LIG 0.27  HD
ENDBRANCH 59 60
ENDBRANCH 58 59
ENDBRANCH 57 58
ENDBRANCH 56 57
ENDBRANCH 54 56
ENDBRANCH 51 54
ENDBRANCH 41 50
ENDBRANCH 39 41
ENDBRANCH 1 37
TORSDOF 29
ENDMDL
MODEL 20
USER: ADFR SOLUTION from run 160
USER: SCORE 20.163559 LL:  -1.631 LR: -19.328 RR:   0.000 FEB: -10.677
USER: RMSD 9.157758
USER: SEED 159
USER: STATUS no improvement in best in 2 clusters for 5 generations
USER: GENES 31
USER: genes 0 Translation |==|  0.59186 0.62003 0.38687
USER: genes 1 Rotation |==|  0.80058 0.49380 0.10225 0.53756
USER: genes 2 Torsion [C]-CA--CB-[CG] |==|  0.15123
USER: genes 3 Torsion [CA]-CB--CG-[CD] |==|  0.46749
USER: genes 4 Torsion [CB]-CG--CD-[NE] |==|  0.65401
USER: genes 5 Torsion [CG]-CD--NE-[HE] |==|  0.34933
USER: genes 6 Torsion [N]-CA--C-[N] |==|  0.17383
USER: genes 7 Torsion [C]-N--CA-[CB] |==|  0.84775
USER: genes 8 Torsion [N]-CA--CB-[CG] |==|  0.80096
USER: genes 9 Torsion [CA]-CB--CG-[CD] |==|  0.83355
USER: genes 10 Torsion [CB]-CG--CD-[CE] |==|  0.65408
USER: genes 11 Torsion [CG]-CD--CE-[NZ] |==|  0.19234
USER: genes 12 Torsion [CD]-CE--NZ-[HZ2] |==|  0.15029
USER: genes 13 Torsion [N]-CA--C-[N] |==|  0.36354
USER: genes 14 Torsion [C]-N--CA-[CB] |==|  0.26651
USER: genes 15 Torsion [N]-CA--C-[O] |==|  0.05566
USER: genes 16 Torsion [N]-CA--CB-[CG1] |==|  0.84145
USER: genes 17 Torsion [CB]-CA--N-[C] |==|  0.19342
USER: genes 18 Torsion [N]-C--CA-[N] |==|  0.00409
USER: genes 19 Torsion [C]-CA--CB-[CG] |==|  0.44507
USER: genes 20 Torsion [CA]-CB--CG-[CD] |==|  0.86101
USER: genes 21 Torsion [CB]-CG--CD-[CE] |==|  0.87911
USER: genes 22 Torsion [CG]-CD--CE-[NZ] |==|  0.39209
USER: genes 23 Torsion [CD]-CE--NZ-[HZ1] |==|  0.81037
USER: genes 24 Torsion [C]-CA--N-[C] |==|  0.68953
USER: genes 25 Torsion [N]-C--CA-[N] |==|  0.11188
USER: genes 26 Torsion [C]-CA--CB-[CG] |==|  0.43420
USER: genes 27 Torsion [CA]-CB--CG-[CD] |==|  0.54474
USER: genes 28 Torsion [CB]-CG--CD-[CE] |==|  0.42416
USER: genes 29 Torsion [CG]-CD--CE-[NZ] |==|  0.39420
USER: genes 30 Torsion [CD]-CE--NZ-[HZ2] |==|  0.78312
ROOT
ATOM      1  CA  ARG A 130     -28.812  89.759 200.518  1.00 33.49 LIG 0.18  C 
ENDROOT
BRANCH 1 2
ATOM      2  CB  ARG A 130     -28.445  90.459 199.208  1.00 35.16 LIG 0.04  C 
BRANCH 2 3
ATOM      3  CG  ARG A 130     -27.913  91.871 199.349  1.00 39.71 LIG 0.02  C 
BRANCH 3 4
ATOM      4  CD  ARG A 130     -27.319  92.346 198.025  1.00 38.05 LIG 0.14  C 
BRANCH 4 5
ATOM      5  NE  ARG A 130     -25.932  92.787 198.177  1.00 39.97 LIG-0.23  N 
ATOM      6 HE   ARG A 130     -25.339  92.429 197.666  1.00 39.97 LIG 0.18  HD
ATOM      7  CZ  ARG A 130     -25.524  93.702 199.051  1.00 35.35 LIG 0.67  C 
ATOM      8  NH1 ARG A 130     -26.391  94.277 199.874  1.00 35.08 LIG-0.23  N 
ATOM      9  NH2 ARG A 130     -24.243  94.038 199.110  1.00 36.08 LIG-0.23  N 
ATOM     10 2HH1 ARG A 130     -26.121  94.869 200.437  1.00 35.08 LIG 0.17  HD
ATOM     11 1HH1 ARG A 130     -27.222  94.059 199.845  1.00 35.08 LIG 0.17  HD
ATOM     12 1HH2 ARG A 130     -23.677  93.664 198.583  1.00 36.08 LIG 0.17  HD
ATOM     13 2HH2 ARG A 130     -23.979  94.630 199.675  1.00 36.08 LIG 0.17  HD
ENDBRANCH 4 5
ENDBRANCH 3 4
ENDBRANCH 2 3
ENDBRANCH 1 2
BRANCH 1 14
ATOM     14  C   ARG A 130     -29.789  90.630 201.285  1.00 35.02 LIG 0.24  C 
ATOM     15  N   LYS A 131     -30.126  90.225 202.506  1.00 32.29 LIG-0.35  N 
ATOM     16 H    LYS A 131     -29.849  89.498 202.872  1.00 32.29 LIG 0.16  HD
ATOM     17 O    ARG A 130     -30.220  91.667 200.789  1.00 31.53 LIG-0.27  OA
BRANCH 15 18
ATOM     18  CA  LYS A 131     -31.021  91.024 203.328  1.00 31.30 LIG 0.18  C 
BRANCH 18 19
ATOM     19  CB  LYS A 131     -30.481  92.457 203.467  1.00 33.79 LIG 0.04  C 
BRANCH 19 20
ATOM     20  CG  LYS A 131     -29.250  92.505 204.362  1.00 34.08 LIG 0.00  C 
BRANCH 20 21
ATOM     21  CD  LYS A 131     -29.490  92.017 205.756  1.00 36.35 LIG 0.03  C 
BRANCH 21 22
ATOM     22  CE  LYS A 131     -29.085  93.081 206.768  1.00 32.79 LIG 0.23  C 
BRANCH 22 23
ATOM     23  NZ  LYS A 131     -30.010  94.250 206.725  1.00 29.22 LIG-0.08  N 
ATOM     24 HZ3  LYS A 131     -29.804  94.816 207.381  1.00 29.22 LIG 0.27  HD
ATOM     25 HZ2  LYS A 131     -30.848  93.969 206.829  1.00 29.22 LIG 0.27  HD
ATOM     26 HZ1  LYS A 131     -29.931  94.663 205.942  1.00 29.22 LIG 0.27  HD
ENDBRANCH 22 23
ENDBRANCH 21 22
ENDBRANCH 20 21
ENDBRANCH 19 20
ENDBRANCH 18 19
BRANCH 18 27
ATOM     27  C   LYS A 131     -32.427  91.010 202.737  1.00 34.74 LIG 0.24  C 
ATOM     28  N   VAL A 132     -33.423  90.735 203.573  1.00 33.85 LIG-0.35  N 
ATOM     29 H    VAL A 132     -33.316  90.547 204.406  1.00 33.85 LIG 0.16  HD
ATOM     30 O    LYS A 131     -32.602  91.211 201.534  1.00 35.56 LIG-0.27  OA
BRANCH 28 31
ATOM     31  CA  VAL A 132     -34.814  90.731 203.126  1.00 36.14 LIG 0.17  C 
BRANCH 31 32
ATOM     32  C   VAL A 132     -35.755  91.310 204.185  1.00 41.88 LIG 0.22  C 
ATOM     33 O    VAL A 132     -35.309  92.035 205.082  1.00 46.22 LIG-0.29  OA
ENDBRANCH 31 32
BRANCH 31 34
ATOM     34  CB  VAL A 132     -35.288  89.305 202.762  1.00 35.83 LIG 0.01  C 
ATOM     35  CG1 VAL A 132     -34.387  88.702 201.690  1.00 39.48 LIG 0.01  C 
ATOM     36  CG2 VAL A 132     -35.305  88.424 203.988  1.00 35.02 LIG 0.01  C 
ENDBRANCH 31 34
ENDBRANCH 28 31
ENDBRANCH 18 27
ENDBRANCH 15 18
ENDBRANCH 1 14
BRANCH 1 37
ATOM     37  N   ARG A 130     -29.376  88.430 200.275  1.00 35.65 LIG-0.35  N 
ATOM     38 H    ARG A 130     -30.214  88.365 200.453  1.00 35.65 LIG 0.16  HD
ATOM     39  C   LYS A 129     -28.637  87.421 199.819  1.00 38.36 LIG 0.24  C 
ATOM     40 O    LYS A 129     -27.449  87.542 199.539  1.00 38.91 LIG-0.27  OA
BRANCH 39 41
ATOM     41  CA  LYS A 129     -29.337  86.073 199.665  1.00 41.62 LIG 0.18  C 
BRANCH 41 42
ATOM     42  CB  LYS A 129     -29.178  85.578 198.230  1.00 37.07 LIG 0.04  C 
BRANCH 42 43
ATOM     43  CG  LYS A 129     -29.396  84.084 198.043  1.00 37.25 LIG 0.00  C 
BRANCH 43 44
ATOM     44  CD  LYS A 129     -28.588  83.256 199.040  1.00 32.25 LIG 0.03  C 
BRANCH 44 45
ATOM     45  CE  LYS A 129     -27.175  83.814 199.157  1.00 33.17 LIG 0.23  C 
BRANCH 45 46
ATOM     46  NZ  LYS A 129     -26.644  83.788 200.557  1.00 31.02 LIG-0.08  N 
ATOM     47 HZ2  LYS A 129     -26.736  82.970 200.894  1.00 31.02 LIG 0.27  HD
ATOM     48 HZ3  LYS A 129     -25.781  84.010 200.552  1.00 31.02 LIG 0.27  HD
ATOM     49 HZ1  LYS A 129     -27.096  84.369 201.058  1.00 31.02 LIG 0.27  HD
ENDBRANCH 45 46
ENDBRANCH 44 45
ENDBRANCH 43 44
ENDBRANCH 42 43
ENDBRANCH 41 42
BRANCH 41 50
ATOM     50  N   LYS A 129     -30.753  86.139 200.028  1.00 48.91 LIG-0.35  N 
ATOM     51  C   LYS A 128     -31.231  85.522 201.109  1.00 46.33 LIG 0.26  C 
ATOM     52 O    LYS A 128     -30.517  84.914 201.904  1.00 48.39 LIG-0.27  OA
ATOM     53 H    LYS A 129     -31.235  86.603 199.489  1.00 48.91 LIG 0.16  HD
BRANCH 51 54
ATOM     54  CA  LYS A 128     -32.740  85.619 201.335  1.00 52.62 LIG 0.40  C 
ATOM     55  N   LYS A 128     -33.461  85.486 200.077  1.00 52.42 LIG 0.61  N 
BRANCH 54 56
ATOM     56  CB  LYS A 128     -33.198  84.546 202.331  1.00 53.69 LIG 0.05  C 
BRANCH 56 57
ATOM     57  CG  LYS A 128     -34.496  84.875 203.055  1.00 48.68 LIG 0.00  C 
BRANCH 57 58
ATOM     58  CD  LYS A 128     -34.683  83.996 204.279  1.00 52.15 LIG 0.03  C 
BRANCH 58 59
ATOM     59  CE  LYS A 128     -35.530  84.703 205.325  1.00 44.05 LIG 0.23  C 
BRANCH 59 60
ATOM     60  NZ  LYS A 128     -36.474  83.788 206.036  1.00 43.39 LIG-0.08  N 
ATOM     61 HZ1  LYS A 128     -36.747  84.172 206.791  1.00 43.39 LIG 0.27  HD
ATOM     62 HZ2  LYS A 128     -37.178  83.624 205.516  1.00 43.39 LIG 0.27  HD
ATOM     63 HZ3  LYS A 128     -36.061  83.023 206.226  1.00 43.39 LIG 0.27  HD
ENDBRANCH 59 60
ENDBRANCH 58 59
ENDBRANCH 57 58
ENDBRANCH 56 57
ENDBRANCH 54 56
ENDBRANCH 51 54
ENDBRANCH 41 50
ENDBRANCH 39 41
ENDBRANCH 1 37
TORSDOF 29
ENDMDL
MODEL 21
USER: ADFR SOLUTION from run 188
USER: SCORE 18.937674 LL:  -0.951 LR: -19.259 RR:   0.000 FEB: -10.608
USER: RMSD 7.804600
USER: SEED 187
USER: STATUS searching
USER: GENES 31
USER: genes 0 Translation |==|  0.42489 0.48966 0.52169
USER: genes 1 Rotation |==|  0.66336 0.91170 0.66294 0.66514
USER: genes 2 Torsion [C]-CA--CB-[CG] |==|  0.28586
USER: genes 3 Torsion [CA]-CB--CG-[CD] |==|  0.32208
USER: genes 4 Torsion [CB]-CG--CD-[NE] |==|  0.66183
USER: genes 5 Torsion [CG]-CD--NE-[HE] |==|  0.27285
USER: genes 6 Torsion [N]-CA--C-[N] |==|  0.94302
USER: genes 7 Torsion [C]-N--CA-[CB] |==|  0.86100
USER: genes 8 Torsion [N]-CA--CB-[CG] |==|  0.53810
USER: genes 9 Torsion [CA]-CB--CG-[CD] |==|  0.80370
USER: genes 10 Torsion [CB]-CG--CD-[CE] |==|  0.69083
USER: genes 11 Torsion [CG]-CD--CE-[NZ] |==|  0.13627
USER: genes 12 Torsion [CD]-CE--NZ-[HZ2] |==|  0.78995
USER: genes 13 Torsion [N]-CA--C-[N] |==|  0.38928
USER: genes 14 Torsion [C]-N--CA-[CB] |==|  0.85543
USER: genes 15 Torsion [N]-CA--C-[O] |==|  0.35270
USER: genes 16 Torsion [N]-CA--CB-[CG1] |==|  0.32594
USER: genes 17 Torsion [CB]-CA--N-[C] |==|  0.86667
USER: genes 18 Torsion [N]-C--CA-[N] |==|  0.72569
USER: genes 19 Torsion [C]-CA--CB-[CG] |==|  0.43769
USER: genes 20 Torsion [CA]-CB--CG-[CD] |==|  0.31068
USER: genes 21 Torsion [CB]-CG--CD-[CE] |==|  0.54582
USER: genes 22 Torsion [CG]-CD--CE-[NZ] |==|  0.39780
USER: genes 23 Torsion [CD]-CE--NZ-[HZ1] |==|  0.01075
USER: genes 24 Torsion [C]-CA--N-[C] |==|  0.69273
USER: genes 25 Torsion [N]-C--CA-[N] |==|  0.58598
USER: genes 26 Torsion [C]-CA--CB-[CG] |==|  0.82145
USER: genes 27 Torsion [CA]-CB--CG-[CD] |==|  0.55474
USER: genes 28 Torsion [CB]-CG--CD-[CE] |==|  0.67009
USER: genes 29 Torsion [CG]-CD--CE-[NZ] |==|  0.33897
USER: genes 30 Torsion [CD]-CE--NZ-[HZ2] |==|  0.62142
ROOT
ATOM      1  CA  ARG A 130     -32.444  86.532 202.843  1.00 33.49 LIG 0.18  C 
ENDROOT
BRANCH 1 2
ATOM      2  CB  ARG A 130     -33.881  86.626 202.328  1.00 35.16 LIG 0.04  C 
BRANCH 2 3
ATOM      3  CG  ARG A 130     -34.832  85.567 202.848  1.00 39.71 LIG 0.02  C 
BRANCH 3 4
ATOM      4  CD  ARG A 130     -35.934  86.213 203.684  1.00 38.05 LIG 0.14  C 
BRANCH 4 5
ATOM      5  NE  ARG A 130     -35.966  85.682 205.048  1.00 39.97 LIG-0.23  N 
ATOM      6 HE   ARG A 130     -35.577  86.138 205.665  1.00 39.97 LIG 0.18  HD
ATOM      7  CZ  ARG A 130     -36.554  84.542 205.398  1.00 35.35 LIG 0.67  C 
ATOM      8  NH1 ARG A 130     -37.157  83.789 204.486  1.00 35.08 LIG-0.23  N 
ATOM      9  NH2 ARG A 130     -36.533  84.147 206.663  1.00 36.08 LIG-0.23  N 
ATOM     10 2HH1 ARG A 130     -37.535  83.053 204.719  1.00 35.08 LIG 0.17  HD
ATOM     11 1HH1 ARG A 130     -37.168  84.038 203.663  1.00 35.08 LIG 0.17  HD
ATOM     12 1HH2 ARG A 130     -36.138  84.627 207.256  1.00 36.08 LIG 0.17  HD
ATOM     13 2HH2 ARG A 130     -36.913  83.409 206.889  1.00 36.08 LIG 0.17  HD
ENDBRANCH 4 5
ENDBRANCH 3 4
ENDBRANCH 2 3
ENDBRANCH 1 2
BRANCH 1 14
ATOM     14  C   ARG A 130     -31.569  85.932 201.758  1.00 35.02 LIG 0.24  C 
ATOM     15  N   LYS A 131     -30.800  86.771 201.072  1.00 32.29 LIG-0.35  N 
ATOM     16 H    LYS A 131     -30.787  87.623 201.185  1.00 32.29 LIG 0.16  HD
ATOM     17 O    ARG A 130     -31.573  84.721 201.554  1.00 31.53 LIG-0.27  OA
BRANCH 15 18
ATOM     18  CA  LYS A 131     -29.898  86.275 200.044  1.00 31.30 LIG 0.18  C 
BRANCH 18 19
ATOM     19  CB  LYS A 131     -29.052  85.114 200.594  1.00 33.79 LIG 0.04  C 
BRANCH 19 20
ATOM     20  CG  LYS A 131     -27.880  84.794 199.676  1.00 34.08 LIG 0.00  C 
BRANCH 20 21
ATOM     21  CD  LYS A 131     -28.275  84.155 198.383  1.00 36.35 LIG 0.03  C 
BRANCH 21 22
ATOM     22  CE  LYS A 131     -27.807  82.706 198.342  1.00 32.79 LIG 0.23  C 
BRANCH 22 23
ATOM     23  NZ  LYS A 131     -28.187  81.977 199.585  1.00 29.22 LIG-0.08  N 
ATOM     24 HZ3  LYS A 131     -29.029  82.172 199.799  1.00 29.22 LIG 0.27  HD
ATOM     25 HZ2  LYS A 131     -27.648  82.223 200.250  1.00 29.22 LIG 0.27  HD
ATOM     26 HZ1  LYS A 131     -28.111  81.101 199.452  1.00 29.22 LIG 0.27  HD
ENDBRANCH 22 23
ENDBRANCH 21 22
ENDBRANCH 20 21
ENDBRANCH 19 20
ENDBRANCH 18 19
BRANCH 18 27
ATOM     27  C   LYS A 131     -30.690  85.856 198.810  1.00 34.74 LIG 0.24  C 
ATOM     28  N   VAL A 132     -30.158  86.157 197.629  1.00 33.85 LIG-0.35  N 
ATOM     29 H    VAL A 132     -29.418  86.585 197.528  1.00 33.85 LIG 0.16  HD
ATOM     30 O    LYS A 131     -31.783  85.300 198.926  1.00 35.56 LIG-0.27  OA
BRANCH 28 31
ATOM     31  CA  VAL A 132     -30.810  85.771 196.380  1.00 36.14 LIG 0.17  C 
BRANCH 31 32
ATOM     32  C   VAL A 132     -32.093  86.570 196.137  1.00 41.88 LIG 0.22  C 
ATOM     33 O    VAL A 132     -32.257  87.170 195.069  1.00 46.22 LIG-0.29  OA
ENDBRANCH 31 32
BRANCH 31 34
ATOM     34  CB  VAL A 132     -31.150  84.262 196.361  1.00 35.83 LIG 0.01  C 
ATOM     35  CG1 VAL A 132     -32.659  84.059 196.269  1.00 39.48 LIG 0.01  C 
ATOM     36  CG2 VAL A 132     -30.459  83.579 195.206  1.00 35.02 LIG 0.01  C 
ENDBRANCH 31 34
ENDBRANCH 28 31
ENDBRANCH 18 27
ENDBRANCH 15 18
ENDBRANCH 1 14
BRANCH 1 37
ATOM     37  N   ARG A 130     -31.936  87.841 203.259  1.00 35.65 LIG-0.35  N 
ATOM     38 H    ARG A 130     -31.556  87.842 204.030  1.00 35.65 LIG 0.16  HD
ATOM     39  C   LYS A 129     -32.064  88.923 202.495  1.00 38.36 LIG 0.24  C 
ATOM     40 O    LYS A 129     -32.580  88.894 201.383  1.00 38.91 LIG-0.27  OA
BRANCH 39 41
ATOM     41  CA  LYS A 129     -31.542  90.236 203.074  1.00 41.62 LIG 0.18  C 
BRANCH 41 42
ATOM     42  CB  LYS A 129     -30.473  89.940 204.122  1.00 37.07 LIG 0.04  C 
BRANCH 42 43
ATOM     43  CG  LYS A 129     -29.508  91.086 204.390  1.00 37.25 LIG 0.00  C 
BRANCH 43 44
ATOM     44  CD  LYS A 129     -29.690  91.675 205.788  1.00 32.25 LIG 0.03  C 
BRANCH 44 45
ATOM     45  CE  LYS A 129     -29.019  93.041 205.869  1.00 33.17 LIG 0.23  C 
BRANCH 45 46
ATOM     46  NZ  LYS A 129     -29.776  94.021 206.710  1.00 31.02 LIG-0.08  N 
ATOM     47 HZ2  LYS A 129     -29.246  94.333 207.353  1.00 31.02 LIG 0.27  HD
ATOM     48 HZ3  LYS A 129     -30.053  94.697 206.201  1.00 31.02 LIG 0.27  HD
ATOM     49 HZ1  LYS A 129     -30.480  93.618 207.076  1.00 31.02 LIG 0.27  HD
ENDBRANCH 45 46
ENDBRANCH 44 45
ENDBRANCH 43 44
ENDBRANCH 42 43
ENDBRANCH 41 42
BRANCH 41 50
ATOM     50  N   LYS A 129     -32.611  91.051 203.652  1.00 48.91 LIG-0.35  N 
ATOM     51  C   LYS A 128     -33.005  92.194 203.090  1.00 46.33 LIG 0.26  C 
ATOM     52 O    LYS A 128     -32.549  92.611 202.027  1.00 48.39 LIG-0.27  OA
ATOM     53 H    LYS A 129     -32.952  90.728 204.372  1.00 48.91 LIG 0.16  HD
BRANCH 51 54
ATOM     54  CA  LYS A 128     -34.086  92.979 203.834  1.00 52.62 LIG 0.40  C 
ATOM     55  N   LYS A 128     -34.923  93.720 202.900  1.00 52.42 LIG 0.61  N 
BRANCH 54 56
ATOM     56  CB  LYS A 128     -34.941  92.030 204.684  1.00 53.69 LIG 0.05  C 
BRANCH 56 57
ATOM     57  CG  LYS A 128     -35.740  91.014 203.879  1.00 48.68 LIG 0.00  C 
BRANCH 57 58
ATOM     58  CD  LYS A 128     -36.893  90.450 204.691  1.00 52.15 LIG 0.03  C 
BRANCH 58 59
ATOM     59  CE  LYS A 128     -36.744  88.947 204.864  1.00 44.05 LIG 0.23  C 
BRANCH 59 60
ATOM     60  NZ  LYS A 128     -36.699  88.521 206.296  1.00 43.39 LIG-0.08  N 
ATOM     61 HZ1  LYS A 128     -37.482  88.166 206.525  1.00 43.39 LIG 0.27  HD
ATOM     62 HZ2  LYS A 128     -36.056  87.915 206.406  1.00 43.39 LIG 0.27  HD
ATOM     63 HZ3  LYS A 128     -36.531  89.226 206.811  1.00 43.39 LIG 0.27  HD
ENDBRANCH 59 60
ENDBRANCH 58 59
ENDBRANCH 57 58
ENDBRANCH 56 57
ENDBRANCH 54 56
ENDBRANCH 51 54
ENDBRANCH 41 50
ENDBRANCH 39 41
ENDBRANCH 1 37
TORSDOF 29
ENDMDL
MODEL 22
USER: ADFR SOLUTION from run 62
USER: SCORE 18.660498 LL:  -2.122 LR: -19.237 RR:   0.000 FEB: -10.586
USER: RMSD 2.835231
USER: SEED 61
USER: STATUS no improvement in best in 2 clusters for 5 generations
USER: GENES 31
USER: genes 0 Translation |==|  0.44448 0.54122 0.41927
USER: genes 1 Rotation |==|  0.40199 0.47887 0.36729 0.97152
USER: genes 2 Torsion [C]-CA--CB-[CG] |==|  0.50377
USER: genes 3 Torsion [CA]-CB--CG-[CD] |==|  0.35640
USER: genes 4 Torsion [CB]-CG--CD-[NE] |==|  0.33448
USER: genes 5 Torsion [CG]-CD--NE-[HE] |==|  0.96540
USER: genes 6 Torsion [N]-CA--C-[N] |==|  0.43667
USER: genes 7 Torsion [C]-N--CA-[CB] |==|  0.34739
USER: genes 8 Torsion [N]-CA--CB-[CG] |==|  0.37436
USER: genes 9 Torsion [CA]-CB--CG-[CD] |==|  0.22025
USER: genes 10 Torsion [CB]-CG--CD-[CE] |==|  0.03368
USER: genes 11 Torsion [CG]-CD--CE-[NZ] |==|  0.60072
USER: genes 12 Torsion [CD]-CE--NZ-[HZ2] |==|  0.97146
USER: genes 13 Torsion [N]-CA--C-[N] |==|  0.35839
USER: genes 14 Torsion [C]-N--CA-[CB] |==|  0.25967
USER: genes 15 Torsion [N]-CA--C-[O] |==|  0.03884
USER: genes 16 Torsion [N]-CA--CB-[CG1] |==|  0.51653
USER: genes 17 Torsion [CB]-CA--N-[C] |==|  0.47786
USER: genes 18 Torsion [N]-C--CA-[N] |==|  0.29221
USER: genes 19 Torsion [C]-CA--CB-[CG] |==|  0.28901
USER: genes 20 Torsion [CA]-CB--CG-[CD] |==|  0.56415
USER: genes 21 Torsion [CB]-CG--CD-[CE] |==|  0.68192
USER: genes 22 Torsion [CG]-CD--CE-[NZ] |==|  0.43034
USER: genes 23 Torsion [CD]-CE--NZ-[HZ1] |==|  0.43787
USER: genes 24 Torsion [C]-CA--N-[C] |==|  0.77166
USER: genes 25 Torsion [N]-C--CA-[N] |==|  0.90371
USER: genes 26 Torsion [C]-CA--CB-[CG] |==|  0.76901
USER: genes 27 Torsion [CA]-CB--CG-[CD] |==|  0.61478
USER: genes 28 Torsion [CB]-CG--CD-[CE] |==|  0.63953
USER: genes 29 Torsion [CG]-CD--CE-[NZ] |==|  0.22258
USER: genes 30 Torsion [CD]-CE--NZ-[HZ2] |==|  0.19476
ROOT
ATOM      1  CA  ARG A 130     -32.018  87.808 201.076  1.00 33.49 LIG 0.18  C 
ENDROOT
BRANCH 1 2
ATOM      2  CB  ARG A 130     -31.544  86.372 200.845  1.00 35.16 LIG 0.04  C 
BRANCH 2 3
ATOM      3  CG  ARG A 130     -30.573  86.181 199.698  1.00 39.71 LIG 0.02  C 
BRANCH 3 4
ATOM      4  CD  ARG A 130     -29.339  85.416 200.172  1.00 38.05 LIG 0.14  C 
BRANCH 4 5
ATOM      5  NE  ARG A 130     -29.157  84.165 199.434  1.00 39.97 LIG-0.23  N 
ATOM      6 HE   ARG A 130     -29.808  83.890 198.944  1.00 39.97 LIG 0.18  HD
ATOM      7  CZ  ARG A 130     -28.053  83.425 199.469  1.00 35.35 LIG 0.67  C 
ATOM      8  NH1 ARG A 130     -27.022  83.792 200.219  1.00 35.08 LIG-0.23  N 
ATOM      9  NH2 ARG A 130     -27.982  82.307 198.760  1.00 36.08 LIG-0.23  N 
ATOM     10 2HH1 ARG A 130     -26.311  83.308 200.238  1.00 35.08 LIG 0.17  HD
ATOM     11 1HH1 ARG A 130     -27.065  84.513 200.686  1.00 35.08 LIG 0.17  HD
ATOM     12 1HH2 ARG A 130     -28.649  82.062 198.277  1.00 36.08 LIG 0.17  HD
ATOM     13 2HH2 ARG A 130     -27.268  81.828 198.783  1.00 36.08 LIG 0.17  HD
ENDBRANCH 4 5
ENDBRANCH 3 4
ENDBRANCH 2 3
ENDBRANCH 1 2
BRANCH 1 14
ATOM     14  C   ARG A 130     -32.950  87.832 202.273  1.00 35.02 LIG 0.24  C 
ATOM     15  N   LYS A 131     -34.205  87.446 202.065  1.00 32.29 LIG-0.35  N 
ATOM     16 H    LYS A 131     -34.523  87.212 201.302  1.00 32.29 LIG 0.16  HD
ATOM     17 O    ARG A 130     -32.538  88.178 203.377  1.00 31.53 LIG-0.27  OA
BRANCH 15 18
ATOM     18  CA  LYS A 131     -35.155  87.396 203.166  1.00 31.30 LIG 0.18  C 
BRANCH 18 19
ATOM     19  CB  LYS A 131     -36.400  88.234 202.833  1.00 33.79 LIG 0.04  C 
BRANCH 19 20
ATOM     20  CG  LYS A 131     -37.683  87.493 203.185  1.00 34.08 LIG 0.00  C 
BRANCH 20 21
ATOM     21  CD  LYS A 131     -38.030  87.532 204.640  1.00 36.35 LIG 0.03  C 
BRANCH 21 22
ATOM     22  CE  LYS A 131     -37.168  88.558 205.364  1.00 32.79 LIG 0.23  C 
BRANCH 22 23
ATOM     23  NZ  LYS A 131     -36.810  88.096 206.735  1.00 29.22 LIG-0.08  N 
ATOM     24 HZ3  LYS A 131     -35.943  87.897 206.766  1.00 29.22 LIG 0.27  HD
ATOM     25 HZ2  LYS A 131     -37.287  87.372 206.938  1.00 29.22 LIG 0.27  HD
ATOM     26 HZ1  LYS A 131     -36.987  88.741 207.322  1.00 29.22 LIG 0.27  HD
ENDBRANCH 22 23
ENDBRANCH 21 22
ENDBRANCH 20 21
ENDBRANCH 19 20
ENDBRANCH 18 19
BRANCH 18 27
ATOM     27  C   LYS A 131     -35.521  85.948 203.477  1.00 34.74 LIG 0.24  C 
ATOM     28  N   VAL A 132     -35.419  85.566 204.746  1.00 33.85 LIG-0.35  N 
ATOM     29 H    VAL A 132     -35.143  86.076 205.382  1.00 33.85 LIG 0.16  HD
ATOM     30 O    LYS A 131     -35.856  85.180 202.574  1.00 35.56 LIG-0.27  OA
BRANCH 28 31
ATOM     31  CA  VAL A 132     -35.779  84.214 205.165  1.00 36.14 LIG 0.17  C 
BRANCH 31 32
ATOM     32  C   VAL A 132     -36.419  84.200 206.555  1.00 41.88 LIG 0.22  C 
ATOM     33 O    VAL A 132     -36.810  85.253 207.070  1.00 46.22 LIG-0.29  OA
ENDBRANCH 31 32
BRANCH 31 34
ATOM     34  CB  VAL A 132     -34.549  83.276 205.172  1.00 35.83 LIG 0.01  C 
ATOM     35  CG1 VAL A 132     -34.976  81.843 205.469  1.00 39.48 LIG 0.01  C 
ATOM     36  CG2 VAL A 132     -33.825  83.343 203.849  1.00 35.02 LIG 0.01  C 
ENDBRANCH 31 34
ENDBRANCH 28 31
ENDBRANCH 18 27
ENDBRANCH 15 18
ENDBRANCH 1 14
BRANCH 1 37
ATOM     37  N   ARG A 130     -30.890  88.720 201.274  1.00 35.65 LIG-0.35  N 
ATOM     38 H    ARG A 130     -30.128  88.328 201.344  1.00 35.65 LIG 0.16  HD
ATOM     39  C   LYS A 129     -31.051  90.040 201.337  1.00 38.36 LIG 0.24  C 
ATOM     40 O    LYS A 129     -32.142  90.583 201.202  1.00 38.91 LIG-0.27  OA
BRANCH 39 41
ATOM     41  CA  LYS A 129     -29.799  90.871 201.605  1.00 41.62 LIG 0.18  C 
BRANCH 41 42
ATOM     42  CB  LYS A 129     -30.084  91.878 202.716  1.00 37.07 LIG 0.04  C 
BRANCH 42 43
ATOM     43  CG  LYS A 129     -29.491  91.519 204.070  1.00 37.25 LIG 0.00  C 
BRANCH 43 44
ATOM     44  CD  LYS A 129     -30.234  92.196 205.220  1.00 32.25 LIG 0.03  C 
BRANCH 44 45
ATOM     45  CE  LYS A 129     -29.316  93.191 205.920  1.00 33.17 LIG 0.23  C 
BRANCH 45 46
ATOM     46  NZ  LYS A 129     -30.057  94.288 206.619  1.00 31.02 LIG-0.08  N 
ATOM     47 HZ2  LYS A 129     -30.272  94.921 206.033  1.00 31.02 LIG 0.27  HD
ATOM     48 HZ3  LYS A 129     -30.799  93.959 206.985  1.00 31.02 LIG 0.27  HD
ATOM     49 HZ1  LYS A 129     -29.542  94.636 207.256  1.00 31.02 LIG 0.27  HD
ENDBRANCH 45 46
ENDBRANCH 44 45
ENDBRANCH 43 44
ENDBRANCH 42 43
ENDBRANCH 41 42
BRANCH 41 50
ATOM     50  N   LYS A 129     -29.321  91.558 200.404  1.00 48.91 LIG-0.35  N 
ATOM     51  C   LYS A 128     -28.566  90.941 199.495  1.00 46.33 LIG 0.26  C 
ATOM     52 O    LYS A 128     -28.271  89.750 199.565  1.00 48.39 LIG-0.27  OA
ATOM     53 H    LYS A 129     -29.569  92.378 200.344  1.00 48.91 LIG 0.16  HD
BRANCH 51 54
ATOM     54  CA  LYS A 128     -28.083  91.795 198.322  1.00 52.62 LIG 0.40  C 
ATOM     55  N   LYS A 128     -29.087  92.782 197.952  1.00 52.42 LIG 0.61  N 
BRANCH 54 56
ATOM     56  CB  LYS A 128     -26.758  92.482 198.676  1.00 53.69 LIG 0.05  C 
BRANCH 56 57
ATOM     57  CG  LYS A 128     -26.913  93.772 199.469  1.00 48.68 LIG 0.00  C 
BRANCH 57 58
ATOM     58  CD  LYS A 128     -25.953  94.841 198.978  1.00 52.15 LIG 0.03  C 
BRANCH 58 59
ATOM     59  CE  LYS A 128     -25.185  95.449 200.142  1.00 44.05 LIG 0.23  C 
BRANCH 59 60
ATOM     60  NZ  LYS A 128     -24.036  94.607 200.594  1.00 43.39 LIG-0.08  N 
ATOM     61 HZ1  LYS A 128     -24.312  93.770 200.717  1.00 43.39 LIG 0.27  HD
ATOM     62 HZ2  LYS A 128     -23.396  94.620 199.975  1.00 43.39 LIG 0.27  HD
ATOM     63 HZ3  LYS A 128     -23.715  94.928 201.359  1.00 43.39 LIG 0.27  HD
ENDBRANCH 59 60
ENDBRANCH 58 59
ENDBRANCH 57 58
ENDBRANCH 56 57
ENDBRANCH 54 56
ENDBRANCH 51 54
ENDBRANCH 41 50
ENDBRANCH 39 41
ENDBRANCH 1 37
TORSDOF 29
ENDMDL
MODEL 23
USER: ADFR SOLUTION from run 193
USER: SCORE 19.147582 LL:  -1.692 LR: -19.132 RR:   0.000 FEB: -10.481
USER: RMSD 7.447859
USER: SEED 192
USER: STATUS no improvement in best in 2 clusters for 5 generations
USER: GENES 31
USER: genes 0 Translation |==|  0.38898 0.50050 0.54348
USER: genes 1 Rotation |==|  0.55845 0.96391 0.61792 0.63215
USER: genes 2 Torsion [C]-CA--CB-[CG] |==|  0.47439
USER: genes 3 Torsion [CA]-CB--CG-[CD] |==|  0.64852
USER: genes 4 Torsion [CB]-CG--CD-[NE] |==|  0.40368
USER: genes 5 Torsion [CG]-CD--NE-[HE] |==|  0.19690
USER: genes 6 Torsion [N]-CA--C-[N] |==|  0.87491
USER: genes 7 Torsion [C]-N--CA-[CB] |==|  0.77895
USER: genes 8 Torsion [N]-CA--CB-[CG] |==|  0.50405
USER: genes 9 Torsion [CA]-CB--CG-[CD] |==|  0.65867
USER: genes 10 Torsion [CB]-CG--CD-[CE] |==|  0.31793
USER: genes 11 Torsion [CG]-CD--CE-[NZ] |==|  0.56017
USER: genes 12 Torsion [CD]-CE--NZ-[HZ2] |==|  0.00300
USER: genes 13 Torsion [N]-CA--C-[N] |==|  0.22778
USER: genes 14 Torsion [C]-N--CA-[CB] |==|  0.81319
USER: genes 15 Torsion [N]-CA--C-[O] |==|  0.05359
USER: genes 16 Torsion [N]-CA--CB-[CG1] |==|  0.93532
USER: genes 17 Torsion [CB]-CA--N-[C] |==|  0.47803
USER: genes 18 Torsion [N]-C--CA-[N] |==|  0.05125
USER: genes 19 Torsion [C]-CA--CB-[CG] |==|  0.22039
USER: genes 20 Torsion [CA]-CB--CG-[CD] |==|  0.34098
USER: genes 21 Torsion [CB]-CG--CD-[CE] |==|  0.27914
USER: genes 22 Torsion [CG]-CD--CE-[NZ] |==|  0.66606
USER: genes 23 Torsion [CD]-CE--NZ-[HZ1] |==|  0.55109
USER: genes 24 Torsion [C]-CA--N-[C] |==|  0.69864
USER: genes 25 Torsion [N]-C--CA-[N] |==|  0.47244
USER: genes 26 Torsion [C]-CA--CB-[CG] |==|  0.30094
USER: genes 27 Torsion [CA]-CB--CG-[CD] |==|  0.73995
USER: genes 28 Torsion [CB]-CG--CD-[CE] |==|  0.65408
USER: genes 29 Torsion [CG]-CD--CE-[NZ] |==|  0.56575
USER: genes 30 Torsion [CD]-CE--NZ-[HZ2] |==|  0.50184
ROOT
ATOM      1  CA  ARG A 130     -33.225  86.800 203.219  1.00 33.49 LIG 0.18  C 
ENDROOT
BRANCH 1 2
ATOM      2  CB  ARG A 130     -34.596  86.187 202.932  1.00 35.16 LIG 0.04  C 
BRANCH 2 3
ATOM      3  CG  ARG A 130     -35.665  86.463 203.970  1.00 39.71 LIG 0.02  C 
BRANCH 3 4
ATOM      4  CD  ARG A 130     -36.291  85.153 204.444  1.00 38.05 LIG 0.14  C 
BRANCH 4 5
ATOM      5  NE  ARG A 130     -36.655  85.205 205.861  1.00 39.97 LIG-0.23  N 
ATOM      6 HE   ARG A 130     -37.322  85.700 206.086  1.00 39.97 LIG 0.18  HD
ATOM      7  CZ  ARG A 130     -36.026  84.538 206.825  1.00 35.35 LIG 0.67  C 
ATOM      8  NH1 ARG A 130     -34.983  83.770 206.539  1.00 35.08 LIG-0.23  N 
ATOM      9  NH2 ARG A 130     -36.435  84.646 208.080  1.00 36.08 LIG-0.23  N 
ATOM     10 2HH1 ARG A 130     -34.580  83.342 207.166  1.00 35.08 LIG 0.17  HD
ATOM     11 1HH1 ARG A 130     -34.710  83.701 205.726  1.00 35.08 LIG 0.17  HD
ATOM     12 1HH2 ARG A 130     -37.107  85.147 208.272  1.00 36.08 LIG 0.17  HD
ATOM     13 2HH2 ARG A 130     -36.028  84.215 208.704  1.00 36.08 LIG 0.17  HD
ENDBRANCH 4 5
ENDBRANCH 3 4
ENDBRANCH 2 3
ENDBRANCH 1 2
BRANCH 1 14
ATOM     14  C   ARG A 130     -32.221  86.250 202.223  1.00 35.02 LIG 0.24  C 
ATOM     15  N   LYS A 131     -32.239  86.772 201.000  1.00 32.29 LIG-0.35  N 
ATOM     16 H    LYS A 131     -32.793  87.374 200.735  1.00 32.29 LIG 0.16  HD
ATOM     17 O    ARG A 130     -31.425  85.377 202.558  1.00 31.53 LIG-0.27  OA
BRANCH 15 18
ATOM     18  CA  LYS A 131     -31.282  86.334 199.995  1.00 31.30 LIG 0.18  C 
BRANCH 18 19
ATOM     19  CB  LYS A 131     -29.925  87.022 200.219  1.00 33.79 LIG 0.04  C 
BRANCH 19 20
ATOM     20  CG  LYS A 131     -28.910  86.611 199.161  1.00 34.08 LIG 0.00  C 
BRANCH 20 21
ATOM     21  CD  LYS A 131     -27.660  86.006 199.717  1.00 36.35 LIG 0.03  C 
BRANCH 21 22
ATOM     22  CE  LYS A 131     -27.548  84.545 199.303  1.00 32.79 LIG 0.23  C 
BRANCH 22 23
ATOM     23  NZ  LYS A 131     -26.649  83.788 200.220  1.00 29.22 LIG-0.08  N 
ATOM     24 HZ3  LYS A 131     -27.099  83.115 200.591  1.00 29.22 LIG 0.27  HD
ATOM     25 HZ2  LYS A 131     -26.350  84.332 200.858  1.00 29.22 LIG 0.27  HD
ATOM     26 HZ1  LYS A 131     -25.959  83.465 199.760  1.00 29.22 LIG 0.27  HD
ENDBRANCH 22 23
ENDBRANCH 21 22
ENDBRANCH 20 21
ENDBRANCH 19 20
ENDBRANCH 18 19
BRANCH 18 27
ATOM     27  C   LYS A 131     -31.152  84.815 200.023  1.00 34.74 LIG 0.24  C 
ATOM     28  N   VAL A 132     -32.080  84.125 199.367  1.00 33.85 LIG-0.35  N 
ATOM     29 H    VAL A 132     -32.747  84.482 198.957  1.00 33.85 LIG 0.16  HD
ATOM     30 O    LYS A 131     -30.244  84.275 200.658  1.00 35.56 LIG-0.27  OA
BRANCH 28 31
ATOM     31  CA  VAL A 132     -32.035  82.667 199.294  1.00 36.14 LIG 0.17  C 
BRANCH 31 32
ATOM     32  C   VAL A 132     -31.968  82.029 200.684  1.00 41.88 LIG 0.22  C 
ATOM     33 O    VAL A 132     -32.310  82.674 201.681  1.00 46.22 LIG-0.29  OA
ENDBRANCH 31 32
BRANCH 31 34
ATOM     34  CB  VAL A 132     -30.826  82.178 198.462  1.00 35.83 LIG 0.01  C 
ATOM     35  CG1 VAL A 132     -30.368  83.270 197.500  1.00 39.48 LIG 0.01  C 
ATOM     36  CG2 VAL A 132     -29.691  81.768 199.367  1.00 35.02 LIG 0.01  C 
ENDBRANCH 31 34
ENDBRANCH 28 31
ENDBRANCH 18 27
ENDBRANCH 15 18
ENDBRANCH 1 14
BRANCH 1 37
ATOM     37  N   ARG A 130     -33.269  88.263 203.164  1.00 35.65 LIG-0.35  N 
ATOM     38 H    ARG A 130     -34.013  88.582 202.877  1.00 35.65 LIG 0.16  HD
ATOM     39  C   LYS A 129     -32.233  89.015 203.530  1.00 38.36 LIG 0.24  C 
ATOM     40 O    LYS A 129     -31.190  88.541 203.969  1.00 38.91 LIG-0.27  OA
BRANCH 39 41
ATOM     41  CA  LYS A 129     -32.392  90.524 203.368  1.00 41.62 LIG 0.18  C 
BRANCH 41 42
ATOM     42  CB  LYS A 129     -31.741  91.234 204.553  1.00 37.07 LIG 0.04  C 
BRANCH 42 43
ATOM     43  CG  LYS A 129     -30.227  91.356 204.469  1.00 37.25 LIG 0.00  C 
BRANCH 43 44
ATOM     44  CD  LYS A 129     -29.761  92.808 204.549  1.00 32.25 LIG 0.03  C 
BRANCH 44 45
ATOM     45  CE  LYS A 129     -29.269  93.122 205.956  1.00 33.17 LIG 0.23  C 
BRANCH 45 46
ATOM     46  NZ  LYS A 129     -30.033  94.227 206.617  1.00 31.02 LIG-0.08  N 
ATOM     47 HZ2  LYS A 129     -30.185  94.876 206.027  1.00 31.02 LIG 0.27  HD
ATOM     48 HZ3  LYS A 129     -30.810  93.913 206.918  1.00 31.02 LIG 0.27  HD
ATOM     49 HZ1  LYS A 129     -29.560  94.550 207.299  1.00 31.02 LIG 0.27  HD
ENDBRANCH 45 46
ENDBRANCH 44 45
ENDBRANCH 43 44
ENDBRANCH 42 43
ENDBRANCH 41 42
BRANCH 41 50
ATOM     50  N   LYS A 129     -33.794  90.925 203.242  1.00 48.91 LIG-0.35  N 
ATOM     51  C   LYS A 128     -34.301  91.353 202.086  1.00 46.33 LIG 0.26  C 
ATOM     52 O    LYS A 128     -33.654  91.383 201.041  1.00 48.39 LIG-0.27  OA
ATOM     53 H    LYS A 129     -34.248  90.858 203.969  1.00 48.91 LIG 0.16  HD
BRANCH 51 54
ATOM     54  CA  LYS A 128     -35.763  91.801 202.110  1.00 52.62 LIG 0.40  C 
ATOM     55  N   LYS A 128     -36.123  92.457 200.861  1.00 52.42 LIG 0.61  N 
BRANCH 54 56
ATOM     56  CB  LYS A 128     -36.682  90.601 202.371  1.00 53.69 LIG 0.05  C 
BRANCH 56 57
ATOM     57  CG  LYS A 128     -37.319  90.588 203.753  1.00 48.68 LIG 0.00  C 
BRANCH 57 58
ATOM     58  CD  LYS A 128     -36.493  89.774 204.734  1.00 52.15 LIG 0.03  C 
BRANCH 58 59
ATOM     59  CE  LYS A 128     -37.339  88.685 205.375  1.00 44.05 LIG 0.23  C 
BRANCH 59 60
ATOM     60  NZ  LYS A 128     -36.810  88.230 206.697  1.00 43.39 LIG-0.08  N 
ATOM     61 HZ1  LYS A 128     -36.795  88.916 207.263  1.00 43.39 LIG 0.27  HD
ATOM     62 HZ2  LYS A 128     -37.335  87.589 207.023  1.00 43.39 LIG 0.27  HD
ATOM     63 HZ3  LYS A 128     -35.986  87.913 206.594  1.00 43.39 LIG 0.27  HD
ENDBRANCH 59 60
ENDBRANCH 58 59
ENDBRANCH 57 58
ENDBRANCH 56 57
ENDBRANCH 54 56
ENDBRANCH 51 54
ENDBRANCH 41 50
ENDBRANCH 39 41
ENDBRANCH 1 37
TORSDOF 29
ENDMDL
MODEL 24
USER: ADFR SOLUTION from run 168
USER: SCORE 18.406910 LL:  -1.564 LR: -19.071 RR:   0.000 FEB: -10.420
USER: RMSD 4.513428
USER: SEED 167
USER: STATUS 1 or 2 clusters left
USER: GENES 31
USER: genes 0 Translation |==|  0.45089 0.49301 0.43789
USER: genes 1 Rotation |==|  0.48117 0.47051 0.53176 0.99776
USER: genes 2 Torsion [C]-CA--CB-[CG] |==|  0.21176
USER: genes 3 Torsion [CA]-CB--CG-[CD] |==|  0.40477
USER: genes 4 Torsion [CB]-CG--CD-[NE] |==|  0.13963
USER: genes 5 Torsion [CG]-CD--NE-[HE] |==|  0.76738
USER: genes 6 Torsion [N]-CA--C-[N] |==|  0.25371
USER: genes 7 Torsion [C]-N--CA-[CB] |==|  0.47290
USER: genes 8 Torsion [N]-CA--CB-[CG] |==|  0.65241
USER: genes 9 Torsion [CA]-CB--CG-[CD] |==|  0.74889
USER: genes 10 Torsion [CB]-CG--CD-[CE] |==|  0.29440
USER: genes 11 Torsion [CG]-CD--CE-[NZ] |==|  0.21382
USER: genes 12 Torsion [CD]-CE--NZ-[HZ2] |==|  0.90770
USER: genes 13 Torsion [N]-CA--C-[N] |==|  0.49831
USER: genes 14 Torsion [C]-N--CA-[CB] |==|  0.33223
USER: genes 15 Torsion [N]-CA--C-[O] |==|  0.17986
USER: genes 16 Torsion [N]-CA--CB-[CG1] |==|  0.28577
USER: genes 17 Torsion [CB]-CA--N-[C] |==|  0.50708
USER: genes 18 Torsion [N]-C--CA-[N] |==|  0.48888
USER: genes 19 Torsion [C]-CA--CB-[CG] |==|  0.42561
USER: genes 20 Torsion [CA]-CB--CG-[CD] |==|  0.30865
USER: genes 21 Torsion [CB]-CG--CD-[CE] |==|  0.60542
USER: genes 22 Torsion [CG]-CD--CE-[NZ] |==|  0.44620
USER: genes 23 Torsion [CD]-CE--NZ-[HZ1] |==|  0.09574
USER: genes 24 Torsion [C]-CA--N-[C] |==|  0.67572
USER: genes 25 Torsion [N]-C--CA-[N] |==|  0.46636
USER: genes 26 Torsion [C]-CA--CB-[CG] |==|  0.24223
USER: genes 27 Torsion [CA]-CB--CG-[CD] |==|  0.66726
USER: genes 28 Torsion [CB]-CG--CD-[CE] |==|  0.64249
USER: genes 29 Torsion [CG]-CD--CE-[NZ] |==|  0.83253
USER: genes 30 Torsion [CD]-CE--NZ-[HZ2] |==|  0.32277
ROOT
ATOM      1  CA  ARG A 130     -31.878  86.615 201.398  1.00 33.49 LIG 0.18  C 
ENDROOT
BRANCH 1 2
ATOM      2  CB  ARG A 130     -30.645  85.913 200.826  1.00 35.16 LIG 0.04  C 
BRANCH 2 3
ATOM      3  CG  ARG A 130     -30.928  84.766 199.877  1.00 39.71 LIG 0.02  C 
BRANCH 3 4
ATOM      4  CD  ARG A 130     -29.859  84.707 198.788  1.00 38.05 LIG 0.14  C 
BRANCH 4 5
ATOM      5  NE  ARG A 130     -28.507  84.737 199.349  1.00 39.97 LIG-0.23  N 
ATOM      6 HE   ARG A 130     -28.169  85.504 199.538  1.00 39.97 LIG 0.18  HD
ATOM      7  CZ  ARG A 130     -27.767  83.658 199.586  1.00 35.35 LIG 0.67  C 
ATOM      8  NH1 ARG A 130     -28.231  82.448 199.301  1.00 35.08 LIG-0.23  N 
ATOM      9  NH2 ARG A 130     -26.553  83.788 200.102  1.00 36.08 LIG-0.23  N 
ATOM     10 2HH1 ARG A 130     -27.748  81.755 199.457  1.00 35.08 LIG 0.17  HD
ATOM     11 1HH1 ARG A 130     -29.016  82.359 198.960  1.00 35.08 LIG 0.17  HD
ATOM     12 1HH2 ARG A 130     -26.245  84.570 200.283  1.00 36.08 LIG 0.17  HD
ATOM     13 2HH2 ARG A 130     -26.074  83.090 200.256  1.00 36.08 LIG 0.17  HD
ENDBRANCH 4 5
ENDBRANCH 3 4
ENDBRANCH 2 3
ENDBRANCH 1 2
BRANCH 1 14
ATOM     14  C   ARG A 130     -32.485  85.742 202.480  1.00 35.02 LIG 0.24  C 
ATOM     15  N   LYS A 131     -33.809  85.761 202.597  1.00 32.29 LIG-0.35  N 
ATOM     16 H    LYS A 131     -34.333  86.251 202.123  1.00 32.29 LIG 0.16  HD
ATOM     17 O    ARG A 130     -31.768  85.042 203.190  1.00 31.53 LIG-0.27  OA
BRANCH 15 18
ATOM     18  CA  LYS A 131     -34.477  84.920 203.579  1.00 31.30 LIG 0.18  C 
BRANCH 18 19
ATOM     19  CB  LYS A 131     -35.963  85.302 203.683  1.00 33.79 LIG 0.04  C 
BRANCH 19 20
ATOM     20  CG  LYS A 131     -36.355  85.630 205.117  1.00 34.08 LIG 0.00  C 
BRANCH 20 21
ATOM     21  CD  LYS A 131     -36.843  84.452 205.901  1.00 36.35 LIG 0.03  C 
BRANCH 21 22
ATOM     22  CE  LYS A 131     -35.786  84.007 206.903  1.00 32.79 LIG 0.23  C 
BRANCH 22 23
ATOM     23  NZ  LYS A 131     -35.747  84.911 208.088  1.00 29.22 LIG-0.08  N 
ATOM     24 HZ3  LYS A 131     -36.341  84.637 208.691  1.00 29.22 LIG 0.27  HD
ATOM     25 HZ2  LYS A 131     -35.943  85.741 207.834  1.00 29.22 LIG 0.27  HD
ATOM     26 HZ1  LYS A 131     -34.933  84.896 208.446  1.00 29.22 LIG 0.27  HD
ENDBRANCH 22 23
ENDBRANCH 21 22
ENDBRANCH 20 21
ENDBRANCH 19 20
ENDBRANCH 18 19
BRANCH 18 27
ATOM     27  C   LYS A 131     -34.299  83.450 203.216  1.00 34.74 LIG 0.24  C 
ATOM     28  N   VAL A 132     -34.850  82.562 204.037  1.00 33.85 LIG-0.35  N 
ATOM     29 H    VAL A 132     -35.273  82.769 204.758  1.00 33.85 LIG 0.16  HD
ATOM     30 O    LYS A 131     -33.643  83.125 202.225  1.00 35.56 LIG-0.27  OA
BRANCH 28 31
ATOM     31  CA  VAL A 132     -34.777  81.128 203.768  1.00 36.14 LIG 0.17  C 
BRANCH 31 32
ATOM     32  C   VAL A 132     -36.165  80.511 203.580  1.00 41.88 LIG 0.22  C 
ATOM     33 O    VAL A 132     -36.870  80.850 202.623  1.00 46.22 LIG-0.29  OA
ENDBRANCH 31 32
BRANCH 31 34
ATOM     34  CB  VAL A 132     -34.046  80.375 204.904  1.00 35.83 LIG 0.01  C 
ATOM     35  CG1 VAL A 132     -35.051  79.655 205.797  1.00 39.48 LIG 0.01  C 
ATOM     36  CG2 VAL A 132     -33.054  79.391 204.334  1.00 35.02 LIG 0.01  C 
ENDBRANCH 31 34
ENDBRANCH 28 31
ENDBRANCH 18 27
ENDBRANCH 15 18
ENDBRANCH 1 14
BRANCH 1 37
ATOM     37  N   ARG A 130     -31.546  87.941 201.921  1.00 35.65 LIG-0.35  N 
ATOM     38 H    ARG A 130     -30.724  88.167 201.811  1.00 35.65 LIG 0.16  HD
ATOM     39  C   LYS A 129     -32.453  88.715 202.512  1.00 38.36 LIG 0.24  C 
ATOM     40 O    LYS A 129     -33.630  88.389 202.629  1.00 38.91 LIG-0.27  OA
BRANCH 39 41
ATOM     41  CA  LYS A 129     -31.959  90.050 203.064  1.00 41.62 LIG 0.18  C 
BRANCH 41 42
ATOM     42  CB  LYS A 129     -30.899  89.798 204.133  1.00 37.07 LIG 0.04  C 
BRANCH 42 43
ATOM     43  CG  LYS A 129     -29.893  90.925 204.311  1.00 37.25 LIG 0.00  C 
BRANCH 43 44
ATOM     44  CD  LYS A 129     -30.060  91.639 205.651  1.00 32.25 LIG 0.03  C 
BRANCH 44 45
ATOM     45  CE  LYS A 129     -29.827  93.135 205.477  1.00 33.17 LIG 0.23  C 
BRANCH 45 46
ATOM     46  NZ  LYS A 129     -30.404  93.955 206.589  1.00 31.02 LIG-0.08  N 
ATOM     47 HZ2  LYS A 129     -29.956  94.721 206.656  1.00 31.02 LIG 0.27  HD
ATOM     48 HZ3  LYS A 129     -31.261  94.127 206.417  1.00 31.02 LIG 0.27  HD
ATOM     49 HZ1  LYS A 129     -30.340  93.506 207.354  1.00 31.02 LIG 0.27  HD
ENDBRANCH 45 46
ENDBRANCH 44 45
ENDBRANCH 43 44
ENDBRANCH 42 43
ENDBRANCH 41 42
BRANCH 41 50
ATOM     50  N   LYS A 129     -33.048  90.862 203.608  1.00 48.91 LIG-0.35  N 
ATOM     51  C   LYS A 128     -33.374  92.043 203.083  1.00 46.33 LIG 0.26  C 
ATOM     52 O    LYS A 128     -32.833  92.503 202.080  1.00 48.39 LIG-0.27  OA
ATOM     53 H    LYS A 129     -33.448  90.512 204.283  1.00 48.91 LIG 0.16  HD
BRANCH 51 54
ATOM     54  CA  LYS A 128     -34.488  92.817 203.790  1.00 52.62 LIG 0.40  C 
ATOM     55  N   LYS A 128     -34.553  94.188 203.306  1.00 52.42 LIG 0.61  N 
BRANCH 54 56
ATOM     56  CB  LYS A 128     -35.835  92.111 203.587  1.00 53.69 LIG 0.05  C 
BRANCH 56 57
ATOM     57  CG  LYS A 128     -36.141  91.034 204.618  1.00 48.68 LIG 0.00  C 
BRANCH 57 58
ATOM     58  CD  LYS A 128     -36.319  89.676 203.961  1.00 52.15 LIG 0.03  C 
BRANCH 58 59
ATOM     59  CE  LYS A 128     -37.619  89.028 204.410  1.00 44.05 LIG 0.23  C 
BRANCH 59 60
ATOM     60  NZ  LYS A 128     -37.685  88.802 205.887  1.00 43.39 LIG-0.08  N 
ATOM     61 HZ1  LYS A 128     -36.913  89.041 206.258  1.00 43.39 LIG 0.27  HD
ATOM     62 HZ2  LYS A 128     -38.344  89.290 206.233  1.00 43.39 LIG 0.27  HD
ATOM     63 HZ3  LYS A 128     -37.839  87.941 206.048  1.00 43.39 LIG 0.27  HD
ENDBRANCH 59 60
ENDBRANCH 58 59
ENDBRANCH 57 58
ENDBRANCH 56 57
ENDBRANCH 54 56
ENDBRANCH 51 54
ENDBRANCH 41 50
ENDBRANCH 39 41
ENDBRANCH 1 37
TORSDOF 29
ENDMDL
MODEL 25
USER: ADFR SOLUTION from run 158
USER: SCORE 18.725639 LL:  -2.080 LR: -19.042 RR:   0.000 FEB: -10.392
USER: RMSD 9.267808
USER: SEED 157
USER: STATUS no improvement in best in 9 clusters for 5 generations
USER: GENES 31
USER: genes 0 Translation |==|  0.44858 0.59106 0.56369
USER: genes 1 Rotation |==|  0.01286 0.49235 0.60886 0.52801
USER: genes 2 Torsion [C]-CA--CB-[CG] |==|  0.12903
USER: genes 3 Torsion [CA]-CB--CG-[CD] |==|  0.57526
USER: genes 4 Torsion [CB]-CG--CD-[NE] |==|  0.56314
USER: genes 5 Torsion [CG]-CD--NE-[HE] |==|  0.68838
USER: genes 6 Torsion [N]-CA--C-[N] |==|  0.33051
USER: genes 7 Torsion [C]-N--CA-[CB] |==|  0.36072
USER: genes 8 Torsion [N]-CA--CB-[CG] |==|  0.98087
USER: genes 9 Torsion [CA]-CB--CG-[CD] |==|  0.37875
USER: genes 10 Torsion [CB]-CG--CD-[CE] |==|  0.64206
USER: genes 11 Torsion [CG]-CD--CE-[NZ] |==|  0.24147
USER: genes 12 Torsion [CD]-CE--NZ-[HZ2] |==|  0.58946
USER: genes 13 Torsion [N]-CA--C-[N] |==|  0.17499
USER: genes 14 Torsion [C]-N--CA-[CB] |==|  0.45890
USER: genes 15 Torsion [N]-CA--C-[O] |==|  0.19208
USER: genes 16 Torsion [N]-CA--CB-[CG1] |==|  0.13186
USER: genes 17 Torsion [CB]-CA--N-[C] |==|  0.51674
USER: genes 18 Torsion [N]-C--CA-[N] |==|  0.99603
USER: genes 19 Torsion [C]-CA--CB-[CG] |==|  0.98874
USER: genes 20 Torsion [CA]-CB--CG-[CD] |==|  0.36089
USER: genes 21 Torsion [CB]-CG--CD-[CE] |==|  0.54739
USER: genes 22 Torsion [CG]-CD--CE-[NZ] |==|  0.59042
USER: genes 23 Torsion [CD]-CE--NZ-[HZ1] |==|  0.27581
USER: genes 24 Torsion [C]-CA--N-[C] |==|  0.74965
USER: genes 25 Torsion [N]-C--CA-[N] |==|  0.71461
USER: genes 26 Torsion [C]-CA--CB-[CG] |==|  0.30015
USER: genes 27 Torsion [CA]-CB--CG-[CD] |==|  0.85883
USER: genes 28 Torsion [CB]-CG--CD-[CE] |==|  0.63614
USER: genes 29 Torsion [CG]-CD--CE-[NZ] |==|  0.95646
USER: genes 30 Torsion [CD]-CE--NZ-[HZ2] |==|  0.18197
ROOT
ATOM      1  CA  ARG A 130     -31.928  89.042 203.568  1.00 33.49 LIG 0.18  C 
ENDROOT
BRANCH 1 2
ATOM      2  CB  ARG A 130     -30.650  89.813 203.900  1.00 35.16 LIG 0.04  C 
BRANCH 2 3
ATOM      3  CG  ARG A 130     -30.852  91.142 204.599  1.00 39.71 LIG 0.02  C 
BRANCH 3 4
ATOM      4  CD  ARG A 130     -29.690  92.084 204.290  1.00 38.05 LIG 0.14  C 
BRANCH 4 5
ATOM      5  NE  ARG A 130     -29.546  93.125 205.308  1.00 39.97 LIG-0.23  N 
ATOM      6 HE   ARG A 130     -29.718  93.936 205.079  1.00 39.97 LIG 0.18  HD
ATOM      7  CZ  ARG A 130     -29.168  92.903 206.563  1.00 35.35 LIG 0.67  C 
ATOM      8  NH1 ARG A 130     -28.876  91.673 206.969  1.00 35.08 LIG-0.23  N 
ATOM      9  NH2 ARG A 130     -29.071  93.913 207.415  1.00 36.08 LIG-0.23  N 
ATOM     10 2HH1 ARG A 130     -28.632  91.536 207.782  1.00 35.08 LIG 0.17  HD
ATOM     11 1HH1 ARG A 130     -28.931  91.014 206.419  1.00 35.08 LIG 0.17  HD
ATOM     12 1HH2 ARG A 130     -29.253  94.712 207.156  1.00 36.08 LIG 0.17  HD
ATOM     13 2HH2 ARG A 130     -28.826  93.769 208.227  1.00 36.08 LIG 0.17  HD
ENDBRANCH 4 5
ENDBRANCH 3 4
ENDBRANCH 2 3
ENDBRANCH 1 2
BRANCH 1 14
ATOM     14  C   ARG A 130     -32.930  89.994 202.942  1.00 35.02 LIG 0.24  C 
ATOM     15  N   LYS A 131     -34.073  90.180 203.594  1.00 32.29 LIG-0.35  N 
ATOM     16 H    LYS A 131     -34.288  89.780 204.324  1.00 32.29 LIG 0.16  HD
ATOM     17 O    ARG A 130     -32.667  90.572 201.890  1.00 31.53 LIG-0.27  OA
BRANCH 15 18
ATOM     18  CA  LYS A 131     -35.071  91.110 203.088  1.00 31.30 LIG 0.18  C 
BRANCH 18 19
ATOM     19  CB  LYS A 131     -36.451  90.434 203.035  1.00 33.79 LIG 0.04  C 
BRANCH 19 20
ATOM     20  CG  LYS A 131     -36.357  88.949 203.361  1.00 34.08 LIG 0.00  C 
BRANCH 20 21
ATOM     21  CD  LYS A 131     -37.427  88.460 204.286  1.00 36.35 LIG 0.03  C 
BRANCH 21 22
ATOM     22  CE  LYS A 131     -36.812  87.693 205.449  1.00 32.79 LIG 0.23  C 
BRANCH 22 23
ATOM     23  NZ  LYS A 131     -36.435  88.608 206.564  1.00 29.22 LIG-0.08  N 
ATOM     24 HZ3  LYS A 131     -36.252  89.416 206.237  1.00 29.22 LIG 0.27  HD
ATOM     25 HZ2  LYS A 131     -35.716  88.288 206.980  1.00 29.22 LIG 0.27  HD
ATOM     26 HZ1  LYS A 131     -37.109  88.668 207.141  1.00 29.22 LIG 0.27  HD
ENDBRANCH 22 23
ENDBRANCH 21 22
ENDBRANCH 20 21
ENDBRANCH 19 20
ENDBRANCH 18 19
BRANCH 18 27
ATOM     27  C   LYS A 131     -35.096  92.369 203.949  1.00 34.74 LIG 0.24  C 
ATOM     28  N   VAL A 132     -33.985  93.099 203.970  1.00 33.85 LIG-0.35  N 
ATOM     29 H    VAL A 132     -33.263  92.891 203.551  1.00 33.85 LIG 0.16  HD
ATOM     30 O    LYS A 131     -36.095  92.655 204.610  1.00 35.56 LIG-0.27  OA
BRANCH 28 31
ATOM     31  CA  VAL A 132     -33.908  94.345 204.729  1.00 36.14 LIG 0.17  C 
BRANCH 31 32
ATOM     32  C   VAL A 132     -34.710  95.467 204.066  1.00 41.88 LIG 0.22  C 
ATOM     33 O    VAL A 132     -35.945  95.416 204.040  1.00 46.22 LIG-0.29  OA
ENDBRANCH 31 32
BRANCH 31 34
ATOM     34  CB  VAL A 132     -32.444  94.813 204.903  1.00 35.83 LIG 0.01  C 
ATOM     35  CG1 VAL A 132     -31.705  94.753 203.570  1.00 39.48 LIG 0.01  C 
ATOM     36  CG2 VAL A 132     -32.399  96.213 205.464  1.00 35.02 LIG 0.01  C 
ENDBRANCH 31 34
ENDBRANCH 28 31
ENDBRANCH 18 27
ENDBRANCH 15 18
ENDBRANCH 1 14
BRANCH 1 37
ATOM     37  N   ARG A 130     -31.657  87.911 202.679  1.00 35.65 LIG-0.35  N 
ATOM     38 H    ARG A 130     -30.822  87.775 202.526  1.00 35.65 LIG 0.16  HD
ATOM     39  C   LYS A 129     -32.633  87.168 202.163  1.00 38.36 LIG 0.24  C 
ATOM     40 O    LYS A 129     -33.817  87.355 202.419  1.00 38.91 LIG-0.27  OA
BRANCH 39 41
ATOM     41  CA  LYS A 129     -32.213  86.055 201.205  1.00 41.62 LIG 0.18  C 
BRANCH 41 42
ATOM     42  CB  LYS A 129     -32.703  84.712 201.741  1.00 37.07 LIG 0.04  C 
BRANCH 42 43
ATOM     43  CG  LYS A 129     -33.381  84.777 203.101  1.00 37.25 LIG 0.00  C 
BRANCH 43 44
ATOM     44  CD  LYS A 129     -34.730  84.059 203.106  1.00 32.25 LIG 0.03  C 
BRANCH 44 45
ATOM     45  CE  LYS A 129     -35.549  84.496 204.314  1.00 33.17 LIG 0.23  C 
BRANCH 45 46
ATOM     46  NZ  LYS A 129     -36.434  83.413 204.850  1.00 31.02 LIG-0.08  N 
ATOM     47 HZ2  LYS A 129     -37.215  83.763 205.093  1.00 31.02 LIG 0.27  HD
ATOM     48 HZ3  LYS A 129     -36.568  82.800 204.218  1.00 31.02 LIG 0.27  HD
ATOM     49 HZ1  LYS A 129     -36.046  83.033 205.555  1.00 31.02 LIG 0.27  HD
ENDBRANCH 45 46
ENDBRANCH 44 45
ENDBRANCH 43 44
ENDBRANCH 42 43
ENDBRANCH 41 42
BRANCH 41 50
ATOM     50  N   LYS A 129     -30.766  86.022 200.993  1.00 48.91 LIG-0.35  N 
ATOM     51  C   LYS A 128     -30.183  86.714 200.014  1.00 46.33 LIG 0.26  C 
ATOM     52 O    LYS A 128     -30.802  87.470 199.268  1.00 48.39 LIG-0.27  OA
ATOM     53 H    LYS A 129     -30.338  85.524 201.548  1.00 48.91 LIG 0.16  HD
BRANCH 51 54
ATOM     54  CA  LYS A 128     -28.672  86.538 199.864  1.00 52.62 LIG 0.40  C 
ATOM     55  N   LYS A 128     -27.960  87.681 200.418  1.00 52.42 LIG 0.61  N 
BRANCH 54 56
ATOM     56  CB  LYS A 128     -28.218  85.241 200.547  1.00 53.69 LIG 0.05  C 
BRANCH 56 57
ATOM     57  CG  LYS A 128     -27.815  84.133 199.584  1.00 48.68 LIG 0.00  C 
BRANCH 57 58
ATOM     58  CD  LYS A 128     -28.885  83.899 198.532  1.00 52.15 LIG 0.03  C 
BRANCH 58 59
ATOM     59  CE  LYS A 128     -29.211  82.419 198.417  1.00 44.05 LIG 0.23  C 
BRANCH 59 60
ATOM     60  NZ  LYS A 128     -28.185  81.538 199.054  1.00 43.39 LIG-0.08  N 
ATOM     61 HZ1  LYS A 128     -27.383  81.727 198.719  1.00 43.39 LIG 0.27  HD
ATOM     62 HZ2  LYS A 128     -28.179  81.676 199.933  1.00 43.39 LIG 0.27  HD
ATOM     63 HZ3  LYS A 128     -28.381  80.686 198.889  1.00 43.39 LIG 0.27  HD
ENDBRANCH 59 60
ENDBRANCH 58 59
ENDBRANCH 57 58
ENDBRANCH 56 57
ENDBRANCH 54 56
ENDBRANCH 51 54
ENDBRANCH 41 50
ENDBRANCH 39 41
ENDBRANCH 1 37
TORSDOF 29
ENDMDL
MODEL 26
USER: ADFR SOLUTION from run 103
USER: SCORE 19.384954 LL:  -1.672 LR: -18.999 RR:   0.000 FEB: -10.349
USER: RMSD 5.868756
USER: SEED 102
USER: STATUS no improvement in best in 3 clusters for 5 generations
USER: GENES 31
USER: genes 0 Translation |==|  0.46867 0.58821 0.48809
USER: genes 1 Rotation |==|  0.13286 0.23873 0.70278 0.57633
USER: genes 2 Torsion [C]-CA--CB-[CG] |==|  0.22201
USER: genes 3 Torsion [CA]-CB--CG-[CD] |==|  0.47328
USER: genes 4 Torsion [CB]-CG--CD-[NE] |==|  0.67370
USER: genes 5 Torsion [CG]-CD--NE-[HE] |==|  0.07611
USER: genes 6 Torsion [N]-CA--C-[N] |==|  0.50094
USER: genes 7 Torsion [C]-N--CA-[CB] |==|  0.84761
USER: genes 8 Torsion [N]-CA--CB-[CG] |==|  0.43268
USER: genes 9 Torsion [CA]-CB--CG-[CD] |==|  0.16910
USER: genes 10 Torsion [CB]-CG--CD-[CE] |==|  0.04257
USER: genes 11 Torsion [CG]-CD--CE-[NZ] |==|  0.65241
USER: genes 12 Torsion [CD]-CE--NZ-[HZ2] |==|  0.92340
USER: genes 13 Torsion [N]-CA--C-[N] |==|  0.32778
USER: genes 14 Torsion [C]-N--CA-[CB] |==|  0.34586
USER: genes 15 Torsion [N]-CA--C-[O] |==|  0.98962
USER: genes 16 Torsion [N]-CA--CB-[CG1] |==|  0.23300
USER: genes 17 Torsion [CB]-CA--N-[C] |==|  0.15450
USER: genes 18 Torsion [N]-C--CA-[N] |==|  0.37877
USER: genes 19 Torsion [C]-CA--CB-[CG] |==|  0.93058
USER: genes 20 Torsion [CA]-CB--CG-[CD] |==|  0.35994
USER: genes 21 Torsion [CB]-CG--CD-[CE] |==|  0.20453
USER: genes 22 Torsion [CG]-CD--CE-[NZ] |==|  0.37271
USER: genes 23 Torsion [CD]-CE--NZ-[HZ1] |==|  0.91423
USER: genes 24 Torsion [C]-CA--N-[C] |==|  0.82012
USER: genes 25 Torsion [N]-C--CA-[N] |==|  0.64052
USER: genes 26 Torsion [C]-CA--CB-[CG] |==|  0.28488
USER: genes 27 Torsion [CA]-CB--CG-[CD] |==|  0.32027
USER: genes 28 Torsion [CB]-CG--CD-[CE] |==|  0.37928
USER: genes 29 Torsion [CG]-CD--CE-[NZ] |==|  0.77275
USER: genes 30 Torsion [CD]-CE--NZ-[HZ2] |==|  0.72439
ROOT
ATOM      1  CA  ARG A 130     -31.492  88.971 202.264  1.00 33.49 LIG 0.18  C 
ENDROOT
BRANCH 1 2
ATOM      2  CB  ARG A 130     -31.296  90.392 202.796  1.00 35.16 LIG 0.04  C 
BRANCH 2 3
ATOM      3  CG  ARG A 130     -31.191  90.515 204.303  1.00 39.71 LIG 0.02  C 
BRANCH 3 4
ATOM      4  CD  ARG A 130     -30.763  91.930 204.688  1.00 38.05 LIG 0.14  C 
BRANCH 4 5
ATOM      5  NE  ARG A 130     -29.472  91.941 205.377  1.00 39.97 LIG-0.23  N 
ATOM      6 HE   ARG A 130     -28.919  91.306 205.203  1.00 39.97 LIG 0.18  HD
ATOM      7  CZ  ARG A 130     -29.095  92.866 206.255  1.00 35.35 LIG 0.67  C 
ATOM      8  NH1 ARG A 130     -29.913  93.862 206.574  1.00 35.08 LIG-0.23  N 
ATOM      9  NH2 ARG A 130     -27.901  92.792 206.824  1.00 36.08 LIG-0.23  N 
ATOM     10 2HH1 ARG A 130     -29.663  94.457 207.142  1.00 35.08 LIG 0.17  HD
ATOM     11 1HH1 ARG A 130     -30.691  93.912 206.212  1.00 35.08 LIG 0.17  HD
ATOM     12 1HH2 ARG A 130     -27.370  92.146 206.626  1.00 36.08 LIG 0.17  HD
ATOM     13 2HH2 ARG A 130     -27.657  93.390 207.392  1.00 36.08 LIG 0.17  HD
ENDBRANCH 4 5
ENDBRANCH 3 4
ENDBRANCH 2 3
ENDBRANCH 1 2
BRANCH 1 14
ATOM     14  C   ARG A 130     -32.952  88.586 202.412  1.00 35.02 LIG 0.24  C 
ATOM     15  N   LYS A 131     -33.471  88.654 203.633  1.00 32.29 LIG-0.35  N 
ATOM     16 H    LYS A 131     -33.031  88.875 204.338  1.00 32.29 LIG 0.16  HD
ATOM     17 O    ARG A 130     -33.609  88.250 201.431  1.00 31.53 LIG-0.27  OA
BRANCH 15 18
ATOM     18  CA  LYS A 131     -34.875  88.346 203.858  1.00 31.30 LIG 0.18  C 
BRANCH 18 19
ATOM     19  CB  LYS A 131     -35.762  89.213 202.949  1.00 33.79 LIG 0.04  C 
BRANCH 19 20
ATOM     20  CG  LYS A 131     -37.114  88.559 202.700  1.00 34.08 LIG 0.00  C 
BRANCH 20 21
ATOM     21  CD  LYS A 131     -37.920  88.335 203.941  1.00 36.35 LIG 0.03  C 
BRANCH 21 22
ATOM     22  CE  LYS A 131     -37.355  89.151 205.096  1.00 32.79 LIG 0.23  C 
BRANCH 22 23
ATOM     23  NZ  LYS A 131     -37.047  88.288 206.271  1.00 29.22 LIG-0.08  N 
ATOM     24 HZ3  LYS A 131     -36.199  88.022 206.231  1.00 29.22 LIG 0.27  HD
ATOM     25 HZ2  LYS A 131     -37.581  87.576 206.265  1.00 29.22 LIG 0.27  HD
ATOM     26 HZ1  LYS A 131     -37.177  88.749 207.021  1.00 29.22 LIG 0.27  HD
ENDBRANCH 22 23
ENDBRANCH 21 22
ENDBRANCH 20 21
ENDBRANCH 19 20
ENDBRANCH 18 19
BRANCH 18 27
ATOM     27  C   LYS A 131     -35.127  86.859 203.634  1.00 34.74 LIG 0.24  C 
ATOM     28  N   VAL A 132     -35.562  86.163 204.680  1.00 33.85 LIG-0.35  N 
ATOM     29 H    VAL A 132     -35.685  86.497 205.464  1.00 33.85 LIG 0.16  HD
ATOM     30 O    LYS A 131     -34.897  86.343 202.539  1.00 35.56 LIG-0.27  OA
BRANCH 28 31
ATOM     31  CA  VAL A 132     -35.873  84.740 204.572  1.00 36.14 LIG 0.17  C 
BRANCH 31 32
ATOM     32  C   VAL A 132     -37.367  84.468 204.757  1.00 41.88 LIG 0.22  C 
ATOM     33 O    VAL A 132     -38.138  85.393 205.038  1.00 46.22 LIG-0.29  OA
ENDBRANCH 31 32
BRANCH 31 34
ATOM     34  CB  VAL A 132     -35.081  83.907 205.606  1.00 35.83 LIG 0.01  C 
ATOM     35  CG1 VAL A 132     -35.801  83.907 206.951  1.00 39.48 LIG 0.01  C 
ATOM     36  CG2 VAL A 132     -34.893  82.493 205.114  1.00 35.02 LIG 0.01  C 
ENDBRANCH 31 34
ENDBRANCH 28 31
ENDBRANCH 18 27
ENDBRANCH 15 18
ENDBRANCH 1 14
BRANCH 1 37
ATOM     37  N   ARG A 130     -31.059  88.857 200.870  1.00 35.65 LIG-0.35  N 
ATOM     38 H    ARG A 130     -31.664  88.557 200.337  1.00 35.65 LIG 0.16  HD
ATOM     39  C   LYS A 129     -29.832  89.193 200.481  1.00 38.36 LIG 0.24  C 
ATOM     40 O    LYS A 129     -28.993  89.651 201.250  1.00 38.91 LIG-0.27  OA
BRANCH 39 41
ATOM     41  CA  LYS A 129     -29.494  88.970 199.009  1.00 41.62 LIG 0.18  C 
BRANCH 41 42
ATOM     42  CB  LYS A 129     -28.683  87.685 198.862  1.00 37.07 LIG 0.04  C 
BRANCH 42 43
ATOM     43  CG  LYS A 129     -27.909  87.275 200.106  1.00 37.25 LIG 0.00  C 
BRANCH 43 44
ATOM     44  CD  LYS A 129     -28.158  85.816 200.482  1.00 32.25 LIG 0.03  C 
BRANCH 44 45
ATOM     45  CE  LYS A 129     -27.431  84.895 199.509  1.00 33.17 LIG 0.23  C 
BRANCH 45 46
ATOM     46  NZ  LYS A 129     -26.686  83.788 200.188  1.00 31.02 LIG-0.08  N 
ATOM     47 HZ2  LYS A 129     -27.223  83.085 200.287  1.00 31.02 LIG 0.27  HD
ATOM     48 HZ3  LYS A 129     -25.983  83.556 199.693  1.00 31.02 LIG 0.27  HD
ATOM     49 HZ1  LYS A 129     -26.408  84.064 200.987  1.00 31.02 LIG 0.27  HD
ENDBRANCH 45 46
ENDBRANCH 44 45
ENDBRANCH 43 44
ENDBRANCH 42 43
ENDBRANCH 41 42
BRANCH 41 50
ATOM     50  N   LYS A 129     -28.768  90.100 198.429  1.00 48.91 LIG-0.35  N 
ATOM     51  C   LYS A 128     -29.326  91.305 198.305  1.00 46.33 LIG 0.26  C 
ATOM     52 O    LYS A 128     -30.452  91.568 198.721  1.00 48.39 LIG-0.27  OA
ATOM     53 H    LYS A 129     -27.966  89.917 198.181  1.00 48.91 LIG 0.16  HD
BRANCH 51 54
ATOM     54  CA  LYS A 128     -28.478  92.379 197.622  1.00 52.62 LIG 0.40  C 
ATOM     55  N   LYS A 128     -28.435  93.593 198.426  1.00 52.42 LIG 0.61  N 
BRANCH 54 56
ATOM     56  CB  LYS A 128     -27.060  91.854 197.366  1.00 53.69 LIG 0.05  C 
BRANCH 56 57
ATOM     57  CG  LYS A 128     -26.795  91.440 195.925  1.00 48.68 LIG 0.00  C 
BRANCH 57 58
ATOM     58  CD  LYS A 128     -25.741  92.325 195.282  1.00 52.15 LIG 0.03  C 
BRANCH 58 59
ATOM     59  CE  LYS A 128     -24.754  91.490 194.481  1.00 44.05 LIG 0.23  C 
BRANCH 59 60
ATOM     60  NZ  LYS A 128     -23.685  90.872 195.323  1.00 43.39 LIG-0.08  N 
ATOM     61 HZ1  LYS A 128     -23.518  90.048 195.033  1.00 43.39 LIG 0.27  HD
ATOM     62 HZ2  LYS A 128     -22.944  91.362 195.269  1.00 43.39 LIG 0.27  HD
ATOM     63 HZ3  LYS A 128     -23.956  90.838 196.170  1.00 43.39 LIG 0.27  HD
ENDBRANCH 59 60
ENDBRANCH 58 59
ENDBRANCH 57 58
ENDBRANCH 56 57
ENDBRANCH 54 56
ENDBRANCH 51 54
ENDBRANCH 41 50
ENDBRANCH 39 41
ENDBRANCH 1 37
TORSDOF 29
ENDMDL
MODEL 27
USER: ADFR SOLUTION from run 98
USER: SCORE 18.248095 LL:  -1.206 LR: -18.981 RR:   0.000 FEB: -10.330
USER: RMSD 7.250953
USER: SEED 97
USER: STATUS no improvement in best in 3 clusters for 5 generations
USER: GENES 31
USER: genes 0 Translation |==|  0.37591 0.51971 0.54323
USER: genes 1 Rotation |==|  0.52062 0.96431 0.68357 0.51713
USER: genes 2 Torsion [C]-CA--CB-[CG] |==|  0.19065
USER: genes 3 Torsion [CA]-CB--CG-[CD] |==|  0.35419
USER: genes 4 Torsion [CB]-CG--CD-[NE] |==|  0.93958
USER: genes 5 Torsion [CG]-CD--NE-[HE] |==|  0.84602
USER: genes 6 Torsion [N]-CA--C-[N] |==|  0.42354
USER: genes 7 Torsion [C]-N--CA-[CB] |==|  0.24605
USER: genes 8 Torsion [N]-CA--CB-[CG] |==|  0.40654
USER: genes 9 Torsion [CA]-CB--CG-[CD] |==|  0.71420
USER: genes 10 Torsion [CB]-CG--CD-[CE] |==|  0.39374
USER: genes 11 Torsion [CG]-CD--CE-[NZ] |==|  0.55461
USER: genes 12 Torsion [CD]-CE--NZ-[HZ2] |==|  0.60093
USER: genes 13 Torsion [N]-CA--C-[N] |==|  0.35414
USER: genes 14 Torsion [C]-N--CA-[CB] |==|  0.82095
USER: genes 15 Torsion [N]-CA--C-[O] |==|  0.04514
USER: genes 16 Torsion [N]-CA--CB-[CG1] |==|  0.31591
USER: genes 17 Torsion [CB]-CA--N-[C] |==|  0.84998
USER: genes 18 Torsion [N]-C--CA-[N] |==|  0.18125
USER: genes 19 Torsion [C]-CA--CB-[CG] |==|  0.19175
USER: genes 20 Torsion [CA]-CB--CG-[CD] |==|  0.11531
USER: genes 21 Torsion [CB]-CG--CD-[CE] |==|  0.73526
USER: genes 22 Torsion [CG]-CD--CE-[NZ] |==|  0.42717
USER: genes 23 Torsion [CD]-CE--NZ-[HZ1] |==|  0.61606
USER: genes 24 Torsion [C]-CA--N-[C] |==|  0.56966
USER: genes 25 Torsion [N]-C--CA-[N] |==|  0.40965
USER: genes 26 Torsion [C]-CA--CB-[CG] |==|  0.33487
USER: genes 27 Torsion [CA]-CB--CG-[CD] |==|  0.57879
USER: genes 28 Torsion [CB]-CG--CD-[CE] |==|  0.98181
USER: genes 29 Torsion [CG]-CD--CE-[NZ] |==|  0.62995
USER: genes 30 Torsion [CD]-CE--NZ-[HZ2] |==|  0.68059
ROOT
ATOM      1  CA  ARG A 130     -33.509  87.276 203.215  1.00 33.49 LIG 0.18  C 
ENDROOT
BRANCH 1 2
ATOM      2  CB  ARG A 130     -34.674  86.285 203.189  1.00 35.16 LIG 0.04  C 
BRANCH 2 3
ATOM      3  CG  ARG A 130     -34.288  84.827 203.042  1.00 39.71 LIG 0.02  C 
BRANCH 3 4
ATOM      4  CD  ARG A 130     -34.937  83.995 204.147  1.00 38.05 LIG 0.14  C 
BRANCH 4 5
ATOM      5  NE  ARG A 130     -35.307  84.816 205.301  1.00 39.97 LIG-0.23  N 
ATOM      6 HE   ARG A 130     -34.691  85.288 205.671  1.00 39.97 LIG 0.18  HD
ATOM      7  CZ  ARG A 130     -36.531  84.881 205.817  1.00 35.35 LIG 0.67  C 
ATOM      8  NH1 ARG A 130     -37.518  84.163 205.296  1.00 35.08 LIG-0.23  N 
ATOM      9  NH2 ARG A 130     -36.769  85.659 206.863  1.00 36.08 LIG-0.23  N 
ATOM     10 2HH1 ARG A 130     -38.307  84.209 205.634  1.00 35.08 LIG 0.17  HD
ATOM     11 1HH1 ARG A 130     -37.368  83.652 204.621  1.00 35.08 LIG 0.17  HD
ATOM     12 1HH2 ARG A 130     -36.132  86.121 207.208  1.00 36.08 LIG 0.17  HD
ATOM     13 2HH2 ARG A 130     -37.560  85.701 207.196  1.00 36.08 LIG 0.17  HD
ENDBRANCH 4 5
ENDBRANCH 3 4
ENDBRANCH 2 3
ENDBRANCH 1 2
BRANCH 1 14
ATOM     14  C   ARG A 130     -32.866  87.315 201.841  1.00 35.02 LIG 0.24  C 
ATOM     15  N   LYS A 131     -31.954  86.384 201.577  1.00 32.29 LIG-0.35  N 
ATOM     16 H    LYS A 131     -31.692  85.786 202.136  1.00 32.29 LIG 0.16  HD
ATOM     17 O    ARG A 130     -33.201  88.164 201.020  1.00 31.53 LIG-0.27  OA
BRANCH 15 18
ATOM     18  CA  LYS A 131     -31.320  86.321 200.269  1.00 31.30 LIG 0.18  C 
BRANCH 18 19
ATOM     19  CB  LYS A 131     -30.068  87.213 200.241  1.00 33.79 LIG 0.04  C 
BRANCH 19 20
ATOM     20  CG  LYS A 131     -28.982  86.624 199.350  1.00 34.08 LIG 0.00  C 
BRANCH 20 21
ATOM     21  CD  LYS A 131     -27.871  85.961 200.101  1.00 36.35 LIG 0.03  C 
BRANCH 21 22
ATOM     22  CE  LYS A 131     -27.412  84.706 199.370  1.00 32.79 LIG 0.23  C 
BRANCH 22 23
ATOM     23  NZ  LYS A 131     -26.670  83.788 200.281  1.00 29.22 LIG-0.08  N 
ATOM     24 HZ3  LYS A 131     -26.332  84.253 200.961  1.00 29.22 LIG 0.27  HD
ATOM     25 HZ2  LYS A 131     -26.009  83.396 199.833  1.00 29.22 LIG 0.27  HD
ATOM     26 HZ1  LYS A 131     -27.225  83.167 200.594  1.00 29.22 LIG 0.27  HD
ENDBRANCH 22 23
ENDBRANCH 21 22
ENDBRANCH 20 21
ENDBRANCH 19 20
ENDBRANCH 18 19
BRANCH 18 27
ATOM     27  C   LYS A 131     -30.985  84.874 199.919  1.00 34.74 LIG 0.24  C 
ATOM     28  N   VAL A 132     -31.423  84.428 198.745  1.00 33.85 LIG-0.35  N 
ATOM     29 H    VAL A 132     -31.892  84.896 198.196  1.00 33.85 LIG 0.16  HD
ATOM     30 O    LYS A 131     -30.371  84.163 200.716  1.00 35.56 LIG-0.27  OA
BRANCH 28 31
ATOM     31  CA  VAL A 132     -31.129  83.072 198.290  1.00 36.14 LIG 0.17  C 
BRANCH 31 32
ATOM     32  C   VAL A 132     -31.635  82.017 199.277  1.00 41.88 LIG 0.22  C 
ATOM     33 O    VAL A 132     -32.460  82.324 200.145  1.00 46.22 LIG-0.29  OA
ENDBRANCH 31 32
BRANCH 31 34
ATOM     34  CB  VAL A 132     -29.613  82.863 198.069  1.00 35.83 LIG 0.01  C 
ATOM     35  CG1 VAL A 132     -29.063  81.858 199.076  1.00 39.48 LIG 0.01  C 
ATOM     36  CG2 VAL A 132     -29.342  82.395 196.661  1.00 35.02 LIG 0.01  C 
ENDBRANCH 31 34
ENDBRANCH 28 31
ENDBRANCH 18 27
ENDBRANCH 15 18
ENDBRANCH 1 14
BRANCH 1 37
ATOM     37  N   ARG A 130     -33.949  88.611 203.624  1.00 35.65 LIG-0.35  N 
ATOM     38 H    ARG A 130     -33.510  88.939 204.286  1.00 35.65 LIG 0.16  HD
ATOM     39  C   LYS A 129     -34.946  89.245 203.010  1.00 38.36 LIG 0.24  C 
ATOM     40 O    LYS A 129     -35.538  88.774 202.045  1.00 38.91 LIG-0.27  OA
BRANCH 39 41
ATOM     41  CA  LYS A 129     -35.342  90.607 203.575  1.00 41.62 LIG 0.18  C 
BRANCH 41 42
ATOM     42  CB  LYS A 129     -36.617  91.091 202.889  1.00 37.07 LIG 0.04  C 
BRANCH 42 43
ATOM     43  CG  LYS A 129     -37.868  90.298 203.237  1.00 37.25 LIG 0.00  C 
BRANCH 43 44
ATOM     44  CD  LYS A 129     -37.935  89.953 204.723  1.00 32.25 LIG 0.03  C 
BRANCH 44 45
ATOM     45  CE  LYS A 129     -37.373  88.557 204.961  1.00 33.17 LIG 0.23  C 
BRANCH 45 46
ATOM     46  NZ  LYS A 129     -36.825  88.368 206.341  1.00 31.02 LIG-0.08  N 
ATOM     47 HZ2  LYS A 129     -36.676  89.163 206.713  1.00 31.02 LIG 0.27  HD
ATOM     48 HZ3  LYS A 129     -37.412  87.916 206.835  1.00 31.02 LIG 0.27  HD
ATOM     49 HZ1  LYS A 129     -36.061  87.913 206.298  1.00 31.02 LIG 0.27  HD
ENDBRANCH 45 46
ENDBRANCH 44 45
ENDBRANCH 43 44
ENDBRANCH 42 43
ENDBRANCH 41 42
BRANCH 41 50
ATOM     50  N   LYS A 129     -34.277  91.599 203.429  1.00 48.91 LIG-0.35  N 
ATOM     51  C   LYS A 128     -34.182  92.653 204.239  1.00 46.33 LIG 0.26  C 
ATOM     52 O    LYS A 128     -34.935  92.834 205.194  1.00 48.39 LIG-0.27  OA
ATOM     53 H    LYS A 129     -33.730  91.440 202.785  1.00 48.91 LIG 0.16  HD
BRANCH 51 54
ATOM     54  CA  LYS A 128     -33.060  93.646 203.935  1.00 52.62 LIG 0.40  C 
ATOM     55  N   LYS A 128     -33.458  95.002 204.287  1.00 52.42 LIG 0.61  N 
BRANCH 54 56
ATOM     56  CB  LYS A 128     -31.782  93.250 204.685  1.00 53.69 LIG 0.05  C 
BRANCH 56 57
ATOM     57  CG  LYS A 128     -30.585  92.975 203.785  1.00 48.68 LIG 0.00  C 
BRANCH 57 58
ATOM     58  CD  LYS A 128     -29.634  91.977 204.422  1.00 52.15 LIG 0.03  C 
BRANCH 58 59
ATOM     59  CE  LYS A 128     -30.063  91.658 205.845  1.00 44.05 LIG 0.23  C 
BRANCH 59 60
ATOM     60  NZ  LYS A 128     -28.935  91.702 206.825  1.00 43.39 LIG-0.08  N 
ATOM     61 HZ1  LYS A 128     -29.138  92.261 207.486  1.00 43.39 LIG 0.27  HD
ATOM     62 HZ2  LYS A 128     -28.797  90.888 207.157  1.00 43.39 LIG 0.27  HD
ATOM     63 HZ3  LYS A 128     -28.197  91.984 206.416  1.00 43.39 LIG 0.27  HD
ENDBRANCH 59 60
ENDBRANCH 58 59
ENDBRANCH 57 58
ENDBRANCH 56 57
ENDBRANCH 54 56
ENDBRANCH 51 54
ENDBRANCH 41 50
ENDBRANCH 39 41
ENDBRANCH 1 37
TORSDOF 29
ENDMDL
MODEL 28
USER: ADFR SOLUTION from run 8
USER: SCORE 18.007006 LL:  -1.182 LR: -18.938 RR:   0.000 FEB: -10.287
USER: RMSD 8.322351
USER: SEED 194907
USER: STATUS no improvement in best in 11 clusters for 5 generations
USER: GENES 31
USER: genes 0 Translation |==|  0.41948 0.56502 0.52506
USER: genes 1 Rotation |==|  0.51428 0.03846 0.30919 0.51906
USER: genes 2 Torsion [C]-CA--CB-[CG] |==|  0.66289
USER: genes 3 Torsion [CA]-CB--CG-[CD] |==|  0.51337
USER: genes 4 Torsion [CB]-CG--CD-[NE] |==|  0.27038
USER: genes 5 Torsion [CG]-CD--NE-[HE] |==|  0.99883
USER: genes 6 Torsion [N]-CA--C-[N] |==|  0.26789
USER: genes 7 Torsion [C]-N--CA-[CB] |==|  0.43230
USER: genes 8 Torsion [N]-CA--CB-[CG] |==|  0.73048
USER: genes 9 Torsion [CA]-CB--CG-[CD] |==|  0.73269
USER: genes 10 Torsion [CB]-CG--CD-[CE] |==|  0.00774
USER: genes 11 Torsion [CG]-CD--CE-[NZ] |==|  0.71081
USER: genes 12 Torsion [CD]-CE--NZ-[HZ2] |==|  0.43549
USER: genes 13 Torsion [N]-CA--C-[N] |==|  0.93849
USER: genes 14 Torsion [C]-N--CA-[CB] |==|  0.29481
USER: genes 15 Torsion [N]-CA--C-[O] |==|  0.93939
USER: genes 16 Torsion [N]-CA--CB-[CG1] |==|  0.55218
USER: genes 17 Torsion [CB]-CA--N-[C] |==|  0.56111
USER: genes 18 Torsion [N]-C--CA-[N] |==|  0.96107
USER: genes 19 Torsion [C]-CA--CB-[CG] |==|  0.14951
USER: genes 20 Torsion [CA]-CB--CG-[CD] |==|  0.69164
USER: genes 21 Torsion [CB]-CG--CD-[CE] |==|  0.66587
USER: genes 22 Torsion [CG]-CD--CE-[NZ] |==|  0.11647
USER: genes 23 Torsion [CD]-CE--NZ-[HZ1] |==|  0.13238
USER: genes 24 Torsion [C]-CA--N-[C] |==|  0.66261
USER: genes 25 Torsion [N]-C--CA-[N] |==|  0.36609
USER: genes 26 Torsion [C]-CA--CB-[CG] |==|  0.40445
USER: genes 27 Torsion [CA]-CB--CG-[CD] |==|  0.75381
USER: genes 28 Torsion [CB]-CG--CD-[CE] |==|  0.29656
USER: genes 29 Torsion [CG]-CD--CE-[NZ] |==|  0.69952
USER: genes 30 Torsion [CD]-CE--NZ-[HZ2] |==|  0.99368
ROOT
ATOM      1  CA  ARG A 130     -32.561  88.397 202.901  1.00 33.49 LIG 0.18  C 
ENDROOT
BRANCH 1 2
ATOM      2  CB  ARG A 130     -33.525  87.210 202.928  1.00 35.16 LIG 0.04  C 
BRANCH 2 3
ATOM      3  CG  ARG A 130     -34.927  87.517 203.414  1.00 39.71 LIG 0.02  C 
BRANCH 3 4
ATOM      4  CD  ARG A 130     -35.748  86.232 203.505  1.00 38.05 LIG 0.14  C 
BRANCH 4 5
ATOM      5  NE  ARG A 130     -35.772  85.696 204.867  1.00 39.97 LIG-0.23  N 
ATOM      6 HE   ARG A 130     -35.339  86.124 205.474  1.00 39.97 LIG 0.18  HD
ATOM      7  CZ  ARG A 130     -36.418  84.592 205.230  1.00 35.35 LIG 0.67  C 
ATOM      8  NH1 ARG A 130     -37.092  83.883 204.333  1.00 35.08 LIG-0.23  N 
ATOM      9  NH2 ARG A 130     -36.385  84.189 206.491  1.00 36.08 LIG-0.23  N 
ATOM     10 2HH1 ARG A 130     -37.508  83.170 204.573  1.00 35.08 LIG 0.17  HD
ATOM     11 1HH1 ARG A 130     -37.112  84.137 203.511  1.00 35.08 LIG 0.17  HD
ATOM     12 1HH2 ARG A 130     -35.945  84.641 207.075  1.00 36.08 LIG 0.17  HD
ATOM     13 2HH2 ARG A 130     -36.803  83.475 206.726  1.00 36.08 LIG 0.17  HD
ENDBRANCH 4 5
ENDBRANCH 3 4
ENDBRANCH 2 3
ENDBRANCH 1 2
BRANCH 1 14
ATOM     14  C   ARG A 130     -32.053  88.588 201.484  1.00 35.02 LIG 0.24  C 
ATOM     15  N   LYS A 131     -30.771  88.909 201.342  1.00 32.29 LIG-0.35  N 
ATOM     16 H    LYS A 131     -30.227  89.039 201.995  1.00 32.29 LIG 0.16  HD
ATOM     17 O    ARG A 130     -32.805  88.427 200.527  1.00 31.53 LIG-0.27  OA
BRANCH 15 18
ATOM     18  CA  LYS A 131     -30.191  89.066 200.018  1.00 31.30 LIG 0.18  C 
BRANCH 18 19
ATOM     19  CB  LYS A 131     -28.960  89.987 200.082  1.00 33.79 LIG 0.04  C 
BRANCH 19 20
ATOM     20  CG  LYS A 131     -29.315  91.419 199.706  1.00 34.08 LIG 0.00  C 
BRANCH 20 21
ATOM     21  CD  LYS A 131     -29.042  91.759 198.275  1.00 36.35 LIG 0.03  C 
BRANCH 21 22
ATOM     22  CE  LYS A 131     -28.530  90.535 197.527  1.00 32.79 LIG 0.23  C 
BRANCH 22 23
ATOM     23  NZ  LYS A 131     -27.060  90.614 197.297  1.00 29.22 LIG-0.08  N 
ATOM     24 HZ3  LYS A 131     -26.899  91.105 196.571  1.00 29.22 LIG 0.27  HD
ATOM     25 HZ2  LYS A 131     -26.733  89.795 197.179  1.00 29.22 LIG 0.27  HD
ATOM     26 HZ1  LYS A 131     -26.669  90.991 198.001  1.00 29.22 LIG 0.27  HD
ENDBRANCH 22 23
ENDBRANCH 21 22
ENDBRANCH 20 21
ENDBRANCH 19 20
ENDBRANCH 18 19
BRANCH 18 27
ATOM     27  C   LYS A 131     -29.840  87.701 199.435  1.00 34.74 LIG 0.24  C 
ATOM     28  N   VAL A 132     -29.669  86.708 200.302  1.00 33.85 LIG-0.35  N 
ATOM     29 H    VAL A 132     -29.724  86.799 201.156  1.00 33.85 LIG 0.16  HD
ATOM     30 O    LYS A 131     -29.691  87.559 198.220  1.00 35.56 LIG-0.27  OA
BRANCH 28 31
ATOM     31  CA  VAL A 132     -29.368  85.351 199.855  1.00 36.14 LIG 0.17  C 
BRANCH 31 32
ATOM     32  C   VAL A 132     -30.265  84.314 200.537  1.00 41.88 LIG 0.22  C 
ATOM     33 O    VAL A 132     -30.816  84.580 201.610  1.00 46.22 LIG-0.29  OA
ENDBRANCH 31 32
BRANCH 31 34
ATOM     34  CB  VAL A 132     -27.889  84.982 200.118  1.00 35.83 LIG 0.01  C 
ATOM     35  CG1 VAL A 132     -27.477  83.793 199.257  1.00 39.48 LIG 0.01  C 
ATOM     36  CG2 VAL A 132     -26.992  86.164 199.843  1.00 35.02 LIG 0.01  C 
ENDBRANCH 31 34
ENDBRANCH 28 31
ENDBRANCH 18 27
ENDBRANCH 15 18
ENDBRANCH 1 14
BRANCH 1 37
ATOM     37  N   ARG A 130     -33.200  89.618 203.396  1.00 35.65 LIG-0.35  N 
ATOM     38 H    ARG A 130     -33.883  89.479 203.898  1.00 35.65 LIG 0.16  HD
ATOM     39  C   LYS A 129     -32.746  90.829 203.084  1.00 38.36 LIG 0.24  C 
ATOM     40 O    LYS A 129     -31.748  91.007 202.393  1.00 38.91 LIG-0.27  OA
BRANCH 39 41
ATOM     41  CA  LYS A 129     -33.540  92.018 203.619  1.00 41.62 LIG 0.18  C 
BRANCH 41 42
ATOM     42  CB  LYS A 129     -32.739  92.711 204.719  1.00 37.07 LIG 0.04  C 
BRANCH 42 43
ATOM     43  CG  LYS A 129     -31.329  93.119 204.320  1.00 37.25 LIG 0.00  C 
BRANCH 43 44
ATOM     44  CD  LYS A 129     -30.265  92.292 205.040  1.00 32.25 LIG 0.03  C 
BRANCH 44 45
ATOM     45  CE  LYS A 129     -29.363  93.204 205.862  1.00 33.17 LIG 0.23  C 
BRANCH 45 46
ATOM     46  NZ  LYS A 129     -30.113  94.277 206.589  1.00 31.02 LIG-0.08  N 
ATOM     47 HZ2  LYS A 129     -29.576  94.663 207.184  1.00 31.02 LIG 0.27  HD
ATOM     48 HZ3  LYS A 129     -30.397  94.888 206.006  1.00 31.02 LIG 0.27  HD
ATOM     49 HZ1  LYS A 129     -30.812  93.920 207.008  1.00 31.02 LIG 0.27  HD
ENDBRANCH 45 46
ENDBRANCH 44 45
ENDBRANCH 43 44
ENDBRANCH 42 43
ENDBRANCH 41 42
BRANCH 41 50
ATOM     50  N   LYS A 129     -34.857  91.625 204.120  1.00 48.91 LIG-0.35  N 
ATOM     51  C   LYS A 128     -35.981  92.143 203.624  1.00 46.33 LIG 0.26  C 
ATOM     52 O    LYS A 128     -35.996  92.931 202.680  1.00 48.39 LIG-0.27  OA
ATOM     53 H    LYS A 129     -34.837  91.041 204.750  1.00 48.91 LIG 0.16  HD
BRANCH 51 54
ATOM     54  CA  LYS A 128     -37.286  91.693 204.282  1.00 52.62 LIG 0.40  C 
ATOM     55  N   LYS A 128     -38.131  92.837 204.591  1.00 52.42 LIG 0.61  N 
BRANCH 54 56
ATOM     56  CB  LYS A 128     -38.028  90.707 203.371  1.00 53.69 LIG 0.05  C 
BRANCH 56 57
ATOM     57  CG  LYS A 128     -38.791  89.619 204.114  1.00 48.68 LIG 0.00  C 
BRANCH 57 58
ATOM     58  CD  LYS A 128     -37.912  88.409 204.376  1.00 52.15 LIG 0.03  C 
BRANCH 58 59
ATOM     59  CE  LYS A 128     -37.526  88.332 205.844  1.00 44.05 LIG 0.23  C 
BRANCH 59 60
ATOM     60  NZ  LYS A 128     -36.090  88.665 206.094  1.00 43.39 LIG-0.08  N 
ATOM     61 HZ1  LYS A 128     -35.693  87.981 206.502  1.00 43.39 LIG 0.27  HD
ATOM     62 HZ2  LYS A 128     -35.682  88.825 205.319  1.00 43.39 LIG 0.27  HD
ATOM     63 HZ3  LYS A 128     -36.038  89.388 206.611  1.00 43.39 LIG 0.27  HD
ENDBRANCH 59 60
ENDBRANCH 58 59
ENDBRANCH 57 58
ENDBRANCH 56 57
ENDBRANCH 54 56
ENDBRANCH 51 54
ENDBRANCH 41 50
ENDBRANCH 39 41
ENDBRANCH 1 37
TORSDOF 29
ENDMDL
MODEL 29
USER: ADFR SOLUTION from run 117
USER: SCORE 19.498929 LL:  -2.273 LR: -18.925 RR:   0.000 FEB: -10.275
USER: RMSD 9.758365
USER: SEED 116
USER: STATUS no improvement in best in 2 clusters for 5 generations
USER: GENES 31
USER: genes 0 Translation |==|  0.44955 0.58689 0.51608
USER: genes 1 Rotation |==|  0.95417 0.36929 0.65210 0.55927
USER: genes 2 Torsion [C]-CA--CB-[CG] |==|  0.18755
USER: genes 3 Torsion [CA]-CB--CG-[CD] |==|  0.55197
USER: genes 4 Torsion [CB]-CG--CD-[NE] |==|  0.37174
USER: genes 5 Torsion [CG]-CD--NE-[HE] |==|  0.82597
USER: genes 6 Torsion [N]-CA--C-[N] |==|  0.89445
USER: genes 7 Torsion [C]-N--CA-[CB] |==|  0.18780
USER: genes 8 Torsion [N]-CA--CB-[CG] |==|  0.64787
USER: genes 9 Torsion [CA]-CB--CG-[CD] |==|  0.52279
USER: genes 10 Torsion [CB]-CG--CD-[CE] |==|  0.75260
USER: genes 11 Torsion [CG]-CD--CE-[NZ] |==|  0.41057
USER: genes 12 Torsion [CD]-CE--NZ-[HZ2] |==|  0.24806
USER: genes 13 Torsion [N]-CA--C-[N] |==|  0.12775
USER: genes 14 Torsion [C]-N--CA-[CB] |==|  0.25609
USER: genes 15 Torsion [N]-CA--C-[O] |==|  0.10898
USER: genes 16 Torsion [N]-CA--CB-[CG1] |==|  0.09088
USER: genes 17 Torsion [CB]-CA--N-[C] |==|  0.39587
USER: genes 18 Torsion [N]-C--CA-[N] |==|  0.41984
USER: genes 19 Torsion [C]-CA--CB-[CG] |==|  0.48554
USER: genes 20 Torsion [CA]-CB--CG-[CD] |==|  0.62812
USER: genes 21 Torsion [CB]-CG--CD-[CE] |==|  0.49985
USER: genes 22 Torsion [CG]-CD--CE-[NZ] |==|  0.50928
USER: genes 23 Torsion [CD]-CE--NZ-[HZ1] |==|  0.17570
USER: genes 24 Torsion [C]-CA--N-[C] |==|  0.68863
USER: genes 25 Torsion [N]-C--CA-[N] |==|  0.45426
USER: genes 26 Torsion [C]-CA--CB-[CG] |==|  0.86147
USER: genes 27 Torsion [CA]-CB--CG-[CD] |==|  0.28368
USER: genes 28 Torsion [CB]-CG--CD-[CE] |==|  0.32814
USER: genes 29 Torsion [CG]-CD--CE-[NZ] |==|  0.23912
USER: genes 30 Torsion [CD]-CE--NZ-[HZ2] |==|  0.38816
ROOT
ATOM      1  CA  ARG A 130     -31.907  88.938 202.746  1.00 33.49 LIG 0.18  C 
ENDROOT
BRANCH 1 2
ATOM      2  CB  ARG A 130     -31.128  89.465 203.953  1.00 35.16 LIG 0.04  C 
BRANCH 2 3
ATOM      3  CG  ARG A 130     -31.256  90.952 204.215  1.00 39.71 LIG 0.02  C 
BRANCH 3 4
ATOM      4  CD  ARG A 130     -30.115  91.430 205.111  1.00 38.05 LIG 0.14  C 
BRANCH 4 5
ATOM      5  NE  ARG A 130     -29.507  92.662 204.608  1.00 39.97 LIG-0.23  N 
ATOM      6 HE   ARG A 130     -29.126  92.636 203.838  1.00 39.97 LIG 0.18  HD
ATOM      7  CZ  ARG A 130     -29.504  93.821 205.261  1.00 35.35 LIG 0.67  C 
ATOM      8  NH1 ARG A 130     -30.065  93.918 206.460  1.00 35.08 LIG-0.23  N 
ATOM      9  NH2 ARG A 130     -28.930  94.885 204.719  1.00 36.08 LIG-0.23  N 
ATOM     10 2HH1 ARG A 130     -30.060  94.670 206.877  1.00 35.08 LIG 0.17  HD
ATOM     11 1HH1 ARG A 130     -30.434  93.229 206.819  1.00 35.08 LIG 0.17  HD
ATOM     12 1HH2 ARG A 130     -28.560  94.826 203.946  1.00 36.08 LIG 0.17  HD
ATOM     13 2HH2 ARG A 130     -28.928  95.635 205.141  1.00 36.08 LIG 0.17  HD
ENDBRANCH 4 5
ENDBRANCH 3 4
ENDBRANCH 2 3
ENDBRANCH 1 2
BRANCH 1 14
ATOM     14  C   ARG A 130     -31.293  89.503 201.479  1.00 35.02 LIG 0.24  C 
ATOM     15  N   LYS A 131     -30.256  88.847 200.969  1.00 32.29 LIG-0.35  N 
ATOM     16 H    LYS A 131     -29.900  88.148 201.321  1.00 32.29 LIG 0.16  HD
ATOM     17 O    ARG A 130     -31.762  90.510 200.955  1.00 31.53 LIG-0.27  OA
BRANCH 15 18
ATOM     18  CA  LYS A 131     -29.635  89.294 199.731  1.00 31.30 LIG 0.18  C 
BRANCH 18 19
ATOM     19  CB  LYS A 131     -28.935  90.646 199.945  1.00 33.79 LIG 0.04  C 
BRANCH 19 20
ATOM     20  CG  LYS A 131     -29.394  91.680 198.925  1.00 34.08 LIG 0.00  C 
BRANCH 20 21
ATOM     21  CD  LYS A 131     -28.612  92.955 198.956  1.00 36.35 LIG 0.03  C 
BRANCH 21 22
ATOM     22  CE  LYS A 131     -29.236  93.936 199.940  1.00 32.79 LIG 0.23  C 
BRANCH 22 23
ATOM     23  NZ  LYS A 131     -28.200  94.800 200.575  1.00 29.22 LIG-0.08  N 
ATOM     24 HZ3  LYS A 131     -28.470  95.038 201.389  1.00 29.22 LIG 0.27  HD
ATOM     25 HZ2  LYS A 131     -28.077  95.529 200.079  1.00 29.22 LIG 0.27  HD
ATOM     26 HZ1  LYS A 131     -27.435  94.351 200.636  1.00 29.22 LIG 0.27  HD
ENDBRANCH 22 23
ENDBRANCH 21 22
ENDBRANCH 20 21
ENDBRANCH 19 20
ENDBRANCH 18 19
BRANCH 18 27
ATOM     27  C   LYS A 131     -28.663  88.234 199.221  1.00 34.74 LIG 0.24  C 
ATOM     28  N   VAL A 132     -29.098  86.978 199.221  1.00 33.85 LIG-0.35  N 
ATOM     29 H    VAL A 132     -29.872  86.735 199.507  1.00 33.85 LIG 0.16  HD
ATOM     30 O    LYS A 131     -27.526  88.547 198.866  1.00 35.56 LIG-0.27  OA
BRANCH 28 31
ATOM     31  CA  VAL A 132     -28.267  85.886 198.719  1.00 36.14 LIG 0.17  C 
BRANCH 31 32
ATOM     32  C   VAL A 132     -29.104  84.802 198.035  1.00 41.88 LIG 0.22  C 
ATOM     33 O    VAL A 132     -30.066  85.115 197.325  1.00 46.22 LIG-0.29  OA
ENDBRANCH 31 32
BRANCH 31 34
ATOM     34  CB  VAL A 132     -27.439  85.237 199.852  1.00 35.83 LIG 0.01  C 
ATOM     35  CG1 VAL A 132     -28.209  85.283 201.167  1.00 39.48 LIG 0.01  C 
ATOM     36  CG2 VAL A 132     -27.087  83.812 199.501  1.00 35.02 LIG 0.01  C 
ENDBRANCH 31 34
ENDBRANCH 28 31
ENDBRANCH 18 27
ENDBRANCH 15 18
ENDBRANCH 1 14
BRANCH 1 37
ATOM     37  N   ARG A 130     -31.921  87.475 202.714  1.00 35.65 LIG-0.35  N 
ATOM     38 H    ARG A 130     -31.186  87.110 202.968  1.00 35.65 LIG 0.16  HD
ATOM     39  C   LYS A 129     -32.991  86.787 202.320  1.00 38.36 LIG 0.24  C 
ATOM     40 O    LYS A 129     -34.043  87.325 201.993  1.00 38.91 LIG-0.27  OA
BRANCH 39 41
ATOM     41  CA  LYS A 129     -32.851  85.268 202.279  1.00 41.62 LIG 0.18  C 
BRANCH 41 42
ATOM     42  CB  LYS A 129     -32.257  84.848 200.936  1.00 37.07 LIG 0.04  C 
BRANCH 42 43
ATOM     43  CG  LYS A 129     -31.949  83.363 200.812  1.00 37.25 LIG 0.00  C 
BRANCH 43 44
ATOM     44  CD  LYS A 129     -30.566  83.111 200.216  1.00 32.25 LIG 0.03  C 
BRANCH 44 45
ATOM     45  CE  LYS A 129     -30.306  81.613 200.114  1.00 33.17 LIG 0.23  C 
BRANCH 45 46
ATOM     46  NZ  LYS A 129     -28.935  81.284 199.611  1.00 31.02 LIG-0.08  N 
ATOM     47 HZ2  LYS A 129     -28.854  80.402 199.526  1.00 31.02 LIG 0.27  HD
ATOM     48 HZ3  LYS A 129     -28.808  81.671 198.819  1.00 31.02 LIG 0.27  HD
ATOM     49 HZ1  LYS A 129     -28.327  81.584 200.188  1.00 31.02 LIG 0.27  HD
ENDBRANCH 45 46
ENDBRANCH 44 45
ENDBRANCH 43 44
ENDBRANCH 42 43
ENDBRANCH 41 42
BRANCH 41 50
ATOM     50  N   LYS A 129     -34.125  84.587 202.507  1.00 48.91 LIG-0.35  N 
ATOM     51  C   LYS A 128     -34.353  83.872 203.609  1.00 46.33 LIG 0.26  C 
ATOM     52 O    LYS A 128     -33.543  83.784 204.530  1.00 48.39 LIG-0.27  OA
ATOM     53 H    LYS A 129     -34.700  84.690 201.877  1.00 48.91 LIG 0.16  HD
BRANCH 51 54
ATOM     54  CA  LYS A 128     -35.703  83.159 203.690  1.00 52.62 LIG 0.40  C 
ATOM     55  N   LYS A 128     -35.683  82.128 204.718  1.00 52.42 LIG 0.61  N 
BRANCH 54 56
ATOM     56  CB  LYS A 128     -36.822  84.171 203.967  1.00 53.69 LIG 0.05  C 
BRANCH 56 57
ATOM     57  CG  LYS A 128     -36.544  85.111 205.132  1.00 48.68 LIG 0.00  C 
BRANCH 57 58
ATOM     58  CD  LYS A 128     -36.108  86.481 204.644  1.00 52.15 LIG 0.03  C 
BRANCH 58 59
ATOM     59  CE  LYS A 128     -37.094  87.549 205.090  1.00 44.05 LIG 0.23  C 
BRANCH 59 60
ATOM     60  NZ  LYS A 128     -36.810  88.080 206.459  1.00 43.39 LIG-0.08  N 
ATOM     61 HZ1  LYS A 128     -35.966  87.902 206.677  1.00 43.39 LIG 0.27  HD
ATOM     62 HZ2  LYS A 128     -36.939  88.960 206.469  1.00 43.39 LIG 0.27  HD
ATOM     63 HZ3  LYS A 128     -37.355  87.693 207.046  1.00 43.39 LIG 0.27  HD
ENDBRANCH 59 60
ENDBRANCH 58 59
ENDBRANCH 57 58
ENDBRANCH 56 57
ENDBRANCH 54 56
ENDBRANCH 51 54
ENDBRANCH 41 50
ENDBRANCH 39 41
ENDBRANCH 1 37
TORSDOF 29
ENDMDL
MODEL 30
USER: ADFR SOLUTION from run 188
USER: SCORE 18.709851 LL:  -1.087 LR: -18.915 RR:   0.000 FEB: -10.264
USER: RMSD 7.826837
USER: SEED 187
USER: STATUS searching
USER: GENES 31
USER: genes 0 Translation |==|  0.41983 0.50279 0.50331
USER: genes 1 Rotation |==|  0.67537 0.90819 0.69907 0.61403
USER: genes 2 Torsion [C]-CA--CB-[CG] |==|  0.32299
USER: genes 3 Torsion [CA]-CB--CG-[CD] |==|  0.33392
USER: genes 4 Torsion [CB]-CG--CD-[NE] |==|  0.63132
USER: genes 5 Torsion [CG]-CD--NE-[HE] |==|  0.30186
USER: genes 6 Torsion [N]-CA--C-[N] |==|  0.17921
USER: genes 7 Torsion [C]-N--CA-[CB] |==|  0.87047
USER: genes 8 Torsion [N]-CA--CB-[CG] |==|  0.63575
USER: genes 9 Torsion [CA]-CB--CG-[CD] |==|  0.55936
USER: genes 10 Torsion [CB]-CG--CD-[CE] |==|  0.49613
USER: genes 11 Torsion [CG]-CD--CE-[NZ] |==|  0.06141
USER: genes 12 Torsion [CD]-CE--NZ-[HZ2] |==|  0.25051
USER: genes 13 Torsion [N]-CA--C-[N] |==|  0.90151
USER: genes 14 Torsion [C]-N--CA-[CB] |==|  0.84451
USER: genes 15 Torsion [N]-CA--C-[O] |==|  0.19427
USER: genes 16 Torsion [N]-CA--CB-[CG1] |==|  0.35639
USER: genes 17 Torsion [CB]-CA--N-[C] |==|  0.78824
USER: genes 18 Torsion [N]-C--CA-[N] |==|  0.75716
USER: genes 19 Torsion [C]-CA--CB-[CG] |==|  0.41427
USER: genes 20 Torsion [CA]-CB--CG-[CD] |==|  0.30685
USER: genes 21 Torsion [CB]-CG--CD-[CE] |==|  0.57466
USER: genes 22 Torsion [CG]-CD--CE-[NZ] |==|  0.42707
USER: genes 23 Torsion [CD]-CE--NZ-[HZ1] |==|  0.99927
USER: genes 24 Torsion [C]-CA--N-[C] |==|  0.65900
USER: genes 25 Torsion [N]-C--CA-[N] |==|  0.03962
USER: genes 26 Torsion [C]-CA--CB-[CG] |==|  0.89713
USER: genes 27 Torsion [CA]-CB--CG-[CD] |==|  0.39943
USER: genes 28 Torsion [CB]-CG--CD-[CE] |==|  0.69164
USER: genes 29 Torsion [CG]-CD--CE-[NZ] |==|  0.68802
USER: genes 30 Torsion [CD]-CE--NZ-[HZ2] |==|  0.81340
ROOT
ATOM      1  CA  ARG A 130     -32.554  86.857 202.526  1.00 33.49 LIG 0.18  C 
ENDROOT
BRANCH 1 2
ATOM      2  CB  ARG A 130     -34.051  86.932 202.224  1.00 35.16 LIG 0.04  C 
BRANCH 2 3
ATOM      3  CG  ARG A 130     -34.907  85.877 202.894  1.00 39.71 LIG 0.02  C 
BRANCH 3 4
ATOM      4  CD  ARG A 130     -35.952  86.537 203.791  1.00 38.05 LIG 0.14  C 
BRANCH 4 5
ATOM      5  NE  ARG A 130     -36.009  85.911 205.113  1.00 39.97 LIG-0.23  N 
ATOM      6 HE   ARG A 130     -35.702  86.358 205.782  1.00 39.97 LIG 0.18  HD
ATOM      7  CZ  ARG A 130     -36.503  84.700 205.352  1.00 35.35 LIG 0.67  C 
ATOM      8  NH1 ARG A 130     -36.976  83.960 204.358  1.00 35.08 LIG-0.23  N 
ATOM      9  NH2 ARG A 130     -36.515  84.221 206.588  1.00 36.08 LIG-0.23  N 
ATOM     10 2HH1 ARG A 130     -37.294  83.177 204.519  1.00 35.08 LIG 0.17  HD
ATOM     11 1HH1 ARG A 130     -36.966  84.263 203.553  1.00 35.08 LIG 0.17  HD
ATOM     12 1HH2 ARG A 130     -36.203  84.694 207.235  1.00 36.08 LIG 0.17  HD
ATOM     13 2HH2 ARG A 130     -36.834  83.437 206.743  1.00 36.08 LIG 0.17  HD
ENDBRANCH 4 5
ENDBRANCH 3 4
ENDBRANCH 2 3
ENDBRANCH 1 2
BRANCH 1 14
ATOM     14  C   ARG A 130     -31.806  86.561 201.240  1.00 35.02 LIG 0.24  C 
ATOM     15  N   LYS A 131     -30.505  86.307 201.345  1.00 32.29 LIG-0.35  N 
ATOM     16 H    LYS A 131     -30.063  86.326 202.082  1.00 32.29 LIG 0.16  HD
ATOM     17 O    ARG A 130     -32.399  86.542 200.165  1.00 31.53 LIG-0.27  OA
BRANCH 15 18
ATOM     18  CA  LYS A 131     -29.720  85.969 200.167  1.00 31.30 LIG 0.18  C 
BRANCH 18 19
ATOM     19  CB  LYS A 131     -30.454  84.913 199.324  1.00 33.79 LIG 0.04  C 
BRANCH 19 20
ATOM     20  CG  LYS A 131     -29.534  83.759 198.950  1.00 34.08 LIG 0.00  C 
BRANCH 20 21
ATOM     21  CD  LYS A 131     -29.989  82.978 197.758  1.00 36.35 LIG 0.03  C 
BRANCH 21 22
ATOM     22  CE  LYS A 131     -28.993  81.870 197.438  1.00 32.79 LIG 0.23  C 
BRANCH 22 23
ATOM     23  NZ  LYS A 131     -28.170  81.518 198.630  1.00 29.22 LIG-0.08  N 
ATOM     24 HZ3  LYS A 131     -27.368  81.238 198.366  1.00 29.22 LIG 0.27  HD
ATOM     25 HZ2  LYS A 131     -28.574  80.871 199.089  1.00 29.22 LIG 0.27  HD
ATOM     26 HZ1  LYS A 131     -28.077  82.235 199.149  1.00 29.22 LIG 0.27  HD
ENDBRANCH 22 23
ENDBRANCH 21 22
ENDBRANCH 20 21
ENDBRANCH 19 20
ENDBRANCH 18 19
BRANCH 18 27
ATOM     27  C   LYS A 131     -29.425  87.227 199.356  1.00 34.74 LIG 0.24  C 
ATOM     28  N   VAL A 132     -30.377  88.154 199.326  1.00 33.85 LIG-0.35  N 
ATOM     29 H    VAL A 132     -31.141  88.073 199.713  1.00 33.85 LIG 0.16  HD
ATOM     30 O    LYS A 131     -28.364  87.339 198.739  1.00 35.56 LIG-0.27  OA
BRANCH 28 31
ATOM     31  CA  VAL A 132     -30.189  89.415 198.612  1.00 36.14 LIG 0.17  C 
BRANCH 31 32
ATOM     32  C   VAL A 132     -30.077  89.202 197.101  1.00 41.88 LIG 0.22  C 
ATOM     33 O    VAL A 132     -31.067  88.854 196.448  1.00 46.22 LIG-0.29  OA
ENDBRANCH 31 32
BRANCH 31 34
ATOM     34  CB  VAL A 132     -28.928  90.163 199.106  1.00 35.83 LIG 0.01  C 
ATOM     35  CG1 VAL A 132     -28.040  90.543 197.926  1.00 39.48 LIG 0.01  C 
ATOM     36  CG2 VAL A 132     -29.316  91.394 199.887  1.00 35.02 LIG 0.01  C 
ENDBRANCH 31 34
ENDBRANCH 28 31
ENDBRANCH 18 27
ENDBRANCH 15 18
ENDBRANCH 1 14
BRANCH 1 37
ATOM     37  N   ARG A 130     -32.068  88.094 203.140  1.00 35.65 LIG-0.35  N 
ATOM     38 H    ARG A 130     -31.933  88.037 203.987  1.00 35.65 LIG 0.16  HD
ATOM     39  C   LYS A 129     -31.860  89.201 202.431  1.00 38.36 LIG 0.24  C 
ATOM     40 O    LYS A 129     -32.026  89.253 201.217  1.00 38.91 LIG-0.27  OA
BRANCH 39 41
ATOM     41  CA  LYS A 129     -31.408  90.436 203.206  1.00 41.62 LIG 0.18  C 
BRANCH 41 42
ATOM     42  CB  LYS A 129     -30.490  90.012 204.349  1.00 37.07 LIG 0.04  C 
BRANCH 42 43
ATOM     43  CG  LYS A 129     -29.425  91.032 204.723  1.00 37.25 LIG 0.00  C 
BRANCH 43 44
ATOM     44  CD  LYS A 129     -29.687  91.663 206.089  1.00 32.25 LIG 0.03  C 
BRANCH 44 45
ATOM     45  CE  LYS A 129     -29.071  93.055 206.148  1.00 33.17 LIG 0.23  C 
BRANCH 45 46
ATOM     46  NZ  LYS A 129     -29.759  93.965 207.118  1.00 31.02 LIG-0.08  N 
ATOM     47 HZ2  LYS A 129     -29.179  94.229 207.739  1.00 31.02 LIG 0.27  HD
ATOM     48 HZ3  LYS A 129     -30.075  94.676 206.686  1.00 31.02 LIG 0.27  HD
ATOM     49 HZ1  LYS A 129     -30.433  93.531 207.506  1.00 31.02 LIG 0.27  HD
ENDBRANCH 45 46
ENDBRANCH 44 45
ENDBRANCH 43 44
ENDBRANCH 42 43
ENDBRANCH 41 42
BRANCH 41 50
ATOM     50  N   LYS A 129     -32.537  91.212 203.720  1.00 48.91 LIG-0.35  N 
ATOM     51  C   LYS A 128     -32.705  92.498 203.411  1.00 46.33 LIG 0.26  C 
ATOM     52 O    LYS A 128     -31.971  93.101 202.632  1.00 48.39 LIG-0.27  OA
ATOM     53 H    LYS A 129     -33.069  90.769 204.229  1.00 48.91 LIG 0.16  HD
BRANCH 51 54
ATOM     54  CA  LYS A 128     -33.890  93.206 204.069  1.00 52.62 LIG 0.40  C 
ATOM     55  N   LYS A 128     -34.417  92.416 205.173  1.00 52.42 LIG 0.61  N 
BRANCH 54 56
ATOM     56  CB  LYS A 128     -33.473  94.599 204.557  1.00 53.69 LIG 0.05  C 
BRANCH 56 57
ATOM     57  CG  LYS A 128     -32.059  94.669 205.117  1.00 48.68 LIG 0.00  C 
BRANCH 57 58
ATOM     58  CD  LYS A 128     -31.391  95.988 204.767  1.00 52.15 LIG 0.03  C 
BRANCH 58 59
ATOM     59  CE  LYS A 128     -30.264  95.771 203.770  1.00 44.05 LIG 0.23  C 
BRANCH 59 60
ATOM     60  NZ  LYS A 128     -28.910  96.041 204.344  1.00 43.39 LIG-0.08  N 
ATOM     61 HZ1  LYS A 128     -28.286  95.801 203.757  1.00 43.39 LIG 0.27  HD
ATOM     62 HZ2  LYS A 128     -28.830  96.909 204.523  1.00 43.39 LIG 0.27  HD
ATOM     63 HZ3  LYS A 128     -28.807  95.573 205.094  1.00 43.39 LIG 0.27  HD
ENDBRANCH 59 60
ENDBRANCH 58 59
ENDBRANCH 57 58
ENDBRANCH 56 57
ENDBRANCH 54 56
ENDBRANCH 51 54
ENDBRANCH 41 50
ENDBRANCH 39 41
ENDBRANCH 1 37
TORSDOF 29
ENDMDL
MODEL 31
USER: ADFR SOLUTION from run 77
USER: SCORE 18.087425 LL:  -1.438 LR: -18.891 RR:   0.000 FEB: -10.241
USER: RMSD 10.166511
USER: SEED 76
USER: STATUS no improvement in best in 8 clusters for 5 generations
USER: GENES 31
USER: genes 0 Translation |==|  0.49721 0.67465 0.50076
USER: genes 1 Rotation |==|  0.73020 0.10356 0.57892 0.68334
USER: genes 2 Torsion [C]-CA--CB-[CG] |==|  0.30977
USER: genes 3 Torsion [CA]-CB--CG-[CD] |==|  0.32667
USER: genes 4 Torsion [CB]-CG--CD-[NE] |==|  0.49121
USER: genes 5 Torsion [CG]-CD--NE-[HE] |==|  0.83264
USER: genes 6 Torsion [N]-CA--C-[N] |==|  0.59877
USER: genes 7 Torsion [C]-N--CA-[CB] |==|  0.79874
USER: genes 8 Torsion [N]-CA--CB-[CG] |==|  0.58101
USER: genes 9 Torsion [CA]-CB--CG-[CD] |==|  0.28420
USER: genes 10 Torsion [CB]-CG--CD-[CE] |==|  0.45904
USER: genes 11 Torsion [CG]-CD--CE-[NZ] |==|  0.35952
USER: genes 12 Torsion [CD]-CE--NZ-[HZ2] |==|  0.57025
USER: genes 13 Torsion [N]-CA--C-[N] |==|  0.17959
USER: genes 14 Torsion [C]-N--CA-[CB] |==|  0.45390
USER: genes 15 Torsion [N]-CA--C-[O] |==|  0.33637
USER: genes 16 Torsion [N]-CA--CB-[CG1] |==|  0.31031
USER: genes 17 Torsion [CB]-CA--N-[C] |==|  0.86957
USER: genes 18 Torsion [N]-C--CA-[N] |==|  0.00263
USER: genes 19 Torsion [C]-CA--CB-[CG] |==|  0.33427
USER: genes 20 Torsion [CA]-CB--CG-[CD] |==|  0.94614
USER: genes 21 Torsion [CB]-CG--CD-[CE] |==|  0.34219
USER: genes 22 Torsion [CG]-CD--CE-[NZ] |==|  0.46366
USER: genes 23 Torsion [CD]-CE--NZ-[HZ1] |==|  0.04226
USER: genes 24 Torsion [C]-CA--N-[C] |==|  0.70477
USER: genes 25 Torsion [N]-C--CA-[N] |==|  0.25436
USER: genes 26 Torsion [C]-CA--CB-[CG] |==|  0.68799
USER: genes 27 Torsion [CA]-CB--CG-[CD] |==|  0.44216
USER: genes 28 Torsion [CB]-CG--CD-[CE] |==|  0.52247
USER: genes 29 Torsion [CG]-CD--CE-[NZ] |==|  0.46294
USER: genes 30 Torsion [CD]-CE--NZ-[HZ2] |==|  0.09114
ROOT
ATOM      1  CA  ARG A 130     -30.871  91.110 202.482  1.00 33.49 LIG 0.18  C 
ENDROOT
BRANCH 1 2
ATOM      2  CB  ARG A 130     -30.188  90.490 203.702  1.00 35.16 LIG 0.04  C 
BRANCH 2 3
ATOM      3  CG  ARG A 130     -29.160  91.364 204.390  1.00 39.71 LIG 0.02  C 
BRANCH 3 4
ATOM      4  CD  ARG A 130     -29.596  91.663 205.824  1.00 38.05 LIG 0.14  C 
BRANCH 4 5
ATOM      5  NE  ARG A 130     -28.592  92.445 206.547  1.00 39.97 LIG-0.23  N 
ATOM      6 HE   ARG A 130     -27.809  92.102 206.642  1.00 39.97 LIG 0.18  HD
ATOM      7  CZ  ARG A 130     -28.808  93.649 207.067  1.00 35.35 LIG 0.67  C 
ATOM      8  NH1 ARG A 130     -30.001  94.222 206.964  1.00 35.08 LIG-0.23  N 
ATOM      9  NH2 ARG A 130     -27.831  94.282 207.702  1.00 36.08 LIG-0.23  N 
ATOM     10 2HH1 ARG A 130     -30.134  95.001 207.302  1.00 35.08 LIG 0.17  HD
ATOM     11 1HH1 ARG A 130     -30.640  93.813 206.558  1.00 35.08 LIG 0.17  HD
ATOM     12 1HH2 ARG A 130     -27.059  93.913 207.777  1.00 36.08 LIG 0.17  HD
ATOM     13 2HH2 ARG A 130     -27.971  95.061 208.039  1.00 36.08 LIG 0.17  HD
ENDBRANCH 4 5
ENDBRANCH 3 4
ENDBRANCH 2 3
ENDBRANCH 1 2
BRANCH 1 14
ATOM     14  C   ARG A 130     -30.420  90.371 201.236  1.00 35.02 LIG 0.24  C 
ATOM     15  N   LYS A 131     -29.278  89.695 201.317  1.00 32.29 LIG-0.35  N 
ATOM     16 H    LYS A 131     -28.774  89.672 202.013  1.00 32.29 LIG 0.16  HD
ATOM     17 O    ARG A 130     -31.105  90.394 200.217  1.00 31.53 LIG-0.27  OA
BRANCH 15 18
ATOM     18  CA  LYS A 131     -28.795  88.922 200.184  1.00 31.30 LIG 0.18  C 
BRANCH 18 19
ATOM     19  CB  LYS A 131     -29.651  87.658 199.998  1.00 33.79 LIG 0.04  C 
BRANCH 19 20
ATOM     20  CG  LYS A 131     -28.847  86.525 199.377  1.00 34.08 LIG 0.00  C 
BRANCH 20 21
ATOM     21  CD  LYS A 131     -28.408  85.481 200.356  1.00 36.35 LIG 0.03  C 
BRANCH 21 22
ATOM     22  CE  LYS A 131     -27.940  84.230 199.624  1.00 32.79 LIG 0.23  C 
BRANCH 22 23
ATOM     23  NZ  LYS A 131     -26.600  83.788 200.104  1.00 29.22 LIG-0.08  N 
ATOM     24 HZ3  LYS A 131     -26.109  84.501 200.311  1.00 29.22 LIG 0.27  HD
ATOM     25 HZ2  LYS A 131     -26.194  83.324 199.464  1.00 29.22 LIG 0.27  HD
ATOM     26 HZ1  LYS A 131     -26.697  83.276 200.826  1.00 29.22 LIG 0.27  HD
ENDBRANCH 22 23
ENDBRANCH 21 22
ENDBRANCH 20 21
ENDBRANCH 19 20
ENDBRANCH 18 19
BRANCH 18 27
ATOM     27  C   LYS A 131     -28.789  89.785 198.926  1.00 34.74 LIG 0.24  C 
ATOM     28  N   VAL A 132     -27.960  90.824 198.920  1.00 33.85 LIG-0.35  N 
ATOM     29 H    VAL A 132     -27.456  91.043 199.582  1.00 33.85 LIG 0.16  HD
ATOM     30 O    LYS A 131     -29.548  89.532 197.989  1.00 35.56 LIG-0.27  OA
BRANCH 28 31
ATOM     31  CA  VAL A 132     -27.843  91.697 197.755  1.00 36.14 LIG 0.17  C 
BRANCH 31 32
ATOM     32  C   VAL A 132     -27.060  91.031 196.621  1.00 41.88 LIG 0.22  C 
ATOM     33 O    VAL A 132     -27.587  90.868 195.514  1.00 46.22 LIG-0.29  OA
ENDBRANCH 31 32
BRANCH 31 34
ATOM     34  CB  VAL A 132     -27.158  93.036 198.115  1.00 35.83 LIG 0.01  C 
ATOM     35  CG1 VAL A 132     -25.784  93.123 197.458  1.00 39.48 LIG 0.01  C 
ATOM     36  CG2 VAL A 132     -28.016  94.202 197.690  1.00 35.02 LIG 0.01  C 
ENDBRANCH 31 34
ENDBRANCH 28 31
ENDBRANCH 18 27
ENDBRANCH 15 18
ENDBRANCH 1 14
BRANCH 1 37
ATOM     37  N   ARG A 130     -32.329  91.079 202.610  1.00 35.65 LIG-0.35  N 
ATOM     38 H    ARG A 130     -32.715  91.823 202.419  1.00 35.65 LIG 0.16  HD
ATOM     39  C   LYS A 129     -32.981  89.984 202.992  1.00 38.36 LIG 0.24  C 
ATOM     40 O    LYS A 129     -32.415  88.922 203.228  1.00 38.91 LIG-0.27  OA
BRANCH 39 41
ATOM     41  CA  LYS A 129     -34.495  90.105 203.140  1.00 41.62 LIG 0.18  C 
BRANCH 41 42
ATOM     42  CB  LYS A 129     -35.178  89.057 202.264  1.00 37.07 LIG 0.04  C 
BRANCH 42 43
ATOM     43  CG  LYS A 129     -36.060  88.073 203.018  1.00 37.25 LIG 0.00  C 
BRANCH 43 44
ATOM     44  CD  LYS A 129     -35.725  88.025 204.507  1.00 32.25 LIG 0.03  C 
BRANCH 44 45
ATOM     45  CE  LYS A 129     -36.967  88.343 205.332  1.00 33.17 LIG 0.23  C 
BRANCH 45 46
ATOM     46  NZ  LYS A 129     -36.810  88.017 206.785  1.00 31.02 LIG-0.08  N 
ATOM     47 HZ2  LYS A 129     -37.128  88.688 207.275  1.00 31.02 LIG 0.27  HD
ATOM     48 HZ3  LYS A 129     -37.261  87.273 206.972  1.00 31.02 LIG 0.27  HD
ATOM     49 HZ1  LYS A 129     -35.948  87.895 206.971  1.00 31.02 LIG 0.27  HD
ENDBRANCH 45 46
ENDBRANCH 44 45
ENDBRANCH 43 44
ENDBRANCH 42 43
ENDBRANCH 41 42
BRANCH 41 50
ATOM     50  N   LYS A 129     -34.981  91.444 202.805  1.00 48.91 LIG-0.35  N 
ATOM     51  C   LYS A 128     -35.385  92.301 203.742  1.00 46.33 LIG 0.26  C 
ATOM     52 O    LYS A 128     -35.322  92.056 204.945  1.00 48.39 LIG-0.27  OA
ATOM     53 H    LYS A 129     -34.980  91.621 201.963  1.00 48.91 LIG 0.16  HD
BRANCH 51 54
ATOM     54  CA  LYS A 128     -35.929  93.642 203.249  1.00 52.62 LIG 0.40  C 
ATOM     55  N   LYS A 128     -37.371  93.578 203.060  1.00 52.42 LIG 0.61  N 
BRANCH 54 56
ATOM     56  CB  LYS A 128     -35.566  94.758 204.236  1.00 53.69 LIG 0.05  C 
BRANCH 56 57
ATOM     57  CG  LYS A 128     -36.757  95.357 204.972  1.00 48.68 LIG 0.00  C 
BRANCH 57 58
ATOM     58  CD  LYS A 128     -36.323  96.054 206.249  1.00 52.15 LIG 0.03  C 
BRANCH 58 59
ATOM     59  CE  LYS A 128     -37.532  96.472 207.071  1.00 44.05 LIG 0.23  C 
BRANCH 59 60
ATOM     60  NZ  LYS A 128     -37.185  96.872 208.469  1.00 43.39 LIG-0.08  N 
ATOM     61 HZ1  LYS A 128     -37.179  96.151 208.991  1.00 43.39 LIG 0.27  HD
ATOM     62 HZ2  LYS A 128     -36.380  97.251 208.479  1.00 43.39 LIG 0.27  HD
ATOM     63 HZ3  LYS A 128     -37.789  97.451 208.771  1.00 43.39 LIG 0.27  HD
ENDBRANCH 59 60
ENDBRANCH 58 59
ENDBRANCH 57 58
ENDBRANCH 56 57
ENDBRANCH 54 56
ENDBRANCH 51 54
ENDBRANCH 41 50
ENDBRANCH 39 41
ENDBRANCH 1 37
TORSDOF 29
ENDMDL
MODEL 32
USER: ADFR SOLUTION from run 99
USER: SCORE 19.806454 LL:  -2.712 LR: -18.891 RR:   0.000 FEB: -10.240
USER: RMSD 6.718150
USER: SEED 98
USER: STATUS no improvement in best in 3 clusters for 5 generations
USER: GENES 31
USER: genes 0 Translation |==|  0.55847 0.65769 0.57034
USER: genes 1 Rotation |==|  0.85918 0.73914 0.24755 0.50837
USER: genes 2 Torsion [C]-CA--CB-[CG] |==|  0.95674
USER: genes 3 Torsion [CA]-CB--CG-[CD] |==|  0.28992
USER: genes 4 Torsion [CB]-CG--CD-[NE] |==|  0.09639
USER: genes 5 Torsion [CG]-CD--NE-[HE] |==|  0.24072
USER: genes 6 Torsion [N]-CA--C-[N] |==|  0.00735
USER: genes 7 Torsion [C]-N--CA-[CB] |==|  0.19269
USER: genes 8 Torsion [N]-CA--CB-[CG] |==|  0.46329
USER: genes 9 Torsion [CA]-CB--CG-[CD] |==|  0.30174
USER: genes 10 Torsion [CB]-CG--CD-[CE] |==|  0.64192
USER: genes 11 Torsion [CG]-CD--CE-[NZ] |==|  0.39282
USER: genes 12 Torsion [CD]-CE--NZ-[HZ2] |==|  0.05797
USER: genes 13 Torsion [N]-CA--C-[N] |==|  0.98347
USER: genes 14 Torsion [C]-N--CA-[CB] |==|  0.43775
USER: genes 15 Torsion [N]-CA--C-[O] |==|  0.95268
USER: genes 16 Torsion [N]-CA--CB-[CG1] |==|  0.54608
USER: genes 17 Torsion [CB]-CA--N-[C] |==|  0.82778
USER: genes 18 Torsion [N]-C--CA-[N] |==|  0.71485
USER: genes 19 Torsion [C]-CA--CB-[CG] |==|  0.35839
USER: genes 20 Torsion [CA]-CB--CG-[CD] |==|  0.46157
USER: genes 21 Torsion [CB]-CG--CD-[CE] |==|  0.43607
USER: genes 22 Torsion [CG]-CD--CE-[NZ] |==|  0.53602
USER: genes 23 Torsion [CD]-CE--NZ-[HZ1] |==|  0.68735
USER: genes 24 Torsion [C]-CA--N-[C] |==|  0.69238
USER: genes 25 Torsion [N]-C--CA-[N] |==|  0.64991
USER: genes 26 Torsion [C]-CA--CB-[CG] |==|  0.45951
USER: genes 27 Torsion [CA]-CB--CG-[CD] |==|  0.89749
USER: genes 28 Torsion [CB]-CG--CD-[CE] |==|  0.63549
USER: genes 29 Torsion [CG]-CD--CE-[NZ] |==|  0.34107
USER: genes 30 Torsion [CD]-CE--NZ-[HZ2] |==|  0.59290
ROOT
ATOM      1  CA  ARG A 130     -29.538  90.691 203.682  1.00 33.49 LIG 0.18  C 
ENDROOT
BRANCH 1 2
ATOM      2  CB  ARG A 130     -29.524  92.220 203.638  1.00 35.16 LIG 0.04  C 
BRANCH 2 3
ATOM      3  CG  ARG A 130     -30.882  92.883 203.530  1.00 39.71 LIG 0.02  C 
BRANCH 3 4
ATOM      4  CD  ARG A 130     -31.288  93.475 204.878  1.00 38.05 LIG 0.14  C 
BRANCH 4 5
ATOM      5  NE  ARG A 130     -30.135  93.992 205.617  1.00 39.97 LIG-0.23  N 
ATOM      6 HE   ARG A 130     -29.888  94.800 205.459  1.00 39.97 LIG 0.18  HD
ATOM      7  CZ  ARG A 130     -29.444  93.297 206.515  1.00 35.35 LIG 0.67  C 
ATOM      8  NH1 ARG A 130     -29.771  92.040 206.789  1.00 35.08 LIG-0.23  N 
ATOM      9  NH2 ARG A 130     -28.415  93.855 207.137  1.00 36.08 LIG-0.23  N 
ATOM     10 2HH1 ARG A 130     -29.320  91.596 207.370  1.00 35.08 LIG 0.17  HD
ATOM     11 1HH1 ARG A 130     -30.434  91.671 206.384  1.00 35.08 LIG 0.17  HD
ATOM     12 1HH2 ARG A 130     -28.196  94.667 206.959  1.00 36.08 LIG 0.17  HD
ATOM     13 2HH2 ARG A 130     -27.968  93.406 207.718  1.00 36.08 LIG 0.17  HD
ENDBRANCH 4 5
ENDBRANCH 3 4
ENDBRANCH 2 3
ENDBRANCH 1 2
BRANCH 1 14
ATOM     14  C   ARG A 130     -30.948  90.221 203.991  1.00 35.02 LIG 0.24  C 
ATOM     15  N   LYS A 131     -31.491  89.351 203.145  1.00 32.29 LIG-0.35  N 
ATOM     16 H    LYS A 131     -31.109  89.062 202.431  1.00 32.29 LIG 0.16  HD
ATOM     17 O    ARG A 130     -31.533  90.623 204.993  1.00 31.53 LIG-0.27  OA
BRANCH 15 18
ATOM     18  CA  LYS A 131     -32.820  88.814 203.389  1.00 31.30 LIG 0.18  C 
BRANCH 18 19
ATOM     19  CB  LYS A 131     -33.880  89.912 203.203  1.00 33.79 LIG 0.04  C 
BRANCH 19 20
ATOM     20  CG  LYS A 131     -35.284  89.327 203.131  1.00 34.08 LIG 0.00  C 
BRANCH 20 21
ATOM     21  CD  LYS A 131     -36.123  89.604 204.338  1.00 36.35 LIG 0.03  C 
BRANCH 21 22
ATOM     22  CE  LYS A 131     -36.735  88.312 204.866  1.00 32.79 LIG 0.23  C 
BRANCH 22 23
ATOM     23  NZ  LYS A 131     -36.749  88.288 206.357  1.00 29.22 LIG-0.08  N 
ATOM     24 HZ3  LYS A 131     -37.508  87.921 206.641  1.00 29.22 LIG 0.27  HD
ATOM     25 HZ2  LYS A 131     -36.686  89.119 206.668  1.00 29.22 LIG 0.27  HD
ATOM     26 HZ1  LYS A 131     -36.060  87.809 206.653  1.00 29.22 LIG 0.27  HD
ENDBRANCH 22 23
ENDBRANCH 21 22
ENDBRANCH 20 21
ENDBRANCH 19 20
ENDBRANCH 18 19
BRANCH 18 27
ATOM     27  C   LYS A 131     -33.081  87.623 202.472  1.00 34.74 LIG 0.24  C 
ATOM     28  N   VAL A 132     -32.152  87.361 201.557  1.00 33.85 LIG-0.35  N 
ATOM     29 H    VAL A 132     -31.440  87.830 201.445  1.00 33.85 LIG 0.16  HD
ATOM     30 O    LYS A 131     -34.123  86.974 202.569  1.00 35.56 LIG-0.27  OA
BRANCH 28 31
ATOM     31  CA  VAL A 132     -32.277  86.223 200.650  1.00 36.14 LIG 0.17  C 
BRANCH 31 32
ATOM     32  C   VAL A 132     -31.857  84.912 201.320  1.00 41.88 LIG 0.22  C 
ATOM     33 O    VAL A 132     -31.185  84.932 202.357  1.00 46.22 LIG-0.29  OA
ENDBRANCH 31 32
BRANCH 31 34
ATOM     34  CB  VAL A 132     -31.434  86.423 199.370  1.00 35.83 LIG 0.01  C 
ATOM     35  CG1 VAL A 132     -31.883  85.454 198.281  1.00 39.48 LIG 0.01  C 
ATOM     36  CG2 VAL A 132     -31.543  87.846 198.881  1.00 35.02 LIG 0.01  C 
ENDBRANCH 31 34
ENDBRANCH 28 31
ENDBRANCH 18 27
ENDBRANCH 15 18
ENDBRANCH 1 14
BRANCH 1 37
ATOM     37  N   ARG A 130     -29.058  90.113 202.426  1.00 35.65 LIG-0.35  N 
ATOM     38 H    ARG A 130     -28.347  89.637 202.507  1.00 35.65 LIG 0.16  HD
ATOM     39  C   LYS A 129     -29.682  90.320 201.269  1.00 38.36 LIG 0.24  C 
ATOM     40 O    LYS A 129     -30.715  90.975 201.179  1.00 38.91 LIG-0.27  OA
BRANCH 39 41
ATOM     41  CA  LYS A 129     -29.042  89.707 200.026  1.00 41.62 LIG 0.18  C 
BRANCH 41 42
ATOM     42  CB  LYS A 129     -28.101  88.579 200.442  1.00 37.07 LIG 0.04  C 
BRANCH 42 43
ATOM     43  CG  LYS A 129     -28.321  87.263 199.710  1.00 37.25 LIG 0.00  C 
BRANCH 43 44
ATOM     44  CD  LYS A 129     -27.159  86.292 199.912  1.00 32.25 LIG 0.03  C 
BRANCH 44 45
ATOM     45  CE  LYS A 129     -27.629  84.862 199.678  1.00 33.17 LIG 0.23  C 
BRANCH 45 46
ATOM     46  NZ  LYS A 129     -26.648  83.834 200.151  1.00 31.02 LIG-0.08  N 
ATOM     47 HZ2  LYS A 129     -25.989  84.234 200.594  1.00 31.02 LIG 0.27  HD
ATOM     48 HZ3  LYS A 129     -27.059  83.256 200.689  1.00 31.02 LIG 0.27  HD
ATOM     49 HZ1  LYS A 129     -26.313  83.398 199.450  1.00 31.02 LIG 0.27  HD
ENDBRANCH 45 46
ENDBRANCH 44 45
ENDBRANCH 43 44
ENDBRANCH 42 43
ENDBRANCH 41 42
BRANCH 41 50
ATOM     50  N   LYS A 129     -28.325  90.699 199.225  1.00 48.91 LIG-0.35  N 
ATOM     51  C   LYS A 128     -28.763  91.084 198.026  1.00 46.33 LIG 0.26  C 
ATOM     52 O    LYS A 128     -29.819  90.687 197.539  1.00 48.39 LIG-0.27  OA
ATOM     53 H    LYS A 129     -27.610  91.002 199.593  1.00 48.91 LIG 0.16  HD
BRANCH 51 54
ATOM     54  CA  LYS A 128     -27.883  92.079 197.268  1.00 52.62 LIG 0.40  C 
ATOM     55  N   LYS A 128     -28.649  93.251 196.872  1.00 52.42 LIG 0.61  N 
BRANCH 54 56
ATOM     56  CB  LYS A 128     -26.682  92.489 198.130  1.00 53.69 LIG 0.05  C 
BRANCH 56 57
ATOM     57  CG  LYS A 128     -25.569  93.190 197.363  1.00 48.68 LIG 0.00  C 
BRANCH 57 58
ATOM     58  CD  LYS A 128     -25.397  92.598 195.975  1.00 52.15 LIG 0.03  C 
BRANCH 58 59
ATOM     59  CE  LYS A 128     -23.934  92.293 195.698  1.00 44.05 LIG 0.23  C 
BRANCH 59 60
ATOM     60  NZ  LYS A 128     -23.685  90.860 195.351  1.00 43.39 LIG-0.08  N 
ATOM     61 HZ1  LYS A 128     -23.703  90.761 194.467  1.00 43.39 LIG 0.27  HD
ATOM     62 HZ2  LYS A 128     -22.888  90.613 195.661  1.00 43.39 LIG 0.27  HD
ATOM     63 HZ3  LYS A 128     -24.316  90.352 195.719  1.00 43.39 LIG 0.27  HD
ENDBRANCH 59 60
ENDBRANCH 58 59
ENDBRANCH 57 58
ENDBRANCH 56 57
ENDBRANCH 54 56
ENDBRANCH 51 54
ENDBRANCH 41 50
ENDBRANCH 39 41
ENDBRANCH 1 37
TORSDOF 29
ENDMDL
MODEL 33
USER: ADFR SOLUTION from run 68
USER: SCORE 18.946276 LL:  -1.868 LR: -18.880 RR:   0.000 FEB: -10.230
USER: RMSD 9.466040
USER: SEED 67
USER: STATUS no improvement in best in 4 clusters for 5 generations
USER: GENES 31
USER: genes 0 Translation |==|  0.48220 0.63250 0.54440
USER: genes 1 Rotation |==|  0.03854 0.39451 0.53738 0.65662
USER: genes 2 Torsion [C]-CA--CB-[CG] |==|  0.99103
USER: genes 3 Torsion [CA]-CB--CG-[CD] |==|  0.66718
USER: genes 4 Torsion [CB]-CG--CD-[NE] |==|  0.63354
USER: genes 5 Torsion [CG]-CD--NE-[HE] |==|  0.68595
USER: genes 6 Torsion [N]-CA--C-[N] |==|  0.39991
USER: genes 7 Torsion [C]-N--CA-[CB] |==|  0.36695
USER: genes 8 Torsion [N]-CA--CB-[CG] |==|  0.20319
USER: genes 9 Torsion [CA]-CB--CG-[CD] |==|  0.57683
USER: genes 10 Torsion [CB]-CG--CD-[CE] |==|  0.35036
USER: genes 11 Torsion [CG]-CD--CE-[NZ] |==|  0.18409
USER: genes 12 Torsion [CD]-CE--NZ-[HZ2] |==|  0.92382
USER: genes 13 Torsion [N]-CA--C-[N] |==|  0.32217
USER: genes 14 Torsion [C]-N--CA-[CB] |==|  0.39901
USER: genes 15 Torsion [N]-CA--C-[O] |==|  0.36732
USER: genes 16 Torsion [N]-CA--CB-[CG1] |==|  0.83983
USER: genes 17 Torsion [CB]-CA--N-[C] |==|  0.84444
USER: genes 18 Torsion [N]-C--CA-[N] |==|  0.02467
USER: genes 19 Torsion [C]-CA--CB-[CG] |==|  0.93296
USER: genes 20 Torsion [CA]-CB--CG-[CD] |==|  0.30642
USER: genes 21 Torsion [CB]-CG--CD-[CE] |==|  0.00945
USER: genes 22 Torsion [CG]-CD--CE-[NZ] |==|  0.64828
USER: genes 23 Torsion [CD]-CE--NZ-[HZ1] |==|  0.82261
USER: genes 24 Torsion [C]-CA--N-[C] |==|  0.69696
USER: genes 25 Torsion [N]-C--CA-[N] |==|  0.41443
USER: genes 26 Torsion [C]-CA--CB-[CG] |==|  0.58456
USER: genes 27 Torsion [CA]-CB--CG-[CD] |==|  0.85447
USER: genes 28 Torsion [CB]-CG--CD-[CE] |==|  0.51077
USER: genes 29 Torsion [CG]-CD--CE-[NZ] |==|  0.81142
USER: genes 30 Torsion [CD]-CE--NZ-[HZ2] |==|  0.98327
ROOT
ATOM      1  CA  ARG A 130     -31.197  90.067 203.235  1.00 33.49 LIG 0.18  C 
ENDROOT
BRANCH 1 2
ATOM      2  CB  ARG A 130     -30.312  90.682 204.321  1.00 35.16 LIG 0.04  C 
BRANCH 2 3
ATOM      3  CG  ARG A 130     -30.690  92.083 204.756  1.00 39.71 LIG 0.02  C 
BRANCH 3 4
ATOM      4  CD  ARG A 130     -29.534  93.047 204.496  1.00 38.05 LIG 0.14  C 
BRANCH 4 5
ATOM      5  NE  ARG A 130     -29.251  93.885 205.661  1.00 39.97 LIG-0.23  N 
ATOM      6 HE   ARG A 130     -29.406  94.729 205.595  1.00 39.97 LIG 0.18  HD
ATOM      7  CZ  ARG A 130     -28.769  93.433 206.815  1.00 35.35 LIG 0.67  C 
ATOM      8  NH1 ARG A 130     -28.497  92.144 206.969  1.00 35.08 LIG-0.23  N 
ATOM      9  NH2 ARG A 130     -28.549  94.273 207.816  1.00 36.08 LIG-0.23  N 
ATOM     10 2HH1 ARG A 130     -28.185  91.857 207.718  1.00 35.08 LIG 0.17  HD
ATOM     11 1HH1 ARG A 130     -28.632  91.595 206.321  1.00 35.08 LIG 0.17  HD
ATOM     12 1HH2 ARG A 130     -28.718  95.110 207.719  1.00 36.08 LIG 0.17  HD
ATOM     13 2HH2 ARG A 130     -28.237  93.980 208.562  1.00 36.08 LIG 0.17  HD
ENDBRANCH 4 5
ENDBRANCH 3 4
ENDBRANCH 2 3
ENDBRANCH 1 2
BRANCH 1 14
ATOM     14  C   ARG A 130     -32.323  91.032 202.913  1.00 35.02 LIG 0.24  C 
ATOM     15  N   LYS A 131     -33.463  90.871 203.577  1.00 32.29 LIG-0.35  N 
ATOM     16 H    LYS A 131     -33.608  90.247 204.151  1.00 32.29 LIG 0.16  HD
ATOM     17 O    ARG A 130     -32.159  91.926 202.087  1.00 31.53 LIG-0.27  OA
BRANCH 15 18
ATOM     18  CA  LYS A 131     -34.579  91.779 203.363  1.00 31.30 LIG 0.18  C 
BRANCH 18 19
ATOM     19  CB  LYS A 131     -35.878  90.985 203.148  1.00 33.79 LIG 0.04  C 
BRANCH 19 20
ATOM     20  CG  LYS A 131     -36.377  90.370 204.449  1.00 34.08 LIG 0.00  C 
BRANCH 20 21
ATOM     21  CD  LYS A 131     -37.181  89.122 204.264  1.00 36.35 LIG 0.03  C 
BRANCH 21 22
ATOM     22  CE  LYS A 131     -36.603  87.990 205.104  1.00 32.79 LIG 0.23  C 
BRANCH 22 23
ATOM     23  NZ  LYS A 131     -36.748  88.267 206.561  1.00 29.22 LIG-0.08  N 
ATOM     24 HZ3  LYS A 131     -37.506  87.909 206.859  1.00 29.22 LIG 0.27  HD
ATOM     25 HZ2  LYS A 131     -36.763  89.147 206.696  1.00 29.22 LIG 0.27  HD
ATOM     26 HZ1  LYS A 131     -36.060  87.913 207.001  1.00 29.22 LIG 0.27  HD
ENDBRANCH 22 23
ENDBRANCH 21 22
ENDBRANCH 20 21
ENDBRANCH 19 20
ENDBRANCH 18 19
BRANCH 18 27
ATOM     27  C   LYS A 131     -34.700  92.746 204.537  1.00 34.74 LIG 0.24  C 
ATOM     28  N   VAL A 132     -34.504  94.034 204.272  1.00 33.85 LIG-0.35  N 
ATOM     29 H    VAL A 132     -34.296  94.340 203.495  1.00 33.85 LIG 0.16  HD
ATOM     30 O    LYS A 131     -34.932  92.326 205.672  1.00 35.56 LIG-0.27  OA
BRANCH 28 31
ATOM     31  CA  VAL A 132     -34.632  95.052 205.311  1.00 36.14 LIG 0.17  C 
BRANCH 31 32
ATOM     32  C   VAL A 132     -36.033  95.668 205.336  1.00 41.88 LIG 0.22  C 
ATOM     33 O    VAL A 132     -36.640  95.788 206.406  1.00 46.22 LIG-0.29  OA
ENDBRANCH 31 32
BRANCH 31 34
ATOM     34  CB  VAL A 132     -33.593  96.183 205.128  1.00 35.83 LIG 0.01  C 
ATOM     35  CG1 VAL A 132     -32.179  95.611 205.136  1.00 39.48 LIG 0.01  C 
ATOM     36  CG2 VAL A 132     -33.846  96.932 203.843  1.00 35.02 LIG 0.01  C 
ENDBRANCH 31 34
ENDBRANCH 28 31
ENDBRANCH 18 27
ENDBRANCH 15 18
ENDBRANCH 1 14
BRANCH 1 37
ATOM     37  N   ARG A 130     -30.426  89.744 202.033  1.00 35.65 LIG-0.35  N 
ATOM     38 H    ARG A 130     -30.483  88.922 201.789  1.00 35.65 LIG 0.16  HD
ATOM     39  C   LYS A 129     -29.704  90.659 201.390  1.00 38.36 LIG 0.24  C 
ATOM     40 O    LYS A 129     -29.661  91.835 201.735  1.00 38.91 LIG-0.27  OA
BRANCH 39 41
ATOM     41  CA  LYS A 129     -28.901  90.174 200.185  1.00 41.62 LIG 0.18  C 
BRANCH 41 42
ATOM     42  CB  LYS A 129     -29.140  91.113 199.005  1.00 37.07 LIG 0.04  C 
BRANCH 42 43
ATOM     43  CG  LYS A 129     -30.449  91.885 199.059  1.00 37.25 LIG 0.00  C 
BRANCH 43 44
ATOM     44  CD  LYS A 129     -30.228  93.375 199.310  1.00 32.25 LIG 0.03  C 
BRANCH 44 45
ATOM     45  CE  LYS A 129     -28.736  93.681 199.353  1.00 33.17 LIG 0.23  C 
BRANCH 45 46
ATOM     46  NZ  LYS A 129     -28.317  94.407 200.594  1.00 31.02 LIG-0.08  N 
ATOM     47 HZ2  LYS A 129     -28.560  93.937 201.309  1.00 31.02 LIG 0.27  HD
ATOM     48 HZ3  LYS A 129     -27.433  94.511 200.594  1.00 31.02 LIG 0.27  HD
ATOM     49 HZ1  LYS A 129     -28.709  95.206 200.618  1.00 31.02 LIG 0.27  HD
ENDBRANCH 45 46
ENDBRANCH 44 45
ENDBRANCH 43 44
ENDBRANCH 42 43
ENDBRANCH 41 42
BRANCH 41 50
ATOM     50  N   LYS A 129     -29.231  88.798 199.816  1.00 48.91 LIG-0.35  N 
ATOM     51  C   LYS A 128     -28.378  87.793 200.016  1.00 46.33 LIG 0.26  C 
ATOM     52 O    LYS A 128     -27.292  87.937 200.574  1.00 48.39 LIG-0.27  OA
ATOM     53 H    LYS A 129     -30.010  88.701 199.466  1.00 48.91 LIG 0.16  HD
BRANCH 51 54
ATOM     54  CA  LYS A 128     -28.823  86.415 199.524  1.00 52.62 LIG 0.40  C 
ATOM     55  N   LYS A 128     -27.676  85.614 199.120  1.00 52.42 LIG 0.61  N 
BRANCH 54 56
ATOM     56  CB  LYS A 128     -29.624  85.694 200.616  1.00 53.69 LIG 0.05  C 
BRANCH 56 57
ATOM     57  CG  LYS A 128     -29.498  84.177 200.588  1.00 48.68 LIG 0.00  C 
BRANCH 57 58
ATOM     58  CD  LYS A 128     -29.810  83.623 199.209  1.00 52.15 LIG 0.03  C 
BRANCH 58 59
ATOM     59  CE  LYS A 128     -29.774  82.103 199.220  1.00 44.05 LIG 0.23  C 
BRANCH 59 60
ATOM     60  NZ  LYS A 128     -28.403  81.547 199.438  1.00 43.39 LIG-0.08  N 
ATOM     61 HZ1  LYS A 128     -28.207  80.977 198.784  1.00 43.39 LIG 0.27  HD
ATOM     62 HZ2  LYS A 128     -27.810  82.211 199.439  1.00 43.39 LIG 0.27  HD
ATOM     63 HZ3  LYS A 128     -28.375  81.123 200.219  1.00 43.39 LIG 0.27  HD
ENDBRANCH 59 60
ENDBRANCH 58 59
ENDBRANCH 57 58
ENDBRANCH 56 57
ENDBRANCH 54 56
ENDBRANCH 51 54
ENDBRANCH 41 50
ENDBRANCH 39 41
ENDBRANCH 1 37
TORSDOF 29
ENDMDL
MODEL 34
USER: ADFR SOLUTION from run 165
USER: SCORE 19.387405 LL:  -1.720 LR: -18.763 RR:   0.000 FEB: -10.112
USER: RMSD 9.486872
USER: SEED 164
USER: STATUS no improvement in best in 2 clusters for 5 generations
USER: GENES 31
USER: genes 0 Translation |==|  0.45320 0.66094 0.59318
USER: genes 1 Rotation |==|  0.08940 0.63802 0.74921 0.51581
USER: genes 2 Torsion [C]-CA--CB-[CG] |==|  0.27090
USER: genes 3 Torsion [CA]-CB--CG-[CD] |==|  0.96786
USER: genes 4 Torsion [CB]-CG--CD-[NE] |==|  0.56586
USER: genes 5 Torsion [CG]-CD--NE-[HE] |==|  0.85823
USER: genes 6 Torsion [N]-CA--C-[N] |==|  0.35037
USER: genes 7 Torsion [C]-N--CA-[CB] |==|  0.75802
USER: genes 8 Torsion [N]-CA--CB-[CG] |==|  0.19592
USER: genes 9 Torsion [CA]-CB--CG-[CD] |==|  0.62174
USER: genes 10 Torsion [CB]-CG--CD-[CE] |==|  0.84076
USER: genes 11 Torsion [CG]-CD--CE-[NZ] |==|  0.34262
USER: genes 12 Torsion [CD]-CE--NZ-[HZ2] |==|  0.19789
USER: genes 13 Torsion [N]-CA--C-[N] |==|  0.15820
USER: genes 14 Torsion [C]-N--CA-[CB] |==|  0.27645
USER: genes 15 Torsion [N]-CA--C-[O] |==|  0.86919
USER: genes 16 Torsion [N]-CA--CB-[CG1] |==|  0.77921
USER: genes 17 Torsion [CB]-CA--N-[C] |==|  0.86111
USER: genes 18 Torsion [N]-C--CA-[N] |==|  0.68188
USER: genes 19 Torsion [C]-CA--CB-[CG] |==|  0.33515
USER: genes 20 Torsion [CA]-CB--CG-[CD] |==|  0.51481
USER: genes 21 Torsion [CB]-CG--CD-[CE] |==|  0.26733
USER: genes 22 Torsion [CG]-CD--CE-[NZ] |==|  0.57594
USER: genes 23 Torsion [CD]-CE--NZ-[HZ1] |==|  0.16394
USER: genes 24 Torsion [C]-CA--N-[C] |==|  0.18258
USER: genes 25 Torsion [N]-C--CA-[N] |==|  0.77076
USER: genes 26 Torsion [C]-CA--CB-[CG] |==|  0.41107
USER: genes 27 Torsion [CA]-CB--CG-[CD] |==|  0.97876
USER: genes 28 Torsion [CB]-CG--CD-[CE] |==|  0.57410
USER: genes 29 Torsion [CG]-CD--CE-[NZ] |==|  0.55497
USER: genes 30 Torsion [CD]-CE--NZ-[HZ2] |==|  0.64925
ROOT
ATOM      1  CA  ARG A 130     -31.828  90.771 204.076  1.00 33.49 LIG 0.18  C 
ENDROOT
BRANCH 1 2
ATOM      2  CB  ARG A 130     -30.458  90.750 203.397  1.00 35.16 LIG 0.04  C 
BRANCH 2 3
ATOM      3  CG  ARG A 130     -29.277  91.056 204.296  1.00 39.71 LIG 0.02  C 
BRANCH 3 4
ATOM      4  CD  ARG A 130     -29.764  91.600 205.638  1.00 38.05 LIG 0.14  C 
BRANCH 4 5
ATOM      5  NE  ARG A 130     -28.739  92.408 206.302  1.00 39.97 LIG-0.23  N 
ATOM      6 HE   ARG A 130     -27.954  92.067 206.389  1.00 39.97 LIG 0.18  HD
ATOM      7  CZ  ARG A 130     -28.939  93.632 206.780  1.00 35.35 LIG 0.67  C 
ATOM      8  NH1 ARG A 130     -30.134  94.203 206.687  1.00 35.08 LIG-0.23  N 
ATOM      9  NH2 ARG A 130     -27.945  94.287 207.362  1.00 36.08 LIG-0.23  N 
ATOM     10 2HH1 ARG A 130     -30.257  94.995 206.999  1.00 35.08 LIG 0.17  HD
ATOM     11 1HH1 ARG A 130     -30.784  93.780 206.316  1.00 35.08 LIG 0.17  HD
ATOM     12 1HH2 ARG A 130     -27.171  93.919 207.431  1.00 36.08 LIG 0.17  HD
ATOM     13 2HH2 ARG A 130     -28.074  95.079 207.672  1.00 36.08 LIG 0.17  HD
ENDBRANCH 4 5
ENDBRANCH 3 4
ENDBRANCH 2 3
ENDBRANCH 1 2
BRANCH 1 14
ATOM     14  C   ARG A 130     -32.479  92.119 203.829  1.00 35.02 LIG 0.24  C 
ATOM     15  N   LYS A 131     -32.609  92.927 204.877  1.00 32.29 LIG-0.35  N 
ATOM     16 H    LYS A 131     -32.373  92.726 205.679  1.00 32.29 LIG 0.16  HD
ATOM     17 O    ARG A 130     -32.845  92.436 202.700  1.00 31.53 LIG-0.27  OA
BRANCH 15 18
ATOM     18  CA  LYS A 131     -33.181  94.255 204.720  1.00 31.30 LIG 0.18  C 
BRANCH 18 19
ATOM     19  CB  LYS A 131     -32.086  95.265 204.340  1.00 33.79 LIG 0.04  C 
BRANCH 19 20
ATOM     20  CG  LYS A 131     -31.587  95.039 202.920  1.00 34.08 LIG 0.00  C 
BRANCH 20 21
ATOM     21  CD  LYS A 131     -30.099  95.109 202.778  1.00 36.35 LIG 0.03  C 
BRANCH 21 22
ATOM     22  CE  LYS A 131     -29.581  96.455 203.269  1.00 32.79 LIG 0.23  C 
BRANCH 22 23
ATOM     23  NZ  LYS A 131     -28.562  96.286 204.343  1.00 29.22 LIG-0.08  N 
ATOM     24 HZ3  LYS A 131     -28.397  97.074 204.723  1.00 29.22 LIG 0.27  HD
ATOM     25 HZ2  LYS A 131     -27.811  95.963 203.991  1.00 29.22 LIG 0.27  HD
ATOM     26 HZ1  LYS A 131     -28.868  95.720 204.957  1.00 29.22 LIG 0.27  HD
ENDBRANCH 22 23
ENDBRANCH 21 22
ENDBRANCH 20 21
ENDBRANCH 19 20
ENDBRANCH 18 19
BRANCH 18 27
ATOM     27  C   LYS A 131     -34.299  94.224 203.683  1.00 34.74 LIG 0.24  C 
ATOM     28  N   VAL A 132     -35.299  93.377 203.909  1.00 33.85 LIG-0.35  N 
ATOM     29 H    VAL A 132     -35.336  92.843 204.583  1.00 33.85 LIG 0.16  HD
ATOM     30 O    LYS A 131     -34.239  94.932 202.676  1.00 35.56 LIG-0.27  OA
BRANCH 28 31
ATOM     31  CA  VAL A 132     -36.442  93.290 203.003  1.00 36.14 LIG 0.17  C 
BRANCH 31 32
ATOM     32  C   VAL A 132     -37.764  93.165 203.764  1.00 41.88 LIG 0.22  C 
ATOM     33 O    VAL A 132     -37.872  92.358 204.694  1.00 46.22 LIG-0.29  OA
ENDBRANCH 31 32
BRANCH 31 34
ATOM     34  CB  VAL A 132     -36.308  92.091 202.035  1.00 35.83 LIG 0.01  C 
ATOM     35  CG1 VAL A 132     -35.363  92.437 200.889  1.00 39.48 LIG 0.01  C 
ATOM     36  CG2 VAL A 132     -35.812  90.870 202.771  1.00 35.02 LIG 0.01  C 
ENDBRANCH 31 34
ENDBRANCH 28 31
ENDBRANCH 18 27
ENDBRANCH 15 18
ENDBRANCH 1 14
BRANCH 1 37
ATOM     37  N   ARG A 130     -32.681  89.682 203.598  1.00 35.65 LIG-0.35  N 
ATOM     38 H    ARG A 130     -33.045  89.219 204.224  1.00 35.65 LIG 0.16  HD
ATOM     39  C   LYS A 129     -32.864  89.446 202.301  1.00 38.36 LIG 0.24  C 
ATOM     40 O    LYS A 129     -32.363  90.138 201.422  1.00 38.91 LIG-0.27  OA
BRANCH 39 41
ATOM     41  CA  LYS A 129     -33.732  88.243 201.940  1.00 41.62 LIG 0.18  C 
BRANCH 41 42
ATOM     42  CB  LYS A 129     -34.380  87.685 203.205  1.00 37.07 LIG 0.04  C 
BRANCH 42 43
ATOM     43  CG  LYS A 129     -35.901  87.675 203.190  1.00 37.25 LIG 0.00  C 
BRANCH 43 44
ATOM     44  CD  LYS A 129     -36.486  87.229 204.529  1.00 32.25 LIG 0.03  C 
BRANCH 44 45
ATOM     45  CE  LYS A 129     -36.843  88.445 205.373  1.00 33.17 LIG 0.23  C 
BRANCH 45 46
ATOM     46  NZ  LYS A 129     -36.795  88.177 206.846  1.00 31.02 LIG-0.08  N 
ATOM     47 HZ2  LYS A 129     -36.998  88.921 207.290  1.00 31.02 LIG 0.27  HD
ATOM     48 HZ3  LYS A 129     -37.383  87.540 207.051  1.00 31.02 LIG 0.27  HD
ATOM     49 HZ1  LYS A 129     -35.977  87.909 207.073  1.00 31.02 LIG 0.27  HD
ENDBRANCH 45 46
ENDBRANCH 44 45
ENDBRANCH 43 44
ENDBRANCH 42 43
ENDBRANCH 41 42
BRANCH 41 50
ATOM     50  N   LYS A 129     -32.973  87.197 201.253  1.00 48.91 LIG-0.35  N 
ATOM     51  C   LYS A 128     -32.000  86.520 201.861  1.00 46.33 LIG 0.26  C 
ATOM     52 O    LYS A 128     -31.713  86.678 203.046  1.00 48.39 LIG-0.27  OA
ATOM     53 H    LYS A 129     -33.211  87.065 200.437  1.00 48.91 LIG 0.16  HD
BRANCH 51 54
ATOM     54  CA  LYS A 128     -31.244  85.501 201.007  1.00 52.62 LIG 0.40  C 
ATOM     55  N   LYS A 128     -31.975  84.244 200.935  1.00 52.42 LIG 0.61  N 
BRANCH 54 56
ATOM     56  CB  LYS A 128     -31.001  86.063 199.600  1.00 53.69 LIG 0.05  C 
BRANCH 56 57
ATOM     57  CG  LYS A 128     -29.712  85.584 198.947  1.00 48.68 LIG 0.00  C 
BRANCH 57 58
ATOM     58  CD  LYS A 128     -28.860  84.793 199.924  1.00 52.15 LIG 0.03  C 
BRANCH 58 59
ATOM     59  CE  LYS A 128     -27.389  84.881 199.546  1.00 44.05 LIG 0.23  C 
BRANCH 59 60
ATOM     60  NZ  LYS A 128     -26.561  83.789 200.144  1.00 43.39 LIG-0.08  N 
ATOM     61 HZ1  LYS A 128     -26.254  83.261 199.496  1.00 43.39 LIG 0.27  HD
ATOM     62 HZ2  LYS A 128     -25.876  84.144 200.587  1.00 43.39 LIG 0.27  HD
ATOM     63 HZ3  LYS A 128     -27.060  83.310 200.704  1.00 43.39 LIG 0.27  HD
ENDBRANCH 59 60
ENDBRANCH 58 59
ENDBRANCH 57 58
ENDBRANCH 56 57
ENDBRANCH 54 56
ENDBRANCH 51 54
ENDBRANCH 41 50
ENDBRANCH 39 41
ENDBRANCH 1 37
TORSDOF 29
ENDMDL
MODEL 35
USER: ADFR SOLUTION from run 144
USER: SCORE 18.453315 LL:  -2.008 LR: -18.754 RR:   0.000 FEB: -10.103
USER: RMSD 9.003946
USER: SEED 143
USER: STATUS searching
USER: GENES 31
USER: genes 0 Translation |==|  0.48180 0.52426 0.41916
USER: genes 1 Rotation |==|  0.24260 0.61763 0.90659 0.56774
USER: genes 2 Torsion [C]-CA--CB-[CG] |==|  0.30385
USER: genes 3 Torsion [CA]-CB--CG-[CD] |==|  0.09595
USER: genes 4 Torsion [CB]-CG--CD-[NE] |==|  0.29246
USER: genes 5 Torsion [CG]-CD--NE-[HE] |==|  0.89718
USER: genes 6 Torsion [N]-CA--C-[N] |==|  0.20609
USER: genes 7 Torsion [C]-N--CA-[CB] |==|  0.79443
USER: genes 8 Torsion [N]-CA--CB-[CG] |==|  0.60303
USER: genes 9 Torsion [CA]-CB--CG-[CD] |==|  0.58032
USER: genes 10 Torsion [CB]-CG--CD-[CE] |==|  0.49653
USER: genes 11 Torsion [CG]-CD--CE-[NZ] |==|  0.73338
USER: genes 12 Torsion [CD]-CE--NZ-[HZ2] |==|  0.88348
USER: genes 13 Torsion [N]-CA--C-[N] |==|  0.20749
USER: genes 14 Torsion [C]-N--CA-[CB] |==|  0.36632
USER: genes 15 Torsion [N]-CA--C-[O] |==|  0.09834
USER: genes 16 Torsion [N]-CA--CB-[CG1] |==|  0.44060
USER: genes 17 Torsion [CB]-CA--N-[C] |==|  0.37765
USER: genes 18 Torsion [N]-C--CA-[N] |==|  0.48591
USER: genes 19 Torsion [C]-CA--CB-[CG] |==|  0.83624
USER: genes 20 Torsion [CA]-CB--CG-[CD] |==|  0.58724
USER: genes 21 Torsion [CB]-CG--CD-[CE] |==|  0.62350
USER: genes 22 Torsion [CG]-CD--CE-[NZ] |==|  0.65008
USER: genes 23 Torsion [CD]-CE--NZ-[HZ1] |==|  0.20411
USER: genes 24 Torsion [C]-CA--N-[C] |==|  0.58505
USER: genes 25 Torsion [N]-C--CA-[N] |==|  0.74756
USER: genes 26 Torsion [C]-CA--CB-[CG] |==|  0.14067
USER: genes 27 Torsion [CA]-CB--CG-[CD] |==|  0.54079
USER: genes 28 Torsion [CB]-CG--CD-[CE] |==|  0.56527
USER: genes 29 Torsion [CG]-CD--CE-[NZ] |==|  0.46339
USER: genes 30 Torsion [CD]-CE--NZ-[HZ2] |==|  0.84171
ROOT
ATOM      1  CA  ARG A 130     -31.206  87.389 201.075  1.00 33.49 LIG 0.18  C 
ENDROOT
BRANCH 1 2
ATOM      2  CB  ARG A 130     -30.704  87.647 199.653  1.00 35.16 LIG 0.04  C 
BRANCH 2 3
ATOM      3  CG  ARG A 130     -29.266  87.251 199.385  1.00 39.71 LIG 0.02  C 
BRANCH 3 4
ATOM      4  CD  ARG A 130     -28.905  86.002 200.187  1.00 38.05 LIG 0.14  C 
BRANCH 4 5
ATOM      5  NE  ARG A 130     -28.838  84.811 199.340  1.00 39.97 LIG-0.23  N 
ATOM      6 HE   ARG A 130     -29.408  84.742 198.699  1.00 39.97 LIG 0.18  HD
ATOM      7  CZ  ARG A 130     -27.956  83.827 199.492  1.00 35.35 LIG 0.67  C 
ATOM      8  NH1 ARG A 130     -27.063  83.872 200.472  1.00 35.08 LIG-0.23  N 
ATOM      9  NH2 ARG A 130     -27.973  82.789 198.669  1.00 36.08 LIG-0.23  N 
ATOM     10 2HH1 ARG A 130     -26.495  83.233 200.565  1.00 35.08 LIG 0.17  HD
ATOM     11 1HH1 ARG A 130     -27.051  84.541 201.013  1.00 35.08 LIG 0.17  HD
ATOM     12 1HH2 ARG A 130     -28.554  82.751 198.036  1.00 36.08 LIG 0.17  HD
ATOM     13 2HH2 ARG A 130     -27.403  82.152 198.767  1.00 36.08 LIG 0.17  HD
ENDBRANCH 4 5
ENDBRANCH 3 4
ENDBRANCH 2 3
ENDBRANCH 1 2
BRANCH 1 14
ATOM     14  C   ARG A 130     -31.384  88.718 201.783  1.00 35.02 LIG 0.24  C 
ATOM     15  N   LYS A 131     -31.469  88.687 203.109  1.00 32.29 LIG-0.35  N 
ATOM     16 H    LYS A 131     -31.455  87.969 203.581  1.00 32.29 LIG 0.16  HD
ATOM     17 O    ARG A 130     -31.426  89.765 201.142  1.00 31.53 LIG-0.27  OA
BRANCH 15 18
ATOM     18  CA  LYS A 131     -31.596  89.920 203.871  1.00 31.30 LIG 0.18  C 
BRANCH 18 19
ATOM     19  CB  LYS A 131     -30.252  90.667 203.902  1.00 33.79 LIG 0.04  C 
BRANCH 19 20
ATOM     20  CG  LYS A 131     -30.018  91.338 205.249  1.00 34.08 LIG 0.00  C 
BRANCH 20 21
ATOM     21  CD  LYS A 131     -29.172  92.570 205.177  1.00 36.35 LIG 0.03  C 
BRANCH 21 22
ATOM     22  CE  LYS A 131     -29.017  93.188 206.560  1.00 32.79 LIG 0.23  C 
BRANCH 22 23
ATOM     23  NZ  LYS A 131     -30.009  94.278 206.782  1.00 29.22 LIG-0.08  N 
ATOM     24 HZ3  LYS A 131     -30.803  93.923 206.971  1.00 29.22 LIG 0.27  HD
ATOM     25 HZ2  LYS A 131     -30.075  94.774 206.046  1.00 29.22 LIG 0.27  HD
ATOM     26 HZ1  LYS A 131     -29.744  94.788 207.461  1.00 29.22 LIG 0.27  HD
ENDBRANCH 22 23
ENDBRANCH 21 22
ENDBRANCH 20 21
ENDBRANCH 19 20
ENDBRANCH 18 19
BRANCH 18 27
ATOM     27  C   LYS A 131     -32.706  90.787 203.284  1.00 34.74 LIG 0.24  C 
ATOM     28  N   VAL A 132     -33.955  90.402 203.526  1.00 33.85 LIG-0.35  N 
ATOM     29 H    VAL A 132     -34.164  89.694 203.969  1.00 33.85 LIG 0.16  HD
ATOM     30 O    LYS A 131     -32.433  91.769 202.592  1.00 35.56 LIG-0.27  OA
BRANCH 28 31
ATOM     31  CA  VAL A 132     -35.096  91.176 203.046  1.00 36.14 LIG 0.17  C 
BRANCH 31 32
ATOM     32  C   VAL A 132     -35.783  91.942 204.179  1.00 41.88 LIG 0.22  C 
ATOM     33 O    VAL A 132     -35.114  92.414 205.104  1.00 46.22 LIG-0.29  OA
ENDBRANCH 31 32
BRANCH 31 34
ATOM     34  CB  VAL A 132     -36.140  90.273 202.349  1.00 35.83 LIG 0.01  C 
ATOM     35  CG1 VAL A 132     -37.505  90.954 202.331  1.00 39.48 LIG 0.01  C 
ATOM     36  CG2 VAL A 132     -35.702  89.944 200.943  1.00 35.02 LIG 0.01  C 
ENDBRANCH 31 34
ENDBRANCH 28 31
ENDBRANCH 18 27
ENDBRANCH 15 18
ENDBRANCH 1 14
BRANCH 1 37
ATOM     37  N   ARG A 130     -32.455  86.625 201.072  1.00 35.65 LIG-0.35  N 
ATOM     38 H    ARG A 130     -33.030  86.893 200.493  1.00 35.65 LIG 0.16  HD
ATOM     39  C   LYS A 129     -32.662  85.607 201.904  1.00 38.36 LIG 0.24  C 
ATOM     40 O    LYS A 129     -31.816  85.218 202.702  1.00 38.91 LIG-0.27  OA
BRANCH 39 41
ATOM     41  CA  LYS A 129     -34.031  84.935 201.836  1.00 41.62 LIG 0.18  C 
BRANCH 41 42
ATOM     42  CB  LYS A 129     -35.114  85.946 202.206  1.00 37.07 LIG 0.04  C 
BRANCH 42 43
ATOM     43  CG  LYS A 129     -34.970  86.555 203.592  1.00 37.25 LIG 0.00  C 
BRANCH 43 44
ATOM     44  CD  LYS A 129     -36.323  86.899 204.212  1.00 32.25 LIG 0.03  C 
BRANCH 44 45
ATOM     45  CE  LYS A 129     -36.267  88.280 204.853  1.00 33.17 LIG 0.23  C 
BRANCH 45 46
ATOM     46  NZ  LYS A 129     -36.695  88.283 206.288  1.00 31.02 LIG-0.08  N 
ATOM     47 HZ2  LYS A 129     -36.832  89.120 206.556  1.00 31.02 LIG 0.27  HD
ATOM     48 HZ3  LYS A 129     -37.448  87.817 206.375  1.00 31.02 LIG 0.27  HD
ATOM     49 HZ1  LYS A 129     -36.059  87.912 206.789  1.00 31.02 LIG 0.27  HD
ENDBRANCH 45 46
ENDBRANCH 44 45
ENDBRANCH 43 44
ENDBRANCH 42 43
ENDBRANCH 41 42
BRANCH 41 50
ATOM     50  N   LYS A 129     -34.115  83.759 202.702  1.00 48.91 LIG-0.35  N 
ATOM     51  C   LYS A 128     -34.892  82.718 202.401  1.00 46.33 LIG 0.26  C 
ATOM     52 O    LYS A 128     -35.538  82.644 201.358  1.00 48.39 LIG-0.27  OA
ATOM     53 H    LYS A 129     -33.626  83.803 203.408  1.00 48.91 LIG 0.16  HD
BRANCH 51 54
ATOM     54  CA  LYS A 128     -34.936  81.584 203.426  1.00 52.62 LIG 0.40  C 
ATOM     55  N   LYS A 128     -33.915  80.586 203.138  1.00 52.42 LIG 0.61  N 
BRANCH 54 56
ATOM     56  CB  LYS A 128     -34.756  82.141 204.844  1.00 53.69 LIG 0.05  C 
BRANCH 56 57
ATOM     57  CG  LYS A 128     -35.680  83.303 205.183  1.00 48.68 LIG 0.00  C 
BRANCH 57 58
ATOM     58  CD  LYS A 128     -35.218  84.029 206.434  1.00 52.15 LIG 0.03  C 
BRANCH 58 59
ATOM     59  CE  LYS A 128     -36.377  84.765 207.087  1.00 44.05 LIG 0.23  C 
BRANCH 59 60
ATOM     60  NZ  LYS A 128     -36.070  85.235 208.473  1.00 43.39 LIG-0.08  N 
ATOM     61 HZ1  LYS A 128     -36.793  85.619 208.823  1.00 43.39 LIG 0.27  HD
ATOM     62 HZ2  LYS A 128     -35.830  84.541 208.976  1.00 43.39 LIG 0.27  HD
ATOM     63 HZ3  LYS A 128     -35.405  85.826 208.446  1.00 43.39 LIG 0.27  HD
ENDBRANCH 59 60
ENDBRANCH 58 59
ENDBRANCH 57 58
ENDBRANCH 56 57
ENDBRANCH 54 56
ENDBRANCH 51 54
ENDBRANCH 41 50
ENDBRANCH 39 41
ENDBRANCH 1 37
TORSDOF 29
ENDMDL
MODEL 36
USER: ADFR SOLUTION from run 66
USER: SCORE 19.929264 LL:  -1.596 LR: -18.746 RR:   0.000 FEB: -10.095
USER: RMSD 8.461106
USER: SEED 65
USER: STATUS no improvement in best in 4 clusters for 5 generations
USER: GENES 31
USER: genes 0 Translation |==|  0.49148 0.65964 0.50030
USER: genes 1 Rotation |==|  0.66503 0.10023 0.59649 0.73159
USER: genes 2 Torsion [C]-CA--CB-[CG] |==|  0.34875
USER: genes 3 Torsion [CA]-CB--CG-[CD] |==|  0.33991
USER: genes 4 Torsion [CB]-CG--CD-[NE] |==|  0.48339
USER: genes 5 Torsion [CG]-CD--NE-[HE] |==|  0.84801
USER: genes 6 Torsion [N]-CA--C-[N] |==|  0.39669
USER: genes 7 Torsion [C]-N--CA-[CB] |==|  0.87168
USER: genes 8 Torsion [N]-CA--CB-[CG] |==|  0.52582
USER: genes 9 Torsion [CA]-CB--CG-[CD] |==|  0.26707
USER: genes 10 Torsion [CB]-CG--CD-[CE] |==|  0.39082
USER: genes 11 Torsion [CG]-CD--CE-[NZ] |==|  0.57339
USER: genes 12 Torsion [CD]-CE--NZ-[HZ2] |==|  0.65365
USER: genes 13 Torsion [N]-CA--C-[N] |==|  0.87790
USER: genes 14 Torsion [C]-N--CA-[CB] |==|  0.19010
USER: genes 15 Torsion [N]-CA--C-[O] |==|  0.13730
USER: genes 16 Torsion [N]-CA--CB-[CG1] |==|  0.36358
USER: genes 17 Torsion [CB]-CA--N-[C] |==|  0.84935
USER: genes 18 Torsion [N]-C--CA-[N] |==|  0.96023
USER: genes 19 Torsion [C]-CA--CB-[CG] |==|  0.41980
USER: genes 20 Torsion [CA]-CB--CG-[CD] |==|  0.92688
USER: genes 21 Torsion [CB]-CG--CD-[CE] |==|  0.77977
USER: genes 22 Torsion [CG]-CD--CE-[NZ] |==|  0.49318
USER: genes 23 Torsion [CD]-CE--NZ-[HZ1] |==|  0.95464
USER: genes 24 Torsion [C]-CA--N-[C] |==|  0.72430
USER: genes 25 Torsion [N]-C--CA-[N] |==|  0.45605
USER: genes 26 Torsion [C]-CA--CB-[CG] |==|  0.85026
USER: genes 27 Torsion [CA]-CB--CG-[CD] |==|  0.55185
USER: genes 28 Torsion [CB]-CG--CD-[CE] |==|  0.62931
USER: genes 29 Torsion [CG]-CD--CE-[NZ] |==|  0.60125
USER: genes 30 Torsion [CD]-CE--NZ-[HZ2] |==|  0.96861
ROOT
ATOM      1  CA  ARG A 130     -30.995  90.739 202.474  1.00 33.49 LIG 0.18  C 
ENDROOT
BRANCH 1 2
ATOM      2  CB  ARG A 130     -30.336  90.274 203.774  1.00 35.16 LIG 0.04  C 
BRANCH 2 3
ATOM      3  CG  ARG A 130     -29.302  91.217 204.355  1.00 39.71 LIG 0.02  C 
BRANCH 3 4
ATOM      4  CD  ARG A 130     -29.691  91.616 205.777  1.00 38.05 LIG 0.14  C 
BRANCH 4 5
ATOM      5  NE  ARG A 130     -28.648  92.413 206.424  1.00 39.97 LIG-0.23  N 
ATOM      6 HE   ARG A 130     -27.853  92.083 206.456  1.00 39.97 LIG 0.18  HD
ATOM      7  CZ  ARG A 130     -28.843  93.610 206.967  1.00 35.35 LIG 0.67  C 
ATOM      8  NH1 ARG A 130     -30.051  94.161 206.961  1.00 35.08 LIG-0.23  N 
ATOM      9  NH2 ARG A 130     -27.832  94.258 207.527  1.00 36.08 LIG-0.23  N 
ATOM     10 2HH1 ARG A 130     -30.171  94.936 207.314  1.00 35.08 LIG 0.17  HD
ATOM     11 1HH1 ARG A 130     -30.712  93.743 206.604  1.00 35.08 LIG 0.17  HD
ATOM     12 1HH2 ARG A 130     -27.049  93.903 207.539  1.00 36.08 LIG 0.17  HD
ATOM     13 2HH2 ARG A 130     -27.958  95.033 207.878  1.00 36.08 LIG 0.17  HD
ENDBRANCH 4 5
ENDBRANCH 3 4
ENDBRANCH 2 3
ENDBRANCH 1 2
BRANCH 1 14
ATOM     14  C   ARG A 130     -30.833  89.655 201.425  1.00 35.02 LIG 0.24  C 
ATOM     15  N   LYS A 131     -29.788  89.759 200.609  1.00 32.29 LIG-0.35  N 
ATOM     16 H    LYS A 131     -29.223  90.407 200.622  1.00 32.29 LIG 0.16  HD
ATOM     17 O    ARG A 130     -31.630  88.723 201.364  1.00 31.53 LIG-0.27  OA
BRANCH 15 18
ATOM     18  CA  LYS A 131     -29.531  88.740 199.603  1.00 31.30 LIG 0.18  C 
BRANCH 18 19
ATOM     19  CB  LYS A 131     -29.659  87.338 200.222  1.00 33.79 LIG 0.04  C 
BRANCH 19 20
ATOM     20  CG  LYS A 131     -29.177  86.259 199.262  1.00 34.08 LIG 0.00  C 
BRANCH 20 21
ATOM     21  CD  LYS A 131     -27.760  85.834 199.485  1.00 36.35 LIG 0.03  C 
BRANCH 21 22
ATOM     22  CE  LYS A 131     -27.623  84.327 199.304  1.00 32.79 LIG 0.23  C 
BRANCH 22 23
ATOM     23  NZ  LYS A 131     -26.478  83.788 200.092  1.00 29.22 LIG-0.08  N 
ATOM     24 HZ3  LYS A 131     -26.038  84.460 200.476  1.00 29.22 LIG 0.27  HD
ATOM     25 HZ2  LYS A 131     -25.929  83.344 199.552  1.00 29.22 LIG 0.27  HD
ATOM     26 HZ1  LYS A 131     -26.784  83.238 200.721  1.00 29.22 LIG 0.27  HD
ENDBRANCH 22 23
ENDBRANCH 21 22
ENDBRANCH 20 21
ENDBRANCH 19 20
ENDBRANCH 18 19
BRANCH 18 27
ATOM     27  C   LYS A 131     -30.480  88.920 198.422  1.00 34.74 LIG 0.24  C 
ATOM     28  N   VAL A 132     -31.753  89.167 198.712  1.00 33.85 LIG-0.35  N 
ATOM     29 H    VAL A 132     -32.066  89.209 199.512  1.00 33.85 LIG 0.16  HD
ATOM     30 O    LYS A 131     -30.069  88.801 197.266  1.00 35.56 LIG-0.27  OA
BRANCH 28 31
ATOM     31  CA  VAL A 132     -32.743  89.394 197.661  1.00 36.14 LIG 0.17  C 
BRANCH 31 32
ATOM     32  C   VAL A 132     -34.067  89.910 198.228  1.00 41.88 LIG 0.22  C 
ATOM     33 O    VAL A 132     -34.076  90.862 199.017  1.00 46.22 LIG-0.29  OA
ENDBRANCH 31 32
BRANCH 31 34
ATOM     34  CB  VAL A 132     -33.015  88.105 196.851  1.00 35.83 LIG 0.01  C 
ATOM     35  CG1 VAL A 132     -34.515  87.861 196.730  1.00 39.48 LIG 0.01  C 
ATOM     36  CG2 VAL A 132     -32.387  88.198 195.482  1.00 35.02 LIG 0.01  C 
ENDBRANCH 31 34
ENDBRANCH 28 31
ENDBRANCH 18 27
ENDBRANCH 15 18
ENDBRANCH 1 14
BRANCH 1 37
ATOM     37  N   ARG A 130     -32.408  91.064 202.675  1.00 35.65 LIG-0.35  N 
ATOM     38 H    ARG A 130     -32.629  91.853 202.415  1.00 35.65 LIG 0.16  HD
ATOM     39  C   LYS A 129     -33.262  90.198 203.216  1.00 38.36 LIG 0.24  C 
ATOM     40 O    LYS A 129     -32.937  89.064 203.550  1.00 38.91 LIG-0.27  OA
BRANCH 39 41
ATOM     41  CA  LYS A 129     -34.694  90.686 203.422  1.00 41.62 LIG 0.18  C 
BRANCH 41 42
ATOM     42  CB  LYS A 129     -35.617  89.991 202.424  1.00 37.07 LIG 0.04  C 
BRANCH 42 43
ATOM     43  CG  LYS A 129     -37.051  89.814 202.899  1.00 37.25 LIG 0.00  C 
BRANCH 43 44
ATOM     44  CD  LYS A 129     -37.150  89.759 204.423  1.00 32.25 LIG 0.03  C 
BRANCH 44 45
ATOM     45  CE  LYS A 129     -36.761  88.373 204.921  1.00 33.17 LIG 0.23  C 
BRANCH 45 46
ATOM     46  NZ  LYS A 129     -36.776  88.256 206.414  1.00 31.02 LIG-0.08  N 
ATOM     47 HZ2  LYS A 129     -37.505  87.814 206.670  1.00 31.02 LIG 0.27  HD
ATOM     48 HZ3  LYS A 129     -36.051  87.815 206.685  1.00 31.02 LIG 0.27  HD
ATOM     49 HZ1  LYS A 129     -36.780  89.070 206.776  1.00 31.02 LIG 0.27  HD
ENDBRANCH 45 46
ENDBRANCH 44 45
ENDBRANCH 43 44
ENDBRANCH 42 43
ENDBRANCH 41 42
BRANCH 41 50
ATOM     50  N   LYS A 129     -34.809  92.139 203.295  1.00 48.91 LIG-0.35  N 
ATOM     51  C   LYS A 128     -34.847  92.937 204.362  1.00 46.33 LIG 0.26  C 
ATOM     52 O    LYS A 128     -34.728  92.523 205.513  1.00 48.39 LIG-0.27  OA
ATOM     53 H    LYS A 129     -34.848  92.422 202.484  1.00 48.91 LIG 0.16  HD
BRANCH 51 54
ATOM     54  CA  LYS A 128     -35.035  94.430 204.088  1.00 52.62 LIG 0.40  C 
ATOM     55  N   LYS A 128     -35.429  95.134 205.300  1.00 52.42 LIG 0.61  N 
BRANCH 54 56
ATOM     56  CB  LYS A 128     -33.745  95.031 203.514  1.00 53.69 LIG 0.05  C 
BRANCH 56 57
ATOM     57  CG  LYS A 128     -32.505  94.779 204.360  1.00 48.68 LIG 0.00  C 
BRANCH 57 58
ATOM     58  CD  LYS A 128     -31.390  95.748 204.007  1.00 52.15 LIG 0.03  C 
BRANCH 58 59
ATOM     59  CE  LYS A 128     -30.070  95.011 203.844  1.00 44.05 LIG 0.23  C 
BRANCH 59 60
ATOM     60  NZ  LYS A 128     -28.895  95.789 204.344  1.00 43.39 LIG-0.08  N 
ATOM     61 HZ1  LYS A 128     -28.253  95.785 203.729  1.00 43.39 LIG 0.27  HD
ATOM     62 HZ2  LYS A 128     -29.143  96.628 204.509  1.00 43.39 LIG 0.27  HD
ATOM     63 HZ3  LYS A 128     -28.590  95.418 205.093  1.00 43.39 LIG 0.27  HD
ENDBRANCH 59 60
ENDBRANCH 58 59
ENDBRANCH 57 58
ENDBRANCH 56 57
ENDBRANCH 54 56
ENDBRANCH 51 54
ENDBRANCH 41 50
ENDBRANCH 39 41
ENDBRANCH 1 37
TORSDOF 29
ENDMDL
