MODEL 1
USER: ADFR SOLUTION from run 73
USER: SCORE 14.126480 LL:  -2.541 LR: -11.805 RR:   0.000 FEB:  -9.419
USER: RMSD 1.319847
USER: SEED 72
USER: STATUS no improvement in best in 8 clusters for 5 generations
USER: GENES 10
USER: genes 0 Translation |==|  0.55898 0.53101 0.52650
USER: genes 1 Rotation |==|  0.50042 0.51830 0.45836 0.99793
USER: genes 2 Torsion [N]-C--CA-[N] |==|  0.42708
USER: genes 3 Torsion [C]-CA--N-[C] |==|  0.62221
USER: genes 4 Torsion [N]-C--CA-[N] |==|  0.53667
USER: genes 5 Torsion [N]-CA--C-[N] |==|  0.49048
USER: genes 6 Torsion [C]-N--CA-[CB] |==|  0.31365
USER: genes 7 Torsion [N]-CA--CB-[CG] |==|  0.83815
USER: genes 8 Torsion [CA]-CB--CG-[CD1] |==|  0.85206
USER: genes 9 Torsion [N]-CA--C-[O] |==|  0.15765
ROOT
ATOM      1  C   ALA P   3     -17.212  24.877  23.050  1.00 17.83 LIG 0.24  C 
ATOM      2 O    ALA P   3     -17.737  23.849  22.593  1.00 14.64 LIG-0.27  OA
ATOM      3  N   PRO P   2     -16.017  24.954  23.582  1.00 16.26 LIG-0.34  N 
ATOM      4  CA  PRO P   2     -15.124  23.786  23.647  1.00 13.96 LIG 0.18  C 
ATOM      5  CB  PRO P   2     -13.775  24.338  24.095  1.00 15.54 LIG 0.04  C 
ATOM      6  CG  PRO P   2     -13.912  25.852  24.083  1.00 16.88 LIG 0.02  C 
ATOM      7  CD  PRO P   2     -15.381  26.161  24.159  1.00 18.82 LIG 0.13  C 
ENDROOT
BRANCH 1 8
ATOM      8  CA  ALA P   3     -18.000  26.191  23.093  1.00 20.57 LIG 0.17  C 
ATOM      9  CB  ALA P   3     -18.734  26.250  24.432  1.00 21.35 LIG 0.04  C 
BRANCH 8 10
ATOM     10  N   ALA P   3     -18.976  26.209  21.990  1.00 21.09 LIG-0.35  N 
ATOM     11  C   PRO P   4     -19.177  27.268  21.227  1.00 23.18 LIG 0.24  C 
ATOM     12 O    PRO P   4     -18.572  28.374  21.380  1.00 18.89 LIG-0.27  OA
ATOM     13 H    ALA P   3     -19.401  25.468  21.890  1.00 21.09 LIG 0.16  HD
BRANCH 11 14
ATOM     14  CA  PRO P   4     -20.217  27.054  20.160  1.00 25.16 LIG 0.18  C 
ATOM     15  CB  PRO P   4     -20.063  25.819  19.305  1.00 26.75 LIG 0.04  C 
ATOM     16  CG  PRO P   4     -19.024  26.239  18.291  1.00 27.39 LIG 0.02  C 
ATOM     17  CD  PRO P   4     -19.405  27.670  17.948  1.00 26.08 LIG 0.13  C 
ATOM     18  N   PRO P   4     -20.106  28.185  19.195  1.00 30.07 LIG-0.34  N 
ATOM     19  C   ACE P   5     -20.529  29.392  19.741  1.00 36.72 LIG 0.22  C 
ATOM     20  CH3 ACE P   5     -20.524  30.500  18.729  1.00 39.74 LIG 0.12  C 
ATOM     21 O    ACE P   5     -20.868  29.560  20.916  1.00 37.57 LIG-0.27  OA
ENDBRANCH 11 14
ENDBRANCH 8 10
ENDBRANCH 1 8
BRANCH 4 22
ATOM     22  C   PRO P   2     -15.680  22.809  24.661  1.00 16.32 LIG 0.24  C 
ATOM     23  N   PHE P   1     -15.062  21.658  24.821  1.00 10.52 LIG-0.34  N 
ATOM     24 H    PHE P   1     -14.375  21.409  24.369  1.00 10.52 LIG 0.16  HD
ATOM     25 O    PRO P   2     -16.742  23.141  25.268  1.00 16.09 LIG-0.27  OA
BRANCH 23 26
ATOM     26  CA  PHE P   1     -15.524  20.691  25.822  1.00 14.43 LIG 0.19  C 
BRANCH 26 27
ATOM     27  CB  PHE P   1     -16.080  19.431  25.169  1.00 14.76 LIG 0.07  C 
BRANCH 27 28
ATOM     28  CG  PHE P   1     -17.242  19.722  24.221  1.00 18.21 LIG-0.06  A 
ATOM     29  CD1 PHE P   1     -18.334  20.453  24.676  1.00 21.80 LIG 0.01  A 
ATOM     30  CE1 PHE P   1     -19.418  20.706  23.816  1.00 23.78 LIG 0.00  A 
ATOM     31  CZ  PHE P   1     -19.401  20.202  22.517  1.00 21.60 LIG 0.00  A 
ATOM     32  CE2 PHE P   1     -18.299  19.442  22.060  1.00 26.45 LIG 0.00  A 
ATOM     33  CD2 PHE P   1     -17.216  19.194  22.936  1.00 19.03 LIG 0.01  A 
ENDBRANCH 27 28
ENDBRANCH 26 27
BRANCH 26 34
ATOM     34  C   PHE P   1     -14.376  20.433  26.852  1.00 13.94 LIG 0.20  C 
ATOM     35 O    PHE P   1     -13.928  21.484  27.451  1.00 16.43 LIG-0.65  OA
ATOM     36 OXT  PHE P   1     -13.774  19.306  27.093  1.00 13.15 LIG-0.65  OA
ENDBRANCH 26 34
ENDBRANCH 23 26
ENDBRANCH 4 22
TORSDOF 8
ENDMDL
MODEL 2
USER: ADFR SOLUTION from run 90
USER: SCORE 12.445675 LL:  -2.149 LR: -10.413 RR:   0.000 FEB:  -8.027
USER: RMSD 6.481427
USER: SEED 89
USER: STATUS no improvement in best in 16 clusters for 5 generations
USER: GENES 10
USER: genes 0 Translation |==|  0.52917 0.33740 0.62677
USER: genes 1 Rotation |==|  0.18563 0.75147 0.30738 0.72546
USER: genes 2 Torsion [N]-C--CA-[N] |==|  0.35560
USER: genes 3 Torsion [C]-CA--N-[C] |==|  0.86016
USER: genes 4 Torsion [N]-C--CA-[N] |==|  0.72061
USER: genes 5 Torsion [N]-CA--C-[N] |==|  0.05112
USER: genes 6 Torsion [C]-N--CA-[CB] |==|  0.52075
USER: genes 7 Torsion [N]-CA--CB-[CG] |==|  0.74621
USER: genes 8 Torsion [CA]-CB--CG-[CD1] |==|  0.64982
USER: genes 9 Torsion [N]-CA--C-[O] |==|  0.41810
ROOT
ATOM      1  C   ALA P   3     -17.749  21.392  24.780  1.00 17.83 LIG 0.24  C 
ATOM      2 O    ALA P   3     -17.953  21.707  25.963  1.00 14.64 LIG-0.27  OA
ATOM      3  N   PRO P   2     -17.026  20.378  24.372  1.00 16.26 LIG-0.34  N 
ATOM      4  CA  PRO P   2     -16.399  19.445  25.322  1.00 13.96 LIG 0.18  C 
ATOM      5  CB  PRO P   2     -15.873  18.296  24.468  1.00 15.54 LIG 0.04  C 
ATOM      6  CG  PRO P   2     -16.399  18.539  23.063  1.00 16.88 LIG 0.02  C 
ATOM      7  CD  PRO P   2     -16.745  19.999  22.968  1.00 18.82 LIG 0.13  C 
ENDROOT
BRANCH 1 8
ATOM      8  CA  ALA P   3     -18.301  22.262  23.644  1.00 20.57 LIG 0.17  C 
ATOM      9  CB  ALA P   3     -17.618  23.626  23.729  1.00 21.35 LIG 0.04  C 
BRANCH 8 10
ATOM     10  N   ALA P   3     -19.755  22.422  23.818  1.00 21.09 LIG-0.35  N 
ATOM     11  C   PRO P   4     -20.570  21.402  24.016  1.00 23.18 LIG 0.24  C 
ATOM     12 O    PRO P   4     -20.190  20.191  24.052  1.00 18.89 LIG-0.27  OA
ATOM     13 H    ALA P   3     -20.021  23.239  23.778  1.00 21.09 LIG 0.16  HD
BRANCH 11 14
ATOM     14  CA  PRO P   4     -22.012  21.804  24.172  1.00 25.16 LIG 0.18  C 
ATOM     15  CB  PRO P   4     -22.376  23.199  23.723  1.00 26.75 LIG 0.04  C 
ATOM     16  CG  PRO P   4     -21.950  24.052  24.896  1.00 27.39 LIG 0.02  C 
ATOM     17  CD  PRO P   4     -22.362  23.237  26.110  1.00 26.08 LIG 0.13  C 
ATOM     18  N   PRO P   4     -22.323  21.794  25.630  1.00 30.07 LIG-0.34  N 
ATOM     19  C   ACE P   5     -22.346  20.509  26.159  1.00 36.72 LIG 0.22  C 
ATOM     20  CH3 ACE P   5     -22.774  20.500  27.598  1.00 39.74 LIG 0.12  C 
ATOM     21 O    ACE P   5     -22.050  19.481  25.542  1.00 37.57 LIG-0.27  OA
ENDBRANCH 11 14
ENDBRANCH 8 10
ENDBRANCH 1 8
BRANCH 4 22
ATOM     22  C   PRO P   2     -15.270  20.163  26.030  1.00 16.32 LIG 0.24  C 
ATOM     23  N   PHE P   1     -15.256  21.479  26.005  1.00 10.52 LIG-0.34  N 
ATOM     24 H    PHE P   1     -15.833  21.963  25.590  1.00 10.52 LIG 0.16  HD
ATOM     25 O    PRO P   2     -14.373  19.449  26.570  1.00 16.09 LIG-0.27  OA
BRANCH 23 26
ATOM     26  CA  PHE P   1     -14.216  22.233  26.713  1.00 14.43 LIG 0.19  C 
BRANCH 26 27
ATOM     27  CB  PHE P   1     -14.501  23.730  26.700  1.00 14.76 LIG 0.07  C 
BRANCH 27 28
ATOM     28  CG  PHE P   1     -13.859  24.442  25.512  1.00 18.21 LIG-0.06  A 
ATOM     29  CD1 PHE P   1     -13.034  25.540  25.732  1.00 21.80 LIG 0.01  A 
ATOM     30  CE1 PHE P   1     -12.456  26.216  24.641  1.00 23.78 LIG 0.00  A 
ATOM     31  CZ  PHE P   1     -12.732  25.792  23.343  1.00 21.60 LIG 0.00  A 
ATOM     32  CE2 PHE P   1     -13.586  24.688  23.117  1.00 26.45 LIG 0.00  A 
ATOM     33  CD2 PHE P   1     -14.161  24.019  24.223  1.00 19.03 LIG 0.01  A 
ENDBRANCH 27 28
ENDBRANCH 26 27
BRANCH 26 34
ATOM     34  C   PHE P   1     -14.026  21.623  28.141  1.00 13.94 LIG 0.20  C 
ATOM     35 O    PHE P   1     -12.839  21.740  28.635  1.00 16.43 LIG-0.65  OA
ATOM     36 OXT  PHE P   1     -14.895  20.943  28.828  1.00 13.15 LIG-0.65  OA
ENDBRANCH 26 34
ENDBRANCH 23 26
ENDBRANCH 4 22
TORSDOF 8
ENDMDL
MODEL 3
USER: ADFR SOLUTION from run 145
USER: SCORE 11.523104 LL:  -2.156 LR: -10.315 RR:   0.000 FEB:  -7.929
USER: RMSD 6.899536
USER: SEED 144
USER: STATUS no improvement in best in 24 clusters for 5 generations
USER: GENES 10
USER: genes 0 Translation |==|  0.45879 0.27567 0.61857
USER: genes 1 Rotation |==|  0.05373 0.61585 0.37992 0.65165
USER: genes 2 Torsion [N]-C--CA-[N] |==|  0.50015
USER: genes 3 Torsion [C]-CA--N-[C] |==|  0.16692
USER: genes 4 Torsion [N]-C--CA-[N] |==|  0.27851
USER: genes 5 Torsion [N]-CA--C-[N] |==|  0.98961
USER: genes 6 Torsion [C]-N--CA-[CB] |==|  0.20893
USER: genes 7 Torsion [N]-CA--CB-[CG] |==|  0.57233
USER: genes 8 Torsion [CA]-CB--CG-[CD1] |==|  0.95141
USER: genes 9 Torsion [N]-CA--C-[O] |==|  0.24829
ROOT
ATOM      1  C   ALA P   3     -19.016  20.281  24.638  1.00 17.83 LIG 0.24  C 
ATOM      2 O    ALA P   3     -19.240  21.025  25.606  1.00 14.64 LIG-0.27  OA
ATOM      3  N   PRO P   2     -17.864  19.725  24.352  1.00 16.26 LIG-0.34  N 
ATOM      4  CA  PRO P   2     -16.686  19.900  25.218  1.00 13.96 LIG 0.18  C 
ATOM      5  CB  PRO P   2     -15.649  18.916  24.686  1.00 15.54 LIG 0.04  C 
ATOM      6  CG  PRO P   2     -16.361  18.076  23.639  1.00 16.88 LIG 0.02  C 
ATOM      7  CD  PRO P   2     -17.564  18.858  23.190  1.00 18.82 LIG 0.13  C 
ENDROOT
BRANCH 1 8
ATOM      8  CA  ALA P   3     -20.116  20.002  23.608  1.00 20.57 LIG 0.17  C 
ATOM      9  CB  ALA P   3     -19.652  20.569  22.268  1.00 21.35 LIG 0.04  C 
BRANCH 8 10
ATOM     10  N   ALA P   3     -21.358  20.673  24.030  1.00 21.09 LIG-0.35  N 
ATOM     11  C   PRO P   4     -21.445  21.980  24.194  1.00 23.18 LIG 0.24  C 
ATOM     12 O    PRO P   4     -20.473  22.781  24.030  1.00 18.89 LIG-0.27  OA
ATOM     13 H    ALA P   3     -22.017  20.135  24.158  1.00 21.09 LIG 0.16  HD
BRANCH 11 14
ATOM     14  CA  PRO P   4     -22.812  22.444  24.622  1.00 25.16 LIG 0.18  C 
ATOM     15  CB  PRO P   4     -23.288  23.758  24.051  1.00 26.75 LIG 0.04  C 
ATOM     16  CG  PRO P   4     -22.603  24.776  24.934  1.00 27.39 LIG 0.02  C 
ATOM     17  CD  PRO P   4     -22.703  24.179  26.327  1.00 26.08 LIG 0.13  C 
ATOM     18  N   PRO P   4     -22.764  22.677  26.093  1.00 30.07 LIG-0.34  N 
ATOM     19  C   ACE P   5     -22.646  21.495  26.815  1.00 36.72 LIG 0.22  C 
ATOM     20  CH3 ACE P   5     -22.716  21.730  28.296  1.00 39.74 LIG 0.12  C 
ATOM     21 O    ACE P   5     -22.496  20.373  26.321  1.00 37.57 LIG-0.27  OA
ENDBRANCH 11 14
ENDBRANCH 8 10
ENDBRANCH 1 8
BRANCH 4 22
ATOM     22  C   PRO P   2     -16.202  21.328  25.092  1.00 16.32 LIG 0.24  C 
ATOM     23  N   PHE P   1     -16.810  22.119  24.233  1.00 10.52 LIG-0.34  N 
ATOM     24 H    PHE P   1     -17.450  21.872  23.715  1.00 10.52 LIG 0.16  HD
ATOM     25 O    PRO P   2     -15.204  21.669  25.795  1.00 16.09 LIG-0.27  OA
BRANCH 23 26
ATOM     26  CA  PHE P   1     -16.419  23.526  24.101  1.00 14.43 LIG 0.19  C 
BRANCH 26 27
ATOM     27  CB  PHE P   1     -15.105  23.674  23.343  1.00 14.76 LIG 0.07  C 
BRANCH 27 28
ATOM     28  CG  PHE P   1     -14.353  24.952  23.709  1.00 18.21 LIG-0.06  A 
ATOM     29  CD1 PHE P   1     -15.028  25.988  24.345  1.00 21.80 LIG 0.01  A 
ATOM     30  CE1 PHE P   1     -14.349  27.178  24.665  1.00 23.78 LIG 0.00  A 
ATOM     31  CZ  PHE P   1     -13.005  27.319  24.323  1.00 21.60 LIG 0.00  A 
ATOM     32  CE2 PHE P   1     -12.323  26.273  23.659  1.00 26.45 LIG 0.00  A 
ATOM     33  CD2 PHE P   1     -13.019  25.083  23.342  1.00 19.03 LIG 0.01  A 
ENDBRANCH 27 28
ENDBRANCH 26 27
BRANCH 26 34
ATOM     34  C   PHE P   1     -17.611  24.333  23.490  1.00 13.94 LIG 0.20  C 
ATOM     35 O    PHE P   1     -18.443  24.819  24.349  1.00 16.43 LIG-0.65  OA
ATOM     36 OXT  PHE P   1     -17.897  24.482  22.231  1.00 13.15 LIG-0.65  OA
ENDBRANCH 26 34
ENDBRANCH 23 26
ENDBRANCH 4 22
TORSDOF 8
ENDMDL
MODEL 4
USER: ADFR SOLUTION from run 82
USER: SCORE 11.689027 LL:  -2.548 LR: -10.295 RR:   0.000 FEB:  -7.908
USER: RMSD 7.396873
USER: SEED 81
USER: STATUS no improvement in best in 16 clusters for 5 generations
USER: GENES 10
USER: genes 0 Translation |==|  0.39680 0.35206 0.63779
USER: genes 1 Rotation |==|  0.16618 0.81252 0.44933 0.69577
USER: genes 2 Torsion [N]-C--CA-[N] |==|  0.27679
USER: genes 3 Torsion [C]-CA--N-[C] |==|  0.17222
USER: genes 4 Torsion [N]-C--CA-[N] |==|  0.41473
USER: genes 5 Torsion [N]-CA--C-[N] |==|  0.31507
USER: genes 6 Torsion [C]-N--CA-[CB] |==|  0.24453
USER: genes 7 Torsion [N]-CA--CB-[CG] |==|  0.68844
USER: genes 8 Torsion [CA]-CB--CG-[CD1] |==|  0.69248
USER: genes 9 Torsion [N]-CA--C-[O] |==|  0.14006
ROOT
ATOM      1  C   ALA P   3     -20.132  21.656  24.970  1.00 17.83 LIG 0.24  C 
ATOM      2 O    ALA P   3     -19.667  21.652  26.121  1.00 14.64 LIG-0.27  OA
ATOM      3  N   PRO P   2     -19.729  20.897  23.980  1.00 16.26 LIG-0.34  N 
ATOM      4  CA  PRO P   2     -18.672  19.889  24.161  1.00 13.96 LIG 0.18  C 
ATOM      5  CB  PRO P   2     -18.675  19.070  22.874  1.00 15.54 LIG 0.04  C 
ATOM      6  CG  PRO P   2     -19.882  19.539  22.078  1.00 16.88 LIG 0.02  C 
ATOM      7  CD  PRO P   2     -20.247  20.903  22.593  1.00 18.82 LIG 0.13  C 
ENDROOT
BRANCH 1 8
ATOM      8  CA  ALA P   3     -21.225  22.659  24.583  1.00 20.57 LIG 0.17  C 
ATOM      9  CB  ALA P   3     -20.937  23.966  25.320  1.00 21.35 LIG 0.04  C 
BRANCH 8 10
ATOM     10  N   ALA P   3     -22.536  22.132  24.997  1.00 21.09 LIG-0.35  N 
ATOM     11  C   PRO P   4     -22.846  21.891  26.257  1.00 23.18 LIG 0.24  C 
ATOM     12 O    PRO P   4     -22.046  22.064  27.228  1.00 18.89 LIG-0.27  OA
ATOM     13 H    ALA P   3     -23.078  21.997  24.343  1.00 21.09 LIG 0.16  HD
BRANCH 11 14
ATOM     14  CA  PRO P   4     -24.243  21.362  26.444  1.00 25.16 LIG 0.18  C 
ATOM     15  CB  PRO P   4     -25.314  22.380  26.753  1.00 26.75 LIG 0.04  C 
ATOM     16  CG  PRO P   4     -25.141  22.611  28.237  1.00 27.39 LIG 0.02  C 
ATOM     17  CD  PRO P   4     -24.867  21.224  28.794  1.00 26.08 LIG 0.13  C 
ATOM     18  N   PRO P   4     -24.227  20.471  27.638  1.00 30.07 LIG-0.34  N 
ATOM     19  C   ACE P   5     -23.525  19.293  27.412  1.00 36.72 LIG 0.22  C 
ATOM     20  CH3 ACE P   5     -23.613  18.351  28.579  1.00 39.74 LIG 0.12  C 
ATOM     21 O    ACE P   5     -22.891  19.029  26.385  1.00 37.57 LIG-0.27  OA
ENDBRANCH 11 14
ENDBRANCH 8 10
ENDBRANCH 1 8
BRANCH 4 22
ATOM     22  C   PRO P   2     -17.352  20.602  24.354  1.00 16.32 LIG 0.24  C 
ATOM     23  N   PHE P   1     -16.757  20.507  25.524  1.00 10.52 LIG-0.34  N 
ATOM     24 H    PHE P   1     -17.082  20.088  26.201  1.00 10.52 LIG 0.16  HD
ATOM     25 O    PRO P   2     -16.915  21.291  23.384  1.00 16.09 LIG-0.27  OA
BRANCH 23 26
ATOM     26  CA  PHE P   1     -15.453  21.136  25.757  1.00 14.43 LIG 0.19  C 
BRANCH 26 27
ATOM     27  CB  PHE P   1     -15.602  22.579  26.226  1.00 14.76 LIG 0.07  C 
BRANCH 27 28
ATOM     28  CG  PHE P   1     -15.104  23.589  25.193  1.00 18.21 LIG-0.06  A 
ATOM     29  CD1 PHE P   1     -13.950  24.322  25.449  1.00 21.80 LIG 0.01  A 
ATOM     30  CE1 PHE P   1     -13.498  25.270  24.513  1.00 23.78 LIG 0.00  A 
ATOM     31  CZ  PHE P   1     -14.223  25.484  23.342  1.00 21.60 LIG 0.00  A 
ATOM     32  CE2 PHE P   1     -15.407  24.752  23.090  1.00 26.45 LIG 0.00  A 
ATOM     33  CD2 PHE P   1     -15.850  23.803  24.041  1.00 19.03 LIG 0.01  A 
ENDBRANCH 27 28
ENDBRANCH 26 27
BRANCH 26 34
ATOM     34  C   PHE P   1     -14.612  20.229  26.714  1.00 13.94 LIG 0.20  C 
ATOM     35 O    PHE P   1     -14.541  18.987  26.373  1.00 16.43 LIG-0.65  OA
ATOM     36 OXT  PHE P   1     -14.067  20.570  27.844  1.00 13.15 LIG-0.65  OA
ENDBRANCH 26 34
ENDBRANCH 23 26
ENDBRANCH 4 22
TORSDOF 8
ENDMDL
MODEL 5
USER: ADFR SOLUTION from run 169
USER: SCORE 11.983789 LL:  -2.700 LR: -10.232 RR:   0.000 FEB:  -7.845
USER: RMSD 8.846044
USER: SEED 168
USER: STATUS no improvement in best in 27 clusters for 5 generations
USER: GENES 10
USER: genes 0 Translation |==|  0.62355 0.37412 0.72196
USER: genes 1 Rotation |==|  0.82110 0.84356 0.33099 0.51717
USER: genes 2 Torsion [N]-C--CA-[N] |==|  0.40111
USER: genes 3 Torsion [C]-CA--N-[C] |==|  0.45012
USER: genes 4 Torsion [N]-C--CA-[N] |==|  0.88835
USER: genes 5 Torsion [N]-CA--C-[N] |==|  0.67723
USER: genes 6 Torsion [C]-N--CA-[CB] |==|  0.85823
USER: genes 7 Torsion [N]-CA--CB-[CG] |==|  0.85980
USER: genes 8 Torsion [CA]-CB--CG-[CD1] |==|  0.80130
USER: genes 9 Torsion [N]-CA--C-[O] |==|  0.27398
ROOT
ATOM      1  C   ALA P   3     -16.050  22.053  26.422  1.00 17.83 LIG 0.24  C 
ATOM      2 O    ALA P   3     -16.804  22.091  27.408  1.00 14.64 LIG-0.27  OA
ATOM      3  N   PRO P   2     -16.237  22.691  25.292  1.00 16.26 LIG-0.34  N 
ATOM      4  CA  PRO P   2     -17.384  23.590  25.093  1.00 13.96 LIG 0.18  C 
ATOM      5  CB  PRO P   2     -17.107  24.309  23.777  1.00 15.54 LIG 0.04  C 
ATOM      6  CG  PRO P   2     -15.696  23.916  23.370  1.00 16.88 LIG 0.02  C 
ATOM      7  CD  PRO P   2     -15.369  22.640  24.093  1.00 18.82 LIG 0.13  C 
ENDROOT
BRANCH 1 8
ATOM      8  CA  ALA P   3     -14.813  21.148  26.431  1.00 20.57 LIG 0.17  C 
ATOM      9  CB  ALA P   3     -15.273  19.729  26.099  1.00 21.35 LIG 0.04  C 
BRANCH 8 10
ATOM     10  N   ALA P   3     -14.203  21.172  27.771  1.00 21.09 LIG-0.35  N 
ATOM     11  C   PRO P   4     -13.351  20.253  28.187  1.00 23.18 LIG 0.24  C 
ATOM     12 O    PRO P   4     -12.995  19.252  27.491  1.00 18.89 LIG-0.27  OA
ATOM     13 H    ALA P   3     -14.452  21.838  28.254  1.00 21.09 LIG 0.16  HD
BRANCH 11 14
ATOM     14  CA  PRO P   4     -12.852  20.484  29.589  1.00 25.16 LIG 0.18  C 
ATOM     15  CB  PRO P   4     -13.804  20.142  30.709  1.00 26.75 LIG 0.04  C 
ATOM     16  CG  PRO P   4     -14.704  21.356  30.767  1.00 27.39 LIG 0.02  C 
ATOM     17  CD  PRO P   4     -13.756  22.525  30.562  1.00 26.08 LIG 0.13  C 
ATOM     18  N   PRO P   4     -12.613  21.947  29.742  1.00 30.07 LIG-0.34  N 
ATOM     19  C   ACE P   5     -11.527  22.388  28.995  1.00 36.72 LIG 0.22  C 
ATOM     20  CH3 ACE P   5     -11.222  23.837  29.246  1.00 39.74 LIG 0.12  C 
ATOM     21 O    ACE P   5     -10.875  21.694  28.209  1.00 37.57 LIG-0.27  OA
ENDBRANCH 11 14
ENDBRANCH 8 10
ENDBRANCH 1 8
BRANCH 4 22
ATOM     22  C   PRO P   2     -18.643  22.755  25.008  1.00 16.32 LIG 0.24  C 
ATOM     23  N   PHE P   1     -19.320  22.762  23.879  1.00 10.52 LIG-0.34  N 
ATOM     24 H    PHE P   1     -19.110  23.232  23.190  1.00 10.52 LIG 0.16  HD
ATOM     25 O    PRO P   2     -18.999  22.129  26.051  1.00 16.09 LIG-0.27  OA
BRANCH 23 26
ATOM     26  CA  PHE P   1     -20.521  21.935  23.718  1.00 14.43 LIG 0.19  C 
BRANCH 26 27
ATOM     27  CB  PHE P   1     -20.261  20.486  24.111  1.00 14.76 LIG 0.07  C 
BRANCH 27 28
ATOM     28  CG  PHE P   1     -19.019  19.906  23.439  1.00 18.21 LIG-0.06  A 
ATOM     29  CD1 PHE P   1     -19.042  19.624  22.077  1.00 21.80 LIG 0.01  A 
ATOM     30  CE1 PHE P   1     -17.910  19.069  21.454  1.00 23.78 LIG 0.00  A 
ATOM     31  CZ  PHE P   1     -16.775  18.785  22.212  1.00 21.60 LIG 0.00  A 
ATOM     32  CE2 PHE P   1     -16.757  19.053  23.600  1.00 26.45 LIG 0.00  A 
ATOM     33  CD2 PHE P   1     -17.904  19.611  24.214  1.00 19.03 LIG 0.01  A 
ENDBRANCH 27 28
ENDBRANCH 26 27
BRANCH 26 34
ATOM     34  C   PHE P   1     -21.710  22.609  24.479  1.00 13.94 LIG 0.20  C 
ATOM     35 O    PHE P   1     -22.511  23.303  23.743  1.00 16.43 LIG-0.65  OA
ATOM     36 OXT  PHE P   1     -21.918  22.618  25.762  1.00 13.15 LIG-0.65  OA
ENDBRANCH 26 34
ENDBRANCH 23 26
ENDBRANCH 4 22
TORSDOF 8
ENDMDL
MODEL 6
USER: ADFR SOLUTION from run 194
USER: SCORE 12.081380 LL:  -2.348 LR: -10.205 RR:   0.000 FEB:  -7.819
USER: RMSD 7.107250
USER: SEED 193
USER: STATUS no improvement in best in 7 clusters for 5 generations
USER: GENES 10
USER: genes 0 Translation |==|  0.52180 0.40511 0.56545
USER: genes 1 Rotation |==|  0.65622 0.55501 0.11556 0.77344
USER: genes 2 Torsion [N]-C--CA-[N] |==|  0.37452
USER: genes 3 Torsion [C]-CA--N-[C] |==|  0.51111
USER: genes 4 Torsion [N]-C--CA-[N] |==|  0.28349
USER: genes 5 Torsion [N]-CA--C-[N] |==|  0.26142
USER: genes 6 Torsion [C]-N--CA-[CB] |==|  0.15315
USER: genes 7 Torsion [N]-CA--CB-[CG] |==|  0.64081
USER: genes 8 Torsion [CA]-CB--CG-[CD1] |==|  0.27854
USER: genes 9 Torsion [N]-CA--C-[O] |==|  0.84171
ROOT
ATOM      1  C   ALA P   3     -17.882  22.611  23.722  1.00 17.83 LIG 0.24  C 
ATOM      2 O    ALA P   3     -18.642  23.515  23.341  1.00 14.64 LIG-0.27  OA
ATOM      3  N   PRO P   2     -18.089  21.325  23.575  1.00 16.26 LIG-0.34  N 
ATOM      4  CA  PRO P   2     -19.272  20.809  22.869  1.00 13.96 LIG 0.18  C 
ATOM      5  CB  PRO P   2     -19.019  19.315  22.700  1.00 15.54 LIG 0.04  C 
ATOM      6  CG  PRO P   2     -17.590  19.074  23.160  1.00 16.88 LIG 0.02  C 
ATOM      7  CD  PRO P   2     -17.212  20.228  24.046  1.00 18.82 LIG 0.13  C 
ENDROOT
BRANCH 1 8
ATOM      8  CA  ALA P   3     -16.607  22.953  24.502  1.00 20.57 LIG 0.17  C 
ATOM      9  CB  ALA P   3     -17.026  23.429  25.892  1.00 21.35 LIG 0.04  C 
BRANCH 8 10
ATOM     10  N   ALA P   3     -15.885  24.031  23.804  1.00 21.09 LIG-0.35  N 
ATOM     11  C   PRO P   4     -14.709  24.481  24.204  1.00 23.18 LIG 0.24  C 
ATOM     12 O    PRO P   4     -14.100  24.052  25.232  1.00 18.89 LIG-0.27  OA
ATOM     13 H    ALA P   3     -16.299  24.337  23.116  1.00 21.09 LIG 0.16  HD
BRANCH 11 14
ATOM     14  CA  PRO P   4     -14.158  25.580  23.335  1.00 25.16 LIG 0.18  C 
ATOM     15  CB  PRO P   4     -12.670  25.555  23.078  1.00 26.75 LIG 0.04  C 
ATOM     16  CG  PRO P   4     -12.102  26.180  24.332  1.00 27.39 LIG 0.02  C 
ATOM     17  CD  PRO P   4     -13.060  27.319  24.639  1.00 26.08 LIG 0.13  C 
ATOM     18  N   PRO P   4     -14.387  26.869  24.047  1.00 30.07 LIG-0.34  N 
ATOM     19  C   ACE P   5     -15.732  27.217  24.096  1.00 36.72 LIG 0.22  C 
ATOM     20  CH3 ACE P   5     -15.941  28.571  24.710  1.00 39.74 LIG 0.12  C 
ATOM     21 O    ACE P   5     -16.663  26.514  23.693  1.00 37.57 LIG-0.27  OA
ENDBRANCH 11 14
ENDBRANCH 8 10
ENDBRANCH 1 8
BRANCH 4 22
ATOM     22  C   PRO P   2     -20.494  21.064  23.726  1.00 16.32 LIG 0.24  C 
ATOM     23  N   PHE P   1     -21.188  22.161  23.510  1.00 10.52 LIG-0.34  N 
ATOM     24 H    PHE P   1     -20.980  22.761  22.930  1.00 10.52 LIG 0.16  HD
ATOM     25 O    PRO P   2     -20.753  20.222  24.637  1.00 16.09 LIG-0.27  OA
BRANCH 23 26
ATOM     26  CA  PHE P   1     -22.409  22.440  24.274  1.00 14.43 LIG 0.19  C 
BRANCH 26 27
ATOM     27  CB  PHE P   1     -22.150  22.409  25.775  1.00 14.76 LIG 0.07  C 
BRANCH 27 28
ATOM     28  CG  PHE P   1     -23.141  21.522  26.527  1.00 18.21 LIG-0.06  A 
ATOM     29  CD1 PHE P   1     -22.763  20.239  26.906  1.00 21.80 LIG 0.01  A 
ATOM     30  CE1 PHE P   1     -23.677  19.407  27.579  1.00 23.78 LIG 0.00  A 
ATOM     31  CZ  PHE P   1     -24.965  19.868  27.842  1.00 21.60 LIG 0.00  A 
ATOM     32  CE2 PHE P   1     -25.356  21.167  27.440  1.00 26.45 LIG 0.00  A 
ATOM     33  CD2 PHE P   1     -24.427  21.992  26.763  1.00 19.03 LIG 0.01  A 
ENDBRANCH 27 28
ENDBRANCH 26 27
BRANCH 26 34
ATOM     34  C   PHE P   1     -23.043  23.772  23.754  1.00 13.94 LIG 0.20  C 
ATOM     35 O    PHE P   1     -22.271  24.804  23.802  1.00 16.43 LIG-0.65  OA
ATOM     36 OXT  PHE P   1     -24.272  23.963  23.374  1.00 13.15 LIG-0.65  OA
ENDBRANCH 26 34
ENDBRANCH 23 26
ENDBRANCH 4 22
TORSDOF 8
ENDMDL
MODEL 7
USER: ADFR SOLUTION from run 186
USER: SCORE 11.892700 LL:  -2.248 LR: -10.008 RR:   0.000 FEB:  -7.622
USER: RMSD 7.637691
USER: SEED 185
USER: STATUS no improvement in best in 17 clusters for 5 generations
USER: GENES 10
USER: genes 0 Translation |==|  0.47951 0.30067 0.64480
USER: genes 1 Rotation |==|  0.05153 0.65964 0.48618 0.65230
USER: genes 2 Torsion [N]-C--CA-[N] |==|  0.48598
USER: genes 3 Torsion [C]-CA--N-[C] |==|  0.63873
USER: genes 4 Torsion [N]-C--CA-[N] |==|  0.31173
USER: genes 5 Torsion [N]-CA--C-[N] |==|  0.97669
USER: genes 6 Torsion [C]-N--CA-[CB] |==|  0.16534
USER: genes 7 Torsion [N]-CA--CB-[CG] |==|  0.60691
USER: genes 8 Torsion [CA]-CB--CG-[CD1] |==|  0.42286
USER: genes 9 Torsion [N]-CA--C-[O] |==|  0.79677
ROOT
ATOM      1  C   ALA P   3     -18.643  20.731  25.091  1.00 17.83 LIG 0.24  C 
ATOM      2 O    ALA P   3     -18.398  21.329  26.151  1.00 14.64 LIG-0.27  OA
ATOM      3  N   PRO P   2     -17.750  20.228  24.273  1.00 16.26 LIG-0.34  N 
ATOM      4  CA  PRO P   2     -16.310  20.286  24.572  1.00 13.96 LIG 0.18  C 
ATOM      5  CB  PRO P   2     -15.649  19.394  23.526  1.00 15.54 LIG 0.04  C 
ATOM      6  CG  PRO P   2     -16.780  18.706  22.780  1.00 16.88 LIG 0.02  C 
ATOM      7  CD  PRO P   2     -18.016  19.537  22.991  1.00 18.82 LIG 0.13  C 
ENDROOT
BRANCH 1 8
ATOM      8  CA  ALA P   3     -20.088  20.594  24.598  1.00 20.57 LIG 0.17  C 
ATOM      9  CB  ALA P   3     -20.235  21.453  23.343  1.00 21.35 LIG 0.04  C 
BRANCH 8 10
ATOM     10  N   ALA P   3     -21.006  21.079  25.643  1.00 21.09 LIG-0.35  N 
ATOM     11  C   PRO P   4     -22.048  20.383  26.061  1.00 23.18 LIG 0.24  C 
ATOM     12 O    PRO P   4     -22.375  19.249  25.593  1.00 18.89 LIG-0.27  OA
ATOM     13 H    ALA P   3     -20.800  21.854  25.954  1.00 21.09 LIG 0.16  HD
BRANCH 11 14
ATOM     14  CA  PRO P   4     -22.840  21.074  27.139  1.00 25.16 LIG 0.18  C 
ATOM     15  CB  PRO P   4     -23.179  20.251  28.359  1.00 26.75 LIG 0.04  C 
ATOM     16  CG  PRO P   4     -24.381  19.454  27.904  1.00 27.39 LIG 0.02  C 
ATOM     17  CD  PRO P   4     -25.193  20.450  27.093  1.00 26.08 LIG 0.13  C 
ATOM     18  N   PRO P   4     -24.164  21.434  26.559  1.00 30.07 LIG-0.34  N 
ATOM     19  C   ACE P   5     -24.070  22.444  25.609  1.00 36.72 LIG 0.22  C 
ATOM     20  CH3 ACE P   5     -25.420  22.881  25.116  1.00 39.74 LIG 0.12  C 
ATOM     21 O    ACE P   5     -23.016  22.939  25.199  1.00 37.57 LIG-0.27  OA
ENDBRANCH 11 14
ENDBRANCH 8 10
ENDBRANCH 1 8
BRANCH 4 22
ATOM     22  C   PRO P   2     -15.847  21.721  24.441  1.00 16.32 LIG 0.24  C 
ATOM     23  N   PHE P   1     -16.687  22.604  23.945  1.00 10.52 LIG-0.34  N 
ATOM     24 H    PHE P   1     -17.478  22.417  23.662  1.00 10.52 LIG 0.16  HD
ATOM     25 O    PRO P   2     -14.653  21.981  24.778  1.00 16.09 LIG-0.27  OA
BRANCH 23 26
ATOM     26  CA  PHE P   1     -16.314  24.019  23.838  1.00 14.43 LIG 0.19  C 
BRANCH 26 27
ATOM     27  CB  PHE P   1     -15.081  24.209  22.964  1.00 14.76 LIG 0.07  C 
BRANCH 27 28
ATOM     28  CG  PHE P   1     -14.141  25.289  23.496  1.00 18.21 LIG-0.06  A 
ATOM     29  CD1 PHE P   1     -12.780  25.215  23.217  1.00 21.80 LIG 0.01  A 
ATOM     30  CE1 PHE P   1     -11.905  26.194  23.722  1.00 23.78 LIG 0.00  A 
ATOM     31  CZ  PHE P   1     -12.405  27.222  24.518  1.00 21.60 LIG 0.00  A 
ATOM     32  CE2 PHE P   1     -13.786  27.287  24.818  1.00 26.45 LIG 0.00  A 
ATOM     33  CD2 PHE P   1     -14.654  26.295  24.304  1.00 19.03 LIG 0.01  A 
ENDBRANCH 27 28
ENDBRANCH 26 27
BRANCH 26 34
ATOM     34  C   PHE P   1     -17.562  24.844  23.383  1.00 13.94 LIG 0.20  C 
ATOM     35 O    PHE P   1     -17.899  24.694  22.147  1.00 16.43 LIG-0.65  OA
ATOM     36 OXT  PHE P   1     -18.226  25.716  24.082  1.00 13.15 LIG-0.65  OA
ENDBRANCH 26 34
ENDBRANCH 23 26
ENDBRANCH 4 22
TORSDOF 8
ENDMDL
MODEL 8
USER: ADFR SOLUTION from run 133
USER: SCORE 12.698190 LL:  -2.717 LR:  -9.999 RR:   0.000 FEB:  -7.612
USER: RMSD 6.897940
USER: SEED 132
USER: STATUS no improvement in best in 4 clusters for 5 generations
USER: GENES 10
USER: genes 0 Translation |==|  0.45348 0.31781 0.62671
USER: genes 1 Rotation |==|  0.17345 0.79852 0.44900 0.72727
USER: genes 2 Torsion [N]-C--CA-[N] |==|  0.41988
USER: genes 3 Torsion [C]-CA--N-[C] |==|  0.82616
USER: genes 4 Torsion [N]-C--CA-[N] |==|  0.31737
USER: genes 5 Torsion [N]-CA--C-[N] |==|  0.23154
USER: genes 6 Torsion [C]-N--CA-[CB] |==|  0.30198
USER: genes 7 Torsion [N]-CA--CB-[CG] |==|  0.72271
USER: genes 8 Torsion [CA]-CB--CG-[CD1] |==|  0.65697
USER: genes 9 Torsion [N]-CA--C-[O] |==|  0.18315
ROOT
ATOM      1  C   ALA P   3     -19.111  21.040  24.779  1.00 17.83 LIG 0.24  C 
ATOM      2 O    ALA P   3     -18.768  20.944  25.968  1.00 14.64 LIG-0.27  OA
ATOM      3  N   PRO P   2     -18.582  20.384  23.775  1.00 16.26 LIG-0.34  N 
ATOM      4  CA  PRO P   2     -17.514  19.392  23.977  1.00 13.96 LIG 0.18  C 
ATOM      5  CB  PRO P   2     -17.355  18.694  22.631  1.00 15.54 LIG 0.04  C 
ATOM      6  CG  PRO P   2     -18.490  19.200  21.756  1.00 16.88 LIG 0.02  C 
ATOM      7  CD  PRO P   2     -18.955  20.502  22.346  1.00 18.82 LIG 0.13  C 
ENDROOT
BRANCH 1 8
ATOM      8  CA  ALA P   3     -20.194  22.044  24.367  1.00 20.57 LIG 0.17  C 
ATOM      9  CB  ALA P   3     -19.507  23.381  24.094  1.00 21.35 LIG 0.04  C 
BRANCH 8 10
ATOM     10  N   ALA P   3     -21.160  22.196  25.469  1.00 21.09 LIG-0.35  N 
ATOM     11  C   PRO P   4     -21.904  21.200  25.912  1.00 23.18 LIG 0.24  C 
ATOM     12 O    PRO P   4     -21.881  20.028  25.423  1.00 18.89 LIG-0.27  OA
ATOM     13 H    ALA P   3     -21.192  22.992  25.794  1.00 21.09 LIG 0.16  HD
BRANCH 11 14
ATOM     14  CA  PRO P   4     -22.814  21.586  27.048  1.00 25.16 LIG 0.18  C 
ATOM     15  CB  PRO P   4     -22.774  20.705  28.273  1.00 26.75 LIG 0.04  C 
ATOM     16  CG  PRO P   4     -23.659  19.544  27.882  1.00 27.39 LIG 0.02  C 
ATOM     17  CD  PRO P   4     -24.812  20.197  27.138  1.00 26.08 LIG 0.13  C 
ATOM     18  N   PRO P   4     -24.216  21.469  26.556  1.00 30.07 LIG-0.34  N 
ATOM     19  C   ACE P   5     -24.533  22.444  25.618  1.00 36.72 LIG 0.22  C 
ATOM     20  CH3 ACE P   5     -25.979  22.392  25.216  1.00 39.74 LIG 0.12  C 
ATOM     21 O    ACE P   5     -23.738  23.266  25.151  1.00 37.57 LIG-0.27  OA
ENDBRANCH 11 14
ENDBRANCH 8 10
ENDBRANCH 1 8
BRANCH 4 22
ATOM     22  C   PRO P   2     -16.247  20.121  24.370  1.00 16.32 LIG 0.24  C 
ATOM     23  N   PHE P   1     -16.083  20.449  25.635  1.00 10.52 LIG-0.34  N 
ATOM     24 H    PHE P   1     -16.662  20.302  26.253  1.00 10.52 LIG 0.16  HD
ATOM     25 O    PRO P   2     -15.432  20.413  23.445  1.00 16.09 LIG-0.27  OA
BRANCH 23 26
ATOM     26  CA  PHE P   1     -14.855  21.113  26.085  1.00 14.43 LIG 0.19  C 
BRANCH 26 27
ATOM     27  CB  PHE P   1     -15.106  22.572  26.444  1.00 14.76 LIG 0.07  C 
BRANCH 27 28
ATOM     28  CG  PHE P   1     -14.691  23.533  25.332  1.00 18.21 LIG-0.06  A 
ATOM     29  CD1 PHE P   1     -13.775  24.544  25.602  1.00 21.80 LIG 0.01  A 
ATOM     30  CE1 PHE P   1     -13.404  25.447  24.589  1.00 23.78 LIG 0.00  A 
ATOM     31  CZ  PHE P   1     -13.975  25.335  23.323  1.00 21.60 LIG 0.00  A 
ATOM     32  CE2 PHE P   1     -14.921  24.319  23.052  1.00 26.45 LIG 0.00  A 
ATOM     33  CD2 PHE P   1     -15.285  23.419  24.081  1.00 19.03 LIG 0.01  A 
ENDBRANCH 27 28
ENDBRANCH 26 27
BRANCH 26 34
ATOM     34  C   PHE P   1     -14.209  20.267  27.231  1.00 13.94 LIG 0.20  C 
ATOM     35 O    PHE P   1     -13.774  19.104  26.878  1.00 16.43 LIG-0.65  OA
ATOM     36 OXT  PHE P   1     -14.149  20.569  28.494  1.00 13.15 LIG-0.65  OA
ENDBRANCH 26 34
ENDBRANCH 23 26
ENDBRANCH 4 22
TORSDOF 8
ENDMDL
MODEL 9
USER: ADFR SOLUTION from run 71
USER: SCORE 11.767733 LL:  -2.060 LR:  -9.917 RR:   0.000 FEB:  -7.531
USER: RMSD 6.149102
USER: SEED 70
USER: STATUS no improvement in best in 18 clusters for 5 generations
USER: GENES 10
USER: genes 0 Translation |==|  0.72862 0.42570 0.74113
USER: genes 1 Rotation |==|  0.71797 0.33209 0.36068 0.89355
USER: genes 2 Torsion [N]-C--CA-[N] |==|  0.46647
USER: genes 3 Torsion [C]-CA--N-[C] |==|  0.59054
USER: genes 4 Torsion [N]-C--CA-[N] |==|  0.91835
USER: genes 5 Torsion [N]-CA--C-[N] |==|  0.07082
USER: genes 6 Torsion [C]-N--CA-[CB] |==|  0.50559
USER: genes 7 Torsion [N]-CA--CB-[CG] |==|  0.49258
USER: genes 8 Torsion [CA]-CB--CG-[CD1] |==|  0.79210
USER: genes 9 Torsion [N]-CA--C-[O] |==|  0.84925
ROOT
ATOM      1  C   ALA P   3     -14.159  22.982  26.752  1.00 17.83 LIG 0.24  C 
ATOM      2 O    ALA P   3     -14.137  22.942  25.512  1.00 14.64 LIG-0.27  OA
ATOM      3  N   PRO P   2     -13.899  21.978  27.555  1.00 16.26 LIG-0.34  N 
ATOM      4  CA  PRO P   2     -13.492  20.662  27.037  1.00 13.96 LIG 0.18  C 
ATOM      5  CB  PRO P   2     -13.052  19.868  28.263  1.00 15.54 LIG 0.04  C 
ATOM      6  CG  PRO P   2     -13.051  20.849  29.424  1.00 16.88 LIG 0.02  C 
ATOM      7  CD  PRO P   2     -13.946  21.993  29.035  1.00 18.82 LIG 0.13  C 
ENDROOT
BRANCH 1 8
ATOM      8  CA  ALA P   3     -14.586  24.264  27.476  1.00 20.57 LIG 0.17  C 
ATOM      9  CB  ALA P   3     -16.006  24.051  27.998  1.00 21.35 LIG 0.04  C 
BRANCH 8 10
ATOM     10  N   ALA P   3     -14.570  25.387  26.523  1.00 21.09 LIG-0.35  N 
ATOM     11  C   PRO P   4     -14.271  26.624  26.879  1.00 23.18 LIG 0.24  C 
ATOM     12 O    PRO P   4     -13.995  26.970  28.069  1.00 18.89 LIG-0.27  OA
ATOM     13 H    ALA P   3     -14.772  25.163  25.718  1.00 21.09 LIG 0.16  HD
BRANCH 11 14
ATOM     14  CA  PRO P   4     -14.312  27.606  25.738  1.00 25.16 LIG 0.18  C 
ATOM     15  CB  PRO P   4     -15.650  28.237  25.439  1.00 26.75 LIG 0.04  C 
ATOM     16  CG  PRO P   4     -16.350  27.172  24.624  1.00 27.39 LIG 0.02  C 
ATOM     17  CD  PRO P   4     -15.257  26.629  23.718  1.00 26.08 LIG 0.13  C 
ATOM     18  N   PRO P   4     -13.970  26.859  24.494  1.00 30.07 LIG-0.34  N 
ATOM     19  C   ACE P   5     -12.637  26.466  24.460  1.00 36.72 LIG 0.22  C 
ATOM     20  CH3 ACE P   5     -12.274  25.819  23.155  1.00 39.74 LIG 0.12  C 
ATOM     21 O    ACE P   5     -11.828  26.616  25.381  1.00 37.57 LIG-0.27  OA
ENDBRANCH 11 14
ENDBRANCH 8 10
ENDBRANCH 1 8
BRANCH 4 22
ATOM     22  C   PRO P   2     -14.686  20.017  26.366  1.00 16.32 LIG 0.24  C 
ATOM     23  N   PHE P   1     -15.630  20.799  25.888  1.00 10.52 LIG-0.34  N 
ATOM     24 H    PHE P   1     -15.630  21.656  25.955  1.00 10.52 LIG 0.16  HD
ATOM     25 O    PRO P   2     -14.727  18.750  26.343  1.00 16.09 LIG-0.27  OA
BRANCH 23 26
ATOM     26  CA  PHE P   1     -16.788  20.236  25.184  1.00 14.43 LIG 0.19  C 
BRANCH 26 27
ATOM     27  CB  PHE P   1     -17.722  21.329  24.679  1.00 14.76 LIG 0.07  C 
BRANCH 27 28
ATOM     28  CG  PHE P   1     -18.903  20.774  23.885  1.00 18.21 LIG-0.06  A 
ATOM     29  CD1 PHE P   1     -18.703  20.309  22.589  1.00 21.80 LIG 0.01  A 
ATOM     30  CE1 PHE P   1     -19.790  19.818  21.843  1.00 23.78 LIG 0.00  A 
ATOM     31  CZ  PHE P   1     -21.067  19.819  22.401  1.00 21.60 LIG 0.00  A 
ATOM     32  CE2 PHE P   1     -21.274  20.309  23.712  1.00 26.45 LIG 0.00  A 
ATOM     33  CD2 PHE P   1     -20.172  20.802  24.450  1.00 19.03 LIG 0.01  A 
ENDBRANCH 27 28
ENDBRANCH 26 27
BRANCH 26 34
ATOM     34  C   PHE P   1     -16.283  19.253  24.077  1.00 13.94 LIG 0.20  C 
ATOM     35 O    PHE P   1     -15.431  19.752  23.247  1.00 16.43 LIG-0.65  OA
ATOM     36 OXT  PHE P   1     -16.694  18.040  23.856  1.00 13.15 LIG-0.65  OA
ENDBRANCH 26 34
ENDBRANCH 23 26
ENDBRANCH 4 22
TORSDOF 8
ENDMDL
MODEL 10
USER: ADFR SOLUTION from run 87
USER: SCORE 12.128309 LL:  -2.288 LR:  -9.857 RR:   0.000 FEB:  -7.470
USER: RMSD 8.167579
USER: SEED 86
USER: STATUS no improvement in best in 8 clusters for 5 generations
USER: GENES 10
USER: genes 0 Translation |==|  0.39580 0.34091 0.63841
USER: genes 1 Rotation |==|  0.11134 0.74572 0.47616 0.69493
USER: genes 2 Torsion [N]-C--CA-[N] |==|  0.41081
USER: genes 3 Torsion [C]-CA--N-[C] |==|  0.83846
USER: genes 4 Torsion [N]-C--CA-[N] |==|  0.63154
USER: genes 5 Torsion [N]-CA--C-[N] |==|  0.93378
USER: genes 6 Torsion [C]-N--CA-[CB] |==|  0.13509
USER: genes 7 Torsion [N]-CA--CB-[CG] |==|  0.49527
USER: genes 8 Torsion [CA]-CB--CG-[CD1] |==|  0.60640
USER: genes 9 Torsion [N]-CA--C-[O] |==|  0.92974
ROOT
ATOM      1  C   ALA P   3     -20.150  21.455  24.980  1.00 17.83 LIG 0.24  C 
ATOM      2 O    ALA P   3     -19.733  21.668  26.131  1.00 14.64 LIG-0.27  OA
ATOM      3  N   PRO P   2     -19.489  20.842  24.029  1.00 16.26 LIG-0.34  N 
ATOM      4  CA  PRO P   2     -18.149  20.279  24.259  1.00 13.96 LIG 0.18  C 
ATOM      5  CB  PRO P   2     -17.842  19.454  23.013  1.00 15.54 LIG 0.04  C 
ATOM      6  CG  PRO P   2     -19.123  19.431  22.195  1.00 16.88 LIG 0.02  C 
ATOM      7  CD  PRO P   2     -19.953  20.602  22.643  1.00 18.82 LIG 0.13  C 
ENDROOT
BRANCH 1 8
ATOM      8  CA  ALA P   3     -21.518  21.991  24.545  1.00 20.57 LIG 0.17  C 
ATOM      9  CB  ALA P   3     -21.329  23.440  24.097  1.00 21.35 LIG 0.04  C 
BRANCH 8 10
ATOM     10  N   ALA P   3     -22.446  21.941  25.688  1.00 21.09 LIG-0.35  N 
ATOM     11  C   PRO P   4     -22.734  20.822  26.328  1.00 23.18 LIG 0.24  C 
ATOM     12 O    PRO P   4     -22.264  19.686  26.013  1.00 18.89 LIG-0.27  OA
ATOM     13 H    ALA P   3     -22.781  22.705  25.897  1.00 21.09 LIG 0.16  HD
BRANCH 11 14
ATOM     14  CA  PRO P   4     -23.701  21.011  27.467  1.00 25.16 LIG 0.18  C 
ATOM     15  CB  PRO P   4     -23.902  22.426  27.953  1.00 26.75 LIG 0.04  C 
ATOM     16  CG  PRO P   4     -22.708  22.646  28.854  1.00 27.39 LIG 0.02  C 
ATOM     17  CD  PRO P   4     -22.563  21.328  29.596  1.00 26.08 LIG 0.13  C 
ATOM     18  N   PRO P   4     -23.146  20.292  28.648  1.00 30.07 LIG-0.34  N 
ATOM     19  C   ACE P   5     -23.183  18.911  28.494  1.00 36.72 LIG 0.22  C 
ATOM     20  CH3 ACE P   5     -22.731  18.193  29.733  1.00 39.74 LIG 0.12  C 
ATOM     21 O    ACE P   5     -23.536  18.319  27.469  1.00 37.57 LIG-0.27  OA
ENDBRANCH 11 14
ENDBRANCH 8 10
ENDBRANCH 1 8
BRANCH 4 22
ATOM     22  C   PRO P   2     -17.167  21.419  24.416  1.00 16.32 LIG 0.24  C 
ATOM     23  N   PHE P   1     -17.471  22.583  23.882  1.00 10.52 LIG-0.34  N 
ATOM     24 H    PHE P   1     -18.182  22.735  23.423  1.00 10.52 LIG 0.16  HD
ATOM     25 O    PRO P   2     -16.080  21.173  25.020  1.00 16.09 LIG-0.27  OA
BRANCH 23 26
ATOM     26  CA  PHE P   1     -16.583  23.739  24.042  1.00 14.43 LIG 0.19  C 
BRANCH 26 27
ATOM     27  CB  PHE P   1     -15.137  23.383  23.718  1.00 14.76 LIG 0.07  C 
BRANCH 27 28
ATOM     28  CG  PHE P   1     -14.195  24.580  23.836  1.00 18.21 LIG-0.06  A 
ATOM     29  CD1 PHE P   1     -13.160  24.734  22.920  1.00 21.80 LIG 0.01  A 
ATOM     30  CE1 PHE P   1     -12.274  25.821  23.035  1.00 23.78 LIG 0.00  A 
ATOM     31  CZ  PHE P   1     -12.427  26.727  24.083  1.00 21.60 LIG 0.00  A 
ATOM     32  CE2 PHE P   1     -13.467  26.560  25.026  1.00 26.45 LIG 0.00  A 
ATOM     33  CD2 PHE P   1     -14.350  25.462  24.899  1.00 19.03 LIG 0.01  A 
ENDBRANCH 27 28
ENDBRANCH 26 27
BRANCH 26 34
ATOM     34  C   PHE P   1     -17.154  24.939  23.219  1.00 13.94 LIG 0.20  C 
ATOM     35 O    PHE P   1     -17.901  24.614  22.218  1.00 16.43 LIG-0.65  OA
ATOM     36 OXT  PHE P   1     -16.885  26.201  23.378  1.00 13.15 LIG-0.65  OA
ENDBRANCH 26 34
ENDBRANCH 23 26
ENDBRANCH 4 22
TORSDOF 8
ENDMDL
MODEL 11
USER: ADFR SOLUTION from run 11
USER: SCORE 12.303394 LL:  -2.740 LR:  -9.845 RR:   0.000 FEB:  -7.459
USER: RMSD 4.431944
USER: SEED 362371
USER: STATUS no improvement in best in 4 clusters for 5 generations
USER: GENES 10
USER: genes 0 Translation |==|  0.59047 0.56513 0.68572
USER: genes 1 Rotation |==|  0.65782 0.70202 0.36569 0.90773
USER: genes 2 Torsion [N]-C--CA-[N] |==|  0.27404
USER: genes 3 Torsion [C]-CA--N-[C] |==|  0.74556
USER: genes 4 Torsion [N]-C--CA-[N] |==|  0.93402
USER: genes 5 Torsion [N]-CA--C-[N] |==|  0.72811
USER: genes 6 Torsion [C]-N--CA-[CB] |==|  0.28403
USER: genes 7 Torsion [N]-CA--CB-[CG] |==|  0.77035
USER: genes 8 Torsion [CA]-CB--CG-[CD1] |==|  0.40377
USER: genes 9 Torsion [N]-CA--C-[O] |==|  0.65626
ROOT
ATOM      1  C   ALA P   3     -16.646  25.491  25.797  1.00 17.83 LIG 0.24  C 
ATOM      2 O    ALA P   3     -17.810  25.183  25.498  1.00 14.64 LIG-0.27  OA
ATOM      3  N   PRO P   2     -15.560  25.013  25.239  1.00 16.26 LIG-0.34  N 
ATOM      4  CA  PRO P   2     -15.623  24.057  24.122  1.00 13.96 LIG 0.18  C 
ATOM      5  CB  PRO P   2     -14.192  23.944  23.609  1.00 15.54 LIG 0.04  C 
ATOM      6  CG  PRO P   2     -13.393  25.004  24.350  1.00 16.88 LIG 0.02  C 
ATOM      7  CD  PRO P   2     -14.162  25.343  25.597  1.00 18.82 LIG 0.13  C 
ENDROOT
BRANCH 1 8
ATOM      8  CA  ALA P   3     -16.377  26.457  26.957  1.00 20.57 LIG 0.17  C 
ATOM      9  CB  ALA P   3     -17.436  26.201  28.028  1.00 21.35 LIG 0.04  C 
BRANCH 8 10
ATOM     10  N   ALA P   3     -16.485  27.843  26.471  1.00 21.09 LIG-0.35  N 
ATOM     11  C   PRO P   4     -15.451  28.525  26.015  1.00 23.18 LIG 0.24  C 
ATOM     12 O    PRO P   4     -14.266  28.069  25.972  1.00 18.89 LIG-0.27  OA
ATOM     13 H    ALA P   3     -17.282  28.164  26.512  1.00 21.09 LIG 0.16  HD
BRANCH 11 14
ATOM     14  CA  PRO P   4     -15.798  29.920  25.567  1.00 25.16 LIG 0.18  C 
ATOM     15  CB  PRO P   4     -15.648  31.016  26.594  1.00 26.75 LIG 0.04  C 
ATOM     16  CG  PRO P   4     -16.920  30.896  27.403  1.00 27.39 LIG 0.02  C 
ATOM     17  CD  PRO P   4     -17.991  30.621  26.361  1.00 26.08 LIG 0.13  C 
ATOM     18  N   PRO P   4     -17.249  29.931  25.226  1.00 30.07 LIG-0.34  N 
ATOM     19  C   ACE P   5     -17.530  29.203  24.076  1.00 36.72 LIG 0.22  C 
ATOM     20  CH3 ACE P   5     -18.973  29.316  23.676  1.00 39.74 LIG 0.12  C 
ATOM     21 O    ACE P   5     -16.711  28.532  23.441  1.00 37.57 LIG-0.27  OA
ENDBRANCH 11 14
ENDBRANCH 8 10
ENDBRANCH 1 8
BRANCH 4 22
ATOM     22  C   PRO P   2     -16.123  22.729  24.651  1.00 16.32 LIG 0.24  C 
ATOM     23  N   PHE P   1     -15.236  21.799  24.936  1.00 10.52 LIG-0.34  N 
ATOM     24 H    PHE P   1     -14.389  21.883  24.817  1.00 10.52 LIG 0.16  HD
ATOM     25 O    PRO P   2     -17.377  22.574  24.746  1.00 16.09 LIG-0.27  OA
BRANCH 23 26
ATOM     26  CA  PHE P   1     -15.654  20.510  25.497  1.00 14.43 LIG 0.19  C 
BRANCH 26 27
ATOM     27  CB  PHE P   1     -15.655  19.412  24.440  1.00 14.76 LIG 0.07  C 
BRANCH 27 28
ATOM     28  CG  PHE P   1     -16.931  19.404  23.600  1.00 18.21 LIG-0.06  A 
ATOM     29  CD1 PHE P   1     -16.866  19.057  22.254  1.00 21.80 LIG 0.01  A 
ATOM     30  CE1 PHE P   1     -18.033  19.069  21.468  1.00 23.78 LIG 0.00  A 
ATOM     31  CZ  PHE P   1     -19.246  19.449  22.039  1.00 21.60 LIG 0.00  A 
ATOM     32  CE2 PHE P   1     -19.309  19.820  23.403  1.00 26.45 LIG 0.00  A 
ATOM     33  CD2 PHE P   1     -18.127  19.805  24.181  1.00 19.03 LIG 0.01  A 
ENDBRANCH 27 28
ENDBRANCH 26 27
BRANCH 26 34
ATOM     34  C   PHE P   1     -14.782  20.194  26.756  1.00 13.94 LIG 0.20  C 
ATOM     35 O    PHE P   1     -14.148  19.070  26.718  1.00 16.43 LIG-0.65  OA
ATOM     36 OXT  PHE P   1     -14.703  20.887  27.853  1.00 13.15 LIG-0.65  OA
ENDBRANCH 26 34
ENDBRANCH 23 26
ENDBRANCH 4 22
TORSDOF 8
ENDMDL
