MODEL 1
USER: ADFR SOLUTION from run 153
USER: SCORE 14.284838 LL:  -1.852 LR: -13.059 RR:   0.000 FEB:  -9.777
USER: RMSD 5.553595
USER: SEED 152
USER: STATUS no improvement in best in 10 clusters for 5 generations
USER: GENES 13
USER: genes 0 Translation |==|  0.52520 0.60455 0.57653
USER: genes 1 Rotation |==|  0.48147 0.92167 0.76785 0.51035
USER: genes 2 Torsion [C]-CA--CB-[CG] |==|  0.32055
USER: genes 3 Torsion [CA]-CB--CG-[CD2] |==|  0.91009
USER: genes 4 Torsion [N]-CA--C-[N] |==|  0.05923
USER: genes 5 Torsion [C]-N--CA-[CB] |==|  0.81384
USER: genes 6 Torsion [N]-CA--C-[O] |==|  0.22889
USER: genes 7 Torsion [N]-CA--CB-[CG] |==|  0.87357
USER: genes 8 Torsion [CA]-CB--CG-[ND2] |==|  0.65937
USER: genes 9 Torsion [CB]-CA--N-[C] |==|  0.78889
USER: genes 10 Torsion [N]-C--CA-[N] |==|  0.73246
USER: genes 11 Torsion [C]-CA--CB-[CG] |==|  0.45062
USER: genes 12 Torsion [CA]-CB--CG-[OD1] |==|  0.05840
ROOT
ATOM      1  CA  TRP J 605      -2.775  22.771  71.808  1.00 71.61 LIG 0.18  C 
ENDROOT
BRANCH 1 2
ATOM      2  CB  TRP J 605      -2.132  24.048  72.362  1.00 65.14 LIG 0.07  C 
BRANCH 2 3
ATOM      3  CG  TRP J 605      -2.828  24.610  73.567  1.00 62.37 LIG-0.03  A 
ATOM      4  CD2 TRP J 605      -4.229  24.549  73.852  1.00 57.80 LIG-0.00  A 
ATOM      5  CE3 TRP J 605      -5.334  24.014  73.182  1.00 58.94 LIG 0.01  A 
ATOM      6  CE2 TRP J 605      -4.433  25.194  75.088  1.00 56.30 LIG 0.04  A 
ATOM      7  CZ3 TRP J 605      -6.585  24.138  73.758  1.00 59.47 LIG 0.00  A 
ATOM      8  CH2 TRP J 605      -6.755  24.785  74.988  1.00 55.92 LIG 0.00  A 
ATOM      9  CZ2 TRP J 605      -5.695  25.318  75.666  1.00 56.02 LIG 0.03  A 
ATOM     10  NE1 TRP J 605      -3.211  25.624  75.533  1.00 57.88 LIG-0.36  N 
ATOM     11  CD1 TRP J 605      -2.253  25.268  74.616  1.00 63.10 LIG 0.10  A 
ATOM     12 HE1  TRP J 605      -3.066  26.048  76.267  1.00 57.88 LIG 0.17  HD
ENDBRANCH 2 3
ENDBRANCH 1 2
BRANCH 1 13
ATOM     13  C   TRP J 605      -3.323  23.032  70.404  1.00 60.32 LIG 0.24  C 
ATOM     14  N   ASN J 606      -3.241  22.012  69.551  1.00 74.38 LIG-0.34  N 
ATOM     15 H    ASN J 606      -2.844  21.273  69.740  1.00 74.38 LIG 0.16  HD
ATOM     16 O    TRP J 605      -3.809  24.124  70.109  1.00 56.87 LIG-0.27  OA
BRANCH 14 17
ATOM     17  CA  ASN J 606      -3.817  22.044  68.205  1.00 65.98 LIG 0.19  C 
BRANCH 17 18
ATOM     18  C   ASN J 606      -3.316  23.197  67.341  1.00 66.37 LIG 0.20  C 
ATOM     19 O    ASN J 606      -2.247  23.122  66.738  1.00 70.67 LIG-0.65  OA
ATOM     20 OXT  ASN J 606      -3.982  24.227  67.217  1.00 61.82 LIG-0.65  OA
ENDBRANCH 17 18
BRANCH 17 21
ATOM     21  CB  ASN J 606      -5.343  22.089  68.293  1.00 63.43 LIG 0.14  C 
BRANCH 21 22
ATOM     22  CG  ASN J 606      -5.897  21.093  69.297  1.00 67.06 LIG 0.22  C 
ATOM     23  ND2 ASN J 606      -6.770  20.207  68.834  1.00 58.48 LIG-0.37  N 
ATOM     24 22HD ASN J 606      -6.993  20.217  68.002  1.00 58.48 LIG 0.16  HD
ATOM     25 21HD ASN J 606      -7.113  19.624  69.363  1.00 58.48 LIG 0.16  HD
ATOM     26 OD1  ASN J 606      -5.544  21.124  70.476  1.00 73.16 LIG-0.27  OA
ENDBRANCH 21 22
ENDBRANCH 17 21
ENDBRANCH 14 17
ENDBRANCH 1 13
BRANCH 1 27
ATOM     27  N   TRP J 605      -1.825  21.657  71.857  1.00 80.26 LIG-0.34  N 
ATOM     28  C   ASP J 604      -0.815  21.515  71.000  1.00 69.06 LIG 0.26  C 
ATOM     29 O    ASP J 604      -0.616  22.275  70.051  1.00 67.02 LIG-0.27  OA
ATOM     30 H    TRP J 605      -1.980  21.100  72.493  1.00 80.26 LIG 0.16  HD
BRANCH 28 31
ATOM     31  CA  ASP J 604       0.114  20.329  71.249  1.00 80.57 LIG 0.41  C 
ATOM     32  N   ASP J 604       1.291  20.746  72.005  1.00 92.85 LIG 0.61  N 
BRANCH 31 33
ATOM     33  CB  ASP J 604      -0.628  19.214  71.988  1.00 75.75 LIG 0.16  C 
BRANCH 33 34
ATOM     34  CG  ASP J 604       0.078  17.875  71.889  1.00 69.63 LIG 0.17  C 
ATOM     35 OD1  ASP J 604       1.296  17.861  71.613  1.00 75.49 LIG-0.65  OA
ATOM     36 OD2  ASP J 604      -0.585  16.836  72.090  1.00 69.41 LIG-0.65  OA
ENDBRANCH 33 34
ENDBRANCH 31 33
ENDBRANCH 28 31
ENDBRANCH 1 27
TORSDOF 11
ENDMDL
MODEL 2
USER: ADFR SOLUTION from run 2
USER: SCORE 13.968477 LL:  -1.556 LR: -12.828 RR:   0.000 FEB:  -9.546
USER: RMSD 7.417615
USER: SEED 35836
USER: STATUS no improvement in best in 6 clusters for 5 generations
USER: GENES 13
USER: genes 0 Translation |==|  0.47663 0.38682 0.33346
USER: genes 1 Rotation |==|  0.29886 0.30829 0.83221 0.74986
USER: genes 2 Torsion [C]-CA--CB-[CG] |==|  0.27730
USER: genes 3 Torsion [CA]-CB--CG-[CD2] |==|  0.48023
USER: genes 4 Torsion [N]-CA--C-[N] |==|  0.16365
USER: genes 5 Torsion [C]-N--CA-[CB] |==|  0.33420
USER: genes 6 Torsion [N]-CA--C-[O] |==|  0.56763
USER: genes 7 Torsion [N]-CA--CB-[CG] |==|  0.19451
USER: genes 8 Torsion [CA]-CB--CG-[ND2] |==|  0.39602
USER: genes 9 Torsion [CB]-CA--N-[C] |==|  0.78889
USER: genes 10 Torsion [N]-C--CA-[N] |==|  0.92031
USER: genes 11 Torsion [C]-CA--CB-[CG] |==|  0.26048
USER: genes 12 Torsion [CA]-CB--CG-[OD1] |==|  0.38828
ROOT
ATOM      1  CA  TRP J 605      -3.613  19.341  67.615  1.00 71.61 LIG 0.18  C 
ENDROOT
BRANCH 1 2
ATOM      2  CB  TRP J 605      -4.675  18.325  67.178  1.00 65.14 LIG 0.07  C 
BRANCH 2 3
ATOM      3  CG  TRP J 605      -5.525  18.785  66.030  1.00 62.37 LIG-0.03  A 
ATOM      4  CD2 TRP J 605      -6.494  18.008  65.317  1.00 57.80 LIG-0.00  A 
ATOM      5  CE3 TRP J 605      -6.939  16.686  65.413  1.00 58.94 LIG 0.01  A 
ATOM      6  CE2 TRP J 605      -7.055  18.843  64.330  1.00 56.30 LIG 0.04  A 
ATOM      7  CZ3 TRP J 605      -7.915  16.248  64.537  1.00 59.47 LIG 0.00  A 
ATOM      8  CH2 TRP J 605      -8.454  17.103  63.567  1.00 55.92 LIG 0.00  A 
ATOM      9  CZ2 TRP J 605      -8.039  18.400  63.449  1.00 56.02 LIG 0.03  A 
ATOM     10  NE1 TRP J 605      -6.457  20.071  64.443  1.00 57.88 LIG-0.36  N 
ATOM     11  CD1 TRP J 605      -5.543  20.028  65.466  1.00 63.10 LIG 0.10  A 
ATOM     12 HE1  TRP J 605      -6.627  20.757  63.953  1.00 57.88 LIG 0.17  HD
ENDBRANCH 2 3
ENDBRANCH 1 2
BRANCH 1 13
ATOM     13  C   TRP J 605      -4.099  20.103  68.850  1.00 60.32 LIG 0.24  C 
ATOM     14  N   ASN J 606      -3.288  21.060  69.297  1.00 74.38 LIG-0.34  N 
ATOM     15 H    ASN J 606      -2.506  21.205  68.968  1.00 74.38 LIG 0.16  HD
ATOM     16 O    TRP J 605      -5.179  19.832  69.374  1.00 56.87 LIG-0.27  OA
BRANCH 14 17
ATOM     17  CA  ASN J 606      -3.641  21.964  70.393  1.00 65.98 LIG 0.19  C 
BRANCH 17 18
ATOM     18  C   ASN J 606      -3.746  23.430  69.982  1.00 66.37 LIG 0.20  C 
ATOM     19 O    ASN J 606      -3.593  24.332  70.803  1.00 70.67 LIG-0.65  OA
ATOM     20 OXT  ASN J 606      -3.973  23.741  68.812  1.00 61.82 LIG-0.65  OA
ENDBRANCH 17 18
BRANCH 17 21
ATOM     21  CB  ASN J 606      -2.633  21.818  71.533  1.00 63.43 LIG 0.14  C 
BRANCH 21 22
ATOM     22  CG  ASN J 606      -1.266  22.376  71.176  1.00 67.06 LIG 0.22  C 
ATOM     23  ND2 ASN J 606      -0.608  22.999  72.146  1.00 58.48 LIG-0.37  N 
ATOM     24 22HD ASN J 606      -0.959  23.068  72.928  1.00 58.48 LIG 0.16  HD
ATOM     25 21HD ASN J 606       0.169  23.333  71.992  1.00 58.48 LIG 0.16  HD
ATOM     26 OD1  ASN J 606      -0.810  22.249  70.039  1.00 73.16 LIG-0.27  OA
ENDBRANCH 21 22
ENDBRANCH 17 21
ENDBRANCH 14 17
ENDBRANCH 1 13
BRANCH 1 27
ATOM     27  N   TRP J 605      -2.324  18.676  67.820  1.00 80.26 LIG-0.34  N 
ATOM     28  C   ASP J 604      -2.044  17.930  68.888  1.00 69.06 LIG 0.26  C 
ATOM     29 O    ASP J 604      -2.821  17.773  69.831  1.00 67.02 LIG-0.27  OA
ATOM     30 H    TRP J 605      -1.762  18.813  67.184  1.00 80.26 LIG 0.16  HD
BRANCH 28 31
ATOM     31  CA  ASP J 604      -0.672  17.259  68.895  1.00 80.57 LIG 0.41  C 
ATOM     32  N   ASP J 604      -0.219  16.998  67.533  1.00 92.85 LIG 0.61  N 
BRANCH 31 33
ATOM     33  CB  ASP J 604       0.345  18.127  69.639  1.00 75.75 LIG 0.16  C 
BRANCH 33 34
ATOM     34  CG  ASP J 604       0.478  17.751  71.102  1.00 69.63 LIG 0.17  C 
ATOM     35 OD1  ASP J 604       1.616  17.745  71.616  1.00 75.49 LIG-0.65  OA
ATOM     36 OD2  ASP J 604      -0.557  17.464  71.739  1.00 69.41 LIG-0.65  OA
ENDBRANCH 33 34
ENDBRANCH 31 33
ENDBRANCH 28 31
ENDBRANCH 1 27
TORSDOF 11
ENDMDL
MODEL 3
USER: ADFR SOLUTION from run 164
USER: SCORE 13.783575 LL:  -1.685 LR: -12.769 RR:   0.000 FEB:  -9.487
USER: RMSD 3.454335
USER: SEED 163
USER: STATUS no improvement in best in 18 clusters for 5 generations
USER: GENES 13
USER: genes 0 Translation |==|  0.56447 0.50112 0.49484
USER: genes 1 Rotation |==|  0.61301 0.37306 0.50171 0.97023
USER: genes 2 Torsion [C]-CA--CB-[CG] |==|  0.27760
USER: genes 3 Torsion [CA]-CB--CG-[CD2] |==|  0.47386
USER: genes 4 Torsion [N]-CA--C-[N] |==|  0.09501
USER: genes 5 Torsion [C]-N--CA-[CB] |==|  0.52562
USER: genes 6 Torsion [N]-CA--C-[O] |==|  0.76688
USER: genes 7 Torsion [N]-CA--CB-[CG] |==|  0.85596
USER: genes 8 Torsion [CA]-CB--CG-[ND2] |==|  0.26766
USER: genes 9 Torsion [CB]-CA--N-[C] |==|  0.78302
USER: genes 10 Torsion [N]-C--CA-[N] |==|  0.47230
USER: genes 11 Torsion [C]-CA--CB-[CG] |==|  0.18459
USER: genes 12 Torsion [CA]-CB--CG-[OD1] |==|  0.10334
ROOT
ATOM      1  CA  TRP J 605      -2.098  21.142  70.399  1.00 71.61 LIG 0.18  C 
ENDROOT
BRANCH 1 2
ATOM      2  CB  TRP J 605      -3.293  21.715  71.170  1.00 65.14 LIG 0.07  C 
BRANCH 2 3
ATOM      3  CG  TRP J 605      -2.913  22.635  72.293  1.00 62.37 LIG-0.03  A 
ATOM      4  CD2 TRP J 605      -3.796  23.459  73.061  1.00 57.80 LIG-0.00  A 
ATOM      5  CE3 TRP J 605      -5.175  23.690  73.038  1.00 58.94 LIG 0.01  A 
ATOM      6  CE2 TRP J 605      -3.009  24.144  74.010  1.00 56.30 LIG 0.04  A 
ATOM      7  CZ3 TRP J 605      -5.716  24.579  73.948  1.00 59.47 LIG 0.00  A 
ATOM      8  CH2 TRP J 605      -4.907  25.244  74.879  1.00 55.92 LIG 0.00  A 
ATOM      9  CZ2 TRP J 605      -3.556  25.040  74.925  1.00 56.02 LIG 0.03  A 
ATOM     10  NE1 TRP J 605      -1.710  23.749  73.827  1.00 57.88 LIG-0.36  N 
ATOM     11  CD1 TRP J 605      -1.661  22.843  72.797  1.00 63.10 LIG 0.10  A 
ATOM     12 HE1  TRP J 605      -1.035  24.024  74.283  1.00 57.88 LIG 0.17  HD
ENDBRANCH 2 3
ENDBRANCH 1 2
BRANCH 1 13
ATOM     13  C   TRP J 605      -1.804  19.719  70.879  1.00 60.32 LIG 0.24  C 
ATOM     14  N   ASN J 606      -1.126  18.950  70.029  1.00 74.38 LIG-0.34  N 
ATOM     15 H    ASN J 606      -0.923  19.197  69.231  1.00 74.38 LIG 0.16  HD
ATOM     16 O    TRP J 605      -2.177  19.337  71.988  1.00 56.87 LIG-0.27  OA
BRANCH 14 17
ATOM     17  CA  ASN J 606      -0.659  17.603  70.364  1.00 65.98 LIG 0.19  C 
BRANCH 17 18
ATOM     18  C   ASN J 606       0.038  17.505  71.718  1.00 66.37 LIG 0.20  C 
ATOM     19 O    ASN J 606       1.230  17.778  71.840  1.00 70.67 LIG-0.65  OA
ATOM     20 OXT  ASN J 606      -0.585  17.162  72.723  1.00 61.82 LIG-0.65  OA
ENDBRANCH 17 18
BRANCH 17 21
ATOM     21  CB  ASN J 606       0.272  17.087  69.266  1.00 63.43 LIG 0.14  C 
BRANCH 21 22
ATOM     22  CG  ASN J 606      -0.344  17.200  67.882  1.00 67.06 LIG 0.22  C 
ATOM     23  ND2 ASN J 606      -0.014  18.272  67.172  1.00 58.48 LIG-0.37  N 
ATOM     24 22HD ASN J 606       0.523  18.858  67.502  1.00 58.48 LIG 0.16  HD
ATOM     25 21HD ASN J 606      -0.338  18.381  66.383  1.00 58.48 LIG 0.16  HD
ATOM     26 OD1  ASN J 606      -1.108  16.332  67.458  1.00 73.16 LIG-0.27  OA
ENDBRANCH 21 22
ENDBRANCH 17 21
ENDBRANCH 14 17
ENDBRANCH 1 13
BRANCH 1 27
ATOM     27  N   TRP J 605      -2.334  21.225  68.956  1.00 80.26 LIG-0.34  N 
ATOM     28  C   ASP J 604      -3.117  20.377  68.289  1.00 69.06 LIG 0.26  C 
ATOM     29 O    ASP J 604      -3.673  19.411  68.812  1.00 67.02 LIG-0.27  OA
ATOM     30 H    TRP J 605      -1.918  21.875  68.576  1.00 80.26 LIG 0.16  HD
BRANCH 28 31
ATOM     31  CA  ASP J 604      -3.298  20.663  66.800  1.00 80.57 LIG 0.41  C 
ATOM     32  N   ASP J 604      -3.972  19.550  66.140  1.00 92.85 LIG 0.61  N 
BRANCH 31 33
ATOM     33  CB  ASP J 604      -4.082  21.960  66.595  1.00 75.75 LIG 0.16  C 
BRANCH 33 34
ATOM     34  CG  ASP J 604      -3.321  23.186  67.064  1.00 69.63 LIG 0.17  C 
ATOM     35 OD1  ASP J 604      -2.085  23.226  66.885  1.00 75.49 LIG-0.65  OA
ATOM     36 OD2  ASP J 604      -3.959  24.110  67.609  1.00 69.41 LIG-0.65  OA
ENDBRANCH 33 34
ENDBRANCH 31 33
ENDBRANCH 28 31
ENDBRANCH 1 27
TORSDOF 11
ENDMDL
MODEL 4
USER: ADFR SOLUTION from run 113
USER: SCORE 14.025392 LL:  -2.461 LR: -12.714 RR:   0.000 FEB:  -9.433
USER: RMSD 7.325049
USER: SEED 112
USER: STATUS 1 or 2 clusters left
USER: GENES 13
USER: genes 0 Translation |==|  0.64596 0.54652 0.56876
USER: genes 1 Rotation |==|  0.93895 0.57397 0.31773 0.63648
USER: genes 2 Torsion [C]-CA--CB-[CG] |==|  0.22835
USER: genes 3 Torsion [CA]-CB--CG-[CD2] |==|  0.76647
USER: genes 4 Torsion [N]-CA--C-[N] |==|  0.74613
USER: genes 5 Torsion [C]-N--CA-[CB] |==|  0.48156
USER: genes 6 Torsion [N]-CA--C-[O] |==|  0.42669
USER: genes 7 Torsion [N]-CA--CB-[CG] |==|  0.05432
USER: genes 8 Torsion [CA]-CB--CG-[ND2] |==|  0.71569
USER: genes 9 Torsion [CB]-CA--N-[C] |==|  0.82846
USER: genes 10 Torsion [N]-C--CA-[N] |==|  0.22419
USER: genes 11 Torsion [C]-CA--CB-[CG] |==|  0.77269
USER: genes 12 Torsion [CA]-CB--CG-[OD1] |==|  0.81930
ROOT
ATOM      1  CA  TRP J 605      -0.692  21.857  71.674  1.00 71.61 LIG 0.18  C 
ENDROOT
BRANCH 1 2
ATOM      2  CB  TRP J 605      -1.259  20.478  72.033  1.00 65.14 LIG 0.07  C 
BRANCH 2 3
ATOM      3  CG  TRP J 605      -0.521  19.331  71.407  1.00 62.37 LIG-0.03  A 
ATOM      4  CD2 TRP J 605      -0.719  18.802  70.091  1.00 57.80 LIG-0.00  A 
ATOM      5  CE3 TRP J 605      -1.581  19.119  69.036  1.00 58.94 LIG 0.01  A 
ATOM      6  CE2 TRP J 605       0.195  17.742  69.925  1.00 56.30 LIG 0.04  A 
ATOM      7  CZ3 TRP J 605      -1.504  18.380  67.870  1.00 59.47 LIG 0.00  A 
ATOM      8  CH2 TRP J 605      -0.585  17.332  67.736  1.00 55.92 LIG 0.00  A 
ATOM      9  CZ2 TRP J 605       0.271  16.999  68.749  1.00 56.02 LIG 0.03  A 
ATOM     10  NE1 TRP J 605       0.915  17.636  71.086  1.00 57.88 LIG-0.36  N 
ATOM     11  CD1 TRP J 605       0.480  18.593  71.968  1.00 63.10 LIG 0.10  A 
ATOM     12 HE1  TRP J 605       1.538  17.062  71.238  1.00 57.88 LIG 0.17  HD
ENDBRANCH 2 3
ENDBRANCH 1 2
BRANCH 1 13
ATOM     13  C   TRP J 605      -1.227  22.301  70.311  1.00 60.32 LIG 0.24  C 
ATOM     14  N   ASN J 606      -2.457  21.890  70.010  1.00 74.38 LIG-0.34  N 
ATOM     15 H    ASN J 606      -2.907  21.350  70.506  1.00 74.38 LIG 0.16  HD
ATOM     16 O    TRP J 605      -0.544  22.999  69.562  1.00 56.87 LIG-0.27  OA
BRANCH 14 17
ATOM     17  CA  ASN J 606      -3.171  22.312  68.803  1.00 65.98 LIG 0.19  C 
BRANCH 17 18
ATOM     18  C   ASN J 606      -3.451  23.811  68.738  1.00 66.37 LIG 0.20  C 
ATOM     19 O    ASN J 606      -3.585  24.386  67.660  1.00 70.67 LIG-0.65  OA
ATOM     20 OXT  ASN J 606      -3.562  24.476  69.769  1.00 61.82 LIG-0.65  OA
ENDBRANCH 17 18
BRANCH 17 21
ATOM     21  CB  ASN J 606      -4.482  21.536  68.675  1.00 63.43 LIG 0.14  C 
BRANCH 21 22
ATOM     22  CG  ASN J 606      -4.927  20.925  69.993  1.00 67.06 LIG 0.22  C 
ATOM     23  ND2 ASN J 606      -4.710  19.624  70.146  1.00 58.48 LIG-0.37  N 
ATOM     24 22HD ASN J 606      -4.334  19.174  69.516  1.00 58.48 LIG 0.16  HD
ATOM     25 21HD ASN J 606      -4.945  19.232  70.873  1.00 58.48 LIG 0.16  HD
ATOM     26 OD1  ASN J 606      -5.460  21.616  70.861  1.00 73.16 LIG-0.27  OA
ENDBRANCH 21 22
ENDBRANCH 17 21
ENDBRANCH 14 17
ENDBRANCH 1 13
BRANCH 1 27
ATOM     27  N   TRP J 605      -0.973  22.818  72.743  1.00 80.26 LIG-0.34  N 
ATOM     28  C   ASP J 604      -2.204  23.159  73.119  1.00 69.06 LIG 0.26  C 
ATOM     29 O    ASP J 604      -3.225  22.742  72.569  1.00 67.02 LIG-0.27  OA
ATOM     30 H    TRP J 605      -0.265  23.144  73.107  1.00 80.26 LIG 0.16  HD
BRANCH 28 31
ATOM     31  CA  ASP J 604      -2.301  24.125  74.299  1.00 80.57 LIG 0.41  C 
ATOM     32  N   ASP J 604      -2.085  25.499  73.859  1.00 92.85 LIG 0.61  N 
BRANCH 31 33
ATOM     33  CB  ASP J 604      -3.660  23.993  74.990  1.00 75.75 LIG 0.16  C 
BRANCH 33 34
ATOM     34  CG  ASP J 604      -4.753  24.773  74.285  1.00 69.63 LIG 0.17  C 
ATOM     35 OD1  ASP J 604      -4.670  26.019  74.252  1.00 75.49 LIG-0.65  OA
ATOM     36 OD2  ASP J 604      -5.694  24.141  73.762  1.00 69.41 LIG-0.65  OA
ENDBRANCH 33 34
ENDBRANCH 31 33
ENDBRANCH 28 31
ENDBRANCH 1 27
TORSDOF 11
ENDMDL
MODEL 5
USER: ADFR SOLUTION from run 144
USER: SCORE 14.057414 LL:  -2.097 LR: -12.640 RR:   0.000 FEB:  -9.359
USER: RMSD 5.272188
USER: SEED 143
USER: STATUS no improvement in best in 11 clusters for 5 generations
USER: GENES 13
USER: genes 0 Translation |==|  0.52129 0.61208 0.57920
USER: genes 1 Rotation |==|  0.48185 0.91425 0.77850 0.52239
USER: genes 2 Torsion [C]-CA--CB-[CG] |==|  0.31807
USER: genes 3 Torsion [CA]-CB--CG-[CD2] |==|  0.91862
USER: genes 4 Torsion [N]-CA--C-[N] |==|  0.08998
USER: genes 5 Torsion [C]-N--CA-[CB] |==|  0.45586
USER: genes 6 Torsion [N]-CA--C-[O] |==|  0.38675
USER: genes 7 Torsion [N]-CA--CB-[CG] |==|  0.80192
USER: genes 8 Torsion [CA]-CB--CG-[ND2] |==|  0.30945
USER: genes 9 Torsion [CB]-CA--N-[C] |==|  0.78333
USER: genes 10 Torsion [N]-C--CA-[N] |==|  0.78287
USER: genes 11 Torsion [C]-CA--CB-[CG] |==|  0.51308
USER: genes 12 Torsion [CA]-CB--CG-[OD1] |==|  0.45940
ROOT
ATOM      1  CA  TRP J 605      -2.843  22.889  71.854  1.00 71.61 LIG 0.18  C 
ENDROOT
BRANCH 1 2
ATOM      2  CB  TRP J 605      -2.191  24.118  72.501  1.00 65.14 LIG 0.07  C 
BRANCH 2 3
ATOM      3  CG  TRP J 605      -2.932  24.646  73.694  1.00 62.37 LIG-0.03  A 
ATOM      4  CD2 TRP J 605      -4.341  24.563  73.932  1.00 57.80 LIG-0.00  A 
ATOM      5  CE3 TRP J 605      -5.418  24.030  73.216  1.00 58.94 LIG 0.01  A 
ATOM      6  CE2 TRP J 605      -4.592  25.179  75.175  1.00 56.30 LIG 0.04  A 
ATOM      7  CZ3 TRP J 605      -6.688  24.127  73.754  1.00 59.47 LIG 0.00  A 
ATOM      8  CH2 TRP J 605      -6.905  24.746  74.991  1.00 55.92 LIG 0.00  A 
ATOM      9  CZ2 TRP J 605      -5.873  25.276  75.715  1.00 56.02 LIG 0.03  A 
ATOM     10  NE1 TRP J 605      -3.390  25.613  75.668  1.00 57.88 LIG-0.36  N 
ATOM     11  CD1 TRP J 605      -2.399  25.288  74.775  1.00 63.10 LIG 0.10  A 
ATOM     12 HE1  TRP J 605      -3.274  26.023  76.415  1.00 57.88 LIG 0.17  HD
ENDBRANCH 2 3
ENDBRANCH 1 2
BRANCH 1 13
ATOM     13  C   TRP J 605      -3.328  23.239  70.446  1.00 60.32 LIG 0.24  C 
ATOM     14  N   ASN J 606      -3.454  22.214  69.605  1.00 74.38 LIG-0.34  N 
ATOM     15 H    ASN J 606      -3.214  21.412  69.803  1.00 74.38 LIG 0.16  HD
ATOM     16 O    TRP J 605      -3.584  24.403  70.138  1.00 56.87 LIG-0.27  OA
BRANCH 14 17
ATOM     17  CA  ASN J 606      -4.013  22.345  68.259  1.00 65.98 LIG 0.19  C 
BRANCH 17 18
ATOM     18  C   ASN J 606      -5.521  22.574  68.230  1.00 66.37 LIG 0.20  C 
ATOM     19 O    ASN J 606      -6.028  23.373  67.445  1.00 70.67 LIG-0.65  OA
ATOM     20 OXT  ASN J 606      -6.267  21.950  68.986  1.00 61.82 LIG-0.65  OA
ENDBRANCH 17 18
BRANCH 17 21
ATOM     21  CB  ASN J 606      -3.663  21.110  67.427  1.00 63.43 LIG 0.14  C 
BRANCH 21 22
ATOM     22  CG  ASN J 606      -2.190  21.058  67.056  1.00 67.06 LIG 0.22  C 
ATOM     23  ND2 ASN J 606      -1.469  20.102  67.626  1.00 58.48 LIG-0.37  N 
ATOM     24 22HD ASN J 606      -1.840  19.552  68.174  1.00 58.48 LIG 0.16  HD
ATOM     25 21HD ASN J 606      -0.630  20.032  67.449  1.00 58.48 LIG 0.16  HD
ATOM     26 OD1  ASN J 606      -1.710  21.871  66.265  1.00 73.16 LIG-0.27  OA
ENDBRANCH 21 22
ENDBRANCH 17 21
ENDBRANCH 14 17
ENDBRANCH 1 13
BRANCH 1 27
ATOM     27  N   TRP J 605      -1.922  21.750  71.879  1.00 80.26 LIG-0.34  N 
ATOM     28  C   ASP J 604      -0.905  21.609  71.029  1.00 69.06 LIG 0.26  C 
ATOM     29 O    ASP J 604      -0.675  22.393  70.107  1.00 67.02 LIG-0.27  OA
ATOM     30 H    TRP J 605      -2.099  21.178  72.496  1.00 80.26 LIG 0.16  HD
BRANCH 28 31
ATOM     31  CA  ASP J 604      -0.010  20.391  71.252  1.00 80.57 LIG 0.41  C 
ATOM     32  N   ASP J 604       0.912  20.626  72.358  1.00 92.85 LIG 0.61  N 
BRANCH 31 33
ATOM     33  CB  ASP J 604      -0.857  19.146  71.519  1.00 75.75 LIG 0.16  C 
BRANCH 33 34
ATOM     34  CG  ASP J 604      -0.018  17.929  71.860  1.00 69.63 LIG 0.17  C 
ATOM     35 OD1  ASP J 604      -0.584  16.936  72.363  1.00 75.49 LIG-0.65  OA
ATOM     36 OD2  ASP J 604       1.206  17.965  71.621  1.00 69.41 LIG-0.65  OA
ENDBRANCH 33 34
ENDBRANCH 31 33
ENDBRANCH 28 31
ENDBRANCH 1 27
TORSDOF 11
ENDMDL
MODEL 6
USER: ADFR SOLUTION from run 130
USER: SCORE 13.795576 LL:  -1.704 LR: -12.556 RR:   0.000 FEB:  -9.275
USER: RMSD 6.899919
USER: SEED 129
USER: STATUS no improvement in best in 15 clusters for 5 generations
USER: GENES 13
USER: genes 0 Translation |==|  0.56405 0.46702 0.29527
USER: genes 1 Rotation |==|  0.21259 0.40229 0.76606 0.79506
USER: genes 2 Torsion [C]-CA--CB-[CG] |==|  0.18565
USER: genes 3 Torsion [CA]-CB--CG-[CD2] |==|  0.35359
USER: genes 4 Torsion [N]-CA--C-[N] |==|  0.85743
USER: genes 5 Torsion [C]-N--CA-[CB] |==|  0.82078
USER: genes 6 Torsion [N]-CA--C-[O] |==|  0.04405
USER: genes 7 Torsion [N]-CA--CB-[CG] |==|  0.79366
USER: genes 8 Torsion [CA]-CB--CG-[ND2] |==|  0.63152
USER: genes 9 Torsion [CB]-CA--N-[C] |==|  0.88724
USER: genes 10 Torsion [N]-C--CA-[N] |==|  0.83418
USER: genes 11 Torsion [C]-CA--CB-[CG] |==|  0.30678
USER: genes 12 Torsion [CA]-CB--CG-[OD1] |==|  0.47722
ROOT
ATOM      1  CA  TRP J 605      -2.105  20.605  66.956  1.00 71.61 LIG 0.18  C 
ENDROOT
BRANCH 1 2
ATOM      2  CB  TRP J 605      -3.538  20.186  66.603  1.00 65.14 LIG 0.07  C 
BRANCH 2 3
ATOM      3  CG  TRP J 605      -4.290  21.203  65.796  1.00 62.37 LIG-0.03  A 
ATOM      4  CD2 TRP J 605      -4.972  20.978  64.558  1.00 57.80 LIG-0.00  A 
ATOM      5  CE3 TRP J 605      -5.154  19.860  63.738  1.00 58.94 LIG 0.01  A 
ATOM      6  CE2 TRP J 605      -5.544  22.206  64.166  1.00 56.30 LIG 0.04  A 
ATOM      7  CZ3 TRP J 605      -5.888  20.000  62.575  1.00 59.47 LIG 0.00  A 
ATOM      8  CH2 TRP J 605      -6.444  21.234  62.213  1.00 55.92 LIG 0.00  A 
ATOM      9  CZ2 TRP J 605      -6.283  22.345  62.994  1.00 56.02 LIG 0.03  A 
ATOM     10  NE1 TRP J 605      -5.225  23.131  65.126  1.00 57.88 LIG-0.36  N 
ATOM     11  CD1 TRP J 605      -4.475  22.521  66.100  1.00 63.10 LIG 0.10  A 
ATOM     12 HE1  TRP J 605      -5.457  23.959  65.119  1.00 57.88 LIG 0.17  HD
ENDBRANCH 2 3
ENDBRANCH 1 2
BRANCH 1 13
ATOM     13  C   TRP J 605      -2.133  21.796  67.916  1.00 60.32 LIG 0.24  C 
ATOM     14  N   ASN J 606      -2.513  21.526  69.163  1.00 74.38 LIG-0.34  N 
ATOM     15 H    ASN J 606      -2.796  20.753  69.411  1.00 74.38 LIG 0.16  HD
ATOM     16 O    TRP J 605      -1.814  22.922  67.534  1.00 56.87 LIG-0.27  OA
BRANCH 14 17
ATOM     17  CA  ASN J 606      -2.489  22.517  70.241  1.00 65.98 LIG 0.19  C 
BRANCH 17 18
ATOM     18  C   ASN J 606      -3.347  23.750  69.973  1.00 66.37 LIG 0.20  C 
ATOM     19 O    ASN J 606      -4.202  23.749  69.090  1.00 70.67 LIG-0.65  OA
ATOM     20 OXT  ASN J 606      -3.210  24.771  70.648  1.00 61.82 LIG-0.65  OA
ENDBRANCH 17 18
BRANCH 17 21
ATOM     21  CB  ASN J 606      -1.048  22.943  70.524  1.00 63.43 LIG 0.14  C 
BRANCH 21 22
ATOM     22  CG  ASN J 606      -0.262  21.877  71.270  1.00 67.06 LIG 0.22  C 
ATOM     23  ND2 ASN J 606       0.440  22.284  72.319  1.00 58.48 LIG-0.37  N 
ATOM     24 22HD ASN J 606       0.434  23.115  72.545  1.00 58.48 LIG 0.16  HD
ATOM     25 21HD ASN J 606       0.902  21.719  72.773  1.00 58.48 LIG 0.16  HD
ATOM     26 OD1  ASN J 606      -0.288  20.702  70.902  1.00 73.16 LIG-0.27  OA
ENDBRANCH 21 22
ENDBRANCH 17 21
ENDBRANCH 14 17
ENDBRANCH 1 13
BRANCH 1 27
ATOM     27  N   TRP J 605      -1.354  19.461  67.480  1.00 80.26 LIG-0.34  N 
ATOM     28  C   ASP J 604      -1.871  18.564  68.318  1.00 69.06 LIG 0.26  C 
ATOM     29 O    ASP J 604      -3.012  18.639  68.777  1.00 67.02 LIG-0.27  OA
ATOM     30 H    TRP J 605      -0.543  19.423  67.196  1.00 80.26 LIG 0.16  HD
BRANCH 28 31
ATOM     31  CA  ASP J 604      -0.957  17.402  68.703  1.00 80.57 LIG 0.41  C 
ATOM     32  N   ASP J 604      -0.556  16.649  67.519  1.00 92.85 LIG 0.61  N 
BRANCH 31 33
ATOM     33  CB  ASP J 604       0.274  17.914  69.453  1.00 75.75 LIG 0.16  C 
BRANCH 33 34
ATOM     34  CG  ASP J 604       0.270  17.525  70.919  1.00 69.63 LIG 0.17  C 
ATOM     35 OD1  ASP J 604       1.294  17.750  71.599  1.00 75.49 LIG-0.65  OA
ATOM     36 OD2  ASP J 604      -0.757  16.997  71.392  1.00 69.41 LIG-0.65  OA
ENDBRANCH 33 34
ENDBRANCH 31 33
ENDBRANCH 28 31
ENDBRANCH 1 27
TORSDOF 11
ENDMDL
MODEL 7
USER: ADFR SOLUTION from run 10
USER: SCORE 13.123209 LL:  -1.641 LR: -12.536 RR:   0.000 FEB:  -9.255
USER: RMSD 5.795307
USER: SEED 408744
USER: STATUS no improvement in best in 21 clusters for 5 generations
USER: GENES 13
USER: genes 0 Translation |==|  0.53749 0.47790 0.39658
USER: genes 1 Rotation |==|  0.45427 0.84529 0.84935 0.58147
USER: genes 2 Torsion [C]-CA--CB-[CG] |==|  0.24325
USER: genes 3 Torsion [CA]-CB--CG-[CD2] |==|  0.48645
USER: genes 4 Torsion [N]-CA--C-[N] |==|  0.40182
USER: genes 5 Torsion [C]-N--CA-[CB] |==|  0.41037
USER: genes 6 Torsion [N]-CA--C-[O] |==|  0.50354
USER: genes 7 Torsion [N]-CA--CB-[CG] |==|  0.24556
USER: genes 8 Torsion [CA]-CB--CG-[ND2] |==|  0.76447
USER: genes 9 Torsion [CB]-CA--N-[C] |==|  0.26449
USER: genes 10 Torsion [N]-C--CA-[N] |==|  0.85561
USER: genes 11 Torsion [C]-CA--CB-[CG] |==|  0.18416
USER: genes 12 Torsion [CA]-CB--CG-[OD1] |==|  0.02306
ROOT
ATOM      1  CA  TRP J 605      -2.563  20.776  68.704  1.00 71.61 LIG 0.18  C 
ENDROOT
BRANCH 1 2
ATOM      2  CB  TRP J 605      -2.140  21.621  69.912  1.00 65.14 LIG 0.07  C 
BRANCH 2 3
ATOM      3  CG  TRP J 605      -3.286  22.239  70.657  1.00 62.37 LIG-0.03  A 
ATOM      4  CD2 TRP J 605      -3.211  22.993  71.872  1.00 57.80 LIG-0.00  A 
ATOM      5  CE3 TRP J 605      -2.162  23.372  72.716  1.00 58.94 LIG 0.01  A 
ATOM      6  CE2 TRP J 605      -4.524  23.385  72.203  1.00 56.30 LIG 0.04  A 
ATOM      7  CZ3 TRP J 605      -2.453  24.118  73.843  1.00 59.47 LIG 0.00  A 
ATOM      8  CH2 TRP J 605      -3.768  24.493  74.145  1.00 55.92 LIG 0.00  A 
ATOM      9  CZ2 TRP J 605      -4.814  24.137  73.339  1.00 56.02 LIG 0.03  A 
ATOM     10  NE1 TRP J 605      -5.356  22.895  71.231  1.00 57.88 LIG-0.36  N 
ATOM     11  CD1 TRP J 605      -4.606  22.211  70.307  1.00 63.10 LIG 0.10  A 
ATOM     12 HE1  TRP J 605      -6.209  22.999  71.204  1.00 57.88 LIG 0.17  HD
ENDBRANCH 2 3
ENDBRANCH 1 2
BRANCH 1 13
ATOM     13  C   TRP J 605      -2.684  21.665  67.465  1.00 60.32 LIG 0.24  C 
ATOM     14  N   ASN J 606      -3.890  22.182  67.238  1.00 74.38 LIG-0.34  N 
ATOM     15 H    ASN J 606      -4.583  21.982  67.707  1.00 74.38 LIG 0.16  HD
ATOM     16 O    TRP J 605      -1.710  21.876  66.742  1.00 56.87 LIG-0.27  OA
BRANCH 14 17
ATOM     17  CA  ASN J 606      -4.162  23.144  66.168  1.00 65.98 LIG 0.19  C 
BRANCH 17 18
ATOM     18  C   ASN J 606      -3.958  24.600  66.574  1.00 66.37 LIG 0.20  C 
ATOM     19 O    ASN J 606      -4.172  25.516  65.782  1.00 70.67 LIG-0.65  OA
ATOM     20 OXT  ASN J 606      -3.585  24.891  67.711  1.00 61.82 LIG-0.65  OA
ENDBRANCH 17 18
BRANCH 17 21
ATOM     21  CB  ASN J 606      -5.585  22.949  65.643  1.00 63.43 LIG 0.14  C 
BRANCH 21 22
ATOM     22  CG  ASN J 606      -6.607  23.765  66.416  1.00 67.06 LIG 0.22  C 
ATOM     23  ND2 ASN J 606      -7.081  23.220  67.530  1.00 58.48 LIG-0.37  N 
ATOM     24 22HD ASN J 606      -6.806  22.444  67.779  1.00 58.48 LIG 0.16  HD
ATOM     25 21HD ASN J 606      -7.662  23.643  68.001  1.00 58.48 LIG 0.16  HD
ATOM     26 OD1  ASN J 606      -6.966  24.872  66.013  1.00 73.16 LIG-0.27  OA
ENDBRANCH 21 22
ENDBRANCH 17 21
ENDBRANCH 14 17
ENDBRANCH 1 13
BRANCH 1 27
ATOM     27  N   TRP J 605      -1.641  19.653  68.518  1.00 80.26 LIG-0.34  N 
ATOM     28  C   ASP J 604      -1.863  18.432  69.004  1.00 69.06 LIG 0.26  C 
ATOM     29 O    ASP J 604      -2.836  18.144  69.702  1.00 67.02 LIG-0.27  OA
ATOM     30 H    TRP J 605      -0.939  19.856  68.064  1.00 80.26 LIG 0.16  HD
BRANCH 28 31
ATOM     31  CA  ASP J 604      -0.822  17.372  68.650  1.00 80.57 LIG 0.41  C 
ATOM     32  N   ASP J 604      -0.594  17.335  67.209  1.00 92.85 LIG 0.61  N 
BRANCH 31 33
ATOM     33  CB  ASP J 604       0.489  17.638  69.392  1.00 75.75 LIG 0.16  C 
BRANCH 33 34
ATOM     34  CG  ASP J 604       0.356  17.470  70.893  1.00 69.63 LIG 0.17  C 
ATOM     35 OD1  ASP J 604      -0.705  16.995  71.350  1.00 75.49 LIG-0.65  OA
ATOM     36 OD2  ASP J 604       1.315  17.809  71.617  1.00 69.41 LIG-0.65  OA
ENDBRANCH 33 34
ENDBRANCH 31 33
ENDBRANCH 28 31
ENDBRANCH 1 27
TORSDOF 11
ENDMDL
MODEL 8
USER: ADFR SOLUTION from run 87
USER: SCORE 12.815246 LL:  -1.486 LR: -12.506 RR:   0.000 FEB:  -9.225
USER: RMSD 7.750378
USER: SEED 86
USER: STATUS no improvement in best in 11 clusters for 5 generations
USER: GENES 13
USER: genes 0 Translation |==|  0.50645 0.41103 0.26572
USER: genes 1 Rotation |==|  0.23153 0.55632 0.82265 0.76580
USER: genes 2 Torsion [C]-CA--CB-[CG] |==|  0.31210
USER: genes 3 Torsion [CA]-CB--CG-[CD2] |==|  0.29127
USER: genes 4 Torsion [N]-CA--C-[N] |==|  0.73333
USER: genes 5 Torsion [C]-N--CA-[CB] |==|  0.12094
USER: genes 6 Torsion [N]-CA--C-[O] |==|  0.43509
USER: genes 7 Torsion [N]-CA--CB-[CG] |==|  0.21148
USER: genes 8 Torsion [CA]-CB--CG-[ND2] |==|  0.86478
USER: genes 9 Torsion [CB]-CA--N-[C] |==|  0.81483
USER: genes 10 Torsion [N]-C--CA-[N] |==|  0.01280
USER: genes 11 Torsion [C]-CA--CB-[CG] |==|  0.30517
USER: genes 12 Torsion [CA]-CB--CG-[OD1] |==|  0.97703
ROOT
ATOM      1  CA  TRP J 605      -3.099  19.723  66.447  1.00 71.61 LIG 0.18  C 
ENDROOT
BRANCH 1 2
ATOM      2  CB  TRP J 605      -4.524  19.561  66.989  1.00 65.14 LIG 0.07  C 
BRANCH 2 3
ATOM      3  CG  TRP J 605      -5.568  19.395  65.924  1.00 62.37 LIG-0.03  A 
ATOM      4  CD2 TRP J 605      -6.234  18.181  65.559  1.00 57.80 LIG-0.00  A 
ATOM      5  CE3 TRP J 605      -6.153  16.858  66.004  1.00 58.94 LIG 0.01  A 
ATOM      6  CE2 TRP J 605      -7.137  18.494  64.523  1.00 56.30 LIG 0.04  A 
ATOM      7  CZ3 TRP J 605      -6.962  15.906  65.412  1.00 59.47 LIG 0.00  A 
ATOM      8  CH2 TRP J 605      -7.850  16.249  64.384  1.00 55.92 LIG 0.00  A 
ATOM      9  CZ2 TRP J 605      -7.952  17.534  63.928  1.00 56.02 LIG 0.03  A 
ATOM     10  NE1 TRP J 605      -7.026  19.837  64.274  1.00 57.88 LIG-0.36  N 
ATOM     11  CD1 TRP J 605      -6.085  20.370  65.120  1.00 63.10 LIG 0.10  A 
ATOM     12 HE1  TRP J 605      -7.473  20.275  63.685  1.00 57.88 LIG 0.17  HD
ENDBRANCH 2 3
ENDBRANCH 1 2
BRANCH 1 13
ATOM     13  C   TRP J 605      -2.591  21.138  66.731  1.00 60.32 LIG 0.24  C 
ATOM     14  N   ASN J 606      -3.113  21.736  67.800  1.00 74.38 LIG-0.34  N 
ATOM     15 H    ASN J 606      -3.747  21.392  68.269  1.00 74.38 LIG 0.16  HD
ATOM     16 O    TRP J 605      -1.749  21.664  66.004  1.00 56.87 LIG-0.27  OA
BRANCH 14 17
ATOM     17  CA  ASN J 606      -2.663  23.041  68.289  1.00 65.98 LIG 0.19  C 
BRANCH 17 18
ATOM     18  C   ASN J 606      -3.589  23.671  69.324  1.00 66.37 LIG 0.20  C 
ATOM     19 O    ASN J 606      -3.174  24.511  70.121  1.00 70.67 LIG-0.65  OA
ATOM     20 OXT  ASN J 606      -4.781  23.362  69.375  1.00 61.82 LIG-0.65  OA
ENDBRANCH 17 18
BRANCH 17 21
ATOM     21  CB  ASN J 606      -2.474  24.000  67.113  1.00 63.43 LIG 0.14  C 
BRANCH 21 22
ATOM     22  CG  ASN J 606      -3.794  24.525  66.573  1.00 67.06 LIG 0.22  C 
ATOM     23  ND2 ASN J 606      -4.737  23.622  66.332  1.00 58.48 LIG-0.37  N 
ATOM     24 22HD ASN J 606      -4.583  22.789  66.484  1.00 58.48 LIG 0.16  HD
ATOM     25 21HD ASN J 606      -5.500  23.869  66.025  1.00 58.48 LIG 0.16  HD
ATOM     26 OD1  ASN J 606      -3.960  25.728  66.374  1.00 73.16 LIG-0.27  OA
ENDBRANCH 21 22
ENDBRANCH 17 21
ENDBRANCH 14 17
ENDBRANCH 1 13
BRANCH 1 27
ATOM     27  N   TRP J 605      -2.225  18.679  66.988  1.00 80.26 LIG-0.34  N 
ATOM     28  C   ASP J 604      -1.894  18.593  68.275  1.00 69.06 LIG 0.26  C 
ATOM     29 O    ASP J 604      -2.245  19.413  69.125  1.00 67.02 LIG-0.27  OA
ATOM     30 H    TRP J 605      -1.944  18.124  66.394  1.00 80.26 LIG 0.16  HD
BRANCH 28 31
ATOM     31  CA  ASP J 604      -1.029  17.396  68.666  1.00 80.57 LIG 0.41  C 
ATOM     32  N   ASP J 604      -0.647  16.629  67.485  1.00 92.85 LIG 0.61  N 
BRANCH 31 33
ATOM     33  CB  ASP J 604       0.214  17.859  69.427  1.00 75.75 LIG 0.16  C 
BRANCH 33 34
ATOM     34  CG  ASP J 604       0.177  17.481  70.896  1.00 69.63 LIG 0.17  C 
ATOM     35 OD1  ASP J 604      -0.877  16.999  71.361  1.00 75.49 LIG-0.65  OA
ATOM     36 OD2  ASP J 604       1.203  17.663  71.583  1.00 69.41 LIG-0.65  OA
ENDBRANCH 33 34
ENDBRANCH 31 33
ENDBRANCH 28 31
ENDBRANCH 1 27
TORSDOF 11
ENDMDL
MODEL 9
USER: ADFR SOLUTION from run 142
USER: SCORE 12.551507 LL:  -1.869 LR: -12.387 RR:   0.000 FEB:  -9.105
USER: RMSD 2.826728
USER: SEED 141
USER: STATUS no improvement in best in 10 clusters for 5 generations
USER: GENES 13
USER: genes 0 Translation |==|  0.49399 0.56796 0.47855
USER: genes 1 Rotation |==|  0.63547 0.55713 0.63221 0.95924
USER: genes 2 Torsion [C]-CA--CB-[CG] |==|  0.22441
USER: genes 3 Torsion [CA]-CB--CG-[CD2] |==|  0.40077
USER: genes 4 Torsion [N]-CA--C-[N] |==|  0.78998
USER: genes 5 Torsion [C]-N--CA-[CB] |==|  0.17190
USER: genes 6 Torsion [N]-CA--C-[O] |==|  0.19611
USER: genes 7 Torsion [N]-CA--CB-[CG] |==|  0.54663
USER: genes 8 Torsion [CA]-CB--CG-[ND2] |==|  0.29401
USER: genes 9 Torsion [CB]-CA--N-[C] |==|  0.34060
USER: genes 10 Torsion [N]-C--CA-[N] |==|  0.08678
USER: genes 11 Torsion [C]-CA--CB-[CG] |==|  0.81720
USER: genes 12 Torsion [CA]-CB--CG-[OD1] |==|  0.95636
ROOT
ATOM      1  CA  TRP J 605      -3.314  22.194  70.118  1.00 71.61 LIG 0.18  C 
ENDROOT
BRANCH 1 2
ATOM      2  CB  TRP J 605      -4.020  22.095  71.476  1.00 65.14 LIG 0.07  C 
BRANCH 2 3
ATOM      3  CG  TRP J 605      -3.470  23.021  72.520  1.00 62.37 LIG-0.03  A 
ATOM      4  CD2 TRP J 605      -4.213  23.700  73.539  1.00 57.80 LIG-0.00  A 
ATOM      5  CE3 TRP J 605      -5.567  23.749  73.883  1.00 58.94 LIG 0.01  A 
ATOM      6  CE2 TRP J 605      -3.292  24.451  74.297  1.00 56.30 LIG 0.04  A 
ATOM      7  CZ3 TRP J 605      -5.953  24.533  74.955  1.00 59.47 LIG 0.00  A 
ATOM      8  CH2 TRP J 605      -5.013  25.268  75.690  1.00 55.92 LIG 0.00  A 
ATOM      9  CZ2 TRP J 605      -3.683  25.239  75.377  1.00 56.02 LIG 0.03  A 
ATOM     10  NE1 TRP J 605      -2.049  24.234  73.765  1.00 57.88 LIG-0.36  N 
ATOM     11  CD1 TRP J 605      -2.164  23.374  72.701  1.00 63.10 LIG 0.10  A 
ATOM     12 HE1  TRP J 605      -1.315  24.580  74.050  1.00 57.88 LIG 0.17  HD
ENDBRANCH 2 3
ENDBRANCH 1 2
BRANCH 1 13
ATOM     13  C   TRP J 605      -2.014  21.387  70.147  1.00 60.32 LIG 0.24  C 
ATOM     14  N   ASN J 606      -2.111  20.151  70.632  1.00 74.38 LIG-0.34  N 
ATOM     15 H    ASN J 606      -2.833  19.836  70.976  1.00 74.38 LIG 0.16  HD
ATOM     16 O    TRP J 605      -0.960  21.874  69.737  1.00 56.87 LIG-0.27  OA
BRANCH 14 17
ATOM     17  CA  ASN J 606      -0.998  19.199  70.629  1.00 65.98 LIG 0.19  C 
BRANCH 17 18
ATOM     18  C   ASN J 606      -1.374  17.801  71.110  1.00 66.37 LIG 0.20  C 
ATOM     19 O    ASN J 606      -2.084  17.064  70.429  1.00 70.67 LIG-0.65  OA
ATOM     20 OXT  ASN J 606      -0.960  17.374  72.189  1.00 61.82 LIG-0.65  OA
ENDBRANCH 17 18
BRANCH 17 21
ATOM     21  CB  ASN J 606       0.154  19.744  71.474  1.00 63.43 LIG 0.14  C 
BRANCH 21 22
ATOM     22  CG  ASN J 606       1.466  19.030  71.196  1.00 67.06 LIG 0.22  C 
ATOM     23  ND2 ASN J 606       2.367  19.700  70.488  1.00 58.48 LIG-0.37  N 
ATOM     24 22HD ASN J 606       2.192  20.497  70.213  1.00 58.48 LIG 0.16  HD
ATOM     25 21HD ASN J 606       3.125  19.339  70.304  1.00 58.48 LIG 0.16  HD
ATOM     26 OD1  ASN J 606       1.664  17.889  71.613  1.00 73.16 LIG-0.27  OA
ENDBRANCH 21 22
ENDBRANCH 17 21
ENDBRANCH 14 17
ENDBRANCH 1 13
BRANCH 1 27
ATOM     27  N   TRP J 605      -4.219  21.788  69.040  1.00 80.26 LIG-0.34  N 
ATOM     28  C   ASP J 604      -4.534  22.571  68.011  1.00 69.06 LIG 0.26  C 
ATOM     29 O    ASP J 604      -4.140  23.732  67.893  1.00 67.02 LIG-0.27  OA
ATOM     30 H    TRP J 605      -4.530  20.991  69.135  1.00 80.26 LIG 0.16  HD
BRANCH 28 31
ATOM     31  CA  ASP J 604      -5.439  21.950  66.948  1.00 80.57 LIG 0.41  C 
ATOM     32  N   ASP J 604      -6.344  20.976  67.548  1.00 92.85 LIG 0.61  N 
BRANCH 31 33
ATOM     33  CB  ASP J 604      -6.231  23.036  66.218  1.00 75.75 LIG 0.16  C 
BRANCH 33 34
ATOM     34  CG  ASP J 604      -7.220  23.747  67.121  1.00 69.63 LIG 0.17  C 
ATOM     35 OD1  ASP J 604      -7.513  23.222  68.216  1.00 75.49 LIG-0.65  OA
ATOM     36 OD2  ASP J 604      -7.702  24.834  66.738  1.00 69.41 LIG-0.65  OA
ENDBRANCH 33 34
ENDBRANCH 31 33
ENDBRANCH 28 31
ENDBRANCH 1 27
TORSDOF 11
ENDMDL
MODEL 10
USER: ADFR SOLUTION from run 80
USER: SCORE 13.155650 LL:  -2.110 LR: -12.298 RR:   0.000 FEB:  -9.016
USER: RMSD 4.992180
USER: SEED 79
USER: STATUS no improvement in best in 19 clusters for 5 generations
USER: GENES 13
USER: genes 0 Translation |==|  0.50390 0.46698 0.50424
USER: genes 1 Rotation |==|  0.47855 0.86541 0.83702 0.54934
USER: genes 2 Torsion [C]-CA--CB-[CG] |==|  0.18183
USER: genes 3 Torsion [CA]-CB--CG-[CD2] |==|  0.48071
USER: genes 4 Torsion [N]-CA--C-[N] |==|  0.83117
USER: genes 5 Torsion [C]-N--CA-[CB] |==|  0.83628
USER: genes 6 Torsion [N]-CA--C-[O] |==|  0.56461
USER: genes 7 Torsion [N]-CA--CB-[CG] |==|  0.87353
USER: genes 8 Torsion [CA]-CB--CG-[ND2] |==|  0.41861
USER: genes 9 Torsion [CB]-CA--N-[C] |==|  0.50459
USER: genes 10 Torsion [N]-C--CA-[N] |==|  0.59981
USER: genes 11 Torsion [C]-CA--CB-[CG] |==|  0.27122
USER: genes 12 Torsion [CA]-CB--CG-[OD1] |==|  0.97174
ROOT
ATOM      1  CA  TRP J 605      -3.143  20.604  70.561  1.00 71.61 LIG 0.18  C 
ENDROOT
BRANCH 1 2
ATOM      2  CB  TRP J 605      -2.540  21.550  71.607  1.00 65.14 LIG 0.07  C 
BRANCH 2 3
ATOM      3  CG  TRP J 605      -3.491  22.598  72.105  1.00 62.37 LIG-0.03  A 
ATOM      4  CD2 TRP J 605      -3.262  23.524  73.172  1.00 57.80 LIG-0.00  A 
ATOM      5  CE3 TRP J 605      -2.195  23.755  74.045  1.00 58.94 LIG 0.01  A 
ATOM      6  CE2 TRP J 605      -4.417  24.324  73.286  1.00 56.30 LIG 0.04  A 
ATOM      7  CZ3 TRP J 605      -2.312  24.760  74.988  1.00 59.47 LIG 0.00  A 
ATOM      8  CH2 TRP J 605      -3.474  25.538  75.076  1.00 55.92 LIG 0.00  A 
ATOM      9  CZ2 TRP J 605      -4.533  25.336  74.236  1.00 56.02 LIG 0.03  A 
ATOM     10  NE1 TRP J 605      -5.303  23.904  72.329  1.00 57.88 LIG-0.36  N 
ATOM     11  CD1 TRP J 605      -4.740  22.870  71.624  1.00 63.10 LIG 0.10  A 
ATOM     12 HE1  TRP J 605      -6.086  24.234  72.193  1.00 57.88 LIG 0.17  HD
ENDBRANCH 2 3
ENDBRANCH 1 2
BRANCH 1 13
ATOM     13  C   TRP J 605      -3.478  21.382  69.288  1.00 60.32 LIG 0.24  C 
ATOM     14  N   ASN J 606      -2.444  21.931  68.654  1.00 74.38 LIG-0.34  N 
ATOM     15 H    ASN J 606      -1.642  21.918  68.965  1.00 74.38 LIG 0.16  HD
ATOM     16 O    TRP J 605      -4.641  21.476  68.893  1.00 56.87 LIG-0.27  OA
BRANCH 14 17
ATOM     17  CA  ASN J 606      -2.563  22.611  67.363  1.00 65.98 LIG 0.19  C 
BRANCH 17 18
ATOM     18  C   ASN J 606      -3.410  23.879  67.404  1.00 66.37 LIG 0.20  C 
ATOM     19 O    ASN J 606      -3.948  24.317  66.389  1.00 70.67 LIG-0.65  OA
ATOM     20 OXT  ASN J 606      -3.585  24.487  68.461  1.00 61.82 LIG-0.65  OA
ENDBRANCH 17 18
BRANCH 17 21
ATOM     21  CB  ASN J 606      -3.125  21.648  66.317  1.00 63.43 LIG 0.14  C 
BRANCH 21 22
ATOM     22  CG  ASN J 606      -2.454  20.286  66.361  1.00 67.06 LIG 0.22  C 
ATOM     23  ND2 ASN J 606      -3.191  19.250  65.981  1.00 58.48 LIG-0.37  N 
ATOM     24 22HD ASN J 606      -4.004  19.371  65.726  1.00 58.48 LIG 0.16  HD
ATOM     25 21HD ASN J 606      -2.857  18.458  65.989  1.00 58.48 LIG 0.16  HD
ATOM     26 OD1  ASN J 606      -1.286  20.169  66.734  1.00 73.16 LIG-0.27  OA
ENDBRANCH 21 22
ENDBRANCH 17 21
ENDBRANCH 14 17
ENDBRANCH 1 13
BRANCH 1 27
ATOM     27  N   TRP J 605      -2.248  19.469  70.322  1.00 80.26 LIG-0.34  N 
ATOM     28  C   ASP J 604      -2.503  18.506  69.439  1.00 69.06 LIG 0.26  C 
ATOM     29 O    ASP J 604      -3.540  18.446  68.778  1.00 67.02 LIG-0.27  OA
ATOM     30 H    TRP J 605      -1.538  19.483  70.808  1.00 80.26 LIG 0.16  HD
BRANCH 28 31
ATOM     31  CA  ASP J 604      -1.420  17.441  69.278  1.00 80.57 LIG 0.41  C 
ATOM     32  N   ASP J 604      -1.328  17.005  67.888  1.00 92.85 LIG 0.61  N 
BRANCH 31 33
ATOM     33  CB  ASP J 604      -0.069  17.973  69.760  1.00 75.75 LIG 0.16  C 
BRANCH 33 34
ATOM     34  CG  ASP J 604       0.256  17.545  71.179  1.00 69.63 LIG 0.17  C 
ATOM     35 OD1  ASP J 604      -0.640  17.001  71.858  1.00 75.49 LIG-0.65  OA
ATOM     36 OD2  ASP J 604       1.408  17.749  71.613  1.00 69.41 LIG-0.65  OA
ENDBRANCH 33 34
ENDBRANCH 31 33
ENDBRANCH 28 31
ENDBRANCH 1 27
TORSDOF 11
ENDMDL
MODEL 11
USER: ADFR SOLUTION from run 20
USER: SCORE 13.436267 LL:  -1.512 LR: -12.282 RR:   0.000 FEB:  -9.001
USER: RMSD 2.379142
USER: SEED 19
USER: STATUS no improvement in best in 14 clusters for 5 generations
USER: GENES 13
USER: genes 0 Translation |==|  0.51027 0.52460 0.48356
USER: genes 1 Rotation |==|  0.56073 0.46240 0.54297 0.99300
USER: genes 2 Torsion [C]-CA--CB-[CG] |==|  0.20599
USER: genes 3 Torsion [CA]-CB--CG-[CD2] |==|  0.48974
USER: genes 4 Torsion [N]-CA--C-[N] |==|  0.16840
USER: genes 5 Torsion [C]-N--CA-[CB] |==|  0.81218
USER: genes 6 Torsion [N]-CA--C-[O] |==|  0.63765
USER: genes 7 Torsion [N]-CA--CB-[CG] |==|  0.75682
USER: genes 8 Torsion [CA]-CB--CG-[ND2] |==|  0.35230
USER: genes 9 Torsion [CB]-CA--N-[C] |==|  0.15276
USER: genes 10 Torsion [N]-C--CA-[N] |==|  0.38762
USER: genes 11 Torsion [C]-CA--CB-[CG] |==|  0.05494
USER: genes 12 Torsion [CA]-CB--CG-[OD1] |==|  0.29405
ROOT
ATOM      1  CA  TRP J 605      -3.033  21.511  70.204  1.00 71.61 LIG 0.18  C 
ENDROOT
BRANCH 1 2
ATOM      2  CB  TRP J 605      -4.050  22.111  71.183  1.00 65.14 LIG 0.07  C 
BRANCH 2 3
ATOM      3  CG  TRP J 605      -3.433  22.922  72.285  1.00 62.37 LIG-0.03  A 
ATOM      4  CD2 TRP J 605      -4.127  23.659  73.297  1.00 57.80 LIG-0.00  A 
ATOM      5  CE3 TRP J 605      -5.479  23.877  73.585  1.00 58.94 LIG 0.01  A 
ATOM      6  CE2 TRP J 605      -3.153  24.257  74.122  1.00 56.30 LIG 0.04  A 
ATOM      7  CZ3 TRP J 605      -5.808  24.669  74.670  1.00 59.47 LIG 0.00  A 
ATOM      8  CH2 TRP J 605      -4.816  25.249  75.471  1.00 55.92 LIG 0.00  A 
ATOM      9  CZ2 TRP J 605      -3.487  25.055  75.214  1.00 56.02 LIG 0.03  A 
ATOM     10  NE1 TRP J 605      -1.925  23.895  73.634  1.00 57.88 LIG-0.36  N 
ATOM     11  CD1 TRP J 605      -2.102  23.093  72.534  1.00 63.10 LIG 0.10  A 
ATOM     12 HE1  TRP J 605      -1.166  24.131  73.963  1.00 57.88 LIG 0.17  HD
ENDBRANCH 2 3
ENDBRANCH 1 2
BRANCH 1 13
ATOM     13  C   TRP J 605      -2.308  20.336  70.863  1.00 60.32 LIG 0.24  C 
ATOM     14  N   ASN J 606      -1.329  19.785  70.148  1.00 74.38 LIG-0.34  N 
ATOM     15 H    ASN J 606      -1.152  20.015  69.338  1.00 74.38 LIG 0.16  HD
ATOM     16 O    TRP J 605      -2.626  19.949  71.988  1.00 56.87 LIG-0.27  OA
BRANCH 14 17
ATOM     17  CA  ASN J 606      -0.455  18.729  70.664  1.00 65.98 LIG 0.19  C 
BRANCH 17 18
ATOM     18  C   ASN J 606      -1.199  17.498  71.171  1.00 66.37 LIG 0.20  C 
ATOM     19 O    ASN J 606      -0.953  17.017  72.275  1.00 70.67 LIG-0.65  OA
ATOM     20 OXT  ASN J 606      -2.075  16.965  70.488  1.00 61.82 LIG-0.65  OA
ENDBRANCH 17 18
BRANCH 17 21
ATOM     21  CB  ASN J 606       0.436  19.288  71.774  1.00 63.43 LIG 0.14  C 
BRANCH 21 22
ATOM     22  CG  ASN J 606       1.721  19.894  71.237  1.00 67.06 LIG 0.22  C 
ATOM     23  ND2 ASN J 606       1.992  21.138  71.613  1.00 58.48 LIG-0.37  N 
ATOM     24 22HD ASN J 606       1.451  21.557  72.135  1.00 58.48 LIG 0.16  HD
ATOM     25 21HD ASN J 606       2.707  21.525  71.335  1.00 58.48 LIG 0.16  HD
ATOM     26 OD1  ASN J 606       2.460  19.249  70.493  1.00 73.16 LIG-0.27  OA
ENDBRANCH 21 22
ENDBRANCH 17 21
ENDBRANCH 14 17
ENDBRANCH 1 13
BRANCH 1 27
ATOM     27  N   TRP J 605      -3.688  21.150  68.945  1.00 80.26 LIG-0.34  N 
ATOM     28  C   ASP J 604      -4.400  22.007  68.215  1.00 69.06 LIG 0.26  C 
ATOM     29 O    ASP J 604      -4.623  23.169  68.555  1.00 67.02 LIG-0.27  OA
ATOM     30 H    TRP J 605      -3.570  20.328  68.720  1.00 80.26 LIG 0.16  HD
BRANCH 28 31
ATOM     31  CA  ASP J 604      -4.951  21.467  66.897  1.00 80.57 LIG 0.41  C 
ATOM     32  N   ASP J 604      -6.310  21.947  66.670  1.00 92.85 LIG 0.61  N 
BRANCH 31 33
ATOM     33  CB  ASP J 604      -4.042  21.868  65.733  1.00 75.75 LIG 0.16  C 
BRANCH 33 34
ATOM     34  CG  ASP J 604      -2.645  22.249  66.185  1.00 69.63 LIG 0.17  C 
ATOM     35 OD1  ASP J 604      -1.710  21.449  65.972  1.00 75.49 LIG-0.65  OA
ATOM     36 OD2  ASP J 604      -2.482  23.351  66.748  1.00 69.41 LIG-0.65  OA
ENDBRANCH 33 34
ENDBRANCH 31 33
ENDBRANCH 28 31
ENDBRANCH 1 27
TORSDOF 11
ENDMDL
MODEL 12
USER: ADFR SOLUTION from run 15
USER: SCORE 13.642481 LL:  -2.246 LR: -12.271 RR:   0.000 FEB:  -8.989
USER: RMSD 5.144360
USER: SEED 367253
USER: STATUS no improvement in best in 15 clusters for 5 generations
USER: GENES 13
USER: genes 0 Translation |==|  0.48700 0.45480 0.52287
USER: genes 1 Rotation |==|  0.38456 0.08601 0.26007 0.58788
USER: genes 2 Torsion [C]-CA--CB-[CG] |==|  0.29730
USER: genes 3 Torsion [CA]-CB--CG-[CD2] |==|  0.84455
USER: genes 4 Torsion [N]-CA--C-[N] |==|  0.78958
USER: genes 5 Torsion [C]-N--CA-[CB] |==|  0.80217
USER: genes 6 Torsion [N]-CA--C-[O] |==|  0.58674
USER: genes 7 Torsion [N]-CA--CB-[CG] |==|  0.87455
USER: genes 8 Torsion [CA]-CB--CG-[ND2] |==|  0.70232
USER: genes 9 Torsion [CB]-CA--N-[C] |==|  0.87537
USER: genes 10 Torsion [N]-C--CA-[N] |==|  0.36071
USER: genes 11 Torsion [C]-CA--CB-[CG] |==|  0.21868
USER: genes 12 Torsion [CA]-CB--CG-[OD1] |==|  0.06213
ROOT
ATOM      1  CA  TRP J 605      -3.434  20.412  70.883  1.00 71.61 LIG 0.18  C 
ENDROOT
BRANCH 1 2
ATOM      2  CB  TRP J 605      -2.344  21.485  70.772  1.00 65.14 LIG 0.07  C 
BRANCH 2 3
ATOM      3  CG  TRP J 605      -2.202  22.341  71.996  1.00 62.37 LIG-0.03  A 
ATOM      4  CD2 TRP J 605      -3.231  23.112  72.626  1.00 57.80 LIG-0.00  A 
ATOM      5  CE3 TRP J 605      -4.585  23.331  72.353  1.00 58.94 LIG 0.01  A 
ATOM      6  CE2 TRP J 605      -2.653  23.746  73.744  1.00 56.30 LIG 0.04  A 
ATOM      7  CZ3 TRP J 605      -5.306  24.162  73.191  1.00 59.47 LIG 0.00  A 
ATOM      8  CH2 TRP J 605      -4.703  24.778  74.295  1.00 55.92 LIG 0.00  A 
ATOM      9  CZ2 TRP J 605      -3.381  24.583  74.587  1.00 56.02 LIG 0.03  A 
ATOM     10  NE1 TRP J 605      -1.335  23.374  73.791  1.00 57.88 LIG-0.36  N 
ATOM     11  CD1 TRP J 605      -1.073  22.530  72.740  1.00 63.10 LIG 0.10  A 
ATOM     12 HE1  TRP J 605      -0.764  23.628  74.382  1.00 57.88 LIG 0.17  HD
ENDBRANCH 2 3
ENDBRANCH 1 2
BRANCH 1 13
ATOM     13  C   TRP J 605      -4.636  20.800  70.019  1.00 60.32 LIG 0.24  C 
ATOM     14  N   ASN J 606      -4.357  21.182  68.775  1.00 74.38 LIG-0.34  N 
ATOM     15 H    ASN J 606      -3.553  21.278  68.482  1.00 74.38 LIG 0.16  HD
ATOM     16 O    TRP J 605      -5.780  20.749  70.471  1.00 56.87 LIG-0.27  OA
BRANCH 14 17
ATOM     17  CA  ASN J 606      -5.386  21.478  67.776  1.00 65.98 LIG 0.19  C 
BRANCH 17 18
ATOM     18  C   ASN J 606      -6.435  22.482  68.242  1.00 66.37 LIG 0.20  C 
ATOM     19 O    ASN J 606      -7.594  22.426  67.835  1.00 70.67 LIG-0.65  OA
ATOM     20 OXT  ASN J 606      -6.146  23.366  69.051  1.00 61.82 LIG-0.65  OA
ENDBRANCH 17 18
BRANCH 17 21
ATOM     21  CB  ASN J 606      -6.070  20.184  67.335  1.00 63.43 LIG 0.14  C 
BRANCH 21 22
ATOM     22  CG  ASN J 606      -5.078  19.067  67.056  1.00 67.06 LIG 0.22  C 
ATOM     23  ND2 ASN J 606      -4.885  18.750  65.782  1.00 58.48 LIG-0.37  N 
ATOM     24 22HD ASN J 606      -5.313  19.171  65.164  1.00 58.48 LIG 0.16  HD
ATOM     25 21HD ASN J 606      -4.335  18.124  65.573  1.00 58.48 LIG 0.16  HD
ATOM     26 OD1  ASN J 606      -4.493  18.498  67.978  1.00 73.16 LIG-0.27  OA
ENDBRANCH 21 22
ENDBRANCH 17 21
ENDBRANCH 14 17
ENDBRANCH 1 13
BRANCH 1 27
ATOM     27  N   TRP J 605      -2.889  19.094  70.549  1.00 80.26 LIG-0.34  N 
ATOM     28  C   ASP J 604      -2.097  18.870  69.502  1.00 69.06 LIG 0.26  C 
ATOM     29 O    ASP J 604      -1.791  19.737  68.682  1.00 67.02 LIG-0.27  OA
ATOM     30 H    TRP J 605      -3.129  18.474  71.095  1.00 80.26 LIG 0.16  HD
BRANCH 28 31
ATOM     31  CA  ASP J 604      -1.569  17.444  69.354  1.00 80.57 LIG 0.41  C 
ATOM     32  N   ASP J 604      -1.796  16.949  68.000  1.00 92.85 LIG 0.61  N 
BRANCH 31 33
ATOM     33  CB  ASP J 604      -0.080  17.386  69.701  1.00 75.75 LIG 0.16  C 
BRANCH 33 34
ATOM     34  CG  ASP J 604       0.172  17.379  71.197  1.00 69.63 LIG 0.17  C 
ATOM     35 OD1  ASP J 604      -0.744  16.999  71.955  1.00 75.49 LIG-0.65  OA
ATOM     36 OD2  ASP J 604       1.290  17.749  71.613  1.00 69.41 LIG-0.65  OA
ENDBRANCH 33 34
ENDBRANCH 31 33
ENDBRANCH 28 31
ENDBRANCH 1 27
TORSDOF 11
ENDMDL
MODEL 13
USER: ADFR SOLUTION from run 168
USER: SCORE 13.518390 LL:  -1.505 LR: -12.246 RR:   0.000 FEB:  -8.965
USER: RMSD 6.245280
USER: SEED 167
USER: STATUS no improvement in best in 11 clusters for 5 generations
USER: GENES 13
USER: genes 0 Translation |==|  0.62995 0.54225 0.53989
USER: genes 1 Rotation |==|  0.26787 0.21450 0.34995 0.80346
USER: genes 2 Torsion [C]-CA--CB-[CG] |==|  0.83922
USER: genes 3 Torsion [CA]-CB--CG-[CD2] |==|  0.79236
USER: genes 4 Torsion [N]-CA--C-[N] |==|  0.47222
USER: genes 5 Torsion [C]-N--CA-[CB] |==|  0.55056
USER: genes 6 Torsion [N]-CA--C-[O] |==|  0.90415
USER: genes 7 Torsion [N]-CA--CB-[CG] |==|  0.60527
USER: genes 8 Torsion [CA]-CB--CG-[ND2] |==|  0.40637
USER: genes 9 Torsion [CB]-CA--N-[C] |==|  0.53513
USER: genes 10 Torsion [N]-C--CA-[N] |==|  0.89649
USER: genes 11 Torsion [C]-CA--CB-[CG] |==|  0.10325
USER: genes 12 Torsion [CA]-CB--CG-[OD1] |==|  0.65105
ROOT
ATOM      1  CA  TRP J 605      -0.968  21.789  71.176  1.00 71.61 LIG 0.18  C 
ENDROOT
BRANCH 1 2
ATOM      2  CB  TRP J 605      -0.590  22.882  70.169  1.00 65.14 LIG 0.07  C 
BRANCH 2 3
ATOM      3  CG  TRP J 605      -1.684  23.230  69.204  1.00 62.37 LIG-0.03  A 
ATOM      4  CD2 TRP J 605      -2.119  22.451  68.084  1.00 57.80 LIG-0.00  A 
ATOM      5  CE3 TRP J 605      -1.717  21.228  67.538  1.00 58.94 LIG 0.01  A 
ATOM      6  CE2 TRP J 605      -3.173  23.156  67.469  1.00 56.30 LIG 0.04  A 
ATOM      7  CZ3 TRP J 605      -2.371  20.755  66.415  1.00 59.47 LIG 0.00  A 
ATOM      8  CH2 TRP J 605      -3.416  21.478  65.826  1.00 55.92 LIG 0.00  A 
ATOM      9  CZ2 TRP J 605      -3.830  22.677  66.337  1.00 56.02 LIG 0.03  A 
ATOM     10  NE1 TRP J 605      -3.371  24.307  68.185  1.00 57.88 LIG-0.36  N 
ATOM     11  CD1 TRP J 605      -2.476  24.343  69.225  1.00 63.10 LIG 0.10  A 
ATOM     12 HE1  TRP J 605      -3.960  24.909  68.011  1.00 57.88 LIG 0.17  HD
ENDBRANCH 2 3
ENDBRANCH 1 2
BRANCH 1 13
ATOM     13  C   TRP J 605      -2.200  22.222  71.974  1.00 60.32 LIG 0.24  C 
ATOM     14  N   ASN J 606      -2.031  23.269  72.779  1.00 74.38 LIG-0.34  N 
ATOM     15 H    ASN J 606      -1.268  23.644  72.907  1.00 74.38 LIG 0.16  HD
ATOM     16 O    TRP J 605      -3.270  21.624  71.855  1.00 56.87 LIG-0.27  OA
BRANCH 14 17
ATOM     17  CA  ASN J 606      -3.126  23.890  73.527  1.00 65.98 LIG 0.19  C 
BRANCH 17 18
ATOM     18  C   ASN J 606      -4.444  23.958  72.762  1.00 66.37 LIG 0.20  C 
ATOM     19 O    ASN J 606      -4.464  24.134  71.546  1.00 70.67 LIG-0.65  OA
ATOM     20 OXT  ASN J 606      -5.520  23.823  73.347  1.00 61.82 LIG-0.65  OA
ENDBRANCH 17 18
BRANCH 17 21
ATOM     21  CB  ASN J 606      -2.718  25.292  73.979  1.00 63.43 LIG 0.14  C 
BRANCH 21 22
ATOM     22  CG  ASN J 606      -3.234  25.630  75.367  1.00 67.06 LIG 0.22  C 
ATOM     23  ND2 ASN J 606      -2.460  26.406  76.115  1.00 58.48 LIG-0.37  N 
ATOM     24 22HD ASN J 606      -1.709  26.691  75.805  1.00 58.48 LIG 0.16  HD
ATOM     25 21HD ASN J 606      -2.708  26.624  76.908  1.00 58.48 LIG 0.16  HD
ATOM     26 OD1  ASN J 606      -4.317  25.195  75.760  1.00 73.16 LIG-0.27  OA
ENDBRANCH 21 22
ENDBRANCH 17 21
ENDBRANCH 14 17
ENDBRANCH 1 13
BRANCH 1 27
ATOM     27  N   TRP J 605      -1.147  20.506  70.494  1.00 80.26 LIG-0.34  N 
ATOM     28  C   ASP J 604      -1.708  19.442  71.066  1.00 69.06 LIG 0.26  C 
ATOM     29 O    ASP J 604      -2.081  19.417  72.239  1.00 67.02 LIG-0.27  OA
ATOM     30 H    TRP J 605      -0.853  20.502  69.685  1.00 80.26 LIG 0.16  HD
BRANCH 28 31
ATOM     31  CA  ASP J 604      -1.872  18.211  70.176  1.00 80.57 LIG 0.41  C 
ATOM     32  N   ASP J 604      -2.220  18.603  68.814  1.00 92.85 LIG 0.61  N 
BRANCH 31 33
ATOM     33  CB  ASP J 604      -0.592  17.373  70.179  1.00 75.75 LIG 0.16  C 
BRANCH 33 34
ATOM     34  CG  ASP J 604       0.085  17.343  71.536  1.00 69.63 LIG 0.17  C 
ATOM     35 OD1  ASP J 604       1.285  17.680  71.613  1.00 75.49 LIG-0.65  OA
ATOM     36 OD2  ASP J 604      -0.585  16.986  72.528  1.00 69.41 LIG-0.65  OA
ENDBRANCH 33 34
ENDBRANCH 31 33
ENDBRANCH 28 31
ENDBRANCH 1 27
TORSDOF 11
ENDMDL
MODEL 14
USER: ADFR SOLUTION from run 54
USER: SCORE 12.943651 LL:  -1.049 LR: -12.235 RR:   0.000 FEB:  -8.953
USER: RMSD 7.212197
USER: SEED 53
USER: STATUS no improvement in best in 6 clusters for 5 generations
USER: GENES 13
USER: genes 0 Translation |==|  0.46108 0.36720 0.31501
USER: genes 1 Rotation |==|  0.28364 0.35684 0.84132 0.75729
USER: genes 2 Torsion [C]-CA--CB-[CG] |==|  0.30202
USER: genes 3 Torsion [CA]-CB--CG-[CD2] |==|  0.95392
USER: genes 4 Torsion [N]-CA--C-[N] |==|  0.15560
USER: genes 5 Torsion [C]-N--CA-[CB] |==|  0.45891
USER: genes 6 Torsion [N]-CA--C-[O] |==|  0.29499
USER: genes 7 Torsion [N]-CA--CB-[CG] |==|  0.50902
USER: genes 8 Torsion [CA]-CB--CG-[ND2] |==|  0.34865
USER: genes 9 Torsion [CB]-CA--N-[C] |==|  0.76128
USER: genes 10 Torsion [N]-C--CA-[N] |==|  0.96900
USER: genes 11 Torsion [C]-CA--CB-[CG] |==|  0.25358
USER: genes 12 Torsion [CA]-CB--CG-[OD1] |==|  0.94825
ROOT
ATOM      1  CA  TRP J 605      -3.881  19.032  67.297  1.00 71.61 LIG 0.18  C 
ENDROOT
BRANCH 1 2
ATOM      2  CB  TRP J 605      -5.071  18.083  67.113  1.00 65.14 LIG 0.07  C 
BRANCH 2 3
ATOM      3  CG  TRP J 605      -5.852  18.317  65.854  1.00 62.37 LIG-0.03  A 
ATOM      4  CD2 TRP J 605      -5.812  19.485  65.027  1.00 57.80 LIG-0.00  A 
ATOM      5  CE3 TRP J 605      -5.118  20.698  65.092  1.00 58.94 LIG 0.01  A 
ATOM      6  CE2 TRP J 605      -6.695  19.266  63.950  1.00 56.30 LIG 0.04  A 
ATOM      7  CZ3 TRP J 605      -5.324  21.636  64.097  1.00 59.47 LIG 0.00  A 
ATOM      8  CH2 TRP J 605      -6.209  21.388  63.040  1.00 55.92 LIG 0.00  A 
ATOM      9  CZ2 TRP J 605      -6.901  20.213  62.949  1.00 56.02 LIG 0.03  A 
ATOM     10  NE1 TRP J 605      -7.242  18.021  64.116  1.00 57.88 LIG-0.36  N 
ATOM     11  CD1 TRP J 605      -6.730  17.458  65.258  1.00 63.10 LIG 0.10  A 
ATOM     12 HE1  TRP J 605      -7.814  17.652  63.590  1.00 57.88 LIG 0.17  HD
ENDBRANCH 2 3
ENDBRANCH 1 2
BRANCH 1 13
ATOM     13  C   TRP J 605      -4.178  20.026  68.421  1.00 60.32 LIG 0.24  C 
ATOM     14  N   ASN J 606      -3.217  20.909  68.683  1.00 74.38 LIG-0.34  N 
ATOM     15 H    ASN J 606      -2.445  20.890  68.304  1.00 74.38 LIG 0.16  HD
ATOM     16 O    TRP J 605      -5.250  19.993  69.027  1.00 56.87 LIG-0.27  OA
BRANCH 14 17
ATOM     17  CA  ASN J 606      -3.372  22.003  69.644  1.00 65.98 LIG 0.19  C 
BRANCH 17 18
ATOM     18  C   ASN J 606      -4.313  23.110  69.180  1.00 66.37 LIG 0.20  C 
ATOM     19 O    ASN J 606      -5.437  23.233  69.663  1.00 70.67 LIG-0.65  OA
ATOM     20 OXT  ASN J 606      -3.960  23.917  68.319  1.00 61.82 LIG-0.65  OA
ENDBRANCH 17 18
BRANCH 17 21
ATOM     21  CB  ASN J 606      -2.004  22.596  69.983  1.00 63.43 LIG 0.14  C 
BRANCH 21 22
ATOM     22  CG  ASN J 606      -2.088  23.687  71.037  1.00 67.06 LIG 0.22  C 
ATOM     23  ND2 ASN J 606      -1.322  23.534  72.110  1.00 58.48 LIG-0.37  N 
ATOM     24 22HD ASN J 606      -0.811  22.845  72.180  1.00 58.48 LIG 0.16  HD
ATOM     25 21HD ASN J 606      -1.335  24.124  72.735  1.00 58.48 LIG 0.16  HD
ATOM     26 OD1  ASN J 606      -2.836  24.653  70.887  1.00 73.16 LIG-0.27  OA
ENDBRANCH 21 22
ENDBRANCH 17 21
ENDBRANCH 14 17
ENDBRANCH 1 13
BRANCH 1 27
ATOM     27  N   TRP J 605      -2.649  18.271  67.513  1.00 80.26 LIG-0.34  N 
ATOM     28  C   ASP J 604      -2.253  17.838  68.709  1.00 69.06 LIG 0.26  C 
ATOM     29 O    ASP J 604      -2.856  18.083  69.755  1.00 67.02 LIG-0.27  OA
ATOM     30 H    TRP J 605      -2.202  18.128  66.793  1.00 80.26 LIG 0.16  HD
BRANCH 28 31
ATOM     31  CA  ASP J 604      -0.976  17.000  68.730  1.00 80.57 LIG 0.41  C 
ATOM     32  N   ASP J 604      -0.585  16.624  67.375  1.00 92.85 LIG 0.61  N 
BRANCH 31 33
ATOM     33  CB  ASP J 604       0.155  17.765  69.419  1.00 75.75 LIG 0.16  C 
BRANCH 33 34
ATOM     34  CG  ASP J 604       0.229  17.485  70.908  1.00 69.63 LIG 0.17  C 
ATOM     35 OD1  ASP J 604      -0.773  16.999  71.474  1.00 75.49 LIG-0.65  OA
ATOM     36 OD2  ASP J 604       1.290  17.748  71.511  1.00 69.41 LIG-0.65  OA
ENDBRANCH 33 34
ENDBRANCH 31 33
ENDBRANCH 28 31
ENDBRANCH 1 27
TORSDOF 11
ENDMDL
MODEL 15
USER: ADFR SOLUTION from run 17
USER: SCORE 13.015195 LL:  -1.663 LR: -12.225 RR:   0.000 FEB:  -8.943
USER: RMSD 7.013165
USER: SEED 16
USER: STATUS no improvement in best in 11 clusters for 5 generations
USER: GENES 13
USER: genes 0 Translation |==|  0.57634 0.66472 0.58364
USER: genes 1 Rotation |==|  0.89001 0.67813 0.34421 0.70467
USER: genes 2 Torsion [C]-CA--CB-[CG] |==|  0.24051
USER: genes 3 Torsion [CA]-CB--CG-[CD2] |==|  0.60884
USER: genes 4 Torsion [N]-CA--C-[N] |==|  0.59890
USER: genes 5 Torsion [C]-N--CA-[CB] |==|  0.80814
USER: genes 6 Torsion [N]-CA--C-[O] |==|  0.76427
USER: genes 7 Torsion [N]-CA--CB-[CG] |==|  0.87912
USER: genes 8 Torsion [CA]-CB--CG-[ND2] |==|  0.79472
USER: genes 9 Torsion [CB]-CA--N-[C] |==|  0.11116
USER: genes 10 Torsion [N]-C--CA-[N] |==|  0.76079
USER: genes 11 Torsion [C]-CA--CB-[CG] |==|  0.14497
USER: genes 12 Torsion [CA]-CB--CG-[OD1] |==|  0.63180
ROOT
ATOM      1  CA  TRP J 605      -1.893  23.718  71.931  1.00 71.61 LIG 0.18  C 
ENDROOT
BRANCH 1 2
ATOM      2  CB  TRP J 605      -1.677  22.303  72.481  1.00 65.14 LIG 0.07  C 
BRANCH 2 3
ATOM      3  CG  TRP J 605      -0.415  21.647  72.002  1.00 62.37 LIG-0.03  A 
ATOM      4  CD2 TRP J 605      -0.250  20.272  71.638  1.00 57.80 LIG-0.00  A 
ATOM      5  CE3 TRP J 605      -1.105  19.165  71.610  1.00 58.94 LIG 0.01  A 
ATOM      6  CE2 TRP J 605       1.092  20.103  71.242  1.00 56.30 LIG 0.04  A 
ATOM      7  CZ3 TRP J 605      -0.601  17.947  71.195  1.00 59.47 LIG 0.00  A 
ATOM      8  CH2 TRP J 605       0.738  17.811  70.807  1.00 55.92 LIG 0.00  A 
ATOM      9  CZ2 TRP J 605       1.597  18.874  70.823  1.00 56.02 LIG 0.03  A 
ATOM     10  NE1 TRP J 605       1.710  21.320  71.357  1.00 57.88 LIG-0.36  N 
ATOM     11  CD1 TRP J 605       0.799  22.241  71.812  1.00 63.10 LIG 0.10  A 
ATOM     12 HE1  TRP J 605       2.535  21.482  71.175  1.00 57.88 LIG 0.17  HD
ENDBRANCH 2 3
ENDBRANCH 1 2
BRANCH 1 13
ATOM     13  C   TRP J 605      -2.602  23.648  70.577  1.00 60.32 LIG 0.24  C 
ATOM     14  N   ASN J 606      -2.519  22.482  69.939  1.00 74.38 LIG-0.34  N 
ATOM     15 H    ASN J 606      -2.041  21.825  70.222  1.00 74.38 LIG 0.16  HD
ATOM     16 O    TRP J 605      -3.210  24.621  70.131  1.00 56.87 LIG-0.27  OA
BRANCH 14 17
ATOM     17  CA  ASN J 606      -3.229  22.197  68.691  1.00 65.98 LIG 0.19  C 
BRANCH 17 18
ATOM     18  C   ASN J 606      -2.962  23.206  67.578  1.00 66.37 LIG 0.20  C 
ATOM     19 O    ASN J 606      -3.602  24.253  67.501  1.00 70.67 LIG-0.65  OA
ATOM     20 OXT  ASN J 606      -2.085  22.999  66.738  1.00 61.82 LIG-0.65  OA
ENDBRANCH 17 18
BRANCH 17 21
ATOM     21  CB  ASN J 606      -4.733  22.109  68.957  1.00 63.43 LIG 0.14  C 
BRANCH 21 22
ATOM     22  CG  ASN J 606      -5.056  21.316  70.212  1.00 67.06 LIG 0.22  C 
ATOM     23  ND2 ASN J 606      -4.913  19.999  70.134  1.00 58.48 LIG-0.37  N 
ATOM     24 22HD ASN J 606      -4.649  19.638  69.399  1.00 58.48 LIG 0.16  HD
ATOM     25 21HD ASN J 606      -5.085  19.507  70.818  1.00 58.48 LIG 0.16  HD
ATOM     26 OD1  ASN J 606      -5.430  21.885  71.238  1.00 73.16 LIG-0.27  OA
ENDBRANCH 21 22
ENDBRANCH 17 21
ENDBRANCH 14 17
ENDBRANCH 1 13
BRANCH 1 27
ATOM     27  N   TRP J 605      -2.604  24.544  72.910  1.00 80.26 LIG-0.34  N 
ATOM     28  C   ASP J 604      -2.362  24.502  74.219  1.00 69.06 LIG 0.26  C 
ATOM     29 O    ASP J 604      -1.557  23.728  74.739  1.00 67.02 LIG-0.27  OA
ATOM     30 H    TRP J 605      -3.196  25.060  72.560  1.00 80.26 LIG 0.16  HD
BRANCH 28 31
ATOM     31  CA  ASP J 604      -3.155  25.486  75.078  1.00 80.57 LIG 0.41  C 
ATOM     32  N   ASP J 604      -2.478  26.778  75.139  1.00 92.85 LIG 0.61  N 
BRANCH 31 33
ATOM     33  CB  ASP J 604      -4.574  25.652  74.532  1.00 75.75 LIG 0.16  C 
BRANCH 33 34
ATOM     34  CG  ASP J 604      -5.283  24.326  74.332  1.00 69.63 LIG 0.17  C 
ATOM     35 OD1  ASP J 604      -5.877  24.124  73.252  1.00 75.49 LIG-0.65  OA
ATOM     36 OD2  ASP J 604      -5.244  23.485  75.254  1.00 69.41 LIG-0.65  OA
ENDBRANCH 33 34
ENDBRANCH 31 33
ENDBRANCH 28 31
ENDBRANCH 1 27
TORSDOF 11
ENDMDL
MODEL 16
USER: ADFR SOLUTION from run 106
USER: SCORE 13.430068 LL:  -2.047 LR: -12.173 RR:   0.000 FEB:  -8.892
USER: RMSD 6.528062
USER: SEED 105
USER: STATUS no improvement in best in 10 clusters for 5 generations
USER: GENES 13
USER: genes 0 Translation |==|  0.52989 0.45374 0.42414
USER: genes 1 Rotation |==|  0.34217 0.91571 0.28341 0.57325
USER: genes 2 Torsion [C]-CA--CB-[CG] |==|  0.28589
USER: genes 3 Torsion [CA]-CB--CG-[CD2] |==|  0.88597
USER: genes 4 Torsion [N]-CA--C-[N] |==|  0.77978
USER: genes 5 Torsion [C]-N--CA-[CB] |==|  0.40503
USER: genes 6 Torsion [N]-CA--C-[O] |==|  0.25165
USER: genes 7 Torsion [N]-CA--CB-[CG] |==|  0.07753
USER: genes 8 Torsion [CA]-CB--CG-[ND2] |==|  0.78250
USER: genes 9 Torsion [CB]-CA--N-[C] |==|  0.57778
USER: genes 10 Torsion [N]-C--CA-[N] |==|  0.89576
USER: genes 11 Torsion [C]-CA--CB-[CG] |==|  0.81212
USER: genes 12 Torsion [CA]-CB--CG-[OD1] |==|  0.82960
ROOT
ATOM      1  CA  TRP J 605      -2.694  20.395  69.179  1.00 71.61 LIG 0.18  C 
ENDROOT
BRANCH 1 2
ATOM      2  CB  TRP J 605      -2.056  20.718  67.823  1.00 65.14 LIG 0.07  C 
BRANCH 2 3
ATOM      3  CG  TRP J 605      -3.007  20.637  66.665  1.00 62.37 LIG-0.03  A 
ATOM      4  CD2 TRP J 605      -4.016  19.643  66.453  1.00 57.80 LIG-0.00  A 
ATOM      5  CE3 TRP J 605      -4.426  18.509  67.162  1.00 58.94 LIG 0.01  A 
ATOM      6  CE2 TRP J 605      -4.674  19.965  65.249  1.00 56.30 LIG 0.04  A 
ATOM      7  CZ3 TRP J 605      -5.462  17.747  66.656  1.00 59.47 LIG 0.00  A 
ATOM      8  CH2 TRP J 605      -6.097  18.093  65.456  1.00 55.92 LIG 0.00  A 
ATOM      9  CZ2 TRP J 605      -5.718  19.195  64.741  1.00 56.02 LIG 0.03  A 
ATOM     10  NE1 TRP J 605      -4.093  21.103  64.756  1.00 57.88 LIG-0.36  N 
ATOM     11  CD1 TRP J 605      -3.096  21.501  65.612  1.00 63.10 LIG 0.10  A 
ATOM     12 HE1  TRP J 605      -4.317  21.504  64.028  1.00 57.88 LIG 0.17  HD
ENDBRANCH 2 3
ENDBRANCH 1 2
BRANCH 1 13
ATOM     13  C   TRP J 605      -2.305  18.981  69.614  1.00 60.32 LIG 0.24  C 
ATOM     14  N   ASN J 606      -1.023  18.658  69.456  1.00 74.38 LIG-0.34  N 
ATOM     15 H    ASN J 606      -0.454  19.174  69.069  1.00 74.38 LIG 0.16  HD
ATOM     16 O    TRP J 605      -3.145  18.212  70.084  1.00 56.87 LIG-0.27  OA
BRANCH 14 17
ATOM     17  CA  ASN J 606      -0.451  17.393  69.921  1.00 65.98 LIG 0.19  C 
BRANCH 17 18
ATOM     18  C   ASN J 606       0.102  17.446  71.342  1.00 66.37 LIG 0.20  C 
ATOM     19 O    ASN J 606      -0.604  17.171  72.310  1.00 70.67 LIG-0.65  OA
ATOM     20 OXT  ASN J 606       1.277  17.753  71.549  1.00 61.82 LIG-0.65  OA
ENDBRANCH 17 18
BRANCH 17 21
ATOM     21  CB  ASN J 606       0.642  16.931  68.958  1.00 63.43 LIG 0.14  C 
BRANCH 21 22
ATOM     22  CG  ASN J 606       1.312  18.089  68.238  1.00 67.06 LIG 0.22  C 
ATOM     23  ND2 ASN J 606       0.645  18.619  67.220  1.00 58.48 LIG-0.37  N 
ATOM     24 22HD ASN J 606      -0.125  18.304  67.000  1.00 58.48 LIG 0.16  HD
ATOM     25 21HD ASN J 606       0.983  19.276  66.781  1.00 58.48 LIG 0.16  HD
ATOM     26 OD1  ASN J 606       2.416  18.500  68.595  1.00 73.16 LIG-0.27  OA
ENDBRANCH 21 22
ENDBRANCH 17 21
ENDBRANCH 14 17
ENDBRANCH 1 13
BRANCH 1 27
ATOM     27  N   TRP J 605      -2.340  21.418  70.166  1.00 80.26 LIG-0.34  N 
ATOM     28  C   ASP J 604      -2.263  21.181  71.475  1.00 69.06 LIG 0.26  C 
ATOM     29 O    ASP J 604      -2.536  20.095  71.987  1.00 67.02 LIG-0.27  OA
ATOM     30 H    TRP J 605      -2.185  22.190  69.821  1.00 80.26 LIG 0.16  HD
BRANCH 28 31
ATOM     31  CA  ASP J 604      -1.811  22.354  72.343  1.00 80.57 LIG 0.41  C 
ATOM     32  N   ASP J 604      -0.780  23.131  71.662  1.00 92.85 LIG 0.61  N 
BRANCH 31 33
ATOM     33  CB  ASP J 604      -3.001  23.246  72.701  1.00 75.75 LIG 0.16  C 
BRANCH 33 34
ATOM     34  CG  ASP J 604      -3.571  23.973  71.499  1.00 69.63 LIG 0.17  C 
ATOM     35 OD1  ASP J 604      -2.835  24.769  70.878  1.00 75.49 LIG-0.65  OA
ATOM     36 OD2  ASP J 604      -4.755  23.747  71.172  1.00 69.41 LIG-0.65  OA
ENDBRANCH 33 34
ENDBRANCH 31 33
ENDBRANCH 28 31
ENDBRANCH 1 27
TORSDOF 11
ENDMDL
MODEL 17
USER: ADFR SOLUTION from run 32
USER: SCORE 12.187665 LL:  -1.746 LR: -12.147 RR:   0.000 FEB:  -8.865
USER: RMSD 7.445882
USER: SEED 31
USER: STATUS no improvement in best in 7 clusters for 5 generations
USER: GENES 13
USER: genes 0 Translation |==|  0.52626 0.55094 0.37516
USER: genes 1 Rotation |==|  0.09453 0.31221 0.72237 0.52970
USER: genes 2 Torsion [C]-CA--CB-[CG] |==|  0.45217
USER: genes 3 Torsion [CA]-CB--CG-[CD2] |==|  0.20741
USER: genes 4 Torsion [N]-CA--C-[N] |==|  0.69887
USER: genes 5 Torsion [C]-N--CA-[CB] |==|  0.30643
USER: genes 6 Torsion [N]-CA--C-[O] |==|  0.36083
USER: genes 7 Torsion [N]-CA--CB-[CG] |==|  0.64117
USER: genes 8 Torsion [CA]-CB--CG-[ND2] |==|  0.48217
USER: genes 9 Torsion [CB]-CA--N-[C] |==|  0.36784
USER: genes 10 Torsion [N]-C--CA-[N] |==|  0.44179
USER: genes 11 Torsion [C]-CA--CB-[CG] |==|  0.02436
USER: genes 12 Torsion [CA]-CB--CG-[OD1] |==|  0.75137
ROOT
ATOM      1  CA  TRP J 605      -2.757  21.926  68.334  1.00 71.61 LIG 0.18  C 
ENDROOT
BRANCH 1 2
ATOM      2  CB  TRP J 605      -3.148  20.522  67.859  1.00 65.14 LIG 0.07  C 
BRANCH 2 3
ATOM      3  CG  TRP J 605      -2.020  19.532  67.885  1.00 62.37 LIG-0.03  A 
ATOM      4  CD2 TRP J 605      -1.458  18.905  69.043  1.00 57.80 LIG-0.00  A 
ATOM      5  CE3 TRP J 605      -1.718  18.988  70.415  1.00 58.94 LIG 0.01  A 
ATOM      6  CE2 TRP J 605      -0.433  18.046  68.598  1.00 56.30 LIG 0.04  A 
ATOM      7  CZ3 TRP J 605      -0.960  18.223  71.283  1.00 59.47 LIG 0.00  A 
ATOM      8  CH2 TRP J 605       0.052  17.379  70.809  1.00 55.92 LIG 0.00  A 
ATOM      9  CZ2 TRP J 605       0.329  17.277  69.474  1.00 56.02 LIG 0.03  A 
ATOM     10  NE1 TRP J 605      -0.379  18.145  67.232  1.00 57.88 LIG-0.36  N 
ATOM     11  CD1 TRP J 605      -1.335  19.037  66.813  1.00 63.10 LIG 0.10  A 
ATOM     12 HE1  TRP J 605       0.165  17.719  66.721  1.00 57.88 LIG 0.17  HD
ENDBRANCH 2 3
ENDBRANCH 1 2
BRANCH 1 13
ATOM     13  C   TRP J 605      -3.809  22.940  67.880  1.00 60.32 LIG 0.24  C 
ATOM     14  N   ASN J 606      -4.969  22.429  67.474  1.00 74.38 LIG-0.34  N 
ATOM     15 H    ASN J 606      -5.109  21.584  67.398  1.00 74.38 LIG 0.16  HD
ATOM     16 O    TRP J 605      -3.572  24.148  67.903  1.00 56.87 LIG-0.27  OA
BRANCH 14 17
ATOM     17  CA  ASN J 606      -6.126  23.251  67.114  1.00 65.98 LIG 0.19  C 
BRANCH 17 18
ATOM     18  C   ASN J 606      -7.405  22.888  67.863  1.00 66.37 LIG 0.20  C 
ATOM     19 O    ASN J 606      -8.077  23.749  68.428  1.00 70.67 LIG-0.65  OA
ATOM     20 OXT  ASN J 606      -7.800  21.722  67.906  1.00 61.82 LIG-0.65  OA
ENDBRANCH 17 18
BRANCH 17 21
ATOM     21  CB  ASN J 606      -6.371  23.174  65.607  1.00 63.43 LIG 0.14  C 
BRANCH 21 22
ATOM     22  CG  ASN J 606      -6.503  24.546  64.968  1.00 67.06 LIG 0.22  C 
ATOM     23  ND2 ASN J 606      -6.585  24.578  63.644  1.00 58.48 LIG-0.37  N 
ATOM     24 22HD ASN J 606      -6.564  23.845  63.194  1.00 58.48 LIG 0.16  HD
ATOM     25 21HD ASN J 606      -6.660  25.331  63.236  1.00 58.48 LIG 0.16  HD
ATOM     26 OD1  ASN J 606      -6.528  25.564  65.661  1.00 73.16 LIG-0.27  OA
ENDBRANCH 21 22
ENDBRANCH 17 21
ENDBRANCH 14 17
ENDBRANCH 1 13
BRANCH 1 27
ATOM     27  N   TRP J 605      -2.540  21.933  69.783  1.00 80.26 LIG-0.34  N 
ATOM     28  C   ASP J 604      -1.478  22.488  70.364  1.00 69.06 LIG 0.26  C 
ATOM     29 O    ASP J 604      -0.549  22.999  69.738  1.00 67.02 LIG-0.27  OA
ATOM     30 H    TRP J 605      -3.166  21.544  70.226  1.00 80.26 LIG 0.16  HD
BRANCH 28 31
ATOM     31  CA  ASP J 604      -1.458  22.458  71.892  1.00 80.57 LIG 0.41  C 
ATOM     32  N   ASP J 604      -0.097  22.621  72.393  1.00 92.85 LIG 0.61  N 
BRANCH 31 33
ATOM     33  CB  ASP J 604      -2.370  23.547  72.460  1.00 75.75 LIG 0.16  C 
BRANCH 33 34
ATOM     34  CG  ASP J 604      -3.210  24.224  71.393  1.00 69.63 LIG 0.17  C 
ATOM     35 OD1  ASP J 604      -2.744  25.228  70.814  1.00 75.49 LIG-0.65  OA
ATOM     36 OD2  ASP J 604      -4.335  23.749  71.132  1.00 69.41 LIG-0.65  OA
ENDBRANCH 33 34
ENDBRANCH 31 33
ENDBRANCH 28 31
ENDBRANCH 1 27
TORSDOF 11
ENDMDL
MODEL 18
USER: ADFR SOLUTION from run 70
USER: SCORE 13.719112 LL:  -1.922 LR: -12.142 RR:   0.000 FEB:  -8.860
USER: RMSD 5.878028
USER: SEED 69
USER: STATUS no improvement in best in 12 clusters for 5 generations
USER: GENES 13
USER: genes 0 Translation |==|  0.53565 0.58012 0.58596
USER: genes 1 Rotation |==|  0.31048 0.28509 0.13229 0.68081
USER: genes 2 Torsion [C]-CA--CB-[CG] |==|  0.48422
USER: genes 3 Torsion [CA]-CB--CG-[CD2] |==|  0.97366
USER: genes 4 Torsion [N]-CA--C-[N] |==|  0.41123
USER: genes 5 Torsion [C]-N--CA-[CB] |==|  0.79706
USER: genes 6 Torsion [N]-CA--C-[O] |==|  0.54718
USER: genes 7 Torsion [N]-CA--CB-[CG] |==|  0.84343
USER: genes 8 Torsion [CA]-CB--CG-[ND2] |==|  0.19751
USER: genes 9 Torsion [CB]-CA--N-[C] |==|  0.53688
USER: genes 10 Torsion [N]-C--CA-[N] |==|  0.60282
USER: genes 11 Torsion [C]-CA--CB-[CG] |==|  0.79368
USER: genes 12 Torsion [CA]-CB--CG-[OD1] |==|  0.54160
ROOT
ATOM      1  CA  TRP J 605      -2.595  22.386  71.971  1.00 71.61 LIG 0.18  C 
ENDROOT
BRANCH 1 2
ATOM      2  CB  TRP J 605      -1.192  23.004  72.001  1.00 65.14 LIG 0.07  C 
BRANCH 2 3
ATOM      3  CG  TRP J 605      -0.088  22.031  71.710  1.00 62.37 LIG-0.03  A 
ATOM      4  CD2 TRP J 605      -0.207  20.608  71.606  1.00 57.80 LIG-0.00  A 
ATOM      5  CE3 TRP J 605      -1.272  19.710  71.735  1.00 58.94 LIG 0.01  A 
ATOM      6  CE2 TRP J 605       1.075  20.102  71.313  1.00 56.30 LIG 0.04  A 
ATOM      7  CZ3 TRP J 605      -1.026  18.360  71.569  1.00 59.47 LIG 0.00  A 
ATOM      8  CH2 TRP J 605       0.260  17.887  71.279  1.00 55.92 LIG 0.00  A 
ATOM      9  CZ2 TRP J 605       1.320  18.740  71.147  1.00 56.02 LIG 0.03  A 
ATOM     10  NE1 TRP J 605       1.931  21.169  71.240  1.00 57.88 LIG-0.36  N 
ATOM     11  CD1 TRP J 605       1.225  22.322  71.477  1.00 63.10 LIG 0.10  A 
ATOM     12 HE1  TRP J 605       2.774  21.125  71.073  1.00 57.88 LIG 0.17  HD
ENDBRANCH 2 3
ENDBRANCH 1 2
BRANCH 1 13
ATOM     13  C   TRP J 605      -3.630  23.421  72.416  1.00 60.32 LIG 0.24  C 
ATOM     14  N   ASN J 606      -3.860  23.484  73.726  1.00 74.38 LIG-0.34  N 
ATOM     15 H    ASN J 606      -3.512  22.937  74.291  1.00 74.38 LIG 0.16  HD
ATOM     16 O    TRP J 605      -4.195  24.142  71.593  1.00 56.87 LIG-0.27  OA
BRANCH 14 17
ATOM     17  CA  ASN J 606      -4.729  24.489  74.340  1.00 65.98 LIG 0.19  C 
BRANCH 17 18
ATOM     18  C   ASN J 606      -6.104  24.606  73.689  1.00 66.37 LIG 0.20  C 
ATOM     19 O    ASN J 606      -6.816  25.589  73.879  1.00 70.67 LIG-0.65  OA
ATOM     20 OXT  ASN J 606      -6.525  23.719  72.944  1.00 61.82 LIG-0.65  OA
ENDBRANCH 17 18
BRANCH 17 21
ATOM     21  CB  ASN J 606      -4.037  25.853  74.330  1.00 63.43 LIG 0.14  C 
BRANCH 21 22
ATOM     22  CG  ASN J 606      -2.684  25.823  75.022  1.00 67.06 LIG 0.22  C 
ATOM     23  ND2 ASN J 606      -1.710  25.179  74.392  1.00 58.48 LIG-0.37  N 
ATOM     24 22HD ASN J 606      -1.862  24.807  73.631  1.00 58.48 LIG 0.16  HD
ATOM     25 21HD ASN J 606      -0.927  25.133  74.743  1.00 58.48 LIG 0.16  HD
ATOM     26 OD1  ASN J 606      -2.521  26.372  76.112  1.00 73.16 LIG-0.27  OA
ENDBRANCH 21 22
ENDBRANCH 17 21
ENDBRANCH 14 17
ENDBRANCH 1 13
BRANCH 1 27
ATOM     27  N   TRP J 605      -2.877  21.824  70.648  1.00 80.26 LIG-0.34  N 
ATOM     28  C   ASP J 604      -4.094  21.455  70.250  1.00 69.06 LIG 0.26  C 
ATOM     29 O    ASP J 604      -5.089  21.499  70.975  1.00 67.02 LIG-0.27  OA
ATOM     30 H    TRP J 605      -2.180  21.754  70.148  1.00 80.26 LIG 0.16  HD
BRANCH 28 31
ATOM     31  CA  ASP J 604      -4.205  20.955  68.811  1.00 80.57 LIG 0.41  C 
ATOM     32  N   ASP J 604      -5.461  21.391  68.210  1.00 92.85 LIG 0.61  N 
BRANCH 31 33
ATOM     33  CB  ASP J 604      -3.017  21.444  67.981  1.00 75.75 LIG 0.16  C 
BRANCH 33 34
ATOM     34  CG  ASP J 604      -3.111  22.918  67.635  1.00 69.63 LIG 0.17  C 
ATOM     35 OD1  ASP J 604      -2.368  23.369  66.738  1.00 75.49 LIG-0.65  OA
ATOM     36 OD2  ASP J 604      -3.931  23.624  68.258  1.00 69.41 LIG-0.65  OA
ENDBRANCH 33 34
ENDBRANCH 31 33
ENDBRANCH 28 31
ENDBRANCH 1 27
TORSDOF 11
ENDMDL
MODEL 19
USER: ADFR SOLUTION from run 199
USER: SCORE 13.501503 LL:  -2.177 LR: -12.116 RR:   0.000 FEB:  -8.834
USER: RMSD 5.120486
USER: SEED 198
USER: STATUS no improvement in best in 18 clusters for 5 generations
USER: GENES 13
USER: genes 0 Translation |==|  0.44789 0.41359 0.40446
USER: genes 1 Rotation |==|  0.17918 0.39187 0.18346 0.68757
USER: genes 2 Torsion [C]-CA--CB-[CG] |==|  0.31260
USER: genes 3 Torsion [CA]-CB--CG-[CD2] |==|  0.86711
USER: genes 4 Torsion [N]-CA--C-[N] |==|  0.57509
USER: genes 5 Torsion [C]-N--CA-[CB] |==|  0.39486
USER: genes 6 Torsion [N]-CA--C-[O] |==|  0.06502
USER: genes 7 Torsion [N]-CA--CB-[CG] |==|  0.13889
USER: genes 8 Torsion [CA]-CB--CG-[ND2] |==|  0.48418
USER: genes 9 Torsion [CB]-CA--N-[C] |==|  0.15952
USER: genes 10 Torsion [N]-C--CA-[N] |==|  0.14708
USER: genes 11 Torsion [C]-CA--CB-[CG] |==|  0.31512
USER: genes 12 Torsion [CA]-CB--CG-[OD1] |==|  0.84437
ROOT
ATOM      1  CA  TRP J 605      -4.109  19.763  68.840  1.00 71.61 LIG 0.18  C 
ENDROOT
BRANCH 1 2
ATOM      2  CB  TRP J 605      -2.848  19.984  67.996  1.00 65.14 LIG 0.07  C 
BRANCH 2 3
ATOM      3  CG  TRP J 605      -1.722  19.048  68.322  1.00 62.37 LIG-0.03  A 
ATOM      4  CD2 TRP J 605      -1.224  18.729  69.627  1.00 57.80 LIG-0.00  A 
ATOM      5  CE3 TRP J 605      -1.561  19.138  70.921  1.00 58.94 LIG 0.01  A 
ATOM      6  CE2 TRP J 605      -0.174  17.805  69.459  1.00 56.30 LIG 0.04  A 
ATOM      7  CZ3 TRP J 605      -0.851  18.618  71.988  1.00 59.47 LIG 0.00  A 
ATOM      8  CH2 TRP J 605       0.188  17.700  71.788  1.00 55.92 LIG 0.00  A 
ATOM      9  CZ2 TRP J 605       0.540  17.282  70.535  1.00 56.02 LIG 0.03  A 
ATOM     10  NE1 TRP J 605      -0.043  17.571  68.115  1.00 57.88 LIG-0.36  N 
ATOM     11  CD1 TRP J 605      -0.976  18.319  67.441  1.00 63.10 LIG 0.10  A 
ATOM     12 HE1  TRP J 605       0.530  17.042  67.752  1.00 57.88 LIG 0.17  HD
ENDBRANCH 2 3
ENDBRANCH 1 2
BRANCH 1 13
ATOM     13  C   TRP J 605      -4.334  20.962  69.764  1.00 60.32 LIG 0.24  C 
ATOM     14  N   ASN J 606      -3.237  21.616  70.142  1.00 74.38 LIG-0.34  N 
ATOM     15 H    ASN J 606      -2.442  21.351  69.947  1.00 74.38 LIG 0.16  HD
ATOM     16 O    TRP J 605      -5.469  21.283  70.116  1.00 56.87 LIG-0.27  OA
BRANCH 14 17
ATOM     17  CA  ASN J 606      -3.270  22.850  70.928  1.00 65.98 LIG 0.19  C 
BRANCH 17 18
ATOM     18  C   ASN J 606      -3.224  24.124  70.089  1.00 66.37 LIG 0.20  C 
ATOM     19 O    ASN J 606      -3.585  24.125  68.914  1.00 70.67 LIG-0.65  OA
ATOM     20 OXT  ASN J 606      -2.835  25.186  70.578  1.00 61.82 LIG-0.65  OA
ENDBRANCH 17 18
BRANCH 17 21
ATOM     21  CB  ASN J 606      -2.122  22.855  71.938  1.00 63.43 LIG 0.14  C 
BRANCH 21 22
ATOM     22  CG  ASN J 606      -0.784  22.527  71.298  1.00 67.06 LIG 0.22  C 
ATOM     23  ND2 ASN J 606       0.286  22.624  72.078  1.00 58.48 LIG-0.37  N 
ATOM     24 22HD ASN J 606       0.198  22.861  72.901  1.00 58.48 LIG 0.16  HD
ATOM     25 21HD ASN J 606       1.066  22.450  71.762  1.00 58.48 LIG 0.16  HD
ATOM     26 OD1  ASN J 606      -0.715  22.193  70.115  1.00 73.16 LIG-0.27  OA
ENDBRANCH 21 22
ENDBRANCH 17 21
ENDBRANCH 14 17
ENDBRANCH 1 13
BRANCH 1 27
ATOM     27  N   TRP J 605      -5.258  19.479  67.977  1.00 80.26 LIG-0.34  N 
ATOM     28  C   ASP J 604      -5.292  18.471  67.107  1.00 69.06 LIG 0.26  C 
ATOM     29 O    ASP J 604      -4.342  17.713  66.906  1.00 67.02 LIG-0.27  OA
ATOM     30 H    TRP J 605      -5.912  20.027  68.083  1.00 80.26 LIG 0.16  HD
BRANCH 28 31
ATOM     31  CA  ASP J 604      -6.602  18.289  66.343  1.00 80.57 LIG 0.41  C 
ATOM     32  N   ASP J 604      -6.999  19.536  65.698  1.00 92.85 LIG 0.61  N 
BRANCH 31 33
ATOM     33  CB  ASP J 604      -6.468  17.172  65.307  1.00 75.75 LIG 0.16  C 
BRANCH 33 34
ATOM     34  CG  ASP J 604      -7.335  15.969  65.627  1.00 69.63 LIG 0.17  C 
ATOM     35 OD1  ASP J 604      -7.200  15.414  66.738  1.00 75.49 LIG-0.65  OA
ATOM     36 OD2  ASP J 604      -8.154  15.581  64.769  1.00 69.41 LIG-0.65  OA
ENDBRANCH 33 34
ENDBRANCH 31 33
ENDBRANCH 28 31
ENDBRANCH 1 27
TORSDOF 11
ENDMDL
MODEL 20
USER: ADFR SOLUTION from run 141
USER: SCORE 13.374018 LL:  -1.624 LR: -12.045 RR:   0.000 FEB:  -8.764
USER: RMSD 2.303042
USER: SEED 140
USER: STATUS no improvement in best in 8 clusters for 5 generations
USER: GENES 13
USER: genes 0 Translation |==|  0.51867 0.51640 0.47744
USER: genes 1 Rotation |==|  0.54738 0.46683 0.54375 0.99471
USER: genes 2 Torsion [C]-CA--CB-[CG] |==|  0.19410
USER: genes 3 Torsion [CA]-CB--CG-[CD2] |==|  0.49593
USER: genes 4 Torsion [N]-CA--C-[N] |==|  0.16667
USER: genes 5 Torsion [C]-N--CA-[CB] |==|  0.82038
USER: genes 6 Torsion [N]-CA--C-[O] |==|  0.66335
USER: genes 7 Torsion [N]-CA--CB-[CG] |==|  0.76194
USER: genes 8 Torsion [CA]-CB--CG-[ND2] |==|  0.35458
USER: genes 9 Torsion [CB]-CA--N-[C] |==|  0.75569
USER: genes 10 Torsion [N]-C--CA-[N] |==|  0.39958
USER: genes 11 Torsion [C]-CA--CB-[CG] |==|  0.08274
USER: genes 12 Torsion [CA]-CB--CG-[OD1] |==|  0.29420
ROOT
ATOM      1  CA  TRP J 605      -2.888  21.382  70.099  1.00 71.61 LIG 0.18  C 
ENDROOT
BRANCH 1 2
ATOM      2  CB  TRP J 605      -3.893  22.035  71.056  1.00 65.14 LIG 0.07  C 
BRANCH 2 3
ATOM      3  CG  TRP J 605      -3.258  22.823  72.164  1.00 62.37 LIG-0.03  A 
ATOM      4  CD2 TRP J 605      -3.936  23.563  73.186  1.00 57.80 LIG-0.00  A 
ATOM      5  CE3 TRP J 605      -5.282  23.802  73.481  1.00 58.94 LIG 0.01  A 
ATOM      6  CE2 TRP J 605      -2.948  24.134  74.013  1.00 56.30 LIG 0.04  A 
ATOM      7  CZ3 TRP J 605      -5.594  24.589  74.574  1.00 59.47 LIG 0.00  A 
ATOM      8  CH2 TRP J 605      -4.589  25.142  75.378  1.00 55.92 LIG 0.00  A 
ATOM      9  CZ2 TRP J 605      -3.265  24.927  75.115  1.00 56.02 LIG 0.03  A 
ATOM     10  NE1 TRP J 605      -1.728  23.755  73.518  1.00 57.88 LIG-0.36  N 
ATOM     11  CD1 TRP J 605      -1.923  22.968  72.410  1.00 63.10 LIG 0.10  A 
ATOM     12 HE1  TRP J 605      -0.965  23.975  73.847  1.00 57.88 LIG 0.17  HD
ENDBRANCH 2 3
ENDBRANCH 1 2
BRANCH 1 13
ATOM     13  C   TRP J 605      -2.153  20.246  70.812  1.00 60.32 LIG 0.24  C 
ATOM     14  N   ASN J 606      -1.192  19.647  70.111  1.00 74.38 LIG-0.34  N 
ATOM     15 H    ASN J 606      -1.031  19.827  69.285  1.00 74.38 LIG 0.16  HD
ATOM     16 O    TRP J 605      -2.449  19.928  71.964  1.00 56.87 LIG-0.27  OA
BRANCH 14 17
ATOM     17  CA  ASN J 606      -0.312  18.620  70.671  1.00 65.98 LIG 0.19  C 
BRANCH 17 18
ATOM     18  C   ASN J 606      -1.045  17.393  71.203  1.00 66.37 LIG 0.20  C 
ATOM     19 O    ASN J 606      -0.937  17.048  72.378  1.00 70.67 LIG-0.65  OA
ATOM     20 OXT  ASN J 606      -1.776  16.728  70.468  1.00 61.82 LIG-0.65  OA
ENDBRANCH 17 18
BRANCH 17 21
ATOM     21  CB  ASN J 606       0.554  19.224  71.777  1.00 63.43 LIG 0.14  C 
BRANCH 21 22
ATOM     22  CG  ASN J 606       1.818  19.873  71.238  1.00 67.06 LIG 0.22  C 
ATOM     23  ND2 ASN J 606       2.048  21.125  71.614  1.00 58.48 LIG-0.37  N 
ATOM     24 22HD ASN J 606       1.495  21.525  72.138  1.00 58.48 LIG 0.16  HD
ATOM     25 21HD ASN J 606       2.749  21.535  71.334  1.00 58.48 LIG 0.16  HD
ATOM     26 OD1  ASN J 606       2.575  19.253  70.491  1.00 73.16 LIG-0.27  OA
ENDBRANCH 21 22
ENDBRANCH 17 21
ENDBRANCH 14 17
ENDBRANCH 1 13
BRANCH 1 27
ATOM     27  N   TRP J 605      -3.559  20.951  68.870  1.00 80.26 LIG-0.34  N 
ATOM     28  C   ASP J 604      -4.136  19.759  68.728  1.00 69.06 LIG 0.26  C 
ATOM     29 O    ASP J 604      -4.113  18.884  69.594  1.00 67.02 LIG-0.27  OA
ATOM     30 H    TRP J 605      -3.546  21.543  68.246  1.00 80.26 LIG 0.16  HD
BRANCH 28 31
ATOM     31  CA  ASP J 604      -4.848  19.514  67.398  1.00 80.57 LIG 0.41  C 
ATOM     32  N   ASP J 604      -4.685  18.127  66.975  1.00 92.85 LIG 0.61  N 
BRANCH 31 33
ATOM     33  CB  ASP J 604      -6.332  19.868  67.512  1.00 75.75 LIG 0.16  C 
BRANCH 33 34
ATOM     34  CG  ASP J 604      -6.596  20.968  68.522  1.00 69.63 LIG 0.17  C 
ATOM     35 OD1  ASP J 604      -6.880  22.109  68.101  1.00 75.49 LIG-0.65  OA
ATOM     36 OD2  ASP J 604      -6.523  20.691  69.737  1.00 69.41 LIG-0.65  OA
ENDBRANCH 33 34
ENDBRANCH 31 33
ENDBRANCH 28 31
ENDBRANCH 1 27
TORSDOF 11
ENDMDL
MODEL 21
USER: ADFR SOLUTION from run 27
USER: SCORE 12.714488 LL:  -2.188 LR: -12.044 RR:   0.000 FEB:  -8.763
USER: RMSD 6.855483
USER: SEED 26
USER: STATUS no improvement in best in 12 clusters for 5 generations
USER: GENES 13
USER: genes 0 Translation |==|  0.49741 0.57156 0.49222
USER: genes 1 Rotation |==|  0.27774 0.17631 0.70218 0.73440
USER: genes 2 Torsion [C]-CA--CB-[CG] |==|  0.56425
USER: genes 3 Torsion [CA]-CB--CG-[CD2] |==|  0.21475
USER: genes 4 Torsion [N]-CA--C-[N] |==|  0.21760
USER: genes 5 Torsion [C]-N--CA-[CB] |==|  0.48064
USER: genes 6 Torsion [N]-CA--C-[O] |==|  0.03860
USER: genes 7 Torsion [N]-CA--CB-[CG] |==|  0.02535
USER: genes 8 Torsion [CA]-CB--CG-[ND2] |==|  0.75753
USER: genes 9 Torsion [CB]-CA--N-[C] |==|  0.28173
USER: genes 10 Torsion [N]-C--CA-[N] |==|  0.66469
USER: genes 11 Torsion [C]-CA--CB-[CG] |==|  0.41670
USER: genes 12 Torsion [CA]-CB--CG-[OD1] |==|  0.01985
ROOT
ATOM      1  CA  TRP J 605      -3.255  22.251  70.354  1.00 71.61 LIG 0.18  C 
ENDROOT
BRANCH 1 2
ATOM      2  CB  TRP J 605      -3.826  21.726  69.031  1.00 65.14 LIG 0.07  C 
BRANCH 2 3
ATOM      3  CG  TRP J 605      -2.833  20.981  68.189  1.00 62.37 LIG-0.03  A 
ATOM      4  CD2 TRP J 605      -2.379  19.637  68.388  1.00 57.80 LIG-0.00  A 
ATOM      5  CE3 TRP J 605      -2.656  18.649  69.339  1.00 58.94 LIG 0.01  A 
ATOM      6  CE2 TRP J 605      -1.461  19.349  67.359  1.00 56.30 LIG 0.04  A 
ATOM      7  CZ3 TRP J 605      -2.020  17.427  69.232  1.00 59.47 LIG 0.00  A 
ATOM      8  CH2 TRP J 605      -1.112  17.171  68.197  1.00 55.92 LIG 0.00  A 
ATOM      9  CZ2 TRP J 605      -0.821  18.116  67.253  1.00 56.02 LIG 0.03  A 
ATOM     10  NE1 TRP J 605      -1.365  20.465  66.570  1.00 57.88 LIG-0.36  N 
ATOM     11  CD1 TRP J 605      -2.193  21.438  67.073  1.00 63.10 LIG 0.10  A 
ATOM     12 HE1  TRP J 605      -0.868  20.544  65.873  1.00 57.88 LIG 0.17  HD
ENDBRANCH 2 3
ENDBRANCH 1 2
BRANCH 1 13
ATOM     13  C   TRP J 605      -4.386  22.464  71.361  1.00 60.32 LIG 0.24  C 
ATOM     14  N   ASN J 606      -4.129  23.319  72.349  1.00 74.38 LIG-0.34  N 
ATOM     15 H    ASN J 606      -3.358  23.680  72.469  1.00 74.38 LIG 0.16  HD
ATOM     16 O    TRP J 605      -5.460  21.874  71.238  1.00 56.87 LIG-0.27  OA
BRANCH 14 17
ATOM     17  CA  ASN J 606      -5.131  23.731  73.334  1.00 65.98 LIG 0.19  C 
BRANCH 17 18
ATOM     18  C   ASN J 606      -6.314  24.489  72.740  1.00 66.37 LIG 0.20  C 
ATOM     19 O    ASN J 606      -6.518  24.499  71.528  1.00 70.67 LIG-0.65  OA
ATOM     20 OXT  ASN J 606      -7.100  25.099  73.466  1.00 61.82 LIG-0.65  OA
ENDBRANCH 17 18
BRANCH 17 21
ATOM     21  CB  ASN J 606      -4.471  24.576  74.425  1.00 63.43 LIG 0.14  C 
BRANCH 21 22
ATOM     22  CG  ASN J 606      -3.037  24.944  74.088  1.00 67.06 LIG 0.22  C 
ATOM     23  ND2 ASN J 606      -2.102  24.071  74.444  1.00 58.48 LIG-0.37  N 
ATOM     24 22HD ASN J 606      -2.324  23.342  74.843  1.00 58.48 LIG 0.16  HD
ATOM     25 21HD ASN J 606      -1.275  24.235  74.276  1.00 58.48 LIG 0.16  HD
ATOM     26 OD1  ASN J 606      -2.775  26.002  73.515  1.00 73.16 LIG-0.27  OA
ENDBRANCH 21 22
ENDBRANCH 17 21
ENDBRANCH 14 17
ENDBRANCH 1 13
BRANCH 1 27
ATOM     27  N   TRP J 605      -2.206  21.355  70.848  1.00 80.26 LIG-0.34  N 
ATOM     28  C   ASP J 604      -0.904  21.608  70.722  1.00 69.06 LIG 0.26  C 
ATOM     29 O    ASP J 604      -0.456  22.590  70.129  1.00 67.02 LIG-0.27  OA
ATOM     30 H    TRP J 605      -2.511  20.647  71.230  1.00 80.26 LIG 0.16  HD
BRANCH 28 31
ATOM     31  CA  ASP J 604       0.040  20.592  71.361  1.00 80.57 LIG 0.41  C 
ATOM     32  N   ASP J 604       0.885  21.233  72.363  1.00 92.85 LIG 0.61  N 
BRANCH 31 33
ATOM     33  CB  ASP J 604      -0.753  19.443  71.988  1.00 75.75 LIG 0.16  C 
BRANCH 33 34
ATOM     34  CG  ASP J 604       0.009  18.132  71.980  1.00 69.63 LIG 0.17  C 
ATOM     35 OD1  ASP J 604       1.203  18.138  71.613  1.00 75.49 LIG-0.65  OA
ATOM     36 OD2  ASP J 604      -0.585  17.096  72.344  1.00 69.41 LIG-0.65  OA
ENDBRANCH 33 34
ENDBRANCH 31 33
ENDBRANCH 28 31
ENDBRANCH 1 27
TORSDOF 11
ENDMDL
MODEL 22
USER: ADFR SOLUTION from run 27
USER: SCORE 13.129951 LL:  -2.024 LR: -12.036 RR:   0.000 FEB:  -8.755
USER: RMSD 6.314925
USER: SEED 26
USER: STATUS no improvement in best in 12 clusters for 5 generations
USER: GENES 13
USER: genes 0 Translation |==|  0.51605 0.60114 0.43172
USER: genes 1 Rotation |==|  0.39043 0.88137 0.79450 0.57631
USER: genes 2 Torsion [C]-CA--CB-[CG] |==|  0.38100
USER: genes 3 Torsion [CA]-CB--CG-[CD2] |==|  0.41524
USER: genes 4 Torsion [N]-CA--C-[N] |==|  0.48081
USER: genes 5 Torsion [C]-N--CA-[CB] |==|  0.31637
USER: genes 6 Torsion [N]-CA--C-[O] |==|  0.04031
USER: genes 7 Torsion [N]-CA--CB-[CG] |==|  0.28491
USER: genes 8 Torsion [CA]-CB--CG-[ND2] |==|  0.27464
USER: genes 9 Torsion [CB]-CA--N-[C] |==|  0.21251
USER: genes 10 Torsion [N]-C--CA-[N] |==|  0.30710
USER: genes 11 Torsion [C]-CA--CB-[CG] |==|  0.59893
USER: genes 12 Torsion [CA]-CB--CG-[OD1] |==|  0.36087
ROOT
ATOM      1  CA  TRP J 605      -2.933  22.717  69.310  1.00 71.61 LIG 0.18  C 
ENDROOT
BRANCH 1 2
ATOM      2  CB  TRP J 605      -2.834  23.923  70.252  1.00 65.14 LIG 0.07  C 
BRANCH 2 3
ATOM      3  CG  TRP J 605      -3.748  23.848  71.440  1.00 62.37 LIG-0.03  A 
ATOM      4  CD2 TRP J 605      -3.514  24.407  72.737  1.00 57.80 LIG-0.00  A 
ATOM      5  CE3 TRP J 605      -2.463  25.133  73.307  1.00 58.94 LIG 0.01  A 
ATOM      6  CE2 TRP J 605      -4.637  24.102  73.533  1.00 56.30 LIG 0.04  A 
ATOM      7  CZ3 TRP J 605      -2.565  25.525  74.628  1.00 59.47 LIG 0.00  A 
ATOM      8  CH2 TRP J 605      -3.695  25.207  75.393  1.00 55.92 LIG 0.00  A 
ATOM      9  CZ2 TRP J 605      -4.738  24.499  74.864  1.00 56.02 LIG 0.03  A 
ATOM     10  NE1 TRP J 605      -5.512  23.394  72.752  1.00 57.88 LIG-0.36  N 
ATOM     11  CD1 TRP J 605      -4.973  23.248  71.499  1.00 63.10 LIG 0.10  A 
ATOM     12 HE1  TRP J 605      -6.276  23.091  73.006  1.00 57.88 LIG 0.17  HD
ENDBRANCH 2 3
ENDBRANCH 1 2
BRANCH 1 13
ATOM     13  C   TRP J 605      -2.932  23.192  67.856  1.00 60.32 LIG 0.24  C 
ATOM     14  N   ASN J 606      -3.961  23.957  67.496  1.00 74.38 LIG-0.34  N 
ATOM     15 H    ASN J 606      -4.626  24.124  68.014  1.00 74.38 LIG 0.16  HD
ATOM     16 O    TRP J 605      -2.022  22.875  67.089  1.00 56.87 LIG-0.27  OA
BRANCH 14 17
ATOM     17  CA  ASN J 606      -4.065  24.594  66.181  1.00 65.98 LIG 0.19  C 
BRANCH 17 18
ATOM     18  C   ASN J 606      -4.203  26.113  66.235  1.00 66.37 LIG 0.20  C 
ATOM     19 O    ASN J 606      -3.960  26.737  67.265  1.00 70.67 LIG-0.65  OA
ATOM     20 OXT  ASN J 606      -4.549  26.749  65.238  1.00 61.82 LIG-0.65  OA
ENDBRANCH 17 18
BRANCH 17 21
ATOM     21  CB  ASN J 606      -5.238  23.996  65.405  1.00 63.43 LIG 0.14  C 
BRANCH 21 22
ATOM     22  CG  ASN J 606      -6.456  24.904  65.401  1.00 67.06 LIG 0.22  C 
ATOM     23  ND2 ASN J 606      -6.636  25.650  64.318  1.00 58.48 LIG-0.37  N 
ATOM     24 22HD ASN J 606      -6.077  25.602  63.665  1.00 58.48 LIG 0.16  HD
ATOM     25 21HD ASN J 606      -7.310  26.181  64.269  1.00 58.48 LIG 0.16  HD
ATOM     26 OD1  ASN J 606      -7.224  24.933  66.363  1.00 73.16 LIG-0.27  OA
ENDBRANCH 21 22
ENDBRANCH 17 21
ENDBRANCH 14 17
ENDBRANCH 1 13
BRANCH 1 27
ATOM     27  N   TRP J 605      -1.869  21.753  69.601  1.00 80.26 LIG-0.34  N 
ATOM     28  C   ASP J 604      -1.893  20.924  70.643  1.00 69.06 LIG 0.26  C 
ATOM     29 O    ASP J 604      -2.785  20.925  71.493  1.00 67.02 LIG-0.27  OA
ATOM     30 H    TRP J 605      -1.223  21.772  69.033  1.00 80.26 LIG 0.16  HD
BRANCH 28 31
ATOM     31  CA  ASP J 604      -0.728  19.941  70.744  1.00 80.57 LIG 0.41  C 
ATOM     32  N   ASP J 604       0.134  20.278  71.872  1.00 92.85 LIG 0.61  N 
BRANCH 31 33
ATOM     33  CB  ASP J 604      -1.247  18.508  70.879  1.00 75.75 LIG 0.16  C 
BRANCH 33 34
ATOM     34  CG  ASP J 604      -0.380  17.654  71.785  1.00 69.63 LIG 0.17  C 
ATOM     35 OD1  ASP J 604      -0.931  16.999  72.694  1.00 75.49 LIG-0.65  OA
ATOM     36 OD2  ASP J 604       0.852  17.635  71.584  1.00 69.41 LIG-0.65  OA
ENDBRANCH 33 34
ENDBRANCH 31 33
ENDBRANCH 28 31
ENDBRANCH 1 27
TORSDOF 11
ENDMDL
MODEL 23
USER: ADFR SOLUTION from run 145
USER: SCORE 12.787810 LL:  -1.497 LR: -12.032 RR:   0.000 FEB:  -8.751
USER: RMSD 5.627025
USER: SEED 144
USER: STATUS no improvement in best in 12 clusters for 5 generations
USER: GENES 13
USER: genes 0 Translation |==|  0.46648 0.55751 0.45993
USER: genes 1 Rotation |==|  0.41692 0.08664 0.23126 0.50282
USER: genes 2 Torsion [C]-CA--CB-[CG] |==|  0.37498
USER: genes 3 Torsion [CA]-CB--CG-[CD2] |==|  0.87434
USER: genes 4 Torsion [N]-CA--C-[N] |==|  0.18277
USER: genes 5 Torsion [C]-N--CA-[CB] |==|  0.46702
USER: genes 6 Torsion [N]-CA--C-[O] |==|  0.86577
USER: genes 7 Torsion [N]-CA--CB-[CG] |==|  0.13275
USER: genes 8 Torsion [CA]-CB--CG-[ND2] |==|  0.80133
USER: genes 9 Torsion [CB]-CA--N-[C] |==|  0.20000
USER: genes 10 Torsion [N]-C--CA-[N] |==|  0.93975
USER: genes 11 Torsion [C]-CA--CB-[CG] |==|  0.29078
USER: genes 12 Torsion [CA]-CB--CG-[OD1] |==|  0.51317
ROOT
ATOM      1  CA  TRP J 605      -3.788  22.030  69.797  1.00 71.61 LIG 0.18  C 
ENDROOT
BRANCH 1 2
ATOM      2  CB  TRP J 605      -2.663  23.011  70.146  1.00 65.14 LIG 0.07  C 
BRANCH 2 3
ATOM      3  CG  TRP J 605      -2.552  23.318  71.611  1.00 62.37 LIG-0.03  A 
ATOM      4  CD2 TRP J 605      -3.627  23.625  72.505  1.00 57.80 LIG-0.00  A 
ATOM      5  CE3 TRP J 605      -5.012  23.748  72.353  1.00 58.94 LIG 0.01  A 
ATOM      6  CE2 TRP J 605      -3.064  23.833  73.780  1.00 56.30 LIG 0.04  A 
ATOM      7  CZ3 TRP J 605      -5.777  24.068  73.459  1.00 59.47 LIG 0.00  A 
ATOM      8  CH2 TRP J 605      -5.187  24.269  74.714  1.00 55.92 LIG 0.00  A 
ATOM      9  CZ2 TRP J 605      -3.836  24.156  74.894  1.00 56.02 LIG 0.03  A 
ATOM     10  NE1 TRP J 605      -1.710  23.657  73.664  1.00 57.88 LIG-0.36  N 
ATOM     11  CD1 TRP J 605      -1.412  23.347  72.361  1.00 63.10 LIG 0.10  A 
ATOM     12 HE1  TRP J 605      -1.139  23.730  74.304  1.00 57.88 LIG 0.17  HD
ENDBRANCH 2 3
ENDBRANCH 1 2
BRANCH 1 13
ATOM     13  C   TRP J 605      -4.563  22.539  68.580  1.00 60.32 LIG 0.24  C 
ATOM     14  N   ASN J 606      -5.687  21.886  68.294  1.00 74.38 LIG-0.34  N 
ATOM     15 H    ASN J 606      -5.939  21.177  68.713  1.00 74.38 LIG 0.16  HD
ATOM     16 O    TRP J 605      -4.152  23.498  67.926  1.00 56.87 LIG-0.27  OA
BRANCH 14 17
ATOM     17  CA  ASN J 606      -6.612  22.304  67.239  1.00 65.98 LIG 0.19  C 
BRANCH 17 18
ATOM     18  C   ASN J 606      -7.338  23.614  67.530  1.00 66.37 LIG 0.20  C 
ATOM     19 O    ASN J 606      -7.885  23.810  68.614  1.00 70.67 LIG-0.65  OA
ATOM     20 OXT  ASN J 606      -7.379  24.512  66.688  1.00 61.82 LIG-0.65  OA
ENDBRANCH 17 18
BRANCH 17 21
ATOM     21  CB  ASN J 606      -7.633  21.197  66.972  1.00 63.43 LIG 0.14  C 
BRANCH 21 22
ATOM     22  CG  ASN J 606      -8.247  20.652  68.250  1.00 67.06 LIG 0.22  C 
ATOM     23  ND2 ASN J 606      -7.459  19.908  69.016  1.00 58.48 LIG-0.37  N 
ATOM     24 22HD ASN J 606      -6.646  19.758  68.779  1.00 58.48 LIG 0.16  HD
ATOM     25 21HD ASN J 606      -7.762  19.576  69.749  1.00 58.48 LIG 0.16  HD
ATOM     26 OD1  ASN J 606      -9.418  20.898  68.541  1.00 73.16 LIG-0.27  OA
ENDBRANCH 21 22
ENDBRANCH 17 21
ENDBRANCH 14 17
ENDBRANCH 1 13
BRANCH 1 27
ATOM     27  N   TRP J 605      -3.250  20.680  69.612  1.00 80.26 LIG-0.34  N 
ATOM     28  C   ASP J 604      -2.810  19.921  70.615  1.00 69.06 LIG 0.26  C 
ATOM     29 O    ASP J 604      -2.761  20.301  71.785  1.00 67.02 LIG-0.27  OA
ATOM     30 H    TRP J 605      -3.244  20.421  68.792  1.00 80.26 LIG 0.16  HD
BRANCH 28 31
ATOM     31  CA  ASP J 604      -2.349  18.515  70.237  1.00 80.57 LIG 0.41  C 
ATOM     32  N   ASP J 604      -2.940  18.101  68.970  1.00 92.85 LIG 0.61  N 
BRANCH 31 33
ATOM     33  CB  ASP J 604      -0.822  18.454  70.159  1.00 75.75 LIG 0.16  C 
BRANCH 33 34
ATOM     34  CG  ASP J 604      -0.201  17.754  71.353  1.00 69.63 LIG 0.17  C 
ATOM     35 OD1  ASP J 604       1.044  17.723  71.445  1.00 75.49 LIG-0.65  OA
ATOM     36 OD2  ASP J 604      -0.959  17.239  72.201  1.00 69.41 LIG-0.65  OA
ENDBRANCH 33 34
ENDBRANCH 31 33
ENDBRANCH 28 31
ENDBRANCH 1 27
TORSDOF 11
ENDMDL
MODEL 24
USER: ADFR SOLUTION from run 86
USER: SCORE 13.117985 LL:  -2.290 LR: -11.978 RR:   0.000 FEB:  -8.696
USER: RMSD 6.734086
USER: SEED 85
USER: STATUS no improvement in best in 6 clusters for 5 generations
USER: GENES 13
USER: genes 0 Translation |==|  0.57458 0.46692 0.30563
USER: genes 1 Rotation |==|  0.14563 0.37360 0.65048 0.79291
USER: genes 2 Torsion [C]-CA--CB-[CG] |==|  0.78776
USER: genes 3 Torsion [CA]-CB--CG-[CD2] |==|  0.59673
USER: genes 4 Torsion [N]-CA--C-[N] |==|  0.95497
USER: genes 5 Torsion [C]-N--CA-[CB] |==|  0.79164
USER: genes 6 Torsion [N]-CA--C-[O] |==|  0.10304
USER: genes 7 Torsion [N]-CA--CB-[CG] |==|  0.81689
USER: genes 8 Torsion [CA]-CB--CG-[ND2] |==|  0.63537
USER: genes 9 Torsion [CB]-CA--N-[C] |==|  0.28869
USER: genes 10 Torsion [N]-C--CA-[N] |==|  0.57011
USER: genes 11 Torsion [C]-CA--CB-[CG] |==|  0.67367
USER: genes 12 Torsion [CA]-CB--CG-[OD1] |==|  0.61645
ROOT
ATOM      1  CA  TRP J 605      -1.923  20.603  67.135  1.00 71.61 LIG 0.18  C 
ENDROOT
BRANCH 1 2
ATOM      2  CB  TRP J 605      -3.088  20.520  66.141  1.00 65.14 LIG 0.07  C 
BRANCH 2 3
ATOM      3  CG  TRP J 605      -4.370  20.024  66.741  1.00 62.37 LIG-0.03  A 
ATOM      4  CD2 TRP J 605      -5.357  19.209  66.100  1.00 57.80 LIG-0.00  A 
ATOM      5  CE3 TRP J 605      -5.475  18.651  64.822  1.00 58.94 LIG 0.01  A 
ATOM      6  CE2 TRP J 605      -6.384  18.980  67.037  1.00 56.30 LIG 0.04  A 
ATOM      7  CZ3 TRP J 605      -6.595  17.896  64.528  1.00 59.47 LIG 0.00  A 
ATOM      8  CH2 TRP J 605      -7.599  17.686  65.482  1.00 55.92 LIG 0.00  A 
ATOM      9  CZ2 TRP J 605      -7.512  18.218  66.738  1.00 56.02 LIG 0.03  A 
ATOM     10  NE1 TRP J 605      -6.034  19.624  68.195  1.00 57.88 LIG-0.36  N 
ATOM     11  CD1 TRP J 605      -4.825  20.246  68.009  1.00 63.10 LIG 0.10  A 
ATOM     12 HE1  TRP J 605      -6.497  19.637  68.920  1.00 57.88 LIG 0.17  HD
ENDBRANCH 2 3
ENDBRANCH 1 2
BRANCH 1 13
ATOM     13  C   TRP J 605      -2.092  21.831  68.032  1.00 60.32 LIG 0.24  C 
ATOM     14  N   ASN J 606      -2.441  21.585  69.293  1.00 74.38 LIG-0.34  N 
ATOM     15 H    ASN J 606      -2.634  20.798  69.581  1.00 74.38 LIG 0.16  HD
ATOM     16 O    TRP J 605      -1.904  22.965  67.590  1.00 56.87 LIG-0.27  OA
BRANCH 14 17
ATOM     17  CA  ASN J 606      -2.535  22.626  70.317  1.00 65.98 LIG 0.19  C 
BRANCH 17 18
ATOM     18  C   ASN J 606      -3.330  23.855  69.885  1.00 66.37 LIG 0.20  C 
ATOM     19 O    ASN J 606      -4.329  23.749  69.177  1.00 70.67 LIG-0.65  OA
ATOM     20 OXT  ASN J 606      -2.993  24.983  70.249  1.00 61.82 LIG-0.65  OA
ENDBRANCH 17 18
BRANCH 17 21
ATOM     21  CB  ASN J 606      -1.134  23.048  70.761  1.00 63.43 LIG 0.14  C 
BRANCH 21 22
ATOM     22  CG  ASN J 606      -0.390  21.933  71.476  1.00 67.06 LIG 0.22  C 
ATOM     23  ND2 ASN J 606       0.187  22.249  72.629  1.00 58.48 LIG-0.37  N 
ATOM     24 22HD ASN J 606       0.127  23.052  72.933  1.00 58.48 LIG 0.16  HD
ATOM     25 21HD ASN J 606       0.620  21.653  73.070  1.00 58.48 LIG 0.16  HD
ATOM     26 OD1  ASN J 606      -0.336  20.801  70.994  1.00 73.16 LIG-0.27  OA
ENDBRANCH 21 22
ENDBRANCH 17 21
ENDBRANCH 14 17
ENDBRANCH 1 13
BRANCH 1 27
ATOM     27  N   TRP J 605      -1.806  19.353  67.889  1.00 80.26 LIG-0.34  N 
ATOM     28  C   ASP J 604      -0.869  18.436  67.651  1.00 69.06 LIG 0.26  C 
ATOM     29 O    ASP J 604      -0.046  18.525  66.738  1.00 67.02 LIG-0.27  OA
ATOM     30 H    TRP J 605      -2.401  19.264  68.504  1.00 80.26 LIG 0.16  HD
BRANCH 28 31
ATOM     31  CA  ASP J 604      -0.860  17.228  68.585  1.00 80.57 LIG 0.41  C 
ATOM     32  N   ASP J 604       0.470  16.631  68.643  1.00 92.85 LIG 0.61  N 
BRANCH 31 33
ATOM     33  CB  ASP J 604      -1.327  17.631  69.985  1.00 75.75 LIG 0.16  C 
BRANCH 33 34
ATOM     34  CG  ASP J 604      -0.255  17.430  71.040  1.00 69.63 LIG 0.17  C 
ATOM     35 OD1  ASP J 604      -0.586  16.947  72.143  1.00 75.49 LIG-0.65  OA
ATOM     36 OD2  ASP J 604       0.919  17.752  70.764  1.00 69.41 LIG-0.65  OA
ENDBRANCH 33 34
ENDBRANCH 31 33
ENDBRANCH 28 31
ENDBRANCH 1 27
TORSDOF 11
ENDMDL
MODEL 25
USER: ADFR SOLUTION from run 143
USER: SCORE 13.989577 LL:  -2.117 LR: -11.959 RR:   0.000 FEB:  -8.678
USER: RMSD 7.263464
USER: SEED 142
USER: STATUS no improvement in best in 9 clusters for 5 generations
USER: GENES 13
USER: genes 0 Translation |==|  0.62220 0.55852 0.55747
USER: genes 1 Rotation |==|  0.89754 0.62767 0.26563 0.64398
USER: genes 2 Torsion [C]-CA--CB-[CG] |==|  0.04449
USER: genes 3 Torsion [CA]-CB--CG-[CD2] |==|  0.26474
USER: genes 4 Torsion [N]-CA--C-[N] |==|  0.34214
USER: genes 5 Torsion [C]-N--CA-[CB] |==|  0.79025
USER: genes 6 Torsion [N]-CA--C-[O] |==|  0.04272
USER: genes 7 Torsion [N]-CA--CB-[CG] |==|  0.72265
USER: genes 8 Torsion [CA]-CB--CG-[ND2] |==|  0.43445
USER: genes 9 Torsion [CB]-CA--N-[C] |==|  0.81103
USER: genes 10 Torsion [N]-C--CA-[N] |==|  0.20180
USER: genes 11 Torsion [C]-CA--CB-[CG] |==|  0.78900
USER: genes 12 Torsion [CA]-CB--CG-[OD1] |==|  0.33100
ROOT
ATOM      1  CA  TRP J 605      -1.102  22.046  71.479  1.00 71.61 LIG 0.18  C 
ENDROOT
BRANCH 1 2
ATOM      2  CB  TRP J 605      -1.300  20.612  71.988  1.00 65.14 LIG 0.07  C 
BRANCH 2 3
ATOM      3  CG  TRP J 605      -2.077  19.734  71.053  1.00 62.37 LIG-0.03  A 
ATOM      4  CD2 TRP J 605      -1.539  18.836  70.076  1.00 57.80 LIG-0.00  A 
ATOM      5  CE3 TRP J 605      -0.241  18.499  69.676  1.00 58.94 LIG 0.01  A 
ATOM      6  CE2 TRP J 605      -2.628  18.212  69.436  1.00 56.30 LIG 0.04  A 
ATOM      7  CZ3 TRP J 605      -0.076  17.567  68.669  1.00 59.47 LIG 0.00  A 
ATOM      8  CH2 TRP J 605      -1.180  16.964  68.052  1.00 55.92 LIG 0.00  A 
ATOM      9  CZ2 TRP J 605      -2.460  17.273  68.421  1.00 56.02 LIG 0.03  A 
ATOM     10  NE1 TRP J 605      -3.774  18.707  70.001  1.00 57.88 LIG-0.36  N 
ATOM     11  CD1 TRP J 605      -3.435  19.617  70.971  1.00 63.10 LIG 0.10  A 
ATOM     12 HE1  TRP J 605      -4.576  18.484  69.784  1.00 57.88 LIG 0.17  HD
ENDBRANCH 2 3
ENDBRANCH 1 2
BRANCH 1 13
ATOM     13  C   TRP J 605      -2.077  22.331  70.336  1.00 60.32 LIG 0.24  C 
ATOM     14  N   ASN J 606      -1.527  22.511  69.136  1.00 74.38 LIG-0.34  N 
ATOM     15 H    ASN J 606      -0.677  22.540  69.009  1.00 74.38 LIG 0.16  HD
ATOM     16 O    TRP J 605      -3.291  22.380  70.539  1.00 56.87 LIG-0.27  OA
BRANCH 14 17
ATOM     17  CA  ASN J 606      -2.311  22.679  67.912  1.00 65.98 LIG 0.19  C 
BRANCH 17 18
ATOM     18  C   ASN J 606      -3.441  23.699  68.030  1.00 66.37 LIG 0.20  C 
ATOM     19 O    ASN J 606      -3.478  24.500  68.961  1.00 70.67 LIG-0.65  OA
ATOM     20 OXT  ASN J 606      -4.335  23.749  67.185  1.00 61.82 LIG-0.65  OA
ENDBRANCH 17 18
BRANCH 17 21
ATOM     21  CB  ASN J 606      -2.878  21.331  67.467  1.00 63.43 LIG 0.14  C 
BRANCH 21 22
ATOM     22  CG  ASN J 606      -2.063  20.697  66.352  1.00 67.06 LIG 0.22  C 
ATOM     23  ND2 ASN J 606      -2.153  19.379  66.228  1.00 58.48 LIG-0.37  N 
ATOM     24 22HD ASN J 606      -2.655  18.930  66.764  1.00 58.48 LIG 0.16  HD
ATOM     25 21HD ASN J 606      -1.710  18.974  65.613  1.00 58.48 LIG 0.16  HD
ATOM     26 OD1  ASN J 606      -1.361  21.388  65.613  1.00 73.16 LIG-0.27  OA
ENDBRANCH 21 22
ENDBRANCH 17 21
ENDBRANCH 14 17
ENDBRANCH 1 13
BRANCH 1 27
ATOM     27  N   TRP J 605      -1.217  23.000  72.585  1.00 80.26 LIG-0.34  N 
ATOM     28  C   ASP J 604      -2.357  23.243  73.230  1.00 69.06 LIG 0.26  C 
ATOM     29 O    ASP J 604      -3.435  22.731  72.924  1.00 67.02 LIG-0.27  OA
ATOM     30 H    TRP J 605      -0.476  23.391  72.780  1.00 80.26 LIG 0.16  HD
BRANCH 28 31
ATOM     31  CA  ASP J 604      -2.269  24.220  74.401  1.00 80.57 LIG 0.41  C 
ATOM     32  N   ASP J 604      -2.085  25.585  73.921  1.00 92.85 LIG 0.61  N 
BRANCH 31 33
ATOM     33  CB  ASP J 604      -3.521  24.124  75.274  1.00 75.75 LIG 0.16  C 
BRANCH 33 34
ATOM     34  CG  ASP J 604      -4.724  24.806  74.649  1.00 69.63 LIG 0.17  C 
ATOM     35 OD1  ASP J 604      -5.734  24.118  74.392  1.00 75.49 LIG-0.65  OA
ATOM     36 OD2  ASP J 604      -4.660  26.031  74.418  1.00 69.41 LIG-0.65  OA
ENDBRANCH 33 34
ENDBRANCH 31 33
ENDBRANCH 28 31
ENDBRANCH 1 27
TORSDOF 11
ENDMDL
MODEL 26
USER: ADFR SOLUTION from run 98
USER: SCORE 12.766013 LL:  -1.300 LR: -11.953 RR:   0.000 FEB:  -8.671
USER: RMSD 5.185709
USER: SEED 97
USER: STATUS no improvement in best in 12 clusters for 5 generations
USER: GENES 13
USER: genes 0 Translation |==|  0.44811 0.53574 0.48723
USER: genes 1 Rotation |==|  0.27347 0.80595 0.80447 0.61125
USER: genes 2 Torsion [C]-CA--CB-[CG] |==|  0.77259
USER: genes 3 Torsion [CA]-CB--CG-[CD2] |==|  0.57652
USER: genes 4 Torsion [N]-CA--C-[N] |==|  0.22383
USER: genes 5 Torsion [C]-N--CA-[CB] |==|  0.45442
USER: genes 6 Torsion [N]-CA--C-[O] |==|  0.14080
USER: genes 7 Torsion [N]-CA--CB-[CG] |==|  0.94288
USER: genes 8 Torsion [CA]-CB--CG-[ND2] |==|  0.34515
USER: genes 9 Torsion [CB]-CA--N-[C] |==|  0.67766
USER: genes 10 Torsion [N]-C--CA-[N] |==|  0.73467
USER: genes 11 Torsion [C]-CA--CB-[CG] |==|  0.39222
USER: genes 12 Torsion [CA]-CB--CG-[OD1] |==|  0.52024
ROOT
ATOM      1  CA  TRP J 605      -4.105  21.687  70.268  1.00 71.61 LIG 0.18  C 
ENDROOT
BRANCH 1 2
ATOM      2  CB  TRP J 605      -4.815  22.613  71.262  1.00 65.14 LIG 0.07  C 
BRANCH 2 3
ATOM      3  CG  TRP J 605      -3.885  23.456  72.084  1.00 62.37 LIG-0.03  A 
ATOM      4  CD2 TRP J 605      -4.132  23.974  73.396  1.00 57.80 LIG-0.00  A 
ATOM      5  CE3 TRP J 605      -5.212  23.900  74.282  1.00 58.94 LIG 0.01  A 
ATOM      6  CE2 TRP J 605      -2.986  24.697  73.783  1.00 56.30 LIG 0.04  A 
ATOM      7  CZ3 TRP J 605      -5.115  24.539  75.504  1.00 59.47 LIG 0.00  A 
ATOM      8  CH2 TRP J 605      -3.961  25.250  75.859  1.00 55.92 LIG 0.00  A 
ATOM      9  CZ2 TRP J 605      -2.890  25.340  75.015  1.00 56.02 LIG 0.03  A 
ATOM     10  NE1 TRP J 605      -2.085  24.618  72.754  1.00 57.88 LIG-0.36  N 
ATOM     11  CD1 TRP J 605      -2.631  23.871  71.741  1.00 63.10 LIG 0.10  A 
ATOM     12 HE1  TRP J 605      -1.304  24.978  72.744  1.00 57.88 LIG 0.17  HD
ENDBRANCH 2 3
ENDBRANCH 1 2
BRANCH 1 13
ATOM     13  C   TRP J 605      -3.736  22.466  69.004  1.00 60.32 LIG 0.24  C 
ATOM     14  N   ASN J 606      -3.592  21.740  67.897  1.00 74.38 LIG-0.34  N 
ATOM     15 H    ASN J 606      -3.629  20.881  67.891  1.00 74.38 LIG 0.16  HD
ATOM     16 O    TRP J 605      -3.593  23.688  69.035  1.00 56.87 LIG-0.27  OA
BRANCH 14 17
ATOM     17  CA  ASN J 606      -3.354  22.328  66.577  1.00 65.98 LIG 0.19  C 
BRANCH 17 18
ATOM     18  C   ASN J 606      -4.575  23.016  65.973  1.00 66.37 LIG 0.20  C 
ATOM     19 O    ASN J 606      -5.219  23.844  66.613  1.00 70.67 LIG-0.65  OA
ATOM     20 OXT  ASN J 606      -4.934  22.765  64.822  1.00 61.82 LIG-0.65  OA
ENDBRANCH 17 18
BRANCH 17 21
ATOM     21  CB  ASN J 606      -2.837  21.257  65.616  1.00 63.43 LIG 0.14  C 
BRANCH 21 22
ATOM     22  CG  ASN J 606      -2.243  20.062  66.342  1.00 67.06 LIG 0.22  C 
ATOM     23  ND2 ASN J 606      -2.755  18.874  66.046  1.00 58.48 LIG-0.37  N 
ATOM     24 22HD ASN J 606      -3.390  18.811  65.468  1.00 58.48 LIG 0.16  HD
ATOM     25 21HD ASN J 606      -2.453  18.168  66.431  1.00 58.48 LIG 0.16  HD
ATOM     26 OD1  ASN J 606      -1.334  20.209  67.160  1.00 73.16 LIG-0.27  OA
ENDBRANCH 21 22
ENDBRANCH 17 21
ENDBRANCH 14 17
ENDBRANCH 1 13
BRANCH 1 27
ATOM     27  N   TRP J 605      -2.953  21.043  70.903  1.00 80.26 LIG-0.34  N 
ATOM     28  C   ASP J 604      -1.694  21.243  70.516  1.00 69.06 LIG 0.26  C 
ATOM     29 O    ASP J 604      -1.381  21.944  69.552  1.00 67.02 LIG-0.27  OA
ATOM     30 H    TRP J 605      -3.165  20.521  71.552  1.00 80.26 LIG 0.16  HD
BRANCH 28 31
ATOM     31  CA  ASP J 604      -0.619  20.539  71.342  1.00 80.57 LIG 0.41  C 
ATOM     32  N   ASP J 604      -0.084  21.435  72.362  1.00 92.85 LIG 0.61  N 
BRANCH 31 33
ATOM     33  CB  ASP J 604      -1.184  19.272  71.988  1.00 75.75 LIG 0.16  C 
BRANCH 33 34
ATOM     34  CG  ASP J 604      -0.193  18.123  71.988  1.00 69.63 LIG 0.17  C 
ATOM     35 OD1  ASP J 604      -0.585  16.998  72.362  1.00 75.49 LIG-0.65  OA
ATOM     36 OD2  ASP J 604       0.976  18.345  71.611  1.00 69.41 LIG-0.65  OA
ENDBRANCH 33 34
ENDBRANCH 31 33
ENDBRANCH 28 31
ENDBRANCH 1 27
TORSDOF 11
ENDMDL
MODEL 27
USER: ADFR SOLUTION from run 171
USER: SCORE 12.937204 LL:  -1.740 LR: -11.937 RR:   0.000 FEB:  -8.656
USER: RMSD 5.416070
USER: SEED 170
USER: STATUS no improvement in best in 8 clusters for 5 generations
USER: GENES 13
USER: genes 0 Translation |==|  0.47689 0.49691 0.52162
USER: genes 1 Rotation |==|  0.62283 0.05096 0.32398 0.54784
USER: genes 2 Torsion [C]-CA--CB-[CG] |==|  0.50020
USER: genes 3 Torsion [CA]-CB--CG-[CD2] |==|  0.71894
USER: genes 4 Torsion [N]-CA--C-[N] |==|  0.81111
USER: genes 5 Torsion [C]-N--CA-[CB] |==|  0.13293
USER: genes 6 Torsion [N]-CA--C-[O] |==|  0.08170
USER: genes 7 Torsion [N]-CA--CB-[CG] |==|  0.68243
USER: genes 8 Torsion [CA]-CB--CG-[ND2] |==|  0.89168
USER: genes 9 Torsion [CB]-CA--N-[C] |==|  0.86053
USER: genes 10 Torsion [N]-C--CA-[N] |==|  0.67981
USER: genes 11 Torsion [C]-CA--CB-[CG] |==|  0.30118
USER: genes 12 Torsion [CA]-CB--CG-[OD1] |==|  0.12490
ROOT
ATOM      1  CA  TRP J 605      -3.609  21.075  70.861  1.00 71.61 LIG 0.18  C 
ENDROOT
BRANCH 1 2
ATOM      2  CB  TRP J 605      -3.662  22.608  70.859  1.00 65.14 LIG 0.07  C 
BRANCH 2 3
ATOM      3  CG  TRP J 605      -3.260  23.236  72.161  1.00 62.37 LIG-0.03  A 
ATOM      4  CD2 TRP J 605      -4.136  23.759  73.165  1.00 57.80 LIG-0.00  A 
ATOM      5  CE3 TRP J 605      -5.525  23.874  73.278  1.00 58.94 LIG 0.01  A 
ATOM      6  CE2 TRP J 605      -3.328  24.238  74.216  1.00 56.30 LIG 0.04  A 
ATOM      7  CZ3 TRP J 605      -6.054  24.452  74.417  1.00 59.47 LIG 0.00  A 
ATOM      8  CH2 TRP J 605      -5.224  24.919  75.445  1.00 55.92 LIG 0.00  A 
ATOM      9  CZ2 TRP J 605      -3.863  24.821  75.363  1.00 56.02 LIG 0.03  A 
ATOM     10  NE1 TRP J 605      -2.023  24.012  73.866  1.00 57.88 LIG-0.36  N 
ATOM     11  CD1 TRP J 605      -1.991  23.409  72.633  1.00 63.10 LIG 0.10  A 
ATOM     12 HE1  TRP J 605      -1.335  24.215  74.341  1.00 57.88 LIG 0.17  HD
ENDBRANCH 2 3
ENDBRANCH 1 2
BRANCH 1 13
ATOM     13  C   TRP J 605      -4.033  20.538  69.493  1.00 60.32 LIG 0.24  C 
ATOM     14  N   ASN J 606      -3.342  20.996  68.451  1.00 74.38 LIG-0.34  N 
ATOM     15 H    ASN J 606      -2.742  21.609  68.518  1.00 74.38 LIG 0.16  HD
ATOM     16 O    TRP J 605      -4.956  19.729  69.391  1.00 56.87 LIG-0.27  OA
BRANCH 14 17
ATOM     17  CA  ASN J 606      -3.533  20.507  67.084  1.00 65.98 LIG 0.19  C 
BRANCH 17 18
ATOM     18  C   ASN J 606      -2.784  21.310  66.025  1.00 66.37 LIG 0.20  C 
ATOM     19 O    ASN J 606      -1.731  21.886  66.290  1.00 70.67 LIG-0.65  OA
ATOM     20 OXT  ASN J 606      -3.214  21.388  64.873  1.00 61.82 LIG-0.65  OA
ENDBRANCH 17 18
BRANCH 17 21
ATOM     21  CB  ASN J 606      -5.024  20.472  66.747  1.00 63.43 LIG 0.14  C 
BRANCH 21 22
ATOM     22  CG  ASN J 606      -5.538  19.059  66.530  1.00 67.06 LIG 0.22  C 
ATOM     23  ND2 ASN J 606      -4.730  18.227  65.884  1.00 58.48 LIG-0.37  N 
ATOM     24 22HD ASN J 606      -3.960  18.499  65.613  1.00 58.48 LIG 0.16  HD
ATOM     25 21HD ASN J 606      -4.977  17.417  65.736  1.00 58.48 LIG 0.16  HD
ATOM     26 OD1  ASN J 606      -6.649  18.722  66.939  1.00 73.16 LIG-0.27  OA
ENDBRANCH 21 22
ENDBRANCH 17 21
ENDBRANCH 14 17
ENDBRANCH 1 13
BRANCH 1 27
ATOM     27  N   TRP J 605      -2.282  20.611  71.275  1.00 80.26 LIG-0.34  N 
ATOM     28  C   ASP J 604      -1.147  21.060  70.742  1.00 69.06 LIG 0.26  C 
ATOM     29 O    ASP J 604      -1.104  21.867  69.812  1.00 67.02 LIG-0.27  OA
ATOM     30 H    TRP J 605      -2.305  20.018  71.897  1.00 80.26 LIG 0.16  HD
BRANCH 28 31
ATOM     31  CA  ASP J 604       0.142  20.510  71.350  1.00 80.57 LIG 0.41  C 
ATOM     32  N   ASP J 604       0.903  21.575  71.994  1.00 92.85 LIG 0.61  N 
BRANCH 31 33
ATOM     33  CB  ASP J 604      -0.171  19.396  72.350  1.00 75.75 LIG 0.16  C 
BRANCH 33 34
ATOM     34  CG  ASP J 604       0.219  18.022  71.838  1.00 69.63 LIG 0.17  C 
ATOM     35 OD1  ASP J 604       1.332  17.883  71.289  1.00 75.49 LIG-0.65  OA
ATOM     36 OD2  ASP J 604      -0.587  17.081  71.988  1.00 69.41 LIG-0.65  OA
ENDBRANCH 33 34
ENDBRANCH 31 33
ENDBRANCH 28 31
ENDBRANCH 1 27
TORSDOF 11
ENDMDL
MODEL 28
USER: ADFR SOLUTION from run 104
USER: SCORE 12.369078 LL:  -1.717 LR: -11.932 RR:   0.000 FEB:  -8.650
USER: RMSD 3.622533
USER: SEED 103
USER: STATUS no improvement in best in 9 clusters for 5 generations
USER: GENES 13
USER: genes 0 Translation |==|  0.46521 0.59103 0.43818
USER: genes 1 Rotation |==|  0.66261 0.52097 0.55250 0.96943
USER: genes 2 Torsion [C]-CA--CB-[CG] |==|  0.22862
USER: genes 3 Torsion [CA]-CB--CG-[CD2] |==|  0.43898
USER: genes 4 Torsion [N]-CA--C-[N] |==|  0.86566
USER: genes 5 Torsion [C]-N--CA-[CB] |==|  0.86838
USER: genes 6 Torsion [N]-CA--C-[O] |==|  0.40093
USER: genes 7 Torsion [N]-CA--CB-[CG] |==|  0.48643
USER: genes 8 Torsion [CA]-CB--CG-[ND2] |==|  0.61582
USER: genes 9 Torsion [CB]-CA--N-[C] |==|  0.37222
USER: genes 10 Torsion [N]-C--CA-[N] |==|  0.14462
USER: genes 11 Torsion [C]-CA--CB-[CG] |==|  0.79763
USER: genes 12 Torsion [CA]-CB--CG-[OD1] |==|  0.37179
ROOT
ATOM      1  CA  TRP J 605      -3.810  22.558  69.422  1.00 71.61 LIG 0.18  C 
ENDROOT
BRANCH 1 2
ATOM      2  CB  TRP J 605      -4.558  22.597  70.760  1.00 65.14 LIG 0.07  C 
BRANCH 2 3
ATOM      3  CG  TRP J 605      -3.774  23.212  71.881  1.00 62.37 LIG-0.03  A 
ATOM      4  CD2 TRP J 605      -4.302  23.784  73.083  1.00 57.80 LIG-0.00  A 
ATOM      5  CE3 TRP J 605      -5.595  23.966  73.585  1.00 58.94 LIG 0.01  A 
ATOM      6  CE2 TRP J 605      -3.207  24.230  73.850  1.00 56.30 LIG 0.04  A 
ATOM      7  CZ3 TRP J 605      -5.750  24.577  74.816  1.00 59.47 LIG 0.00  A 
ATOM      8  CH2 TRP J 605      -4.641  25.009  75.555  1.00 55.92 LIG 0.00  A 
ATOM      9  CZ2 TRP J 605      -3.366  24.844  75.090  1.00 56.02 LIG 0.03  A 
ATOM     10  NE1 TRP J 605      -2.068  23.938  73.147  1.00 57.88 LIG-0.36  N 
ATOM     11  CD1 TRP J 605      -2.416  23.327  71.969  1.00 63.10 LIG 0.10  A 
ATOM     12 HE1  TRP J 605      -1.264  24.110  73.403  1.00 57.88 LIG 0.17  HD
ENDBRANCH 2 3
ENDBRANCH 1 2
BRANCH 1 13
ATOM     13  C   TRP J 605      -2.875  21.348  69.384  1.00 60.32 LIG 0.24  C 
ATOM     14  N   ASN J 606      -3.461  20.168  69.188  1.00 74.38 LIG-0.34  N 
ATOM     15 H    ASN J 606      -4.315  20.068  69.155  1.00 74.38 LIG 0.16  HD
ATOM     16 O    TRP J 605      -1.659  21.485  69.523  1.00 56.87 LIG-0.27  OA
BRANCH 14 17
ATOM     17  CA  ASN J 606      -2.715  18.921  69.009  1.00 65.98 LIG 0.19  C 
BRANCH 17 18
ATOM     18  C   ASN J 606      -2.142  18.348  70.302  1.00 66.37 LIG 0.20  C 
ATOM     19 O    ASN J 606      -2.085  17.134  70.488  1.00 70.67 LIG-0.65  OA
ATOM     20 OXT  ASN J 606      -1.710  19.092  71.183  1.00 61.82 LIG-0.65  OA
ENDBRANCH 17 18
BRANCH 17 21
ATOM     21  CB  ASN J 606      -1.591  19.128  67.993  1.00 63.43 LIG 0.14  C 
BRANCH 21 22
ATOM     22  CG  ASN J 606      -0.704  17.904  67.850  1.00 67.06 LIG 0.22  C 
ATOM     23  ND2 ASN J 606       0.602  18.124  67.766  1.00 58.48 LIG-0.37  N 
ATOM     24 22HD ASN J 606       0.905  18.929  67.794  1.00 58.48 LIG 0.16  HD
ATOM     25 21HD ASN J 606       1.145  17.463  67.682  1.00 58.48 LIG 0.16  HD
ATOM     26 OD1  ASN J 606      -1.190  16.773  67.815  1.00 73.16 LIG-0.27  OA
ENDBRANCH 21 22
ENDBRANCH 17 21
ENDBRANCH 14 17
ENDBRANCH 1 13
BRANCH 1 27
ATOM     27  N   TRP J 605      -4.759  22.587  68.306  1.00 80.26 LIG-0.34  N 
ATOM     28  C   ASP J 604      -4.615  23.373  67.240  1.00 69.06 LIG 0.26  C 
ATOM     29 O    ASP J 604      -3.703  24.191  67.116  1.00 67.02 LIG-0.27  OA
ATOM     30 H    TRP J 605      -5.420  22.046  68.402  1.00 80.26 LIG 0.16  HD
BRANCH 28 31
ATOM     31  CA  ASP J 604      -5.668  23.216  66.145  1.00 80.57 LIG 0.41  C 
ATOM     32  N   ASP J 604      -7.012  23.321  66.702  1.00 92.85 LIG 0.61  N 
BRANCH 31 33
ATOM     33  CB  ASP J 604      -5.461  24.262  65.048  1.00 75.75 LIG 0.16  C 
BRANCH 33 34
ATOM     34  CG  ASP J 604      -5.864  25.657  65.487  1.00 69.63 LIG 0.17  C 
ATOM     35 OD1  ASP J 604      -5.091  26.607  65.239  1.00 75.49 LIG-0.65  OA
ATOM     36 OD2  ASP J 604      -6.955  25.805  66.076  1.00 69.41 LIG-0.65  OA
ENDBRANCH 33 34
ENDBRANCH 31 33
ENDBRANCH 28 31
ENDBRANCH 1 27
TORSDOF 11
ENDMDL
MODEL 29
USER: ADFR SOLUTION from run 163
USER: SCORE 13.432785 LL:  -1.757 LR: -11.920 RR:   0.000 FEB:  -8.639
USER: RMSD 5.678053
USER: SEED 162
USER: STATUS no improvement in best in 21 clusters for 5 generations
USER: GENES 13
USER: genes 0 Translation |==|  0.53661 0.52142 0.39422
USER: genes 1 Rotation |==|  0.57248 0.92014 0.75101 0.57230
USER: genes 2 Torsion [C]-CA--CB-[CG] |==|  0.39987
USER: genes 3 Torsion [CA]-CB--CG-[CD2] |==|  0.87181
USER: genes 4 Torsion [N]-CA--C-[N] |==|  0.25955
USER: genes 5 Torsion [C]-N--CA-[CB] |==|  0.36151
USER: genes 6 Torsion [N]-CA--C-[O] |==|  0.39260
USER: genes 7 Torsion [N]-CA--CB-[CG] |==|  0.78457
USER: genes 8 Torsion [CA]-CB--CG-[ND2] |==|  0.22427
USER: genes 9 Torsion [CB]-CA--N-[C] |==|  0.77056
USER: genes 10 Torsion [N]-C--CA-[N] |==|  0.49527
USER: genes 11 Torsion [C]-CA--CB-[CG] |==|  0.28688
USER: genes 12 Torsion [CA]-CB--CG-[OD1] |==|  0.45951
ROOT
ATOM      1  CA  TRP J 605      -2.579  21.461  68.663  1.00 71.61 LIG 0.18  C 
ENDROOT
BRANCH 1 2
ATOM      2  CB  TRP J 605      -1.453  22.359  69.191  1.00 65.14 LIG 0.07  C 
BRANCH 2 3
ATOM      3  CG  TRP J 605      -1.560  22.677  70.654  1.00 62.37 LIG-0.03  A 
ATOM      4  CD2 TRP J 605      -2.736  23.096  71.355  1.00 57.80 LIG-0.00  A 
ATOM      5  CE3 TRP J 605      -4.058  23.342  70.973  1.00 58.94 LIG 0.01  A 
ATOM      6  CE2 TRP J 605      -2.376  23.271  72.707  1.00 56.30 LIG 0.04  A 
ATOM      7  CZ3 TRP J 605      -4.964  23.749  71.935  1.00 59.47 LIG 0.00  A 
ATOM      8  CH2 TRP J 605      -4.576  23.914  73.271  1.00 55.92 LIG 0.00  A 
ATOM      9  CZ2 TRP J 605      -3.291  23.681  73.675  1.00 56.02 LIG 0.03  A 
ATOM     10  NE1 TRP J 605      -1.045  22.970  72.819  1.00 57.88 LIG-0.36  N 
ATOM     11  CD1 TRP J 605      -0.563  22.613  71.585  1.00 63.10 LIG 0.10  A 
ATOM     12 HE1  TRP J 605      -0.585  22.999  73.546  1.00 57.88 LIG 0.17  HD
ENDBRANCH 2 3
ENDBRANCH 1 2
BRANCH 1 13
ATOM     13  C   TRP J 605      -2.949  21.877  67.238  1.00 60.32 LIG 0.24  C 
ATOM     14  N   ASN J 606      -4.244  21.811  66.934  1.00 74.38 LIG-0.34  N 
ATOM     15 H    ASN J 606      -4.836  21.490  67.468  1.00 74.38 LIG 0.16  HD
ATOM     16 O    TRP J 605      -2.085  22.249  66.444  1.00 56.87 LIG-0.27  OA
BRANCH 14 17
ATOM     17  CA  ASN J 606      -4.793  22.277  65.659  1.00 65.98 LIG 0.19  C 
BRANCH 17 18
ATOM     18  C   ASN J 606      -5.566  23.588  65.756  1.00 66.37 LIG 0.20  C 
ATOM     19 O    ASN J 606      -5.486  24.440  64.874  1.00 70.67 LIG-0.65  OA
ATOM     20 OXT  ASN J 606      -6.301  23.816  66.718  1.00 61.82 LIG-0.65  OA
ENDBRANCH 17 18
BRANCH 17 21
ATOM     21  CB  ASN J 606      -5.685  21.195  65.050  1.00 63.43 LIG 0.14  C 
BRANCH 21 22
ATOM     22  CG  ASN J 606      -4.885  20.080  64.398  1.00 67.06 LIG 0.22  C 
ATOM     23  ND2 ASN J 606      -4.396  19.149  65.208  1.00 58.48 LIG-0.37  N 
ATOM     24 22HD ASN J 606      -4.540  19.198  66.055  1.00 58.48 LIG 0.16  HD
ATOM     25 21HD ASN J 606      -3.935  18.499  64.886  1.00 58.48 LIG 0.16  HD
ATOM     26 OD1  ASN J 606      -4.710  20.060  63.179  1.00 73.16 LIG-0.27  OA
ENDBRANCH 21 22
ENDBRANCH 17 21
ENDBRANCH 14 17
ENDBRANCH 1 13
BRANCH 1 27
ATOM     27  N   TRP J 605      -2.200  20.050  68.771  1.00 80.26 LIG-0.34  N 
ATOM     28  C   ASP J 604      -1.443  19.422  67.872  1.00 69.06 LIG 0.26  C 
ATOM     29 O    ASP J 604      -1.036  19.951  66.837  1.00 67.02 LIG-0.27  OA
ATOM     30 H    TRP J 605      -2.513  19.663  69.472  1.00 80.26 LIG 0.16  HD
BRANCH 28 31
ATOM     31  CA  ASP J 604      -1.095  17.969  68.188  1.00 80.57 LIG 0.41  C 
ATOM     32  N   ASP J 604      -0.301  17.384  67.113  1.00 92.85 LIG 0.61  N 
BRANCH 31 33
ATOM     33  CB  ASP J 604      -0.345  17.875  69.518  1.00 75.75 LIG 0.16  C 
BRANCH 33 34
ATOM     34  CG  ASP J 604      -1.222  17.380  70.652  1.00 69.63 LIG 0.17  C 
ATOM     35 OD1  ASP J 604      -0.675  16.999  71.708  1.00 75.49 LIG-0.65  OA
ATOM     36 OD2  ASP J 604      -2.460  17.374  70.488  1.00 69.41 LIG-0.65  OA
ENDBRANCH 33 34
ENDBRANCH 31 33
ENDBRANCH 28 31
ENDBRANCH 1 27
TORSDOF 11
ENDMDL
MODEL 30
USER: ADFR SOLUTION from run 74
USER: SCORE 13.145344 LL:  -2.107 LR: -11.913 RR:   0.000 FEB:  -8.632
USER: RMSD 5.368191
USER: SEED 73
USER: STATUS no improvement in best in 11 clusters for 5 generations
USER: GENES 13
USER: genes 0 Translation |==|  0.49298 0.62574 0.51579
USER: genes 1 Rotation |==|  0.54619 0.92575 0.73189 0.61328
USER: genes 2 Torsion [C]-CA--CB-[CG] |==|  0.43268
USER: genes 3 Torsion [CA]-CB--CG-[CD2] |==|  0.59816
USER: genes 4 Torsion [N]-CA--C-[N] |==|  0.07472
USER: genes 5 Torsion [C]-N--CA-[CB] |==|  0.45813
USER: genes 6 Torsion [N]-CA--C-[O] |==|  0.91190
USER: genes 7 Torsion [N]-CA--CB-[CG] |==|  0.76936
USER: genes 8 Torsion [CA]-CB--CG-[ND2] |==|  0.44476
USER: genes 9 Torsion [CB]-CA--N-[C] |==|  0.80556
USER: genes 10 Torsion [N]-C--CA-[N] |==|  0.29098
USER: genes 11 Torsion [C]-CA--CB-[CG] |==|  0.53668
USER: genes 12 Torsion [CA]-CB--CG-[OD1] |==|  0.92424
ROOT
ATOM      1  CA  TRP J 605      -3.331  23.104  70.760  1.00 71.61 LIG 0.18  C 
ENDROOT
BRANCH 1 2
ATOM      2  CB  TRP J 605      -2.305  24.066  71.372  1.00 65.14 LIG 0.07  C 
BRANCH 2 3
ATOM      3  CG  TRP J 605      -2.509  24.328  72.835  1.00 62.37 LIG-0.03  A 
ATOM      4  CD2 TRP J 605      -2.276  25.561  73.525  1.00 57.80 LIG-0.00  A 
ATOM      5  CE3 TRP J 605      -1.815  26.822  73.132  1.00 58.94 LIG 0.01  A 
ATOM      6  CE2 TRP J 605      -2.610  25.353  74.878  1.00 56.30 LIG 0.04  A 
ATOM      7  CZ3 TRP J 605      -1.704  27.816  74.085  1.00 59.47 LIG 0.00  A 
ATOM      8  CH2 TRP J 605      -2.043  27.578  75.423  1.00 55.92 LIG 0.00  A 
ATOM      9  CZ2 TRP J 605      -2.497  26.357  75.838  1.00 56.02 LIG 0.03  A 
ATOM     10  NE1 TRP J 605      -3.029  24.054  75.002  1.00 57.88 LIG-0.36  N 
ATOM     11  CD1 TRP J 605      -2.967  23.448  73.773  1.00 63.10 LIG 0.10  A 
ATOM     12 HE1  TRP J 605      -3.288  23.680  75.732  1.00 57.88 LIG 0.17  HD
ENDBRANCH 2 3
ENDBRANCH 1 2
BRANCH 1 13
ATOM     13  C   TRP J 605      -3.442  23.351  69.255  1.00 60.32 LIG 0.24  C 
ATOM     14  N   ASN J 606      -3.777  22.295  68.517  1.00 74.38 LIG-0.34  N 
ATOM     15 H    ASN J 606      -3.859  21.502  68.842  1.00 74.38 LIG 0.16  HD
ATOM     16 O    TRP J 605      -3.234  24.469  68.782  1.00 56.87 LIG-0.27  OA
BRANCH 14 17
ATOM     17  CA  ASN J 606      -4.039  22.371  67.079  1.00 65.98 LIG 0.19  C 
BRANCH 17 18
ATOM     18  C   ASN J 606      -5.345  23.074  66.721  1.00 66.37 LIG 0.20  C 
ATOM     19 O    ASN J 606      -6.323  23.016  67.464  1.00 70.67 LIG-0.65  OA
ATOM     20 OXT  ASN J 606      -5.444  23.729  65.682  1.00 61.82 LIG-0.65  OA
ENDBRANCH 17 18
BRANCH 17 21
ATOM     21  CB  ASN J 606      -4.026  20.968  66.472  1.00 63.43 LIG 0.14  C 
BRANCH 21 22
ATOM     22  CG  ASN J 606      -2.621  20.487  66.151  1.00 67.06 LIG 0.22  C 
ATOM     23  ND2 ASN J 606      -2.460  19.176  66.014  1.00 58.48 LIG-0.37  N 
ATOM     24 22HD ASN J 606      -3.133  18.648  66.106  1.00 58.48 LIG 0.16  HD
ATOM     25 21HD ASN J 606      -1.683  18.855  65.833  1.00 58.48 LIG 0.16  HD
ATOM     26 OD1  ASN J 606      -1.693  21.286  66.030  1.00 73.16 LIG-0.27  OA
ENDBRANCH 21 22
ENDBRANCH 17 21
ENDBRANCH 14 17
ENDBRANCH 1 13
BRANCH 1 27
ATOM     27  N   TRP J 605      -2.994  21.718  71.092  1.00 80.26 LIG-0.34  N 
ATOM     28  C   ASP J 604      -1.942  21.077  70.586  1.00 69.06 LIG 0.26  C 
ATOM     29 O    ASP J 604      -1.183  21.568  69.749  1.00 67.02 LIG-0.27  OA
ATOM     30 H    TRP J 605      -3.541  21.355  71.647  1.00 80.26 LIG 0.16  HD
BRANCH 28 31
ATOM     31  CA  ASP J 604      -1.711  19.658  71.102  1.00 80.57 LIG 0.41  C 
ATOM     32  N   ASP J 604      -2.110  18.674  70.102  1.00 92.85 LIG 0.61  N 
BRANCH 31 33
ATOM     33  CB  ASP J 604      -0.244  19.461  71.489  1.00 75.75 LIG 0.16  C 
BRANCH 33 34
ATOM     34  CG  ASP J 604       0.115  18.002  71.702  1.00 69.63 LIG 0.17  C 
ATOM     35 OD1  ASP J 604      -0.783  17.213  72.063  1.00 75.49 LIG-0.65  OA
ATOM     36 OD2  ASP J 604       1.295  17.645  71.506  1.00 69.41 LIG-0.65  OA
ENDBRANCH 33 34
ENDBRANCH 31 33
ENDBRANCH 28 31
ENDBRANCH 1 27
TORSDOF 11
ENDMDL
MODEL 31
USER: ADFR SOLUTION from run 191
USER: SCORE 13.100364 LL:  -1.651 LR: -11.899 RR:   0.000 FEB:  -8.617
USER: RMSD 3.083644
USER: SEED 190
USER: STATUS no improvement in best in 23 clusters for 5 generations
USER: GENES 13
USER: genes 0 Translation |==|  0.47552 0.56829 0.46069
USER: genes 1 Rotation |==|  0.61047 0.53275 0.57497 0.98073
USER: genes 2 Torsion [C]-CA--CB-[CG] |==|  0.20170
USER: genes 3 Torsion [CA]-CB--CG-[CD2] |==|  0.45520
USER: genes 4 Torsion [N]-CA--C-[N] |==|  0.85243
USER: genes 5 Torsion [C]-N--CA-[CB] |==|  0.85941
USER: genes 6 Torsion [N]-CA--C-[O] |==|  0.45562
USER: genes 7 Torsion [N]-CA--CB-[CG] |==|  0.65509
USER: genes 8 Torsion [CA]-CB--CG-[ND2] |==|  0.54376
USER: genes 9 Torsion [CB]-CA--N-[C] |==|  0.88318
USER: genes 10 Torsion [N]-C--CA-[N] |==|  0.37087
USER: genes 11 Torsion [C]-CA--CB-[CG] |==|  0.18071
USER: genes 12 Torsion [CA]-CB--CG-[OD1] |==|  0.60075
ROOT
ATOM      1  CA  TRP J 605      -3.632  22.200  69.810  1.00 71.61 LIG 0.18  C 
ENDROOT
BRANCH 1 2
ATOM      2  CB  TRP J 605      -4.406  22.440  71.112  1.00 65.14 LIG 0.07  C 
BRANCH 2 3
ATOM      3  CG  TRP J 605      -3.620  23.162  72.166  1.00 62.37 LIG-0.03  A 
ATOM      4  CD2 TRP J 605      -4.143  23.807  73.333  1.00 57.80 LIG-0.00  A 
ATOM      5  CE3 TRP J 605      -5.430  23.986  73.849  1.00 58.94 LIG 0.01  A 
ATOM      6  CE2 TRP J 605      -3.048  24.342  74.040  1.00 56.30 LIG 0.04  A 
ATOM      7  CZ3 TRP J 605      -5.581  24.682  75.034  1.00 59.47 LIG 0.00  A 
ATOM      8  CH2 TRP J 605      -4.472  25.203  75.714  1.00 55.92 LIG 0.00  A 
ATOM      9  CZ2 TRP J 605      -3.202  25.043  75.235  1.00 56.02 LIG 0.03  A 
ATOM     10  NE1 TRP J 605      -1.914  24.034  73.336  1.00 57.88 LIG-0.36  N 
ATOM     11  CD1 TRP J 605      -2.266  23.325  72.215  1.00 63.10 LIG 0.10  A 
ATOM     12 HE1  TRP J 605      -1.112  24.250  73.560  1.00 57.88 LIG 0.17  HD
ENDBRANCH 2 3
ENDBRANCH 1 2
BRANCH 1 13
ATOM     13  C   TRP J 605      -2.578  21.112  70.025  1.00 60.32 LIG 0.24  C 
ATOM     14  N   ASN J 606      -3.045  19.875  70.183  1.00 74.38 LIG-0.34  N 
ATOM     15 H    ASN J 606      -3.884  19.693  70.234  1.00 74.38 LIG 0.16  HD
ATOM     16 O    TRP J 605      -1.379  21.391  70.043  1.00 56.87 LIG-0.27  OA
BRANCH 14 17
ATOM     17  CA  ASN J 606      -2.180  18.698  70.285  1.00 65.98 LIG 0.19  C 
BRANCH 17 18
ATOM     18  C   ASN J 606      -1.438  18.584  71.613  1.00 66.37 LIG 0.20  C 
ATOM     19 O    ASN J 606      -0.915  17.527  71.960  1.00 70.67 LIG-0.65  OA
ATOM     20 OXT  ASN J 606      -1.335  19.556  72.363  1.00 61.82 LIG-0.65  OA
ENDBRANCH 17 18
BRANCH 17 21
ATOM     21  CB  ASN J 606      -1.177  18.687  69.131  1.00 63.43 LIG 0.14  C 
BRANCH 21 22
ATOM     22  CG  ASN J 606      -1.238  17.404  68.320  1.00 67.06 LIG 0.22  C 
ATOM     23  ND2 ASN J 606      -0.210  17.162  67.516  1.00 58.48 LIG-0.37  N 
ATOM     24 22HD ASN J 606       0.445  17.719  67.475  1.00 58.48 LIG 0.16  HD
ATOM     25 21HD ASN J 606      -0.199  16.449  67.035  1.00 58.48 LIG 0.16  HD
ATOM     26 OD1  ASN J 606      -2.200  16.642  68.416  1.00 73.16 LIG-0.27  OA
ENDBRANCH 21 22
ENDBRANCH 17 21
ENDBRANCH 14 17
ENDBRANCH 1 13
BRANCH 1 27
ATOM     27  N   TRP J 605      -4.557  21.895  68.715  1.00 80.26 LIG-0.34  N 
ATOM     28  C   ASP J 604      -5.611  21.092  68.846  1.00 69.06 LIG 0.26  C 
ATOM     29 O    ASP J 604      -5.880  20.485  69.883  1.00 67.02 LIG-0.27  OA
ATOM     30 H    TRP J 605      -4.354  22.285  67.976  1.00 80.26 LIG 0.16  HD
BRANCH 28 31
ATOM     31  CA  ASP J 604      -6.501  20.948  67.612  1.00 80.57 LIG 0.41  C 
ATOM     32  N   ASP J 604      -6.815  19.545  67.364  1.00 92.85 LIG 0.61  N 
BRANCH 31 33
ATOM     33  CB  ASP J 604      -7.785  21.762  67.781  1.00 75.75 LIG 0.16  C 
BRANCH 33 34
ATOM     34  CG  ASP J 604      -7.528  23.255  67.852  1.00 69.63 LIG 0.17  C 
ATOM     35 OD1  ASP J 604      -8.236  23.947  68.613  1.00 75.49 LIG-0.65  OA
ATOM     36 OD2  ASP J 604      -6.615  23.736  67.149  1.00 69.41 LIG-0.65  OA
ENDBRANCH 33 34
ENDBRANCH 31 33
ENDBRANCH 28 31
ENDBRANCH 1 27
TORSDOF 11
ENDMDL
MODEL 32
USER: ADFR SOLUTION from run 130
USER: SCORE 13.826320 LL:  -2.198 LR: -11.878 RR:   0.000 FEB:  -8.597
USER: RMSD 6.227424
USER: SEED 129
USER: STATUS no improvement in best in 15 clusters for 5 generations
USER: GENES 13
USER: genes 0 Translation |==|  0.58256 0.44728 0.28079
USER: genes 1 Rotation |==|  0.18634 0.34369 0.74819 0.75610
USER: genes 2 Torsion [C]-CA--CB-[CG] |==|  0.07299
USER: genes 3 Torsion [CA]-CB--CG-[CD2] |==|  0.72455
USER: genes 4 Torsion [N]-CA--C-[N] |==|  0.87222
USER: genes 5 Torsion [C]-N--CA-[CB] |==|  0.85166
USER: genes 6 Torsion [N]-CA--C-[O] |==|  0.31881
USER: genes 7 Torsion [N]-CA--CB-[CG] |==|  0.53424
USER: genes 8 Torsion [CA]-CB--CG-[ND2] |==|  0.34924
USER: genes 9 Torsion [CB]-CA--N-[C] |==|  0.86894
USER: genes 10 Torsion [N]-C--CA-[N] |==|  0.82231
USER: genes 11 Torsion [C]-CA--CB-[CG] |==|  0.34325
USER: genes 12 Torsion [CA]-CB--CG-[OD1] |==|  0.43908
ROOT
ATOM      1  CA  TRP J 605      -1.786  20.294  66.707  1.00 71.61 LIG 0.18  C 
ENDROOT
BRANCH 1 2
ATOM      2  CB  TRP J 605      -2.994  19.661  66.005  1.00 65.14 LIG 0.07  C 
BRANCH 2 3
ATOM      3  CG  TRP J 605      -4.146  20.601  65.806  1.00 62.37 LIG-0.03  A 
ATOM      4  CD2 TRP J 605      -5.322  20.698  66.617  1.00 57.80 LIG-0.00  A 
ATOM      5  CE3 TRP J 605      -5.778  20.020  67.752  1.00 58.94 LIG 0.01  A 
ATOM      6  CE2 TRP J 605      -6.126  21.717  66.068  1.00 56.30 LIG 0.04  A 
ATOM      7  CZ3 TRP J 605      -6.999  20.376  68.294  1.00 59.47 LIG 0.00  A 
ATOM      8  CH2 TRP J 605      -7.775  21.394  67.725  1.00 55.92 LIG 0.00  A 
ATOM      9  CZ2 TRP J 605      -7.356  22.074  66.615  1.00 56.02 LIG 0.03  A 
ATOM     10  NE1 TRP J 605      -5.466  22.218  64.976  1.00 57.88 LIG-0.36  N 
ATOM     11  CD1 TRP J 605      -4.279  21.544  64.828  1.00 63.10 LIG 0.10  A 
ATOM     12 HE1  TRP J 605      -5.749  22.850  64.467  1.00 57.88 LIG 0.17  HD
ENDBRANCH 2 3
ENDBRANCH 1 2
BRANCH 1 13
ATOM     13  C   TRP J 605      -2.246  21.459  67.586  1.00 60.32 LIG 0.24  C 
ATOM     14  N   ASN J 606      -2.797  21.123  68.750  1.00 74.38 LIG-0.34  N 
ATOM     15 H    ASN J 606      -2.957  20.309  68.977  1.00 74.38 LIG 0.16  HD
ATOM     16 O    TRP J 605      -2.098  22.624  67.217  1.00 56.87 LIG-0.27  OA
BRANCH 14 17
ATOM     17  CA  ASN J 606      -3.188  22.104  69.764  1.00 65.98 LIG 0.19  C 
BRANCH 17 18
ATOM     18  C   ASN J 606      -4.397  22.952  69.377  1.00 66.37 LIG 0.20  C 
ATOM     19 O    ASN J 606      -5.453  22.874  70.000  1.00 70.67 LIG-0.65  OA
ATOM     20 OXT  ASN J 606      -4.334  23.745  68.437  1.00 61.82 LIG-0.65  OA
ENDBRANCH 17 18
BRANCH 17 21
ATOM     21  CB  ASN J 606      -2.004  23.014  70.093  1.00 63.43 LIG 0.14  C 
BRANCH 21 22
ATOM     22  CG  ASN J 606      -2.243  23.852  71.337  1.00 67.06 LIG 0.22  C 
ATOM     23  ND2 ASN J 606      -1.325  23.770  72.293  1.00 58.48 LIG-0.37  N 
ATOM     24 22HD ASN J 606      -0.639  23.261  72.187  1.00 58.48 LIG 0.16  HD
ATOM     25 21HD ASN J 606      -1.416  24.224  73.016  1.00 58.48 LIG 0.16  HD
ATOM     26 OD1  ASN J 606      -3.243  24.563  71.436  1.00 73.16 LIG-0.27  OA
ENDBRANCH 21 22
ENDBRANCH 17 21
ENDBRANCH 14 17
ENDBRANCH 1 13
BRANCH 1 27
ATOM     27  N   TRP J 605      -1.035  19.277  67.447  1.00 80.26 LIG-0.34  N 
ATOM     28  C   ASP J 604      -1.607  18.381  68.251  1.00 69.06 LIG 0.26  C 
ATOM     29 O    ASP J 604      -2.814  18.357  68.493  1.00 67.02 LIG-0.27  OA
ATOM     30 H    TRP J 605      -0.186  19.311  67.314  1.00 80.26 LIG 0.16  HD
BRANCH 28 31
ATOM     31  CA  ASP J 604      -0.670  17.355  68.884  1.00 80.57 LIG 0.41  C 
ATOM     32  N   ASP J 604      -0.062  16.512  67.860  1.00 92.85 LIG 0.61  N 
BRANCH 31 33
ATOM     33  CB  ASP J 604       0.411  18.054  69.711  1.00 75.75 LIG 0.16  C 
BRANCH 33 34
ATOM     34  CG  ASP J 604       0.439  17.586  71.154  1.00 69.63 LIG 0.17  C 
ATOM     35 OD1  ASP J 604       1.489  17.744  71.812  1.00 75.49 LIG-0.65  OA
ATOM     36 OD2  ASP J 604      -0.590  17.064  71.630  1.00 69.41 LIG-0.65  OA
ENDBRANCH 33 34
ENDBRANCH 31 33
ENDBRANCH 28 31
ENDBRANCH 1 27
TORSDOF 11
ENDMDL
MODEL 33
USER: ADFR SOLUTION from run 115
USER: SCORE 13.375433 LL:  -1.915 LR: -11.877 RR:   0.000 FEB:  -8.595
USER: RMSD 6.219610
USER: SEED 114
USER: STATUS no improvement in best in 6 clusters for 5 generations
USER: GENES 13
USER: genes 0 Translation |==|  0.58778 0.50885 0.46295
USER: genes 1 Rotation |==|  0.26210 0.23255 0.55555 0.84466
USER: genes 2 Torsion [C]-CA--CB-[CG] |==|  0.70075
USER: genes 3 Torsion [CA]-CB--CG-[CD2] |==|  0.27677
USER: genes 4 Torsion [N]-CA--C-[N] |==|  0.53283
USER: genes 5 Torsion [C]-N--CA-[CB] |==|  0.32842
USER: genes 6 Torsion [N]-CA--C-[O] |==|  0.96973
USER: genes 7 Torsion [N]-CA--CB-[CG] |==|  0.69443
USER: genes 8 Torsion [CA]-CB--CG-[ND2] |==|  0.28863
USER: genes 9 Torsion [CB]-CA--N-[C] |==|  0.77767
USER: genes 10 Torsion [N]-C--CA-[N] |==|  0.73540
USER: genes 11 Torsion [C]-CA--CB-[CG] |==|  0.20674
USER: genes 12 Torsion [CA]-CB--CG-[OD1] |==|  0.06595
ROOT
ATOM      1  CA  TRP J 605      -1.696  21.263  69.849  1.00 71.61 LIG 0.18  C 
ENDROOT
BRANCH 1 2
ATOM      2  CB  TRP J 605      -2.414  21.785  68.598  1.00 65.14 LIG 0.07  C 
BRANCH 2 3
ATOM      3  CG  TRP J 605      -2.986  20.706  67.727  1.00 62.37 LIG-0.03  A 
ATOM      4  CD2 TRP J 605      -4.349  20.271  67.685  1.00 57.80 LIG-0.00  A 
ATOM      5  CE3 TRP J 605      -5.509  20.644  68.373  1.00 58.94 LIG 0.01  A 
ATOM      6  CE2 TRP J 605      -4.433  19.248  66.720  1.00 56.30 LIG 0.04  A 
ATOM      7  CZ3 TRP J 605      -6.694  19.996  68.079  1.00 59.47 LIG 0.00  A 
ATOM      8  CH2 TRP J 605      -6.745  18.983  67.113  1.00 55.92 LIG 0.00  A 
ATOM      9  CZ2 TRP J 605      -5.628  18.596  66.425  1.00 56.02 LIG 0.03  A 
ATOM     10  NE1 TRP J 605      -3.179  19.074  66.197  1.00 57.88 LIG-0.36  N 
ATOM     11  CD1 TRP J 605      -2.317  19.953  66.805  1.00 63.10 LIG 0.10  A 
ATOM     12 HE1  TRP J 605      -2.965  18.506  65.588  1.00 57.88 LIG 0.17  HD
ENDBRANCH 2 3
ENDBRANCH 1 2
BRANCH 1 13
ATOM     13  C   TRP J 605      -2.538  21.556  71.092  1.00 60.32 LIG 0.24  C 
ATOM     14  N   ASN J 606      -3.069  22.775  71.158  1.00 74.38 LIG-0.34  N 
ATOM     15 H    ASN J 606      -2.901  23.393  70.584  1.00 74.38 LIG 0.16  HD
ATOM     16 O    TRP J 605      -2.702  20.698  71.960  1.00 56.87 LIG-0.27  OA
BRANCH 14 17
ATOM     17  CA  ASN J 606      -3.993  23.191  72.215  1.00 65.98 LIG 0.19  C 
BRANCH 17 18
ATOM     18  C   ASN J 606      -5.378  23.586  71.711  1.00 66.37 LIG 0.20  C 
ATOM     19 O    ASN J 606      -5.599  23.737  70.511  1.00 70.67 LIG-0.65  OA
ATOM     20 OXT  ASN J 606      -6.312  23.749  72.498  1.00 61.82 LIG-0.65  OA
ENDBRANCH 17 18
BRANCH 17 21
ATOM     21  CB  ASN J 606      -3.386  24.345  73.013  1.00 63.43 LIG 0.14  C 
BRANCH 21 22
ATOM     22  CG  ASN J 606      -2.990  23.934  74.421  1.00 67.06 LIG 0.22  C 
ATOM     23  ND2 ASN J 606      -1.695  23.749  74.642  1.00 58.48 LIG-0.37  N 
ATOM     24 22HD ASN J 606      -1.129  23.864  74.004  1.00 58.48 LIG 0.16  HD
ATOM     25 21HD ASN J 606      -1.421  23.514  75.423  1.00 58.48 LIG 0.16  HD
ATOM     26 OD1  ASN J 606      -3.842  23.783  75.297  1.00 73.16 LIG-0.27  OA
ENDBRANCH 21 22
ENDBRANCH 17 21
ENDBRANCH 14 17
ENDBRANCH 1 13
BRANCH 1 27
ATOM     27  N   TRP J 605      -1.371  19.843  69.696  1.00 80.26 LIG-0.34  N 
ATOM     28  C   ASP J 604      -2.253  18.863  69.887  1.00 69.06 LIG 0.26  C 
ATOM     29 O    ASP J 604      -3.410  19.053  70.263  1.00 67.02 LIG-0.27  OA
ATOM     30 H    TRP J 605      -0.553  19.700  69.471  1.00 80.26 LIG 0.16  HD
BRANCH 28 31
ATOM     31  CA  ASP J 604      -1.750  17.447  69.613  1.00 80.57 LIG 0.41  C 
ATOM     32  N   ASP J 604      -2.092  17.031  68.257  1.00 92.85 LIG 0.61  N 
BRANCH 31 33
ATOM     33  CB  ASP J 604      -0.238  17.364  69.831  1.00 75.75 LIG 0.16  C 
BRANCH 33 34
ATOM     34  CG  ASP J 604       0.144  17.374  71.299  1.00 69.63 LIG 0.17  C 
ATOM     35 OD1  ASP J 604      -0.702  16.999  72.138  1.00 75.49 LIG-0.65  OA
ATOM     36 OD2  ASP J 604       1.291  17.754  71.613  1.00 69.41 LIG-0.65  OA
ENDBRANCH 33 34
ENDBRANCH 31 33
ENDBRANCH 28 31
ENDBRANCH 1 27
TORSDOF 11
ENDMDL
MODEL 34
USER: ADFR SOLUTION from run 142
USER: SCORE 13.340819 LL:  -2.282 LR: -11.875 RR:   0.000 FEB:  -8.594
USER: RMSD 5.636581
USER: SEED 141
USER: STATUS no improvement in best in 10 clusters for 5 generations
USER: GENES 13
USER: genes 0 Translation |==|  0.46980 0.45711 0.33371
USER: genes 1 Rotation |==|  0.32267 0.53967 0.08887 0.71899
USER: genes 2 Torsion [C]-CA--CB-[CG] |==|  0.23637
USER: genes 3 Torsion [CA]-CB--CG-[CD2] |==|  0.78967
USER: genes 4 Torsion [N]-CA--C-[N] |==|  0.73930
USER: genes 5 Torsion [C]-N--CA-[CB] |==|  0.34711
USER: genes 6 Torsion [N]-CA--C-[O] |==|  0.40486
USER: genes 7 Torsion [N]-CA--CB-[CG] |==|  0.14274
USER: genes 8 Torsion [CA]-CB--CG-[ND2] |==|  0.39335
USER: genes 9 Torsion [CB]-CA--N-[C] |==|  0.74941
USER: genes 10 Torsion [N]-C--CA-[N] |==|  0.25980
USER: genes 11 Torsion [C]-CA--CB-[CG] |==|  0.63405
USER: genes 12 Torsion [CA]-CB--CG-[OD1] |==|  0.17954
ROOT
ATOM      1  CA  TRP J 605      -3.731  20.448  67.620  1.00 71.61 LIG 0.18  C 
ENDROOT
BRANCH 1 2
ATOM      2  CB  TRP J 605      -2.210  20.588  67.482  1.00 65.14 LIG 0.07  C 
BRANCH 2 3
ATOM      3  CG  TRP J 605      -1.445  19.361  67.882  1.00 62.37 LIG-0.03  A 
ATOM      4  CD2 TRP J 605      -1.191  18.907  69.216  1.00 57.80 LIG-0.00  A 
ATOM      5  CE3 TRP J 605      -1.518  19.393  70.486  1.00 58.94 LIG 0.01  A 
ATOM      6  CE2 TRP J 605      -0.447  17.714  69.117  1.00 56.30 LIG 0.04  A 
ATOM      7  CZ3 TRP J 605      -1.099  18.685  71.597  1.00 59.47 LIG 0.00  A 
ATOM      8  CH2 TRP J 605      -0.360  17.502  71.466  1.00 55.92 LIG 0.00  A 
ATOM      9  CZ2 TRP J 605      -0.025  17.003  70.238  1.00 56.02 LIG 0.03  A 
ATOM     10  NE1 TRP J 605      -0.261  17.456  67.784  1.00 57.88 LIG-0.36  N 
ATOM     11  CD1 TRP J 605      -0.864  18.447  67.051  1.00 63.10 LIG 0.10  A 
ATOM     12 HE1  TRP J 605       0.165  16.783  67.460  1.00 57.88 LIG 0.17  HD
ENDBRANCH 2 3
ENDBRANCH 1 2
BRANCH 1 13
ATOM     13  C   TRP J 605      -4.156  20.772  69.053  1.00 60.32 LIG 0.24  C 
ATOM     14  N   ASN J 606      -3.393  21.652  69.699  1.00 74.38 LIG-0.34  N 
ATOM     15 H    ASN J 606      -2.665  21.972  69.371  1.00 74.38 LIG 0.16  HD
ATOM     16 O    TRP J 605      -5.149  20.242  69.552  1.00 56.87 LIG-0.27  OA
BRANCH 14 17
ATOM     17  CA  ASN J 606      -3.713  22.165  71.032  1.00 65.98 LIG 0.19  C 
BRANCH 17 18
ATOM     18  C   ASN J 606      -4.099  23.641  71.055  1.00 66.37 LIG 0.20  C 
ATOM     19 O    ASN J 606      -4.938  24.066  71.847  1.00 70.67 LIG-0.65  OA
ATOM     20 OXT  ASN J 606      -3.566  24.443  70.287  1.00 61.82 LIG-0.65  OA
ENDBRANCH 17 18
BRANCH 17 21
ATOM     21  CB  ASN J 606      -2.537  21.924  71.979  1.00 63.43 LIG 0.14  C 
BRANCH 21 22
ATOM     22  CG  ASN J 606      -1.221  22.431  71.413  1.00 67.06 LIG 0.22  C 
ATOM     23  ND2 ASN J 606      -0.385  22.999  72.273  1.00 58.48 LIG-0.37  N 
ATOM     24 22HD ASN J 606      -0.601  23.063  73.104  1.00 58.48 LIG 0.16  HD
ATOM     25 21HD ASN J 606       0.371  23.303  72.001  1.00 58.48 LIG 0.16  HD
ATOM     26 OD1  ASN J 606      -0.964  22.314  70.215  1.00 73.16 LIG-0.27  OA
ENDBRANCH 21 22
ENDBRANCH 17 21
ENDBRANCH 14 17
ENDBRANCH 1 13
BRANCH 1 27
ATOM     27  N   TRP J 605      -4.412  21.273  66.618  1.00 80.26 LIG-0.34  N 
ATOM     28  C   ASP J 604      -4.771  22.538  66.829  1.00 69.06 LIG 0.26  C 
ATOM     29 O    ASP J 604      -4.616  23.119  67.904  1.00 67.02 LIG-0.27  OA
ATOM     30 H    TRP J 605      -4.559  20.862  65.877  1.00 80.26 LIG 0.16  HD
BRANCH 28 31
ATOM     31  CA  ASP J 604      -5.409  23.260  65.644  1.00 80.57 LIG 0.41  C 
ATOM     32  N   ASP J 604      -6.864  23.155  65.698  1.00 92.85 LIG 0.61  N 
BRANCH 31 33
ATOM     33  CB  ASP J 604      -4.980  24.728  65.617  1.00 75.75 LIG 0.16  C 
BRANCH 33 34
ATOM     34  CG  ASP J 604      -6.150  25.676  65.435  1.00 69.63 LIG 0.17  C 
ATOM     35 OD1  ASP J 604      -7.017  25.734  66.332  1.00 75.49 LIG-0.65  OA
ATOM     36 OD2  ASP J 604      -6.201  26.367  64.396  1.00 69.41 LIG-0.65  OA
ENDBRANCH 33 34
ENDBRANCH 31 33
ENDBRANCH 28 31
ENDBRANCH 1 27
TORSDOF 11
ENDMDL
MODEL 35
USER: ADFR SOLUTION from run 82
USER: SCORE 13.548468 LL:  -2.579 LR: -11.852 RR:   0.000 FEB:  -8.570
USER: RMSD 7.299913
USER: SEED 81
USER: STATUS no improvement in best in 14 clusters for 5 generations
USER: GENES 13
USER: genes 0 Translation |==|  0.63521 0.53919 0.56289
USER: genes 1 Rotation |==|  0.92470 0.58910 0.29621 0.64198
USER: genes 2 Torsion [C]-CA--CB-[CG] |==|  0.23680
USER: genes 3 Torsion [CA]-CB--CG-[CD2] |==|  0.77968
USER: genes 4 Torsion [N]-CA--C-[N] |==|  0.77814
USER: genes 5 Torsion [C]-N--CA-[CB] |==|  0.20140
USER: genes 6 Torsion [N]-CA--C-[O] |==|  0.91356
USER: genes 7 Torsion [N]-CA--CB-[CG] |==|  0.65636
USER: genes 8 Torsion [CA]-CB--CG-[ND2] |==|  0.87751
USER: genes 9 Torsion [CB]-CA--N-[C] |==|  0.81667
USER: genes 10 Torsion [N]-C--CA-[N] |==|  0.22122
USER: genes 11 Torsion [C]-CA--CB-[CG] |==|  0.75277
USER: genes 12 Torsion [CA]-CB--CG-[OD1] |==|  0.31099
ROOT
ATOM      1  CA  TRP J 605      -0.878  21.741  71.573  1.00 71.61 LIG 0.18  C 
ENDROOT
BRANCH 1 2
ATOM      2  CB  TRP J 605      -1.337  20.349  72.023  1.00 65.14 LIG 0.07  C 
BRANCH 2 3
ATOM      3  CG  TRP J 605      -0.569  19.221  71.400  1.00 62.37 LIG-0.03  A 
ATOM      4  CD2 TRP J 605      -0.750  18.685  70.085  1.00 57.80 LIG-0.00  A 
ATOM      5  CE3 TRP J 605      -1.619  18.977  69.029  1.00 58.94 LIG 0.01  A 
ATOM      6  CE2 TRP J 605       0.190  17.648  69.922  1.00 56.30 LIG 0.04  A 
ATOM      7  CZ3 TRP J 605      -1.522  18.239  67.864  1.00 59.47 LIG 0.00  A 
ATOM      8  CH2 TRP J 605      -0.576  17.214  67.733  1.00 55.92 LIG 0.00  A 
ATOM      9  CZ2 TRP J 605       0.287  16.905  68.748  1.00 56.02 LIG 0.03  A 
ATOM     10  NE1 TRP J 605       0.911  17.562  71.084  1.00 57.88 LIG-0.36  N 
ATOM     11  CD1 TRP J 605       0.451  18.510  71.964  1.00 63.10 LIG 0.10  A 
ATOM     12 HE1  TRP J 605       1.548  17.005  71.238  1.00 57.88 LIG 0.17  HD
ENDBRANCH 2 3
ENDBRANCH 1 2
BRANCH 1 13
ATOM     13  C   TRP J 605      -1.578  22.123  70.267  1.00 60.32 LIG 0.24  C 
ATOM     14  N   ASN J 606      -2.882  21.858  70.210  1.00 74.38 LIG-0.34  N 
ATOM     15 H    ASN J 606      -3.303  21.435  70.830  1.00 74.38 LIG 0.16  HD
ATOM     16 O    TRP J 605      -0.952  22.646  69.345  1.00 56.87 LIG-0.27  OA
BRANCH 14 17
ATOM     17  CA  ASN J 606      -3.733  22.257  69.088  1.00 65.98 LIG 0.19  C 
BRANCH 17 18
ATOM     18  C   ASN J 606      -5.228  22.207  69.392  1.00 66.37 LIG 0.20  C 
ATOM     19 O    ASN J 606      -5.688  21.387  70.184  1.00 70.67 LIG-0.65  OA
ATOM     20 OXT  ASN J 606      -6.006  22.999  68.858  1.00 61.82 LIG-0.65  OA
ENDBRANCH 17 18
BRANCH 17 21
ATOM     21  CB  ASN J 606      -3.425  21.391  67.867  1.00 63.43 LIG 0.14  C 
BRANCH 21 22
ATOM     22  CG  ASN J 606      -3.037  22.216  66.652  1.00 67.06 LIG 0.22  C 
ATOM     23  ND2 ASN J 606      -3.774  23.291  66.405  1.00 58.48 LIG-0.37  N 
ATOM     24 22HD ASN J 606      -4.433  23.490  66.923  1.00 58.48 LIG 0.16  HD
ATOM     25 21HD ASN J 606      -3.595  23.790  65.728  1.00 58.48 LIG 0.16  HD
ATOM     26 OD1  ASN J 606      -2.085  21.886  65.944  1.00 73.16 LIG-0.27  OA
ENDBRANCH 21 22
ENDBRANCH 17 21
ENDBRANCH 14 17
ENDBRANCH 1 13
BRANCH 1 27
ATOM     27  N   TRP J 605      -1.086  22.719  72.644  1.00 80.26 LIG-0.34  N 
ATOM     28  C   ASP J 604      -2.289  23.075  73.089  1.00 69.06 LIG 0.26  C 
ATOM     29 O    ASP J 604      -3.344  22.660  72.608  1.00 67.02 LIG-0.27  OA
ATOM     30 H    TRP J 605      -0.355  23.043  72.960  1.00 80.26 LIG 0.16  HD
BRANCH 28 31
ATOM     31  CA  ASP J 604      -2.307  24.057  74.260  1.00 80.57 LIG 0.41  C 
ATOM     32  N   ASP J 604      -2.082  25.420  73.792  1.00 92.85 LIG 0.61  N 
BRANCH 31 33
ATOM     33  CB  ASP J 604      -3.633  23.964  75.017  1.00 75.75 LIG 0.16  C 
BRANCH 33 34
ATOM     34  CG  ASP J 604      -4.693  24.894  74.459  1.00 69.63 LIG 0.17  C 
ATOM     35 OD1  ASP J 604      -5.686  24.395  73.889  1.00 75.49 LIG-0.65  OA
ATOM     36 OD2  ASP J 604      -4.535  26.125  74.593  1.00 69.41 LIG-0.65  OA
ENDBRANCH 33 34
ENDBRANCH 31 33
ENDBRANCH 28 31
ENDBRANCH 1 27
TORSDOF 11
ENDMDL
MODEL 36
USER: ADFR SOLUTION from run 198
USER: SCORE 13.601937 LL:  -1.765 LR: -11.843 RR:   0.000 FEB:  -8.561
USER: RMSD 6.274710
USER: SEED 197
USER: STATUS no improvement in best in 9 clusters for 5 generations
USER: GENES 13
USER: genes 0 Translation |==|  0.52219 0.46918 0.49860
USER: genes 1 Rotation |==|  0.21915 0.85705 0.35346 0.64888
USER: genes 2 Torsion [C]-CA--CB-[CG] |==|  0.24231
USER: genes 3 Torsion [CA]-CB--CG-[CD2] |==|  0.37778
USER: genes 4 Torsion [N]-CA--C-[N] |==|  0.37722
USER: genes 5 Torsion [C]-N--CA-[CB] |==|  0.80166
USER: genes 6 Torsion [N]-CA--C-[O] |==|  0.68600
USER: genes 7 Torsion [N]-CA--CB-[CG] |==|  0.81750
USER: genes 8 Torsion [CA]-CB--CG-[ND2] |==|  0.37720
USER: genes 9 Torsion [CB]-CA--N-[C] |==|  0.83982
USER: genes 10 Torsion [N]-C--CA-[N] |==|  0.46377
USER: genes 11 Torsion [C]-CA--CB-[CG] |==|  0.05205
USER: genes 12 Torsion [CA]-CB--CG-[OD1] |==|  0.25991
ROOT
ATOM      1  CA  TRP J 605      -2.827  20.639  70.464  1.00 71.61 LIG 0.18  C 
ENDROOT
BRANCH 1 2
ATOM      2  CB  TRP J 605      -2.614  21.473  69.195  1.00 65.14 LIG 0.07  C 
BRANCH 2 3
ATOM      3  CG  TRP J 605      -3.070  20.798  67.935  1.00 62.37 LIG-0.03  A 
ATOM      4  CD2 TRP J 605      -3.816  21.392  66.867  1.00 57.80 LIG-0.00  A 
ATOM      5  CE3 TRP J 605      -4.341  22.669  66.642  1.00 58.94 LIG 0.01  A 
ATOM      6  CE2 TRP J 605      -4.013  20.396  65.890  1.00 56.30 LIG 0.04  A 
ATOM      7  CZ3 TRP J 605      -5.032  22.906  65.469  1.00 59.47 LIG 0.00  A 
ATOM      8  CH2 TRP J 605      -5.211  21.894  64.516  1.00 55.92 LIG 0.00  A 
ATOM      9  CZ2 TRP J 605      -4.710  20.637  64.708  1.00 56.02 LIG 0.03  A 
ATOM     10  NE1 TRP J 605      -3.410  19.252  66.343  1.00 57.88 LIG-0.36  N 
ATOM     11  CD1 TRP J 605      -2.846  19.502  67.569  1.00 63.10 LIG 0.10  A 
ATOM     12 HE1  TRP J 605      -3.390  18.499  65.928  1.00 57.88 LIG 0.17  HD
ENDBRANCH 2 3
ENDBRANCH 1 2
BRANCH 1 13
ATOM     13  C   TRP J 605      -1.622  19.724  70.694  1.00 60.32 LIG 0.24  C 
ATOM     14  N   ASN J 606      -1.777  18.457  70.317  1.00 74.38 LIG-0.34  N 
ATOM     15 H    ASN J 606      -2.522  18.140  70.028  1.00 74.38 LIG 0.16  HD
ATOM     16 O    TRP J 605      -0.585  20.161  71.194  1.00 56.87 LIG-0.27  OA
BRANCH 14 17
ATOM     17  CA  ASN J 606      -0.695  17.471  70.356  1.00 65.98 LIG 0.19  C 
BRANCH 17 18
ATOM     18  C   ASN J 606       0.011  17.374  71.705  1.00 66.37 LIG 0.20  C 
ATOM     19 O    ASN J 606       1.183  17.722  71.836  1.00 70.67 LIG-0.65  OA
ATOM     20 OXT  ASN J 606      -0.585  16.956  72.699  1.00 61.82 LIG-0.65  OA
ENDBRANCH 17 18
BRANCH 17 21
ATOM     21  CB  ASN J 606       0.327  17.776  69.260  1.00 63.43 LIG 0.14  C 
BRANCH 21 22
ATOM     22  CG  ASN J 606      -0.248  17.602  67.865  1.00 67.06 LIG 0.22  C 
ATOM     23  ND2 ASN J 606       0.039  18.552  66.983  1.00 58.48 LIG-0.37  N 
ATOM     24 22HD ASN J 606       0.529  19.221  67.215  1.00 58.48 LIG 0.16  HD
ATOM     25 21HD ASN J 606      -0.264  18.499  66.180  1.00 58.48 LIG 0.16  HD
ATOM     26 OD1  ASN J 606      -0.943  16.625  67.586  1.00 73.16 LIG-0.27  OA
ENDBRANCH 21 22
ENDBRANCH 17 21
ENDBRANCH 14 17
ENDBRANCH 1 13
BRANCH 1 27
ATOM     27  N   TRP J 605      -3.114  21.510  71.606  1.00 80.26 LIG-0.34  N 
ATOM     28  C   ASP J 604      -2.295  22.477  72.016  1.00 69.06 LIG 0.26  C 
ATOM     29 O    ASP J 604      -1.193  22.696  71.510  1.00 67.02 LIG-0.27  OA
ATOM     30 H    TRP J 605      -3.865  21.339  71.989  1.00 80.26 LIG 0.16  HD
BRANCH 28 31
ATOM     31  CA  ASP J 604      -2.795  23.329  73.181  1.00 80.57 LIG 0.41  C 
ATOM     32  N   ASP J 604      -1.710  24.134  73.734  1.00 92.85 LIG 0.61  N 
BRANCH 31 33
ATOM     33  CB  ASP J 604      -3.950  24.226  72.732  1.00 75.75 LIG 0.16  C 
BRANCH 33 34
ATOM     34  CG  ASP J 604      -4.596  23.749  71.446  1.00 69.63 LIG 0.17  C 
ATOM     35 OD1  ASP J 604      -5.595  23.002  71.521  1.00 75.49 LIG-0.65  OA
ATOM     36 OD2  ASP J 604      -4.108  24.124  70.359  1.00 69.41 LIG-0.65  OA
ENDBRANCH 33 34
ENDBRANCH 31 33
ENDBRANCH 28 31
ENDBRANCH 1 27
TORSDOF 11
ENDMDL
MODEL 37
USER: ADFR SOLUTION from run 29
USER: SCORE 13.280174 LL:  -2.760 LR: -11.833 RR:   0.000 FEB:  -8.552
USER: RMSD 5.690859
USER: SEED 28
USER: STATUS no improvement in best in 8 clusters for 5 generations
USER: GENES 13
USER: genes 0 Translation |==|  0.49517 0.39941 0.48417
USER: genes 1 Rotation |==|  0.42318 0.79319 0.89296 0.56102
USER: genes 2 Torsion [C]-CA--CB-[CG] |==|  0.86687
USER: genes 3 Torsion [CA]-CB--CG-[CD2] |==|  0.79585
USER: genes 4 Torsion [N]-CA--C-[N] |==|  0.88011
USER: genes 5 Torsion [C]-N--CA-[CB] |==|  0.80822
USER: genes 6 Torsion [N]-CA--C-[O] |==|  0.07106
USER: genes 7 Torsion [N]-CA--CB-[CG] |==|  0.92398
USER: genes 8 Torsion [CA]-CB--CG-[ND2] |==|  0.34782
USER: genes 9 Torsion [CB]-CA--N-[C] |==|  0.45996
USER: genes 10 Torsion [N]-C--CA-[N] |==|  0.62961
USER: genes 11 Torsion [C]-CA--CB-[CG] |==|  0.22254
USER: genes 12 Torsion [CA]-CB--CG-[OD1] |==|  0.46033
ROOT
ATOM      1  CA  TRP J 605      -3.293  19.540  70.215  1.00 71.61 LIG 0.18  C 
ENDROOT
BRANCH 1 2
ATOM      2  CB  TRP J 605      -3.073  20.132  71.612  1.00 65.14 LIG 0.07  C 
BRANCH 2 3
ATOM      3  CG  TRP J 605      -2.105  21.278  71.645  1.00 62.37 LIG-0.03  A 
ATOM      4  CD2 TRP J 605      -0.682  21.202  71.509  1.00 57.80 LIG-0.00  A 
ATOM      5  CE3 TRP J 605       0.221  20.149  71.329  1.00 58.94 LIG 0.01  A 
ATOM      6  CE2 TRP J 605      -0.183  22.517  71.591  1.00 56.30 LIG 0.04  A 
ATOM      7  CZ3 TRP J 605       1.570  20.438  71.238  1.00 59.47 LIG 0.00  A 
ATOM      8  CH2 TRP J 605       2.035  21.756  71.323  1.00 55.92 LIG 0.00  A 
ATOM      9  CZ2 TRP J 605       1.177  22.806  71.499  1.00 56.02 LIG 0.03  A 
ATOM     10  NE1 TRP J 605      -1.254  23.353  71.765  1.00 57.88 LIG-0.36  N 
ATOM     11  CD1 TRP J 605      -2.403  22.602  71.794  1.00 63.10 LIG 0.10  A 
ATOM     12 HE1  TRP J 605      -1.214  24.208  71.843  1.00 57.88 LIG 0.17  HD
ENDBRANCH 2 3
ENDBRANCH 1 2
BRANCH 1 13
ATOM     13  C   TRP J 605      -3.553  20.663  69.209  1.00 60.32 LIG 0.24  C 
ATOM     14  N   ASN J 606      -2.473  21.295  68.754  1.00 74.38 LIG-0.34  N 
ATOM     15 H    ASN J 606      -1.680  21.142  69.050  1.00 74.38 LIG 0.16  HD
ATOM     16 O    TRP J 605      -4.700  20.940  68.855  1.00 56.87 LIG-0.27  OA
BRANCH 14 17
ATOM     17  CA  ASN J 606      -2.523  22.314  67.705  1.00 65.98 LIG 0.19  C 
BRANCH 17 18
ATOM     18  C   ASN J 606      -3.483  23.464  67.998  1.00 66.37 LIG 0.20  C 
ATOM     19 O    ASN J 606      -3.778  23.766  69.152  1.00 70.67 LIG-0.65  OA
ATOM     20 OXT  ASN J 606      -3.973  24.125  67.081  1.00 61.82 LIG-0.65  OA
ENDBRANCH 17 18
BRANCH 17 21
ATOM     21  CB  ASN J 606      -2.886  21.667  66.367  1.00 63.43 LIG 0.14  C 
BRANCH 21 22
ATOM     22  CG  ASN J 606      -2.461  20.211  66.291  1.00 67.06 LIG 0.22  C 
ATOM     23  ND2 ASN J 606      -3.408  19.331  65.991  1.00 58.48 LIG-0.37  N 
ATOM     24 22HD ASN J 606      -4.214  19.599  65.851  1.00 58.48 LIG 0.16  HD
ATOM     25 21HD ASN J 606      -3.217  18.495  65.938  1.00 58.48 LIG 0.16  HD
ATOM     26 OD1  ASN J 606      -1.292  19.884  66.502  1.00 73.16 LIG-0.27  OA
ENDBRANCH 21 22
ENDBRANCH 17 21
ENDBRANCH 14 17
ENDBRANCH 1 13
BRANCH 1 27
ATOM     27  N   TRP J 605      -2.166  18.682  69.840  1.00 80.26 LIG-0.34  N 
ATOM     28  C   ASP J 604      -2.203  17.825  68.821  1.00 69.06 LIG 0.26  C 
ATOM     29 O    ASP J 604      -3.204  17.631  68.131  1.00 67.02 LIG-0.27  OA
ATOM     30 H    TRP J 605      -1.476  18.783  70.342  1.00 80.26 LIG 0.16  HD
BRANCH 28 31
ATOM     31  CA  ASP J 604      -0.908  17.065  68.539  1.00 80.57 LIG 0.41  C 
ATOM     32  N   ASP J 604      -0.598  17.087  67.113  1.00 92.85 LIG 0.61  N 
BRANCH 31 33
ATOM     33  CB  ASP J 604       0.248  17.658  69.346  1.00 75.75 LIG 0.16  C 
BRANCH 33 34
ATOM     34  CG  ASP J 604       0.261  17.184  70.787  1.00 69.63 LIG 0.17  C 
ATOM     35 OD1  ASP J 604       1.290  17.374  71.469  1.00 75.49 LIG-0.65  OA
ATOM     36 OD2  ASP J 604      -0.760  16.624  71.238  1.00 69.41 LIG-0.65  OA
ENDBRANCH 33 34
ENDBRANCH 31 33
ENDBRANCH 28 31
ENDBRANCH 1 27
TORSDOF 11
ENDMDL
MODEL 38
USER: ADFR SOLUTION from run 190
USER: SCORE 13.595155 LL:  -1.954 LR: -11.803 RR:   0.000 FEB:  -8.521
USER: RMSD 6.596322
USER: SEED 189
USER: STATUS no improvement in best in 11 clusters for 5 generations
USER: GENES 13
USER: genes 0 Translation |==|  0.42798 0.36438 0.37888
USER: genes 1 Rotation |==|  0.63795 0.13679 0.18925 0.54985
USER: genes 2 Torsion [C]-CA--CB-[CG] |==|  0.76145
USER: genes 3 Torsion [CA]-CB--CG-[CD2] |==|  0.69453
USER: genes 4 Torsion [N]-CA--C-[N] |==|  0.10254
USER: genes 5 Torsion [C]-N--CA-[CB] |==|  0.81478
USER: genes 6 Torsion [N]-CA--C-[O] |==|  0.55059
USER: genes 7 Torsion [N]-CA--CB-[CG] |==|  0.79010
USER: genes 8 Torsion [CA]-CB--CG-[ND2] |==|  0.02695
USER: genes 9 Torsion [CB]-CA--N-[C] |==|  0.18330
USER: genes 10 Torsion [N]-C--CA-[N] |==|  0.99538
USER: genes 11 Torsion [C]-CA--CB-[CG] |==|  0.25038
USER: genes 12 Torsion [CA]-CB--CG-[OD1] |==|  0.89823
ROOT
ATOM      1  CA  TRP J 605      -4.452  18.988  68.399  1.00 71.61 LIG 0.18  C 
ENDROOT
BRANCH 1 2
ATOM      2  CB  TRP J 605      -4.565  20.225  69.298  1.00 65.14 LIG 0.07  C 
BRANCH 2 3
ATOM      3  CG  TRP J 605      -3.450  21.213  69.122  1.00 62.37 LIG-0.03  A 
ATOM      4  CD2 TRP J 605      -2.407  21.503  70.059  1.00 57.80 LIG-0.00  A 
ATOM      5  CE3 TRP J 605      -2.092  21.033  71.338  1.00 58.94 LIG 0.01  A 
ATOM      6  CE2 TRP J 605      -1.580  22.483  69.474  1.00 56.30 LIG 0.04  A 
ATOM      7  CZ3 TRP J 605      -0.980  21.546  71.980  1.00 59.47 LIG 0.00  A 
ATOM      8  CH2 TRP J 605      -0.178  22.520  71.371  1.00 55.92 LIG 0.00  A 
ATOM      9  CZ2 TRP J 605      -0.460  22.999  70.123  1.00 56.02 LIG 0.03  A 
ATOM     10  NE1 TRP J 605      -2.096  22.771  68.238  1.00 57.88 LIG-0.36  N 
ATOM     11  CD1 TRP J 605      -3.216  22.004  68.034  1.00 63.10 LIG 0.10  A 
ATOM     12 HE1  TRP J 605      -1.772  23.340  67.680  1.00 57.88 LIG 0.17  HD
ENDBRANCH 2 3
ENDBRANCH 1 2
BRANCH 1 13
ATOM     13  C   TRP J 605      -5.083  19.277  67.035  1.00 60.32 LIG 0.24  C 
ATOM     14  N   ASN J 606      -4.716  18.468  66.044  1.00 74.38 LIG-0.34  N 
ATOM     15 H    ASN J 606      -4.112  17.862  66.131  1.00 74.38 LIG 0.16  HD
ATOM     16 O    TRP J 605      -5.880  20.205  66.893  1.00 56.87 LIG-0.27  OA
BRANCH 14 17
ATOM     17  CA  ASN J 606      -5.303  18.524  64.703  1.00 65.98 LIG 0.19  C 
BRANCH 17 18
ATOM     18  C   ASN J 606      -5.183  19.887  64.028  1.00 66.37 LIG 0.20  C 
ATOM     19 O    ASN J 606      -5.896  20.187  63.072  1.00 70.67 LIG-0.65  OA
ATOM     20 OXT  ASN J 606      -4.376  20.724  64.436  1.00 61.82 LIG-0.65  OA
ENDBRANCH 17 18
BRANCH 17 21
ATOM     21  CB  ASN J 606      -6.772  18.103  64.760  1.00 63.43 LIG 0.14  C 
BRANCH 21 22
ATOM     22  CG  ASN J 606      -6.941  16.602  64.914  1.00 67.06 LIG 0.22  C 
ATOM     23  ND2 ASN J 606      -5.842  15.905  65.176  1.00 58.48 LIG-0.37  N 
ATOM     24 22HD ASN J 606      -5.085  16.308  65.250  1.00 58.48 LIG 0.16  HD
ATOM     25 21HD ASN J 606      -5.886  15.052  65.271  1.00 58.48 LIG 0.16  HD
ATOM     26 OD1  ASN J 606      -8.049  16.076  64.798  1.00 73.16 LIG-0.27  OA
ENDBRANCH 21 22
ENDBRANCH 17 21
ENDBRANCH 14 17
ENDBRANCH 1 13
BRANCH 1 27
ATOM     27  N   TRP J 605      -3.058  18.549  68.306  1.00 80.26 LIG-0.34  N 
ATOM     28  C   ASP J 604      -2.369  18.068  69.340  1.00 69.06 LIG 0.26  C 
ATOM     29 O    ASP J 604      -2.819  17.998  70.484  1.00 67.02 LIG-0.27  OA
ATOM     30 H    TRP J 605      -2.723  18.632  67.518  1.00 80.26 LIG 0.16  HD
BRANCH 28 31
ATOM     31  CA  ASP J 604      -0.948  17.596  69.036  1.00 80.57 LIG 0.41  C 
ATOM     32  N   ASP J 604      -0.649  17.743  67.616  1.00 92.85 LIG 0.61  N 
BRANCH 31 33
ATOM     33  CB  ASP J 604       0.066  18.373  69.878  1.00 75.75 LIG 0.16  C 
BRANCH 33 34
ATOM     34  CG  ASP J 604       0.353  17.706  71.211  1.00 69.63 LIG 0.17  C 
ATOM     35 OD1  ASP J 604      -0.585  17.137  71.808  1.00 75.49 LIG-0.65  OA
ATOM     36 OD2  ASP J 604       1.517  17.749  71.659  1.00 69.41 LIG-0.65  OA
ENDBRANCH 33 34
ENDBRANCH 31 33
ENDBRANCH 28 31
ENDBRANCH 1 27
TORSDOF 11
ENDMDL
MODEL 39
USER: ADFR SOLUTION from run 78
USER: SCORE 12.881074 LL:  -1.976 LR: -11.788 RR:   0.000 FEB:  -8.506
USER: RMSD 5.454459
USER: SEED 77
USER: STATUS no improvement in best in 14 clusters for 5 generations
USER: GENES 13
USER: genes 0 Translation |==|  0.47781 0.60794 0.53978
USER: genes 1 Rotation |==|  0.52856 0.92109 0.74221 0.61492
USER: genes 2 Torsion [C]-CA--CB-[CG] |==|  0.38972
USER: genes 3 Torsion [CA]-CB--CG-[CD2] |==|  0.91571
USER: genes 4 Torsion [N]-CA--C-[N] |==|  0.06098
USER: genes 5 Torsion [C]-N--CA-[CB] |==|  0.84743
USER: genes 6 Torsion [N]-CA--C-[O] |==|  0.80156
USER: genes 7 Torsion [N]-CA--CB-[CG] |==|  0.44584
USER: genes 8 Torsion [CA]-CB--CG-[ND2] |==|  0.18192
USER: genes 9 Torsion [CB]-CA--N-[C] |==|  0.81110
USER: genes 10 Torsion [N]-C--CA-[N] |==|  0.28280
USER: genes 11 Torsion [C]-CA--CB-[CG] |==|  0.56640
USER: genes 12 Torsion [CA]-CB--CG-[OD1] |==|  0.41013
ROOT
ATOM      1  CA  TRP J 605      -3.593  22.824  71.174  1.00 71.61 LIG 0.18  C 
ENDROOT
BRANCH 1 2
ATOM      2  CB  TRP J 605      -2.660  23.831  71.858  1.00 65.14 LIG 0.07  C 
BRANCH 2 3
ATOM      3  CG  TRP J 605      -3.154  24.315  73.190  1.00 62.37 LIG-0.03  A 
ATOM      4  CD2 TRP J 605      -4.520  24.458  73.596  1.00 57.80 LIG-0.00  A 
ATOM      5  CE3 TRP J 605      -5.749  24.235  72.966  1.00 58.94 LIG 0.01  A 
ATOM      6  CE2 TRP J 605      -4.514  24.933  74.923  1.00 56.30 LIG 0.04  A 
ATOM      7  CZ3 TRP J 605      -6.912  24.487  73.670  1.00 59.47 LIG 0.00  A 
ATOM      8  CH2 TRP J 605      -6.873  24.958  74.989  1.00 55.92 LIG 0.00  A 
ATOM      9  CZ2 TRP J 605      -5.687  25.186  75.630  1.00 56.02 LIG 0.03  A 
ATOM     10  NE1 TRP J 605      -3.205  25.067  75.305  1.00 57.88 LIG-0.36  N 
ATOM     11  CD1 TRP J 605      -2.396  24.693  74.260  1.00 63.10 LIG 0.10  A 
ATOM     12 HE1  TRP J 605      -2.933  25.342  76.073  1.00 57.88 LIG 0.17  HD
ENDBRANCH 2 3
ENDBRANCH 1 2
BRANCH 1 13
ATOM     13  C   TRP J 605      -3.651  23.106  69.672  1.00 60.32 LIG 0.24  C 
ATOM     14  N   ASN J 606      -3.780  22.039  68.886  1.00 74.38 LIG-0.34  N 
ATOM     15 H    ASN J 606      -3.761  21.232  69.183  1.00 74.38 LIG 0.16  HD
ATOM     16 O    TRP J 605      -3.585  24.259  69.243  1.00 56.87 LIG-0.27  OA
BRANCH 14 17
ATOM     17  CA  ASN J 606      -3.966  22.128  67.437  1.00 65.98 LIG 0.19  C 
BRANCH 17 18
ATOM     18  C   ASN J 606      -2.742  22.637  66.681  1.00 66.37 LIG 0.20  C 
ATOM     19 O    ASN J 606      -2.393  23.813  66.755  1.00 70.67 LIG-0.65  OA
ATOM     20 OXT  ASN J 606      -2.067  21.873  65.989  1.00 61.82 LIG-0.65  OA
ENDBRANCH 17 18
BRANCH 17 21
ATOM     21  CB  ASN J 606      -5.172  23.013  67.120  1.00 63.43 LIG 0.14  C 
BRANCH 21 22
ATOM     22  CG  ASN J 606      -5.153  23.534  65.693  1.00 67.06 LIG 0.22  C 
ATOM     23  ND2 ASN J 606      -5.275  22.628  64.730  1.00 58.48 LIG-0.37  N 
ATOM     24 22HD ASN J 606      -5.361  21.796  64.931  1.00 58.48 LIG 0.16  HD
ATOM     25 21HD ASN J 606      -5.269  22.873  63.907  1.00 58.48 LIG 0.16  HD
ATOM     26 OD1  ASN J 606      -5.028  24.737  65.462  1.00 73.16 LIG-0.27  OA
ENDBRANCH 21 22
ENDBRANCH 17 21
ENDBRANCH 14 17
ENDBRANCH 1 13
BRANCH 1 27
ATOM     27  N   TRP J 605      -3.181  21.453  71.486  1.00 80.26 LIG-0.34  N 
ATOM     28  C   ASP J 604      -2.049  20.908  71.045  1.00 69.06 LIG 0.26  C 
ATOM     29 O    ASP J 604      -1.266  21.483  70.288  1.00 67.02 LIG-0.27  OA
ATOM     30 H    TRP J 605      -3.742  21.030  71.983  1.00 80.26 LIG 0.16  HD
BRANCH 28 31
ATOM     31  CA  ASP J 604      -1.754  19.490  71.531  1.00 80.57 LIG 0.41  C 
ATOM     32  N   ASP J 604      -2.068  18.514  70.492  1.00 92.85 LIG 0.61  N 
BRANCH 31 33
ATOM     33  CB  ASP J 604      -0.291  19.363  71.959  1.00 75.75 LIG 0.16  C 
BRANCH 33 34
ATOM     34  CG  ASP J 604       0.216  17.935  71.895  1.00 69.63 LIG 0.17  C 
ATOM     35 OD1  ASP J 604       1.417  17.740  71.612  1.00 75.49 LIG-0.65  OA
ATOM     36 OD2  ASP J 604      -0.585  17.008  72.132  1.00 69.41 LIG-0.65  OA
ENDBRANCH 33 34
ENDBRANCH 31 33
ENDBRANCH 28 31
ENDBRANCH 1 27
TORSDOF 11
ENDMDL
MODEL 40
USER: ADFR SOLUTION from run 73
USER: SCORE 13.164978 LL:  -1.808 LR: -11.792 RR:   0.000 FEB:  -8.511
USER: RMSD 5.778758
USER: SEED 72
USER: STATUS no improvement in best in 10 clusters for 5 generations
USER: GENES 13
USER: genes 0 Translation |==|  0.45323 0.52453 0.48077
USER: genes 1 Rotation |==|  0.51069 0.86096 0.84256 0.54741
USER: genes 2 Torsion [C]-CA--CB-[CG] |==|  0.22887
USER: genes 3 Torsion [CA]-CB--CG-[CD2] |==|  0.47576
USER: genes 4 Torsion [N]-CA--C-[N] |==|  0.18027
USER: genes 5 Torsion [C]-N--CA-[CB] |==|  0.42799
USER: genes 6 Torsion [N]-CA--C-[O] |==|  0.93594
USER: genes 7 Torsion [N]-CA--CB-[CG] |==|  0.61780
USER: genes 8 Torsion [CA]-CB--CG-[ND2] |==|  0.84913
USER: genes 9 Torsion [CB]-CA--N-[C] |==|  0.14645
USER: genes 10 Torsion [N]-C--CA-[N] |==|  0.94594
USER: genes 11 Torsion [C]-CA--CB-[CG] |==|  0.27741
USER: genes 12 Torsion [CA]-CB--CG-[OD1] |==|  0.50409
ROOT
ATOM      1  CA  TRP J 605      -4.017  21.510  70.156  1.00 71.61 LIG 0.18  C 
ENDROOT
BRANCH 1 2
ATOM      2  CB  TRP J 605      -3.242  22.355  71.175  1.00 65.14 LIG 0.07  C 
BRANCH 2 3
ATOM      3  CG  TRP J 605      -4.114  23.175  72.079  1.00 62.37 LIG-0.03  A 
ATOM      4  CD2 TRP J 605      -3.696  23.918  73.229  1.00 57.80 LIG-0.00  A 
ATOM      5  CE3 TRP J 605      -2.465  24.118  73.861  1.00 58.94 LIG 0.01  A 
ATOM      6  CE2 TRP J 605      -4.842  24.539  73.765  1.00 56.30 LIG 0.04  A 
ATOM      7  CZ3 TRP J 605      -2.418  24.918  74.988  1.00 59.47 LIG 0.00  A 
ATOM      8  CH2 TRP J 605      -3.575  25.522  75.496  1.00 55.92 LIG 0.00  A 
ATOM      9  CZ2 TRP J 605      -4.793  25.345  74.901  1.00 56.02 LIG 0.03  A 
ATOM     10  NE1 TRP J 605      -5.905  24.191  72.974  1.00 57.88 LIG-0.36  N 
ATOM     11  CD1 TRP J 605      -5.460  23.374  71.965  1.00 63.10 LIG 0.10  A 
ATOM     12 HE1  TRP J 605      -6.720  24.442  73.091  1.00 57.88 LIG 0.17  HD
ENDBRANCH 2 3
ENDBRANCH 1 2
BRANCH 1 13
ATOM     13  C   TRP J 605      -4.396  22.370  68.949  1.00 60.32 LIG 0.24  C 
ATOM     14  N   ASN J 606      -5.227  21.806  68.074  1.00 74.38 LIG-0.34  N 
ATOM     15 H    ASN J 606      -5.486  20.988  68.132  1.00 74.38 LIG 0.16  HD
ATOM     16 O    TRP J 605      -3.950  23.510  68.821  1.00 56.87 LIG-0.27  OA
BRANCH 14 17
ATOM     17  CA  ASN J 606      -5.785  22.519  66.924  1.00 65.98 LIG 0.19  C 
BRANCH 17 18
ATOM     18  C   ASN J 606      -7.005  23.374  67.253  1.00 66.37 LIG 0.20  C 
ATOM     19 O    ASN J 606      -7.701  23.135  68.238  1.00 70.67 LIG-0.65  OA
ATOM     20 OXT  ASN J 606      -7.312  24.334  66.545  1.00 61.82 LIG-0.65  OA
ENDBRANCH 17 18
BRANCH 17 21
ATOM     21  CB  ASN J 606      -6.135  21.526  65.815  1.00 63.43 LIG 0.14  C 
BRANCH 21 22
ATOM     22  CG  ASN J 606      -5.733  22.026  64.438  1.00 67.06 LIG 0.22  C 
ATOM     23  ND2 ASN J 606      -6.193  23.220  64.084  1.00 58.48 LIG-0.37  N 
ATOM     24 22HD ASN J 606      -6.690  23.667  64.625  1.00 58.48 LIG 0.16  HD
ATOM     25 21HD ASN J 606      -5.994  23.545  63.314  1.00 58.48 LIG 0.16  HD
ATOM     26 OD1  ASN J 606      -5.018  21.344  63.703  1.00 73.16 LIG-0.27  OA
ENDBRANCH 21 22
ENDBRANCH 17 21
ENDBRANCH 14 17
ENDBRANCH 1 13
BRANCH 1 27
ATOM     27  N   TRP J 605      -3.249  20.316  69.794  1.00 80.26 LIG-0.34  N 
ATOM     28  C   ASP J 604      -2.753  19.463  70.688  1.00 69.06 LIG 0.26  C 
ATOM     29 O    ASP J 604      -2.843  19.624  71.906  1.00 67.02 LIG-0.27  OA
ATOM     30 H    TRP J 605      -3.148  20.217  68.946  1.00 80.26 LIG 0.16  HD
BRANCH 28 31
ATOM     31  CA  ASP J 604      -2.039  18.237  70.120  1.00 80.57 LIG 0.41  C 
ATOM     32  N   ASP J 604      -2.433  18.009  68.734  1.00 92.85 LIG 0.61  N 
BRANCH 31 33
ATOM     33  CB  ASP J 604      -0.522  18.404  70.224  1.00 75.75 LIG 0.16  C 
BRANCH 33 34
ATOM     34  CG  ASP J 604       0.069  17.664  71.408  1.00 69.63 LIG 0.17  C 
ATOM     35 OD1  ASP J 604       1.298  17.749  71.613  1.00 75.49 LIG-0.65  OA
ATOM     36 OD2  ASP J 604      -0.697  16.999  72.137  1.00 69.41 LIG-0.65  OA
ENDBRANCH 33 34
ENDBRANCH 31 33
ENDBRANCH 28 31
ENDBRANCH 1 27
TORSDOF 11
ENDMDL
MODEL 41
USER: ADFR SOLUTION from run 133
USER: SCORE 13.423741 LL:  -2.309 LR: -11.782 RR:   0.000 FEB:  -8.501
USER: RMSD 6.477984
USER: SEED 132
USER: STATUS no improvement in best in 11 clusters for 5 generations
USER: GENES 13
USER: genes 0 Translation |==|  0.55556 0.53097 0.52802
USER: genes 1 Rotation |==|  0.38299 0.93162 0.32080 0.63377
USER: genes 2 Torsion [C]-CA--CB-[CG] |==|  0.28770
USER: genes 3 Torsion [CA]-CB--CG-[CD2] |==|  0.83017
USER: genes 4 Torsion [N]-CA--C-[N] |==|  0.63945
USER: genes 5 Torsion [C]-N--CA-[CB] |==|  0.50247
USER: genes 6 Torsion [N]-CA--C-[O] |==|  0.25368
USER: genes 7 Torsion [N]-CA--CB-[CG] |==|  0.77870
USER: genes 8 Torsion [CA]-CB--CG-[ND2] |==|  0.29811
USER: genes 9 Torsion [CB]-CA--N-[C] |==|  0.18889
USER: genes 10 Torsion [N]-C--CA-[N] |==|  0.40868
USER: genes 11 Torsion [C]-CA--CB-[CG] |==|  0.83359
USER: genes 12 Torsion [CA]-CB--CG-[OD1] |==|  0.77654
ROOT
ATOM      1  CA  TRP J 605      -2.252  21.612  70.971  1.00 71.61 LIG 0.18  C 
ENDROOT
BRANCH 1 2
ATOM      2  CB  TRP J 605      -1.335  22.221  69.904  1.00 65.14 LIG 0.07  C 
BRANCH 2 3
ATOM      3  CG  TRP J 605      -2.017  22.494  68.596  1.00 62.37 LIG-0.03  A 
ATOM      4  CD2 TRP J 605      -2.640  21.532  67.737  1.00 57.80 LIG-0.00  A 
ATOM      5  CE3 TRP J 605      -2.808  20.145  67.794  1.00 58.94 LIG 0.01  A 
ATOM      6  CE2 TRP J 605      -3.158  22.233  66.629  1.00 56.30 LIG 0.04  A 
ATOM      7  CZ3 TRP J 605      -3.477  19.513  66.762  1.00 59.47 LIG 0.00  A 
ATOM      8  CH2 TRP J 605      -3.980  20.238  65.674  1.00 55.92 LIG 0.00  A 
ATOM      9  CZ2 TRP J 605      -3.831  21.595  65.590  1.00 56.02 LIG 0.03  A 
ATOM     10  NE1 TRP J 605      -2.865  23.560  66.810  1.00 57.88 LIG-0.36  N 
ATOM     11  CD1 TRP J 605      -2.183  23.708  67.992  1.00 63.10 LIG 0.10  A 
ATOM     12 HE1  TRP J 605      -3.074  24.196  66.271  1.00 57.88 LIG 0.17  HD
ENDBRANCH 2 3
ENDBRANCH 1 2
BRANCH 1 13
ATOM     13  C   TRP J 605      -1.968  20.115  71.107  1.00 60.32 LIG 0.24  C 
ATOM     14  N   ASN J 606      -1.108  19.605  70.228  1.00 74.38 LIG-0.34  N 
ATOM     15 H    ASN J 606      -0.780  20.059  69.575  1.00 74.38 LIG 0.16  HD
ATOM     16 O    TRP J 605      -2.511  19.447  71.988  1.00 56.87 LIG-0.27  OA
BRANCH 14 17
ATOM     17  CA  ASN J 606      -0.632  18.222  70.279  1.00 65.98 LIG 0.19  C 
BRANCH 17 18
ATOM     18  C   ASN J 606       0.002  17.831  71.611  1.00 66.37 LIG 0.20  C 
ATOM     19 O    ASN J 606      -0.670  17.336  72.514  1.00 70.67 LIG-0.65  OA
ATOM     20 OXT  ASN J 606       1.208  17.991  71.805  1.00 61.82 LIG-0.65  OA
ENDBRANCH 17 18
BRANCH 17 21
ATOM     21  CB  ASN J 606       0.358  17.969  69.142  1.00 63.43 LIG 0.14  C 
BRANCH 21 22
ATOM     22  CG  ASN J 606      -0.334  17.722  67.813  1.00 67.06 LIG 0.22  C 
ATOM     23  ND2 ASN J 606      -0.260  18.698  66.916  1.00 58.48 LIG-0.37  N 
ATOM     24 22HD ASN J 606       0.165  19.422  67.103  1.00 58.48 LIG 0.16  HD
ATOM     25 21HD ASN J 606      -0.637  18.606  66.149  1.00 58.48 LIG 0.16  HD
ATOM     26 OD1  ASN J 606      -0.929  16.666  67.598  1.00 73.16 LIG-0.27  OA
ENDBRANCH 21 22
ENDBRANCH 17 21
ENDBRANCH 14 17
ENDBRANCH 1 13
BRANCH 1 27
ATOM     27  N   TRP J 605      -2.117  22.340  72.236  1.00 80.26 LIG-0.34  N 
ATOM     28  C   ASP J 604      -2.527  23.595  72.407  1.00 69.06 LIG 0.26  C 
ATOM     29 O    ASP J 604      -3.008  24.284  71.506  1.00 67.02 LIG-0.27  OA
ATOM     30 H    TRP J 605      -1.747  21.879  72.860  1.00 80.26 LIG 0.16  HD
BRANCH 28 31
ATOM     31  CA  ASP J 604      -2.367  24.165  73.816  1.00 80.57 LIG 0.41  C 
ATOM     32  N   ASP J 604      -2.088  25.596  73.763  1.00 92.85 LIG 0.61  N 
BRANCH 31 33
ATOM     33  CB  ASP J 604      -3.622  23.896  74.648  1.00 75.75 LIG 0.16  C 
BRANCH 33 34
ATOM     34  CG  ASP J 604      -4.868  24.518  74.048  1.00 69.63 LIG 0.17  C 
ATOM     35 OD1  ASP J 604      -5.079  25.735  74.238  1.00 75.49 LIG-0.65  OA
ATOM     36 OD2  ASP J 604      -5.635  23.791  73.383  1.00 69.41 LIG-0.65  OA
ENDBRANCH 33 34
ENDBRANCH 31 33
ENDBRANCH 28 31
ENDBRANCH 1 27
TORSDOF 11
ENDMDL
MODEL 42
USER: ADFR SOLUTION from run 94
USER: SCORE 13.385615 LL:  -1.609 LR: -11.781 RR:   0.000 FEB:  -8.499
USER: RMSD 6.022131
USER: SEED 93
USER: STATUS no improvement in best in 9 clusters for 5 generations
USER: GENES 13
USER: genes 0 Translation |==|  0.56919 0.48022 0.40600
USER: genes 1 Rotation |==|  0.27617 0.23004 0.63656 0.82920
USER: genes 2 Torsion [C]-CA--CB-[CG] |==|  0.21417
USER: genes 3 Torsion [CA]-CB--CG-[CD2] |==|  0.55312
USER: genes 4 Torsion [N]-CA--C-[N] |==|  0.39868
USER: genes 5 Torsion [C]-N--CA-[CB] |==|  0.40348
USER: genes 6 Torsion [N]-CA--C-[O] |==|  0.43558
USER: genes 7 Torsion [N]-CA--CB-[CG] |==|  0.61399
USER: genes 8 Torsion [CA]-CB--CG-[ND2] |==|  0.34720
USER: genes 9 Torsion [CB]-CA--N-[C] |==|  0.83284
USER: genes 10 Torsion [N]-C--CA-[N] |==|  0.74620
USER: genes 11 Torsion [C]-CA--CB-[CG] |==|  0.21481
USER: genes 12 Torsion [CA]-CB--CG-[OD1] |==|  0.02473
ROOT
ATOM      1  CA  TRP J 605      -2.016  20.812  68.867  1.00 71.61 LIG 0.18  C 
ENDROOT
BRANCH 1 2
ATOM      2  CB  TRP J 605      -2.967  20.907  67.667  1.00 65.14 LIG 0.07  C 
BRANCH 2 3
ATOM      3  CG  TRP J 605      -3.295  22.313  67.256  1.00 62.37 LIG-0.03  A 
ATOM      4  CD2 TRP J 605      -4.407  22.735  66.459  1.00 57.80 LIG-0.00  A 
ATOM      5  CE3 TRP J 605      -5.464  22.065  65.835  1.00 58.94 LIG 0.01  A 
ATOM      6  CE2 TRP J 605      -4.324  24.136  66.334  1.00 56.30 LIG 0.04  A 
ATOM      7  CZ3 TRP J 605      -6.389  22.802  65.119  1.00 59.47 LIG 0.00  A 
ATOM      8  CH2 TRP J 605      -6.279  24.195  65.014  1.00 55.92 LIG 0.00  A 
ATOM      9  CZ2 TRP J 605      -5.257  24.877  65.613  1.00 56.02 LIG 0.03  A 
ATOM     10  NE1 TRP J 605      -3.215  24.545  67.027  1.00 57.88 LIG-0.36  N 
ATOM     11  CD1 TRP J 605      -2.605  23.446  67.578  1.00 63.10 LIG 0.10  A 
ATOM     12 HE1  TRP J 605      -2.945  25.358  67.104  1.00 57.88 LIG 0.17  HD
ENDBRANCH 2 3
ENDBRANCH 1 2
BRANCH 1 13
ATOM     13  C   TRP J 605      -2.781  21.099  70.160  1.00 60.32 LIG 0.24  C 
ATOM     14  N   ASN J 606      -2.772  22.365  70.571  1.00 74.38 LIG-0.34  N 
ATOM     15 H    ASN J 606      -2.312  22.981  70.185  1.00 74.38 LIG 0.16  HD
ATOM     16 O    TRP J 605      -3.365  20.196  70.761  1.00 56.87 LIG-0.27  OA
BRANCH 14 17
ATOM     17  CA  ASN J 606      -3.543  22.842  71.720  1.00 65.98 LIG 0.19  C 
BRANCH 17 18
ATOM     18  C   ASN J 606      -4.939  23.347  71.368  1.00 66.37 LIG 0.20  C 
ATOM     19 O    ASN J 606      -5.835  23.377  72.209  1.00 70.67 LIG-0.65  OA
ATOM     20 OXT  ASN J 606      -5.195  23.749  70.232  1.00 61.82 LIG-0.65  OA
ENDBRANCH 17 18
BRANCH 17 21
ATOM     21  CB  ASN J 606      -2.767  23.938  72.450  1.00 63.43 LIG 0.14  C 
BRANCH 21 22
ATOM     22  CG  ASN J 606      -2.859  23.809  73.961  1.00 67.06 LIG 0.22  C 
ATOM     23  ND2 ASN J 606      -1.710  23.749  74.622  1.00 58.48 LIG-0.37  N 
ATOM     24 22HD ASN J 606      -0.965  23.784  74.193  1.00 58.48 LIG 0.16  HD
ATOM     25 21HD ASN J 606      -1.710  23.674  75.478  1.00 58.48 LIG 0.16  HD
ATOM     26 OD1  ASN J 606      -3.953  23.763  74.524  1.00 73.16 LIG-0.27  OA
ENDBRANCH 21 22
ENDBRANCH 17 21
ENDBRANCH 14 17
ENDBRANCH 1 13
BRANCH 1 27
ATOM     27  N   TRP J 605      -1.335  19.516  68.877  1.00 80.26 LIG-0.34  N 
ATOM     28  C   ASP J 604      -1.975  18.350  68.956  1.00 69.06 LIG 0.26  C 
ATOM     29 O    ASP J 604      -3.196  18.251  69.085  1.00 67.02 LIG-0.27  OA
ATOM     30 H    TRP J 605      -0.479  19.577  68.826  1.00 80.26 LIG 0.16  HD
BRANCH 28 31
ATOM     31  CA  ASP J 604      -1.101  17.100  68.883  1.00 80.57 LIG 0.41  C 
ATOM     32  N   ASP J 604      -0.971  16.642  67.504  1.00 92.85 LIG 0.61  N 
BRANCH 31 33
ATOM     33  CB  ASP J 604       0.278  17.374  69.487  1.00 75.75 LIG 0.16  C 
BRANCH 33 34
ATOM     34  CG  ASP J 604       0.264  17.375  71.004  1.00 69.63 LIG 0.17  C 
ATOM     35 OD1  ASP J 604      -0.773  16.999  71.591  1.00 75.49 LIG-0.65  OA
ATOM     36 OD2  ASP J 604       1.290  17.749  71.608  1.00 69.41 LIG-0.65  OA
ENDBRANCH 33 34
ENDBRANCH 31 33
ENDBRANCH 28 31
ENDBRANCH 1 27
TORSDOF 11
ENDMDL
MODEL 43
USER: ADFR SOLUTION from run 84
USER: SCORE 13.415216 LL:  -1.781 LR: -11.750 RR:   0.000 FEB:  -8.469
USER: RMSD 6.804675
USER: SEED 83
USER: STATUS no improvement in best in 12 clusters for 5 generations
USER: GENES 13
USER: genes 0 Translation |==|  0.44910 0.47856 0.38603
USER: genes 1 Rotation |==|  0.25721 0.42611 0.82786 0.77947
USER: genes 2 Torsion [C]-CA--CB-[CG] |==|  0.46069
USER: genes 3 Torsion [CA]-CB--CG-[CD2] |==|  0.61028
USER: genes 4 Torsion [N]-CA--C-[N] |==|  0.87856
USER: genes 5 Torsion [C]-N--CA-[CB] |==|  0.83019
USER: genes 6 Torsion [N]-CA--C-[O] |==|  0.95720
USER: genes 7 Torsion [N]-CA--CB-[CG] |==|  0.85185
USER: genes 8 Torsion [CA]-CB--CG-[ND2] |==|  0.72938
USER: genes 9 Torsion [CB]-CA--N-[C] |==|  0.86111
USER: genes 10 Torsion [N]-C--CA-[N] |==|  0.88751
USER: genes 11 Torsion [C]-CA--CB-[CG] |==|  0.39061
USER: genes 12 Torsion [CA]-CB--CG-[OD1] |==|  0.39421
ROOT
ATOM      1  CA  TRP J 605      -4.088  20.786  68.522  1.00 71.61 LIG 0.18  C 
ENDROOT
BRANCH 1 2
ATOM      2  CB  TRP J 605      -5.476  20.136  68.586  1.00 65.14 LIG 0.07  C 
BRANCH 2 3
ATOM      3  CG  TRP J 605      -5.739  19.148  67.489  1.00 62.37 LIG-0.03  A 
ATOM      4  CD2 TRP J 605      -6.966  18.971  66.773  1.00 57.80 LIG-0.00  A 
ATOM      5  CE3 TRP J 605      -8.225  19.577  66.837  1.00 58.94 LIG 0.01  A 
ATOM      6  CE2 TRP J 605      -6.756  17.944  65.830  1.00 56.30 LIG 0.04  A 
ATOM      7  CZ3 TRP J 605      -9.215  19.147  65.974  1.00 59.47 LIG 0.00  A 
ATOM      8  CH2 TRP J 605      -8.975  18.124  65.048  1.00 55.92 LIG 0.00  A 
ATOM      9  CZ2 TRP J 605      -7.756  17.512  64.961  1.00 56.02 LIG 0.03  A 
ATOM     10  NE1 TRP J 605      -5.460  17.521  65.967  1.00 57.88 LIG-0.36  N 
ATOM     11  CD1 TRP J 605      -4.857  18.249  66.962  1.00 63.10 LIG 0.10  A 
ATOM     12 HE1  TRP J 605      -5.085  16.899  65.505  1.00 57.88 LIG 0.17  HD
ENDBRANCH 2 3
ENDBRANCH 1 2
BRANCH 1 13
ATOM     13  C   TRP J 605      -4.043  22.007  69.443  1.00 60.32 LIG 0.24  C 
ATOM     14  N   ASN J 606      -3.858  21.750  70.737  1.00 74.38 LIG-0.34  N 
ATOM     15 H    ASN J 606      -3.836  20.953  71.059  1.00 74.38 LIG 0.16  HD
ATOM     16 O    TRP J 605      -4.167  23.145  68.989  1.00 56.87 LIG-0.27  OA
BRANCH 14 17
ATOM     17  CA  ASN J 606      -3.674  22.797  71.744  1.00 65.98 LIG 0.19  C 
BRANCH 17 18
ATOM     18  C   ASN J 606      -4.872  23.729  71.898  1.00 66.37 LIG 0.20  C 
ATOM     19 O    ASN J 606      -5.760  23.770  71.049  1.00 70.67 LIG-0.65  OA
ATOM     20 OXT  ASN J 606      -4.982  24.454  72.888  1.00 61.82 LIG-0.65  OA
ENDBRANCH 17 18
BRANCH 17 21
ATOM     21  CB  ASN J 606      -2.422  23.614  71.423  1.00 63.43 LIG 0.14  C 
BRANCH 21 22
ATOM     22  CG  ASN J 606      -1.190  22.744  71.244  1.00 67.06 LIG 0.22  C 
ATOM     23  ND2 ASN J 606      -0.391  22.624  72.298  1.00 58.48 LIG-0.37  N 
ATOM     24 22HD ASN J 606      -0.585  23.028  73.033  1.00 58.48 LIG 0.16  HD
ATOM     25 21HD ASN J 606       0.319  22.143  72.246  1.00 58.48 LIG 0.16  HD
ATOM     26 OD1  ASN J 606      -0.960  22.188  70.170  1.00 73.16 LIG-0.27  OA
ENDBRANCH 21 22
ENDBRANCH 17 21
ENDBRANCH 14 17
ENDBRANCH 1 13
BRANCH 1 27
ATOM     27  N   TRP J 605      -3.047  19.800  68.823  1.00 80.26 LIG-0.34  N 
ATOM     28  C   ASP J 604      -3.080  18.999  69.887  1.00 69.06 LIG 0.26  C 
ATOM     29 O    ASP J 604      -3.958  19.048  70.749  1.00 67.02 LIG-0.27  OA
ATOM     30 H    TRP J 605      -2.410  19.786  68.246  1.00 80.26 LIG 0.16  HD
BRANCH 28 31
ATOM     31  CA  ASP J 604      -1.942  17.987  69.998  1.00 80.57 LIG 0.41  C 
ATOM     32  N   ASP J 604      -1.632  17.415  68.692  1.00 92.85 LIG 0.61  N 
BRANCH 31 33
ATOM     33  CB  ASP J 604      -0.699  18.642  70.602  1.00 75.75 LIG 0.16  C 
BRANCH 33 34
ATOM     34  CG  ASP J 604       0.031  17.731  71.571  1.00 69.63 LIG 0.17  C 
ATOM     35 OD1  ASP J 604       1.280  17.749  71.582  1.00 75.49 LIG-0.65  OA
ATOM     36 OD2  ASP J 604      -0.644  16.999  72.324  1.00 69.41 LIG-0.65  OA
ENDBRANCH 33 34
ENDBRANCH 31 33
ENDBRANCH 28 31
ENDBRANCH 1 27
TORSDOF 11
ENDMDL
MODEL 44
USER: ADFR SOLUTION from run 17
USER: SCORE 13.065509 LL:  -2.001 LR: -11.723 RR:   0.000 FEB:  -8.442
USER: RMSD 6.910402
USER: SEED 16
USER: STATUS no improvement in best in 11 clusters for 5 generations
USER: GENES 13
USER: genes 0 Translation |==|  0.57489 0.66144 0.59034
USER: genes 1 Rotation |==|  0.91823 0.67086 0.39947 0.68917
USER: genes 2 Torsion [C]-CA--CB-[CG] |==|  0.22558
USER: genes 3 Torsion [CA]-CB--CG-[CD2] |==|  0.58177
USER: genes 4 Torsion [N]-CA--C-[N] |==|  0.60627
USER: genes 5 Torsion [C]-N--CA-[CB] |==|  0.55322
USER: genes 6 Torsion [N]-CA--C-[O] |==|  0.38690
USER: genes 7 Torsion [N]-CA--CB-[CG] |==|  0.67896
USER: genes 8 Torsion [CA]-CB--CG-[ND2] |==|  0.33016
USER: genes 9 Torsion [CB]-CA--N-[C] |==|  0.15990
USER: genes 10 Torsion [N]-C--CA-[N] |==|  0.86743
USER: genes 11 Torsion [C]-CA--CB-[CG] |==|  0.76588
USER: genes 12 Torsion [CA]-CB--CG-[OD1] |==|  0.27403
ROOT
ATOM      1  CA  TRP J 605      -1.918  23.667  72.046  1.00 71.61 LIG 0.18  C 
ENDROOT
BRANCH 1 2
ATOM      2  CB  TRP J 605      -1.779  22.179  72.391  1.00 65.14 LIG 0.07  C 
BRANCH 2 3
ATOM      3  CG  TRP J 605      -0.480  21.569  71.955  1.00 62.37 LIG-0.03  A 
ATOM      4  CD2 TRP J 605      -0.256  20.204  71.585  1.00 57.80 LIG-0.00  A 
ATOM      5  CE3 TRP J 605      -1.072  19.070  71.517  1.00 58.94 LIG 0.01  A 
ATOM      6  CE2 TRP J 605       1.104  20.082  71.238  1.00 56.30 LIG 0.04  A 
ATOM      7  CZ3 TRP J 605      -0.514  17.872  71.110  1.00 59.47 LIG 0.00  A 
ATOM      8  CH2 TRP J 605       0.842  17.783  70.772  1.00 55.92 LIG 0.00  A 
ATOM      9  CZ2 TRP J 605       1.665  18.874  70.829  1.00 56.02 LIG 0.03  A 
ATOM     10  NE1 TRP J 605       1.678  21.317  71.387  1.00 57.88 LIG-0.36  N 
ATOM     11  CD1 TRP J 605       0.721  22.203  71.815  1.00 63.10 LIG 0.10  A 
ATOM     12 HE1  TRP J 605       2.503  21.507  71.237  1.00 57.88 LIG 0.17  HD
ENDBRANCH 2 3
ENDBRANCH 1 2
BRANCH 1 13
ATOM     13  C   TRP J 605      -2.348  23.824  70.587  1.00 60.32 LIG 0.24  C 
ATOM     14  N   ASN J 606      -2.163  22.759  69.810  1.00 74.38 LIG-0.34  N 
ATOM     15 H    ASN J 606      -1.764  22.045  70.078  1.00 74.38 LIG 0.16  HD
ATOM     16 O    TRP J 605      -2.836  24.880  70.183  1.00 56.87 LIG-0.27  OA
BRANCH 14 17
ATOM     17  CA  ASN J 606      -2.619  22.690  68.420  1.00 65.98 LIG 0.19  C 
BRANCH 17 18
ATOM     18  C   ASN J 606      -3.960  23.374  68.171  1.00 66.37 LIG 0.20  C 
ATOM     19 O    ASN J 606      -4.152  24.047  67.160  1.00 70.67 LIG-0.65  OA
ATOM     20 OXT  ASN J 606      -4.887  23.255  68.973  1.00 61.82 LIG-0.65  OA
ENDBRANCH 17 18
BRANCH 17 21
ATOM     21  CB  ASN J 606      -2.692  21.231  67.968  1.00 63.43 LIG 0.14  C 
BRANCH 21 22
ATOM     22  CG  ASN J 606      -1.710  20.919  66.852  1.00 67.06 LIG 0.22  C 
ATOM     23  ND2 ASN J 606      -0.789  19.999  67.113  1.00 58.48 LIG-0.37  N 
ATOM     24 22HD ASN J 606      -0.772  19.614  67.882  1.00 58.48 LIG 0.16  HD
ATOM     25 21HD ASN J 606      -0.210  19.788  66.514  1.00 58.48 LIG 0.16  HD
ATOM     26 OD1  ASN J 606      -1.780  21.501  65.769  1.00 73.16 LIG-0.27  OA
ENDBRANCH 21 22
ENDBRANCH 17 21
ENDBRANCH 14 17
ENDBRANCH 1 13
BRANCH 1 27
ATOM     27  N   TRP J 605      -2.827  24.326  72.987  1.00 80.26 LIG-0.34  N 
ATOM     28  C   ASP J 604      -2.637  24.338  74.306  1.00 69.06 LIG 0.26  C 
ATOM     29 O    ASP J 604      -1.711  23.749  74.866  1.00 67.02 LIG-0.27  OA
ATOM     30 H    TRP J 605      -3.498  24.707  72.608  1.00 80.26 LIG 0.16  HD
BRANCH 28 31
ATOM     31  CA  ASP J 604      -3.653  25.135  75.122  1.00 80.57 LIG 0.41  C 
ATOM     32  N   ASP J 604      -3.863  26.455  74.535  1.00 92.85 LIG 0.61  N 
BRANCH 31 33
ATOM     33  CB  ASP J 604      -4.978  24.376  75.217  1.00 75.75 LIG 0.16  C 
BRANCH 33 34
ATOM     34  CG  ASP J 604      -5.873  24.608  74.015  1.00 69.63 LIG 0.17  C 
ATOM     35 OD1  ASP J 604      -5.889  23.749  73.108  1.00 75.49 LIG-0.65  OA
ATOM     36 OD2  ASP J 604      -6.565  25.647  73.980  1.00 69.41 LIG-0.65  OA
ENDBRANCH 33 34
ENDBRANCH 31 33
ENDBRANCH 28 31
ENDBRANCH 1 27
TORSDOF 11
ENDMDL
MODEL 45
USER: ADFR SOLUTION from run 44
USER: SCORE 13.629061 LL:  -2.214 LR: -11.718 RR:   0.000 FEB:  -8.436
USER: RMSD 6.408400
USER: SEED 43
USER: STATUS no improvement in best in 9 clusters for 5 generations
USER: GENES 13
USER: genes 0 Translation |==|  0.46889 0.44988 0.49519
USER: genes 1 Rotation |==|  0.25054 0.92425 0.41234 0.51013
USER: genes 2 Torsion [C]-CA--CB-[CG] |==|  0.25985
USER: genes 3 Torsion [CA]-CB--CG-[CD2] |==|  0.77323
USER: genes 4 Torsion [N]-CA--C-[N] |==|  0.95317
USER: genes 5 Torsion [C]-N--CA-[CB] |==|  0.29512
USER: genes 6 Torsion [N]-CA--C-[O] |==|  0.20467
USER: genes 7 Torsion [N]-CA--CB-[CG] |==|  0.85282
USER: genes 8 Torsion [CA]-CB--CG-[ND2] |==|  0.65903
USER: genes 9 Torsion [CB]-CA--N-[C] |==|  0.85000
USER: genes 10 Torsion [N]-C--CA-[N] |==|  0.38591
USER: genes 11 Torsion [C]-CA--CB-[CG] |==|  0.05978
USER: genes 12 Torsion [CA]-CB--CG-[OD1] |==|  0.18969
ROOT
ATOM      1  CA  TRP J 605      -3.747  20.335  70.405  1.00 71.61 LIG 0.18  C 
ENDROOT
BRANCH 1 2
ATOM      2  CB  TRP J 605      -4.014  21.142  69.129  1.00 65.14 LIG 0.07  C 
BRANCH 2 3
ATOM      3  CG  TRP J 605      -5.335  20.843  68.483  1.00 62.37 LIG-0.03  A 
ATOM      4  CD2 TRP J 605      -5.636  19.745  67.615  1.00 57.80 LIG-0.00  A 
ATOM      5  CE3 TRP J 605      -4.888  18.679  67.103  1.00 58.94 LIG 0.01  A 
ATOM      6  CE2 TRP J 605      -6.994  19.855  67.255  1.00 56.30 LIG 0.04  A 
ATOM      7  CZ3 TRP J 605      -5.510  17.773  66.264  1.00 59.47 LIG 0.00  A 
ATOM      8  CH2 TRP J 605      -6.862  17.910  65.925  1.00 55.92 LIG 0.00  A 
ATOM      9  CZ2 TRP J 605      -7.619  18.941  66.409  1.00 56.02 LIG 0.03  A 
ATOM     10  NE1 TRP J 605      -7.494  20.968  67.879  1.00 57.88 LIG-0.36  N 
ATOM     11  CD1 TRP J 605      -6.494  21.553  68.614  1.00 63.10 LIG 0.10  A 
ATOM     12 HE1  TRP J 605      -8.304  21.253  67.819  1.00 57.88 LIG 0.17  HD
ENDBRANCH 2 3
ENDBRANCH 1 2
BRANCH 1 13
ATOM     13  C   TRP J 605      -2.961  19.067  70.064  1.00 60.32 LIG 0.24  C 
ATOM     14  N   ASN J 606      -1.679  19.065  70.426  1.00 74.38 LIG-0.34  N 
ATOM     15 H    ASN J 606      -1.286  19.750  70.766  1.00 74.38 LIG 0.16  HD
ATOM     16 O    TRP J 605      -3.505  18.121  69.494  1.00 56.87 LIG-0.27  OA
BRANCH 14 17
ATOM     17  CA  ASN J 606      -0.808  17.897  70.284  1.00 65.98 LIG 0.19  C 
BRANCH 17 18
ATOM     18  C   ASN J 606      -0.033  17.541  71.549  1.00 66.37 LIG 0.20  C 
ATOM     19 O    ASN J 606      -0.592  17.019  72.511  1.00 70.67 LIG-0.65  OA
ATOM     20 OXT  ASN J 606       1.178  17.756  71.628  1.00 61.82 LIG-0.65  OA
ENDBRANCH 17 18
BRANCH 17 21
ATOM     21  CB  ASN J 606       0.166  18.113  69.125  1.00 63.43 LIG 0.14  C 
BRANCH 21 22
ATOM     22  CG  ASN J 606      -0.540  18.491  67.834  1.00 67.06 LIG 0.22  C 
ATOM     23  ND2 ASN J 606      -0.323  17.704  66.788  1.00 58.48 LIG-0.37  N 
ATOM     24 22HD ASN J 606       0.195  17.020  66.863  1.00 58.48 LIG 0.16  HD
ATOM     25 21HD ASN J 606      -0.699  17.877  66.035  1.00 58.48 LIG 0.16  HD
ATOM     26 OD1  ASN J 606      -1.270  19.480  67.782  1.00 73.16 LIG-0.27  OA
ENDBRANCH 21 22
ENDBRANCH 17 21
ENDBRANCH 14 17
ENDBRANCH 1 13
BRANCH 1 27
ATOM     27  N   TRP J 605      -3.082  21.171  71.408  1.00 80.26 LIG-0.34  N 
ATOM     28  C   ASP J 604      -1.959  21.848  71.172  1.00 69.06 LIG 0.26  C 
ATOM     29 O    ASP J 604      -1.342  21.793  70.108  1.00 67.02 LIG-0.27  OA
ATOM     30 H    TRP J 605      -3.486  21.184  72.167  1.00 80.26 LIG 0.16  HD
BRANCH 28 31
ATOM     31  CA  ASP J 604      -1.451  22.721  72.318  1.00 80.57 LIG 0.41  C 
ATOM     32  N   ASP J 604      -0.001  22.621  72.438  1.00 92.85 LIG 0.61  N 
BRANCH 31 33
ATOM     33  CB  ASP J 604      -1.871  24.177  72.108  1.00 75.75 LIG 0.16  C 
BRANCH 33 34
ATOM     34  CG  ASP J 604      -3.061  24.316  71.178  1.00 69.63 LIG 0.17  C 
ATOM     35 OD1  ASP J 604      -4.173  23.900  71.566  1.00 75.49 LIG-0.65  OA
ATOM     36 OD2  ASP J 604      -2.885  24.844  70.061  1.00 69.41 LIG-0.65  OA
ENDBRANCH 33 34
ENDBRANCH 31 33
ENDBRANCH 28 31
ENDBRANCH 1 27
TORSDOF 11
ENDMDL
MODEL 46
USER: ADFR SOLUTION from run 187
USER: SCORE 13.105570 LL:  -1.473 LR: -11.718 RR:   0.000 FEB:  -8.437
USER: RMSD 8.227366
USER: SEED 186
USER: STATUS no improvement in best in 16 clusters for 5 generations
USER: GENES 13
USER: genes 0 Translation |==|  0.46497 0.35935 0.28060
USER: genes 1 Rotation |==|  0.23664 0.51223 0.87568 0.69840
USER: genes 2 Torsion [C]-CA--CB-[CG] |==|  0.32851
USER: genes 3 Torsion [CA]-CB--CG-[CD2] |==|  0.78805
USER: genes 4 Torsion [N]-CA--C-[N] |==|  0.34445
USER: genes 5 Torsion [C]-N--CA-[CB] |==|  0.77085
USER: genes 6 Torsion [N]-CA--C-[O] |==|  0.13923
USER: genes 7 Torsion [N]-CA--CB-[CG] |==|  0.62717
USER: genes 8 Torsion [CA]-CB--CG-[ND2] |==|  0.17295
USER: genes 9 Torsion [CB]-CA--N-[C] |==|  0.84562
USER: genes 10 Torsion [N]-C--CA-[N] |==|  0.01560
USER: genes 11 Torsion [C]-CA--CB-[CG] |==|  0.32271
USER: genes 12 Torsion [CA]-CB--CG-[OD1] |==|  0.38035
ROOT
ATOM      1  CA  TRP J 605      -3.814  18.909  66.703  1.00 71.61 LIG 0.18  C 
ENDROOT
BRANCH 1 2
ATOM      2  CB  TRP J 605      -5.040  18.233  67.330  1.00 65.14 LIG 0.07  C 
BRANCH 2 3
ATOM      3  CG  TRP J 605      -5.941  17.560  66.337  1.00 62.37 LIG-0.03  A 
ATOM      4  CD2 TRP J 605      -6.870  18.198  65.454  1.00 57.80 LIG-0.00  A 
ATOM      5  CE3 TRP J 605      -7.242  19.527  65.230  1.00 58.94 LIG 0.01  A 
ATOM      6  CE2 TRP J 605      -7.492  17.184  64.697  1.00 56.30 LIG 0.04  A 
ATOM      7  CZ3 TRP J 605      -8.203  19.798  64.275  1.00 59.47 LIG 0.00  A 
ATOM      8  CH2 TRP J 605      -8.803  18.768  63.539  1.00 55.92 LIG 0.00  A 
ATOM      9  CZ2 TRP J 605      -8.461  17.459  63.735  1.00 56.02 LIG 0.03  A 
ATOM     10  NE1 TRP J 605      -6.960  15.987  65.100  1.00 57.88 LIG-0.36  N 
ATOM     11  CD1 TRP J 605      -6.030  16.221  66.082  1.00 63.10 LIG 0.10  A 
ATOM     12 HE1  TRP J 605      -7.175  15.214  64.789  1.00 57.88 LIG 0.17  HD
ENDBRANCH 2 3
ENDBRANCH 1 2
BRANCH 1 13
ATOM     13  C   TRP J 605      -3.853  20.413  66.979  1.00 60.32 LIG 0.24  C 
ATOM     14  N   ASN J 606      -4.047  21.192  65.916  1.00 74.38 LIG-0.34  N 
ATOM     15 H    ASN J 606      -4.079  20.889  65.112  1.00 74.38 LIG 0.16  HD
ATOM     16 O    TRP J 605      -3.715  20.849  68.122  1.00 56.87 LIG-0.27  OA
BRANCH 14 17
ATOM     17  CA  ASN J 606      -4.226  22.642  66.007  1.00 65.98 LIG 0.19  C 
BRANCH 17 18
ATOM     18  C   ASN J 606      -3.296  23.323  67.007  1.00 66.37 LIG 0.20  C 
ATOM     19 O    ASN J 606      -2.085  23.113  66.993  1.00 70.67 LIG-0.65  OA
ATOM     20 OXT  ASN J 606      -3.739  24.111  67.843  1.00 61.82 LIG-0.65  OA
ENDBRANCH 17 18
BRANCH 17 21
ATOM     21  CB  ASN J 606      -5.680  22.967  66.350  1.00 63.43 LIG 0.14  C 
BRANCH 21 22
ATOM     22  CG  ASN J 606      -6.247  24.080  65.486  1.00 67.06 LIG 0.22  C 
ATOM     23  ND2 ASN J 606      -6.310  23.843  64.181  1.00 58.48 LIG-0.37  N 
ATOM     24 22HD ASN J 606      -6.038  23.090  63.867  1.00 58.48 LIG 0.16  HD
ATOM     25 21HD ASN J 606      -6.622  24.443  63.650  1.00 58.48 LIG 0.16  HD
ATOM     26 OD1  ASN J 606      -6.623  25.140  65.988  1.00 73.16 LIG-0.27  OA
ENDBRANCH 21 22
ENDBRANCH 17 21
ENDBRANCH 14 17
ENDBRANCH 1 13
BRANCH 1 27
ATOM     27  N   TRP J 605      -2.583  18.270  67.173  1.00 80.26 LIG-0.34  N 
ATOM     28  C   ASP J 604      -2.268  18.138  68.461  1.00 69.06 LIG 0.26  C 
ATOM     29 O    ASP J 604      -2.955  18.590  69.379  1.00 67.02 LIG-0.27  OA
ATOM     30 H    TRP J 605      -2.078  17.986  66.537  1.00 80.26 LIG 0.16  HD
BRANCH 28 31
ATOM     31  CA  ASP J 604      -0.975  17.382  68.761  1.00 80.57 LIG 0.41  C 
ATOM     32  N   ASP J 604      -0.267  17.063  67.526  1.00 92.85 LIG 0.61  N 
BRANCH 31 33
ATOM     33  CB  ASP J 604      -0.081  18.200  69.694  1.00 75.75 LIG 0.16  C 
BRANCH 33 34
ATOM     34  CG  ASP J 604       0.139  17.526  71.035  1.00 69.63 LIG 0.17  C 
ATOM     35 OD1  ASP J 604       1.290  17.526  71.521  1.00 75.49 LIG-0.65  OA
ATOM     36 OD2  ASP J 604      -0.839  16.999  71.603  1.00 69.41 LIG-0.65  OA
ENDBRANCH 33 34
ENDBRANCH 31 33
ENDBRANCH 28 31
ENDBRANCH 1 27
TORSDOF 11
ENDMDL
MODEL 47
USER: ADFR SOLUTION from run 169
USER: SCORE 13.711438 LL:  -2.037 LR: -11.714 RR:   0.000 FEB:  -8.432
USER: RMSD 5.871429
USER: SEED 168
USER: STATUS no improvement in best in 6 clusters for 5 generations
USER: GENES 13
USER: genes 0 Translation |==|  0.39013 0.51203 0.38365
USER: genes 1 Rotation |==|  0.16933 0.52848 0.12610 0.50672
USER: genes 2 Torsion [C]-CA--CB-[CG] |==|  0.18190
USER: genes 3 Torsion [CA]-CB--CG-[CD2] |==|  0.57842
USER: genes 4 Torsion [N]-CA--C-[N] |==|  0.41614
USER: genes 5 Torsion [C]-N--CA-[CB] |==|  0.79193
USER: genes 6 Torsion [N]-CA--C-[O] |==|  0.21979
USER: genes 7 Torsion [N]-CA--CB-[CG] |==|  0.70102
USER: genes 8 Torsion [CA]-CB--CG-[ND2] |==|  0.69580
USER: genes 9 Torsion [CB]-CA--N-[C] |==|  0.83333
USER: genes 10 Torsion [N]-C--CA-[N] |==|  0.12107
USER: genes 11 Torsion [C]-CA--CB-[CG] |==|  0.76298
USER: genes 12 Torsion [CA]-CB--CG-[OD1] |==|  0.38366
ROOT
ATOM      1  CA  TRP J 605      -5.105  21.314  68.481  1.00 71.61 LIG 0.18  C 
ENDROOT
BRANCH 1 2
ATOM      2  CB  TRP J 605      -4.160  20.342  67.763  1.00 65.14 LIG 0.07  C 
BRANCH 2 3
ATOM      3  CG  TRP J 605      -3.401  19.434  68.686  1.00 62.37 LIG-0.03  A 
ATOM      4  CD2 TRP J 605      -2.114  18.854  68.448  1.00 57.80 LIG-0.00  A 
ATOM      5  CE3 TRP J 605      -1.205  18.908  67.386  1.00 58.94 LIG 0.01  A 
ATOM      6  CE2 TRP J 605      -1.787  18.083  69.582  1.00 56.30 LIG 0.04  A 
ATOM      7  CZ3 TRP J 605      -0.020  18.203  67.488  1.00 59.47 LIG 0.00  A 
ATOM      8  CH2 TRP J 605       0.276  17.446  68.628  1.00 55.92 LIG 0.00  A 
ATOM      9  CZ2 TRP J 605      -0.592  17.374  69.683  1.00 56.02 LIG 0.03  A 
ATOM     10  NE1 TRP J 605      -2.826  18.194  70.467  1.00 57.88 LIG-0.36  N 
ATOM     11  CD1 TRP J 605      -3.789  19.008  69.923  1.00 63.10 LIG 0.10  A 
ATOM     12 HE1  TRP J 605      -2.869  17.816  71.238  1.00 57.88 LIG 0.17  HD
ENDBRANCH 2 3
ENDBRANCH 1 2
BRANCH 1 13
ATOM     13  C   TRP J 605      -4.296  22.298  69.327  1.00 60.32 LIG 0.24  C 
ATOM     14  N   ASN J 606      -3.986  21.889  70.555  1.00 74.38 LIG-0.34  N 
ATOM     15 H    ASN J 606      -4.275  21.152  70.892  1.00 74.38 LIG 0.16  HD
ATOM     16 O    TRP J 605      -3.960  23.393  68.872  1.00 56.87 LIG-0.27  OA
BRANCH 14 17
ATOM     17  CA  ASN J 606      -3.122  22.650  71.460  1.00 65.98 LIG 0.19  C 
BRANCH 17 18
ATOM     18  C   ASN J 606      -3.494  24.124  71.583  1.00 66.37 LIG 0.20  C 
ATOM     19 O    ASN J 606      -4.427  24.487  72.296  1.00 70.67 LIG-0.65  OA
ATOM     20 OXT  ASN J 606      -2.855  24.987  70.979  1.00 61.82 LIG-0.65  OA
ENDBRANCH 17 18
BRANCH 17 21
ATOM     21  CB  ASN J 606      -1.664  22.520  71.019  1.00 63.43 LIG 0.14  C 
BRANCH 21 22
ATOM     22  CG  ASN J 606      -0.851  21.638  71.951  1.00 67.06 LIG 0.22  C 
ATOM     23  ND2 ASN J 606       0.054  22.249  72.706  1.00 58.48 LIG-0.37  N 
ATOM     24 22HD ASN J 606       0.154  23.102  72.652  1.00 58.48 LIG 0.16  HD
ATOM     25 21HD ASN J 606       0.540  21.793  73.248  1.00 58.48 LIG 0.16  HD
ATOM     26 OD1  ASN J 606      -1.035  20.421  71.988  1.00 73.16 LIG-0.27  OA
ENDBRANCH 21 22
ENDBRANCH 17 21
ENDBRANCH 14 17
ENDBRANCH 1 13
BRANCH 1 27
ATOM     27  N   TRP J 605      -5.987  21.974  67.516  1.00 80.26 LIG-0.34  N 
ATOM     28  C   ASP J 604      -5.544  22.730  66.512  1.00 69.06 LIG 0.26  C 
ATOM     29 O    ASP J 604      -4.354  22.991  66.332  1.00 67.02 LIG-0.27  OA
ATOM     30 H    TRP J 605      -6.823  21.828  67.658  1.00 80.26 LIG 0.16  HD
BRANCH 28 31
ATOM     31  CA  ASP J 604      -6.609  23.280  65.566  1.00 80.57 LIG 0.41  C 
ATOM     32  N   ASP J 604      -7.756  23.781  66.317  1.00 92.85 LIG 0.61  N 
BRANCH 31 33
ATOM     33  CB  ASP J 604      -6.024  24.384  64.684  1.00 75.75 LIG 0.16  C 
BRANCH 33 34
ATOM     34  CG  ASP J 604      -6.055  25.746  65.352  1.00 69.63 LIG 0.17  C 
ATOM     35 OD1  ASP J 604      -5.058  26.490  65.239  1.00 75.49 LIG-0.65  OA
ATOM     36 OD2  ASP J 604      -7.079  26.073  65.988  1.00 69.41 LIG-0.65  OA
ENDBRANCH 33 34
ENDBRANCH 31 33
ENDBRANCH 28 31
ENDBRANCH 1 27
TORSDOF 11
ENDMDL
MODEL 48
USER: ADFR SOLUTION from run 144
USER: SCORE 12.388223 LL:  -1.736 LR: -11.706 RR:   0.000 FEB:  -8.424
USER: RMSD 6.802461
USER: SEED 143
USER: STATUS no improvement in best in 11 clusters for 5 generations
USER: GENES 13
USER: genes 0 Translation |==|  0.43506 0.34265 0.32814
USER: genes 1 Rotation |==|  0.56930 0.05097 0.30816 0.58228
USER: genes 2 Torsion [C]-CA--CB-[CG] |==|  0.38835
USER: genes 3 Torsion [CA]-CB--CG-[CD2] |==|  0.27580
USER: genes 4 Torsion [N]-CA--C-[N] |==|  0.15719
USER: genes 5 Torsion [C]-N--CA-[CB] |==|  0.46657
USER: genes 6 Torsion [N]-CA--C-[O] |==|  0.56882
USER: genes 7 Torsion [N]-CA--CB-[CG] |==|  0.16001
USER: genes 8 Torsion [CA]-CB--CG-[ND2] |==|  0.16397
USER: genes 9 Torsion [CB]-CA--N-[C] |==|  0.23333
USER: genes 10 Torsion [N]-C--CA-[N] |==|  0.00344
USER: genes 11 Torsion [C]-CA--CB-[CG] |==|  0.25413
USER: genes 12 Torsion [CA]-CB--CG-[OD1] |==|  0.43618
ROOT
ATOM      1  CA  TRP J 605      -4.330  18.646  67.523  1.00 71.61 LIG 0.18  C 
ENDROOT
BRANCH 1 2
ATOM      2  CB  TRP J 605      -4.154  20.169  67.512  1.00 65.14 LIG 0.07  C 
BRANCH 2 3
ATOM      3  CG  TRP J 605      -4.318  20.814  68.856  1.00 62.37 LIG-0.03  A 
ATOM      4  CD2 TRP J 605      -3.271  21.221  69.744  1.00 57.80 LIG-0.00  A 
ATOM      5  CE3 TRP J 605      -1.874  21.161  69.691  1.00 58.94 LIG 0.01  A 
ATOM      6  CE2 TRP J 605      -3.883  21.785  70.881  1.00 56.30 LIG 0.04  A 
ATOM      7  CZ3 TRP J 605      -1.146  21.659  70.756  1.00 59.47 LIG 0.00  A 
ATOM      8  CH2 TRP J 605      -1.784  22.214  71.873  1.00 55.92 LIG 0.00  A 
ATOM      9  CZ2 TRP J 605      -3.147  22.286  71.954  1.00 56.02 LIG 0.03  A 
ATOM     10  NE1 TRP J 605      -5.238  21.726  70.690  1.00 57.88 LIG-0.36  N 
ATOM     11  CD1 TRP J 605      -5.490  21.144  69.473  1.00 63.10 LIG 0.10  A 
ATOM     12 HE1  TRP J 605      -5.834  22.007  71.243  1.00 57.88 LIG 0.17  HD
ENDBRANCH 2 3
ENDBRANCH 1 2
BRANCH 1 13
ATOM     13  C   TRP J 605      -5.111  18.203  66.284  1.00 60.32 LIG 0.24  C 
ATOM     14  N   ASN J 606      -5.340  16.895  66.181  1.00 74.38 LIG-0.34  N 
ATOM     15 H    ASN J 606      -5.016  16.317  66.728  1.00 74.38 LIG 0.16  HD
ATOM     16 O    TRP J 605      -5.496  19.026  65.453  1.00 56.87 LIG-0.27  OA
BRANCH 14 17
ATOM     17  CA  ASN J 606      -6.167  16.307  65.125  1.00 65.98 LIG 0.19  C 
BRANCH 17 18
ATOM     18  C   ASN J 606      -7.650  16.650  65.232  1.00 66.37 LIG 0.20  C 
ATOM     19 O    ASN J 606      -8.508  15.919  64.741  1.00 70.67 LIG-0.65  OA
ATOM     20 OXT  ASN J 606      -8.021  17.664  65.826  1.00 61.82 LIG-0.65  OA
ENDBRANCH 17 18
BRANCH 17 21
ATOM     21  CB  ASN J 606      -5.988  14.789  65.109  1.00 63.43 LIG 0.14  C 
BRANCH 21 22
ATOM     22  CG  ASN J 606      -6.334  14.149  66.442  1.00 67.06 LIG 0.22  C 
ATOM     23  ND2 ASN J 606      -7.570  14.338  66.888  1.00 58.48 LIG-0.37  N 
ATOM     24 22HD ASN J 606      -8.127  14.804  66.426  1.00 58.48 LIG 0.16  HD
ATOM     25 21HD ASN J 606      -7.813  13.997  67.639  1.00 58.48 LIG 0.16  HD
ATOM     26 OD1  ASN J 606      -5.497  13.492  67.063  1.00 73.16 LIG-0.27  OA
ENDBRANCH 21 22
ENDBRANCH 17 21
ENDBRANCH 14 17
ENDBRANCH 1 13
BRANCH 1 27
ATOM     27  N   TRP J 605      -3.031  17.982  67.652  1.00 80.26 LIG-0.34  N 
ATOM     28  C   ASP J 604      -2.425  17.773  68.819  1.00 69.06 LIG 0.26  C 
ATOM     29 O    ASP J 604      -2.872  18.165  69.898  1.00 67.02 LIG-0.27  OA
ATOM     30 H    TRP J 605      -2.693  17.739  66.899  1.00 80.26 LIG 0.16  HD
BRANCH 28 31
ATOM     31  CA  ASP J 604      -1.107  17.003  68.762  1.00 80.57 LIG 0.41  C 
ATOM     32  N   ASP J 604      -0.764  16.671  67.383  1.00 92.85 LIG 0.61  N 
BRANCH 31 33
ATOM     33  CB  ASP J 604       0.016  17.813  69.411  1.00 75.75 LIG 0.16  C 
BRANCH 33 34
ATOM     34  CG  ASP J 604       0.180  17.509  70.888  1.00 69.63 LIG 0.17  C 
ATOM     35 OD1  ASP J 604       1.282  17.743  71.428  1.00 75.49 LIG-0.65  OA
ATOM     36 OD2  ASP J 604      -0.795  17.037  71.510  1.00 69.41 LIG-0.65  OA
ENDBRANCH 33 34
ENDBRANCH 31 33
ENDBRANCH 28 31
ENDBRANCH 1 27
TORSDOF 11
ENDMDL
MODEL 49
USER: ADFR SOLUTION from run 38
USER: SCORE 13.038549 LL:  -2.199 LR: -11.670 RR:   0.000 FEB:  -8.389
USER: RMSD 6.316197
USER: SEED 37
USER: STATUS no improvement in best in 9 clusters for 5 generations
USER: GENES 13
USER: genes 0 Translation |==|  0.49272 0.42234 0.29628
USER: genes 1 Rotation |==|  0.24765 0.65483 0.87990 0.63426
USER: genes 2 Torsion [C]-CA--CB-[CG] |==|  0.73139
USER: genes 3 Torsion [CA]-CB--CG-[CD2] |==|  0.13521
USER: genes 4 Torsion [N]-CA--C-[N] |==|  0.55704
USER: genes 5 Torsion [C]-N--CA-[CB] |==|  0.48814
USER: genes 6 Torsion [N]-CA--C-[O] |==|  0.39699
USER: genes 7 Torsion [N]-CA--CB-[CG] |==|  0.55919
USER: genes 8 Torsion [CA]-CB--CG-[ND2] |==|  0.21885
USER: genes 9 Torsion [CB]-CA--N-[C] |==|  0.17776
USER: genes 10 Torsion [N]-C--CA-[N] |==|  0.89602
USER: genes 11 Torsion [C]-CA--CB-[CG] |==|  0.18040
USER: genes 12 Torsion [CA]-CB--CG-[OD1] |==|  0.97087
ROOT
ATOM      1  CA  TRP J 605      -3.336  19.901  66.974  1.00 71.61 LIG 0.18  C 
ENDROOT
BRANCH 1 2
ATOM      2  CB  TRP J 605      -4.343  19.856  68.130  1.00 65.14 LIG 0.07  C 
BRANCH 2 3
ATOM      3  CG  TRP J 605      -3.720  19.982  69.489  1.00 62.37 LIG-0.03  A 
ATOM      4  CD2 TRP J 605      -2.763  20.962  69.905  1.00 57.80 LIG-0.00  A 
ATOM      5  CE3 TRP J 605      -2.126  22.030  69.265  1.00 58.94 LIG 0.01  A 
ATOM      6  CE2 TRP J 605      -2.465  20.707  71.259  1.00 56.30 LIG 0.04  A 
ATOM      7  CZ3 TRP J 605      -1.228  22.797  69.985  1.00 59.47 LIG 0.00  A 
ATOM      8  CH2 TRP J 605      -0.953  22.518  71.330  1.00 55.92 LIG 0.00  A 
ATOM      9  CZ2 TRP J 605      -1.560  21.481  71.982  1.00 56.02 LIG 0.03  A 
ATOM     10  NE1 TRP J 605      -3.209  19.624  71.646  1.00 57.88 LIG-0.36  N 
ATOM     11  CD1 TRP J 605      -3.960  19.196  70.579  1.00 63.10 LIG 0.10  A 
ATOM     12 HE1  TRP J 605      -3.206  19.269  72.429  1.00 57.88 LIG 0.17  HD
ENDBRANCH 2 3
ENDBRANCH 1 2
BRANCH 1 13
ATOM     13  C   TRP J 605      -3.259  21.319  66.405  1.00 60.32 LIG 0.24  C 
ATOM     14  N   ASN J 606      -4.404  21.999  66.389  1.00 74.38 LIG-0.34  N 
ATOM     15 H    ASN J 606      -5.159  21.653  66.613  1.00 74.38 LIG 0.16  HD
ATOM     16 O    TRP J 605      -2.192  21.780  65.999  1.00 56.87 LIG-0.27  OA
BRANCH 14 17
ATOM     17  CA  ASN J 606      -4.497  23.404  65.988  1.00 65.98 LIG 0.19  C 
BRANCH 17 18
ATOM     18  C   ASN J 606      -3.675  24.354  66.854  1.00 66.37 LIG 0.20  C 
ATOM     19 O    ASN J 606      -3.096  25.321  66.363  1.00 70.67 LIG-0.65  OA
ATOM     20 OXT  ASN J 606      -3.585  24.180  68.070  1.00 61.82 LIG-0.65  OA
ENDBRANCH 17 18
BRANCH 17 21
ATOM     21  CB  ASN J 606      -5.960  23.848  65.980  1.00 63.43 LIG 0.14  C 
BRANCH 21 22
ATOM     22  CG  ASN J 606      -6.192  25.072  65.111  1.00 67.06 LIG 0.22  C 
ATOM     23  ND2 ASN J 606      -6.262  24.864  63.802  1.00 58.48 LIG-0.37  N 
ATOM     24 22HD ASN J 606      -6.178  24.067  63.487  1.00 58.48 LIG 0.16  HD
ATOM     25 21HD ASN J 606      -6.391  25.525  63.268  1.00 58.48 LIG 0.16  HD
ATOM     26 OD1  ASN J 606      -6.304  26.190  65.613  1.00 73.16 LIG-0.27  OA
ENDBRANCH 21 22
ENDBRANCH 17 21
ENDBRANCH 14 17
ENDBRANCH 1 13
BRANCH 1 27
ATOM     27  N   TRP J 605      -2.035  19.386  67.409  1.00 80.26 LIG-0.34  N 
ATOM     28  C   ASP J 604      -1.837  18.128  67.800  1.00 69.06 LIG 0.26  C 
ATOM     29 O    ASP J 604      -2.737  17.291  67.885  1.00 67.02 LIG-0.27  OA
ATOM     30 H    TRP J 605      -1.408  19.974  67.390  1.00 80.26 LIG 0.16  HD
BRANCH 28 31
ATOM     31  CA  ASP J 604      -0.398  17.755  68.153  1.00 80.57 LIG 0.41  C 
ATOM     32  N   ASP J 604       0.541  18.416  67.253  1.00 92.85 LIG 0.61  N 
BRANCH 31 33
ATOM     33  CB  ASP J 604      -0.091  18.119  69.606  1.00 75.75 LIG 0.16  C 
BRANCH 33 34
ATOM     34  CG  ASP J 604      -0.914  17.318  70.597  1.00 69.63 LIG 0.17  C 
ATOM     35 OD1  ASP J 604      -1.859  16.625  70.166  1.00 75.49 LIG-0.65  OA
ATOM     36 OD2  ASP J 604      -0.612  17.378  71.807  1.00 69.41 LIG-0.65  OA
ENDBRANCH 33 34
ENDBRANCH 31 33
ENDBRANCH 28 31
ENDBRANCH 1 27
TORSDOF 11
ENDMDL
MODEL 50
USER: ADFR SOLUTION from run 122
USER: SCORE 12.671799 LL:  -1.627 LR: -11.660 RR:   0.000 FEB:  -8.378
USER: RMSD 7.524689
USER: SEED 121
USER: STATUS no improvement in best in 7 clusters for 5 generations
USER: GENES 13
USER: genes 0 Translation |==|  0.53170 0.41182 0.26343
USER: genes 1 Rotation |==|  0.21016 0.45117 0.81506 0.75366
USER: genes 2 Torsion [C]-CA--CB-[CG] |==|  0.24479
USER: genes 3 Torsion [CA]-CB--CG-[CD2] |==|  0.44112
USER: genes 4 Torsion [N]-CA--C-[N] |==|  0.82222
USER: genes 5 Torsion [C]-N--CA-[CB] |==|  0.48430
USER: genes 6 Torsion [N]-CA--C-[O] |==|  0.84233
USER: genes 7 Torsion [N]-CA--CB-[CG] |==|  0.93131
USER: genes 8 Torsion [CA]-CB--CG-[ND2] |==|  0.26805
USER: genes 9 Torsion [CB]-CA--N-[C] |==|  0.85117
USER: genes 10 Torsion [N]-C--CA-[N] |==|  0.92540
USER: genes 11 Torsion [C]-CA--CB-[CG] |==|  0.31756
USER: genes 12 Torsion [CA]-CB--CG-[OD1] |==|  0.44567
ROOT
ATOM      1  CA  TRP J 605      -2.663  19.735  66.407  1.00 71.61 LIG 0.18  C 
ENDROOT
BRANCH 1 2
ATOM      2  CB  TRP J 605      -4.080  19.150  66.453  1.00 65.14 LIG 0.07  C 
BRANCH 2 3
ATOM      3  CG  TRP J 605      -4.932  19.519  65.275  1.00 62.37 LIG-0.03  A 
ATOM      4  CD2 TRP J 605      -6.097  18.828  64.810  1.00 57.80 LIG-0.00  A 
ATOM      5  CE3 TRP J 605      -6.778  17.681  65.231  1.00 58.94 LIG 0.01  A 
ATOM      6  CE2 TRP J 605      -6.580  19.530  63.688  1.00 56.30 LIG 0.04  A 
ATOM      7  CZ3 TRP J 605      -7.900  17.280  64.530  1.00 59.47 LIG 0.00  A 
ATOM      8  CH2 TRP J 605      -8.356  18.000  63.418  1.00 55.92 LIG 0.00  A 
ATOM      9  CZ2 TRP J 605      -7.711  19.124  62.983  1.00 56.02 LIG 0.03  A 
ATOM     10  NE1 TRP J 605      -5.748  20.600  63.484  1.00 57.88 LIG-0.36  N 
ATOM     11  CD1 TRP J 605      -4.764  20.587  64.441  1.00 63.10 LIG 0.10  A 
ATOM     12 HE1  TRP J 605      -5.829  21.185  62.858  1.00 57.88 LIG 0.17  HD
ENDBRANCH 2 3
ENDBRANCH 1 2
BRANCH 1 13
ATOM     13  C   TRP J 605      -2.653  21.123  67.051  1.00 60.32 LIG 0.24  C 
ATOM     14  N   ASN J 606      -3.032  21.173  68.326  1.00 74.38 LIG-0.34  N 
ATOM     15 H    ASN J 606      -3.335  20.491  68.753  1.00 74.38 LIG 0.16  HD
ATOM     16 O    TRP J 605      -2.306  22.114  66.408  1.00 56.87 LIG-0.27  OA
BRANCH 14 17
ATOM     17  CA  ASN J 606      -2.975  22.394  69.133  1.00 65.98 LIG 0.19  C 
BRANCH 17 18
ATOM     18  C   ASN J 606      -1.568  22.955  69.313  1.00 66.37 LIG 0.20  C 
ATOM     19 O    ASN J 606      -0.668  22.272  69.797  1.00 70.67 LIG-0.65  OA
ATOM     20 OXT  ASN J 606      -1.299  24.105  68.962  1.00 61.82 LIG-0.65  OA
ENDBRANCH 17 18
BRANCH 17 21
ATOM     21  CB  ASN J 606      -3.610  22.144  70.501  1.00 63.43 LIG 0.14  C 
BRANCH 21 22
ATOM     22  CG  ASN J 606      -4.619  21.008  70.475  1.00 67.06 LIG 0.22  C 
ATOM     23  ND2 ASN J 606      -4.177  19.815  70.854  1.00 58.48 LIG-0.37  N 
ATOM     24 22HD ASN J 606      -3.358  19.717  71.099  1.00 58.48 LIG 0.16  HD
ATOM     25 21HD ASN J 606      -4.710  19.141  70.856  1.00 58.48 LIG 0.16  HD
ATOM     26 OD1  ASN J 606      -5.780  21.204  70.117  1.00 73.16 LIG-0.27  OA
ENDBRANCH 21 22
ENDBRANCH 17 21
ENDBRANCH 14 17
ENDBRANCH 1 13
BRANCH 1 27
ATOM     27  N   TRP J 605      -1.708  18.810  67.022  1.00 80.26 LIG-0.34  N 
ATOM     28  C   ASP J 604      -1.854  18.310  68.248  1.00 69.06 LIG 0.26  C 
ATOM     29 O    ASP J 604      -2.776  18.620  69.004  1.00 67.02 LIG-0.27  OA
ATOM     30 H    TRP J 605      -1.040  18.618  66.515  1.00 80.26 LIG 0.16  HD
BRANCH 28 31
ATOM     31  CA  ASP J 604      -0.793  17.306  68.693  1.00 80.57 LIG 0.41  C 
ATOM     32  N   ASP J 604      -0.213  16.624  67.540  1.00 92.85 LIG 0.61  N 
BRANCH 31 33
ATOM     33  CB  ASP J 604       0.299  18.005  69.504  1.00 75.75 LIG 0.16  C 
BRANCH 33 34
ATOM     34  CG  ASP J 604       0.335  17.551  70.951  1.00 69.63 LIG 0.17  C 
ATOM     35 OD1  ASP J 604       1.376  17.748  71.613  1.00 75.49 LIG-0.65  OA
ATOM     36 OD2  ASP J 604      -0.679  17.000  71.428  1.00 69.41 LIG-0.65  OA
ENDBRANCH 33 34
ENDBRANCH 31 33
ENDBRANCH 28 31
ENDBRANCH 1 27
TORSDOF 11
ENDMDL
MODEL 51
USER: ADFR SOLUTION from run 174
USER: SCORE 13.296327 LL:  -2.303 LR: -11.660 RR:   0.000 FEB:  -8.379
USER: RMSD 5.375304
USER: SEED 173
USER: STATUS no improvement in best in 5 clusters for 5 generations
USER: GENES 13
USER: genes 0 Translation |==|  0.43039 0.44123 0.45665
USER: genes 1 Rotation |==|  0.60116 0.51507 0.97098 0.63310
USER: genes 2 Torsion [C]-CA--CB-[CG] |==|  0.83462
USER: genes 3 Torsion [CA]-CB--CG-[CD2] |==|  0.76246
USER: genes 4 Torsion [N]-CA--C-[N] |==|  0.86664
USER: genes 5 Torsion [C]-N--CA-[CB] |==|  0.50349
USER: genes 6 Torsion [N]-CA--C-[O] |==|  0.95063
USER: genes 7 Torsion [N]-CA--CB-[CG] |==|  0.79649
USER: genes 8 Torsion [CA]-CB--CG-[ND2] |==|  0.80997
USER: genes 9 Torsion [CB]-CA--N-[C] |==|  0.20632
USER: genes 10 Torsion [N]-C--CA-[N] |==|  0.51674
USER: genes 11 Torsion [C]-CA--CB-[CG] |==|  0.26133
USER: genes 12 Torsion [CA]-CB--CG-[OD1] |==|  0.15181
ROOT
ATOM      1  CA  TRP J 605      -4.411  20.198  69.740  1.00 71.61 LIG 0.18  C 
ENDROOT
BRANCH 1 2
ATOM      2  CB  TRP J 605      -3.959  18.930  70.475  1.00 65.14 LIG 0.07  C 
BRANCH 2 3
ATOM      3  CG  TRP J 605      -2.482  18.863  70.726  1.00 62.37 LIG-0.03  A 
ATOM      4  CD2 TRP J 605      -1.481  18.375  69.826  1.00 57.80 LIG-0.00  A 
ATOM      5  CE3 TRP J 605      -1.515  17.834  68.537  1.00 58.94 LIG 0.01  A 
ATOM      6  CE2 TRP J 605      -0.236  18.508  70.473  1.00 56.30 LIG 0.04  A 
ATOM      7  CZ3 TRP J 605      -0.326  17.452  67.944  1.00 59.47 LIG 0.00  A 
ATOM      8  CH2 TRP J 605       0.896  17.598  68.613  1.00 55.92 LIG 0.00  A 
ATOM      9  CZ2 TRP J 605       0.962  18.122  69.874  1.00 56.02 LIG 0.03  A 
ATOM     10  NE1 TRP J 605      -0.471  19.055  71.707  1.00 57.88 LIG-0.36  N 
ATOM     11  CD1 TRP J 605      -1.820  19.266  71.850  1.00 63.10 LIG 0.10  A 
ATOM     12 HE1  TRP J 605       0.129  19.237  72.296  1.00 57.88 LIG 0.17  HD
ENDBRANCH 2 3
ENDBRANCH 1 2
BRANCH 1 13
ATOM     13  C   TRP J 605      -4.032  21.435  70.557  1.00 60.32 LIG 0.24  C 
ATOM     14  N   ASN J 606      -2.747  21.780  70.525  1.00 74.38 LIG-0.34  N 
ATOM     15 H    ASN J 606      -2.143  21.307  70.134  1.00 74.38 LIG 0.16  HD
ATOM     16 O    TRP J 605      -4.885  22.058  71.191  1.00 56.87 LIG-0.27  OA
BRANCH 14 17
ATOM     17  CA  ASN J 606      -2.227  22.996  71.152  1.00 65.98 LIG 0.19  C 
BRANCH 17 18
ATOM     18  C   ASN J 606      -2.919  24.277  70.695  1.00 66.37 LIG 0.20  C 
ATOM     19 O    ASN J 606      -3.587  24.305  69.664  1.00 70.67 LIG-0.65  OA
ATOM     20 OXT  ASN J 606      -2.835  25.310  71.361  1.00 61.82 LIG-0.65  OA
ENDBRANCH 17 18
BRANCH 17 21
ATOM     21  CB  ASN J 606      -0.722  23.107  70.904  1.00 63.43 LIG 0.14  C 
BRANCH 21 22
ATOM     22  CG  ASN J 606       0.079  22.119  71.734  1.00 67.06 LIG 0.22  C 
ATOM     23  ND2 ASN J 606       0.100  22.326  73.045  1.00 58.48 LIG-0.37  N 
ATOM     24 22HD ASN J 606      -0.327  22.993  73.382  1.00 58.48 LIG 0.16  HD
ATOM     25 21HD ASN J 606       0.540  21.794  73.557  1.00 58.48 LIG 0.16  HD
ATOM     26 OD1  ASN J 606       0.672  21.181  71.200  1.00 73.16 LIG-0.27  OA
ENDBRANCH 21 22
ENDBRANCH 17 21
ENDBRANCH 14 17
ENDBRANCH 1 13
BRANCH 1 27
ATOM     27  N   TRP J 605      -3.869  20.221  68.379  1.00 80.26 LIG-0.34  N 
ATOM     28  C   ASP J 604      -4.330  19.453  67.393  1.00 69.06 LIG 0.26  C 
ATOM     29 O    ASP J 604      -5.217  18.613  67.542  1.00 67.02 LIG-0.27  OA
ATOM     30 H    TRP J 605      -3.222  20.778  68.276  1.00 80.26 LIG 0.16  HD
BRANCH 28 31
ATOM     31  CA  ASP J 604      -3.687  19.665  66.023  1.00 80.57 LIG 0.41  C 
ATOM     32  N   ASP J 604      -4.370  18.874  65.005  1.00 92.85 LIG 0.61  N 
BRANCH 31 33
ATOM     33  CB  ASP J 604      -3.703  21.148  65.647  1.00 75.75 LIG 0.16  C 
BRANCH 33 34
ATOM     34  CG  ASP J 604      -2.420  21.863  66.028  1.00 69.63 LIG 0.17  C 
ATOM     35 OD1  ASP J 604      -1.335  21.403  65.613  1.00 75.49 LIG-0.65  OA
ATOM     36 OD2  ASP J 604      -2.497  22.886  66.738  1.00 69.41 LIG-0.65  OA
ENDBRANCH 33 34
ENDBRANCH 31 33
ENDBRANCH 28 31
ENDBRANCH 1 27
TORSDOF 11
ENDMDL
MODEL 52
USER: ADFR SOLUTION from run 188
USER: SCORE 12.667795 LL:  -2.013 LR: -11.650 RR:   0.000 FEB:  -8.369
USER: RMSD 5.856661
USER: SEED 187
USER: STATUS no improvement in best in 10 clusters for 5 generations
USER: GENES 13
USER: genes 0 Translation |==|  0.45851 0.57537 0.40599
USER: genes 1 Rotation |==|  0.29946 0.83495 0.80218 0.57923
USER: genes 2 Torsion [C]-CA--CB-[CG] |==|  0.67057
USER: genes 3 Torsion [CA]-CB--CG-[CD2] |==|  0.62249
USER: genes 4 Torsion [N]-CA--C-[N] |==|  0.46748
USER: genes 5 Torsion [C]-N--CA-[CB] |==|  0.31293
USER: genes 6 Torsion [N]-CA--C-[O] |==|  0.84812
USER: genes 7 Torsion [N]-CA--CB-[CG] |==|  0.87521
USER: genes 8 Torsion [CA]-CB--CG-[ND2] |==|  0.36198
USER: genes 9 Torsion [CB]-CA--N-[C] |==|  0.23889
USER: genes 10 Torsion [N]-C--CA-[N] |==|  0.29604
USER: genes 11 Torsion [C]-CA--CB-[CG] |==|  0.59164
USER: genes 12 Torsion [CA]-CB--CG-[OD1] |==|  0.28973
ROOT
ATOM      1  CA  TRP J 605      -3.926  22.311  68.866  1.00 71.61 LIG 0.18  C 
ENDROOT
BRANCH 1 2
ATOM      2  CB  TRP J 605      -4.433  23.373  69.850  1.00 65.14 LIG 0.07  C 
BRANCH 2 3
ATOM      3  CG  TRP J 605      -3.504  23.637  70.998  1.00 62.37 LIG-0.03  A 
ATOM      4  CD2 TRP J 605      -3.864  23.779  72.376  1.00 57.80 LIG-0.00  A 
ATOM      5  CE3 TRP J 605      -5.077  23.739  73.072  1.00 58.94 LIG 0.01  A 
ATOM      6  CE2 TRP J 605      -2.675  24.007  73.098  1.00 56.30 LIG 0.04  A 
ATOM      7  CZ3 TRP J 605      -5.063  23.924  74.442  1.00 59.47 LIG 0.00  A 
ATOM      8  CH2 TRP J 605      -3.864  24.148  75.131  1.00 55.92 LIG 0.00  A 
ATOM      9  CZ2 TRP J 605      -2.664  24.193  74.478  1.00 56.02 LIG 0.03  A 
ATOM     10  NE1 TRP J 605      -1.641  24.000  72.198  1.00 57.88 LIG-0.36  N 
ATOM     11  CD1 TRP J 605      -2.147  23.776  70.942  1.00 63.10 LIG 0.10  A 
ATOM     12 HE1  TRP J 605      -0.811  24.117  72.389  1.00 57.88 LIG 0.17  HD
ENDBRANCH 2 3
ENDBRANCH 1 2
BRANCH 1 13
ATOM     13  C   TRP J 605      -3.746  22.931  67.479  1.00 60.32 LIG 0.24  C 
ATOM     14  N   ASN J 606      -4.866  23.299  66.860  1.00 74.38 LIG-0.34  N 
ATOM     15 H    ASN J 606      -5.651  23.140  67.174  1.00 74.38 LIG 0.16  HD
ATOM     16 O    TRP J 605      -2.624  23.074  66.992  1.00 56.87 LIG-0.27  OA
BRANCH 14 17
ATOM     17  CA  ASN J 606      -4.878  24.011  65.581  1.00 65.98 LIG 0.19  C 
BRANCH 17 18
ATOM     18  C   ASN J 606      -5.633  25.337  65.613  1.00 66.37 LIG 0.20  C 
ATOM     19 O    ASN J 606      -6.800  25.394  65.995  1.00 70.67 LIG-0.65  OA
ATOM     20 OXT  ASN J 606      -5.083  26.384  65.269  1.00 61.82 LIG-0.65  OA
ENDBRANCH 17 18
BRANCH 17 21
ATOM     21  CB  ASN J 606      -5.460  23.112  64.490  1.00 63.43 LIG 0.14  C 
BRANCH 21 22
ATOM     22  CG  ASN J 606      -4.903  21.700  64.541  1.00 67.06 LIG 0.22  C 
ATOM     23  ND2 ASN J 606      -5.788  20.712  64.516  1.00 58.48 LIG-0.37  N 
ATOM     24 22HD ASN J 606      -6.629  20.889  64.471  1.00 58.48 LIG 0.16  HD
ATOM     25 21HD ASN J 606      -5.522  19.895  64.544  1.00 58.48 LIG 0.16  HD
ATOM     26 OD1  ASN J 606      -3.689  21.503  64.604  1.00 73.16 LIG-0.27  OA
ENDBRANCH 21 22
ENDBRANCH 17 21
ENDBRANCH 14 17
ENDBRANCH 1 13
BRANCH 1 27
ATOM     27  N   TRP J 605      -2.705  21.683  69.378  1.00 80.26 LIG-0.34  N 
ATOM     28  C   ASP J 604      -2.707  20.644  70.211  1.00 69.06 LIG 0.26  C 
ATOM     29 O    ASP J 604      -3.733  20.147  70.676  1.00 67.02 LIG-0.27  OA
ATOM     30 H    TRP J 605      -1.983  22.049  69.088  1.00 80.26 LIG 0.16  HD
BRANCH 28 31
ATOM     31  CA  ASP J 604      -1.337  20.080  70.582  1.00 80.57 LIG 0.41  C 
ATOM     32  N   ASP J 604      -0.984  20.440  71.951  1.00 92.85 LIG 0.61  N 
BRANCH 31 33
ATOM     33  CB  ASP J 604      -1.318  18.561  70.408  1.00 75.75 LIG 0.16  C 
BRANCH 33 34
ATOM     34  CG  ASP J 604      -0.423  17.866  71.416  1.00 69.63 LIG 0.17  C 
ATOM     35 OD1  ASP J 604      -0.955  17.266  72.374  1.00 75.49 LIG-0.65  OA
ATOM     36 OD2  ASP J 604       0.813  17.917  71.249  1.00 69.41 LIG-0.65  OA
ENDBRANCH 33 34
ENDBRANCH 31 33
ENDBRANCH 28 31
ENDBRANCH 1 27
TORSDOF 11
ENDMDL
MODEL 53
USER: ADFR SOLUTION from run 39
USER: SCORE 13.108061 LL:  -1.819 LR: -11.644 RR:   0.000 FEB:  -8.363
USER: RMSD 7.460626
USER: SEED 38
USER: STATUS no improvement in best in 8 clusters for 5 generations
USER: GENES 13
USER: genes 0 Translation |==|  0.53663 0.56140 0.36120
USER: genes 1 Rotation |==|  0.09260 0.32227 0.72720 0.52851
USER: genes 2 Torsion [C]-CA--CB-[CG] |==|  0.45945
USER: genes 3 Torsion [CA]-CB--CG-[CD2] |==|  0.21079
USER: genes 4 Torsion [N]-CA--C-[N] |==|  0.47016
USER: genes 5 Torsion [C]-N--CA-[CB] |==|  0.85201
USER: genes 6 Torsion [N]-CA--C-[O] |==|  0.46407
USER: genes 7 Torsion [N]-CA--CB-[CG] |==|  0.48829
USER: genes 8 Torsion [CA]-CB--CG-[ND2] |==|  0.18198
USER: genes 9 Torsion [CB]-CA--N-[C] |==|  0.51899
USER: genes 10 Torsion [N]-C--CA-[N] |==|  0.50828
USER: genes 11 Torsion [C]-CA--CB-[CG] |==|  0.89177
USER: genes 12 Torsion [CA]-CB--CG-[OD1] |==|  0.35537
ROOT
ATOM      1  CA  TRP J 605      -2.578  22.091  68.094  1.00 71.61 LIG 0.18  C 
ENDROOT
BRANCH 1 2
ATOM      2  CB  TRP J 605      -3.020  20.686  67.665  1.00 65.14 LIG 0.07  C 
BRANCH 2 3
ATOM      3  CG  TRP J 605      -1.941  19.649  67.766  1.00 62.37 LIG-0.03  A 
ATOM      4  CD2 TRP J 605      -1.458  19.030  68.963  1.00 57.80 LIG-0.00  A 
ATOM      5  CE3 TRP J 605      -1.772  19.161  70.319  1.00 58.94 LIG 0.01  A 
ATOM      6  CE2 TRP J 605      -0.454  18.114  68.585  1.00 56.30 LIG 0.04  A 
ATOM      7  CZ3 TRP J 605      -1.087  18.388  71.239  1.00 59.47 LIG 0.00  A 
ATOM      8  CH2 TRP J 605      -0.095  17.487  70.831  1.00 55.92 LIG 0.00  A 
ATOM      9  CZ2 TRP J 605       0.234  17.336  69.513  1.00 56.02 LIG 0.03  A 
ATOM     10  NE1 TRP J 605      -0.338  18.174  67.221  1.00 57.88 LIG-0.36  N 
ATOM     11  CD1 TRP J 605      -1.234  19.095  66.738  1.00 63.10 LIG 0.10  A 
ATOM     12 HE1  TRP J 605       0.208  17.710  66.745  1.00 57.88 LIG 0.17  HD
ENDBRANCH 2 3
ENDBRANCH 1 2
BRANCH 1 13
ATOM     13  C   TRP J 605      -3.603  23.125  67.622  1.00 60.32 LIG 0.24  C 
ATOM     14  N   ASN J 606      -3.696  23.288  66.304  1.00 74.38 LIG-0.34  N 
ATOM     15 H    ASN J 606      -3.173  22.898  65.744  1.00 74.38 LIG 0.16  HD
ATOM     16 O    TRP J 605      -4.288  23.749  68.432  1.00 56.87 LIG-0.27  OA
BRANCH 14 17
ATOM     17  CA  ASN J 606      -4.699  24.147  65.672  1.00 65.98 LIG 0.19  C 
BRANCH 17 18
ATOM     18  C   ASN J 606      -4.467  25.640  65.890  1.00 66.37 LIG 0.20  C 
ATOM     19 O    ASN J 606      -5.079  26.480  65.234  1.00 70.67 LIG-0.65  OA
ATOM     20 OXT  ASN J 606      -3.669  26.035  66.740  1.00 61.82 LIG-0.65  OA
ENDBRANCH 17 18
BRANCH 17 21
ATOM     21  CB  ASN J 606      -6.096  23.765  66.162  1.00 63.43 LIG 0.14  C 
BRANCH 21 22
ATOM     22  CG  ASN J 606      -7.175  24.688  65.620  1.00 67.06 LIG 0.22  C 
ATOM     23  ND2 ASN J 606      -7.377  24.657  64.309  1.00 58.48 LIG-0.37  N 
ATOM     24 22HD ASN J 606      -6.908  24.132  63.813  1.00 58.48 LIG 0.16  HD
ATOM     25 21HD ASN J 606      -7.976  25.162  63.954  1.00 58.48 LIG 0.16  HD
ATOM     26 OD1  ASN J 606      -7.816  25.419  66.375  1.00 73.16 LIG-0.27  OA
ENDBRANCH 21 22
ENDBRANCH 17 21
ENDBRANCH 14 17
ENDBRANCH 1 13
BRANCH 1 27
ATOM     27  N   TRP J 605      -2.342  22.133  69.539  1.00 80.26 LIG-0.34  N 
ATOM     28  C   ASP J 604      -2.077  23.255  70.207  1.00 69.06 LIG 0.26  C 
ATOM     29 O    ASP J 604      -1.951  24.355  69.668  1.00 67.02 LIG-0.27  OA
ATOM     30 H    TRP J 605      -2.391  21.363  69.918  1.00 80.26 LIG 0.16  HD
BRANCH 28 31
ATOM     31  CA  ASP J 604      -1.929  23.113  71.721  1.00 80.57 LIG 0.41  C 
ATOM     32  N   ASP J 604      -1.711  24.415  72.342  1.00 92.85 LIG 0.61  N 
BRANCH 31 33
ATOM     33  CB  ASP J 604      -3.163  22.435  72.319  1.00 75.75 LIG 0.16  C 
BRANCH 33 34
ATOM     34  CG  ASP J 604      -4.455  22.891  71.667  1.00 69.63 LIG 0.17  C 
ATOM     35 OD1  ASP J 604      -5.244  22.023  71.237  1.00 75.49 LIG-0.65  OA
ATOM     36 OD2  ASP J 604      -4.682  24.116  71.589  1.00 69.41 LIG-0.65  OA
ENDBRANCH 33 34
ENDBRANCH 31 33
ENDBRANCH 28 31
ENDBRANCH 1 27
TORSDOF 11
ENDMDL
MODEL 54
USER: ADFR SOLUTION from run 72
USER: SCORE 12.857721 LL:  -1.757 LR: -11.642 RR:   0.000 FEB:  -8.361
USER: RMSD 3.631253
USER: SEED 71
USER: STATUS no improvement in best in 14 clusters for 5 generations
USER: GENES 13
USER: genes 0 Translation |==|  0.61400 0.55783 0.54911
USER: genes 1 Rotation |==|  0.65606 0.46836 0.35342 0.95073
USER: genes 2 Torsion [C]-CA--CB-[CG] |==|  0.75263
USER: genes 3 Torsion [CA]-CB--CG-[CD2] |==|  0.54398
USER: genes 4 Torsion [N]-CA--C-[N] |==|  0.26798
USER: genes 5 Torsion [C]-N--CA-[CB] |==|  0.41357
USER: genes 6 Torsion [N]-CA--C-[O] |==|  0.31522
USER: genes 7 Torsion [N]-CA--CB-[CG] |==|  0.79769
USER: genes 8 Torsion [CA]-CB--CG-[ND2] |==|  0.45916
USER: genes 9 Torsion [CB]-CA--N-[C] |==|  0.56117
USER: genes 10 Torsion [N]-C--CA-[N] |==|  0.24906
USER: genes 11 Torsion [C]-CA--CB-[CG] |==|  0.76381
USER: genes 12 Torsion [CA]-CB--CG-[OD1] |==|  0.55633
ROOT
ATOM      1  CA  TRP J 605      -1.243  22.035  71.335  1.00 71.61 LIG 0.18  C 
ENDROOT
BRANCH 1 2
ATOM      2  CB  TRP J 605      -1.636  22.594  72.708  1.00 65.14 LIG 0.07  C 
BRANCH 2 3
ATOM      3  CG  TRP J 605      -3.067  23.034  72.803  1.00 62.37 LIG-0.03  A 
ATOM      4  CD2 TRP J 605      -3.641  23.869  73.815  1.00 57.80 LIG-0.00  A 
ATOM      5  CE3 TRP J 605      -3.136  24.496  74.958  1.00 58.94 LIG 0.01  A 
ATOM      6  CE2 TRP J 605      -5.006  24.028  73.501  1.00 56.30 LIG 0.04  A 
ATOM      7  CZ3 TRP J 605      -3.994  25.249  75.738  1.00 59.47 LIG 0.00  A 
ATOM      8  CH2 TRP J 605      -5.346  25.388  75.400  1.00 55.92 LIG 0.00  A 
ATOM      9  CZ2 TRP J 605      -5.869  24.787  74.288  1.00 56.02 LIG 0.03  A 
ATOM     10  NE1 TRP J 605      -5.247  23.324  72.351  1.00 57.88 LIG-0.36  N 
ATOM     11  CD1 TRP J 605      -4.079  22.733  71.938  1.00 63.10 LIG 0.10  A 
ATOM     12 HE1  TRP J 605      -6.006  23.263  71.952  1.00 57.88 LIG 0.17  HD
ENDBRANCH 2 3
ENDBRANCH 1 2
BRANCH 1 13
ATOM     13  C   TRP J 605      -1.510  20.529  71.292  1.00 60.32 LIG 0.24  C 
ATOM     14  N   ASN J 606      -0.586  19.795  70.675  1.00 74.38 LIG-0.34  N 
ATOM     15 H    ASN J 606       0.086  20.136  70.260  1.00 74.38 LIG 0.16  HD
ATOM     16 O    TRP J 605      -2.521  20.052  71.808  1.00 56.87 LIG-0.27  OA
BRANCH 14 17
ATOM     17  CA  ASN J 606      -0.618  18.331  70.637  1.00 65.98 LIG 0.19  C 
BRANCH 17 18
ATOM     18  C   ASN J 606       0.062  17.663  71.829  1.00 66.37 LIG 0.20  C 
ATOM     19 O    ASN J 606      -0.585  17.014  72.648  1.00 70.67 LIG-0.65  OA
ATOM     20 OXT  ASN J 606       1.281  17.749  71.988  1.00 61.82 LIG-0.65  OA
ENDBRANCH 17 18
BRANCH 17 21
ATOM     21  CB  ASN J 606       0.010  17.830  69.337  1.00 63.43 LIG 0.14  C 
BRANCH 21 22
ATOM     22  CG  ASN J 606      -0.880  18.072  68.130  1.00 67.06 LIG 0.22  C 
ATOM     23  ND2 ASN J 606      -0.309  17.952  66.938  1.00 58.48 LIG-0.37  N 
ATOM     24 22HD ASN J 606       0.525  17.746  66.879  1.00 58.48 LIG 0.16  HD
ATOM     25 21HD ASN J 606      -0.771  18.080  66.225  1.00 58.48 LIG 0.16  HD
ATOM     26 OD1  ASN J 606      -2.068  18.364  68.271  1.00 73.16 LIG-0.27  OA
ENDBRANCH 21 22
ENDBRANCH 17 21
ENDBRANCH 14 17
ENDBRANCH 1 13
BRANCH 1 27
ATOM     27  N   TRP J 605      -1.928  22.771  70.269  1.00 80.26 LIG-0.34  N 
ATOM     28  C   ASP J 604      -2.129  22.278  69.048  1.00 69.06 LIG 0.26  C 
ATOM     29 O    ASP J 604      -1.711  21.179  68.681  1.00 67.02 LIG-0.27  OA
ATOM     30 H    TRP J 605      -2.189  23.555  70.506  1.00 80.26 LIG 0.16  HD
BRANCH 28 31
ATOM     31  CA  ASP J 604      -2.923  23.164  68.091  1.00 80.57 LIG 0.41  C 
ATOM     32  N   ASP J 604      -2.031  24.048  67.348  1.00 92.85 LIG 0.61  N 
BRANCH 31 33
ATOM     33  CB  ASP J 604      -3.749  22.308  67.129  1.00 75.75 LIG 0.16  C 
BRANCH 33 34
ATOM     34  CG  ASP J 604      -2.957  21.862  65.914  1.00 69.63 LIG 0.17  C 
ATOM     35 OD1  ASP J 604      -3.581  21.502  64.893  1.00 75.49 LIG-0.65  OA
ATOM     36 OD2  ASP J 604      -1.710  21.876  65.979  1.00 69.41 LIG-0.65  OA
ENDBRANCH 33 34
ENDBRANCH 31 33
ENDBRANCH 28 31
ENDBRANCH 1 27
TORSDOF 11
ENDMDL
MODEL 55
USER: ADFR SOLUTION from run 174
USER: SCORE 13.709464 LL:  -2.946 LR: -11.631 RR:   0.000 FEB:  -8.349
USER: RMSD 6.110707
USER: SEED 173
USER: STATUS no improvement in best in 5 clusters for 5 generations
USER: GENES 13
USER: genes 0 Translation |==|  0.32314 0.43277 0.32141
USER: genes 1 Rotation |==|  0.70138 0.37680 0.93993 0.52704
USER: genes 2 Torsion [C]-CA--CB-[CG] |==|  0.82844
USER: genes 3 Torsion [CA]-CB--CG-[CD2] |==|  0.34432
USER: genes 4 Torsion [N]-CA--C-[N] |==|  0.86063
USER: genes 5 Torsion [C]-N--CA-[CB] |==|  0.33226
USER: genes 6 Torsion [N]-CA--C-[O] |==|  0.93364
USER: genes 7 Torsion [N]-CA--CB-[CG] |==|  0.77200
USER: genes 8 Torsion [CA]-CB--CG-[ND2] |==|  0.08939
USER: genes 9 Torsion [CB]-CA--N-[C] |==|  0.56667
USER: genes 10 Torsion [N]-C--CA-[N] |==|  0.29859
USER: genes 11 Torsion [C]-CA--CB-[CG] |==|  0.66253
USER: genes 12 Torsion [CA]-CB--CG-[OD1] |==|  0.65058
ROOT
ATOM      1  CA  TRP J 605      -6.261  20.065  67.407  1.00 71.61 LIG 0.18  C 
ENDROOT
BRANCH 1 2
ATOM      2  CB  TRP J 605      -5.433  18.843  66.991  1.00 65.14 LIG 0.07  C 
BRANCH 2 3
ATOM      3  CG  TRP J 605      -3.967  19.121  66.837  1.00 62.37 LIG-0.03  A 
ATOM      4  CD2 TRP J 605      -2.893  18.449  67.504  1.00 57.80 LIG-0.00  A 
ATOM      5  CE3 TRP J 605      -2.829  17.414  68.443  1.00 58.94 LIG 0.01  A 
ATOM      6  CE2 TRP J 605      -1.691  19.028  67.050  1.00 56.30 LIG 0.04  A 
ATOM      7  CZ3 TRP J 605      -1.589  16.999  68.891  1.00 59.47 LIG 0.00  A 
ATOM      8  CH2 TRP J 605      -0.412  17.596  68.421  1.00 55.92 LIG 0.00  A 
ATOM      9  CZ2 TRP J 605      -0.442  18.608  67.503  1.00 56.02 LIG 0.03  A 
ATOM     10  NE1 TRP J 605      -2.021  20.005  66.148  1.00 57.88 LIG-0.36  N 
ATOM     11  CD1 TRP J 605      -3.388  20.052  66.024  1.00 63.10 LIG 0.10  A 
ATOM     12 HE1  TRP J 605      -1.464  20.507  65.727  1.00 57.88 LIG 0.17  HD
ENDBRANCH 2 3
ENDBRANCH 1 2
BRANCH 1 13
ATOM     13  C   TRP J 605      -5.793  20.569  68.774  1.00 60.32 LIG 0.24  C 
ATOM     14  N   ASN J 606      -4.624  21.206  68.788  1.00 74.38 LIG-0.34  N 
ATOM     15 H    ASN J 606      -4.119  21.275  68.096  1.00 74.38 LIG 0.16  HD
ATOM     16 O    TRP J 605      -6.478  20.387  69.781  1.00 56.87 LIG-0.27  OA
BRANCH 14 17
ATOM     17  CA  ASN J 606      -4.078  21.853  69.982  1.00 65.98 LIG 0.19  C 
BRANCH 17 18
ATOM     18  C   ASN J 606      -3.915  23.365  69.851  1.00 66.37 LIG 0.20  C 
ATOM     19 O    ASN J 606      -3.800  23.899  68.750  1.00 70.67 LIG-0.65  OA
ATOM     20 OXT  ASN J 606      -3.910  24.086  70.850  1.00 61.82 LIG-0.65  OA
ENDBRANCH 17 18
BRANCH 17 21
ATOM     21  CB  ASN J 606      -2.735  21.220  70.350  1.00 63.43 LIG 0.14  C 
BRANCH 21 22
ATOM     22  CG  ASN J 606      -2.897  19.933  71.141  1.00 67.06 LIG 0.22  C 
ATOM     23  ND2 ASN J 606      -3.968  19.199  70.866  1.00 58.48 LIG-0.37  N 
ATOM     24 22HD ASN J 606      -4.526  19.460  70.266  1.00 58.48 LIG 0.16  HD
ATOM     25 21HD ASN J 606      -4.104  18.463  71.289  1.00 58.48 LIG 0.16  HD
ATOM     26 OD1  ASN J 606      -2.068  19.607  71.991  1.00 73.16 LIG-0.27  OA
ENDBRANCH 21 22
ENDBRANCH 17 21
ENDBRANCH 14 17
ENDBRANCH 1 13
BRANCH 1 27
ATOM     27  N   TRP J 605      -6.209  21.095  66.367  1.00 80.26 LIG-0.34  N 
ATOM     28  C   ASP J 604      -6.416  22.389  66.604  1.00 69.06 LIG 0.26  C 
ATOM     29 O    ASP J 604      -6.725  22.838  67.708  1.00 67.02 LIG-0.27  OA
ATOM     30 H    TRP J 605      -6.033  20.785  65.584  1.00 80.26 LIG 0.16  HD
BRANCH 28 31
ATOM     31  CA  ASP J 604      -6.253  23.324  65.406  1.00 80.57 LIG 0.41  C 
ATOM     32  N   ASP J 604      -7.551  23.811  64.952  1.00 92.85 LIG 0.61  N 
BRANCH 31 33
ATOM     33  CB  ASP J 604      -5.337  24.496  65.763  1.00 75.75 LIG 0.16  C 
BRANCH 33 34
ATOM     34  CG  ASP J 604      -6.014  25.842  65.586  1.00 69.63 LIG 0.17  C 
ATOM     35 OD1  ASP J 604      -5.458  26.700  64.868  1.00 75.49 LIG-0.65  OA
ATOM     36 OD2  ASP J 604      -7.103  26.042  66.163  1.00 69.41 LIG-0.65  OA
ENDBRANCH 33 34
ENDBRANCH 31 33
ENDBRANCH 28 31
ENDBRANCH 1 27
TORSDOF 11
ENDMDL
MODEL 56
USER: ADFR SOLUTION from run 70
USER: SCORE 13.785611 LL:  -2.463 LR: -11.625 RR:   0.000 FEB:  -8.344
USER: RMSD 4.820244
USER: SEED 69
USER: STATUS no improvement in best in 12 clusters for 5 generations
USER: GENES 13
USER: genes 0 Translation |==|  0.44870 0.45371 0.50319
USER: genes 1 Rotation |==|  0.53575 0.88570 0.81527 0.52371
USER: genes 2 Torsion [C]-CA--CB-[CG] |==|  0.18513
USER: genes 3 Torsion [CA]-CB--CG-[CD2] |==|  0.44784
USER: genes 4 Torsion [N]-CA--C-[N] |==|  0.85000
USER: genes 5 Torsion [C]-N--CA-[CB] |==|  0.23523
USER: genes 6 Torsion [N]-CA--C-[O] |==|  0.80778
USER: genes 7 Torsion [N]-CA--CB-[CG] |==|  0.10693
USER: genes 8 Torsion [CA]-CB--CG-[ND2] |==|  0.19333
USER: genes 9 Torsion [CB]-CA--N-[C] |==|  0.85059
USER: genes 10 Torsion [N]-C--CA-[N] |==|  0.27852
USER: genes 11 Torsion [C]-CA--CB-[CG] |==|  0.24803
USER: genes 12 Torsion [CA]-CB--CG-[OD1] |==|  0.54034
ROOT
ATOM      1  CA  TRP J 605      -4.095  20.395  70.543  1.00 71.61 LIG 0.18  C 
ENDROOT
BRANCH 1 2
ATOM      2  CB  TRP J 605      -3.172  21.348  71.313  1.00 65.14 LIG 0.07  C 
BRANCH 2 3
ATOM      3  CG  TRP J 605      -3.877  22.527  71.916  1.00 62.37 LIG-0.03  A 
ATOM      4  CD2 TRP J 605      -3.394  23.365  72.972  1.00 57.80 LIG-0.00  A 
ATOM      5  CE3 TRP J 605      -2.228  23.380  73.744  1.00 58.94 LIG 0.01  A 
ATOM      6  CE2 TRP J 605      -4.376  24.348  73.208  1.00 56.30 LIG 0.04  A 
ATOM      7  CZ3 TRP J 605      -2.082  24.358  74.710  1.00 59.47 LIG 0.00  A 
ATOM      8  CH2 TRP J 605      -3.077  25.322  74.920  1.00 55.92 LIG 0.00  A 
ATOM      9  CZ2 TRP J 605      -4.227  25.333  74.182  1.00 56.02 LIG 0.03  A 
ATOM     10  NE1 TRP J 605      -5.405  24.118  72.333  1.00 57.88 LIG-0.36  N 
ATOM     11  CD1 TRP J 605      -5.097  23.026  71.561  1.00 63.10 LIG 0.10  A 
ATOM     12 HE1  TRP J 605      -6.127  24.583  72.277  1.00 57.88 LIG 0.17  HD
ENDBRANCH 2 3
ENDBRANCH 1 2
BRANCH 1 13
ATOM     13  C   TRP J 605      -4.645  21.095  69.299  1.00 60.32 LIG 0.24  C 
ATOM     14  N   ASN J 606      -3.764  21.332  68.330  1.00 74.38 LIG-0.34  N 
ATOM     15 H    ASN J 606      -2.922  21.173  68.411  1.00 74.38 LIG 0.16  HD
ATOM     16 O    TRP J 605      -5.834  21.405  69.223  1.00 56.87 LIG-0.27  OA
BRANCH 14 17
ATOM     17  CA  ASN J 606      -4.134  21.888  67.027  1.00 65.98 LIG 0.19  C 
BRANCH 17 18
ATOM     18  C   ASN J 606      -3.212  21.467  65.886  1.00 66.37 LIG 0.20  C 
ATOM     19 O    ASN J 606      -2.054  21.874  65.822  1.00 70.67 LIG-0.65  OA
ATOM     20 OXT  ASN J 606      -3.606  20.697  65.009  1.00 61.82 LIG-0.65  OA
ENDBRANCH 17 18
BRANCH 17 21
ATOM     21  CB  ASN J 606      -4.191  23.413  67.109  1.00 63.43 LIG 0.14  C 
BRANCH 21 22
ATOM     22  CG  ASN J 606      -3.088  23.991  67.979  1.00 67.06 LIG 0.22  C 
ATOM     23  ND2 ASN J 606      -1.852  23.907  67.504  1.00 58.48 LIG-0.37  N 
ATOM     24 22HD ASN J 606      -1.710  23.540  66.738  1.00 58.48 LIG 0.16  HD
ATOM     25 21HD ASN J 606      -1.194  24.218  67.960  1.00 58.48 LIG 0.16  HD
ATOM     26 OD1  ASN J 606      -3.348  24.505  69.068  1.00 73.16 LIG-0.27  OA
ENDBRANCH 21 22
ENDBRANCH 17 21
ENDBRANCH 14 17
ENDBRANCH 1 13
BRANCH 1 27
ATOM     27  N   TRP J 605      -3.397  19.144  70.237  1.00 80.26 LIG-0.34  N 
ATOM     28  C   ASP J 604      -2.223  19.093  69.609  1.00 69.06 LIG 0.26  C 
ATOM     29 O    ASP J 604      -1.638  20.087  69.177  1.00 67.02 LIG-0.27  OA
ATOM     30 H    TRP J 605      -3.817  18.442  70.501  1.00 80.26 LIG 0.16  HD
BRANCH 28 31
ATOM     31  CA  ASP J 604      -1.615  17.702  69.439  1.00 80.57 LIG 0.41  C 
ATOM     32  N   ASP J 604      -1.853  17.196  68.092  1.00 92.85 LIG 0.61  N 
BRANCH 31 33
ATOM     33  CB  ASP J 604      -0.115  17.733  69.741  1.00 75.75 LIG 0.16  C 
BRANCH 33 34
ATOM     34  CG  ASP J 604       0.194  17.482  71.204  1.00 69.63 LIG 0.17  C 
ATOM     35 OD1  ASP J 604       1.338  17.750  71.628  1.00 75.49 LIG-0.65  OA
ATOM     36 OD2  ASP J 604      -0.709  17.019  71.932  1.00 69.41 LIG-0.65  OA
ENDBRANCH 33 34
ENDBRANCH 31 33
ENDBRANCH 28 31
ENDBRANCH 1 27
TORSDOF 11
ENDMDL
MODEL 57
USER: ADFR SOLUTION from run 17
USER: SCORE 12.645651 LL:  -1.814 LR: -11.631 RR:   0.000 FEB:  -8.350
USER: RMSD 7.331291
USER: SEED 16
USER: STATUS no improvement in best in 11 clusters for 5 generations
USER: GENES 13
USER: genes 0 Translation |==|  0.59081 0.66579 0.59264
USER: genes 1 Rotation |==|  0.88555 0.66646 0.30294 0.68656
USER: genes 2 Torsion [C]-CA--CB-[CG] |==|  0.25344
USER: genes 3 Torsion [CA]-CB--CG-[CD2] |==|  0.61685
USER: genes 4 Torsion [N]-CA--C-[N] |==|  0.57778
USER: genes 5 Torsion [C]-N--CA-[CB] |==|  0.48762
USER: genes 6 Torsion [N]-CA--C-[O] |==|  0.38991
USER: genes 7 Torsion [N]-CA--CB-[CG] |==|  0.70689
USER: genes 8 Torsion [CA]-CB--CG-[ND2] |==|  0.50078
USER: genes 9 Torsion [CB]-CA--N-[C] |==|  0.77585
USER: genes 10 Torsion [N]-C--CA-[N] |==|  0.66360
USER: genes 11 Torsion [C]-CA--CB-[CG] |==|  0.24290
USER: genes 12 Torsion [CA]-CB--CG-[OD1] |==|  0.31176
ROOT
ATOM      1  CA  TRP J 605      -1.644  23.735  72.086  1.00 71.61 LIG 0.18  C 
ENDROOT
BRANCH 1 2
ATOM      2  CB  TRP J 605      -1.520  22.313  72.646  1.00 65.14 LIG 0.07  C 
BRANCH 2 3
ATOM      3  CG  TRP J 605      -0.358  21.539  72.099  1.00 62.37 LIG-0.03  A 
ATOM      4  CD2 TRP J 605      -0.358  20.165  71.696  1.00 57.80 LIG-0.00  A 
ATOM      5  CE3 TRP J 605      -1.328  19.157  71.679  1.00 58.94 LIG 0.01  A 
ATOM      6  CE2 TRP J 605       0.941  19.863  71.238  1.00 56.30 LIG 0.04  A 
ATOM      7  CZ3 TRP J 605      -0.976  17.903  71.214  1.00 59.47 LIG 0.00  A 
ATOM      8  CH2 TRP J 605       0.323  17.635  70.766  1.00 55.92 LIG 0.00  A 
ATOM      9  CZ2 TRP J 605       1.293  18.599  70.770  1.00 56.02 LIG 0.03  A 
ATOM     10  NE1 TRP J 605       1.692  21.003  71.355  1.00 57.88 LIG-0.36  N 
ATOM     11  CD1 TRP J 605       0.906  22.003  71.870  1.00 63.10 LIG 0.10  A 
ATOM     12 HE1  TRP J 605       2.522  21.080  71.141  1.00 57.88 LIG 0.17  HD
ENDBRANCH 2 3
ENDBRANCH 1 2
BRANCH 1 13
ATOM     13  C   TRP J 605      -2.541  23.730  70.847  1.00 60.32 LIG 0.24  C 
ATOM     14  N   ASN J 606      -2.563  22.595  70.152  1.00 74.38 LIG-0.34  N 
ATOM     15 H    ASN J 606      -2.056  21.923  70.333  1.00 74.38 LIG 0.16  HD
ATOM     16 O    TRP J 605      -3.196  24.726  70.538  1.00 56.87 LIG-0.27  OA
BRANCH 14 17
ATOM     17  CA  ASN J 606      -3.449  22.371  69.008  1.00 65.98 LIG 0.19  C 
BRANCH 17 18
ATOM     18  C   ASN J 606      -4.934  22.461  69.344  1.00 66.37 LIG 0.20  C 
ATOM     19 O    ASN J 606      -5.728  22.999  68.576  1.00 70.67 LIG-0.65  OA
ATOM     20 OXT  ASN J 606      -5.373  21.983  70.391  1.00 61.82 LIG-0.65  OA
ENDBRANCH 17 18
BRANCH 17 21
ATOM     21  CB  ASN J 606      -3.145  21.014  68.371  1.00 63.43 LIG 0.14  C 
BRANCH 21 22
ATOM     22  CG  ASN J 606      -2.393  21.144  67.058  1.00 67.06 LIG 0.22  C 
ATOM     23  ND2 ASN J 606      -2.093  20.012  66.433  1.00 58.48 LIG-0.37  N 
ATOM     24 22HD ASN J 606      -2.325  19.257  66.775  1.00 58.48 LIG 0.16  HD
ATOM     25 21HD ASN J 606      -1.666  20.033  65.687  1.00 58.48 LIG 0.16  HD
ATOM     26 OD1  ASN J 606      -2.085  22.250  66.614  1.00 73.16 LIG-0.27  OA
ENDBRANCH 21 22
ENDBRANCH 17 21
ENDBRANCH 14 17
ENDBRANCH 1 13
BRANCH 1 27
ATOM     27  N   TRP J 605      -2.106  24.656  73.127  1.00 80.26 LIG-0.34  N 
ATOM     28  C   ASP J 604      -3.384  24.780  73.483  1.00 69.06 LIG 0.26  C 
ATOM     29 O    ASP J 604      -4.305  24.174  72.935  1.00 67.02 LIG-0.27  OA
ATOM     30 H    TRP J 605      -1.473  25.112  73.489  1.00 80.26 LIG 0.16  HD
BRANCH 28 31
ATOM     31  CA  ASP J 604      -3.667  25.740  74.637  1.00 80.57 LIG 0.41  C 
ATOM     32  N   ASP J 604      -4.325  25.044  75.738  1.00 92.85 LIG 0.61  N 
BRANCH 31 33
ATOM     33  CB  ASP J 604      -2.372  26.397  75.118  1.00 75.75 LIG 0.16  C 
BRANCH 33 34
ATOM     34  CG  ASP J 604      -2.033  27.658  74.346  1.00 69.63 LIG 0.17  C 
ATOM     35 OD1  ASP J 604      -2.086  28.755  74.941  1.00 75.49 LIG-0.65  OA
ATOM     36 OD2  ASP J 604      -1.710  27.551  73.145  1.00 69.41 LIG-0.65  OA
ENDBRANCH 33 34
ENDBRANCH 31 33
ENDBRANCH 28 31
ENDBRANCH 1 27
TORSDOF 11
ENDMDL
MODEL 58
USER: ADFR SOLUTION from run 199
USER: SCORE 12.975093 LL:  -2.175 LR: -11.614 RR:   0.000 FEB:  -8.333
USER: RMSD 5.344862
USER: SEED 198
USER: STATUS no improvement in best in 18 clusters for 5 generations
USER: GENES 13
USER: genes 0 Translation |==|  0.44110 0.43405 0.42434
USER: genes 1 Rotation |==|  0.18040 0.44457 0.18555 0.71424
USER: genes 2 Torsion [C]-CA--CB-[CG] |==|  0.31065
USER: genes 3 Torsion [CA]-CB--CG-[CD2] |==|  0.86085
USER: genes 4 Torsion [N]-CA--C-[N] |==|  0.57222
USER: genes 5 Torsion [C]-N--CA-[CB] |==|  0.43945
USER: genes 6 Torsion [N]-CA--C-[O] |==|  0.00042
USER: genes 7 Torsion [N]-CA--CB-[CG] |==|  0.13165
USER: genes 8 Torsion [CA]-CB--CG-[ND2] |==|  0.47607
USER: genes 9 Torsion [CB]-CA--N-[C] |==|  0.78754
USER: genes 10 Torsion [N]-C--CA-[N] |==|  0.14438
USER: genes 11 Torsion [C]-CA--CB-[CG] |==|  0.79413
USER: genes 12 Torsion [CA]-CB--CG-[OD1] |==|  0.32201
ROOT
ATOM      1  CA  TRP J 605      -4.226  20.085  69.183  1.00 71.61 LIG 0.18  C 
ENDROOT
BRANCH 1 2
ATOM      2  CB  TRP J 605      -3.040  20.407  68.266  1.00 65.14 LIG 0.07  C 
BRANCH 2 3
ATOM      3  CG  TRP J 605      -1.952  19.375  68.288  1.00 62.37 LIG-0.03  A 
ATOM      4  CD2 TRP J 605      -1.322  18.819  69.447  1.00 57.80 LIG-0.00  A 
ATOM      5  CE3 TRP J 605      -1.468  19.023  70.823  1.00 58.94 LIG 0.01  A 
ATOM      6  CE2 TRP J 605      -0.369  17.883  68.997  1.00 56.30 LIG 0.04  A 
ATOM      7  CZ3 TRP J 605      -0.672  18.298  71.691  1.00 59.47 LIG 0.00  A 
ATOM      8  CH2 TRP J 605       0.267  17.375  71.212  1.00 55.92 LIG 0.00  A 
ATOM      9  CZ2 TRP J 605       0.432  17.154  69.874  1.00 56.02 LIG 0.03  A 
ATOM     10  NE1 TRP J 605      -0.421  17.870  67.628  1.00 57.88 LIG-0.36  N 
ATOM     11  CD1 TRP J 605      -1.374  18.766  67.211  1.00 63.10 LIG 0.10  A 
ATOM     12 HE1  TRP J 605       0.064  17.381  67.114  1.00 57.88 LIG 0.17  HD
ENDBRANCH 2 3
ENDBRANCH 1 2
BRANCH 1 13
ATOM     13  C   TRP J 605      -4.271  21.081  70.344  1.00 60.32 LIG 0.24  C 
ATOM     14  N   ASN J 606      -3.095  21.569  70.734  1.00 74.38 LIG-0.34  N 
ATOM     15 H    ASN J 606      -2.344  21.298  70.413  1.00 74.38 LIG 0.16  HD
ATOM     16 O    TRP J 605      -5.342  21.397  70.863  1.00 56.87 LIG-0.27  OA
BRANCH 14 17
ATOM     17  CA  ASN J 606      -2.958  22.615  71.750  1.00 65.98 LIG 0.19  C 
BRANCH 17 18
ATOM     18  C   ASN J 606      -3.259  24.021  71.239  1.00 66.37 LIG 0.20  C 
ATOM     19 O    ASN J 606      -3.587  24.216  70.071  1.00 70.67 LIG-0.65  OA
ATOM     20 OXT  ASN J 606      -3.192  24.993  71.994  1.00 61.82 LIG-0.65  OA
ENDBRANCH 17 18
BRANCH 17 21
ATOM     21  CB  ASN J 606      -1.554  22.574  72.353  1.00 63.43 LIG 0.14  C 
BRANCH 21 22
ATOM     22  CG  ASN J 606      -0.468  22.486  71.294  1.00 67.06 LIG 0.22  C 
ATOM     23  ND2 ASN J 606       0.783  22.624  71.715  1.00 58.48 LIG-0.37  N 
ATOM     24 22HD ASN J 606       0.944  22.754  72.551  1.00 58.48 LIG 0.16  HD
ATOM     25 21HD ASN J 606       1.432  22.583  71.154  1.00 58.48 LIG 0.16  HD
ATOM     26 OD1  ASN J 606      -0.755  22.298  70.111  1.00 73.16 LIG-0.27  OA
ENDBRANCH 21 22
ENDBRANCH 17 21
ENDBRANCH 14 17
ENDBRANCH 1 13
BRANCH 1 27
ATOM     27  N   TRP J 605      -5.471  20.044  68.412  1.00 80.26 LIG-0.34  N 
ATOM     28  C   ASP J 604      -6.110  21.134  67.990  1.00 69.06 LIG 0.26  C 
ATOM     29 O    ASP J 604      -5.746  22.281  68.254  1.00 67.02 LIG-0.27  OA
ATOM     30 H    TRP J 605      -5.753  19.247  68.257  1.00 80.26 LIG 0.16  HD
BRANCH 28 31
ATOM     31  CA  ASP J 604      -7.357  20.893  67.141  1.00 80.57 LIG 0.41  C 
ATOM     32  N   ASP J 604      -8.267  19.972  67.812  1.00 92.85 LIG 0.61  N 
BRANCH 31 33
ATOM     33  CB  ASP J 604      -8.062  22.216  66.838  1.00 75.75 LIG 0.16  C 
BRANCH 33 34
ATOM     34  CG  ASP J 604      -8.801  22.774  68.040  1.00 69.63 LIG 0.17  C 
ATOM     35 OD1  ASP J 604      -8.423  23.864  68.519  1.00 75.49 LIG-0.65  OA
ATOM     36 OD2  ASP J 604      -9.762  22.125  68.502  1.00 69.41 LIG-0.65  OA
ENDBRANCH 33 34
ENDBRANCH 31 33
ENDBRANCH 28 31
ENDBRANCH 1 27
TORSDOF 11
ENDMDL
MODEL 59
USER: ADFR SOLUTION from run 122
USER: SCORE 13.727084 LL:  -2.230 LR: -11.595 RR:   0.000 FEB:  -8.314
USER: RMSD 5.921251
USER: SEED 121
USER: STATUS no improvement in best in 7 clusters for 5 generations
USER: GENES 13
USER: genes 0 Translation |==|  0.55764 0.46310 0.31963
USER: genes 1 Rotation |==|  0.22206 0.33785 0.75619 0.78430
USER: genes 2 Torsion [C]-CA--CB-[CG] |==|  0.02730
USER: genes 3 Torsion [CA]-CB--CG-[CD2] |==|  0.22640
USER: genes 4 Torsion [N]-CA--C-[N] |==|  0.88939
USER: genes 5 Torsion [C]-N--CA-[CB] |==|  0.81700
USER: genes 6 Torsion [N]-CA--C-[O] |==|  0.71494
USER: genes 7 Torsion [N]-CA--CB-[CG] |==|  0.79945
USER: genes 8 Torsion [CA]-CB--CG-[ND2] |==|  0.59263
USER: genes 9 Torsion [CB]-CA--N-[C] |==|  0.86111
USER: genes 10 Torsion [N]-C--CA-[N] |==|  0.82355
USER: genes 11 Torsion [C]-CA--CB-[CG] |==|  0.30873
USER: genes 12 Torsion [CA]-CB--CG-[OD1] |==|  0.45902
ROOT
ATOM      1  CA  TRP J 605      -2.216  20.543  67.377  1.00 71.61 LIG 0.18  C 
ENDROOT
BRANCH 1 2
ATOM      2  CB  TRP J 605      -3.489  19.984  66.730  1.00 65.14 LIG 0.07  C 
BRANCH 2 3
ATOM      3  CG  TRP J 605      -4.743  20.706  67.127  1.00 62.37 LIG-0.03  A 
ATOM      4  CD2 TRP J 605      -5.236  21.933  66.577  1.00 57.80 LIG-0.00  A 
ATOM      5  CE3 TRP J 605      -4.773  22.810  65.590  1.00 58.94 LIG 0.01  A 
ATOM      6  CE2 TRP J 605      -6.443  22.234  67.239  1.00 56.30 LIG 0.04  A 
ATOM      7  CZ3 TRP J 605      -5.517  23.938  65.301  1.00 59.47 LIG 0.00  A 
ATOM      8  CH2 TRP J 605      -6.714  24.210  65.977  1.00 55.92 LIG 0.00  A 
ATOM      9  CZ2 TRP J 605      -7.191  23.372  66.946  1.00 56.02 LIG 0.03  A 
ATOM     10  NE1 TRP J 605      -6.673  21.234  68.147  1.00 57.88 LIG-0.36  N 
ATOM     11  CD1 TRP J 605      -5.650  20.321  68.072  1.00 63.10 LIG 0.10  A 
ATOM     12 HE1  TRP J 605      -7.348  21.185  68.678  1.00 57.88 LIG 0.17  HD
ENDBRANCH 2 3
ENDBRANCH 1 2
BRANCH 1 13
ATOM     13  C   TRP J 605      -2.584  21.556  68.462  1.00 60.32 LIG 0.24  C 
ATOM     14  N   ASN J 606      -2.871  21.045  69.658  1.00 74.38 LIG-0.34  N 
ATOM     15 H    ASN J 606      -2.920  20.200  69.808  1.00 74.38 LIG 0.16  HD
ATOM     16 O    TRP J 605      -2.602  22.763  68.219  1.00 56.87 LIG-0.27  OA
BRANCH 14 17
ATOM     17  CA  ASN J 606      -3.132  21.869  70.840  1.00 65.98 LIG 0.19  C 
BRANCH 17 18
ATOM     18  C   ASN J 606      -4.287  22.851  70.672  1.00 66.37 LIG 0.20  C 
ATOM     19 O    ASN J 606      -4.081  24.045  70.466  1.00 70.67 LIG-0.65  OA
ATOM     20 OXT  ASN J 606      -5.455  22.464  70.725  1.00 61.82 LIG-0.65  OA
ENDBRANCH 17 18
BRANCH 17 21
ATOM     21  CB  ASN J 606      -1.864  22.626  71.237  1.00 63.43 LIG 0.14  C 
BRANCH 21 22
ATOM     22  CG  ASN J 606      -0.811  21.717  71.848  1.00 67.06 LIG 0.22  C 
ATOM     23  ND2 ASN J 606      -0.046  22.249  72.793  1.00 58.48 LIG-0.37  N 
ATOM     24 22HD ASN J 606      -0.161  23.068  73.030  1.00 58.48 LIG 0.16  HD
ATOM     25 21HD ASN J 606       0.565  21.775  73.169  1.00 58.48 LIG 0.16  HD
ATOM     26 OD1  ASN J 606      -0.689  20.551  71.472  1.00 73.16 LIG-0.27  OA
ENDBRANCH 21 22
ENDBRANCH 17 21
ENDBRANCH 14 17
ENDBRANCH 1 13
BRANCH 1 27
ATOM     27  N   TRP J 605      -1.373  19.451  67.871  1.00 80.26 LIG-0.34  N 
ATOM     28  C   ASP J 604      -1.828  18.463  68.640  1.00 69.06 LIG 0.26  C 
ATOM     29 O    ASP J 604      -2.986  18.401  69.055  1.00 67.02 LIG-0.27  OA
ATOM     30 H    TRP J 605      -0.553  19.508  67.618  1.00 80.26 LIG 0.16  HD
BRANCH 28 31
ATOM     31  CA  ASP J 604      -0.817  17.376  69.001  1.00 80.57 LIG 0.41  C 
ATOM     32  N   ASP J 604      -0.369  16.672  67.804  1.00 92.85 LIG 0.61  N 
BRANCH 31 33
ATOM     33  CB  ASP J 604       0.376  17.979  69.744  1.00 75.75 LIG 0.16  C 
BRANCH 33 34
ATOM     34  CG  ASP J 604       0.432  17.562  71.201  1.00 69.63 LIG 0.17  C 
ATOM     35 OD1  ASP J 604       1.490  17.752  71.837  1.00 75.49 LIG-0.65  OA
ATOM     36 OD2  ASP J 604      -0.585  17.047  71.711  1.00 69.41 LIG-0.65  OA
ENDBRANCH 33 34
ENDBRANCH 31 33
ENDBRANCH 28 31
ENDBRANCH 1 27
TORSDOF 11
ENDMDL
MODEL 60
USER: ADFR SOLUTION from run 104
USER: SCORE 13.412462 LL:  -2.103 LR: -11.566 RR:   0.000 FEB:  -8.285
USER: RMSD 4.754163
USER: SEED 103
USER: STATUS no improvement in best in 9 clusters for 5 generations
USER: GENES 13
USER: genes 0 Translation |==|  0.50194 0.48122 0.55966
USER: genes 1 Rotation |==|  0.35462 0.12835 0.20284 0.54936
USER: genes 2 Torsion [C]-CA--CB-[CG] |==|  0.07558
USER: genes 3 Torsion [CA]-CB--CG-[CD2] |==|  0.25708
USER: genes 4 Torsion [N]-CA--C-[N] |==|  0.86120
USER: genes 5 Torsion [C]-N--CA-[CB] |==|  0.53157
USER: genes 6 Torsion [N]-CA--C-[O] |==|  0.41596
USER: genes 7 Torsion [N]-CA--CB-[CG] |==|  0.83618
USER: genes 8 Torsion [CA]-CB--CG-[ND2] |==|  0.89226
USER: genes 9 Torsion [CB]-CA--N-[C] |==|  0.86473
USER: genes 10 Torsion [N]-C--CA-[N] |==|  0.34645
USER: genes 11 Torsion [C]-CA--CB-[CG] |==|  0.17415
USER: genes 12 Torsion [CA]-CB--CG-[OD1] |==|  0.08950
ROOT
ATOM      1  CA  TRP J 605      -3.177  20.828  71.517  1.00 71.61 LIG 0.18  C 
ENDROOT
BRANCH 1 2
ATOM      2  CB  TRP J 605      -1.857  21.583  71.719  1.00 65.14 LIG 0.07  C 
BRANCH 2 3
ATOM      3  CG  TRP J 605      -1.994  23.076  71.678  1.00 62.37 LIG-0.03  A 
ATOM      4  CD2 TRP J 605      -2.203  23.947  72.795  1.00 57.80 LIG-0.00  A 
ATOM      5  CE3 TRP J 605      -2.350  23.744  74.171  1.00 58.94 LIG 0.01  A 
ATOM      6  CE2 TRP J 605      -2.261  25.263  72.294  1.00 56.30 LIG 0.04  A 
ATOM      7  CZ3 TRP J 605      -2.547  24.842  74.988  1.00 59.47 LIG 0.00  A 
ATOM      8  CH2 TRP J 605      -2.599  26.138  74.459  1.00 55.92 LIG 0.00  A 
ATOM      9  CZ2 TRP J 605      -2.459  26.368  73.119  1.00 56.02 LIG 0.03  A 
ATOM     10  NE1 TRP J 605      -2.091  25.193  70.936  1.00 57.88 LIG-0.36  N 
ATOM     11  CD1 TRP J 605      -1.930  23.878  70.576  1.00 63.10 LIG 0.10  A 
ATOM     12 HE1  TRP J 605      -2.086  25.863  70.397  1.00 57.88 LIG 0.17  HD
ENDBRANCH 2 3
ENDBRANCH 1 2
BRANCH 1 13
ATOM     13  C   TRP J 605      -4.140  21.678  70.686  1.00 60.32 LIG 0.24  C 
ATOM     14  N   ASN J 606      -3.859  21.770  69.388  1.00 74.38 LIG-0.34  N 
ATOM     15 H    ASN J 606      -3.147  21.438  69.036  1.00 74.38 LIG 0.16  HD
ATOM     16 O    TRP J 605      -5.109  22.228  71.210  1.00 56.87 LIG-0.27  OA
BRANCH 14 17
ATOM     17  CA  ASN J 606      -4.731  22.444  68.424  1.00 65.98 LIG 0.19  C 
BRANCH 17 18
ATOM     18  C   ASN J 606      -6.210  22.100  68.577  1.00 66.37 LIG 0.20  C 
ATOM     19 O    ASN J 606      -7.085  22.912  68.281  1.00 70.67 LIG-0.65  OA
ATOM     20 OXT  ASN J 606      -6.561  20.993  68.988  1.00 61.82 LIG-0.65  OA
ENDBRANCH 17 18
BRANCH 17 21
ATOM     21  CB  ASN J 606      -4.273  22.131  66.999  1.00 63.43 LIG 0.14  C 
BRANCH 21 22
ATOM     22  CG  ASN J 606      -2.841  22.566  66.740  1.00 67.06 LIG 0.22  C 
ATOM     23  ND2 ASN J 606      -2.464  23.718  67.283  1.00 58.48 LIG-0.37  N 
ATOM     24 22HD ASN J 606      -3.022  24.174  67.753  1.00 58.48 LIG 0.16  HD
ATOM     25 21HD ASN J 606      -1.664  24.007  67.164  1.00 58.48 LIG 0.16  HD
ATOM     26 OD1  ASN J 606      -2.085  21.874  66.058  1.00 73.16 LIG-0.27  OA
ENDBRANCH 21 22
ENDBRANCH 17 21
ENDBRANCH 14 17
ENDBRANCH 1 13
BRANCH 1 27
ATOM     27  N   TRP J 605      -2.926  19.508  70.934  1.00 80.26 LIG-0.34  N 
ATOM     28  C   ASP J 604      -2.149  19.310  69.871  1.00 69.06 LIG 0.26  C 
ATOM     29 O    ASP J 604      -1.611  20.222  69.242  1.00 67.02 LIG-0.27  OA
ATOM     30 H    TRP J 605      -3.329  18.869  71.345  1.00 80.26 LIG 0.16  HD
BRANCH 28 31
ATOM     31  CA  ASP J 604      -1.950  17.855  69.448  1.00 80.57 LIG 0.41  C 
ATOM     32  N   ASP J 604      -2.325  17.669  68.051  1.00 92.85 LIG 0.61  N 
BRANCH 31 33
ATOM     33  CB  ASP J 604      -0.499  17.426  69.674  1.00 75.75 LIG 0.16  C 
BRANCH 33 34
ATOM     34  CG  ASP J 604      -0.094  17.473  71.135  1.00 69.63 LIG 0.17  C 
ATOM     35 OD1  ASP J 604      -0.960  17.231  72.002  1.00 75.49 LIG-0.65  OA
ATOM     36 OD2  ASP J 604       1.091  17.748  71.415  1.00 69.41 LIG-0.65  OA
ENDBRANCH 33 34
ENDBRANCH 31 33
ENDBRANCH 28 31
ENDBRANCH 1 27
TORSDOF 11
ENDMDL
MODEL 61
USER: ADFR SOLUTION from run 64
USER: SCORE 12.836570 LL:  -1.530 LR: -11.563 RR:   0.000 FEB:  -8.282
USER: RMSD 5.708406
USER: SEED 63
USER: STATUS no improvement in best in 26 clusters for 5 generations
USER: GENES 13
USER: genes 0 Translation |==|  0.50828 0.57271 0.47353
USER: genes 1 Rotation |==|  0.28995 0.39363 0.09631 0.67776
USER: genes 2 Torsion [C]-CA--CB-[CG] |==|  0.27363
USER: genes 3 Torsion [CA]-CB--CG-[CD2] |==|  0.14785
USER: genes 4 Torsion [N]-CA--C-[N] |==|  0.31681
USER: genes 5 Torsion [C]-N--CA-[CB] |==|  0.88230
USER: genes 6 Torsion [N]-CA--C-[O] |==|  0.92033
USER: genes 7 Torsion [N]-CA--CB-[CG] |==|  0.77079
USER: genes 8 Torsion [CA]-CB--CG-[ND2] |==|  0.32419
USER: genes 9 Torsion [CB]-CA--N-[C] |==|  0.82052
USER: genes 10 Torsion [N]-C--CA-[N] |==|  0.90864
USER: genes 11 Torsion [C]-CA--CB-[CG] |==|  0.34065
USER: genes 12 Torsion [CA]-CB--CG-[OD1] |==|  0.17941
ROOT
ATOM      1  CA  TRP J 605      -3.067  22.269  70.031  1.00 71.61 LIG 0.18  C 
ENDROOT
BRANCH 1 2
ATOM      2  CB  TRP J 605      -1.552  22.501  69.977  1.00 65.14 LIG 0.07  C 
BRANCH 2 3
ATOM      3  CG  TRP J 605      -0.761  21.581  70.859  1.00 62.37 LIG-0.03  A 
ATOM      4  CD2 TRP J 605      -0.823  20.150  70.879  1.00 57.80 LIG-0.00  A 
ATOM      5  CE3 TRP J 605      -1.568  19.201  70.173  1.00 58.94 LIG 0.01  A 
ATOM      6  CE2 TRP J 605       0.095  19.705  71.851  1.00 56.30 LIG 0.04  A 
ATOM      7  CZ3 TRP J 605      -1.375  17.861  70.454  1.00 59.47 LIG 0.00  A 
ATOM      8  CH2 TRP J 605      -0.455  17.450  71.426  1.00 55.92 LIG 0.00  A 
ATOM      9  CZ2 TRP J 605       0.288  18.355  72.133  1.00 56.02 LIG 0.03  A 
ATOM     10  NE1 TRP J 605       0.689  20.815  72.392  1.00 57.88 LIG-0.36  N 
ATOM     11  CD1 TRP J 605       0.172  21.935  71.791  1.00 63.10 LIG 0.10  A 
ATOM     12 HE1  TRP J 605       1.289  20.811  73.009  1.00 57.88 LIG 0.17  HD
ENDBRANCH 2 3
ENDBRANCH 1 2
BRANCH 1 13
ATOM     13  C   TRP J 605      -3.714  23.282  70.978  1.00 60.32 LIG 0.24  C 
ATOM     14  N   ASN J 606      -4.405  22.767  71.993  1.00 74.38 LIG-0.34  N 
ATOM     15 H    ASN J 606      -4.547  21.924  72.085  1.00 74.38 LIG 0.16  HD
ATOM     16 O    TRP J 605      -3.585  24.492  70.792  1.00 56.87 LIG-0.27  OA
BRANCH 14 17
ATOM     17  CA  ASN J 606      -4.993  23.582  73.058  1.00 65.98 LIG 0.19  C 
BRANCH 17 18
ATOM     18  C   ASN J 606      -6.330  24.218  72.689  1.00 66.37 LIG 0.20  C 
ATOM     19 O    ASN J 606      -6.600  24.499  71.523  1.00 70.67 LIG-0.65  OA
ATOM     20 OXT  ASN J 606      -7.176  24.452  73.554  1.00 61.82 LIG-0.65  OA
ENDBRANCH 17 18
BRANCH 17 21
ATOM     21  CB  ASN J 606      -4.006  24.667  73.489  1.00 63.43 LIG 0.14  C 
BRANCH 21 22
ATOM     22  CG  ASN J 606      -2.977  24.157  74.483  1.00 67.06 LIG 0.22  C 
ATOM     23  ND2 ASN J 606      -1.710  24.176  74.088  1.00 58.48 LIG-0.37  N 
ATOM     24 22HD ASN J 606      -1.509  24.468  73.304  1.00 58.48 LIG 0.16  HD
ATOM     25 21HD ASN J 606      -1.091  23.896  74.614  1.00 58.48 LIG 0.16  HD
ATOM     26 OD1  ASN J 606      -3.321  23.749  75.593  1.00 73.16 LIG-0.27  OA
ENDBRANCH 21 22
ENDBRANCH 17 21
ENDBRANCH 14 17
ENDBRANCH 1 13
BRANCH 1 27
ATOM     27  N   TRP J 605      -3.637  22.298  68.682  1.00 80.26 LIG-0.34  N 
ATOM     28  C   ASP J 604      -3.638  23.381  67.908  1.00 69.06 LIG 0.26  C 
ATOM     29 O    ASP J 604      -3.210  24.478  68.271  1.00 67.02 LIG-0.27  OA
ATOM     30 H    TRP J 605      -3.973  21.546  68.435  1.00 80.26 LIG 0.16  HD
BRANCH 28 31
ATOM     31  CA  ASP J 604      -4.214  23.202  66.504  1.00 80.57 LIG 0.41  C 
ATOM     32  N   ASP J 604      -3.946  21.857  66.006  1.00 92.85 LIG 0.61  N 
BRANCH 31 33
ATOM     33  CB  ASP J 604      -5.718  23.482  66.503  1.00 75.75 LIG 0.16  C 
BRANCH 33 34
ATOM     34  CG  ASP J 604      -6.109  24.578  65.531  1.00 69.63 LIG 0.17  C 
ATOM     35 OD1  ASP J 604      -5.938  24.382  64.309  1.00 75.49 LIG-0.65  OA
ATOM     36 OD2  ASP J 604      -6.591  25.635  65.988  1.00 69.41 LIG-0.65  OA
ENDBRANCH 33 34
ENDBRANCH 31 33
ENDBRANCH 28 31
ENDBRANCH 1 27
TORSDOF 11
ENDMDL
MODEL 62
USER: ADFR SOLUTION from run 191
USER: SCORE 13.243624 LL:  -1.750 LR: -11.549 RR:   0.000 FEB:  -8.267
USER: RMSD 5.915110
USER: SEED 190
USER: STATUS no improvement in best in 23 clusters for 5 generations
USER: GENES 13
USER: genes 0 Translation |==|  0.49624 0.58669 0.39287
USER: genes 1 Rotation |==|  0.59108 0.91623 0.74287 0.59730
USER: genes 2 Torsion [C]-CA--CB-[CG] |==|  0.43682
USER: genes 3 Torsion [CA]-CB--CG-[CD2] |==|  0.89111
USER: genes 4 Torsion [N]-CA--C-[N] |==|  0.35395
USER: genes 5 Torsion [C]-N--CA-[CB] |==|  0.35473
USER: genes 6 Torsion [N]-CA--C-[O] |==|  0.08118
USER: genes 7 Torsion [N]-CA--CB-[CG] |==|  0.15555
USER: genes 8 Torsion [CA]-CB--CG-[ND2] |==|  0.70427
USER: genes 9 Torsion [CB]-CA--N-[C] |==|  0.81951
USER: genes 10 Torsion [N]-C--CA-[N] |==|  0.39963
USER: genes 11 Torsion [C]-CA--CB-[CG] |==|  0.41024
USER: genes 12 Torsion [CA]-CB--CG-[OD1] |==|  0.57082
ROOT
ATOM      1  CA  TRP J 605      -3.275  22.489  68.640  1.00 71.61 LIG 0.18  C 
ENDROOT
BRANCH 1 2
ATOM      2  CB  TRP J 605      -2.073  23.260  69.200  1.00 65.14 LIG 0.07  C 
BRANCH 2 3
ATOM      3  CG  TRP J 605      -2.051  23.353  70.698  1.00 62.37 LIG-0.03  A 
ATOM      4  CD2 TRP J 605      -3.175  23.558  71.560  1.00 57.80 LIG-0.00  A 
ATOM      5  CE3 TRP J 605      -4.545  23.737  71.343  1.00 58.94 LIG 0.01  A 
ATOM      6  CE2 TRP J 605      -2.691  23.568  72.884  1.00 56.30 LIG 0.04  A 
ATOM      7  CZ3 TRP J 605      -5.373  23.917  72.436  1.00 59.47 LIG 0.00  A 
ATOM      8  CH2 TRP J 605      -4.861  23.922  73.740  1.00 55.92 LIG 0.00  A 
ATOM      9  CZ2 TRP J 605      -3.527  23.749  73.983  1.00 56.02 LIG 0.03  A 
ATOM     10  NE1 TRP J 605      -1.336  23.374  72.826  1.00 57.88 LIG-0.36  N 
ATOM     11  CD1 TRP J 605      -0.960  23.244  71.512  1.00 63.10 LIG 0.10  A 
ATOM     12 HE1  TRP J 605      -0.806  23.340  73.503  1.00 57.88 LIG 0.17  HD
ENDBRANCH 2 3
ENDBRANCH 1 2
BRANCH 1 13
ATOM     13  C   TRP J 605      -3.532  22.909  67.191  1.00 60.32 LIG 0.24  C 
ATOM     14  N   ASN J 606      -4.622  23.646  66.986  1.00 74.38 LIG-0.34  N 
ATOM     15 H    ASN J 606      -5.192  23.823  67.605  1.00 74.38 LIG 0.16  HD
ATOM     16 O    TRP J 605      -2.760  22.576  66.292  1.00 56.87 LIG-0.27  OA
BRANCH 14 17
ATOM     17  CA  ASN J 606      -4.962  24.231  65.688  1.00 65.98 LIG 0.19  C 
BRANCH 17 18
ATOM     18  C   ASN J 606      -4.795  25.746  65.625  1.00 66.37 LIG 0.20  C 
ATOM     19 O    ASN J 606      -3.962  26.323  66.319  1.00 70.67 LIG-0.65  OA
ATOM     20 OXT  ASN J 606      -5.487  26.424  64.863  1.00 61.82 LIG-0.65  OA
ENDBRANCH 17 18
BRANCH 17 21
ATOM     21  CB  ASN J 606      -6.393  23.852  65.305  1.00 63.43 LIG 0.14  C 
BRANCH 21 22
ATOM     22  CG  ASN J 606      -7.405  24.259  66.362  1.00 67.06 LIG 0.22  C 
ATOM     23  ND2 ASN J 606      -7.918  23.282  67.099  1.00 58.48 LIG-0.37  N 
ATOM     24 22HD ASN J 606      -7.672  22.468  66.965  1.00 58.48 LIG 0.16  HD
ATOM     25 21HD ASN J 606      -8.495  23.462  67.710  1.00 58.48 LIG 0.16  HD
ATOM     26 OD1  ASN J 606      -7.720  25.440  66.511  1.00 73.16 LIG-0.27  OA
ENDBRANCH 21 22
ENDBRANCH 17 21
ENDBRANCH 14 17
ENDBRANCH 1 13
BRANCH 1 27
ATOM     27  N   TRP J 605      -3.073  21.047  68.794  1.00 80.26 LIG-0.34  N 
ATOM     28  C   ASP J 604      -2.112  20.369  68.169  1.00 69.06 LIG 0.26  C 
ATOM     29 O    ASP J 604      -1.335  20.878  67.360  1.00 67.02 LIG-0.27  OA
ATOM     30 H    TRP J 605      -3.636  20.676  69.328  1.00 80.26 LIG 0.16  HD
BRANCH 28 31
ATOM     31  CA  ASP J 604      -2.012  18.882  68.507  1.00 80.57 LIG 0.41  C 
ATOM     32  N   ASP J 604      -1.638  18.110  67.327  1.00 92.85 LIG 0.61  N 
BRANCH 31 33
ATOM     33  CB  ASP J 604      -1.005  18.655  69.635  1.00 75.75 LIG 0.16  C 
BRANCH 33 34
ATOM     34  CG  ASP J 604      -1.375  17.484  70.524  1.00 69.63 LIG 0.17  C 
ATOM     35 OD1  ASP J 604      -0.960  17.473  71.702  1.00 75.49 LIG-0.65  OA
ATOM     36 OD2  ASP J 604      -2.085  16.574  70.046  1.00 69.41 LIG-0.65  OA
ENDBRANCH 33 34
ENDBRANCH 31 33
ENDBRANCH 28 31
ENDBRANCH 1 27
TORSDOF 11
ENDMDL
MODEL 63
USER: ADFR SOLUTION from run 173
USER: SCORE 13.002974 LL:  -1.890 LR: -11.555 RR:   0.000 FEB:  -8.274
USER: RMSD 7.340691
USER: SEED 172
USER: STATUS no improvement in best in 18 clusters for 5 generations
USER: GENES 13
USER: genes 0 Translation |==|  0.31034 0.51896 0.30133
USER: genes 1 Rotation |==|  0.18014 0.59851 0.13388 0.56281
USER: genes 2 Torsion [C]-CA--CB-[CG] |==|  0.29983
USER: genes 3 Torsion [CA]-CB--CG-[CD2] |==|  0.22535
USER: genes 4 Torsion [N]-CA--C-[N] |==|  0.36642
USER: genes 5 Torsion [C]-N--CA-[CB] |==|  0.77850
USER: genes 6 Torsion [N]-CA--C-[O] |==|  0.22881
USER: genes 7 Torsion [N]-CA--CB-[CG] |==|  0.72039
USER: genes 8 Torsion [CA]-CB--CG-[ND2] |==|  0.15847
USER: genes 9 Torsion [CB]-CA--N-[C] |==|  0.54200
USER: genes 10 Torsion [N]-C--CA-[N] |==|  0.50190
USER: genes 11 Torsion [C]-CA--CB-[CG] |==|  0.70185
USER: genes 12 Torsion [CA]-CB--CG-[OD1] |==|  0.63266
ROOT
ATOM      1  CA  TRP J 605      -6.482  21.423  67.061  1.00 71.61 LIG 0.18  C 
ENDROOT
BRANCH 1 2
ATOM      2  CB  TRP J 605      -5.534  20.747  66.062  1.00 65.14 LIG 0.07  C 
BRANCH 2 3
ATOM      3  CG  TRP J 605      -5.591  19.248  66.083  1.00 62.37 LIG-0.03  A 
ATOM      4  CD2 TRP J 605      -6.562  18.419  65.435  1.00 57.80 LIG-0.00  A 
ATOM      5  CE3 TRP J 605      -7.689  18.676  64.648  1.00 58.94 LIG 0.01  A 
ATOM      6  CE2 TRP J 605      -6.222  17.080  65.716  1.00 56.30 LIG 0.04  A 
ATOM      7  CZ3 TRP J 605      -8.427  17.608  64.173  1.00 59.47 LIG 0.00  A 
ATOM      8  CH2 TRP J 605      -8.063  16.288  64.469  1.00 55.92 LIG 0.00  A 
ATOM      9  CZ2 TRP J 605      -6.967  16.005  65.236  1.00 56.02 LIG 0.03  A 
ATOM     10  NE1 TRP J 605      -5.095  17.097  66.495  1.00 57.88 LIG-0.36  N 
ATOM     11  CD1 TRP J 605      -4.722  18.401  66.709  1.00 63.10 LIG 0.10  A 
ATOM     12 HE1  TRP J 605      -4.688  16.404  66.800  1.00 57.88 LIG 0.17  HD
ENDBRANCH 2 3
ENDBRANCH 1 2
BRANCH 1 13
ATOM     13  C   TRP J 605      -5.677  22.026  68.214  1.00 60.32 LIG 0.24  C 
ATOM     14  N   ASN J 606      -5.715  21.351  69.362  1.00 74.38 LIG-0.34  N 
ATOM     15 H    ASN J 606      -6.212  20.660  69.484  1.00 74.38 LIG 0.16  HD
ATOM     16 O    TRP J 605      -5.040  23.068  68.062  1.00 56.87 LIG-0.27  OA
BRANCH 14 17
ATOM     17  CA  ASN J 606      -4.917  21.717  70.534  1.00 65.98 LIG 0.19  C 
BRANCH 17 18
ATOM     18  C   ASN J 606      -4.903  23.212  70.836  1.00 66.37 LIG 0.20  C 
ATOM     19 O    ASN J 606      -5.819  23.743  71.459  1.00 70.67 LIG-0.65  OA
ATOM     20 OXT  ASN J 606      -3.962  23.919  70.471  1.00 61.82 LIG-0.65  OA
ENDBRANCH 17 18
BRANCH 17 21
ATOM     21  CB  ASN J 606      -3.484  21.210  70.366  1.00 63.43 LIG 0.14  C 
BRANCH 21 22
ATOM     22  CG  ASN J 606      -3.226  19.930  71.141  1.00 67.06 LIG 0.22  C 
ATOM     23  ND2 ASN J 606      -4.017  18.900  70.866  1.00 58.48 LIG-0.37  N 
ATOM     24 22HD ASN J 606      -4.636  18.980  70.273  1.00 58.48 LIG 0.16  HD
ATOM     25 21HD ASN J 606      -3.911  18.154  71.279  1.00 58.48 LIG 0.16  HD
ATOM     26 OD1  ASN J 606      -2.325  19.870  71.979  1.00 73.16 LIG-0.27  OA
ENDBRANCH 21 22
ENDBRANCH 17 21
ENDBRANCH 14 17
ENDBRANCH 1 13
BRANCH 1 27
ATOM     27  N   TRP J 605      -7.330  22.402  66.378  1.00 80.26 LIG-0.34  N 
ATOM     28  C   ASP J 604      -8.033  23.337  67.016  1.00 69.06 LIG 0.26  C 
ATOM     29 O    ASP J 604      -8.082  23.433  68.243  1.00 67.02 LIG-0.27  OA
ATOM     30 H    TRP J 605      -7.332  22.318  65.522  1.00 80.26 LIG 0.16  HD
BRANCH 28 31
ATOM     31  CA  ASP J 604      -8.806  24.314  66.132  1.00 80.57 LIG 0.41  C 
ATOM     32  N   ASP J 604      -9.518  25.293  66.946  1.00 92.85 LIG 0.61  N 
BRANCH 31 33
ATOM     33  CB  ASP J 604      -7.859  25.018  65.158  1.00 75.75 LIG 0.16  C 
BRANCH 33 34
ATOM     34  CG  ASP J 604      -7.617  26.470  65.522  1.00 69.63 LIG 0.17  C 
ATOM     35 OD1  ASP J 604      -7.710  27.335  64.625  1.00 75.49 LIG-0.65  OA
ATOM     36 OD2  ASP J 604      -7.336  26.747  66.707  1.00 69.41 LIG-0.65  OA
ENDBRANCH 33 34
ENDBRANCH 31 33
ENDBRANCH 28 31
ENDBRANCH 1 27
TORSDOF 11
ENDMDL
MODEL 64
USER: ADFR SOLUTION from run 64
USER: SCORE 12.845244 LL:  -1.326 LR: -11.538 RR:   0.000 FEB:  -8.257
USER: RMSD 6.091978
USER: SEED 63
USER: STATUS no improvement in best in 26 clusters for 5 generations
USER: GENES 13
USER: genes 0 Translation |==|  0.45557 0.55470 0.39167
USER: genes 1 Rotation |==|  0.26329 0.47068 0.08980 0.65762
USER: genes 2 Torsion [C]-CA--CB-[CG] |==|  0.37526
USER: genes 3 Torsion [CA]-CB--CG-[CD2] |==|  0.76298
USER: genes 4 Torsion [N]-CA--C-[N] |==|  0.36735
USER: genes 5 Torsion [C]-N--CA-[CB] |==|  0.86601
USER: genes 6 Torsion [N]-CA--C-[O] |==|  0.88641
USER: genes 7 Torsion [N]-CA--CB-[CG] |==|  0.60473
USER: genes 8 Torsion [CA]-CB--CG-[ND2] |==|  0.38296
USER: genes 9 Torsion [CB]-CA--N-[C] |==|  0.84631
USER: genes 10 Torsion [N]-C--CA-[N] |==|  0.89288
USER: genes 11 Torsion [C]-CA--CB-[CG] |==|  0.27341
USER: genes 12 Torsion [CA]-CB--CG-[OD1] |==|  0.58028
ROOT
ATOM      1  CA  TRP J 605      -3.976  21.985  68.619  1.00 71.61 LIG 0.18  C 
ENDROOT
BRANCH 1 2
ATOM      2  CB  TRP J 605      -2.474  21.903  68.322  1.00 65.14 LIG 0.07  C 
BRANCH 2 3
ATOM      3  CG  TRP J 605      -1.979  20.512  68.056  1.00 62.37 LIG-0.03  A 
ATOM      4  CD2 TRP J 605      -1.570  19.548  69.032  1.00 57.80 LIG-0.00  A 
ATOM      5  CE3 TRP J 605      -1.482  19.556  70.428  1.00 58.94 LIG 0.01  A 
ATOM      6  CE2 TRP J 605      -1.192  18.382  68.336  1.00 56.30 LIG 0.04  A 
ATOM      7  CZ3 TRP J 605      -1.029  18.419  71.072  1.00 59.47 LIG 0.00  A 
ATOM      8  CH2 TRP J 605      -0.661  17.276  70.352  1.00 55.92 LIG 0.00  A 
ATOM      9  CZ2 TRP J 605      -0.736  17.238  68.987  1.00 56.02 LIG 0.03  A 
ATOM     10  NE1 TRP J 605      -1.368  18.628  66.999  1.00 57.88 LIG-0.36  N 
ATOM     11  CD1 TRP J 605      -1.842  19.906  66.841  1.00 63.10 LIG 0.10  A 
ATOM     12 HE1  TRP J 605      -1.207  18.072  66.363  1.00 57.88 LIG 0.17  HD
ENDBRANCH 2 3
ENDBRANCH 1 2
BRANCH 1 13
ATOM     13  C   TRP J 605      -4.220  22.902  69.820  1.00 60.32 LIG 0.24  C 
ATOM     14  N   ASN J 606      -4.504  22.290  70.968  1.00 74.38 LIG-0.34  N 
ATOM     15 H    ASN J 606      -4.617  21.439  71.031  1.00 74.38 LIG 0.16  HD
ATOM     16 O    TRP J 605      -4.146  24.125  69.705  1.00 56.87 LIG-0.27  OA
BRANCH 14 17
ATOM     17  CA  ASN J 606      -4.652  22.999  72.240  1.00 65.98 LIG 0.19  C 
BRANCH 17 18
ATOM     18  C   ASN J 606      -5.966  23.761  72.378  1.00 66.37 LIG 0.20  C 
ATOM     19 O    ASN J 606      -6.437  24.392  71.434  1.00 70.67 LIG-0.65  OA
ATOM     20 OXT  ASN J 606      -6.593  23.749  73.439  1.00 61.82 LIG-0.65  OA
ENDBRANCH 17 18
BRANCH 17 21
ATOM     21  CB  ASN J 606      -3.477  23.956  72.443  1.00 63.43 LIG 0.14  C 
BRANCH 21 22
ATOM     22  CG  ASN J 606      -3.021  24.018  73.891  1.00 67.06 LIG 0.22  C 
ATOM     23  ND2 ASN J 606      -1.710  24.027  74.099  1.00 58.48 LIG-0.37  N 
ATOM     24 22HD ASN J 606      -1.168  23.999  73.432  1.00 58.48 LIG 0.16  HD
ATOM     25 21HD ASN J 606      -1.403  24.060  74.901  1.00 58.48 LIG 0.16  HD
ATOM     26 OD1  ASN J 606      -3.840  24.057  74.809  1.00 73.16 LIG-0.27  OA
ENDBRANCH 21 22
ENDBRANCH 17 21
ENDBRANCH 14 17
ENDBRANCH 1 13
BRANCH 1 27
ATOM     27  N   TRP J 605      -4.712  22.400  67.422  1.00 80.26 LIG-0.34  N 
ATOM     28  C   ASP J 604      -4.442  23.513  66.742  1.00 69.06 LIG 0.26  C 
ATOM     29 O    ASP J 604      -3.585  24.329  67.086  1.00 67.02 LIG-0.27  OA
ATOM     30 H    TRP J 605      -5.338  21.854  67.197  1.00 80.26 LIG 0.16  HD
BRANCH 28 31
ATOM     31  CA  ASP J 604      -5.269  23.744  65.479  1.00 80.57 LIG 0.41  C 
ATOM     32  N   ASP J 604      -5.490  22.488  64.771  1.00 92.85 LIG 0.61  N 
BRANCH 31 33
ATOM     33  CB  ASP J 604      -6.605  24.403  65.827  1.00 75.75 LIG 0.16  C 
BRANCH 33 34
ATOM     34  CG  ASP J 604      -6.592  25.905  65.613  1.00 69.63 LIG 0.17  C 
ATOM     35 OD1  ASP J 604      -7.335  26.616  66.322  1.00 75.49 LIG-0.65  OA
ATOM     36 OD2  ASP J 604      -5.835  26.374  64.738  1.00 69.41 LIG-0.65  OA
ENDBRANCH 33 34
ENDBRANCH 31 33
ENDBRANCH 28 31
ENDBRANCH 1 27
TORSDOF 11
ENDMDL
MODEL 65
USER: ADFR SOLUTION from run 33
USER: SCORE 12.935025 LL:  -2.155 LR: -11.533 RR:   0.000 FEB:  -8.252
USER: RMSD 5.421067
USER: SEED 32
USER: STATUS no improvement in best in 16 clusters for 5 generations
USER: GENES 13
USER: genes 0 Translation |==|  0.40342 0.46170 0.47812
USER: genes 1 Rotation |==|  0.69457 0.52741 0.94616 0.61105
USER: genes 2 Torsion [C]-CA--CB-[CG] |==|  0.71507
USER: genes 3 Torsion [CA]-CB--CG-[CD2] |==|  0.34580
USER: genes 4 Torsion [N]-CA--C-[N] |==|  0.79444
USER: genes 5 Torsion [C]-N--CA-[CB] |==|  0.52696
USER: genes 6 Torsion [N]-CA--C-[O] |==|  0.39029
USER: genes 7 Torsion [N]-CA--CB-[CG] |==|  0.76329
USER: genes 8 Torsion [CA]-CB--CG-[ND2] |==|  0.85695
USER: genes 9 Torsion [CB]-CA--N-[C] |==|  0.57796
USER: genes 10 Torsion [N]-C--CA-[N] |==|  0.50653
USER: genes 11 Torsion [C]-CA--CB-[CG] |==|  0.78484
USER: genes 12 Torsion [CA]-CB--CG-[OD1] |==|  0.02851
ROOT
ATOM      1  CA  TRP J 605      -4.876  20.521  70.111  1.00 71.61 LIG 0.18  C 
ENDROOT
BRANCH 1 2
ATOM      2  CB  TRP J 605      -4.126  19.247  70.519  1.00 65.14 LIG 0.07  C 
BRANCH 2 3
ATOM      3  CG  TRP J 605      -3.161  18.747  69.485  1.00 62.37 LIG-0.03  A 
ATOM      4  CD2 TRP J 605      -1.764  18.494  69.669  1.00 57.80 LIG-0.00  A 
ATOM      5  CE3 TRP J 605      -0.889  18.618  70.753  1.00 58.94 LIG 0.01  A 
ATOM      6  CE2 TRP J 605      -1.258  18.028  68.439  1.00 56.30 LIG 0.04  A 
ATOM      7  CZ3 TRP J 605       0.440  18.279  70.578  1.00 59.47 LIG 0.00  A 
ATOM      8  CH2 TRP J 605       0.912  17.819  69.342  1.00 55.92 LIG 0.00  A 
ATOM      9  CZ2 TRP J 605       0.082  17.687  68.264  1.00 56.02 LIG 0.03  A 
ATOM     10  NE1 TRP J 605      -2.301  17.997  67.551  1.00 57.88 LIG-0.36  N 
ATOM     11  CD1 TRP J 605      -3.439  18.428  68.187  1.00 63.10 LIG 0.10  A 
ATOM     12 HE1  TRP J 605      -2.252  17.749  66.729  1.00 57.88 LIG 0.17  HD
ENDBRANCH 2 3
ENDBRANCH 1 2
BRANCH 1 13
ATOM     13  C   TRP J 605      -4.266  21.733  70.817  1.00 60.32 LIG 0.24  C 
ATOM     14  N   ASN J 606      -2.942  21.847  70.732  1.00 74.38 LIG-0.34  N 
ATOM     15 H    ASN J 606      -2.441  21.249  70.369  1.00 74.38 LIG 0.16  HD
ATOM     16 O    TRP J 605      -4.978  22.540  71.415  1.00 56.87 LIG-0.27  OA
BRANCH 14 17
ATOM     17  CA  ASN J 606      -2.201  23.000  71.247  1.00 65.98 LIG 0.19  C 
BRANCH 17 18
ATOM     18  C   ASN J 606      -2.805  24.349  70.865  1.00 66.37 LIG 0.20  C 
ATOM     19 O    ASN J 606      -2.835  25.281  71.665  1.00 70.67 LIG-0.65  OA
ATOM     20 OXT  ASN J 606      -3.263  24.537  69.737  1.00 61.82 LIG-0.65  OA
ENDBRANCH 17 18
BRANCH 17 21
ATOM     21  CB  ASN J 606      -0.746  22.935  70.781  1.00 63.43 LIG 0.14  C 
BRANCH 21 22
ATOM     22  CG  ASN J 606       0.119  22.083  71.694  1.00 67.06 LIG 0.22  C 
ATOM     23  ND2 ASN J 606       0.067  22.363  72.990  1.00 58.48 LIG-0.37  N 
ATOM     24 22HD ASN J 606      -0.439  22.999  73.273  1.00 58.48 LIG 0.16  HD
ATOM     25 21HD ASN J 606       0.540  21.910  73.547  1.00 58.48 LIG 0.16  HD
ATOM     26 OD1  ASN J 606       0.826  21.186  71.236  1.00 73.16 LIG-0.27  OA
ENDBRANCH 21 22
ENDBRANCH 17 21
ENDBRANCH 14 17
ENDBRANCH 1 13
BRANCH 1 27
ATOM     27  N   TRP J 605      -4.897  20.655  68.652  1.00 80.26 LIG-0.34  N 
ATOM     28  C   ASP J 604      -4.966  21.828  68.023  1.00 69.06 LIG 0.26  C 
ATOM     29 O    ASP J 604      -5.074  22.907  68.606  1.00 67.02 LIG-0.27  OA
ATOM     30 H    TRP J 605      -4.860  19.903  68.237  1.00 80.26 LIG 0.16  HD
BRANCH 28 31
ATOM     31  CA  ASP J 604      -4.906  21.774  66.498  1.00 80.57 LIG 0.41  C 
ATOM     32  N   ASP J 604      -4.935  23.120  65.934  1.00 92.85 LIG 0.61  N 
BRANCH 31 33
ATOM     33  CB  ASP J 604      -3.653  21.028  66.037  1.00 75.75 LIG 0.16  C 
BRANCH 33 34
ATOM     34  CG  ASP J 604      -2.398  21.875  66.136  1.00 69.63 LIG 0.17  C 
ATOM     35 OD1  ASP J 604      -2.460  22.967  66.740  1.00 75.49 LIG-0.65  OA
ATOM     36 OD2  ASP J 604      -1.348  21.446  65.613  1.00 69.41 LIG-0.65  OA
ENDBRANCH 33 34
ENDBRANCH 31 33
ENDBRANCH 28 31
ENDBRANCH 1 27
TORSDOF 11
ENDMDL
MODEL 66
USER: ADFR SOLUTION from run 101
USER: SCORE 11.927967 LL:  -2.099 LR: -11.533 RR:   0.000 FEB:  -8.252
USER: RMSD 7.142495
USER: SEED 100
USER: STATUS no improvement in best in 7 clusters for 5 generations
USER: GENES 13
USER: genes 0 Translation |==|  0.50135 0.51249 0.37780
USER: genes 1 Rotation |==|  0.90029 0.69268 0.27097 0.51364
USER: genes 2 Torsion [C]-CA--CB-[CG] |==|  0.43635
USER: genes 3 Torsion [CA]-CB--CG-[CD2] |==|  0.21322
USER: genes 4 Torsion [N]-CA--C-[N] |==|  0.65737
USER: genes 5 Torsion [C]-N--CA-[CB] |==|  0.57474
USER: genes 6 Torsion [N]-CA--C-[O] |==|  0.33873
USER: genes 7 Torsion [N]-CA--CB-[CG] |==|  0.06356
USER: genes 8 Torsion [CA]-CB--CG-[ND2] |==|  0.17707
USER: genes 9 Torsion [CB]-CA--N-[C] |==|  0.32388
USER: genes 10 Torsion [N]-C--CA-[N] |==|  0.57385
USER: genes 11 Torsion [C]-CA--CB-[CG] |==|  0.86249
USER: genes 12 Torsion [CA]-CB--CG-[OD1] |==|  0.40824
ROOT
ATOM      1  CA  TRP J 605      -3.187  21.321  68.380  1.00 71.61 LIG 0.18  C 
ENDROOT
BRANCH 1 2
ATOM      2  CB  TRP J 605      -3.415  19.831  68.098  1.00 65.14 LIG 0.07  C 
BRANCH 2 3
ATOM      3  CG  TRP J 605      -2.169  18.998  68.165  1.00 62.37 LIG-0.03  A 
ATOM      4  CD2 TRP J 605      -1.495  18.558  69.349  1.00 57.80 LIG-0.00  A 
ATOM      5  CE3 TRP J 605      -1.722  18.736  70.718  1.00 58.94 LIG 0.01  A 
ATOM      6  CE2 TRP J 605      -0.382  17.798  68.939  1.00 56.30 LIG 0.04  A 
ATOM      7  CZ3 TRP J 605      -0.845  18.157  71.617  1.00 59.47 LIG 0.00  A 
ATOM      8  CH2 TRP J 605       0.253  17.407  71.178  1.00 55.92 LIG 0.00  A 
ATOM      9  CZ2 TRP J 605       0.500  17.216  69.847  1.00 56.02 LIG 0.03  A 
ATOM     10  NE1 TRP J 605      -0.383  17.775  67.569  1.00 57.88 LIG-0.36  N 
ATOM     11  CD1 TRP J 605      -1.458  18.495  67.113  1.00 63.10 LIG 0.10  A 
ATOM     12 HE1  TRP J 605       0.196  17.374  67.075  1.00 57.88 LIG 0.17  HD
ENDBRANCH 2 3
ENDBRANCH 1 2
BRANCH 1 13
ATOM     13  C   TRP J 605      -4.314  22.147  67.757  1.00 60.32 LIG 0.24  C 
ATOM     14  N   ASN J 606      -5.255  21.454  67.119  1.00 74.38 LIG-0.34  N 
ATOM     15 H    ASN J 606      -5.210  20.604  66.994  1.00 74.38 LIG 0.16  HD
ATOM     16 O    TRP J 605      -4.327  23.374  67.858  1.00 56.87 LIG-0.27  OA
BRANCH 14 17
ATOM     17  CA  ASN J 606      -6.463  22.066  66.563  1.00 65.98 LIG 0.19  C 
BRANCH 17 18
ATOM     18  C   ASN J 606      -6.932  23.310  67.312  1.00 66.37 LIG 0.20  C 
ATOM     19 O    ASN J 606      -7.051  24.391  66.738  1.00 70.67 LIG-0.65  OA
ATOM     20 OXT  ASN J 606      -7.216  23.254  68.509  1.00 61.82 LIG-0.65  OA
ENDBRANCH 17 18
BRANCH 17 21
ATOM     21  CB  ASN J 606      -7.593  21.037  66.513  1.00 63.43 LIG 0.14  C 
BRANCH 21 22
ATOM     22  CG  ASN J 606      -7.390  19.903  67.503  1.00 67.06 LIG 0.22  C 
ATOM     23  ND2 ASN J 606      -7.395  20.231  68.789  1.00 58.48 LIG-0.37  N 
ATOM     24 22HD ASN J 606      -7.510  21.051  69.024  1.00 58.48 LIG 0.16  HD
ATOM     25 21HD ASN J 606      -7.282  19.624  69.388  1.00 58.48 LIG 0.16  HD
ATOM     26 OD1  ASN J 606      -7.229  18.746  67.113  1.00 73.16 LIG-0.27  OA
ENDBRANCH 21 22
ENDBRANCH 17 21
ENDBRANCH 14 17
ENDBRANCH 1 13
BRANCH 1 27
ATOM     27  N   TRP J 605      -3.034  21.551  69.819  1.00 80.26 LIG-0.34  N 
ATOM     28  C   ASP J 604      -1.916  22.018  70.373  1.00 69.06 LIG 0.26  C 
ATOM     29 O    ASP J 604      -0.887  22.249  69.738  1.00 67.02 LIG-0.27  OA
ATOM     30 H    TRP J 605      -3.736  21.355  70.275  1.00 80.26 LIG 0.16  HD
BRANCH 28 31
ATOM     31  CA  ASP J 604      -1.967  22.259  71.881  1.00 80.57 LIG 0.41  C 
ATOM     32  N   ASP J 604      -1.015  23.295  72.269  1.00 92.85 LIG 0.61  N 
BRANCH 31 33
ATOM     33  CB  ASP J 604      -3.382  22.644  72.315  1.00 75.75 LIG 0.16  C 
BRANCH 33 34
ATOM     34  CG  ASP J 604      -3.975  23.751  71.463  1.00 69.63 LIG 0.17  C 
ATOM     35 OD1  ASP J 604      -5.206  23.748  71.253  1.00 75.49 LIG-0.65  OA
ATOM     36 OD2  ASP J 604      -3.210  24.625  71.007  1.00 69.41 LIG-0.65  OA
ENDBRANCH 33 34
ENDBRANCH 31 33
ENDBRANCH 28 31
ENDBRANCH 1 27
TORSDOF 11
ENDMDL
MODEL 67
USER: ADFR SOLUTION from run 198
USER: SCORE 13.026752 LL:  -2.324 LR: -11.499 RR:   0.000 FEB:  -8.218
USER: RMSD 5.802254
USER: SEED 197
USER: STATUS no improvement in best in 9 clusters for 5 generations
USER: GENES 13
USER: genes 0 Translation |==|  0.49402 0.51308 0.54098
USER: genes 1 Rotation |==|  0.31108 0.93174 0.34066 0.55022
USER: genes 2 Torsion [C]-CA--CB-[CG] |==|  0.74657
USER: genes 3 Torsion [CA]-CB--CG-[CD2] |==|  0.08948
USER: genes 4 Torsion [N]-CA--C-[N] |==|  0.57472
USER: genes 5 Torsion [C]-N--CA-[CB] |==|  0.55728
USER: genes 6 Torsion [N]-CA--C-[O] |==|  0.78301
USER: genes 7 Torsion [N]-CA--CB-[CG] |==|  0.13702
USER: genes 8 Torsion [CA]-CB--CG-[ND2] |==|  0.33753
USER: genes 9 Torsion [CB]-CA--N-[C] |==|  0.15079
USER: genes 10 Torsion [N]-C--CA-[N] |==|  0.40980
USER: genes 11 Torsion [C]-CA--CB-[CG] |==|  0.85191
USER: genes 12 Torsion [CA]-CB--CG-[OD1] |==|  0.28524
ROOT
ATOM      1  CA  TRP J 605      -3.313  21.330  71.195  1.00 71.61 LIG 0.18  C 
ENDROOT
BRANCH 1 2
ATOM      2  CB  TRP J 605      -3.004  21.925  69.816  1.00 65.14 LIG 0.07  C 
BRANCH 2 3
ATOM      3  CG  TRP J 605      -1.709  22.680  69.752  1.00 62.37 LIG-0.03  A 
ATOM      4  CD2 TRP J 605      -0.518  22.402  70.497  1.00 57.80 LIG-0.00  A 
ATOM      5  CE3 TRP J 605      -0.173  21.442  71.454  1.00 58.94 LIG 0.01  A 
ATOM      6  CE2 TRP J 605       0.447  23.354  70.113  1.00 56.30 LIG 0.04  A 
ATOM      7  CZ3 TRP J 605       1.102  21.464  71.988  1.00 59.47 LIG 0.00  A 
ATOM      8  CH2 TRP J 605       2.039  22.424  71.585  1.00 55.92 LIG 0.00  A 
ATOM      9  CZ2 TRP J 605       1.732  23.374  70.652  1.00 56.02 LIG 0.03  A 
ATOM     10  NE1 TRP J 605      -0.131  24.170  69.176  1.00 57.88 LIG-0.36  N 
ATOM     11  CD1 TRP J 605      -1.423  23.758  68.964  1.00 63.10 LIG 0.10  A 
ATOM     12 HE1  TRP J 605       0.253  24.833  68.784  1.00 57.88 LIG 0.17  HD
ENDBRANCH 2 3
ENDBRANCH 1 2
BRANCH 1 13
ATOM     13  C   TRP J 605      -2.758  19.907  71.284  1.00 60.32 LIG 0.24  C 
ATOM     14  N   ASN J 606      -2.693  19.238  70.135  1.00 74.38 LIG-0.34  N 
ATOM     15 H    ASN J 606      -3.005  19.544  69.394  1.00 74.38 LIG 0.16  HD
ATOM     16 O    TRP J 605      -2.396  19.437  72.363  1.00 56.87 LIG-0.27  OA
BRANCH 14 17
ATOM     17  CA  ASN J 606      -2.084  17.912  70.012  1.00 65.98 LIG 0.19  C 
BRANCH 17 18
ATOM     18  C   ASN J 606      -0.866  17.701  70.906  1.00 66.37 LIG 0.20  C 
ATOM     19 O    ASN J 606       0.232  18.164  70.604  1.00 70.67 LIG-0.65  OA
ATOM     20 OXT  ASN J 606      -0.960  17.071  71.960  1.00 61.82 LIG-0.65  OA
ENDBRANCH 17 18
BRANCH 17 21
ATOM     21  CB  ASN J 606      -1.708  17.644  68.555  1.00 63.43 LIG 0.14  C 
BRANCH 21 22
ATOM     22  CG  ASN J 606      -0.926  18.791  67.936  1.00 67.06 LIG 0.22  C 
ATOM     23  ND2 ASN J 606       0.278  18.499  67.461  1.00 58.48 LIG-0.37  N 
ATOM     24 22HD ASN J 606       0.577  17.694  67.513  1.00 58.48 LIG 0.16  HD
ATOM     25 21HD ASN J 606       0.760  19.114  67.103  1.00 58.48 LIG 0.16  HD
ATOM     26 OD1  ASN J 606      -1.403  19.925  67.889  1.00 73.16 LIG-0.27  OA
ENDBRANCH 21 22
ENDBRANCH 17 21
ENDBRANCH 14 17
ENDBRANCH 1 13
BRANCH 1 27
ATOM     27  N   TRP J 605      -2.813  22.210  72.254  1.00 80.26 LIG-0.34  N 
ATOM     28  C   ASP J 604      -3.130  23.500  72.349  1.00 69.06 LIG 0.26  C 
ATOM     29 O    ASP J 604      -3.829  24.091  71.524  1.00 67.02 LIG-0.27  OA
ATOM     30 H    TRP J 605      -2.293  21.814  72.813  1.00 80.26 LIG 0.16  HD
BRANCH 28 31
ATOM     31  CA  ASP J 604      -2.569  24.241  73.561  1.00 80.57 LIG 0.41  C 
ATOM     32  N   ASP J 604      -2.292  25.635  73.230  1.00 92.85 LIG 0.61  N 
BRANCH 31 33
ATOM     33  CB  ASP J 604      -3.540  24.154  74.739  1.00 75.75 LIG 0.16  C 
BRANCH 33 34
ATOM     34  CG  ASP J 604      -4.941  24.614  74.378  1.00 69.63 LIG 0.17  C 
ATOM     35 OD1  ASP J 604      -5.819  23.749  74.178  1.00 75.49 LIG-0.65  OA
ATOM     36 OD2  ASP J 604      -5.163  25.840  74.299  1.00 69.41 LIG-0.65  OA
ENDBRANCH 33 34
ENDBRANCH 31 33
ENDBRANCH 28 31
ENDBRANCH 1 27
TORSDOF 11
ENDMDL
MODEL 68
USER: ADFR SOLUTION from run 143
USER: SCORE 12.640828 LL:  -1.927 LR: -11.480 RR:   0.000 FEB:  -8.198
USER: RMSD 6.538850
USER: SEED 142
USER: STATUS no improvement in best in 9 clusters for 5 generations
USER: GENES 13
USER: genes 0 Translation |==|  0.49489 0.42964 0.30062
USER: genes 1 Rotation |==|  0.87507 0.74106 0.72465 0.52724
USER: genes 2 Torsion [C]-CA--CB-[CG] |==|  0.38433
USER: genes 3 Torsion [CA]-CB--CG-[CD2] |==|  0.93291
USER: genes 4 Torsion [N]-CA--C-[N] |==|  0.11125
USER: genes 5 Torsion [C]-N--CA-[CB] |==|  0.47668
USER: genes 6 Torsion [N]-CA--C-[O] |==|  0.43198
USER: genes 7 Torsion [N]-CA--CB-[CG] |==|  0.52419
USER: genes 8 Torsion [CA]-CB--CG-[ND2] |==|  0.20231
USER: genes 9 Torsion [CB]-CA--N-[C] |==|  0.80511
USER: genes 10 Torsion [N]-C--CA-[N] |==|  0.45052
USER: genes 11 Torsion [C]-CA--CB-[CG] |==|  0.48996
USER: genes 12 Torsion [CA]-CB--CG-[OD1] |==|  0.68629
ROOT
ATOM      1  CA  TRP J 605      -3.298  20.016  67.049  1.00 71.61 LIG 0.18  C 
ENDROOT
BRANCH 1 2
ATOM      2  CB  TRP J 605      -2.063  19.250  66.559  1.00 65.14 LIG 0.07  C 
BRANCH 2 3
ATOM      3  CG  TRP J 605      -1.339  18.502  67.639  1.00 62.37 LIG-0.03  A 
ATOM      4  CD2 TRP J 605      -1.357  18.792  69.041  1.00 57.80 LIG-0.00  A 
ATOM      5  CE3 TRP J 605      -1.976  19.774  69.822  1.00 58.94 LIG 0.01  A 
ATOM      6  CE2 TRP J 605      -0.548  17.830  69.678  1.00 56.30 LIG 0.04  A 
ATOM      7  CZ3 TRP J 605      -1.771  19.763  71.189  1.00 59.47 LIG 0.00  A 
ATOM      8  CH2 TRP J 605      -0.960  18.793  71.793  1.00 55.92 LIG 0.00  A 
ATOM      9  CZ2 TRP J 605      -0.342  17.821  71.056  1.00 56.02 LIG 0.03  A 
ATOM     10  NE1 TRP J 605      -0.065  16.993  68.707  1.00 57.88 LIG-0.36  N 
ATOM     11  CD1 TRP J 605      -0.545  17.401  67.488  1.00 63.10 LIG 0.10  A 
ATOM     12 HE1  TRP J 605       0.456  16.321  68.839  1.00 57.88 LIG 0.17  HD
ENDBRANCH 2 3
ENDBRANCH 1 2
BRANCH 1 13
ATOM     13  C   TRP J 605      -3.355  21.391  66.381  1.00 60.32 LIG 0.24  C 
ATOM     14  N   ASN J 606      -4.526  22.022  66.452  1.00 74.38 LIG-0.34  N 
ATOM     15 H    ASN J 606      -5.233  21.663  66.785  1.00 74.38 LIG 0.16  HD
ATOM     16 O    TRP J 605      -2.364  21.864  65.825  1.00 56.87 LIG-0.27  OA
BRANCH 14 17
ATOM     17  CA  ASN J 606      -4.731  23.389  65.972  1.00 65.98 LIG 0.19  C 
BRANCH 17 18
ATOM     18  C   ASN J 606      -3.938  24.444  66.738  1.00 66.37 LIG 0.20  C 
ATOM     19 O    ASN J 606      -3.644  25.519  66.220  1.00 70.67 LIG-0.65  OA
ATOM     20 OXT  ASN J 606      -3.585  24.245  67.901  1.00 61.82 LIG-0.65  OA
ENDBRANCH 17 18
BRANCH 17 21
ATOM     21  CB  ASN J 606      -6.219  23.736  66.008  1.00 63.43 LIG 0.14  C 
BRANCH 21 22
ATOM     22  CG  ASN J 606      -6.525  25.060  65.327  1.00 67.06 LIG 0.22  C 
ATOM     23  ND2 ASN J 606      -6.453  25.075  64.002  1.00 58.48 LIG-0.37  N 
ATOM     24 22HD ASN J 606      -6.244  24.358  63.574  1.00 58.48 LIG 0.16  HD
ATOM     25 21HD ASN J 606      -6.616  25.800  63.571  1.00 58.48 LIG 0.16  HD
ATOM     26 OD1  ASN J 606      -6.819  26.056  65.988  1.00 73.16 LIG-0.27  OA
ENDBRANCH 21 22
ENDBRANCH 17 21
ENDBRANCH 14 17
ENDBRANCH 1 13
BRANCH 1 27
ATOM     27  N   TRP J 605      -4.510  19.222  66.834  1.00 80.26 LIG-0.34  N 
ATOM     28  C   ASP J 604      -5.021  18.973  65.629  1.00 69.06 LIG 0.26  C 
ATOM     29 O    ASP J 604      -4.557  19.432  64.585  1.00 67.02 LIG-0.27  OA
ATOM     30 H    TRP J 605      -4.863  18.930  67.561  1.00 80.26 LIG 0.16  HD
BRANCH 28 31
ATOM     31  CA  ASP J 604      -6.251  18.068  65.597  1.00 80.57 LIG 0.41  C 
ATOM     32  N   ASP J 604      -6.958  18.203  64.328  1.00 92.85 LIG 0.61  N 
BRANCH 31 33
ATOM     33  CB  ASP J 604      -5.850  16.611  65.833  1.00 75.75 LIG 0.16  C 
BRANCH 33 34
ATOM     34  CG  ASP J 604      -7.044  15.678  65.898  1.00 69.63 LIG 0.17  C 
ATOM     35 OD1  ASP J 604      -7.310  15.124  66.986  1.00 75.49 LIG-0.65  OA
ATOM     36 OD2  ASP J 604      -7.719  15.501  64.863  1.00 69.41 LIG-0.65  OA
ENDBRANCH 33 34
ENDBRANCH 31 33
ENDBRANCH 28 31
ENDBRANCH 1 27
TORSDOF 11
ENDMDL
MODEL 69
USER: ADFR SOLUTION from run 151
USER: SCORE 12.798775 LL:  -1.347 LR: -11.476 RR:   0.000 FEB:  -8.195
USER: RMSD 7.739250
USER: SEED 150
USER: STATUS no improvement in best in 10 clusters for 5 generations
USER: GENES 13
USER: genes 0 Translation |==|  0.48181 0.37238 0.28011
USER: genes 1 Rotation |==|  0.25439 0.51118 0.88616 0.70108
USER: genes 2 Torsion [C]-CA--CB-[CG] |==|  0.21063
USER: genes 3 Torsion [CA]-CB--CG-[CD2] |==|  0.28025
USER: genes 4 Torsion [N]-CA--C-[N] |==|  0.41665
USER: genes 5 Torsion [C]-N--CA-[CB] |==|  0.75425
USER: genes 6 Torsion [N]-CA--C-[O] |==|  0.09746
USER: genes 7 Torsion [N]-CA--CB-[CG] |==|  0.19023
USER: genes 8 Torsion [CA]-CB--CG-[ND2] |==|  0.23634
USER: genes 9 Torsion [CB]-CA--N-[C] |==|  0.82686
USER: genes 10 Torsion [N]-C--CA-[N] |==|  0.14596
USER: genes 11 Torsion [C]-CA--CB-[CG] |==|  0.18153
USER: genes 12 Torsion [CA]-CB--CG-[OD1] |==|  0.48355
ROOT
ATOM      1  CA  TRP J 605      -3.524  19.114  66.695  1.00 71.61 LIG 0.18  C 
ENDROOT
BRANCH 1 2
ATOM      2  CB  TRP J 605      -4.695  18.402  67.383  1.00 65.14 LIG 0.07  C 
BRANCH 2 3
ATOM      3  CG  TRP J 605      -6.023  18.634  66.725  1.00 62.37 LIG-0.03  A 
ATOM      4  CD2 TRP J 605      -6.711  17.737  65.846  1.00 57.80 LIG-0.00  A 
ATOM      5  CE3 TRP J 605      -6.422  16.470  65.330  1.00 58.94 LIG 0.01  A 
ATOM      6  CE2 TRP J 605      -7.921  18.359  65.477  1.00 56.30 LIG 0.04  A 
ATOM      7  CZ3 TRP J 605      -7.334  15.874  64.479  1.00 59.47 LIG 0.00  A 
ATOM      8  CH2 TRP J 605      -8.528  16.518  64.131  1.00 55.92 LIG 0.00  A 
ATOM      9  CZ2 TRP J 605      -8.838  17.757  64.619  1.00 56.02 LIG 0.03  A 
ATOM     10  NE1 TRP J 605      -7.965  19.575  66.107  1.00 57.88 LIG-0.36  N 
ATOM     11  CD1 TRP J 605      -6.825  19.731  66.854  1.00 63.10 LIG 0.10  A 
ATOM     12 HE1  TRP J 605      -8.604  20.148  66.044  1.00 57.88 LIG 0.17  HD
ENDBRANCH 2 3
ENDBRANCH 1 2
BRANCH 1 13
ATOM     13  C   TRP J 605      -3.553  20.607  67.030  1.00 60.32 LIG 0.24  C 
ATOM     14  N   ASN J 606      -4.316  21.362  66.243  1.00 74.38 LIG-0.34  N 
ATOM     15 H    ASN J 606      -4.716  21.058  65.544  1.00 74.38 LIG 0.16  HD
ATOM     16 O    TRP J 605      -2.906  21.054  67.977  1.00 56.87 LIG-0.27  OA
BRANCH 14 17
ATOM     17  CA  ASN J 606      -4.554  22.786  66.484  1.00 65.98 LIG 0.19  C 
BRANCH 17 18
ATOM     18  C   ASN J 606      -3.354  23.528  67.065  1.00 66.37 LIG 0.20  C 
ATOM     19 O    ASN J 606      -2.206  23.234  66.740  1.00 70.67 LIG-0.65  OA
ATOM     20 OXT  ASN J 606      -3.512  24.451  67.866  1.00 61.82 LIG-0.65  OA
ENDBRANCH 17 18
BRANCH 17 21
ATOM     21  CB  ASN J 606      -5.765  22.964  67.400  1.00 63.43 LIG 0.14  C 
BRANCH 21 22
ATOM     22  CG  ASN J 606      -5.501  22.475  68.814  1.00 67.06 LIG 0.22  C 
ATOM     23  ND2 ASN J 606      -4.917  23.336  69.639  1.00 58.48 LIG-0.37  N 
ATOM     24 22HD ASN J 606      -4.710  24.124  69.363  1.00 58.48 LIG 0.16  HD
ATOM     25 21HD ASN J 606      -4.745  23.105  70.449  1.00 58.48 LIG 0.16  HD
ATOM     26 OD1  ASN J 606      -5.817  21.336  69.157  1.00 73.16 LIG-0.27  OA
ENDBRANCH 21 22
ENDBRANCH 17 21
ENDBRANCH 14 17
ENDBRANCH 1 13
BRANCH 1 27
ATOM     27  N   TRP J 605      -2.256  18.470  67.048  1.00 80.26 LIG-0.34  N 
ATOM     28  C   ASP J 604      -1.785  18.409  68.293  1.00 69.06 LIG 0.26  C 
ATOM     29 O    ASP J 604      -2.342  18.935  69.258  1.00 67.02 LIG-0.27  OA
ATOM     30 H    TRP J 605      -1.841  18.134  66.374  1.00 80.26 LIG 0.16  HD
BRANCH 28 31
ATOM     31  CA  ASP J 604      -0.481  17.637  68.478  1.00 80.57 LIG 0.41  C 
ATOM     32  N   ASP J 604       0.542  18.125  67.559  1.00 92.85 LIG 0.61  N 
BRANCH 31 33
ATOM     33  CB  ASP J 604       0.006  17.746  69.925  1.00 75.75 LIG 0.16  C 
BRANCH 33 34
ATOM     34  CG  ASP J 604      -0.932  17.074  70.910  1.00 69.63 LIG 0.17  C 
ATOM     35 OD1  ASP J 604      -0.585  16.999  72.108  1.00 75.49 LIG-0.65  OA
ATOM     36 OD2  ASP J 604      -2.017  16.624  70.487  1.00 69.41 LIG-0.65  OA
ENDBRANCH 33 34
ENDBRANCH 31 33
ENDBRANCH 28 31
ENDBRANCH 1 27
TORSDOF 11
ENDMDL
MODEL 70
USER: ADFR SOLUTION from run 111
USER: SCORE 12.983768 LL:  -2.190 LR: -11.476 RR:   0.000 FEB:  -8.194
USER: RMSD 5.508346
USER: SEED 110
USER: STATUS no improvement in best in 10 clusters for 5 generations
USER: GENES 13
USER: genes 0 Translation |==|  0.51639 0.31239 0.38283
USER: genes 1 Rotation |==|  0.19079 0.71050 0.22155 0.68040
USER: genes 2 Torsion [C]-CA--CB-[CG] |==|  0.65977
USER: genes 3 Torsion [CA]-CB--CG-[CD2] |==|  0.79781
USER: genes 4 Torsion [N]-CA--C-[N] |==|  0.80122
USER: genes 5 Torsion [C]-N--CA-[CB] |==|  0.72489
USER: genes 6 Torsion [N]-CA--C-[O] |==|  0.27244
USER: genes 7 Torsion [N]-CA--CB-[CG] |==|  0.78707
USER: genes 8 Torsion [CA]-CB--CG-[ND2] |==|  0.65580
USER: genes 9 Torsion [CB]-CA--N-[C] |==|  0.58891
USER: genes 10 Torsion [N]-C--CA-[N] |==|  0.66230
USER: genes 11 Torsion [C]-CA--CB-[CG] |==|  0.61288
USER: genes 12 Torsion [CA]-CB--CG-[OD1] |==|  0.73666
ROOT
ATOM      1  CA  TRP J 605      -2.927  18.169  68.467  1.00 71.61 LIG 0.18  C 
ENDROOT
BRANCH 1 2
ATOM      2  CB  TRP J 605      -2.153  18.446  67.172  1.00 65.14 LIG 0.07  C 
BRANCH 2 3
ATOM      3  CG  TRP J 605      -2.523  19.736  66.502  1.00 62.37 LIG-0.03  A 
ATOM      4  CD2 TRP J 605      -3.735  20.014  65.790  1.00 57.80 LIG-0.00  A 
ATOM      5  CE3 TRP J 605      -4.876  19.265  65.487  1.00 58.94 LIG 0.01  A 
ATOM      6  CE2 TRP J 605      -3.658  21.347  65.340  1.00 56.30 LIG 0.04  A 
ATOM      7  CZ3 TRP J 605      -5.888  19.861  64.757  1.00 59.47 LIG 0.00  A 
ATOM      8  CH2 TRP J 605      -5.782  21.189  64.323  1.00 55.92 LIG 0.00  A 
ATOM      9  CZ2 TRP J 605      -4.678  21.946  64.604  1.00 56.02 LIG 0.03  A 
ATOM     10  NE1 TRP J 605      -2.457  21.854  65.761  1.00 57.88 LIG-0.36  N 
ATOM     11  CD1 TRP J 605      -1.784  20.882  66.459  1.00 63.10 LIG 0.10  A 
ATOM     12 HE1  TRP J 605      -2.171  22.652  65.613  1.00 57.88 LIG 0.17  HD
ENDBRANCH 2 3
ENDBRANCH 1 2
BRANCH 1 13
ATOM     13  C   TRP J 605      -1.949  17.987  69.629  1.00 60.32 LIG 0.24  C 
ATOM     14  N   ASN J 606      -1.053  18.959  69.790  1.00 74.38 LIG-0.34  N 
ATOM     15 H    ASN J 606      -0.970  19.616  69.242  1.00 74.38 LIG 0.16  HD
ATOM     16 O    TRP J 605      -2.013  16.997  70.358  1.00 56.87 LIG-0.27  OA
BRANCH 14 17
ATOM     17  CA  ASN J 606      -0.117  19.009  70.914  1.00 65.98 LIG 0.19  C 
BRANCH 17 18
ATOM     18  C   ASN J 606       0.179  17.648  71.539  1.00 66.37 LIG 0.20  C 
ATOM     19 O    ASN J 606       1.191  17.018  71.238  1.00 70.67 LIG-0.65  OA
ATOM     20 OXT  ASN J 606      -0.585  17.157  72.371  1.00 61.82 LIG-0.65  OA
ENDBRANCH 17 18
BRANCH 17 21
ATOM     21  CB  ASN J 606      -0.641  19.965  71.986  1.00 63.43 LIG 0.14  C 
BRANCH 21 22
ATOM     22  CG  ASN J 606      -0.438  21.424  71.613  1.00 67.06 LIG 0.22  C 
ATOM     23  ND2 ASN J 606       0.241  22.167  72.478  1.00 58.48 LIG-0.37  N 
ATOM     24 22HD ASN J 606       0.540  21.817  73.205  1.00 58.48 LIG 0.16  HD
ATOM     25 21HD ASN J 606       0.381  22.999  72.313  1.00 58.48 LIG 0.16  HD
ATOM     26 OD1  ASN J 606      -0.888  21.874  70.559  1.00 73.16 LIG-0.27  OA
ENDBRANCH 21 22
ENDBRANCH 17 21
ENDBRANCH 14 17
ENDBRANCH 1 13
BRANCH 1 27
ATOM     27  N   TRP J 605      -3.915  19.224  68.706  1.00 80.26 LIG-0.34  N 
ATOM     28  C   ASP J 604      -4.281  19.625  69.922  1.00 69.06 LIG 0.26  C 
ATOM     29 O    ASP J 604      -3.867  19.111  70.962  1.00 67.02 LIG-0.27  OA
ATOM     30 H    TRP J 605      -4.239  19.562  67.985  1.00 80.26 LIG 0.16  HD
BRANCH 28 31
ATOM     31  CA  ASP J 604      -5.273  20.786  69.975  1.00 80.57 LIG 0.41  C 
ATOM     32  N   ASP J 604      -4.715  21.907  70.724  1.00 92.85 LIG 0.61  N 
BRANCH 31 33
ATOM     33  CB  ASP J 604      -5.657  21.227  68.561  1.00 75.75 LIG 0.16  C 
BRANCH 33 34
ATOM     34  CG  ASP J 604      -5.747  22.734  68.422  1.00 69.63 LIG 0.17  C 
ATOM     35 OD1  ASP J 604      -6.863  23.280  68.553  1.00 75.49 LIG-0.65  OA
ATOM     36 OD2  ASP J 604      -4.702  23.374  68.184  1.00 69.41 LIG-0.65  OA
ENDBRANCH 33 34
ENDBRANCH 31 33
ENDBRANCH 28 31
ENDBRANCH 1 27
TORSDOF 11
ENDMDL
MODEL 71
USER: ADFR SOLUTION from run 115
USER: SCORE 13.203470 LL:  -1.893 LR: -11.455 RR:   0.000 FEB:  -8.174
USER: RMSD 5.557585
USER: SEED 114
USER: STATUS no improvement in best in 6 clusters for 5 generations
USER: GENES 13
USER: genes 0 Translation |==|  0.47829 0.56775 0.54921
USER: genes 1 Rotation |==|  0.53468 0.05456 0.27749 0.52951
USER: genes 2 Torsion [C]-CA--CB-[CG] |==|  0.41246
USER: genes 3 Torsion [CA]-CB--CG-[CD2] |==|  0.48967
USER: genes 4 Torsion [N]-CA--C-[N] |==|  0.87328
USER: genes 5 Torsion [C]-N--CA-[CB] |==|  0.13441
USER: genes 6 Torsion [N]-CA--C-[O] |==|  0.96838
USER: genes 7 Torsion [N]-CA--CB-[CG] |==|  0.28339
USER: genes 8 Torsion [CA]-CB--CG-[ND2] |==|  0.30997
USER: genes 9 Torsion [CB]-CA--N-[C] |==|  0.86111
USER: genes 10 Torsion [N]-C--CA-[N] |==|  0.69733
USER: genes 11 Torsion [C]-CA--CB-[CG] |==|  0.44450
USER: genes 12 Torsion [CA]-CB--CG-[OD1] |==|  0.03825
ROOT
ATOM      1  CA  TRP J 605      -3.584  22.191  71.337  1.00 71.61 LIG 0.18  C 
ENDROOT
BRANCH 1 2
ATOM      2  CB  TRP J 605      -3.086  23.626  71.548  1.00 65.14 LIG 0.07  C 
BRANCH 2 3
ATOM      3  CG  TRP J 605      -3.090  24.070  72.980  1.00 62.37 LIG-0.03  A 
ATOM      4  CD2 TRP J 605      -2.613  25.321  73.490  1.00 57.80 LIG-0.00  A 
ATOM      5  CE3 TRP J 605      -2.027  26.448  72.906  1.00 58.94 LIG 0.01  A 
ATOM      6  CE2 TRP J 605      -2.822  25.310  74.884  1.00 56.30 LIG 0.04  A 
ATOM      7  CZ3 TRP J 605      -1.675  27.511  73.717  1.00 59.47 LIG 0.00  A 
ATOM      8  CH2 TRP J 605      -1.895  27.470  75.100  1.00 55.92 LIG 0.00  A 
ATOM      9  CZ2 TRP J 605      -2.466  26.382  75.700  1.00 56.02 LIG 0.03  A 
ATOM     10  NE1 TRP J 605      -3.401  24.111  75.204  1.00 57.88 LIG-0.36  N 
ATOM     11  CD1 TRP J 605      -3.560  23.374  74.056  1.00 63.10 LIG 0.10  A 
ATOM     12 HE1  TRP J 605      -3.628  23.859  75.994  1.00 57.88 LIG 0.17  HD
ENDBRANCH 2 3
ENDBRANCH 1 2
BRANCH 1 13
ATOM     13  C   TRP J 605      -4.275  22.075  69.976  1.00 60.32 LIG 0.24  C 
ATOM     14  N   ASN J 606      -3.466  21.983  68.923  1.00 74.38 LIG-0.34  N 
ATOM     15 H    ASN J 606      -2.611  22.056  68.979  1.00 74.38 LIG 0.16  HD
ATOM     16 O    TRP J 605      -5.503  22.063  69.891  1.00 56.87 LIG-0.27  OA
BRANCH 14 17
ATOM     17  CA  ASN J 606      -3.948  21.751  67.560  1.00 65.98 LIG 0.19  C 
BRANCH 17 18
ATOM     18  C   ASN J 606      -2.868  21.871  66.489  1.00 66.37 LIG 0.20  C 
ATOM     19 O    ASN J 606      -1.762  22.339  66.751  1.00 70.67 LIG-0.65  OA
ATOM     20 OXT  ASN J 606      -3.077  21.487  65.337  1.00 61.82 LIG-0.65  OA
ENDBRANCH 17 18
BRANCH 17 21
ATOM     21  CB  ASN J 606      -5.097  22.708  67.243  1.00 63.43 LIG 0.14  C 
BRANCH 21 22
ATOM     22  CG  ASN J 606      -4.658  23.879  66.381  1.00 67.06 LIG 0.22  C 
ATOM     23  ND2 ASN J 606      -5.129  23.911  65.140  1.00 58.48 LIG-0.37  N 
ATOM     24 22HD ASN J 606      -5.655  23.288  64.864  1.00 58.48 LIG 0.16  HD
ATOM     25 21HD ASN J 606      -4.908  24.552  64.613  1.00 58.48 LIG 0.16  HD
ATOM     26 OD1  ASN J 606      -3.903  24.743  66.827  1.00 73.16 LIG-0.27  OA
ENDBRANCH 21 22
ENDBRANCH 17 21
ENDBRANCH 14 17
ENDBRANCH 1 13
BRANCH 1 27
ATOM     27  N   TRP J 605      -2.485  21.238  71.507  1.00 80.26 LIG-0.34  N 
ATOM     28  C   ASP J 604      -1.307  21.360  70.898  1.00 69.06 LIG 0.26  C 
ATOM     29 O    ASP J 604      -1.046  22.253  70.091  1.00 67.02 LIG-0.27  OA
ATOM     30 H    TRP J 605      -2.672  20.589  72.040  1.00 80.26 LIG 0.16  HD
BRANCH 28 31
ATOM     31  CA  ASP J 604      -0.258  20.307  71.252  1.00 80.57 LIG 0.41  C 
ATOM     32  N   ASP J 604       0.806  20.891  72.062  1.00 92.85 LIG 0.61  N 
BRANCH 31 33
ATOM     33  CB  ASP J 604      -0.905  19.132  71.988  1.00 75.75 LIG 0.16  C 
BRANCH 33 34
ATOM     34  CG  ASP J 604      -0.060  17.874  71.941  1.00 69.63 LIG 0.17  C 
ATOM     35 OD1  ASP J 604       1.130  17.967  71.573  1.00 75.49 LIG-0.65  OA
ATOM     36 OD2  ASP J 604      -0.585  16.791  72.275  1.00 69.41 LIG-0.65  OA
ENDBRANCH 33 34
ENDBRANCH 31 33
ENDBRANCH 28 31
ENDBRANCH 1 27
TORSDOF 11
ENDMDL
MODEL 72
USER: ADFR SOLUTION from run 53
USER: SCORE 13.000169 LL:  -1.786 LR: -11.447 RR:   0.000 FEB:  -8.165
USER: RMSD 5.494559
USER: SEED 52
USER: STATUS no improvement in best in 19 clusters for 5 generations
USER: GENES 13
USER: genes 0 Translation |==|  0.48017 0.37186 0.34087
USER: genes 1 Rotation |==|  0.19701 0.31296 0.17167 0.62415
USER: genes 2 Torsion [C]-CA--CB-[CG] |==|  0.33134
USER: genes 3 Torsion [CA]-CB--CG-[CD2] |==|  0.85762
USER: genes 4 Torsion [N]-CA--C-[N] |==|  0.47081
USER: genes 5 Torsion [C]-N--CA-[CB] |==|  0.86986
USER: genes 6 Torsion [N]-CA--C-[O] |==|  0.54687
USER: genes 7 Torsion [N]-CA--CB-[CG] |==|  0.82985
USER: genes 8 Torsion [CA]-CB--CG-[ND2] |==|  0.78092
USER: genes 9 Torsion [CB]-CA--N-[C] |==|  0.53333
USER: genes 10 Torsion [N]-C--CA-[N] |==|  0.79916
USER: genes 11 Torsion [C]-CA--CB-[CG] |==|  0.38703
USER: genes 12 Torsion [CA]-CB--CG-[OD1] |==|  0.04732
ROOT
ATOM      1  CA  TRP J 605      -3.552  19.106  67.743  1.00 71.61 LIG 0.18  C 
ENDROOT
BRANCH 1 2
ATOM      2  CB  TRP J 605      -2.120  19.150  67.197  1.00 65.14 LIG 0.07  C 
BRANCH 2 3
ATOM      3  CG  TRP J 605      -1.141  18.324  67.979  1.00 62.37 LIG-0.03  A 
ATOM      4  CD2 TRP J 605      -0.931  18.357  69.395  1.00 57.80 LIG-0.00  A 
ATOM      5  CE3 TRP J 605      -1.490  19.097  70.442  1.00 58.94 LIG 0.01  A 
ATOM      6  CE2 TRP J 605       0.071  17.411  69.691  1.00 56.30 LIG 0.04  A 
ATOM      7  CZ3 TRP J 605      -1.038  18.871  71.729  1.00 59.47 LIG 0.00  A 
ATOM      8  CH2 TRP J 605      -0.041  17.924  71.992  1.00 55.92 LIG 0.00  A 
ATOM      9  CZ2 TRP J 605       0.524  17.186  70.989  1.00 56.02 LIG 0.03  A 
ATOM     10  NE1 TRP J 605       0.448  16.829  68.509  1.00 57.88 LIG-0.36  N 
ATOM     11  CD1 TRP J 605      -0.285  17.381  67.488  1.00 63.10 LIG 0.10  A 
ATOM     12 HE1  TRP J 605       1.047  16.218  68.421  1.00 57.88 LIG 0.17  HD
ENDBRANCH 2 3
ENDBRANCH 1 2
BRANCH 1 13
ATOM     13  C   TRP J 605      -3.998  20.512  68.148  1.00 60.32 LIG 0.24  C 
ATOM     14  N   ASN J 606      -3.353  21.049  69.182  1.00 74.38 LIG-0.34  N 
ATOM     15 H    ASN J 606      -2.771  20.620  69.647  1.00 74.38 LIG 0.16  HD
ATOM     16 O    TRP J 605      -4.897  21.090  67.536  1.00 56.87 LIG-0.27  OA
BRANCH 14 17
ATOM     17  CA  ASN J 606      -3.568  22.425  69.633  1.00 65.98 LIG 0.19  C 
BRANCH 17 18
ATOM     18  C   ASN J 606      -4.854  22.626  70.429  1.00 66.37 LIG 0.20  C 
ATOM     19 O    ASN J 606      -5.322  23.749  70.608  1.00 70.67 LIG-0.65  OA
ATOM     20 OXT  ASN J 606      -5.460  21.663  70.900  1.00 61.82 LIG-0.65  OA
ENDBRANCH 17 18
BRANCH 17 21
ATOM     21  CB  ASN J 606      -3.549  23.375  68.435  1.00 63.43 LIG 0.14  C 
BRANCH 21 22
ATOM     22  CG  ASN J 606      -2.219  23.359  67.701  1.00 67.06 LIG 0.22  C 
ATOM     23  ND2 ASN J 606      -1.230  24.055  68.250  1.00 58.48 LIG-0.37  N 
ATOM     24 22HD ASN J 606      -1.362  24.484  68.984  1.00 58.48 LIG 0.16  HD
ATOM     25 21HD ASN J 606      -0.459  24.077  67.871  1.00 58.48 LIG 0.16  HD
ATOM     26 OD1  ASN J 606      -2.085  22.728  66.652  1.00 73.16 LIG-0.27  OA
ENDBRANCH 21 22
ENDBRANCH 17 21
ENDBRANCH 14 17
ENDBRANCH 1 13
BRANCH 1 27
ATOM     27  N   TRP J 605      -4.449  18.475  66.772  1.00 80.26 LIG-0.34  N 
ATOM     28  C   ASP J 604      -5.777  18.506  66.871  1.00 69.06 LIG 0.26  C 
ATOM     29 O    ASP J 604      -6.378  19.019  67.816  1.00 67.02 LIG-0.27  OA
ATOM     30 H    TRP J 605      -4.037  18.081  66.128  1.00 80.26 LIG 0.16  HD
BRANCH 28 31
ATOM     31  CA  ASP J 604      -6.550  17.853  65.726  1.00 80.57 LIG 0.41  C 
ATOM     32  N   ASP J 604      -6.473  18.671  64.520  1.00 92.85 LIG 0.61  N 
BRANCH 31 33
ATOM     33  CB  ASP J 604      -6.014  16.447  65.452  1.00 75.75 LIG 0.16  C 
BRANCH 33 34
ATOM     34  CG  ASP J 604      -7.116  15.445  65.167  1.00 69.63 LIG 0.17  C 
ATOM     35 OD1  ASP J 604      -8.249  15.874  64.863  1.00 75.49 LIG-0.65  OA
ATOM     36 OD2  ASP J 604      -6.849  14.228  65.244  1.00 69.41 LIG-0.65  OA
ENDBRANCH 33 34
ENDBRANCH 31 33
ENDBRANCH 28 31
ENDBRANCH 1 27
TORSDOF 11
ENDMDL
MODEL 73
USER: ADFR SOLUTION from run 64
USER: SCORE 12.439213 LL:  -1.763 LR: -11.445 RR:   0.000 FEB:  -8.164
USER: RMSD 5.701759
USER: SEED 63
USER: STATUS no improvement in best in 26 clusters for 5 generations
USER: GENES 13
USER: genes 0 Translation |==|  0.52287 0.59649 0.53204
USER: genes 1 Rotation |==|  0.63825 0.07687 0.27343 0.52268
USER: genes 2 Torsion [C]-CA--CB-[CG] |==|  0.45870
USER: genes 3 Torsion [CA]-CB--CG-[CD2] |==|  0.42851
USER: genes 4 Torsion [N]-CA--C-[N] |==|  0.08577
USER: genes 5 Torsion [C]-N--CA-[CB] |==|  0.84642
USER: genes 6 Torsion [N]-CA--C-[O] |==|  0.38638
USER: genes 7 Torsion [N]-CA--CB-[CG] |==|  0.66532
USER: genes 8 Torsion [CA]-CB--CG-[ND2] |==|  0.87232
USER: genes 9 Torsion [CB]-CA--N-[C] |==|  0.79444
USER: genes 10 Torsion [N]-C--CA-[N] |==|  0.71510
USER: genes 11 Torsion [C]-CA--CB-[CG] |==|  0.25114
USER: genes 12 Torsion [CA]-CB--CG-[OD1] |==|  0.72409
ROOT
ATOM      1  CA  TRP J 605      -2.816  22.644  71.041  1.00 71.61 LIG 0.18  C 
ENDROOT
BRANCH 1 2
ATOM      2  CB  TRP J 605      -2.918  24.128  71.413  1.00 65.14 LIG 0.07  C 
BRANCH 2 3
ATOM      3  CG  TRP J 605      -2.953  24.387  72.890  1.00 62.37 LIG-0.03  A 
ATOM      4  CD2 TRP J 605      -2.541  25.584  73.559  1.00 57.80 LIG-0.00  A 
ATOM      5  CE3 TRP J 605      -2.005  26.802  73.129  1.00 58.94 LIG 0.01  A 
ATOM      6  CE2 TRP J 605      -2.758  25.388  74.938  1.00 56.30 LIG 0.04  A 
ATOM      7  CZ3 TRP J 605      -1.710  27.769  74.072  1.00 59.47 LIG 0.00  A 
ATOM      8  CH2 TRP J 605      -1.938  27.544  75.436  1.00 55.92 LIG 0.00  A 
ATOM      9  CZ2 TRP J 605      -2.460  26.363  75.887  1.00 56.02 LIG 0.03  A 
ATOM     10  NE1 TRP J 605      -3.282  24.132  75.096  1.00 57.88 LIG-0.36  N 
ATOM     11  CD1 TRP J 605      -3.397  23.539  73.863  1.00 63.10 LIG 0.10  A 
ATOM     12 HE1  TRP J 605      -3.502  23.772  75.846  1.00 57.88 LIG 0.17  HD
ENDBRANCH 2 3
ENDBRANCH 1 2
BRANCH 1 13
ATOM     13  C   TRP J 605      -3.155  22.454  69.561  1.00 60.32 LIG 0.24  C 
ATOM     14  N   ASN J 606      -2.627  21.379  68.979  1.00 74.38 LIG-0.34  N 
ATOM     15 H    ASN J 606      -2.071  20.855  69.375  1.00 74.38 LIG 0.16  HD
ATOM     16 O    TRP J 605      -3.878  23.257  68.971  1.00 56.87 LIG-0.27  OA
BRANCH 14 17
ATOM     17  CA  ASN J 606      -2.936  20.978  67.605  1.00 65.98 LIG 0.19  C 
BRANCH 17 18
ATOM     18  C   ASN J 606      -2.394  21.928  66.542  1.00 66.37 LIG 0.20  C 
ATOM     19 O    ASN J 606      -1.893  21.501  65.504  1.00 70.67 LIG-0.65  OA
ATOM     20 OXT  ASN J 606      -2.460  23.149  66.696  1.00 61.82 LIG-0.65  OA
ENDBRANCH 17 18
BRANCH 17 21
ATOM     21  CB  ASN J 606      -4.448  20.822  67.436  1.00 63.43 LIG 0.14  C 
BRANCH 21 22
ATOM     22  CG  ASN J 606      -4.843  19.418  67.011  1.00 67.06 LIG 0.22  C 
ATOM     23  ND2 ASN J 606      -4.135  18.874  66.028  1.00 58.48 LIG-0.37  N 
ATOM     24 22HD ASN J 606      -3.490  19.316  65.668  1.00 58.48 LIG 0.16  HD
ATOM     25 21HD ASN J 606      -4.322  18.082  65.751  1.00 58.48 LIG 0.16  HD
ATOM     26 OD1  ASN J 606      -5.776  18.832  67.560  1.00 73.16 LIG-0.27  OA
ENDBRANCH 21 22
ENDBRANCH 17 21
ENDBRANCH 14 17
ENDBRANCH 1 13
BRANCH 1 27
ATOM     27  N   TRP J 605      -1.497  22.117  71.400  1.00 80.26 LIG-0.34  N 
ATOM     28  C   ASP J 604      -0.385  22.396  70.722  1.00 69.06 LIG 0.26  C 
ATOM     29 O    ASP J 604      -0.365  23.077  69.696  1.00 67.02 LIG-0.27  OA
ATOM     30 H    TRP J 605      -1.507  21.608  72.094  1.00 80.26 LIG 0.16  HD
BRANCH 28 31
ATOM     31  CA  ASP J 604       0.909  21.811  71.287  1.00 80.57 LIG 0.41  C 
ATOM     32  N   ASP J 604       1.672  22.836  71.992  1.00 92.85 LIG 0.61  N 
BRANCH 31 33
ATOM     33  CB  ASP J 604       0.603  20.637  72.219  1.00 75.75 LIG 0.16  C 
BRANCH 33 34
ATOM     34  CG  ASP J 604       0.573  19.306  71.493  1.00 69.63 LIG 0.17  C 
ATOM     35 OD1  ASP J 604      -0.535  18.826  71.173  1.00 75.49 LIG-0.65  OA
ATOM     36 OD2  ASP J 604       1.657  18.741  71.239  1.00 69.41 LIG-0.65  OA
ENDBRANCH 33 34
ENDBRANCH 31 33
ENDBRANCH 28 31
ENDBRANCH 1 27
TORSDOF 11
ENDMDL
MODEL 74
USER: ADFR SOLUTION from run 10
USER: SCORE 12.696489 LL:  -2.184 LR: -11.445 RR:   0.000 FEB:  -8.164
USER: RMSD 6.488994
USER: SEED 408744
USER: STATUS no improvement in best in 21 clusters for 5 generations
USER: GENES 13
USER: genes 0 Translation |==|  0.49593 0.46043 0.37090
USER: genes 1 Rotation |==|  0.38403 0.81760 0.85571 0.59566
USER: genes 2 Torsion [C]-CA--CB-[CG] |==|  0.82800
USER: genes 3 Torsion [CA]-CB--CG-[CD2] |==|  0.73068
USER: genes 4 Torsion [N]-CA--C-[N] |==|  0.42587
USER: genes 5 Torsion [C]-N--CA-[CB] |==|  0.38783
USER: genes 6 Torsion [N]-CA--C-[O] |==|  0.63986
USER: genes 7 Torsion [N]-CA--CB-[CG] |==|  0.78071
USER: genes 8 Torsion [CA]-CB--CG-[ND2] |==|  0.51579
USER: genes 9 Torsion [CB]-CA--N-[C] |==|  0.20561
USER: genes 10 Torsion [N]-C--CA-[N] |==|  0.87151
USER: genes 11 Torsion [C]-CA--CB-[CG] |==|  0.25740
USER: genes 12 Torsion [CA]-CB--CG-[OD1] |==|  0.95659
ROOT
ATOM      1  CA  TRP J 605      -3.280  20.501  68.261  1.00 71.61 LIG 0.18  C 
ENDROOT
BRANCH 1 2
ATOM      2  CB  TRP J 605      -3.318  21.309  69.564  1.00 65.14 LIG 0.07  C 
BRANCH 2 3
ATOM      3  CG  TRP J 605      -2.115  22.181  69.777  1.00 62.37 LIG-0.03  A 
ATOM      4  CD2 TRP J 605      -0.960  21.870  70.564  1.00 57.80 LIG-0.00  A 
ATOM      5  CE3 TRP J 605      -0.582  20.770  71.340  1.00 58.94 LIG 0.01  A 
ATOM      6  CE2 TRP J 605      -0.083  22.969  70.472  1.00 56.30 LIG 0.04  A 
ATOM      7  CZ3 TRP J 605       0.639  20.802  71.988  1.00 59.47 LIG 0.00  A 
ATOM      8  CH2 TRP J 605       1.489  21.909  71.878  1.00 55.92 LIG 0.00  A 
ATOM      9  CZ2 TRP J 605       1.146  22.999  71.126  1.00 56.02 LIG 0.03  A 
ATOM     10  NE1 TRP J 605      -0.678  23.902  69.664  1.00 57.88 LIG-0.36  N 
ATOM     11  CD1 TRP J 605      -1.895  23.421  69.250  1.00 63.10 LIG 0.10  A 
ATOM     12 HE1  TRP J 605      -0.344  24.665  69.451  1.00 57.88 LIG 0.17  HD
ENDBRANCH 2 3
ENDBRANCH 1 2
BRANCH 1 13
ATOM     13  C   TRP J 605      -3.248  21.449  67.061  1.00 60.32 LIG 0.24  C 
ATOM     14  N   ASN J 606      -4.427  21.924  66.666  1.00 74.38 LIG-0.34  N 
ATOM     15 H    ASN J 606      -5.175  21.669  67.007  1.00 74.38 LIG 0.16  HD
ATOM     16 O    TRP J 605      -2.183  21.742  66.516  1.00 56.87 LIG-0.27  OA
BRANCH 14 17
ATOM     17  CA  ASN J 606      -4.575  22.930  65.612  1.00 65.98 LIG 0.19  C 
BRANCH 17 18
ATOM     18  C   ASN J 606      -4.710  24.359  66.129  1.00 66.37 LIG 0.20  C 
ATOM     19 O    ASN J 606      -5.619  25.091  65.743  1.00 70.67 LIG-0.65  OA
ATOM     20 OXT  ASN J 606      -3.916  24.806  66.958  1.00 61.82 LIG-0.65  OA
ENDBRANCH 17 18
BRANCH 17 21
ATOM     21  CB  ASN J 606      -5.774  22.585  64.728  1.00 63.43 LIG 0.14  C 
BRANCH 21 22
ATOM     22  CG  ASN J 606      -5.459  21.494  63.720  1.00 67.06 LIG 0.22  C 
ATOM     23  ND2 ASN J 606      -6.407  21.213  62.834  1.00 58.48 LIG-0.37  N 
ATOM     24 22HD ASN J 606      -7.152  21.642  62.851  1.00 58.48 LIG 0.16  HD
ATOM     25 21HD ASN J 606      -6.276  20.602  62.244  1.00 58.48 LIG 0.16  HD
ATOM     26 OD1  ASN J 606      -4.375  20.910  63.740  1.00 73.16 LIG-0.27  OA
ENDBRANCH 21 22
ENDBRANCH 17 21
ENDBRANCH 14 17
ENDBRANCH 1 13
BRANCH 1 27
ATOM     27  N   TRP J 605      -2.160  19.557  68.278  1.00 80.26 LIG-0.34  N 
ATOM     28  C   ASP J 604      -2.150  18.441  69.006  1.00 69.06 LIG 0.26  C 
ATOM     29 O    ASP J 604      -3.057  18.124  69.778  1.00 67.02 LIG-0.27  OA
ATOM     30 H    TRP J 605      -1.506  19.790  67.771  1.00 80.26 LIG 0.16  HD
BRANCH 28 31
ATOM     31  CA  ASP J 604      -0.925  17.545  68.842  1.00 80.57 LIG 0.41  C 
ATOM     32  N   ASP J 604      -0.600  17.369  67.431  1.00 92.85 LIG 0.61  N 
BRANCH 31 33
ATOM     33  CB  ASP J 604       0.271  18.129  69.596  1.00 75.75 LIG 0.16  C 
BRANCH 33 34
ATOM     34  CG  ASP J 604       0.396  17.588  71.007  1.00 69.63 LIG 0.17  C 
ATOM     35 OD1  ASP J 604      -0.585  16.999  71.510  1.00 75.49 LIG-0.65  OA
ATOM     36 OD2  ASP J 604       1.476  17.748  71.613  1.00 69.41 LIG-0.65  OA
ENDBRANCH 33 34
ENDBRANCH 31 33
ENDBRANCH 28 31
ENDBRANCH 1 27
TORSDOF 11
ENDMDL
MODEL 75
USER: ADFR SOLUTION from run 8
USER: SCORE 12.934209 LL:  -1.542 LR: -11.451 RR:   0.000 FEB:  -8.170
USER: RMSD 6.660313
USER: SEED 406242
USER: STATUS no improvement in best in 12 clusters for 5 generations
USER: GENES 13
USER: genes 0 Translation |==|  0.50873 0.45569 0.42927
USER: genes 1 Rotation |==|  0.35315 0.31986 0.78844 0.83583
USER: genes 2 Torsion [C]-CA--CB-[CG] |==|  0.47647
USER: genes 3 Torsion [CA]-CB--CG-[CD2] |==|  0.79182
USER: genes 4 Torsion [N]-CA--C-[N] |==|  0.39874
USER: genes 5 Torsion [C]-N--CA-[CB] |==|  0.28641
USER: genes 6 Torsion [N]-CA--C-[O] |==|  0.48951
USER: genes 7 Torsion [N]-CA--CB-[CG] |==|  0.23719
USER: genes 8 Torsion [CA]-CB--CG-[ND2] |==|  0.37857
USER: genes 9 Torsion [CB]-CA--N-[C] |==|  0.85000
USER: genes 10 Torsion [N]-C--CA-[N] |==|  0.86225
USER: genes 11 Torsion [C]-CA--CB-[CG] |==|  0.18222
USER: genes 12 Torsion [CA]-CB--CG-[OD1] |==|  0.99714
ROOT
ATOM      1  CA  TRP J 605      -3.059  20.426  69.268  1.00 71.61 LIG 0.18  C 
ENDROOT
BRANCH 1 2
ATOM      2  CB  TRP J 605      -4.424  19.842  68.883  1.00 65.14 LIG 0.07  C 
BRANCH 2 3
ATOM      3  CG  TRP J 605      -4.582  19.571  67.416  1.00 62.37 LIG-0.03  A 
ATOM      4  CD2 TRP J 605      -4.792  20.540  66.384  1.00 57.80 LIG-0.00  A 
ATOM      5  CE3 TRP J 605      -4.923  21.933  66.371  1.00 58.94 LIG 0.01  A 
ATOM      6  CE2 TRP J 605      -4.872  19.840  65.163  1.00 56.30 LIG 0.04  A 
ATOM      7  CZ3 TRP J 605      -5.127  22.570  65.161  1.00 59.47 LIG 0.00  A 
ATOM      8  CH2 TRP J 605      -5.202  21.846  63.964  1.00 55.92 LIG 0.00  A 
ATOM      9  CZ2 TRP J 605      -5.077  20.485  63.945  1.00 56.02 LIG 0.03  A 
ATOM     10  NE1 TRP J 605      -4.714  18.508  65.442  1.00 57.88 LIG-0.36  N 
ATOM     11  CD1 TRP J 605      -4.539  18.356  66.795  1.00 63.10 LIG 0.10  A 
ATOM     12 HE1  TRP J 605      -4.724  17.871  64.865  1.00 57.88 LIG 0.17  HD
ENDBRANCH 2 3
ENDBRANCH 1 2
BRANCH 1 13
ATOM     13  C   TRP J 605      -3.074  20.860  70.735  1.00 60.32 LIG 0.24  C 
ATOM     14  N   ASN J 606      -3.403  22.131  70.960  1.00 74.38 LIG-0.34  N 
ATOM     15 H    ASN J 606      -3.531  22.701  70.329  1.00 74.38 LIG 0.16  HD
ATOM     16 O    TRP J 605      -2.800  20.062  71.632  1.00 56.87 LIG-0.27  OA
BRANCH 14 17
ATOM     17  CA  ASN J 606      -3.579  22.688  72.302  1.00 65.98 LIG 0.19  C 
BRANCH 17 18
ATOM     18  C   ASN J 606      -4.844  23.525  72.468  1.00 66.37 LIG 0.20  C 
ATOM     19 O    ASN J 606      -5.156  23.997  73.559  1.00 70.67 LIG-0.65  OA
ATOM     20 OXT  ASN J 606      -5.576  23.757  71.504  1.00 61.82 LIG-0.65  OA
ENDBRANCH 17 18
BRANCH 17 21
ATOM     21  CB  ASN J 606      -2.356  23.521  72.685  1.00 63.43 LIG 0.14  C 
BRANCH 21 22
ATOM     22  CG  ASN J 606      -2.445  24.951  72.180  1.00 67.06 LIG 0.22  C 
ATOM     23  ND2 ASN J 606      -2.085  25.904  73.032  1.00 58.48 LIG-0.37  N 
ATOM     24 22HD ASN J 606      -1.819  25.695  73.823  1.00 58.48 LIG 0.16  HD
ATOM     25 21HD ASN J 606      -2.120  26.729  72.793  1.00 58.48 LIG 0.16  HD
ATOM     26 OD1  ASN J 606      -2.834  25.193  71.037  1.00 73.16 LIG-0.27  OA
ENDBRANCH 21 22
ENDBRANCH 17 21
ENDBRANCH 14 17
ENDBRANCH 1 13
BRANCH 1 27
ATOM     27  N   TRP J 605      -1.991  19.472  68.961  1.00 80.26 LIG-0.34  N 
ATOM     28  C   ASP J 604      -1.979  18.216  69.404  1.00 69.06 LIG 0.26  C 
ATOM     29 O    ASP J 604      -2.835  17.752  70.159  1.00 67.02 LIG-0.27  OA
ATOM     30 H    TRP J 605      -1.369  19.799  68.466  1.00 80.26 LIG 0.16  HD
BRANCH 28 31
ATOM     31  CA  ASP J 604      -0.817  17.347  68.924  1.00 80.57 LIG 0.41  C 
ATOM     32  N   ASP J 604      -0.668  17.442  67.476  1.00 92.85 LIG 0.61  N 
BRANCH 31 33
ATOM     33  CB  ASP J 604       0.481  17.756  69.623  1.00 75.75 LIG 0.16  C 
BRANCH 33 34
ATOM     34  CG  ASP J 604       0.454  17.485  71.115  1.00 69.63 LIG 0.17  C 
ATOM     35 OD1  ASP J 604      -0.582  16.997  71.614  1.00 75.49 LIG-0.65  OA
ATOM     36 OD2  ASP J 604       1.470  17.757  71.788  1.00 69.41 LIG-0.65  OA
ENDBRANCH 33 34
ENDBRANCH 31 33
ENDBRANCH 28 31
ENDBRANCH 1 27
TORSDOF 11
ENDMDL
MODEL 76
USER: ADFR SOLUTION from run 160
USER: SCORE 12.590857 LL:  -2.204 LR: -11.440 RR:   0.000 FEB:  -8.159
USER: RMSD 7.325541
USER: SEED 159
USER: STATUS no improvement in best in 5 clusters for 5 generations
USER: GENES 13
USER: genes 0 Translation |==|  0.51084 0.38813 0.29559
USER: genes 1 Rotation |==|  0.81962 0.62330 0.16591 0.64499
USER: genes 2 Torsion [C]-CA--CB-[CG] |==|  0.48727
USER: genes 3 Torsion [CA]-CB--CG-[CD2] |==|  0.26679
USER: genes 4 Torsion [N]-CA--C-[N] |==|  0.44118
USER: genes 5 Torsion [C]-N--CA-[CB] |==|  0.79798
USER: genes 6 Torsion [N]-CA--C-[O] |==|  0.65600
USER: genes 7 Torsion [N]-CA--CB-[CG] |==|  0.74136
USER: genes 8 Torsion [CA]-CB--CG-[ND2] |==|  0.14379
USER: genes 9 Torsion [CB]-CA--N-[C] |==|  0.44600
USER: genes 10 Torsion [N]-C--CA-[N] |==|  0.60315
USER: genes 11 Torsion [C]-CA--CB-[CG] |==|  0.70384
USER: genes 12 Torsion [CA]-CB--CG-[OD1] |==|  0.66533
ROOT
ATOM      1  CA  TRP J 605      -3.023  19.362  66.962  1.00 71.61 LIG 0.18  C 
ENDROOT
BRANCH 1 2
ATOM      2  CB  TRP J 605      -2.972  18.073  67.791  1.00 65.14 LIG 0.07  C 
BRANCH 2 3
ATOM      3  CG  TRP J 605      -1.620  17.770  68.367  1.00 62.37 LIG-0.03  A 
ATOM      4  CD2 TRP J 605      -1.160  18.089  69.685  1.00 57.80 LIG-0.00  A 
ATOM      5  CE3 TRP J 605      -1.734  18.735  70.784  1.00 58.94 LIG 0.01  A 
ATOM      6  CE2 TRP J 605       0.161  17.610  69.794  1.00 56.30 LIG 0.04  A 
ATOM      7  CZ3 TRP J 605      -0.984  18.880  71.936  1.00 59.47 LIG 0.00  A 
ATOM      8  CH2 TRP J 605       0.327  18.394  72.013  1.00 55.92 LIG 0.00  A 
ATOM      9  CZ2 TRP J 605       0.915  17.757  70.956  1.00 56.02 LIG 0.03  A 
ATOM     10  NE1 TRP J 605       0.486  17.025  68.598  1.00 57.88 LIG-0.36  N 
ATOM     11  CD1 TRP J 605      -0.589  17.123  67.749  1.00 63.10 LIG 0.10  A 
ATOM     12 HE1  TRP J 605       1.239  16.656  68.409  1.00 57.88 LIG 0.17  HD
ENDBRANCH 2 3
ENDBRANCH 1 2
BRANCH 1 13
ATOM     13  C   TRP J 605      -4.407  19.519  66.329  1.00 60.32 LIG 0.24  C 
ATOM     14  N   ASN J 606      -4.644  18.762  65.260  1.00 74.38 LIG-0.34  N 
ATOM     15 H    ASN J 606      -4.045  18.265  64.893  1.00 74.38 LIG 0.16  HD
ATOM     16 O    TRP J 605      -5.233  20.300  66.803  1.00 56.87 LIG-0.27  OA
BRANCH 14 17
ATOM     17  CA  ASN J 606      -5.948  18.696  64.597  1.00 65.98 LIG 0.19  C 
BRANCH 17 18
ATOM     18  C   ASN J 606      -6.541  20.059  64.252  1.00 66.37 LIG 0.20  C 
ATOM     19 O    ASN J 606      -7.654  20.388  64.655  1.00 70.67 LIG-0.65  OA
ATOM     20 OXT  ASN J 606      -5.908  20.867  63.571  1.00 61.82 LIG-0.65  OA
ENDBRANCH 17 18
BRANCH 17 21
ATOM     21  CB  ASN J 606      -6.933  17.909  65.462  1.00 63.43 LIG 0.14  C 
BRANCH 21 22
ATOM     22  CG  ASN J 606      -6.976  16.434  65.098  1.00 67.06 LIG 0.22  C 
ATOM     23  ND2 ASN J 606      -5.811  15.801  65.050  1.00 58.48 LIG-0.37  N 
ATOM     24 22HD ASN J 606      -5.083  16.227  65.221  1.00 58.48 LIG 0.16  HD
ATOM     25 21HD ASN J 606      -5.783  14.966  64.848  1.00 58.48 LIG 0.16  HD
ATOM     26 OD1  ASN J 606      -8.047  15.874  64.863  1.00 73.16 LIG-0.27  OA
ENDBRANCH 21 22
ENDBRANCH 17 21
ENDBRANCH 14 17
ENDBRANCH 1 13
BRANCH 1 27
ATOM     27  N   TRP J 605      -2.632  20.512  67.781  1.00 80.26 LIG-0.34  N 
ATOM     28  C   ASP J 604      -2.225  21.673  67.271  1.00 69.06 LIG 0.26  C 
ATOM     29 O    ASP J 604      -2.084  21.874  66.064  1.00 67.02 LIG-0.27  OA
ATOM     30 H    TRP J 605      -2.690  20.367  68.627  1.00 80.26 LIG 0.16  HD
BRANCH 28 31
ATOM     31  CA  ASP J 604      -1.925  22.780  68.281  1.00 80.57 LIG 0.41  C 
ATOM     32  N   ASP J 604      -2.341  24.078  67.760  1.00 92.85 LIG 0.61  N 
BRANCH 31 33
ATOM     33  CB  ASP J 604      -2.620  22.492  69.613  1.00 75.75 LIG 0.16  C 
BRANCH 33 34
ATOM     34  CG  ASP J 604      -3.815  23.393  69.857  1.00 69.63 LIG 0.17  C 
ATOM     35 OD1  ASP J 604      -3.815  24.124  70.870  1.00 75.49 LIG-0.65  OA
ATOM     36 OD2  ASP J 604      -4.754  23.372  69.034  1.00 69.41 LIG-0.65  OA
ENDBRANCH 33 34
ENDBRANCH 31 33
ENDBRANCH 28 31
ENDBRANCH 1 27
TORSDOF 11
ENDMDL
MODEL 77
USER: ADFR SOLUTION from run 58
USER: SCORE 13.396773 LL:  -2.527 LR: -11.433 RR:   0.000 FEB:  -8.151
USER: RMSD 6.730788
USER: SEED 57
USER: STATUS no improvement in best in 14 clusters for 5 generations
USER: GENES 13
USER: genes 0 Translation |==|  0.58742 0.65527 0.48535
USER: genes 1 Rotation |==|  0.25613 0.24706 0.69690 0.79627
USER: genes 2 Torsion [C]-CA--CB-[CG] |==|  0.75710
USER: genes 3 Torsion [CA]-CB--CG-[CD2] |==|  0.74038
USER: genes 4 Torsion [N]-CA--C-[N] |==|  0.10923
USER: genes 5 Torsion [C]-N--CA-[CB] |==|  0.82093
USER: genes 6 Torsion [N]-CA--C-[O] |==|  0.95090
USER: genes 7 Torsion [N]-CA--CB-[CG] |==|  0.60069
USER: genes 8 Torsion [CA]-CB--CG-[ND2] |==|  0.89163
USER: genes 9 Torsion [CB]-CA--N-[C] |==|  0.76599
USER: genes 10 Torsion [N]-C--CA-[N] |==|  0.21916
USER: genes 11 Torsion [C]-CA--CB-[CG] |==|  0.47890
USER: genes 12 Torsion [CA]-CB--CG-[OD1] |==|  0.01249
ROOT
ATOM      1  CA  TRP J 605      -1.702  23.569  70.235  1.00 71.61 LIG 0.18  C 
ENDROOT
BRANCH 1 2
ATOM      2  CB  TRP J 605      -2.708  23.240  69.126  1.00 65.14 LIG 0.07  C 
BRANCH 2 3
ATOM      3  CG  TRP J 605      -3.267  21.850  69.199  1.00 62.37 LIG-0.03  A 
ATOM      4  CD2 TRP J 605      -2.769  20.690  68.522  1.00 57.80 LIG-0.00  A 
ATOM      5  CE3 TRP J 605      -1.710  20.462  67.638  1.00 58.94 LIG 0.01  A 
ATOM      6  CE2 TRP J 605      -3.592  19.607  68.890  1.00 56.30 LIG 0.04  A 
ATOM      7  CZ3 TRP J 605      -1.509  19.181  67.157  1.00 59.47 LIG 0.00  A 
ATOM      8  CH2 TRP J 605      -2.344  18.124  67.542  1.00 55.92 LIG 0.00  A 
ATOM      9  CZ2 TRP J 605      -3.387  18.317  68.404  1.00 56.02 LIG 0.03  A 
ATOM     10  NE1 TRP J 605      -4.542  20.086  69.752  1.00 57.88 LIG-0.36  N 
ATOM     11  CD1 TRP J 605      -4.338  21.432  69.934  1.00 63.10 LIG 0.10  A 
ATOM     12 HE1  TRP J 605      -5.164  19.621  70.120  1.00 57.88 LIG 0.17  HD
ENDBRANCH 2 3
ENDBRANCH 1 2
BRANCH 1 13
ATOM     13  C   TRP J 605      -2.440  24.096  71.467  1.00 60.32 LIG 0.24  C 
ATOM     14  N   ASN J 606      -1.747  24.092  72.604  1.00 74.38 LIG-0.34  N 
ATOM     15 H    ASN J 606      -0.960  23.751  72.673  1.00 74.38 LIG 0.16  HD
ATOM     16 O    TRP J 605      -3.601  24.499  71.383  1.00 56.87 LIG-0.27  OA
BRANCH 14 17
ATOM     17  CA  ASN J 606      -2.252  24.664  73.854  1.00 65.98 LIG 0.19  C 
BRANCH 17 18
ATOM     18  C   ASN J 606      -3.552  24.036  74.346  1.00 66.37 LIG 0.20  C 
ATOM     19 O    ASN J 606      -4.265  23.376  73.591  1.00 70.67 LIG-0.65  OA
ATOM     20 OXT  ASN J 606      -3.911  24.165  75.517  1.00 61.82 LIG-0.65  OA
ENDBRANCH 17 18
BRANCH 17 21
ATOM     21  CB  ASN J 606      -2.434  26.174  73.699  1.00 63.43 LIG 0.14  C 
BRANCH 21 22
ATOM     22  CG  ASN J 606      -2.091  26.934  74.968  1.00 67.06 LIG 0.22  C 
ATOM     23  ND2 ASN J 606      -2.460  26.374  76.113  1.00 58.48 LIG-0.37  N 
ATOM     24 22HD ASN J 606      -2.871  25.618  76.109  1.00 58.48 LIG 0.16  HD
ATOM     25 21HD ASN J 606      -2.289  26.767  76.858  1.00 58.48 LIG 0.16  HD
ATOM     26 OD1  ASN J 606      -1.501  28.014  74.916  1.00 73.16 LIG-0.27  OA
ENDBRANCH 21 22
ENDBRANCH 17 21
ENDBRANCH 14 17
ENDBRANCH 1 13
BRANCH 1 27
ATOM     27  N   TRP J 605      -0.861  22.405  70.523  1.00 80.26 LIG-0.34  N 
ATOM     28  C   ASP J 604      -1.221  21.425  71.350  1.00 69.06 LIG 0.26  C 
ATOM     29 O    ASP J 604      -2.271  21.430  71.995  1.00 67.02 LIG-0.27  OA
ATOM     30 H    TRP J 605      -0.108  22.413  70.107  1.00 80.26 LIG 0.16  HD
BRANCH 28 31
ATOM     31  CA  ASP J 604      -0.243  20.258  71.473  1.00 80.57 LIG 0.41  C 
ATOM     32  N   ASP J 604       0.867  20.607  72.353  1.00 92.85 LIG 0.61  N 
BRANCH 31 33
ATOM     33  CB  ASP J 604      -0.961  19.009  71.988  1.00 75.75 LIG 0.16  C 
BRANCH 33 34
ATOM     34  CG  ASP J 604      -0.082  17.774  71.955  1.00 69.63 LIG 0.17  C 
ATOM     35 OD1  ASP J 604       1.113  17.899  71.613  1.00 75.49 LIG-0.65  OA
ATOM     36 OD2  ASP J 604      -0.585  16.677  72.275  1.00 69.41 LIG-0.65  OA
ENDBRANCH 33 34
ENDBRANCH 31 33
ENDBRANCH 28 31
ENDBRANCH 1 27
TORSDOF 11
ENDMDL
MODEL 78
USER: ADFR SOLUTION from run 18
USER: SCORE 12.290044 LL:  -2.580 LR: -11.415 RR:   0.000 FEB:  -8.134
USER: RMSD 7.341763
USER: SEED 17
USER: STATUS no improvement in best in 8 clusters for 5 generations
USER: GENES 13
USER: genes 0 Translation |==|  0.47289 0.34253 0.30979
USER: genes 1 Rotation |==|  0.76121 0.68325 0.14336 0.64490
USER: genes 2 Torsion [C]-CA--CB-[CG] |==|  0.52679
USER: genes 3 Torsion [CA]-CB--CG-[CD2] |==|  0.23719
USER: genes 4 Torsion [N]-CA--C-[N] |==|  0.47973
USER: genes 5 Torsion [C]-N--CA-[CB] |==|  0.17733
USER: genes 6 Torsion [N]-CA--C-[O] |==|  0.05190
USER: genes 7 Torsion [N]-CA--CB-[CG] |==|  0.56258
USER: genes 8 Torsion [CA]-CB--CG-[ND2] |==|  0.71508
USER: genes 9 Torsion [CB]-CA--N-[C] |==|  0.34860
USER: genes 10 Torsion [N]-C--CA-[N] |==|  0.64133
USER: genes 11 Torsion [C]-CA--CB-[CG] |==|  0.72936
USER: genes 12 Torsion [CA]-CB--CG-[OD1] |==|  0.34654
ROOT
ATOM      1  CA  TRP J 605      -3.678  18.644  67.207  1.00 71.61 LIG 0.18  C 
ENDROOT
BRANCH 1 2
ATOM      2  CB  TRP J 605      -3.171  17.354  67.863  1.00 65.14 LIG 0.07  C 
BRANCH 2 3
ATOM      3  CG  TRP J 605      -1.745  17.421  68.324  1.00 62.37 LIG-0.03  A 
ATOM      4  CD2 TRP J 605      -1.273  17.929  69.576  1.00 57.80 LIG-0.00  A 
ATOM      5  CE3 TRP J 605      -1.898  18.493  70.693  1.00 58.94 LIG 0.01  A 
ATOM      6  CE2 TRP J 605       0.130  17.788  69.583  1.00 56.30 LIG 0.04  A 
ATOM      7  CZ3 TRP J 605      -1.116  18.890  71.763  1.00 59.47 LIG 0.00  A 
ATOM      8  CH2 TRP J 605       0.276  18.736  71.739  1.00 55.92 LIG 0.00  A 
ATOM      9  CZ2 TRP J 605       0.915  18.188  70.662  1.00 56.02 LIG 0.03  A 
ATOM     10  NE1 TRP J 605       0.490  17.217  68.391  1.00 57.88 LIG-0.36  N 
ATOM     11  CD1 TRP J 605      -0.640  16.999  67.643  1.00 63.10 LIG 0.10  A 
ATOM     12 HE1  TRP J 605       1.294  17.027  68.150  1.00 57.88 LIG 0.17  HD
ENDBRANCH 2 3
ENDBRANCH 1 2
BRANCH 1 13
ATOM     13  C   TRP J 605      -5.190  18.560  66.993  1.00 60.32 LIG 0.24  C 
ATOM     14  N   ASN J 606      -5.606  17.608  66.160  1.00 74.38 LIG-0.34  N 
ATOM     15 H    ASN J 606      -5.068  17.111  65.708  1.00 74.38 LIG 0.16  HD
ATOM     16 O    TRP J 605      -5.953  19.333  67.573  1.00 56.87 LIG-0.27  OA
BRANCH 14 17
ATOM     17  CA  ASN J 606      -7.019  17.307  65.926  1.00 65.98 LIG 0.19  C 
BRANCH 17 18
ATOM     18  C   ASN J 606      -7.259  16.064  65.076  1.00 66.37 LIG 0.20  C 
ATOM     19 O    ASN J 606      -6.381  15.217  64.926  1.00 70.67 LIG-0.65  OA
ATOM     20 OXT  ASN J 606      -8.347  15.874  64.530  1.00 61.82 LIG-0.65  OA
ENDBRANCH 17 18
BRANCH 17 21
ATOM     21  CB  ASN J 606      -7.708  18.512  65.285  1.00 63.43 LIG 0.14  C 
BRANCH 21 22
ATOM     22  CG  ASN J 606      -9.211  18.508  65.506  1.00 67.06 LIG 0.22  C 
ATOM     23  ND2 ASN J 606      -9.960  18.124  64.479  1.00 58.48 LIG-0.37  N 
ATOM     24 22HD ASN J 606      -9.588  17.893  63.738  1.00 58.48 LIG 0.16  HD
ATOM     25 21HD ASN J 606     -10.816  18.106  64.555  1.00 58.48 LIG 0.16  HD
ATOM     26 OD1  ASN J 606      -9.691  18.848  66.588  1.00 73.16 LIG-0.27  OA
ENDBRANCH 21 22
ENDBRANCH 17 21
ENDBRANCH 14 17
ENDBRANCH 1 13
BRANCH 1 27
ATOM     27  N   TRP J 605      -3.272  19.811  67.995  1.00 80.26 LIG-0.34  N 
ATOM     28  C   ASP J 604      -2.598  20.841  67.488  1.00 69.06 LIG 0.26  C 
ATOM     29 O    ASP J 604      -2.201  20.888  66.322  1.00 67.02 LIG-0.27  OA
ATOM     30 H    TRP J 605      -3.512  19.769  68.820  1.00 80.26 LIG 0.16  HD
BRANCH 28 31
ATOM     31  CA  ASP J 604      -2.324  21.999  68.445  1.00 80.57 LIG 0.41  C 
ATOM     32  N   ASP J 604      -2.733  23.267  67.851  1.00 92.85 LIG 0.61  N 
BRANCH 31 33
ATOM     33  CB  ASP J 604      -3.045  21.776  69.776  1.00 75.75 LIG 0.16  C 
BRANCH 33 34
ATOM     34  CG  ASP J 604      -4.367  22.515  69.857  1.00 69.63 LIG 0.17  C 
ATOM     35 OD1  ASP J 604      -5.401  21.864  70.115  1.00 75.49 LIG-0.65  OA
ATOM     36 OD2  ASP J 604      -4.371  23.749  69.666  1.00 69.41 LIG-0.65  OA
ENDBRANCH 33 34
ENDBRANCH 31 33
ENDBRANCH 28 31
ENDBRANCH 1 27
TORSDOF 11
ENDMDL
MODEL 79
USER: ADFR SOLUTION from run 100
USER: SCORE 13.236042 LL:  -2.003 LR: -11.398 RR:   0.000 FEB:  -8.117
USER: RMSD 7.549371
USER: SEED 99
USER: STATUS no improvement in best in 9 clusters for 5 generations
USER: GENES 13
USER: genes 0 Translation |==|  0.45906 0.34856 0.27173
USER: genes 1 Rotation |==|  0.22292 0.48536 0.88301 0.66221
USER: genes 2 Torsion [C]-CA--CB-[CG] |==|  0.25040
USER: genes 3 Torsion [CA]-CB--CG-[CD2] |==|  0.74078
USER: genes 4 Torsion [N]-CA--C-[N] |==|  0.89285
USER: genes 5 Torsion [C]-N--CA-[CB] |==|  0.47117
USER: genes 6 Torsion [N]-CA--C-[O] |==|  0.94497
USER: genes 7 Torsion [N]-CA--CB-[CG] |==|  0.81320
USER: genes 8 Torsion [CA]-CB--CG-[ND2] |==|  0.15367
USER: genes 9 Torsion [CB]-CA--N-[C] |==|  0.86659
USER: genes 10 Torsion [N]-C--CA-[N] |==|  0.03082
USER: genes 11 Torsion [C]-CA--CB-[CG] |==|  0.36010
USER: genes 12 Torsion [CA]-CB--CG-[OD1] |==|  0.28615
ROOT
ATOM      1  CA  TRP J 605      -3.916  18.739  66.550  1.00 71.61 LIG 0.18  C 
ENDROOT
BRANCH 1 2
ATOM      2  CB  TRP J 605      -5.042  17.862  67.113  1.00 65.14 LIG 0.07  C 
BRANCH 2 3
ATOM      3  CG  TRP J 605      -6.134  17.564  66.129  1.00 62.37 LIG-0.03  A 
ATOM      4  CD2 TRP J 605      -7.352  18.297  65.953  1.00 57.80 LIG-0.00  A 
ATOM      5  CE3 TRP J 605      -7.906  19.422  66.573  1.00 58.94 LIG 0.01  A 
ATOM      6  CE2 TRP J 605      -8.072  17.669  64.918  1.00 56.30 LIG 0.04  A 
ATOM      7  CZ3 TRP J 605      -9.140  19.876  66.145  1.00 59.47 LIG 0.00  A 
ATOM      8  CH2 TRP J 605      -9.831  19.230  65.112  1.00 55.92 LIG 0.00  A 
ATOM      9  CZ2 TRP J 605      -9.315  18.129  64.488  1.00 56.02 LIG 0.03  A 
ATOM     10  NE1 TRP J 605      -7.324  16.607  64.483  1.00 57.88 LIG-0.36  N 
ATOM     11  CD1 TRP J 605      -6.163  16.552  65.214  1.00 63.10 LIG 0.10  A 
ATOM     12 HE1  TRP J 605      -7.546  16.062  63.855  1.00 57.88 LIG 0.17  HD
ENDBRANCH 2 3
ENDBRANCH 1 2
BRANCH 1 13
ATOM     13  C   TRP J 605      -4.238  20.215  66.789  1.00 60.32 LIG 0.24  C 
ATOM     14  N   ASN J 606      -3.881  20.702  67.976  1.00 74.38 LIG-0.34  N 
ATOM     15 H    ASN J 606      -3.555  20.214  68.605  1.00 74.38 LIG 0.16  HD
ATOM     16 O    TRP J 605      -4.789  20.890  65.919  1.00 56.87 LIG-0.27  OA
BRANCH 14 17
ATOM     17  CA  ASN J 606      -4.007  22.116  68.334  1.00 65.98 LIG 0.19  C 
BRANCH 17 18
ATOM     18  C   ASN J 606      -3.088  23.042  67.543  1.00 66.37 LIG 0.20  C 
ATOM     19 O    ASN J 606      -2.092  22.609  66.967  1.00 70.67 LIG-0.65  OA
ATOM     20 OXT  ASN J 606      -3.333  24.246  67.454  1.00 61.82 LIG-0.65  OA
ENDBRANCH 17 18
BRANCH 17 21
ATOM     21  CB  ASN J 606      -3.758  22.298  69.832  1.00 63.43 LIG 0.14  C 
BRANCH 21 22
ATOM     22  CG  ASN J 606      -4.844  21.662  70.683  1.00 67.06 LIG 0.22  C 
ATOM     23  ND2 ASN J 606      -5.084  20.374  70.474  1.00 58.48 LIG-0.37  N 
ATOM     24 22HD ASN J 606      -4.632  19.943  69.881  1.00 58.48 LIG 0.16  HD
ATOM     25 21HD ASN J 606      -5.690  19.970  70.930  1.00 58.48 LIG 0.16  HD
ATOM     26 OD1  ASN J 606      -5.460  22.326  71.518  1.00 73.16 LIG-0.27  OA
ENDBRANCH 21 22
ENDBRANCH 17 21
ENDBRANCH 14 17
ENDBRANCH 1 13
BRANCH 1 27
ATOM     27  N   TRP J 605      -2.625  18.334  67.111  1.00 80.26 LIG-0.34  N 
ATOM     28  C   ASP J 604      -2.419  18.134  68.412  1.00 69.06 LIG 0.26  C 
ATOM     29 O    ASP J 604      -3.278  18.324  69.274  1.00 67.02 LIG-0.27  OA
ATOM     30 H    TRP J 605      -2.008  18.237  66.519  1.00 80.26 LIG 0.16  HD
BRANCH 28 31
ATOM     31  CA  ASP J 604      -1.024  17.648  68.802  1.00 80.57 LIG 0.41  C 
ATOM     32  N   ASP J 604      -0.108  17.748  67.671  1.00 92.85 LIG 0.61  N 
BRANCH 31 33
ATOM     33  CB  ASP J 604      -0.492  18.447  69.993  1.00 75.75 LIG 0.16  C 
BRANCH 33 34
ATOM     34  CG  ASP J 604       0.026  17.560  71.109  1.00 69.63 LIG 0.17  C 
ATOM     35 OD1  ASP J 604       1.261  17.424  71.238  1.00 75.49 LIG-0.65  OA
ATOM     36 OD2  ASP J 604      -0.801  17.003  71.860  1.00 69.41 LIG-0.65  OA
ENDBRANCH 33 34
ENDBRANCH 31 33
ENDBRANCH 28 31
ENDBRANCH 1 27
TORSDOF 11
ENDMDL
MODEL 80
USER: ADFR SOLUTION from run 66
USER: SCORE 13.832754 LL:  -2.790 LR: -11.344 RR:   0.000 FEB:  -8.063
USER: RMSD 3.064136
USER: SEED 65
USER: STATUS no improvement in best in 10 clusters for 5 generations
USER: GENES 13
USER: genes 0 Translation |==|  0.51156 0.40439 0.32688
USER: genes 1 Rotation |==|  0.35263 0.43943 0.49648 0.97392
USER: genes 2 Torsion [C]-CA--CB-[CG] |==|  0.16927
USER: genes 3 Torsion [CA]-CB--CG-[CD2] |==|  0.71440
USER: genes 4 Torsion [N]-CA--C-[N] |==|  0.35560
USER: genes 5 Torsion [C]-N--CA-[CB] |==|  0.81330
USER: genes 6 Torsion [N]-CA--C-[O] |==|  0.51609
USER: genes 7 Torsion [N]-CA--CB-[CG] |==|  0.77860
USER: genes 8 Torsion [CA]-CB--CG-[ND2] |==|  0.59169
USER: genes 9 Torsion [CB]-CA--N-[C] |==|  0.87943
USER: genes 10 Torsion [N]-C--CA-[N] |==|  0.19629
USER: genes 11 Torsion [C]-CA--CB-[CG] |==|  0.51777
USER: genes 12 Torsion [CA]-CB--CG-[OD1] |==|  0.60345
ROOT
ATOM      1  CA  TRP J 605      -3.011  19.618  67.502  1.00 71.61 LIG 0.18  C 
ENDROOT
BRANCH 1 2
ATOM      2  CB  TRP J 605      -3.846  20.904  67.512  1.00 65.14 LIG 0.07  C 
BRANCH 2 3
ATOM      3  CG  TRP J 605      -3.151  22.080  68.131  1.00 62.37 LIG-0.03  A 
ATOM      4  CD2 TRP J 605      -3.376  22.617  69.439  1.00 57.80 LIG-0.00  A 
ATOM      5  CE3 TRP J 605      -4.237  22.285  70.490  1.00 58.94 LIG 0.01  A 
ATOM      6  CE2 TRP J 605      -2.498  23.708  69.600  1.00 56.30 LIG 0.04  A 
ATOM      7  CZ3 TRP J 605      -4.194  23.039  71.648  1.00 59.47 LIG 0.00  A 
ATOM      8  CH2 TRP J 605      -3.310  24.117  71.778  1.00 55.92 LIG 0.00  A 
ATOM      9  CZ2 TRP J 605      -2.457  24.466  70.768  1.00 56.02 LIG 0.03  A 
ATOM     10  NE1 TRP J 605      -1.772  23.825  68.444  1.00 57.88 LIG-0.36  N 
ATOM     11  CD1 TRP J 605      -2.168  22.844  67.569  1.00 63.10 LIG 0.10  A 
ATOM     12 HE1  TRP J 605      -1.167  24.416  68.291  1.00 57.88 LIG 0.17  HD
ENDBRANCH 2 3
ENDBRANCH 1 2
BRANCH 1 13
ATOM     13  C   TRP J 605      -2.672  19.207  68.936  1.00 60.32 LIG 0.24  C 
ATOM     14  N   ASN J 606      -1.403  19.375  69.303  1.00 74.38 LIG-0.34  N 
ATOM     15 H    ASN J 606      -0.787  19.630  68.759  1.00 74.38 LIG 0.16  HD
ATOM     16 O    TRP J 605      -3.539  18.756  69.684  1.00 56.87 LIG-0.27  OA
BRANCH 14 17
ATOM     17  CA  ASN J 606      -0.926  19.145  70.667  1.00 65.98 LIG 0.19  C 
BRANCH 17 18
ATOM     18  C   ASN J 606      -1.210  17.742  71.198  1.00 66.37 LIG 0.20  C 
ATOM     19 O    ASN J 606      -0.960  17.441  72.363  1.00 70.67 LIG-0.65  OA
ATOM     20 OXT  ASN J 606      -1.710  16.883  70.470  1.00 61.82 LIG-0.65  OA
ENDBRANCH 17 18
BRANCH 17 21
ATOM     21  CB  ASN J 606      -1.527  20.186  71.612  1.00 63.43 LIG 0.14  C 
BRANCH 21 22
ATOM     22  CG  ASN J 606      -0.803  21.520  71.544  1.00 67.06 LIG 0.22  C 
ATOM     23  ND2 ASN J 606      -0.740  22.218  72.671  1.00 58.48 LIG-0.37  N 
ATOM     24 22HD ASN J 606      -1.097  21.908  73.390  1.00 58.48 LIG 0.16  HD
ATOM     25 21HD ASN J 606      -0.342  22.980  72.683  1.00 58.48 LIG 0.16  HD
ATOM     26 OD1  ASN J 606      -0.309  21.916  70.488  1.00 73.16 LIG-0.27  OA
ENDBRANCH 21 22
ENDBRANCH 17 21
ENDBRANCH 14 17
ENDBRANCH 1 13
BRANCH 1 27
ATOM     27  N   TRP J 605      -3.700  18.567  66.750  1.00 80.26 LIG-0.34  N 
ATOM     28  C   ASP J 604      -5.003  18.316  66.864  1.00 69.06 LIG 0.26  C 
ATOM     29 O    ASP J 604      -5.743  18.906  67.652  1.00 67.02 LIG-0.27  OA
ATOM     30 H    TRP J 605      -3.183  18.124  66.225  1.00 80.26 LIG 0.16  HD
BRANCH 28 31
ATOM     31  CA  ASP J 604      -5.559  17.227  65.948  1.00 80.57 LIG 0.41  C 
ATOM     32  N   ASP J 604      -5.085  15.912  66.365  1.00 92.85 LIG 0.61  N 
BRANCH 31 33
ATOM     33  CB  ASP J 604      -7.088  17.265  65.937  1.00 75.75 LIG 0.16  C 
BRANCH 33 34
ATOM     34  CG  ASP J 604      -7.697  16.109  65.167  1.00 69.63 LIG 0.17  C 
ATOM     35 OD1  ASP J 604      -8.724  16.320  64.487  1.00 75.49 LIG-0.65  OA
ATOM     36 OD2  ASP J 604      -7.147  14.991  65.238  1.00 69.41 LIG-0.65  OA
ENDBRANCH 33 34
ENDBRANCH 31 33
ENDBRANCH 28 31
ENDBRANCH 1 27
TORSDOF 11
ENDMDL
MODEL 81
USER: ADFR SOLUTION from run 58
USER: SCORE 13.002472 LL:  -2.456 LR: -11.334 RR:   0.000 FEB:  -8.053
USER: RMSD 5.237581
USER: SEED 57
USER: STATUS no improvement in best in 14 clusters for 5 generations
USER: GENES 13
USER: genes 0 Translation |==|  0.49578 0.46028 0.51670
USER: genes 1 Rotation |==|  0.39153 0.08952 0.23889 0.53951
USER: genes 2 Torsion [C]-CA--CB-[CG] |==|  0.27726
USER: genes 3 Torsion [CA]-CB--CG-[CD2] |==|  0.88029
USER: genes 4 Torsion [N]-CA--C-[N] |==|  0.80001
USER: genes 5 Torsion [C]-N--CA-[CB] |==|  0.16681
USER: genes 6 Torsion [N]-CA--C-[O] |==|  0.43538
USER: genes 7 Torsion [N]-CA--CB-[CG] |==|  0.64932
USER: genes 8 Torsion [CA]-CB--CG-[ND2] |==|  0.88244
USER: genes 9 Torsion [CB]-CA--N-[C] |==|  0.84385
USER: genes 10 Torsion [N]-C--CA-[N] |==|  0.35949
USER: genes 11 Torsion [C]-CA--CB-[CG] |==|  0.21505
USER: genes 12 Torsion [CA]-CB--CG-[OD1] |==|  0.07174
ROOT
ATOM      1  CA  TRP J 605      -3.283  20.498  70.776  1.00 71.61 LIG 0.18  C 
ENDROOT
BRANCH 1 2
ATOM      2  CB  TRP J 605      -2.106  21.471  70.921  1.00 65.14 LIG 0.07  C 
BRANCH 2 3
ATOM      3  CG  TRP J 605      -2.216  22.394  72.098  1.00 62.37 LIG-0.03  A 
ATOM      4  CD2 TRP J 605      -3.389  23.092  72.532  1.00 57.80 LIG-0.00  A 
ATOM      5  CE3 TRP J 605      -4.704  23.168  72.061  1.00 58.94 LIG 0.01  A 
ATOM      6  CE2 TRP J 605      -3.035  23.832  73.678  1.00 56.30 LIG 0.04  A 
ATOM      7  CZ3 TRP J 605      -5.607  23.965  72.739  1.00 59.47 LIG 0.00  A 
ATOM      8  CH2 TRP J 605      -5.225  24.688  73.876  1.00 55.92 LIG 0.00  A 
ATOM      9  CZ2 TRP J 605      -3.947  24.634  74.360  1.00 56.02 LIG 0.03  A 
ATOM     10  NE1 TRP J 605      -1.710  23.590  73.930  1.00 57.88 LIG-0.36  N 
ATOM     11  CD1 TRP J 605      -1.227  22.725  72.979  1.00 63.10 LIG 0.10  A 
ATOM     12 HE1  TRP J 605      -1.254  23.925  74.578  1.00 57.88 LIG 0.17  HD
ENDBRANCH 2 3
ENDBRANCH 1 2
BRANCH 1 13
ATOM     13  C   TRP J 605      -4.261  21.019  69.721  1.00 60.32 LIG 0.24  C 
ATOM     14  N   ASN J 606      -3.727  21.336  68.543  1.00 74.38 LIG-0.34  N 
ATOM     15 H    ASN J 606      -2.881  21.323  68.392  1.00 74.38 LIG 0.16  HD
ATOM     16 O    TRP J 605      -5.462  21.124  69.971  1.00 56.87 LIG-0.27  OA
BRANCH 14 17
ATOM     17  CA  ASN J 606      -4.525  21.740  67.383  1.00 65.98 LIG 0.19  C 
BRANCH 17 18
ATOM     18  C   ASN J 606      -3.709  21.968  66.115  1.00 66.37 LIG 0.20  C 
ATOM     19 O    ASN J 606      -4.227  21.891  65.003  1.00 70.67 LIG-0.65  OA
ATOM     20 OXT  ASN J 606      -2.511  22.249  66.179  1.00 61.82 LIG-0.65  OA
ENDBRANCH 17 18
BRANCH 17 21
ATOM     21  CB  ASN J 606      -5.326  22.999  67.716  1.00 63.43 LIG 0.14  C 
BRANCH 21 22
ATOM     22  CG  ASN J 606      -6.811  22.832  67.445  1.00 67.06 LIG 0.22  C 
ATOM     23  ND2 ASN J 606      -7.142  22.209  66.320  1.00 58.48 LIG-0.37  N 
ATOM     24 22HD ASN J 606      -6.527  21.923  65.790  1.00 58.48 LIG 0.16  HD
ATOM     25 21HD ASN J 606      -7.970  22.091  66.122  1.00 58.48 LIG 0.16  HD
ATOM     26 OD1  ASN J 606      -7.650  23.261  68.238  1.00 73.16 LIG-0.27  OA
ENDBRANCH 21 22
ENDBRANCH 17 21
ENDBRANCH 14 17
ENDBRANCH 1 13
BRANCH 1 27
ATOM     27  N   TRP J 605      -2.796  19.146  70.492  1.00 80.26 LIG-0.34  N 
ATOM     28  C   ASP J 604      -2.005  18.852  69.461  1.00 69.06 LIG 0.26  C 
ATOM     29 O    ASP J 604      -1.652  19.676  68.617  1.00 67.02 LIG-0.27  OA
ATOM     30 H    TRP J 605      -3.070  18.557  71.055  1.00 80.26 LIG 0.16  HD
BRANCH 28 31
ATOM     31  CA  ASP J 604      -1.543  17.399  69.365  1.00 80.57 LIG 0.41  C 
ATOM     32  N   ASP J 604      -1.790  16.867  68.029  1.00 92.85 LIG 0.61  N 
BRANCH 31 33
ATOM     33  CB  ASP J 604      -0.060  17.284  69.720  1.00 75.75 LIG 0.16  C 
BRANCH 33 34
ATOM     34  CG  ASP J 604       0.192  17.350  71.215  1.00 69.63 LIG 0.17  C 
ATOM     35 OD1  ASP J 604      -0.723  16.999  71.990  1.00 75.49 LIG-0.65  OA
ATOM     36 OD2  ASP J 604       1.305  17.750  71.614  1.00 69.41 LIG-0.65  OA
ENDBRANCH 33 34
ENDBRANCH 31 33
ENDBRANCH 28 31
ENDBRANCH 1 27
TORSDOF 11
ENDMDL
MODEL 82
USER: ADFR SOLUTION from run 136
USER: SCORE 12.775142 LL:  -2.050 LR: -11.312 RR:   0.000 FEB:  -8.031
USER: RMSD 6.199181
USER: SEED 135
USER: STATUS no improvement in best in 11 clusters for 5 generations
USER: GENES 13
USER: genes 0 Translation |==|  0.54614 0.60509 0.57010
USER: genes 1 Rotation |==|  0.24012 0.31541 0.16771 0.69487
USER: genes 2 Torsion [C]-CA--CB-[CG] |==|  0.41329
USER: genes 3 Torsion [CA]-CB--CG-[CD2] |==|  0.05497
USER: genes 4 Torsion [N]-CA--C-[N] |==|  0.53059
USER: genes 5 Torsion [C]-N--CA-[CB] |==|  0.28669
USER: genes 6 Torsion [N]-CA--C-[O] |==|  0.66240
USER: genes 7 Torsion [N]-CA--CB-[CG] |==|  0.81314
USER: genes 8 Torsion [CA]-CB--CG-[ND2] |==|  0.33290
USER: genes 9 Torsion [CB]-CA--N-[C] |==|  0.80432
USER: genes 10 Torsion [N]-C--CA-[N] |==|  0.46421
USER: genes 11 Torsion [C]-CA--CB-[CG] |==|  0.79440
USER: genes 12 Torsion [CA]-CB--CG-[OD1] |==|  0.09608
ROOT
ATOM      1  CA  TRP J 605      -2.414  22.779  71.697  1.00 71.61 LIG 0.18  C 
ENDROOT
BRANCH 1 2
ATOM      2  CB  TRP J 605      -1.041  23.282  71.235  1.00 65.14 LIG 0.07  C 
BRANCH 2 3
ATOM      3  CG  TRP J 605       0.029  22.230  71.242  1.00 62.37 LIG-0.03  A 
ATOM      4  CD2 TRP J 605      -0.164  20.811  71.239  1.00 57.80 LIG-0.00  A 
ATOM      5  CE3 TRP J 605      -1.293  19.985  71.240  1.00 58.94 LIG 0.01  A 
ATOM      6  CE2 TRP J 605       1.113  20.215  71.239  1.00 56.30 LIG 0.04  A 
ATOM      7  CZ3 TRP J 605      -1.113  18.614  71.239  1.00 59.47 LIG 0.00  A 
ATOM      8  CH2 TRP J 605       0.170  18.052  71.239  1.00 55.92 LIG 0.00  A 
ATOM      9  CZ2 TRP J 605       1.291  18.833  71.238  1.00 56.02 LIG 0.03  A 
ATOM     10  NE1 TRP J 605       2.038  21.226  71.238  1.00 57.88 LIG-0.36  N 
ATOM     11  CD1 TRP J 605       1.380  22.431  71.238  1.00 63.10 LIG 0.10  A 
ATOM     12 HE1  TRP J 605       2.891  21.123  71.238  1.00 57.88 LIG 0.17  HD
ENDBRANCH 2 3
ENDBRANCH 1 2
BRANCH 1 13
ATOM     13  C   TRP J 605      -3.178  23.912  72.385  1.00 60.32 LIG 0.24  C 
ATOM     14  N   ASN J 606      -2.480  24.635  73.259  1.00 74.38 LIG-0.34  N 
ATOM     15 H    ASN J 606      -1.672  24.446  73.486  1.00 74.38 LIG 0.16  HD
ATOM     16 O    TRP J 605      -4.362  24.124  72.124  1.00 56.87 LIG-0.27  OA
BRANCH 14 17
ATOM     17  CA  ASN J 606      -3.013  25.826  73.923  1.00 65.98 LIG 0.19  C 
BRANCH 17 18
ATOM     18  C   ASN J 606      -2.067  27.023  73.909  1.00 66.37 LIG 0.20  C 
ATOM     19 O    ASN J 606      -1.689  27.546  74.955  1.00 70.67 LIG-0.65  OA
ATOM     20 OXT  ASN J 606      -1.650  27.484  72.846  1.00 61.82 LIG-0.65  OA
ENDBRANCH 17 18
BRANCH 17 21
ATOM     21  CB  ASN J 606      -3.400  25.489  75.363  1.00 63.43 LIG 0.14  C 
BRANCH 21 22
ATOM     22  CG  ASN J 606      -4.578  24.534  75.441  1.00 67.06 LIG 0.22  C 
ATOM     23  ND2 ASN J 606      -4.362  23.374  76.049  1.00 58.48 LIG-0.37  N 
ATOM     24 22HD ASN J 606      -3.585  23.197  76.374  1.00 58.48 LIG 0.16  HD
ATOM     25 21HD ASN J 606      -4.998  22.799  76.117  1.00 58.48 LIG 0.16  HD
ATOM     26 OD1  ASN J 606      -5.670  24.838  74.958  1.00 73.16 LIG-0.27  OA
ENDBRANCH 21 22
ENDBRANCH 17 21
ENDBRANCH 14 17
ENDBRANCH 1 13
BRANCH 1 27
ATOM     27  N   TRP J 605      -3.147  22.191  70.574  1.00 80.26 LIG-0.34  N 
ATOM     28  C   ASP J 604      -3.645  22.906  69.566  1.00 69.06 LIG 0.26  C 
ATOM     29 O    ASP J 604      -3.585  24.135  69.509  1.00 67.02 LIG-0.27  OA
ATOM     30 H    TRP J 605      -3.227  21.336  70.625  1.00 80.26 LIG 0.16  HD
BRANCH 28 31
ATOM     31  CA  ASP J 604      -4.319  22.111  68.449  1.00 80.57 LIG 0.41  C 
ATOM     32  N   ASP J 604      -5.079  22.996  67.573  1.00 92.85 LIG 0.61  N 
BRANCH 31 33
ATOM     33  CB  ASP J 604      -3.278  21.329  67.646  1.00 75.75 LIG 0.16  C 
BRANCH 33 34
ATOM     34  CG  ASP J 604      -2.456  22.216  66.731  1.00 69.63 LIG 0.17  C 
ATOM     35 OD1  ASP J 604      -2.178  23.373  67.113  1.00 75.49 LIG-0.65  OA
ATOM     36 OD2  ASP J 604      -2.085  21.757  65.631  1.00 69.41 LIG-0.65  OA
ENDBRANCH 33 34
ENDBRANCH 31 33
ENDBRANCH 28 31
ENDBRANCH 1 27
TORSDOF 11
ENDMDL
MODEL 83
USER: ADFR SOLUTION from run 163
USER: SCORE 12.969179 LL:  -2.459 LR: -11.250 RR:   0.000 FEB:  -7.969
USER: RMSD 5.865945
USER: SEED 162
USER: STATUS no improvement in best in 21 clusters for 5 generations
USER: GENES 13
USER: genes 0 Translation |==|  0.50987 0.45414 0.42705
USER: genes 1 Rotation |==|  0.33157 0.92280 0.29979 0.55277
USER: genes 2 Torsion [C]-CA--CB-[CG] |==|  0.49751
USER: genes 3 Torsion [CA]-CB--CG-[CD2] |==|  0.72207
USER: genes 4 Torsion [N]-CA--C-[N] |==|  0.81311
USER: genes 5 Torsion [C]-N--CA-[CB] |==|  0.36790
USER: genes 6 Torsion [N]-CA--C-[O] |==|  0.74757
USER: genes 7 Torsion [N]-CA--CB-[CG] |==|  0.09611
USER: genes 8 Torsion [CA]-CB--CG-[ND2] |==|  0.24860
USER: genes 9 Torsion [CB]-CA--N-[C] |==|  0.58000
USER: genes 10 Torsion [N]-C--CA-[N] |==|  0.86904
USER: genes 11 Torsion [C]-CA--CB-[CG] |==|  0.80944
USER: genes 12 Torsion [CA]-CB--CG-[OD1] |==|  0.80124
ROOT
ATOM      1  CA  TRP J 605      -3.040  20.402  69.230  1.00 71.61 LIG 0.18  C 
ENDROOT
BRANCH 1 2
ATOM      2  CB  TRP J 605      -2.556  20.772  67.822  1.00 65.14 LIG 0.07  C 
BRANCH 2 3
ATOM      3  CG  TRP J 605      -2.950  22.152  67.384  1.00 62.37 LIG-0.03  A 
ATOM      4  CD2 TRP J 605      -4.039  22.498  66.521  1.00 57.80 LIG-0.00  A 
ATOM      5  CE3 TRP J 605      -5.012  21.759  65.842  1.00 58.94 LIG 0.01  A 
ATOM      6  CE2 TRP J 605      -4.040  23.901  66.391  1.00 56.30 LIG 0.04  A 
ATOM      7  CZ3 TRP J 605      -5.940  22.433  65.069  1.00 59.47 LIG 0.00  A 
ATOM      8  CH2 TRP J 605      -5.915  23.829  64.960  1.00 55.92 LIG 0.00  A 
ATOM      9  CZ2 TRP J 605      -4.975  24.578  65.612  1.00 56.02 LIG 0.03  A 
ATOM     10  NE1 TRP J 605      -3.001  24.384  67.144  1.00 57.88 LIG-0.36  N 
ATOM     11  CD1 TRP J 605      -2.354  23.328  67.737  1.00 63.10 LIG 0.10  A 
ATOM     12 HE1  TRP J 605      -2.789  25.213  67.231  1.00 57.88 LIG 0.17  HD
ENDBRANCH 2 3
ENDBRANCH 1 2
BRANCH 1 13
ATOM     13  C   TRP J 605      -2.607  18.974  69.569  1.00 60.32 LIG 0.24  C 
ATOM     14  N   ASN J 606      -1.300  18.731  69.493  1.00 74.38 LIG-0.34  N 
ATOM     15 H    ASN J 606      -0.731  19.308  69.203  1.00 74.38 LIG 0.16  HD
ATOM     16 O    TRP J 605      -3.436  18.124  69.895  1.00 56.87 LIG-0.27  OA
BRANCH 14 17
ATOM     17  CA  ASN J 606      -0.696  17.458  69.892  1.00 65.98 LIG 0.19  C 
BRANCH 17 18
ATOM     18  C   ASN J 606       0.023  17.505  71.237  1.00 66.37 LIG 0.20  C 
ATOM     19 O    ASN J 606       1.219  17.780  71.309  1.00 70.67 LIG-0.65  OA
ATOM     20 OXT  ASN J 606      -0.585  17.281  72.284  1.00 61.82 LIG-0.65  OA
ENDBRANCH 17 18
BRANCH 17 21
ATOM     21  CB  ASN J 606       0.268  16.977  68.807  1.00 63.43 LIG 0.14  C 
BRANCH 21 22
ATOM     22  CG  ASN J 606       0.987  18.124  68.118  1.00 67.06 LIG 0.22  C 
ATOM     23  ND2 ASN J 606       2.135  18.515  68.659  1.00 58.48 LIG-0.37  N 
ATOM     24 22HD ASN J 606       2.434  18.121  69.363  1.00 58.48 LIG 0.16  HD
ATOM     25 21HD ASN J 606       2.578  19.161  68.306  1.00 58.48 LIG 0.16  HD
ATOM     26 OD1  ASN J 606       0.513  18.652  67.111  1.00 73.16 LIG-0.27  OA
ENDBRANCH 21 22
ENDBRANCH 17 21
ENDBRANCH 14 17
ENDBRANCH 1 13
BRANCH 1 27
ATOM     27  N   TRP J 605      -2.576  21.391  70.206  1.00 80.26 LIG-0.34  N 
ATOM     28  C   ASP J 604      -2.340  21.105  71.485  1.00 69.06 LIG 0.26  C 
ATOM     29 O    ASP J 604      -2.541  19.997  71.984  1.00 67.02 LIG-0.27  OA
ATOM     30 H    TRP J 605      -2.470  22.177  69.874  1.00 80.26 LIG 0.16  HD
BRANCH 28 31
ATOM     31  CA  ASP J 604      -1.795  22.250  72.337  1.00 80.57 LIG 0.41  C 
ATOM     32  N   ASP J 604      -0.698  22.925  71.652  1.00 92.85 LIG 0.61  N 
BRANCH 31 33
ATOM     33  CB  ASP J 604      -2.907  23.245  72.673  1.00 75.75 LIG 0.16  C 
BRANCH 33 34
ATOM     34  CG  ASP J 604      -3.391  24.014  71.459  1.00 69.63 LIG 0.17  C 
ATOM     35 OD1  ASP J 604      -2.641  24.882  70.965  1.00 75.49 LIG-0.65  OA
ATOM     36 OD2  ASP J 604      -4.520  23.749  70.997  1.00 69.41 LIG-0.65  OA
ENDBRANCH 33 34
ENDBRANCH 31 33
ENDBRANCH 28 31
ENDBRANCH 1 27
TORSDOF 11
ENDMDL
MODEL 84
USER: ADFR SOLUTION from run 128
USER: SCORE 12.966548 LL:  -1.728 LR: -11.245 RR:   0.000 FEB:  -7.964
USER: RMSD 5.994595
USER: SEED 127
USER: STATUS no improvement in best in 11 clusters for 5 generations
USER: GENES 13
USER: genes 0 Translation |==|  0.47510 0.57685 0.52698
USER: genes 1 Rotation |==|  0.43449 0.94094 0.72627 0.50918
USER: genes 2 Torsion [C]-CA--CB-[CG] |==|  0.43467
USER: genes 3 Torsion [CA]-CB--CG-[CD2] |==|  0.46161
USER: genes 4 Torsion [N]-CA--C-[N] |==|  0.38902
USER: genes 5 Torsion [C]-N--CA-[CB] |==|  0.27347
USER: genes 6 Torsion [N]-CA--C-[O] |==|  0.38540
USER: genes 7 Torsion [N]-CA--CB-[CG] |==|  0.17646
USER: genes 8 Torsion [CA]-CB--CG-[ND2] |==|  0.78619
USER: genes 9 Torsion [CB]-CA--N-[C] |==|  0.83889
USER: genes 10 Torsion [N]-C--CA-[N] |==|  0.71325
USER: genes 11 Torsion [C]-CA--CB-[CG] |==|  0.43380
USER: genes 12 Torsion [CA]-CB--CG-[OD1] |==|  0.01938
ROOT
ATOM      1  CA  TRP J 605      -3.640  22.334  70.953  1.00 71.61 LIG 0.18  C 
ENDROOT
BRANCH 1 2
ATOM      2  CB  TRP J 605      -3.255  23.776  71.306  1.00 65.14 LIG 0.07  C 
BRANCH 2 3
ATOM      3  CG  TRP J 605      -3.371  24.101  72.766  1.00 62.37 LIG-0.03  A 
ATOM      4  CD2 TRP J 605      -2.833  25.247  73.434  1.00 57.80 LIG-0.00  A 
ATOM      5  CE3 TRP J 605      -2.079  26.349  73.017  1.00 58.94 LIG 0.01  A 
ATOM      6  CE2 TRP J 605      -3.192  25.147  74.793  1.00 56.30 LIG 0.04  A 
ATOM      7  CZ3 TRP J 605      -1.714  27.298  73.954  1.00 59.47 LIG 0.00  A 
ATOM      8  CH2 TRP J 605      -2.087  27.170  75.298  1.00 55.92 LIG 0.00  A 
ATOM      9  CZ2 TRP J 605      -2.824  26.104  75.735  1.00 56.02 LIG 0.03  A 
ATOM     10  NE1 TRP J 605      -3.918  23.994  74.941  1.00 57.88 LIG-0.36  N 
ATOM     11  CD1 TRP J 605      -4.022  23.374  73.721  1.00 63.10 LIG 0.10  A 
ATOM     12 HE1  TRP J 605      -4.253  23.705  75.678  1.00 57.88 LIG 0.17  HD
ENDBRANCH 2 3
ENDBRANCH 1 2
BRANCH 1 13
ATOM     13  C   TRP J 605      -4.054  22.251  69.483  1.00 60.32 LIG 0.24  C 
ATOM     14  N   ASN J 606      -5.362  22.322  69.245  1.00 74.38 LIG-0.34  N 
ATOM     15 H    ASN J 606      -5.953  22.341  69.870  1.00 74.38 LIG 0.16  HD
ATOM     16 O    TRP J 605      -3.210  22.132  68.595  1.00 56.87 LIG-0.27  OA
BRANCH 14 17
ATOM     17  CA  ASN J 606      -5.931  22.374  67.897  1.00 65.98 LIG 0.19  C 
BRANCH 17 18
ATOM     18  C   ASN J 606      -7.075  23.372  67.742  1.00 66.37 LIG 0.20  C 
ATOM     19 O    ASN J 606      -7.168  24.082  66.743  1.00 70.67 LIG-0.65  OA
ATOM     20 OXT  ASN J 606      -7.941  23.477  68.612  1.00 61.82 LIG-0.65  OA
ENDBRANCH 17 18
BRANCH 17 21
ATOM     21  CB  ASN J 606      -6.400  20.981  67.475  1.00 63.43 LIG 0.14  C 
BRANCH 21 22
ATOM     22  CG  ASN J 606      -7.523  20.456  68.352  1.00 67.06 LIG 0.22  C 
ATOM     23  ND2 ASN J 606      -7.176  19.999  69.549  1.00 58.48 LIG-0.37  N 
ATOM     24 22HD ASN J 606      -6.351  20.012  69.792  1.00 58.48 LIG 0.16  HD
ATOM     25 21HD ASN J 606      -7.776  19.690  70.082  1.00 58.48 LIG 0.16  HD
ATOM     26 OD1  ASN J 606      -8.688  20.460  67.955  1.00 73.16 LIG-0.27  OA
ENDBRANCH 21 22
ENDBRANCH 17 21
ENDBRANCH 14 17
ENDBRANCH 1 13
BRANCH 1 27
ATOM     27  N   TRP J 605      -2.550  21.417  71.296  1.00 80.26 LIG-0.34  N 
ATOM     28  C   ASP J 604      -1.318  21.523  70.803  1.00 69.06 LIG 0.26  C 
ATOM     29 O    ASP J 604      -0.989  22.368  69.969  1.00 67.02 LIG-0.27  OA
ATOM     30 H    TRP J 605      -2.782  20.800  71.849  1.00 80.26 LIG 0.16  HD
BRANCH 28 31
ATOM     31  CA  ASP J 604      -0.296  20.516  71.329  1.00 80.57 LIG 0.41  C 
ATOM     32  N   ASP J 604       0.588  21.142  72.306  1.00 92.85 LIG 0.61  N 
BRANCH 31 33
ATOM     33  CB  ASP J 604      -1.004  19.309  71.947  1.00 75.75 LIG 0.16  C 
BRANCH 33 34
ATOM     34  CG  ASP J 604      -0.137  18.064  71.959  1.00 69.63 LIG 0.17  C 
ATOM     35 OD1  ASP J 604       1.059  18.166  71.610  1.00 75.49 LIG-0.65  OA
ATOM     36 OD2  ASP J 604      -0.649  16.985  72.320  1.00 69.41 LIG-0.65  OA
ENDBRANCH 33 34
ENDBRANCH 31 33
ENDBRANCH 28 31
ENDBRANCH 1 27
TORSDOF 11
ENDMDL
MODEL 85
USER: ADFR SOLUTION from run 14
USER: SCORE 12.698601 LL:  -2.278 LR: -11.234 RR:   0.000 FEB:  -7.953
USER: RMSD 7.040626
USER: SEED 429826
USER: STATUS no improvement in best in 8 clusters for 5 generations
USER: GENES 13
USER: genes 0 Translation |==|  0.52329 0.62922 0.54892
USER: genes 1 Rotation |==|  0.27248 0.20998 0.68336 0.78373
USER: genes 2 Torsion [C]-CA--CB-[CG] |==|  0.71077
USER: genes 3 Torsion [CA]-CB--CG-[CD2] |==|  0.70491
USER: genes 4 Torsion [N]-CA--C-[N] |==|  0.59641
USER: genes 5 Torsion [C]-N--CA-[CB] |==|  0.16371
USER: genes 6 Torsion [N]-CA--C-[O] |==|  0.96147
USER: genes 7 Torsion [N]-CA--CB-[CG] |==|  0.72546
USER: genes 8 Torsion [CA]-CB--CG-[ND2] |==|  0.94542
USER: genes 9 Torsion [CB]-CA--N-[C] |==|  0.19250
USER: genes 10 Torsion [N]-C--CA-[N] |==|  0.77861
USER: genes 11 Torsion [C]-CA--CB-[CG] |==|  0.45103
USER: genes 12 Torsion [CA]-CB--CG-[OD1] |==|  0.50549
ROOT
ATOM      1  CA  TRP J 605      -2.808  23.159  71.332  1.00 71.61 LIG 0.18  C 
ENDROOT
BRANCH 1 2
ATOM      2  CB  TRP J 605      -3.651  22.862  70.085  1.00 65.14 LIG 0.07  C 
BRANCH 2 3
ATOM      3  CG  TRP J 605      -3.743  21.404  69.743  1.00 62.37 LIG-0.03  A 
ATOM      4  CD2 TRP J 605      -3.080  20.735  68.665  1.00 57.80 LIG-0.00  A 
ATOM      5  CE3 TRP J 605      -2.214  21.151  67.648  1.00 58.94 LIG 0.01  A 
ATOM      6  CE2 TRP J 605      -3.446  19.375  68.728  1.00 56.30 LIG 0.04  A 
ATOM      7  CZ3 TRP J 605      -1.749  20.214  66.745  1.00 59.47 LIG 0.00  A 
ATOM      8  CH2 TRP J 605      -2.132  18.869  66.835  1.00 55.92 LIG 0.00  A 
ATOM      9  CZ2 TRP J 605      -2.977  18.432  67.817  1.00 56.02 LIG 0.03  A 
ATOM     10  NE1 TRP J 605      -4.290  19.228  69.798  1.00 57.88 LIG-0.36  N 
ATOM     11  CD1 TRP J 605      -4.461  20.448  70.402  1.00 63.10 LIG 0.10  A 
ATOM     12 HE1  TRP J 605      -4.654  18.490  70.050  1.00 57.88 LIG 0.17  HD
ENDBRANCH 2 3
ENDBRANCH 1 2
BRANCH 1 13
ATOM     13  C   TRP J 605      -3.724  23.488  72.512  1.00 60.32 LIG 0.24  C 
ATOM     14  N   ASN J 606      -4.953  23.893  72.197  1.00 74.38 LIG-0.34  N 
ATOM     15 H    ASN J 606      -5.208  24.035  71.388  1.00 74.38 LIG 0.16  HD
ATOM     16 O    TRP J 605      -3.326  23.371  73.672  1.00 56.87 LIG-0.27  OA
BRANCH 14 17
ATOM     17  CA  ASN J 606      -5.997  24.139  73.194  1.00 65.98 LIG 0.19  C 
BRANCH 17 18
ATOM     18  C   ASN J 606      -7.345  24.536  72.599  1.00 66.37 LIG 0.20  C 
ATOM     19 O    ASN J 606      -7.445  24.874  71.421  1.00 70.67 LIG-0.65  OA
ATOM     20 OXT  ASN J 606      -8.367  24.511  73.285  1.00 61.82 LIG-0.65  OA
ENDBRANCH 17 18
BRANCH 17 21
ATOM     21  CB  ASN J 606      -5.532  25.212  74.180  1.00 63.43 LIG 0.14  C 
BRANCH 21 22
ATOM     22  CG  ASN J 606      -4.999  24.620  75.473  1.00 67.06 LIG 0.22  C 
ATOM     23  ND2 ASN J 606      -5.362  23.374  75.750  1.00 58.48 LIG-0.37  N 
ATOM     24 22HD ASN J 606      -5.873  22.945  75.207  1.00 58.48 LIG 0.16  HD
ATOM     25 21HD ASN J 606      -5.087  22.996  76.471  1.00 58.48 LIG 0.16  HD
ATOM     26 OD1  ASN J 606      -4.269  25.280  76.215  1.00 73.16 LIG-0.27  OA
ENDBRANCH 21 22
ENDBRANCH 17 21
ENDBRANCH 14 17
ENDBRANCH 1 13
BRANCH 1 27
ATOM     27  N   TRP J 605      -1.893  22.049  71.606  1.00 80.26 LIG-0.34  N 
ATOM     28  C   ASP J 604      -0.849  21.750  70.835  1.00 69.06 LIG 0.26  C 
ATOM     29 O    ASP J 604      -0.585  22.342  69.787  1.00 67.02 LIG-0.27  OA
ATOM     30 H    TRP J 605      -2.093  21.606  72.315  1.00 80.26 LIG 0.16  HD
BRANCH 28 31
ATOM     31  CA  ASP J 604       0.033  20.600  71.318  1.00 80.57 LIG 0.41  C 
ATOM     32  N   ASP J 604       0.945  21.054  72.363  1.00 92.85 LIG 0.61  N 
BRANCH 31 33
ATOM     33  CB  ASP J 604      -0.827  19.442  71.826  1.00 75.75 LIG 0.16  C 
BRANCH 33 34
ATOM     34  CG  ASP J 604      -0.058  18.137  71.916  1.00 69.63 LIG 0.17  C 
ATOM     35 OD1  ASP J 604      -0.667  17.110  72.283  1.00 75.49 LIG-0.65  OA
ATOM     36 OD2  ASP J 604       1.153  18.138  71.615  1.00 69.41 LIG-0.65  OA
ENDBRANCH 33 34
ENDBRANCH 31 33
ENDBRANCH 28 31
ENDBRANCH 1 27
TORSDOF 11
ENDMDL
MODEL 86
USER: ADFR SOLUTION from run 167
USER: SCORE 12.341217 LL:  -2.040 LR: -11.215 RR:   0.000 FEB:  -7.934
USER: RMSD 3.702188
USER: SEED 166
USER: STATUS no improvement in best in 9 clusters for 5 generations
USER: GENES 13
USER: genes 0 Translation |==|  0.52741 0.50913 0.36202
USER: genes 1 Rotation |==|  0.51321 0.58434 0.31823 0.95790
USER: genes 2 Torsion [C]-CA--CB-[CG] |==|  0.79884
USER: genes 3 Torsion [CA]-CB--CG-[CD2] |==|  0.42665
USER: genes 4 Torsion [N]-CA--C-[N] |==|  0.47404
USER: genes 5 Torsion [C]-N--CA-[CB] |==|  0.37537
USER: genes 6 Torsion [N]-CA--C-[O] |==|  0.55494
USER: genes 7 Torsion [N]-CA--CB-[CG] |==|  0.15665
USER: genes 8 Torsion [CA]-CB--CG-[ND2] |==|  0.65508
USER: genes 9 Torsion [CB]-CA--N-[C] |==|  0.19174
USER: genes 10 Torsion [N]-C--CA-[N] |==|  0.17394
USER: genes 11 Torsion [C]-CA--CB-[CG] |==|  0.72713
USER: genes 12 Torsion [CA]-CB--CG-[OD1] |==|  0.85229
ROOT
ATOM      1  CA  TRP J 605      -2.737  21.268  68.108  1.00 71.61 LIG 0.18  C 
ENDROOT
BRANCH 1 2
ATOM      2  CB  TRP J 605      -2.304  22.317  69.139  1.00 65.14 LIG 0.07  C 
BRANCH 2 3
ATOM      3  CG  TRP J 605      -3.362  22.655  70.149  1.00 62.37 LIG-0.03  A 
ATOM      4  CD2 TRP J 605      -3.151  23.143  71.478  1.00 57.80 LIG-0.00  A 
ATOM      5  CE3 TRP J 605      -2.013  23.438  72.236  1.00 58.94 LIG 0.01  A 
ATOM      6  CE2 TRP J 605      -4.421  23.330  72.061  1.00 56.30 LIG 0.04  A 
ATOM      7  CZ3 TRP J 605      -2.176  23.903  73.527  1.00 59.47 LIG 0.00  A 
ATOM      8  CH2 TRP J 605      -3.452  24.079  74.078  1.00 55.92 LIG 0.00  A 
ATOM      9  CZ2 TRP J 605      -4.583  23.799  73.363  1.00 56.02 LIG 0.03  A 
ATOM     10  NE1 TRP J 605      -5.358  22.975  71.126  1.00 57.88 LIG-0.36  N 
ATOM     11  CD1 TRP J 605      -4.714  22.573  69.982  1.00 63.10 LIG 0.10  A 
ATOM     12 HE1  TRP J 605      -6.210  22.999  71.238  1.00 57.88 LIG 0.17  HD
ENDBRANCH 2 3
ENDBRANCH 1 2
BRANCH 1 13
ATOM     13  C   TRP J 605      -2.810  19.889  68.767  1.00 60.32 LIG 0.24  C 
ATOM     14  N   ASN J 606      -1.651  19.389  69.193  1.00 74.38 LIG-0.34  N 
ATOM     15 H    ASN J 606      -0.894  19.771  69.050  1.00 74.38 LIG 0.16  HD
ATOM     16 O    TRP J 605      -3.886  19.304  68.889  1.00 56.87 LIG-0.27  OA
BRANCH 14 17
ATOM     17  CA  ASN J 606      -1.547  18.139  69.948  1.00 65.98 LIG 0.19  C 
BRANCH 17 18
ATOM     18  C   ASN J 606      -1.364  18.332  71.450  1.00 66.37 LIG 0.20  C 
ATOM     19 O    ASN J 606      -0.910  17.434  72.156  1.00 70.67 LIG-0.65  OA
ATOM     20 OXT  ASN J 606      -1.657  19.401  71.988  1.00 61.82 LIG-0.65  OA
ENDBRANCH 17 18
BRANCH 17 21
ATOM     21  CB  ASN J 606      -0.401  17.291  69.394  1.00 63.43 LIG 0.14  C 
BRANCH 21 22
ATOM     22  CG  ASN J 606       0.926  18.030  69.401  1.00 67.06 LIG 0.22  C 
ATOM     23  ND2 ASN J 606       1.558  18.124  68.238  1.00 58.48 LIG-0.37  N 
ATOM     24 22HD ASN J 606       1.212  17.776  67.531  1.00 58.48 LIG 0.16  HD
ATOM     25 21HD ASN J 606       2.314  18.532  68.191  1.00 58.48 LIG 0.16  HD
ATOM     26 OD1  ASN J 606       1.375  18.509  70.443  1.00 73.16 LIG-0.27  OA
ENDBRANCH 21 22
ENDBRANCH 17 21
ENDBRANCH 14 17
ENDBRANCH 1 13
BRANCH 1 27
ATOM     27  N   TRP J 605      -3.994  21.667  67.470  1.00 80.26 LIG-0.34  N 
ATOM     28  C   ASP J 604      -4.099  22.700  66.636  1.00 69.06 LIG 0.26  C 
ATOM     29 O    ASP J 604      -3.163  23.453  66.364  1.00 67.02 LIG-0.27  OA
ATOM     30 H    TRP J 605      -4.662  21.169  67.685  1.00 80.26 LIG 0.16  HD
BRANCH 28 31
ATOM     31  CA  ASP J 604      -5.477  22.922  66.014  1.00 80.57 LIG 0.41  C 
ATOM     32  N   ASP J 604      -6.466  23.217  67.045  1.00 92.85 LIG 0.61  N 
BRANCH 31 33
ATOM     33  CB  ASP J 604      -5.424  24.052  64.985  1.00 75.75 LIG 0.16  C 
BRANCH 33 34
ATOM     34  CG  ASP J 604      -5.900  25.378  65.547  1.00 69.63 LIG 0.17  C 
ATOM     35 OD1  ASP J 604      -7.019  25.425  66.100  1.00 75.49 LIG-0.65  OA
ATOM     36 OD2  ASP J 604      -5.154  26.373  65.438  1.00 69.41 LIG-0.65  OA
ENDBRANCH 33 34
ENDBRANCH 31 33
ENDBRANCH 28 31
ENDBRANCH 1 27
TORSDOF 11
ENDMDL
MODEL 87
USER: ADFR SOLUTION from run 57
USER: SCORE 13.214614 LL:  -2.087 LR: -11.215 RR:   0.000 FEB:  -7.934
USER: RMSD 6.472760
USER: SEED 56
USER: STATUS no improvement in best in 5 clusters for 5 generations
USER: GENES 13
USER: genes 0 Translation |==|  0.46082 0.58946 0.39422
USER: genes 1 Rotation |==|  0.53917 0.89485 0.77646 0.62700
USER: genes 2 Torsion [C]-CA--CB-[CG] |==|  0.61590
USER: genes 3 Torsion [CA]-CB--CG-[CD2] |==|  0.35595
USER: genes 4 Torsion [N]-CA--C-[N] |==|  0.34079
USER: genes 5 Torsion [C]-N--CA-[CB] |==|  0.31667
USER: genes 6 Torsion [N]-CA--C-[O] |==|  0.82022
USER: genes 7 Torsion [N]-CA--CB-[CG] |==|  0.81586
USER: genes 8 Torsion [CA]-CB--CG-[ND2] |==|  0.47463
USER: genes 9 Torsion [CB]-CA--N-[C] |==|  0.81666
USER: genes 10 Torsion [N]-C--CA-[N] |==|  0.37600
USER: genes 11 Torsion [C]-CA--CB-[CG] |==|  0.42697
USER: genes 12 Torsion [CA]-CB--CG-[OD1] |==|  0.54589
ROOT
ATOM      1  CA  TRP J 605      -3.886  22.533  68.663  1.00 71.61 LIG 0.18  C 
ENDROOT
BRANCH 1 2
ATOM      2  CB  TRP J 605      -2.963  23.371  69.556  1.00 65.14 LIG 0.07  C 
BRANCH 2 3
ATOM      3  CG  TRP J 605      -2.146  22.563  70.521  1.00 62.37 LIG-0.03  A 
ATOM      4  CD2 TRP J 605      -0.728  22.628  70.706  1.00 57.80 LIG-0.00  A 
ATOM      5  CE3 TRP J 605       0.296  23.374  70.113  1.00 58.94 LIG 0.01  A 
ATOM      6  CE2 TRP J 605      -0.395  21.704  71.717  1.00 56.30 LIG 0.04  A 
ATOM      7  CZ3 TRP J 605       1.595  23.178  70.542  1.00 59.47 LIG 0.00  A 
ATOM      8  CH2 TRP J 605       1.894  22.252  71.549  1.00 55.92 LIG 0.00  A 
ATOM      9  CZ2 TRP J 605       0.915  21.508  72.147  1.00 56.02 LIG 0.03  A 
ATOM     10  NE1 TRP J 605      -1.559  21.109  72.128  1.00 57.88 LIG-0.36  N 
ATOM     11  CD1 TRP J 605      -2.604  21.632  71.408  1.00 63.10 LIG 0.10  A 
ATOM     12 HE1  TRP J 605      -1.625  20.507  72.738  1.00 57.88 LIG 0.17  HD
ENDBRANCH 2 3
ENDBRANCH 1 2
BRANCH 1 13
ATOM     13  C   TRP J 605      -3.853  23.071  67.232  1.00 60.32 LIG 0.24  C 
ATOM     14  N   ASN J 606      -4.988  23.610  66.789  1.00 74.38 LIG-0.34  N 
ATOM     15 H    ASN J 606      -5.720  23.599  67.240  1.00 74.38 LIG 0.16  HD
ATOM     16 O    TRP J 605      -2.827  23.002  66.555  1.00 56.87 LIG-0.27  OA
BRANCH 14 17
ATOM     17  CA  ASN J 606      -5.106  24.275  65.490  1.00 65.98 LIG 0.19  C 
BRANCH 17 18
ATOM     18  C   ASN J 606      -5.582  25.722  65.573  1.00 66.37 LIG 0.20  C 
ATOM     19 O    ASN J 606      -6.706  25.999  65.988  1.00 70.67 LIG-0.65  OA
ATOM     20 OXT  ASN J 606      -4.843  26.649  65.238  1.00 61.82 LIG-0.65  OA
ENDBRANCH 17 18
BRANCH 17 21
ATOM     21  CB  ASN J 606      -6.039  23.476  64.579  1.00 63.43 LIG 0.14  C 
BRANCH 21 22
ATOM     22  CG  ASN J 606      -5.467  22.119  64.207  1.00 67.06 LIG 0.22  C 
ATOM     23  ND2 ASN J 606      -6.284  21.285  63.576  1.00 58.48 LIG-0.37  N 
ATOM     24 22HD ASN J 606      -7.091  21.525  63.398  1.00 58.48 LIG 0.16  HD
ATOM     25 21HD ASN J 606      -6.007  20.504  63.346  1.00 58.48 LIG 0.16  HD
ATOM     26 OD1  ASN J 606      -4.304  21.827  64.486  1.00 73.16 LIG-0.27  OA
ENDBRANCH 21 22
ENDBRANCH 17 21
ENDBRANCH 14 17
ENDBRANCH 1 13
BRANCH 1 27
ATOM     27  N   TRP J 605      -3.532  21.114  68.753  1.00 80.26 LIG-0.34  N 
ATOM     28  C   ASP J 604      -2.377  20.616  68.314  1.00 69.06 LIG 0.26  C 
ATOM     29 O    ASP J 604      -1.519  21.290  67.742  1.00 67.02 LIG-0.27  OA
ATOM     30 H    TRP J 605      -4.142  20.630  69.116  1.00 80.26 LIG 0.16  HD
BRANCH 28 31
ATOM     31  CA  ASP J 604      -2.156  19.124  68.556  1.00 80.57 LIG 0.41  C 
ATOM     32  N   ASP J 604      -1.619  18.483  67.360  1.00 92.85 LIG 0.61  N 
BRANCH 31 33
ATOM     33  CB  ASP J 604      -1.219  18.907  69.745  1.00 75.75 LIG 0.16  C 
BRANCH 33 34
ATOM     34  CG  ASP J 604      -1.441  17.572  70.430  1.00 69.63 LIG 0.17  C 
ATOM     35 OD1  ASP J 604      -0.975  17.404  71.577  1.00 75.49 LIG-0.65  OA
ATOM     36 OD2  ASP J 604      -2.085  16.692  69.823  1.00 69.41 LIG-0.65  OA
ENDBRANCH 33 34
ENDBRANCH 31 33
ENDBRANCH 28 31
ENDBRANCH 1 27
TORSDOF 11
ENDMDL
MODEL 88
USER: ADFR SOLUTION from run 83
USER: SCORE 12.453086 LL:  -1.536 LR: -11.213 RR:   0.000 FEB:  -7.932
USER: RMSD 5.902455
USER: SEED 82
USER: STATUS no improvement in best in 7 clusters for 5 generations
USER: GENES 13
USER: genes 0 Translation |==|  0.45983 0.42984 0.50246
USER: genes 1 Rotation |==|  0.46899 0.09485 0.20868 0.50494
USER: genes 2 Torsion [C]-CA--CB-[CG] |==|  0.19011
USER: genes 3 Torsion [CA]-CB--CG-[CD2] |==|  0.42409
USER: genes 4 Torsion [N]-CA--C-[N] |==|  0.30736
USER: genes 5 Torsion [C]-N--CA-[CB] |==|  0.46385
USER: genes 6 Torsion [N]-CA--C-[O] |==|  0.65942
USER: genes 7 Torsion [N]-CA--CB-[CG] |==|  0.66641
USER: genes 8 Torsion [CA]-CB--CG-[ND2] |==|  0.67011
USER: genes 9 Torsion [CB]-CA--N-[C] |==|  0.81111
USER: genes 10 Torsion [N]-C--CA-[N] |==|  0.33935
USER: genes 11 Torsion [C]-CA--CB-[CG] |==|  0.25276
USER: genes 12 Torsion [CA]-CB--CG-[OD1] |==|  0.52461
ROOT
ATOM      1  CA  TRP J 605      -3.903  20.019  70.530  1.00 71.61 LIG 0.18  C 
ENDROOT
BRANCH 1 2
ATOM      2  CB  TRP J 605      -3.013  21.130  71.101  1.00 65.14 LIG 0.07  C 
BRANCH 2 3
ATOM      3  CG  TRP J 605      -3.773  22.291  71.670  1.00 62.37 LIG-0.03  A 
ATOM      4  CD2 TRP J 605      -3.336  23.175  72.708  1.00 57.80 LIG-0.00  A 
ATOM      5  CE3 TRP J 605      -2.179  23.259  73.489  1.00 58.94 LIG 0.01  A 
ATOM      6  CE2 TRP J 605      -4.362  24.119  72.913  1.00 56.30 LIG 0.04  A 
ATOM      7  CZ3 TRP J 605      -2.084  24.266  74.432  1.00 59.47 LIG 0.00  A 
ATOM      8  CH2 TRP J 605      -3.122  25.190  74.611  1.00 55.92 LIG 0.00  A 
ATOM      9  CZ2 TRP J 605      -4.265  25.133  73.863  1.00 56.02 LIG 0.03  A 
ATOM     10  NE1 TRP J 605      -5.373  23.824  72.036  1.00 57.88 LIG-0.36  N 
ATOM     11  CD1 TRP J 605      -5.011  22.728  71.293  1.00 63.10 LIG 0.10  A 
ATOM     12 HE1  TRP J 605      -6.114  24.255  71.962  1.00 57.88 LIG 0.17  HD
ENDBRANCH 2 3
ENDBRANCH 1 2
BRANCH 1 13
ATOM     13  C   TRP J 605      -4.615  20.518  69.272  1.00 60.32 LIG 0.24  C 
ATOM     14  N   ASN J 606      -5.942  20.405  69.274  1.00 74.38 LIG-0.34  N 
ATOM     15 H    ASN J 606      -6.379  20.014  69.902  1.00 74.38 LIG 0.16  HD
ATOM     16 O    TRP J 605      -3.977  20.996  68.333  1.00 56.87 LIG-0.27  OA
BRANCH 14 17
ATOM     17  CA  ASN J 606      -6.793  20.935  68.206  1.00 65.98 LIG 0.19  C 
BRANCH 17 18
ATOM     18  C   ASN J 606      -6.852  22.458  68.155  1.00 66.37 LIG 0.20  C 
ATOM     19 O    ASN J 606      -7.923  23.056  68.239  1.00 70.67 LIG-0.65  OA
ATOM     20 OXT  ASN J 606      -5.822  23.125  68.040  1.00 61.82 LIG-0.65  OA
ENDBRANCH 17 18
BRANCH 17 21
ATOM     21  CB  ASN J 606      -8.207  20.368  68.339  1.00 63.43 LIG 0.14  C 
BRANCH 21 22
ATOM     22  CG  ASN J 606      -8.636  19.581  67.112  1.00 67.06 LIG 0.22  C 
ATOM     23  ND2 ASN J 606      -9.696  20.037  66.457  1.00 58.48 LIG-0.37  N 
ATOM     24 22HD ASN J 606     -10.102  20.744  66.733  1.00 58.48 LIG 0.16  HD
ATOM     25 21HD ASN J 606      -9.978  19.626  65.757  1.00 58.48 LIG 0.16  HD
ATOM     26 OD1  ASN J 606      -8.019  18.575  66.760  1.00 73.16 LIG-0.27  OA
ENDBRANCH 21 22
ENDBRANCH 17 21
ENDBRANCH 14 17
ENDBRANCH 1 13
BRANCH 1 27
ATOM     27  N   TRP J 605      -3.119  18.802  70.303  1.00 80.26 LIG-0.34  N 
ATOM     28  C   ASP J 604      -2.169  18.704  69.374  1.00 69.06 LIG 0.26  C 
ATOM     29 O    ASP J 604      -1.896  19.606  68.581  1.00 67.02 LIG-0.27  OA
ATOM     30 H    TRP J 605      -3.330  18.154  70.827  1.00 80.26 LIG 0.16  HD
BRANCH 28 31
ATOM     31  CA  ASP J 604      -1.411  17.379  69.331  1.00 80.57 LIG 0.41  C 
ATOM     32  N   ASP J 604      -1.529  16.760  68.014  1.00 92.85 LIG 0.61  N 
BRANCH 31 33
ATOM     33  CB  ASP J 604       0.061  17.592  69.690  1.00 75.75 LIG 0.16  C 
BRANCH 33 34
ATOM     34  CG  ASP J 604       0.331  17.435  71.174  1.00 69.63 LIG 0.17  C 
ATOM     35 OD1  ASP J 604       1.457  17.749  71.613  1.00 75.49 LIG-0.65  OA
ATOM     36 OD2  ASP J 604      -0.586  17.001  71.903  1.00 69.41 LIG-0.65  OA
ENDBRANCH 33 34
ENDBRANCH 31 33
ENDBRANCH 28 31
ENDBRANCH 1 27
TORSDOF 11
ENDMDL
MODEL 89
USER: ADFR SOLUTION from run 33
USER: SCORE 12.501679 LL:  -1.758 LR: -11.178 RR:   0.000 FEB:  -7.897
USER: RMSD 5.296170
USER: SEED 32
USER: STATUS no improvement in best in 16 clusters for 5 generations
USER: GENES 13
USER: genes 0 Translation |==|  0.48517 0.39172 0.33994
USER: genes 1 Rotation |==|  0.24644 0.33858 0.13417 0.66070
USER: genes 2 Torsion [C]-CA--CB-[CG] |==|  0.33623
USER: genes 3 Torsion [CA]-CB--CG-[CD2] |==|  0.82320
USER: genes 4 Torsion [N]-CA--C-[N] |==|  0.49932
USER: genes 5 Torsion [C]-N--CA-[CB] |==|  0.48555
USER: genes 6 Torsion [N]-CA--C-[O] |==|  0.60939
USER: genes 7 Torsion [N]-CA--CB-[CG] |==|  0.18378
USER: genes 8 Torsion [CA]-CB--CG-[ND2] |==|  0.40112
USER: genes 9 Torsion [CB]-CA--N-[C] |==|  0.51667
USER: genes 10 Torsion [N]-C--CA-[N] |==|  0.41779
USER: genes 11 Torsion [C]-CA--CB-[CG] |==|  0.21452
USER: genes 12 Torsion [CA]-CB--CG-[OD1] |==|  0.23616
ROOT
ATOM      1  CA  TRP J 605      -3.466  19.419  67.727  1.00 71.61 LIG 0.18  C 
ENDROOT
BRANCH 1 2
ATOM      2  CB  TRP J 605      -1.984  19.679  67.429  1.00 65.14 LIG 0.07  C 
BRANCH 2 3
ATOM      3  CG  TRP J 605      -1.049  18.702  68.078  1.00 62.37 LIG-0.03  A 
ATOM      4  CD2 TRP J 605      -0.852  18.509  69.483  1.00 57.80 LIG-0.00  A 
ATOM      5  CE3 TRP J 605      -1.391  19.103  70.630  1.00 58.94 LIG 0.01  A 
ATOM      6  CE2 TRP J 605       0.107  17.488  69.635  1.00 56.30 LIG 0.04  A 
ATOM      7  CZ3 TRP J 605      -0.962  18.664  71.869  1.00 59.47 LIG 0.00  A 
ATOM      8  CH2 TRP J 605      -0.007  17.647  71.987  1.00 55.92 LIG 0.00  A 
ATOM      9  CZ2 TRP J 605       0.537  17.048  70.885  1.00 56.02 LIG 0.03  A 
ATOM     10  NE1 TRP J 605       0.472  17.078  68.380  1.00 57.88 LIG-0.36  N 
ATOM     11  CD1 TRP J 605      -0.227  17.809  67.452  1.00 63.10 LIG 0.10  A 
ATOM     12 HE1  TRP J 605       1.046  16.462  68.202  1.00 57.88 LIG 0.17  HD
ENDBRANCH 2 3
ENDBRANCH 1 2
BRANCH 1 13
ATOM     13  C   TRP J 605      -4.083  20.644  68.404  1.00 60.32 LIG 0.24  C 
ATOM     14  N   ASN J 606      -3.487  21.049  69.523  1.00 74.38 LIG-0.34  N 
ATOM     15 H    ASN J 606      -2.840  20.619  69.893  1.00 74.38 LIG 0.16  HD
ATOM     16 O    TRP J 605      -5.067  21.204  67.919  1.00 56.87 LIG-0.27  OA
BRANCH 14 17
ATOM     17  CA  ASN J 606      -3.869  22.268  70.240  1.00 65.98 LIG 0.19  C 
BRANCH 17 18
ATOM     18  C   ASN J 606      -3.696  23.548  69.427  1.00 66.37 LIG 0.20  C 
ATOM     19 O    ASN J 606      -3.273  24.578  69.948  1.00 70.67 LIG-0.65  OA
ATOM     20 OXT  ASN J 606      -3.964  23.572  68.225  1.00 61.82 LIG-0.65  OA
ENDBRANCH 17 18
BRANCH 17 21
ATOM     21  CB  ASN J 606      -3.079  22.374  71.545  1.00 63.43 LIG 0.14  C 
BRANCH 21 22
ATOM     22  CG  ASN J 606      -1.592  22.575  71.309  1.00 67.06 LIG 0.22  C 
ATOM     23  ND2 ASN J 606      -0.956  23.358  72.172  1.00 58.48 LIG-0.37  N 
ATOM     24 22HD ASN J 606      -1.388  23.720  72.823  1.00 58.48 LIG 0.16  HD
ATOM     25 21HD ASN J 606      -0.114  23.504  72.081  1.00 58.48 LIG 0.16  HD
ATOM     26 OD1  ASN J 606      -1.024  22.033  70.361  1.00 73.16 LIG-0.27  OA
ENDBRANCH 21 22
ENDBRANCH 17 21
ENDBRANCH 14 17
ENDBRANCH 1 13
BRANCH 1 27
ATOM     27  N   TRP J 605      -4.170  19.020  66.506  1.00 80.26 LIG-0.34  N 
ATOM     28  C   ASP J 604      -5.489  18.844  66.443  1.00 69.06 LIG 0.26  C 
ATOM     29 O    ASP J 604      -6.236  18.944  67.417  1.00 67.02 LIG-0.27  OA
ATOM     30 H    TRP J 605      -3.651  18.910  65.829  1.00 80.26 LIG 0.16  HD
BRANCH 28 31
ATOM     31  CA  ASP J 604      -6.054  18.497  65.067  1.00 80.57 LIG 0.41  C 
ATOM     32  N   ASP J 604      -7.256  17.680  65.194  1.00 92.85 LIG 0.61  N 
BRANCH 31 33
ATOM     33  CB  ASP J 604      -6.355  19.770  64.275  1.00 75.75 LIG 0.16  C 
BRANCH 33 34
ATOM     34  CG  ASP J 604      -5.106  20.408  63.695  1.00 69.63 LIG 0.17  C 
ATOM     35 OD1  ASP J 604      -4.680  19.996  62.596  1.00 75.49 LIG-0.65  OA
ATOM     36 OD2  ASP J 604      -4.554  21.325  64.338  1.00 69.41 LIG-0.65  OA
ENDBRANCH 33 34
ENDBRANCH 31 33
ENDBRANCH 28 31
ENDBRANCH 1 27
TORSDOF 11
ENDMDL
MODEL 90
USER: ADFR SOLUTION from run 56
USER: SCORE 12.221072 LL:  -2.332 LR: -11.169 RR:   0.000 FEB:  -7.888
USER: RMSD 4.820626
USER: SEED 55
USER: STATUS no improvement in best in 8 clusters for 5 generations
USER: GENES 13
USER: genes 0 Translation |==|  0.44567 0.53159 0.50409
USER: genes 1 Rotation |==|  0.59745 0.08004 0.28579 0.63508
USER: genes 2 Torsion [C]-CA--CB-[CG] |==|  0.46730
USER: genes 3 Torsion [CA]-CB--CG-[CD2] |==|  0.71761
USER: genes 4 Torsion [N]-CA--C-[N] |==|  0.89602
USER: genes 5 Torsion [C]-N--CA-[CB] |==|  0.51258
USER: genes 6 Torsion [N]-CA--C-[O] |==|  0.34844
USER: genes 7 Torsion [N]-CA--CB-[CG] |==|  0.11280
USER: genes 8 Torsion [CA]-CB--CG-[ND2] |==|  0.22817
USER: genes 9 Torsion [CB]-CA--N-[C] |==|  0.36218
USER: genes 10 Torsion [N]-C--CA-[N] |==|  0.30797
USER: genes 11 Torsion [C]-CA--CB-[CG] |==|  0.70684
USER: genes 12 Torsion [CA]-CB--CG-[OD1] |==|  0.78071
ROOT
ATOM      1  CA  TRP J 605      -4.147  21.622  70.558  1.00 71.61 LIG 0.18  C 
ENDROOT
BRANCH 1 2
ATOM      2  CB  TRP J 605      -4.240  23.144  70.715  1.00 65.14 LIG 0.07  C 
BRANCH 2 3
ATOM      3  CG  TRP J 605      -3.610  23.669  71.971  1.00 62.37 LIG-0.03  A 
ATOM      4  CD2 TRP J 605      -4.288  24.070  73.167  1.00 57.80 LIG-0.00  A 
ATOM      5  CE3 TRP J 605      -5.632  24.122  73.550  1.00 58.94 LIG 0.01  A 
ATOM      6  CE2 TRP J 605      -3.304  24.485  74.087  1.00 56.30 LIG 0.04  A 
ATOM      7  CZ3 TRP J 605      -5.945  24.578  74.817  1.00 59.47 LIG 0.00  A 
ATOM      8  CH2 TRP J 605      -4.943  24.983  75.709  1.00 55.92 LIG 0.00  A 
ATOM      9  CZ2 TRP J 605      -3.621  24.944  75.363  1.00 56.02 LIG 0.03  A 
ATOM     10  NE1 TRP J 605      -2.085  24.338  73.477  1.00 57.88 LIG-0.36  N 
ATOM     11  CD1 TRP J 605      -2.277  23.848  72.210  1.00 63.10 LIG 0.10  A 
ATOM     12 HE1  TRP J 605      -1.323  24.524  73.831  1.00 57.88 LIG 0.17  HD
ENDBRANCH 2 3
ENDBRANCH 1 2
BRANCH 1 13
ATOM     13  C   TRP J 605      -5.058  21.159  69.419  1.00 60.32 LIG 0.24  C 
ATOM     14  N   ASN J 606      -4.522  21.189  68.201  1.00 74.38 LIG-0.34  N 
ATOM     15 H    ASN J 606      -3.741  21.512  68.039  1.00 74.38 LIG 0.16  HD
ATOM     16 O    TRP J 605      -6.208  20.783  69.644  1.00 56.87 LIG-0.27  OA
BRANCH 14 17
ATOM     17  CA  ASN J 606      -5.205  20.677  67.011  1.00 65.98 LIG 0.19  C 
BRANCH 17 18
ATOM     18  C   ASN J 606      -5.730  19.252  67.160  1.00 66.37 LIG 0.20  C 
ATOM     19 O    ASN J 606      -6.911  18.985  66.949  1.00 70.67 LIG-0.65  OA
ATOM     20 OXT  ASN J 606      -4.976  18.333  67.484  1.00 61.82 LIG-0.65  OA
ENDBRANCH 17 18
BRANCH 17 21
ATOM     21  CB  ASN J 606      -4.274  20.760  65.801  1.00 63.43 LIG 0.14  C 
BRANCH 21 22
ATOM     22  CG  ASN J 606      -2.845  20.370  66.138  1.00 67.06 LIG 0.22  C 
ATOM     23  ND2 ASN J 606      -2.575  19.070  66.160  1.00 58.48 LIG-0.37  N 
ATOM     24 22HD ASN J 606      -3.195  18.499  65.987  1.00 58.48 LIG 0.16  HD
ATOM     25 21HD ASN J 606      -1.781  18.800  66.347  1.00 58.48 LIG 0.16  HD
ATOM     26 OD1  ASN J 606      -1.997  21.229  66.377  1.00 73.16 LIG-0.27  OA
ENDBRANCH 21 22
ENDBRANCH 17 21
ENDBRANCH 14 17
ENDBRANCH 1 13
BRANCH 1 27
ATOM     27  N   TRP J 605      -2.752  21.210  70.383  1.00 80.26 LIG-0.34  N 
ATOM     28  C   ASP J 604      -2.179  20.235  71.087  1.00 69.06 LIG 0.26  C 
ATOM     29 O    ASP J 604      -2.750  19.623  71.991  1.00 67.02 LIG-0.27  OA
ATOM     30 H    TRP J 605      -2.335  21.659  69.779  1.00 80.26 LIG 0.16  HD
BRANCH 28 31
ATOM     31  CA  ASP J 604      -0.736  19.900  70.715  1.00 80.57 LIG 0.41  C 
ATOM     32  N   ASP J 604       0.176  20.300  71.781  1.00 92.85 LIG 0.61  N 
BRANCH 31 33
ATOM     33  CB  ASP J 604      -0.592  18.406  70.422  1.00 75.75 LIG 0.16  C 
BRANCH 33 34
ATOM     34  CG  ASP J 604       0.109  17.655  71.538  1.00 69.63 LIG 0.17  C 
ATOM     35 OD1  ASP J 604       1.354  17.723  71.613  1.00 75.49 LIG-0.65  OA
ATOM     36 OD2  ASP J 604      -0.585  16.999  72.342  1.00 69.41 LIG-0.65  OA
ENDBRANCH 33 34
ENDBRANCH 31 33
ENDBRANCH 28 31
ENDBRANCH 1 27
TORSDOF 11
ENDMDL
MODEL 91
USER: ADFR SOLUTION from run 119
USER: SCORE 12.825055 LL:  -2.309 LR: -11.166 RR:   0.000 FEB:  -7.885
USER: RMSD 4.816898
USER: SEED 118
USER: STATUS no improvement in best in 13 clusters for 5 generations
USER: GENES 13
USER: genes 0 Translation |==|  0.51489 0.31677 0.38568
USER: genes 1 Rotation |==|  0.19215 0.70269 0.24735 0.72431
USER: genes 2 Torsion [C]-CA--CB-[CG] |==|  0.63884
USER: genes 3 Torsion [CA]-CB--CG-[CD2] |==|  0.23397
USER: genes 4 Torsion [N]-CA--C-[N] |==|  0.75805
USER: genes 5 Torsion [C]-N--CA-[CB] |==|  0.73093
USER: genes 6 Torsion [N]-CA--C-[O] |==|  0.77439
USER: genes 7 Torsion [N]-CA--CB-[CG] |==|  0.77962
USER: genes 8 Torsion [CA]-CB--CG-[ND2] |==|  0.64118
USER: genes 9 Torsion [CB]-CA--N-[C] |==|  0.69284
USER: genes 10 Torsion [N]-C--CA-[N] |==|  0.57655
USER: genes 11 Torsion [C]-CA--CB-[CG] |==|  0.64539
USER: genes 12 Torsion [CA]-CB--CG-[OD1] |==|  0.14676
ROOT
ATOM      1  CA  TRP J 605      -2.953  18.238  68.516  1.00 71.61 LIG 0.18  C 
ENDROOT
BRANCH 1 2
ATOM      2  CB  TRP J 605      -2.212  18.803  67.298  1.00 65.14 LIG 0.07  C 
BRANCH 2 3
ATOM      3  CG  TRP J 605      -2.870  20.004  66.685  1.00 62.37 LIG-0.03  A 
ATOM      4  CD2 TRP J 605      -2.723  21.366  67.100  1.00 57.80 LIG-0.00  A 
ATOM      5  CE3 TRP J 605      -2.003  21.999  68.119  1.00 58.94 LIG 0.01  A 
ATOM      6  CE2 TRP J 605      -3.512  22.154  66.238  1.00 56.30 LIG 0.04  A 
ATOM      7  CZ3 TRP J 605      -2.092  23.373  68.242  1.00 59.47 LIG 0.00  A 
ATOM      8  CH2 TRP J 605      -2.885  24.128  67.368  1.00 55.92 LIG 0.00  A 
ATOM      9  CZ2 TRP J 605      -3.600  23.539  66.363  1.00 56.02 LIG 0.03  A 
ATOM     10  NE1 TRP J 605      -4.107  21.308  65.339  1.00 57.88 LIG-0.36  N 
ATOM     11  CD1 TRP J 605      -3.716  20.021  65.613  1.00 63.10 LIG 0.10  A 
ATOM     12 HE1  TRP J 605      -4.640  21.544  64.706  1.00 57.88 LIG 0.17  HD
ENDBRANCH 2 3
ENDBRANCH 1 2
BRANCH 1 13
ATOM     13  C   TRP J 605      -1.975  18.046  69.677  1.00 60.32 LIG 0.24  C 
ATOM     14  N   ASN J 606      -1.027  18.973  69.795  1.00 74.38 LIG-0.34  N 
ATOM     15 H    ASN J 606      -0.914  19.605  69.222  1.00 74.38 LIG 0.16  HD
ATOM     16 O    TRP J 605      -2.085  17.088  70.442  1.00 56.87 LIG-0.27  OA
BRANCH 14 17
ATOM     17  CA  ASN J 606      -0.079  19.013  70.910  1.00 65.98 LIG 0.19  C 
BRANCH 17 18
ATOM     18  C   ASN J 606       0.190  17.654  71.547  1.00 66.37 LIG 0.20  C 
ATOM     19 O    ASN J 606      -0.585  17.174  72.372  1.00 70.67 LIG-0.65  OA
ATOM     20 OXT  ASN J 606       1.187  16.999  71.238  1.00 61.82 LIG-0.65  OA
ENDBRANCH 17 18
BRANCH 17 21
ATOM     21  CB  ASN J 606      -0.569  19.995  71.975  1.00 63.43 LIG 0.14  C 
BRANCH 21 22
ATOM     22  CG  ASN J 606      -0.275  21.441  71.612  1.00 67.06 LIG 0.22  C 
ATOM     23  ND2 ASN J 606       0.333  22.172  72.538  1.00 58.48 LIG-0.37  N 
ATOM     24 22HD ASN J 606       0.540  21.822  73.296  1.00 58.48 LIG 0.16  HD
ATOM     25 21HD ASN J 606       0.520  22.997  72.380  1.00 58.48 LIG 0.16  HD
ATOM     26 OD1  ASN J 606      -0.593  21.892  70.511  1.00 73.16 LIG-0.27  OA
ENDBRANCH 21 22
ENDBRANCH 17 21
ENDBRANCH 14 17
ENDBRANCH 1 13
BRANCH 1 27
ATOM     27  N   TRP J 605      -4.094  19.090  68.860  1.00 80.26 LIG-0.34  N 
ATOM     28  C   ASP J 604      -4.145  19.840  69.960  1.00 69.06 LIG 0.26  C 
ATOM     29 O    ASP J 604      -3.264  19.847  70.821  1.00 67.02 LIG-0.27  OA
ATOM     30 H    TRP J 605      -4.731  19.061  68.283  1.00 80.26 LIG 0.16  HD
BRANCH 28 31
ATOM     31  CA  ASP J 604      -5.387  20.716  70.116  1.00 80.57 LIG 0.41  C 
ATOM     32  N   ASP J 604      -5.085  21.900  70.914  1.00 92.85 LIG 0.61  N 
BRANCH 31 33
ATOM     33  CB  ASP J 604      -5.932  21.122  68.745  1.00 75.75 LIG 0.16  C 
BRANCH 33 34
ATOM     34  CG  ASP J 604      -6.128  22.620  68.612  1.00 69.63 LIG 0.17  C 
ATOM     35 OD1  ASP J 604      -5.168  23.374  68.879  1.00 75.49 LIG-0.65  OA
ATOM     36 OD2  ASP J 604      -7.241  23.044  68.238  1.00 69.41 LIG-0.65  OA
ENDBRANCH 33 34
ENDBRANCH 31 33
ENDBRANCH 28 31
ENDBRANCH 1 27
TORSDOF 11
ENDMDL
MODEL 92
USER: ADFR SOLUTION from run 152
USER: SCORE 12.291518 LL:  -1.993 LR: -11.162 RR:   0.000 FEB:  -7.881
USER: RMSD 7.550876
USER: SEED 151
USER: STATUS no improvement in best in 11 clusters for 5 generations
USER: GENES 13
USER: genes 0 Translation |==|  0.51093 0.40746 0.33411
USER: genes 1 Rotation |==|  0.22876 0.68116 0.85921 0.62075
USER: genes 2 Torsion [C]-CA--CB-[CG] |==|  0.21449
USER: genes 3 Torsion [CA]-CB--CG-[CD2] |==|  0.10823
USER: genes 4 Torsion [N]-CA--C-[N] |==|  0.55289
USER: genes 5 Torsion [C]-N--CA-[CB] |==|  0.41710
USER: genes 6 Torsion [N]-CA--C-[O] |==|  0.96502
USER: genes 7 Torsion [N]-CA--CB-[CG] |==|  0.26401
USER: genes 8 Torsion [CA]-CB--CG-[ND2] |==|  0.77078
USER: genes 9 Torsion [CB]-CA--N-[C] |==|  0.15802
USER: genes 10 Torsion [N]-C--CA-[N] |==|  0.89026
USER: genes 11 Torsion [C]-CA--CB-[CG] |==|  0.14541
USER: genes 12 Torsion [CA]-CB--CG-[OD1] |==|  0.70827
ROOT
ATOM      1  CA  TRP J 605      -3.021  19.667  67.626  1.00 71.61 LIG 0.18  C 
ENDROOT
BRANCH 1 2
ATOM      2  CB  TRP J 605      -4.089  19.806  68.718  1.00 65.14 LIG 0.07  C 
BRANCH 2 3
ATOM      3  CG  TRP J 605      -5.498  19.733  68.209  1.00 62.37 LIG-0.03  A 
ATOM      4  CD2 TRP J 605      -5.993  18.867  67.181  1.00 57.80 LIG-0.00  A 
ATOM      5  CE3 TRP J 605      -5.407  17.895  66.364  1.00 58.94 LIG 0.01  A 
ATOM      6  CE2 TRP J 605      -7.370  19.132  67.038  1.00 56.30 LIG 0.04  A 
ATOM      7  CZ3 TRP J 605      -6.200  17.230  65.448  1.00 59.47 LIG 0.00  A 
ATOM      8  CH2 TRP J 605      -7.566  17.517  65.330  1.00 55.92 LIG 0.00  A 
ATOM      9  CZ2 TRP J 605      -8.168  18.461  66.114  1.00 56.02 LIG 0.03  A 
ATOM     10  NE1 TRP J 605      -7.695  20.111  67.940  1.00 57.88 LIG-0.36  N 
ATOM     11  CD1 TRP J 605      -6.568  20.464  68.639  1.00 63.10 LIG 0.10  A 
ATOM     12 HE1  TRP J 605      -8.478  20.450  68.051  1.00 57.88 LIG 0.17  HD
ENDBRANCH 2 3
ENDBRANCH 1 2
BRANCH 1 13
ATOM     13  C   TRP J 605      -2.894  20.980  66.853  1.00 60.32 LIG 0.24  C 
ATOM     14  N   ASN J 606      -4.030  21.642  66.644  1.00 74.38 LIG-0.34  N 
ATOM     15 H    ASN J 606      -4.802  21.330  66.860  1.00 74.38 LIG 0.16  HD
ATOM     16 O    TRP J 605      -1.796  21.380  66.464  1.00 56.87 LIG-0.27  OA
BRANCH 14 17
ATOM     17  CA  ASN J 606      -4.084  22.968  66.025  1.00 65.98 LIG 0.19  C 
BRANCH 17 18
ATOM     18  C   ASN J 606      -3.900  24.121  67.007  1.00 66.37 LIG 0.20  C 
ATOM     19 O    ASN J 606      -3.954  23.937  68.221  1.00 70.67 LIG-0.65  OA
ATOM     20 OXT  ASN J 606      -3.679  25.264  66.602  1.00 61.82 LIG-0.65  OA
ENDBRANCH 17 18
BRANCH 17 21
ATOM     21  CB  ASN J 606      -5.403  23.138  65.271  1.00 63.43 LIG 0.14  C 
BRANCH 21 22
ATOM     22  CG  ASN J 606      -6.465  23.831  66.106  1.00 67.06 LIG 0.22  C 
ATOM     23  ND2 ASN J 606      -7.145  23.068  66.953  1.00 58.48 LIG-0.37  N 
ATOM     24 22HD ASN J 606      -6.973  22.227  67.008  1.00 58.48 LIG 0.16  HD
ATOM     25 21HD ASN J 606      -7.757  23.414  67.447  1.00 58.48 LIG 0.16  HD
ATOM     26 OD1  ASN J 606      -6.671  25.039  65.988  1.00 73.16 LIG-0.27  OA
ENDBRANCH 21 22
ENDBRANCH 17 21
ENDBRANCH 14 17
ENDBRANCH 1 13
BRANCH 1 27
ATOM     27  N   TRP J 605      -1.754  19.215  68.206  1.00 80.26 LIG-0.34  N 
ATOM     28  C   ASP J 604      -1.628  18.093  68.912  1.00 69.06 LIG 0.26  C 
ATOM     29 O    ASP J 604      -2.573  17.355  69.193  1.00 67.02 LIG-0.27  OA
ATOM     30 H    TRP J 605      -1.095  19.745  68.047  1.00 80.26 LIG 0.16  HD
BRANCH 28 31
ATOM     31  CA  ASP J 604      -0.214  17.750  69.378  1.00 80.57 LIG 0.41  C 
ATOM     32  N   ASP J 604       0.761  18.060  68.337  1.00 92.85 LIG 0.61  N 
BRANCH 31 33
ATOM     33  CB  ASP J 604       0.123  18.503  70.666  1.00 75.75 LIG 0.16  C 
BRANCH 33 34
ATOM     34  CG  ASP J 604      -0.923  18.310  71.748  1.00 69.63 LIG 0.17  C 
ATOM     35 OD1  ASP J 604      -1.711  19.249  71.990  1.00 75.49 LIG-0.65  OA
ATOM     36 OD2  ASP J 604      -0.960  17.219  72.352  1.00 69.41 LIG-0.65  OA
ENDBRANCH 33 34
ENDBRANCH 31 33
ENDBRANCH 28 31
ENDBRANCH 1 27
TORSDOF 11
ENDMDL
MODEL 93
USER: ADFR SOLUTION from run 67
USER: SCORE 12.526897 LL:  -1.923 LR: -11.148 RR:   0.000 FEB:  -7.866
USER: RMSD 6.204217
USER: SEED 66
USER: STATUS no improvement in best in 13 clusters for 5 generations
USER: GENES 13
USER: genes 0 Translation |==|  0.48574 0.56736 0.57065
USER: genes 1 Rotation |==|  0.16826 0.86028 0.43775 0.57920
USER: genes 2 Torsion [C]-CA--CB-[CG] |==|  0.03776
USER: genes 3 Torsion [CA]-CB--CG-[CD2] |==|  0.17323
USER: genes 4 Torsion [N]-CA--C-[N] |==|  0.31667
USER: genes 5 Torsion [C]-N--CA-[CB] |==|  0.16826
USER: genes 6 Torsion [N]-CA--C-[O] |==|  0.72919
USER: genes 7 Torsion [N]-CA--CB-[CG] |==|  0.51955
USER: genes 8 Torsion [CA]-CB--CG-[ND2] |==|  0.27514
USER: genes 9 Torsion [CB]-CA--N-[C] |==|  0.88048
USER: genes 10 Torsion [N]-C--CA-[N] |==|  0.43131
USER: genes 11 Torsion [C]-CA--CB-[CG] |==|  0.13387
USER: genes 12 Torsion [CA]-CB--CG-[OD1] |==|  0.71048
ROOT
ATOM      1  CA  TRP J 605      -3.456  22.185  71.707  1.00 71.61 LIG 0.18  C 
ENDROOT
BRANCH 1 2
ATOM      2  CB  TRP J 605      -3.948  23.031  70.526  1.00 65.14 LIG 0.07  C 
BRANCH 2 3
ATOM      3  CG  TRP J 605      -3.262  22.726  69.227  1.00 62.37 LIG-0.03  A 
ATOM      4  CD2 TRP J 605      -3.282  21.481  68.521  1.00 57.80 LIG-0.00  A 
ATOM      5  CE3 TRP J 605      -3.870  20.235  68.763  1.00 58.94 LIG 0.01  A 
ATOM      6  CE2 TRP J 605      -2.514  21.652  67.351  1.00 56.30 LIG 0.04  A 
ATOM      7  CZ3 TRP J 605      -3.677  19.219  67.846  1.00 59.47 LIG 0.00  A 
ATOM      8  CH2 TRP J 605      -2.909  19.420  66.693  1.00 55.92 LIG 0.00  A 
ATOM      9  CZ2 TRP J 605      -2.322  20.626  66.428  1.00 56.02 LIG 0.03  A 
ATOM     10  NE1 TRP J 605      -2.054  22.943  67.347  1.00 57.88 LIG-0.36  N 
ATOM     11  CD1 TRP J 605      -2.509  23.580  68.474  1.00 63.10 LIG 0.10  A 
ATOM     12 HE1  TRP J 605      -1.561  23.296  66.738  1.00 57.88 LIG 0.17  HD
ENDBRANCH 2 3
ENDBRANCH 1 2
BRANCH 1 13
ATOM     13  C   TRP J 605      -2.154  21.475  71.331  1.00 60.32 LIG 0.24  C 
ATOM     14  N   ASN J 606      -2.171  20.147  71.420  1.00 74.38 LIG-0.34  N 
ATOM     15 H    ASN J 606      -2.839  19.706  71.736  1.00 74.38 LIG 0.16  HD
ATOM     16 O    TRP J 605      -1.168  22.117  70.966  1.00 56.87 LIG-0.27  OA
BRANCH 14 17
ATOM     17  CA  ASN J 606      -1.057  19.299  70.992  1.00 65.98 LIG 0.19  C 
BRANCH 17 18
ATOM     18  C   ASN J 606      -1.338  17.803  71.093  1.00 66.37 LIG 0.20  C 
ATOM     19 O    ASN J 606      -0.958  17.149  72.062  1.00 70.67 LIG-0.65  OA
ATOM     20 OXT  ASN J 606      -1.966  17.220  70.208  1.00 61.82 LIG-0.65  OA
ENDBRANCH 17 18
BRANCH 17 21
ATOM     21  CB  ASN J 606       0.198  19.644  71.796  1.00 63.43 LIG 0.14  C 
BRANCH 21 22
ATOM     22  CG  ASN J 606       1.432  18.921  71.285  1.00 67.06 LIG 0.22  C 
ATOM     23  ND2 ASN J 606       2.238  19.613  70.490  1.00 58.48 LIG-0.37  N 
ATOM     24 22HD ASN J 606       2.049  20.429  70.291  1.00 58.48 LIG 0.16  HD
ATOM     25 21HD ASN J 606       2.949  19.247  70.175  1.00 58.48 LIG 0.16  HD
ATOM     26 OD1  ASN J 606       1.655  17.752  71.603  1.00 73.16 LIG-0.27  OA
ENDBRANCH 21 22
ENDBRANCH 17 21
ENDBRANCH 14 17
ENDBRANCH 1 13
BRANCH 1 27
ATOM     27  N   TRP J 605      -3.334  23.010  72.911  1.00 80.26 LIG-0.34  N 
ATOM     28  C   ASP J 604      -2.808  24.234  72.912  1.00 69.06 LIG 0.26  C 
ATOM     29 O    ASP J 604      -2.323  24.768  71.914  1.00 67.02 LIG-0.27  OA
ATOM     30 H    TRP J 605      -3.635  22.629  73.621  1.00 80.26 LIG 0.16  HD
BRANCH 28 31
ATOM     31  CA  ASP J 604      -2.828  24.970  74.251  1.00 80.57 LIG 0.41  C 
ATOM     32  N   ASP J 604      -1.771  25.974  74.303  1.00 92.85 LIG 0.61  N 
BRANCH 31 33
ATOM     33  CB  ASP J 604      -4.194  25.619  74.484  1.00 75.75 LIG 0.16  C 
BRANCH 33 34
ATOM     34  CG  ASP J 604      -5.346  24.667  74.227  1.00 69.63 LIG 0.17  C 
ATOM     35 OD1  ASP J 604      -6.003  24.796  73.172  1.00 75.49 LIG-0.65  OA
ATOM     36 OD2  ASP J 604      -5.594  23.788  75.079  1.00 69.41 LIG-0.65  OA
ENDBRANCH 33 34
ENDBRANCH 31 33
ENDBRANCH 28 31
ENDBRANCH 1 27
TORSDOF 11
ENDMDL
MODEL 94
USER: ADFR SOLUTION from run 149
USER: SCORE 12.735184 LL:  -1.700 LR: -11.134 RR:   0.000 FEB:  -7.852
USER: RMSD 7.224769
USER: SEED 148
USER: STATUS no improvement in best in 10 clusters for 5 generations
USER: GENES 13
USER: genes 0 Translation |==|  0.56492 0.60383 0.53678
USER: genes 1 Rotation |==|  0.92721 0.51357 0.25955 0.59743
USER: genes 2 Torsion [C]-CA--CB-[CG] |==|  0.24161
USER: genes 3 Torsion [CA]-CB--CG-[CD2] |==|  0.19497
USER: genes 4 Torsion [N]-CA--C-[N] |==|  0.45407
USER: genes 5 Torsion [C]-N--CA-[CB] |==|  0.13915
USER: genes 6 Torsion [N]-CA--C-[O] |==|  0.37180
USER: genes 7 Torsion [N]-CA--CB-[CG] |==|  0.58590
USER: genes 8 Torsion [CA]-CB--CG-[ND2] |==|  0.94135
USER: genes 9 Torsion [CB]-CA--N-[C] |==|  0.81983
USER: genes 10 Torsion [N]-C--CA-[N] |==|  0.21661
USER: genes 11 Torsion [C]-CA--CB-[CG] |==|  0.13566
USER: genes 12 Torsion [CA]-CB--CG-[OD1] |==|  0.16077
ROOT
ATOM      1  CA  TRP J 605      -2.090  22.759  71.122  1.00 71.61 LIG 0.18  C 
ENDROOT
BRANCH 1 2
ATOM      2  CB  TRP J 605      -2.997  21.624  71.613  1.00 65.14 LIG 0.07  C 
BRANCH 2 3
ATOM      3  CG  TRP J 605      -2.710  20.295  70.978  1.00 62.37 LIG-0.03  A 
ATOM      4  CD2 TRP J 605      -1.556  19.475  71.194  1.00 57.80 LIG-0.00  A 
ATOM      5  CE3 TRP J 605      -0.404  19.605  71.975  1.00 58.94 LIG 0.01  A 
ATOM      6  CE2 TRP J 605      -1.712  18.318  70.403  1.00 56.30 LIG 0.04  A 
ATOM      7  CZ3 TRP J 605       0.540  18.595  71.943  1.00 59.47 LIG 0.00  A 
ATOM      8  CH2 TRP J 605       0.356  17.457  71.147  1.00 55.92 LIG 0.00  A 
ATOM      9  CZ2 TRP J 605      -0.760  17.301  70.373  1.00 56.02 LIG 0.03  A 
ATOM     10  NE1 TRP J 605      -2.907  18.431  69.742  1.00 57.88 LIG-0.36  N 
ATOM     11  CD1 TRP J 605      -3.499  19.618  70.094  1.00 63.10 LIG 0.10  A 
ATOM     12 HE1  TRP J 605      -3.232  17.852  69.195  1.00 57.88 LIG 0.17  HD
ENDBRANCH 2 3
ENDBRANCH 1 2
BRANCH 1 13
ATOM     13  C   TRP J 605      -2.685  23.393  69.863  1.00 60.32 LIG 0.24  C 
ATOM     14  N   ASN J 606      -2.604  22.662  68.753  1.00 74.38 LIG-0.34  N 
ATOM     15 H    ASN J 606      -2.185  21.912  68.714  1.00 74.38 LIG 0.16  HD
ATOM     16 O    TRP J 605      -3.204  24.509  69.903  1.00 56.87 LIG-0.27  OA
BRANCH 14 17
ATOM     17  CA  ASN J 606      -3.220  23.058  67.485  1.00 65.98 LIG 0.19  C 
BRANCH 17 18
ATOM     18  C   ASN J 606      -2.874  22.145  66.313  1.00 66.37 LIG 0.20  C 
ATOM     19 O    ASN J 606      -3.744  21.744  65.542  1.00 70.67 LIG-0.65  OA
ATOM     20 OXT  ASN J 606      -1.710  21.799  66.106  1.00 61.82 LIG-0.65  OA
ENDBRANCH 17 18
BRANCH 17 21
ATOM     21  CB  ASN J 606      -2.835  24.499  67.148  1.00 63.43 LIG 0.14  C 
BRANCH 21 22
ATOM     22  CG  ASN J 606      -3.917  25.221  66.363  1.00 67.06 LIG 0.22  C 
ATOM     23  ND2 ASN J 606      -4.791  24.458  65.718  1.00 58.48 LIG-0.37  N 
ATOM     24 22HD ASN J 606      -4.726  23.601  65.760  1.00 58.48 LIG 0.16  HD
ATOM     25 21HD ASN J 606      -5.421  24.820  65.259  1.00 58.48 LIG 0.16  HD
ATOM     26 OD1  ASN J 606      -3.963  26.451  66.337  1.00 73.16 LIG-0.27  OA
ENDBRANCH 21 22
ENDBRANCH 17 21
ENDBRANCH 14 17
ENDBRANCH 1 13
BRANCH 1 27
ATOM     27  N   TRP J 605      -1.857  23.727  72.197  1.00 80.26 LIG-0.34  N 
ATOM     28  C   ASP J 604      -2.819  24.475  72.734  1.00 69.06 LIG 0.26  C 
ATOM     29 O    ASP J 604      -3.986  24.467  72.341  1.00 67.02 LIG-0.27  OA
ATOM     30 H    TRP J 605      -1.036  23.767  72.452  1.00 80.26 LIG 0.16  HD
BRANCH 28 31
ATOM     31  CA  ASP J 604      -2.398  25.377  73.893  1.00 80.57 LIG 0.41  C 
ATOM     32  N   ASP J 604      -1.710  26.565  73.398  1.00 92.85 LIG 0.61  N 
BRANCH 31 33
ATOM     33  CB  ASP J 604      -3.615  25.776  74.730  1.00 75.75 LIG 0.16  C 
BRANCH 33 34
ATOM     34  CG  ASP J 604      -4.484  24.589  75.102  1.00 69.63 LIG 0.17  C 
ATOM     35 OD1  ASP J 604      -3.967  23.647  75.739  1.00 75.49 LIG-0.65  OA
ATOM     36 OD2  ASP J 604      -5.685  24.601  74.761  1.00 69.41 LIG-0.65  OA
ENDBRANCH 33 34
ENDBRANCH 31 33
ENDBRANCH 28 31
ENDBRANCH 1 27
TORSDOF 11
ENDMDL
MODEL 95
USER: ADFR SOLUTION from run 159
USER: SCORE 12.907534 LL:  -1.840 LR: -11.126 RR:   0.000 FEB:  -7.845
USER: RMSD 8.199922
USER: SEED 158
USER: STATUS no improvement in best in 12 clusters for 5 generations
USER: GENES 13
USER: genes 0 Translation |==|  0.31773 0.53180 0.20566
USER: genes 1 Rotation |==|  0.89666 0.38462 0.78169 0.50084
USER: genes 2 Torsion [C]-CA--CB-[CG] |==|  0.40993
USER: genes 3 Torsion [CA]-CB--CG-[CD2] |==|  0.75466
USER: genes 4 Torsion [N]-CA--C-[N] |==|  0.38889
USER: genes 5 Torsion [C]-N--CA-[CB] |==|  0.78468
USER: genes 6 Torsion [N]-CA--C-[O] |==|  0.67783
USER: genes 7 Torsion [N]-CA--CB-[CG] |==|  0.82253
USER: genes 8 Torsion [CA]-CB--CG-[ND2] |==|  0.16153
USER: genes 9 Torsion [CB]-CA--N-[C] |==|  0.85239
USER: genes 10 Torsion [N]-C--CA-[N] |==|  0.03262
USER: genes 11 Torsion [C]-CA--CB-[CG] |==|  0.73657
USER: genes 12 Torsion [CA]-CB--CG-[OD1] |==|  0.11615
ROOT
ATOM      1  CA  TRP J 605      -6.354  21.625  65.411  1.00 71.61 LIG 0.18  C 
ENDROOT
BRANCH 1 2
ATOM      2  CB  TRP J 605      -6.088  20.770  64.165  1.00 65.14 LIG 0.07  C 
BRANCH 2 3
ATOM      3  CG  TRP J 605      -7.050  19.633  63.987  1.00 62.37 LIG-0.03  A 
ATOM      4  CD2 TRP J 605      -6.924  18.313  64.528  1.00 57.80 LIG-0.00  A 
ATOM      5  CE3 TRP J 605      -5.963  17.674  65.318  1.00 58.94 LIG 0.01  A 
ATOM      6  CE2 TRP J 605      -8.057  17.583  64.116  1.00 56.30 LIG 0.04  A 
ATOM      7  CZ3 TRP J 605      -6.160  16.351  65.666  1.00 59.47 LIG 0.00  A 
ATOM      8  CH2 TRP J 605      -7.297  15.652  65.240  1.00 55.92 LIG 0.00  A 
ATOM      9  CZ2 TRP J 605      -8.254  16.249  64.467  1.00 56.02 LIG 0.03  A 
ATOM     10  NE1 TRP J 605      -8.835  18.423  63.363  1.00 57.88 LIG-0.36  N 
ATOM     11  CD1 TRP J 605      -8.225  19.650  63.293  1.00 63.10 LIG 0.10  A 
ATOM     12 HE1  TRP J 605      -9.584  18.215  62.994  1.00 57.88 LIG 0.17  HD
ENDBRANCH 2 3
ENDBRANCH 1 2
BRANCH 1 13
ATOM     13  C   TRP J 605      -5.034  22.164  65.964  1.00 60.32 LIG 0.24  C 
ATOM     14  N   ASN J 606      -4.490  21.460  66.954  1.00 74.38 LIG-0.34  N 
ATOM     15 H    ASN J 606      -4.878  20.784  67.319  1.00 74.38 LIG 0.16  HD
ATOM     16 O    TRP J 605      -4.525  23.185  65.499  1.00 56.87 LIG-0.27  OA
BRANCH 14 17
ATOM     17  CA  ASN J 606      -3.175  21.761  67.525  1.00 65.98 LIG 0.19  C 
BRANCH 17 18
ATOM     18  C   ASN J 606      -2.953  23.240  67.828  1.00 66.37 LIG 0.20  C 
ATOM     19 O    ASN J 606      -2.088  23.886  67.240  1.00 70.67 LIG-0.65  OA
ATOM     20 OXT  ASN J 606      -3.647  23.823  68.662  1.00 61.82 LIG-0.65  OA
ENDBRANCH 17 18
BRANCH 17 21
ATOM     21  CB  ASN J 606      -2.074  21.254  66.593  1.00 63.43 LIG 0.14  C 
BRANCH 21 22
ATOM     22  CG  ASN J 606      -2.089  19.742  66.445  1.00 67.06 LIG 0.22  C 
ATOM     23  ND2 ASN J 606      -3.213  19.202  65.988  1.00 58.48 LIG-0.37  N 
ATOM     24 22HD ASN J 606      -3.883  19.706  65.793  1.00 58.48 LIG 0.16  HD
ATOM     25 21HD ASN J 606      -3.271  18.351  65.888  1.00 58.48 LIG 0.16  HD
ATOM     26 OD1  ASN J 606      -1.101  19.069  66.739  1.00 73.16 LIG-0.27  OA
ENDBRANCH 21 22
ENDBRANCH 17 21
ENDBRANCH 14 17
ENDBRANCH 1 13
BRANCH 1 27
ATOM     27  N   TRP J 605      -7.324  22.680  65.108  1.00 80.26 LIG-0.34  N 
ATOM     28  C   ASP J 604      -7.187  23.536  64.096  1.00 69.06 LIG 0.26  C 
ATOM     29 O    ASP J 604      -6.206  23.558  63.352  1.00 67.02 LIG-0.27  OA
ATOM     30 H    TRP J 605      -7.994  22.696  65.647  1.00 80.26 LIG 0.16  HD
BRANCH 28 31
ATOM     31  CA  ASP J 604      -8.335  24.523  63.894  1.00 80.57 LIG 0.41  C 
ATOM     32  N   ASP J 604      -9.239  24.503  65.039  1.00 92.85 LIG 0.61  N 
BRANCH 31 33
ATOM     33  CB  ASP J 604      -7.793  25.935  63.666  1.00 75.75 LIG 0.16  C 
BRANCH 33 34
ATOM     34  CG  ASP J 604      -7.734  26.753  64.942  1.00 69.63 LIG 0.17  C 
ATOM     35 OD1  ASP J 604      -7.332  26.200  65.988  1.00 75.49 LIG-0.65  OA
ATOM     36 OD2  ASP J 604      -8.086  27.950  64.899  1.00 69.41 LIG-0.65  OA
ENDBRANCH 33 34
ENDBRANCH 31 33
ENDBRANCH 28 31
ENDBRANCH 1 27
TORSDOF 11
ENDMDL
MODEL 96
USER: ADFR SOLUTION from run 109
USER: SCORE 12.429682 LL:  -1.917 LR: -11.111 RR:   0.000 FEB:  -7.830
USER: RMSD 6.494117
USER: SEED 108
USER: STATUS no improvement in best in 8 clusters for 5 generations
USER: GENES 13
USER: genes 0 Translation |==|  0.47565 0.34181 0.40734
USER: genes 1 Rotation |==|  0.82953 0.24190 0.77028 0.54178
USER: genes 2 Torsion [C]-CA--CB-[CG] |==|  0.49673
USER: genes 3 Torsion [CA]-CB--CG-[CD2] |==|  0.63259
USER: genes 4 Torsion [N]-CA--C-[N] |==|  0.01874
USER: genes 5 Torsion [C]-N--CA-[CB] |==|  0.60199
USER: genes 6 Torsion [N]-CA--C-[O] |==|  0.79563
USER: genes 7 Torsion [N]-CA--CB-[CG] |==|  0.82791
USER: genes 8 Torsion [CA]-CB--CG-[ND2] |==|  0.59127
USER: genes 9 Torsion [CB]-CA--N-[C] |==|  0.82221
USER: genes 10 Torsion [N]-C--CA-[N] |==|  0.81298
USER: genes 11 Torsion [C]-CA--CB-[CG] |==|  0.75948
USER: genes 12 Torsion [CA]-CB--CG-[OD1] |==|  0.30702
ROOT
ATOM      1  CA  TRP J 605      -3.630  18.632  68.890  1.00 71.61 LIG 0.18  C 
ENDROOT
BRANCH 1 2
ATOM      2  CB  TRP J 605      -3.730  18.006  67.493  1.00 65.14 LIG 0.07  C 
BRANCH 2 3
ATOM      3  CG  TRP J 605      -4.992  18.349  66.758  1.00 62.37 LIG-0.03  A 
ATOM      4  CD2 TRP J 605      -5.857  17.438  66.071  1.00 57.80 LIG-0.00  A 
ATOM      5  CE3 TRP J 605      -5.835  16.057  65.851  1.00 58.94 LIG 0.01  A 
ATOM      6  CE2 TRP J 605      -6.921  18.193  65.538  1.00 56.30 LIG 0.04  A 
ATOM      7  CZ3 TRP J 605      -6.859  15.484  65.119  1.00 59.47 LIG 0.00  A 
ATOM      8  CH2 TRP J 605      -7.903  16.262  64.602  1.00 55.92 LIG 0.00  A 
ATOM      9  CZ2 TRP J 605      -7.951  17.613  64.801  1.00 56.02 LIG 0.03  A 
ATOM     10  NE1 TRP J 605      -6.712  19.501  65.889  1.00 57.88 LIG-0.36  N 
ATOM     11  CD1 TRP J 605      -5.554  19.585  66.622  1.00 63.10 LIG 0.10  A 
ATOM     12 HE1  TRP J 605      -7.222  20.162  65.683  1.00 57.88 LIG 0.17  HD
ENDBRANCH 2 3
ENDBRANCH 1 2
BRANCH 1 13
ATOM     13  C   TRP J 605      -2.326  18.199  69.562  1.00 60.32 LIG 0.24  C 
ATOM     14  N   ASN J 606      -1.595  19.177  70.094  1.00 74.38 LIG-0.34  N 
ATOM     15 H    ASN J 606      -1.794  20.010  70.010  1.00 74.38 LIG 0.16  HD
ATOM     16 O    TRP J 605      -1.999  17.013  69.600  1.00 56.87 LIG-0.27  OA
BRANCH 14 17
ATOM     17  CA  ASN J 606      -0.380  18.937  70.874  1.00 65.98 LIG 0.19  C 
BRANCH 17 18
ATOM     18  C   ASN J 606      -0.266  17.520  71.428  1.00 66.37 LIG 0.20  C 
ATOM     19 O    ASN J 606      -0.960  17.149  72.372  1.00 70.67 LIG-0.65  OA
ATOM     20 OXT  ASN J 606       0.518  16.711  70.930  1.00 61.82 LIG-0.65  OA
ENDBRANCH 17 18
BRANCH 17 21
ATOM     21  CB  ASN J 606      -0.288  19.948  72.018  1.00 63.43 LIG 0.14  C 
BRANCH 21 22
ATOM     22  CG  ASN J 606      -0.196  21.381  71.522  1.00 67.06 LIG 0.22  C 
ATOM     23  ND2 ASN J 606       0.523  22.218  72.260  1.00 58.48 LIG-0.37  N 
ATOM     24 22HD ASN J 606       0.907  21.938  72.977  1.00 58.48 LIG 0.16  HD
ATOM     25 21HD ASN J 606       0.604  23.040  72.022  1.00 58.48 LIG 0.16  HD
ATOM     26 OD1  ASN J 606      -0.766  21.728  70.488  1.00 73.16 LIG-0.27  OA
ENDBRANCH 21 22
ENDBRANCH 17 21
ENDBRANCH 14 17
ENDBRANCH 1 13
BRANCH 1 27
ATOM     27  N   TRP J 605      -3.779  20.088  68.808  1.00 80.26 LIG-0.34  N 
ATOM     28  C   ASP J 604      -2.918  20.880  68.171  1.00 69.06 LIG 0.26  C 
ATOM     29 O    ASP J 604      -1.886  20.473  67.637  1.00 67.02 LIG-0.27  OA
ATOM     30 H    TRP J 605      -4.478  20.385  69.212  1.00 80.26 LIG 0.16  HD
BRANCH 28 31
ATOM     31  CA  ASP J 604      -3.276  22.364  68.134  1.00 80.57 LIG 0.41  C 
ATOM     32  N   ASP J 604      -4.466  22.587  67.319  1.00 92.85 LIG 0.61  N 
BRANCH 31 33
ATOM     33  CB  ASP J 604      -3.491  22.900  69.551  1.00 75.75 LIG 0.16  C 
BRANCH 33 34
ATOM     34  CG  ASP J 604      -4.912  22.701  70.043  1.00 69.63 LIG 0.17  C 
ATOM     35 OD1  ASP J 604      -5.117  21.873  70.957  1.00 75.49 LIG-0.65  OA
ATOM     36 OD2  ASP J 604      -5.823  23.374  69.519  1.00 69.41 LIG-0.65  OA
ENDBRANCH 33 34
ENDBRANCH 31 33
ENDBRANCH 28 31
ENDBRANCH 1 27
TORSDOF 11
ENDMDL
MODEL 97
USER: ADFR SOLUTION from run 187
USER: SCORE 12.658670 LL:  -1.615 LR: -11.109 RR:   0.000 FEB:  -7.828
USER: RMSD 7.241660
USER: SEED 186
USER: STATUS no improvement in best in 16 clusters for 5 generations
USER: GENES 13
USER: genes 0 Translation |==|  0.45407 0.34997 0.28340
USER: genes 1 Rotation |==|  0.24792 0.43858 0.88342 0.68887
USER: genes 2 Torsion [C]-CA--CB-[CG] |==|  0.23649
USER: genes 3 Torsion [CA]-CB--CG-[CD2] |==|  0.75035
USER: genes 4 Torsion [N]-CA--C-[N] |==|  0.93634
USER: genes 5 Torsion [C]-N--CA-[CB] |==|  0.87907
USER: genes 6 Torsion [N]-CA--C-[O] |==|  0.03957
USER: genes 7 Torsion [N]-CA--CB-[CG] |==|  0.80789
USER: genes 8 Torsion [CA]-CB--CG-[ND2] |==|  0.74995
USER: genes 9 Torsion [CB]-CA--N-[C] |==|  0.84444
USER: genes 10 Torsion [N]-C--CA-[N] |==|  0.98603
USER: genes 11 Torsion [C]-CA--CB-[CG] |==|  0.32159
USER: genes 12 Torsion [CA]-CB--CG-[OD1] |==|  0.36065
ROOT
ATOM      1  CA  TRP J 605      -4.002  18.761  66.752  1.00 71.61 LIG 0.18  C 
ENDROOT
BRANCH 1 2
ATOM      2  CB  TRP J 605      -5.094  17.747  67.113  1.00 65.14 LIG 0.07  C 
BRANCH 2 3
ATOM      3  CG  TRP J 605      -6.260  17.740  66.168  1.00 62.37 LIG-0.03  A 
ATOM      4  CD2 TRP J 605      -7.448  18.531  66.269  1.00 57.80 LIG-0.00  A 
ATOM      5  CE3 TRP J 605      -7.908  19.481  67.187  1.00 58.94 LIG 0.01  A 
ATOM      6  CE2 TRP J 605      -8.262  18.207  65.165  1.00 56.30 LIG 0.04  A 
ATOM      7  CZ3 TRP J 605      -9.142  20.067  66.977  1.00 59.47 LIG 0.00  A 
ATOM      8  CH2 TRP J 605      -9.927  19.723  65.869  1.00 55.92 LIG 0.00  A 
ATOM      9  CZ2 TRP J 605      -9.505  18.799  64.954  1.00 56.02 LIG 0.03  A 
ATOM     10  NE1 TRP J 605      -7.595  17.265  64.426  1.00 57.88 LIG-0.36  N 
ATOM     11  CD1 TRP J 605      -6.394  16.992  65.034  1.00 63.10 LIG 0.10  A 
ATOM     12 HE1  TRP J 605      -7.881  16.903  63.701  1.00 57.88 LIG 0.17  HD
ENDBRANCH 2 3
ENDBRANCH 1 2
BRANCH 1 13
ATOM     13  C   TRP J 605      -4.353  20.132  67.334  1.00 60.32 LIG 0.24  C 
ATOM     14  N   ASN J 606      -3.715  20.466  68.454  1.00 74.38 LIG-0.34  N 
ATOM     15 H    ASN J 606      -3.191  19.928  68.874  1.00 74.38 LIG 0.16  HD
ATOM     16 O    TRP J 605      -5.173  20.863  66.778  1.00 56.87 LIG-0.27  OA
BRANCH 14 17
ATOM     17  CA  ASN J 606      -3.839  21.781  69.086  1.00 65.98 LIG 0.19  C 
BRANCH 17 18
ATOM     18  C   ASN J 606      -5.103  21.952  69.924  1.00 66.37 LIG 0.20  C 
ATOM     19 O    ASN J 606      -5.786  20.983  70.249  1.00 70.67 LIG-0.65  OA
ATOM     20 OXT  ASN J 606      -5.459  23.068  70.305  1.00 61.82 LIG-0.65  OA
ENDBRANCH 17 18
BRANCH 17 21
ATOM     21  CB  ASN J 606      -3.772  22.878  68.023  1.00 63.43 LIG 0.14  C 
BRANCH 21 22
ATOM     22  CG  ASN J 606      -2.390  23.003  67.404  1.00 67.06 LIG 0.22  C 
ATOM     23  ND2 ASN J 606      -1.549  23.842  67.996  1.00 58.48 LIG-0.37  N 
ATOM     24 22HD ASN J 606      -1.799  24.280  68.694  1.00 58.48 LIG 0.16  HD
ATOM     25 21HD ASN J 606      -0.756  23.949  67.683  1.00 58.48 LIG 0.16  HD
ATOM     26 OD1  ASN J 606      -2.086  22.353  66.404  1.00 73.16 LIG-0.27  OA
ENDBRANCH 21 22
ENDBRANCH 17 21
ENDBRANCH 14 17
ENDBRANCH 1 13
BRANCH 1 27
ATOM     27  N   TRP J 605      -2.690  18.273  67.181  1.00 80.26 LIG-0.34  N 
ATOM     28  C   ASP J 604      -2.409  17.925  68.436  1.00 69.06 LIG 0.26  C 
ATOM     29 O    ASP J 604      -3.209  18.032  69.366  1.00 67.02 LIG-0.27  OA
ATOM     30 H    TRP J 605      -2.113  18.231  66.544  1.00 80.26 LIG 0.16  HD
BRANCH 28 31
ATOM     31  CA  ASP J 604      -1.006  17.373  68.680  1.00 80.57 LIG 0.41  C 
ATOM     32  N   ASP J 604      -0.282  17.231  67.422  1.00 92.85 LIG 0.61  N 
BRANCH 31 33
ATOM     33  CB  ASP J 604      -0.234  18.278  69.642  1.00 75.75 LIG 0.16  C 
BRANCH 33 34
ATOM     34  CG  ASP J 604       0.110  17.587  70.948  1.00 69.63 LIG 0.17  C 
ATOM     35 OD1  ASP J 604       1.290  17.634  71.355  1.00 75.49 LIG-0.65  OA
ATOM     36 OD2  ASP J 604      -0.801  17.001  71.569  1.00 69.41 LIG-0.65  OA
ENDBRANCH 33 34
ENDBRANCH 31 33
ENDBRANCH 28 31
ENDBRANCH 1 27
TORSDOF 11
ENDMDL
MODEL 98
USER: ADFR SOLUTION from run 191
USER: SCORE 13.215042 LL:  -2.212 LR: -11.112 RR:   0.000 FEB:  -7.831
USER: RMSD 6.191959
USER: SEED 190
USER: STATUS no improvement in best in 23 clusters for 5 generations
USER: GENES 13
USER: genes 0 Translation |==|  0.43691 0.51573 0.48949
USER: genes 1 Rotation |==|  0.49789 0.86493 0.84167 0.50907
USER: genes 2 Torsion [C]-CA--CB-[CG] |==|  0.79692
USER: genes 3 Torsion [CA]-CB--CG-[CD2] |==|  0.71305
USER: genes 4 Torsion [N]-CA--C-[N] |==|  0.14444
USER: genes 5 Torsion [C]-N--CA-[CB] |==|  0.54764
USER: genes 6 Torsion [N]-CA--C-[O] |==|  0.36420
USER: genes 7 Torsion [N]-CA--CB-[CG] |==|  0.08517
USER: genes 8 Torsion [CA]-CB--CG-[ND2] |==|  0.11539
USER: genes 9 Torsion [CB]-CA--N-[C] |==|  0.15547
USER: genes 10 Torsion [N]-C--CA-[N] |==|  0.96809
USER: genes 11 Torsion [C]-CA--CB-[CG] |==|  0.29400
USER: genes 12 Torsion [CA]-CB--CG-[OD1] |==|  0.47787
ROOT
ATOM      1  CA  TRP J 605      -4.298  21.372  70.307  1.00 71.61 LIG 0.18  C 
ENDROOT
BRANCH 1 2
ATOM      2  CB  TRP J 605      -3.576  22.338  71.254  1.00 65.14 LIG 0.07  C 
BRANCH 2 3
ATOM      3  CG  TRP J 605      -2.270  22.851  70.724  1.00 62.37 LIG-0.03  A 
ATOM      4  CD2 TRP J 605      -0.960  22.425  71.116  1.00 57.80 LIG-0.00  A 
ATOM      5  CE3 TRP J 605      -0.479  21.491  72.038  1.00 58.94 LIG 0.01  A 
ATOM      6  CE2 TRP J 605      -0.034  23.167  70.356  1.00 56.30 LIG 0.04  A 
ATOM      7  CZ3 TRP J 605       0.888  21.329  72.169  1.00 59.47 LIG 0.00  A 
ATOM      8  CH2 TRP J 605       1.784  22.082  71.399  1.00 55.92 LIG 0.00  A 
ATOM      9  CZ2 TRP J 605       1.343  23.003  70.489  1.00 56.02 LIG 0.03  A 
ATOM     10  NE1 TRP J 605      -0.750  24.002  69.538  1.00 57.88 LIG-0.36  N 
ATOM     11  CD1 TRP J 605      -2.089  23.805  69.764  1.00 63.10 LIG 0.10  A 
ATOM     12 HE1  TRP J 605      -0.414  24.559  68.975  1.00 57.88 LIG 0.17  HD
ENDBRANCH 2 3
ENDBRANCH 1 2
BRANCH 1 13
ATOM     13  C   TRP J 605      -4.886  22.144  69.124  1.00 60.32 LIG 0.24  C 
ATOM     14  N   ASN J 606      -5.468  21.406  68.181  1.00 74.38 LIG-0.34  N 
ATOM     15 H    ASN J 606      -5.459  20.546  68.186  1.00 74.38 LIG 0.16  HD
ATOM     16 O    TRP J 605      -4.816  23.373  69.076  1.00 56.87 LIG-0.27  OA
BRANCH 14 17
ATOM     17  CA  ASN J 606      -6.182  21.980  67.039  1.00 65.98 LIG 0.19  C 
BRANCH 17 18
ATOM     18  C   ASN J 606      -7.013  23.214  67.381  1.00 66.37 LIG 0.20  C 
ATOM     19 O    ASN J 606      -6.936  24.238  66.706  1.00 70.67 LIG-0.65  OA
ATOM     20 OXT  ASN J 606      -7.791  23.204  68.336  1.00 61.82 LIG-0.65  OA
ENDBRANCH 17 18
BRANCH 17 21
ATOM     21  CB  ASN J 606      -7.074  20.919  66.396  1.00 63.43 LIG 0.14  C 
BRANCH 21 22
ATOM     22  CG  ASN J 606      -7.581  19.898  67.401  1.00 67.06 LIG 0.22  C 
ATOM     23  ND2 ASN J 606      -7.972  20.369  68.578  1.00 58.48 LIG-0.37  N 
ATOM     24 22HD ASN J 606      -7.931  21.214  68.738  1.00 58.48 LIG 0.16  HD
ATOM     25 21HD ASN J 606      -8.265  19.831  69.181  1.00 58.48 LIG 0.16  HD
ATOM     26 OD1  ASN J 606      -7.617  18.700  67.119  1.00 73.16 LIG-0.27  OA
ENDBRANCH 21 22
ENDBRANCH 17 21
ENDBRANCH 14 17
ENDBRANCH 1 13
BRANCH 1 27
ATOM     27  N   TRP J 605      -3.399  20.291  69.897  1.00 80.26 LIG-0.34  N 
ATOM     28  C   ASP J 604      -2.768  19.494  70.758  1.00 69.06 LIG 0.26  C 
ATOM     29 O    ASP J 604      -2.836  19.624  71.981  1.00 67.02 LIG-0.27  OA
ATOM     30 H    TRP J 605      -3.315  20.218  69.044  1.00 80.26 LIG 0.16  HD
BRANCH 28 31
ATOM     31  CA  ASP J 604      -1.925  18.378  70.144  1.00 80.57 LIG 0.41  C 
ATOM     32  N   ASP J 604      -2.201  18.249  68.717  1.00 92.85 LIG 0.61  N 
BRANCH 31 33
ATOM     33  CB  ASP J 604      -0.436  18.640  70.378  1.00 75.75 LIG 0.16  C 
BRANCH 33 34
ATOM     34  CG  ASP J 604       0.159  17.734  71.440  1.00 69.63 LIG 0.17  C 
ATOM     35 OD1  ASP J 604       1.396  17.749  71.612  1.00 75.49 LIG-0.65  OA
ATOM     36 OD2  ASP J 604      -0.612  17.011  72.104  1.00 69.41 LIG-0.65  OA
ENDBRANCH 33 34
ENDBRANCH 31 33
ENDBRANCH 28 31
ENDBRANCH 1 27
TORSDOF 11
ENDMDL
MODEL 99
USER: ADFR SOLUTION from run 147
USER: SCORE 12.566395 LL:  -2.046 LR: -11.094 RR:   0.000 FEB:  -7.813
USER: RMSD 5.562280
USER: SEED 146
USER: STATUS no improvement in best in 4 clusters for 5 generations
USER: GENES 13
USER: genes 0 Translation |==|  0.48039 0.38542 0.42044
USER: genes 1 Rotation |==|  0.35293 0.71651 0.92331 0.54794
USER: genes 2 Torsion [C]-CA--CB-[CG] |==|  0.81833
USER: genes 3 Torsion [CA]-CB--CG-[CD2] |==|  0.29067
USER: genes 4 Torsion [N]-CA--C-[N] |==|  0.96667
USER: genes 5 Torsion [C]-N--CA-[CB] |==|  0.85669
USER: genes 6 Torsion [N]-CA--C-[O] |==|  0.46449
USER: genes 7 Torsion [N]-CA--CB-[CG] |==|  0.32984
USER: genes 8 Torsion [CA]-CB--CG-[ND2] |==|  0.26470
USER: genes 9 Torsion [CB]-CA--N-[C] |==|  0.22409
USER: genes 10 Torsion [N]-C--CA-[N] |==|  0.83925
USER: genes 11 Torsion [C]-CA--CB-[CG] |==|  0.18230
USER: genes 12 Torsion [CA]-CB--CG-[OD1] |==|  0.42548
ROOT
ATOM      1  CA  TRP J 605      -3.548  19.319  69.116  1.00 71.61 LIG 0.18  C 
ENDROOT
BRANCH 1 2
ATOM      2  CB  TRP J 605      -3.747  19.513  70.624  1.00 65.14 LIG 0.07  C 
BRANCH 2 3
ATOM      3  CG  TRP J 605      -2.845  20.547  71.231  1.00 62.37 LIG-0.03  A 
ATOM      4  CD2 TRP J 605      -3.211  21.870  71.637  1.00 57.80 LIG-0.00  A 
ATOM      5  CE3 TRP J 605      -4.403  22.600  71.607  1.00 58.94 LIG 0.01  A 
ATOM      6  CE2 TRP J 605      -2.054  22.482  72.160  1.00 56.30 LIG 0.04  A 
ATOM      7  CZ3 TRP J 605      -4.403  23.895  72.092  1.00 59.47 LIG 0.00  A 
ATOM      8  CH2 TRP J 605      -3.236  24.475  72.606  1.00 55.92 LIG 0.00  A 
ATOM      9  CZ2 TRP J 605      -2.055  23.787  72.649  1.00 56.02 LIG 0.03  A 
ATOM     10  NE1 TRP J 605      -1.035  21.570  72.078  1.00 57.88 LIG-0.36  N 
ATOM     11  CD1 TRP J 605      -1.518  20.412  71.522  1.00 63.10 LIG 0.10  A 
ATOM     12 HE1  TRP J 605      -0.224  21.702  72.333  1.00 57.88 LIG 0.17  HD
ENDBRANCH 2 3
ENDBRANCH 1 2
BRANCH 1 13
ATOM     13  C   TRP J 605      -3.950  20.594  68.370  1.00 60.32 LIG 0.24  C 
ATOM     14  N   ASN J 606      -2.956  21.262  67.788  1.00 74.38 LIG-0.34  N 
ATOM     15 H    ASN J 606      -2.129  21.044  67.876  1.00 74.38 LIG 0.16  HD
ATOM     16 O    TRP J 605      -5.127  20.953  68.323  1.00 56.87 LIG-0.27  OA
BRANCH 14 17
ATOM     17  CA  ASN J 606      -3.168  22.435  66.939  1.00 65.98 LIG 0.19  C 
BRANCH 17 18
ATOM     18  C   ASN J 606      -3.586  23.689  67.702  1.00 66.37 LIG 0.20  C 
ATOM     19 O    ASN J 606      -3.573  24.794  67.164  1.00 70.67 LIG-0.65  OA
ATOM     20 OXT  ASN J 606      -3.959  23.618  68.873  1.00 61.82 LIG-0.65  OA
ENDBRANCH 17 18
BRANCH 17 21
ATOM     21  CB  ASN J 606      -4.205  22.118  65.861  1.00 63.43 LIG 0.14  C 
BRANCH 21 22
ATOM     22  CG  ASN J 606      -5.435  23.004  65.958  1.00 67.06 LIG 0.22  C 
ATOM     23  ND2 ASN J 606      -5.449  24.085  65.187  1.00 58.48 LIG-0.37  N 
ATOM     24 22HD ASN J 606      -4.783  24.251  64.668  1.00 58.48 LIG 0.16  HD
ATOM     25 21HD ASN J 606      -6.122  24.618  65.207  1.00 58.48 LIG 0.16  HD
ATOM     26 OD1  ASN J 606      -6.360  22.719  66.719  1.00 73.16 LIG-0.27  OA
ENDBRANCH 21 22
ENDBRANCH 17 21
ENDBRANCH 14 17
ENDBRANCH 1 13
BRANCH 1 27
ATOM     27  N   TRP J 605      -2.175  18.896  68.831  1.00 80.26 LIG-0.34  N 
ATOM     28  C   ASP J 604      -1.753  17.639  68.960  1.00 69.06 LIG 0.26  C 
ATOM     29 O    ASP J 604      -2.460  16.723  69.382  1.00 67.02 LIG-0.27  OA
ATOM     30 H    TRP J 605      -1.664  19.537  68.573  1.00 80.26 LIG 0.16  HD
BRANCH 28 31
ATOM     31  CA  ASP J 604      -0.305  17.374  68.551  1.00 80.57 LIG 0.41  C 
ATOM     32  N   ASP J 604      -0.083  17.758  67.161  1.00 92.85 LIG 0.61  N 
BRANCH 31 33
ATOM     33  CB  ASP J 604       0.658  18.124  69.473  1.00 75.75 LIG 0.16  C 
BRANCH 33 34
ATOM     34  CG  ASP J 604       0.614  17.618  70.902  1.00 69.63 LIG 0.17  C 
ATOM     35 OD1  ASP J 604       1.633  17.749  71.613  1.00 75.49 LIG-0.65  OA
ATOM     36 OD2  ASP J 604      -0.440  17.093  71.316  1.00 69.41 LIG-0.65  OA
ENDBRANCH 33 34
ENDBRANCH 31 33
ENDBRANCH 28 31
ENDBRANCH 1 27
TORSDOF 11
ENDMDL
MODEL 100
USER: ADFR SOLUTION from run 95
USER: SCORE 12.311220 LL:  -2.335 LR: -11.084 RR:   0.000 FEB:  -7.802
USER: RMSD 6.104288
USER: SEED 94
USER: STATUS no improvement in best in 11 clusters for 5 generations
USER: GENES 13
USER: genes 0 Translation |==|  0.46650 0.38557 0.48325
USER: genes 1 Rotation |==|  0.55481 0.30055 0.05377 0.58996
USER: genes 2 Torsion [C]-CA--CB-[CG] |==|  0.62752
USER: genes 3 Torsion [CA]-CB--CG-[CD2] |==|  0.25949
USER: genes 4 Torsion [N]-CA--C-[N] |==|  0.10495
USER: genes 5 Torsion [C]-N--CA-[CB] |==|  0.81355
USER: genes 6 Torsion [N]-CA--C-[O] |==|  0.56307
USER: genes 7 Torsion [N]-CA--CB-[CG] |==|  0.62558
USER: genes 8 Torsion [CA]-CB--CG-[ND2] |==|  0.79858
USER: genes 9 Torsion [CB]-CA--N-[C] |==|  0.25000
USER: genes 10 Torsion [N]-C--CA-[N] |==|  0.53943
USER: genes 11 Torsion [C]-CA--CB-[CG] |==|  0.22486
USER: genes 12 Torsion [CA]-CB--CG-[OD1] |==|  0.45850
ROOT
ATOM      1  CA  TRP J 605      -3.788  19.322  70.199  1.00 71.61 LIG 0.18  C 
ENDROOT
BRANCH 1 2
ATOM      2  CB  TRP J 605      -3.200  19.630  71.581  1.00 65.14 LIG 0.07  C 
BRANCH 2 3
ATOM      3  CG  TRP J 605      -1.700  19.641  71.619  1.00 62.37 LIG-0.03  A 
ATOM      4  CD2 TRP J 605      -0.848  20.781  71.459  1.00 57.80 LIG-0.00  A 
ATOM      5  CE3 TRP J 605      -1.078  22.140  71.224  1.00 58.94 LIG 0.01  A 
ATOM      6  CE2 TRP J 605       0.482  20.329  71.576  1.00 56.30 LIG 0.04  A 
ATOM      7  CZ3 TRP J 605       0.007  22.990  71.117  1.00 59.47 LIG 0.00  A 
ATOM      8  CH2 TRP J 605       1.317  22.510  71.238  1.00 55.92 LIG 0.00  A 
ATOM      9  CZ2 TRP J 605       1.574  21.187  71.468  1.00 56.02 LIG 0.03  A 
ATOM     10  NE1 TRP J 605       0.437  18.978  71.801  1.00 57.88 LIG-0.36  N 
ATOM     11  CD1 TRP J 605      -0.874  18.574  71.827  1.00 63.10 LIG 0.10  A 
ATOM     12 HE1  TRP J 605       1.120  18.466  71.908  1.00 57.88 LIG 0.17  HD
ENDBRANCH 2 3
ENDBRANCH 1 2
BRANCH 1 13
ATOM     13  C   TRP J 605      -4.914  20.307  69.882  1.00 60.32 LIG 0.24  C 
ATOM     14  N   ASN J 606      -5.252  20.407  68.597  1.00 74.38 LIG-0.34  N 
ATOM     15 H    ASN J 606      -4.827  20.004  67.967  1.00 74.38 LIG 0.16  HD
ATOM     16 O    TRP J 605      -5.460  20.952  70.778  1.00 56.87 LIG-0.27  OA
BRANCH 14 17
ATOM     17  CA  ASN J 606      -6.380  21.211  68.125  1.00 65.98 LIG 0.19  C 
BRANCH 17 18
ATOM     18  C   ASN J 606      -6.312  22.680  68.532  1.00 66.37 LIG 0.20  C 
ATOM     19 O    ASN J 606      -7.326  23.373  68.584  1.00 70.67 LIG-0.65  OA
ATOM     20 OXT  ASN J 606      -5.237  23.201  68.833  1.00 61.82 LIG-0.65  OA
ENDBRANCH 17 18
BRANCH 17 21
ATOM     21  CB  ASN J 606      -7.695  20.601  68.613  1.00 63.43 LIG 0.14  C 
BRANCH 21 22
ATOM     22  CG  ASN J 606      -8.747  20.535  67.519  1.00 67.06 LIG 0.22  C 
ATOM     23  ND2 ASN J 606      -9.297  21.688  67.155  1.00 58.48 LIG-0.37  N 
ATOM     24 22HD ASN J 606      -9.051  22.420  67.535  1.00 58.48 LIG 0.16  HD
ATOM     25 21HD ASN J 606      -9.898  21.702  66.541  1.00 58.48 LIG 0.16  HD
ATOM     26 OD1  ASN J 606      -9.060  19.459  67.009  1.00 73.16 LIG-0.27  OA
ENDBRANCH 21 22
ENDBRANCH 17 21
ENDBRANCH 14 17
ENDBRANCH 1 13
BRANCH 1 27
ATOM     27  N   TRP J 605      -2.731  19.311  69.185  1.00 80.26 LIG-0.34  N 
ATOM     28  C   ASP J 604      -2.044  18.219  68.852  1.00 69.06 LIG 0.26  C 
ATOM     29 O    ASP J 604      -2.192  17.127  69.402  1.00 67.02 LIG-0.27  OA
ATOM     30 H    TRP J 605      -2.594  20.078  68.823  1.00 80.26 LIG 0.16  HD
BRANCH 28 31
ATOM     31  CA  ASP J 604      -1.027  18.385  67.724  1.00 80.57 LIG 0.41  C 
ATOM     32  N   ASP J 604      -0.590  17.085  67.228  1.00 92.85 LIG 0.61  N 
BRANCH 31 33
ATOM     33  CB  ASP J 604      -1.621  19.218  66.587  1.00 75.75 LIG 0.16  C 
BRANCH 33 34
ATOM     34  CG  ASP J 604      -1.563  20.709  66.860  1.00 69.63 LIG 0.17  C 
ATOM     35 OD1  ASP J 604      -1.749  21.498  65.910  1.00 75.49 LIG-0.65  OA
ATOM     36 OD2  ASP J 604      -1.335  21.092  68.026  1.00 69.41 LIG-0.65  OA
ENDBRANCH 33 34
ENDBRANCH 31 33
ENDBRANCH 28 31
ENDBRANCH 1 27
TORSDOF 11
ENDMDL
MODEL 101
USER: ADFR SOLUTION from run 145
USER: SCORE 12.543417 LL:  -2.005 LR: -11.072 RR:   0.000 FEB:  -7.791
USER: RMSD 6.096064
USER: SEED 144
USER: STATUS no improvement in best in 12 clusters for 5 generations
USER: GENES 13
USER: genes 0 Translation |==|  0.50208 0.37979 0.44180
USER: genes 1 Rotation |==|  0.42113 0.73652 0.93197 0.53522
USER: genes 2 Torsion [C]-CA--CB-[CG] |==|  0.71903
USER: genes 3 Torsion [CA]-CB--CG-[CD2] |==|  0.21488
USER: genes 4 Torsion [N]-CA--C-[N] |==|  0.97778
USER: genes 5 Torsion [C]-N--CA-[CB] |==|  0.74699
USER: genes 6 Torsion [N]-CA--C-[O] |==|  0.72448
USER: genes 7 Torsion [N]-CA--CB-[CG] |==|  0.04661
USER: genes 8 Torsion [CA]-CB--CG-[ND2] |==|  0.78608
USER: genes 9 Torsion [CB]-CA--N-[C] |==|  0.19723
USER: genes 10 Torsion [N]-C--CA-[N] |==|  0.73343
USER: genes 11 Torsion [C]-CA--CB-[CG] |==|  0.28911
USER: genes 12 Torsion [CA]-CB--CG-[OD1] |==|  0.86264
ROOT
ATOM      1  CA  TRP J 605      -3.174  19.231  69.484  1.00 71.61 LIG 0.18  C 
ENDROOT
BRANCH 1 2
ATOM      2  CB  TRP J 605      -2.940  19.486  70.978  1.00 65.14 LIG 0.07  C 
BRANCH 2 3
ATOM      3  CG  TRP J 605      -1.498  19.668  71.348  1.00 62.37 LIG-0.03  A 
ATOM      4  CD2 TRP J 605      -0.704  20.843  71.146  1.00 57.80 LIG-0.00  A 
ATOM      5  CE3 TRP J 605      -0.953  22.098  70.583  1.00 58.94 LIG 0.01  A 
ATOM      6  CE2 TRP J 605       0.583  20.570  71.652  1.00 56.30 LIG 0.04  A 
ATOM      7  CZ3 TRP J 605       0.072  23.025  70.545  1.00 59.47 LIG 0.00  A 
ATOM      8  CH2 TRP J 605       1.341  22.724  71.057  1.00 55.92 LIG 0.00  A 
ATOM      9  CZ2 TRP J 605       1.615  21.506  71.613  1.00 56.02 LIG 0.03  A 
ATOM     10  NE1 TRP J 605       0.568  19.290  72.142  1.00 57.88 LIG-0.36  N 
ATOM     11  CD1 TRP J 605      -0.683  18.758  71.958  1.00 63.10 LIG 0.10  A 
ATOM     12 HE1  TRP J 605       1.235  18.886  72.506  1.00 57.88 LIG 0.17  HD
ENDBRANCH 2 3
ENDBRANCH 1 2
BRANCH 1 13
ATOM     13  C   TRP J 605      -3.647  20.517  68.805  1.00 60.32 LIG 0.24  C 
ATOM     14  N   ASN J 606      -2.829  21.021  67.883  1.00 74.38 LIG-0.34  N 
ATOM     15 H    ASN J 606      -2.049  20.696  67.720  1.00 74.38 LIG 0.16  HD
ATOM     16 O    TRP J 605      -4.725  21.031  69.107  1.00 56.87 LIG-0.27  OA
BRANCH 14 17
ATOM     17  CA  ASN J 606      -3.170  22.178  67.053  1.00 65.98 LIG 0.19  C 
BRANCH 17 18
ATOM     18  C   ASN J 606      -4.057  23.204  67.751  1.00 66.37 LIG 0.20  C 
ATOM     19 O    ASN J 606      -5.271  23.230  67.558  1.00 70.67 LIG-0.65  OA
ATOM     20 OXT  ASN J 606      -3.577  24.023  68.536  1.00 61.82 LIG-0.65  OA
ENDBRANCH 17 18
BRANCH 17 21
ATOM     21  CB  ASN J 606      -3.838  21.712  65.760  1.00 63.43 LIG 0.14  C 
BRANCH 21 22
ATOM     22  CG  ASN J 606      -4.335  20.278  65.846  1.00 67.06 LIG 0.22  C 
ATOM     23  ND2 ASN J 606      -3.417  19.326  65.738  1.00 58.48 LIG-0.37  N 
ATOM     24 22HD ASN J 606      -2.590  19.536  65.627  1.00 58.48 LIG 0.16  HD
ATOM     25 21HD ASN J 606      -3.649  18.499  65.779  1.00 58.48 LIG 0.16  HD
ATOM     26 OD1  ASN J 606      -5.531  20.034  66.005  1.00 73.16 LIG-0.27  OA
ENDBRANCH 21 22
ENDBRANCH 17 21
ENDBRANCH 14 17
ENDBRANCH 1 13
BRANCH 1 27
ATOM     27  N   TRP J 605      -1.972  18.664  68.868  1.00 80.26 LIG-0.34  N 
ATOM     28  C   ASP J 604      -1.544  17.424  69.098  1.00 69.06 LIG 0.26  C 
ATOM     29 O    ASP J 604      -2.085  16.653  69.892  1.00 67.02 LIG-0.27  OA
ATOM     30 H    TRP J 605      -1.566  19.209  68.342  1.00 80.26 LIG 0.16  HD
BRANCH 28 31
ATOM     31  CA  ASP J 604      -0.310  16.985  68.312  1.00 80.57 LIG 0.41  C 
ATOM     32  N   ASP J 604      -0.697  16.249  67.113  1.00 92.85 LIG 0.61  N 
BRANCH 31 33
ATOM     33  CB  ASP J 604       0.548  18.196  67.941  1.00 75.75 LIG 0.16  C 
BRANCH 33 34
ATOM     34  CG  ASP J 604       1.790  18.320  68.804  1.00 69.63 LIG 0.17  C 
ATOM     35 OD1  ASP J 604       1.665  18.248  70.044  1.00 75.49 LIG-0.65  OA
ATOM     36 OD2  ASP J 604       2.892  18.485  68.240  1.00 69.41 LIG-0.65  OA
ENDBRANCH 33 34
ENDBRANCH 31 33
ENDBRANCH 28 31
ENDBRANCH 1 27
TORSDOF 11
ENDMDL
MODEL 102
USER: ADFR SOLUTION from run 128
USER: SCORE 12.949193 LL:  -1.928 LR: -11.072 RR:   0.000 FEB:  -7.790
USER: RMSD 5.521641
USER: SEED 127
USER: STATUS no improvement in best in 11 clusters for 5 generations
USER: GENES 13
USER: genes 0 Translation |==|  0.46478 0.55299 0.51773
USER: genes 1 Rotation |==|  0.56893 0.04805 0.29795 0.51307
USER: genes 2 Torsion [C]-CA--CB-[CG] |==|  0.47586
USER: genes 3 Torsion [CA]-CB--CG-[CD2] |==|  0.77017
USER: genes 4 Torsion [N]-CA--C-[N] |==|  0.35849
USER: genes 5 Torsion [C]-N--CA-[CB] |==|  0.28049
USER: genes 6 Torsion [N]-CA--C-[O] |==|  0.62256
USER: genes 7 Torsion [N]-CA--CB-[CG] |==|  0.80754
USER: genes 8 Torsion [CA]-CB--CG-[ND2] |==|  0.68268
USER: genes 9 Torsion [CB]-CA--N-[C] |==|  0.85550
USER: genes 10 Torsion [N]-C--CA-[N] |==|  0.70205
USER: genes 11 Torsion [C]-CA--CB-[CG] |==|  0.42267
USER: genes 12 Torsion [CA]-CB--CG-[OD1] |==|  0.03471
ROOT
ATOM      1  CA  TRP J 605      -3.817  21.959  70.794  1.00 71.61 LIG 0.18  C 
ENDROOT
BRANCH 1 2
ATOM      2  CB  TRP J 605      -3.483  23.447  70.952  1.00 65.14 LIG 0.07  C 
BRANCH 2 3
ATOM      3  CG  TRP J 605      -3.185  23.860  72.363  1.00 62.37 LIG-0.03  A 
ATOM      4  CD2 TRP J 605      -4.140  24.190  73.378  1.00 57.80 LIG-0.00  A 
ATOM      5  CE3 TRP J 605      -5.537  24.251  73.415  1.00 58.94 LIG 0.01  A 
ATOM      6  CE2 TRP J 605      -3.417  24.508  74.545  1.00 56.30 LIG 0.04  A 
ATOM      7  CZ3 TRP J 605      -6.156  24.621  74.594  1.00 59.47 LIG 0.00  A 
ATOM      8  CH2 TRP J 605      -5.409  24.931  75.738  1.00 55.92 LIG 0.00  A 
ATOM      9  CZ2 TRP J 605      -4.042  24.880  75.733  1.00 56.02 LIG 0.03  A 
ATOM     10  NE1 TRP J 605      -2.085  24.373  74.252  1.00 57.88 LIG-0.36  N 
ATOM     11  CD1 TRP J 605      -1.955  23.983  72.943  1.00 63.10 LIG 0.10  A 
ATOM     12 HE1  TRP J 605      -1.436  24.511  74.799  1.00 57.88 LIG 0.17  HD
ENDBRANCH 2 3
ENDBRANCH 1 2
BRANCH 1 13
ATOM     13  C   TRP J 605      -4.312  21.685  69.372  1.00 60.32 LIG 0.24  C 
ATOM     14  N   ASN J 606      -5.616  21.447  69.248  1.00 74.38 LIG-0.34  N 
ATOM     15 H    ASN J 606      -6.147  21.378  69.921  1.00 74.38 LIG 0.16  HD
ATOM     16 O    TRP J 605      -3.531  21.695  68.420  1.00 56.87 LIG-0.27  OA
BRANCH 14 17
ATOM     17  CA  ASN J 606      -6.281  21.280  67.954  1.00 65.98 LIG 0.19  C 
BRANCH 17 18
ATOM     18  C   ASN J 606      -7.601  22.035  67.830  1.00 66.37 LIG 0.20  C 
ATOM     19 O    ASN J 606      -8.593  21.504  67.335  1.00 70.67 LIG-0.65  OA
ATOM     20 OXT  ASN J 606      -7.705  23.193  68.238  1.00 61.82 LIG-0.65  OA
ENDBRANCH 17 18
BRANCH 17 21
ATOM     21  CB  ASN J 606      -6.508  19.794  67.674  1.00 63.43 LIG 0.14  C 
BRANCH 21 22
ATOM     22  CG  ASN J 606      -5.212  19.047  67.409  1.00 67.06 LIG 0.22  C 
ATOM     23  ND2 ASN J 606      -5.051  18.556  66.187  1.00 58.48 LIG-0.37  N 
ATOM     24 22HD ASN J 606      -5.664  18.669  65.593  1.00 58.48 LIG 0.16  HD
ATOM     25 21HD ASN J 606      -4.335  18.124  65.988  1.00 58.48 LIG 0.16  HD
ATOM     26 OD1  ASN J 606      -4.368  18.914  68.296  1.00 73.16 LIG-0.27  OA
ENDBRANCH 21 22
ENDBRANCH 17 21
ENDBRANCH 14 17
ENDBRANCH 1 13
BRANCH 1 27
ATOM     27  N   TRP J 605      -2.667  21.134  71.172  1.00 80.26 LIG-0.34  N 
ATOM     28  C   ASP J 604      -1.444  21.308  70.675  1.00 69.06 LIG 0.26  C 
ATOM     29 O    ASP J 604      -1.172  22.142  69.810  1.00 67.02 LIG-0.27  OA
ATOM     30 H    TRP J 605      -2.856  20.523  71.747  1.00 80.26 LIG 0.16  HD
BRANCH 28 31
ATOM     31  CA  ASP J 604      -0.356  20.396  71.239  1.00 80.57 LIG 0.41  C 
ATOM     32  N   ASP J 604       0.537  21.143  72.119  1.00 92.85 LIG 0.61  N 
BRANCH 31 33
ATOM     33  CB  ASP J 604      -0.980  19.217  71.988  1.00 75.75 LIG 0.16  C 
BRANCH 33 34
ATOM     34  CG  ASP J 604      -0.095  17.985  71.984  1.00 69.63 LIG 0.17  C 
ATOM     35 OD1  ASP J 604       1.092  18.105  71.613  1.00 75.49 LIG-0.65  OA
ATOM     36 OD2  ASP J 604      -0.585  16.899  72.354  1.00 69.41 LIG-0.65  OA
ENDBRANCH 33 34
ENDBRANCH 31 33
ENDBRANCH 28 31
ENDBRANCH 1 27
TORSDOF 11
ENDMDL
MODEL 103
USER: ADFR SOLUTION from run 132
USER: SCORE 13.215209 LL:  -2.178 LR: -11.073 RR:   0.000 FEB:  -7.791
USER: RMSD 6.520382
USER: SEED 131
USER: STATUS no improvement in best in 16 clusters for 5 generations
USER: GENES 13
USER: genes 0 Translation |==|  0.34233 0.55462 0.29715
USER: genes 1 Rotation |==|  0.21078 0.62549 0.11557 0.55305
USER: genes 2 Torsion [C]-CA--CB-[CG] |==|  0.20336
USER: genes 3 Torsion [CA]-CB--CG-[CD2] |==|  0.72806
USER: genes 4 Torsion [N]-CA--C-[N] |==|  0.36692
USER: genes 5 Torsion [C]-N--CA-[CB] |==|  0.79648
USER: genes 6 Torsion [N]-CA--C-[O] |==|  0.76007
USER: genes 7 Torsion [N]-CA--CB-[CG] |==|  0.71694
USER: genes 8 Torsion [CA]-CB--CG-[ND2] |==|  0.13526
USER: genes 9 Torsion [CB]-CA--N-[C] |==|  0.85175
USER: genes 10 Torsion [N]-C--CA-[N] |==|  0.77249
USER: genes 11 Torsion [C]-CA--CB-[CG] |==|  0.35944
USER: genes 12 Torsion [CA]-CB--CG-[OD1] |==|  0.65247
ROOT
ATOM      1  CA  TRP J 605      -5.930  21.984  66.989  1.00 71.61 LIG 0.18  C 
ENDROOT
BRANCH 1 2
ATOM      2  CB  TRP J 605      -4.964  21.236  66.061  1.00 65.14 LIG 0.07  C 
BRANCH 2 3
ATOM      3  CG  TRP J 605      -4.614  19.855  66.530  1.00 62.37 LIG-0.03  A 
ATOM      4  CD2 TRP J 605      -3.438  19.468  67.250  1.00 57.80 LIG-0.00  A 
ATOM      5  CE3 TRP J 605      -2.313  20.156  67.715  1.00 58.94 LIG 0.01  A 
ATOM      6  CE2 TRP J 605      -3.531  18.082  67.488  1.00 56.30 LIG 0.04  A 
ATOM      7  CZ3 TRP J 605      -1.335  19.451  68.392  1.00 59.47 LIG 0.00  A 
ATOM      8  CH2 TRP J 605      -1.457  18.074  68.612  1.00 55.92 LIG 0.00  A 
ATOM      9  CZ2 TRP J 605      -2.544  17.373  68.170  1.00 56.02 LIG 0.03  A 
ATOM     10  NE1 TRP J 605      -4.711  17.649  66.940  1.00 57.88 LIG-0.36  N 
ATOM     11  CD1 TRP J 605      -5.354  18.719  66.369  1.00 63.10 LIG 0.10  A 
ATOM     12 HE1  TRP J 605      -5.001  16.840  66.951  1.00 57.88 LIG 0.17  HD
ENDBRANCH 2 3
ENDBRANCH 1 2
BRANCH 1 13
ATOM     13  C   TRP J 605      -5.198  22.419  68.260  1.00 60.32 LIG 0.24  C 
ATOM     14  N   ASN J 606      -5.454  21.700  69.351  1.00 74.38 LIG-0.34  N 
ATOM     15 H    ASN J 606      -6.044  21.075  69.373  1.00 74.38 LIG 0.16  HD
ATOM     16 O    TRP J 605      -4.421  23.375  68.245  1.00 56.87 LIG-0.27  OA
BRANCH 14 17
ATOM     17  CA  ASN J 606      -4.760  21.900  70.624  1.00 65.98 LIG 0.19  C 
BRANCH 17 18
ATOM     18  C   ASN J 606      -4.731  23.350  71.097  1.00 66.37 LIG 0.20  C 
ATOM     19 O    ASN J 606      -3.851  24.123  70.725  1.00 70.67 LIG-0.65  OA
ATOM     20 OXT  ASN J 606      -5.601  23.783  71.855  1.00 61.82 LIG-0.65  OA
ENDBRANCH 17 18
BRANCH 17 21
ATOM     21  CB  ASN J 606      -3.332  21.360  70.529  1.00 63.43 LIG 0.14  C 
BRANCH 21 22
ATOM     22  CG  ASN J 606      -3.178  20.004  71.198  1.00 67.06 LIG 0.22  C 
ATOM     23  ND2 ASN J 606      -4.080  19.083  70.885  1.00 58.48 LIG-0.37  N 
ATOM     24 22HD ASN J 606      -4.710  19.269  70.328  1.00 58.48 LIG 0.16  HD
ATOM     25 21HD ASN J 606      -4.036  18.301  71.238  1.00 58.48 LIG 0.16  HD
ATOM     26 OD1  ASN J 606      -2.257  19.792  71.987  1.00 73.16 LIG-0.27  OA
ENDBRANCH 21 22
ENDBRANCH 17 21
ENDBRANCH 14 17
ENDBRANCH 1 13
BRANCH 1 27
ATOM     27  N   TRP J 605      -6.560  23.100  66.278  1.00 80.26 LIG-0.34  N 
ATOM     28  C   ASP J 604      -5.873  24.040  65.631  1.00 69.06 LIG 0.26  C 
ATOM     29 O    ASP J 604      -4.643  24.093  65.613  1.00 67.02 LIG-0.27  OA
ATOM     30 H    TRP J 605      -7.419  23.091  66.318  1.00 80.26 LIG 0.16  HD
BRANCH 28 31
ATOM     31  CA  ASP J 604      -6.704  25.085  64.889  1.00 80.57 LIG 0.41  C 
ATOM     32  N   ASP J 604      -7.131  24.577  63.590  1.00 92.85 LIG 0.61  N 
BRANCH 31 33
ATOM     33  CB  ASP J 604      -7.917  25.497  65.726  1.00 75.75 LIG 0.16  C 
BRANCH 33 34
ATOM     34  CG  ASP J 604      -8.051  27.002  65.861  1.00 69.63 LIG 0.17  C 
ATOM     35 OD1  ASP J 604      -8.118  27.495  67.008  1.00 75.49 LIG-0.65  OA
ATOM     36 OD2  ASP J 604      -8.085  27.693  64.822  1.00 69.41 LIG-0.65  OA
ENDBRANCH 33 34
ENDBRANCH 31 33
ENDBRANCH 28 31
ENDBRANCH 1 27
TORSDOF 11
ENDMDL
