MODEL 1
USER: ADFR SOLUTION from run 61
USER: SCORE 15.106035 LL:  -4.537 LR: -12.228 RR:   0.000 FEB:  -6.859
USER: RMSD 5.977549
USER: SEED 60
USER: STATUS no improvement in best in 8 clusters for 5 generations
USER: GENES 20
USER: genes 0 Translation |==|  0.45513 0.35959 0.56286
USER: genes 1 Rotation |==|  0.28689 0.13415 0.31114 0.68728
USER: genes 2 Torsion [N]-C--CA-[N] |==|  0.52116
USER: genes 3 Torsion [C]-CA--N-[C] |==|  0.75293
USER: genes 4 Torsion [N]-C--CA-[N] |==|  0.92476
USER: genes 5 Torsion [C]-CA--N-[C] |==|  0.53706
USER: genes 6 Torsion [N]-C--CA-[N] |==|  0.71373
USER: genes 7 Torsion [C]-CA--CB-[CG] |==|  0.78430
USER: genes 8 Torsion [CA]-CB--CG-[OD2] |==|  0.31485
USER: genes 9 Torsion [C]-CA--CB-[CG] |==|  0.93962
USER: genes 10 Torsion [CA]-CB--CG-[CD1] |==|  0.30896
USER: genes 11 Torsion [C]-CA--CB-[CG2] |==|  0.33480
USER: genes 12 Torsion [CA]-CB--OG1-[HG1] |==|  0.12541
USER: genes 13 Torsion [C]-N--CA-[C] |==|  0.83638
USER: genes 14 Torsion [N]-CA--CB-[CG] |==|  0.13510
USER: genes 15 Torsion [CA]-CB--CG-[CD] |==|  0.50927
USER: genes 16 Torsion [CB]-CG--CD-[NE] |==|  0.77147
USER: genes 17 Torsion [CG]-CD--NE-[CZ] |==|  0.55591
USER: genes 18 Torsion [N]-CA--C-[N] |==|  0.85268
USER: genes 19 Torsion [N]-CA--C-[O] |==|  0.77589
ROOT
ATOM      1  C   THR B 201       8.142  35.025 -10.455  1.00 36.45 LIG 0.24  C 
ATOM      2 O    THR B 201       7.658  36.105 -10.109  1.00 40.30 LIG-0.27  OA
ATOM      3  N   ARG B 202       9.185  34.468  -9.847  1.00 33.32 LIG-0.35  N 
ATOM      4 H    ARG B 202       9.490  33.691 -10.052  1.00 33.32 LIG 0.16  HD
ENDROOT
BRANCH 1 5
ATOM      5  CA  THR B 201       7.556  34.242 -11.635  1.00 30.51 LIG 0.20  C 
BRANCH 5 6
ATOM      6  N   THR B 201       6.529  34.990 -12.366  1.00 29.33 LIG-0.34  N 
ATOM      7  C   LEU B 200       5.247  34.929 -12.014  1.00 28.22 LIG 0.24  C 
ATOM      8 O    LEU B 200       4.862  34.347 -11.004  1.00 25.98 LIG-0.27  OA
ATOM      9 H    THR B 201       6.827  35.457 -13.023  1.00 29.33 LIG 0.16  HD
BRANCH 7 10
ATOM     10  CA  LEU B 200       4.247  35.635 -12.924  1.00 30.55 LIG 0.18  C 
BRANCH 10 11
ATOM     11  N   LEU B 200       4.851  36.742 -13.639  1.00 35.39 LIG-0.35  N 
ATOM     12 H    LEU B 200       5.710  36.761 -13.614  1.00 35.39 LIG 0.16  HD
ATOM     13  C   ASP B 199       4.103  37.637 -14.271  1.00 42.58 LIG 0.26  C 
ATOM     14 O    ASP B 199       2.872  37.604 -14.259  1.00 44.96 LIG-0.27  OA
BRANCH 13 15
ATOM     15  CA  ASP B 199       4.857  38.736 -15.011  1.00 43.98 LIG 0.41  C 
ATOM     16  N   ASP B 199       4.822  39.987 -14.259  1.00 41.74 LIG 0.61  N 
BRANCH 15 17
ATOM     17  CB  ASP B 199       6.299  38.299 -15.266  1.00 46.67 LIG 0.16  C 
BRANCH 17 18
ATOM     18  CG  ASP B 199       7.175  38.417 -14.029  1.00 50.58 LIG 0.17  C 
ATOM     19 OD2  ASP B 199       7.617  37.367 -13.513  1.00 55.98 LIG-0.65  OA
ATOM     20 OD1  ASP B 199       7.416  39.549 -13.561  1.00 45.33 LIG-0.65  OA
ENDBRANCH 17 18
ENDBRANCH 15 17
ENDBRANCH 13 15
ENDBRANCH 10 11
BRANCH 10 21
ATOM     21  CB  LEU B 200       3.647  34.639 -13.914  1.00 29.00 LIG 0.04  C 
BRANCH 21 22
ATOM     22  CG  LEU B 200       4.482  33.383 -14.153  1.00 29.82 LIG-0.02  C 
ATOM     23  CD1 LEU B 200       3.777  32.171 -13.569  1.00 24.53 LIG 0.01  C 
ATOM     24  CD2 LEU B 200       4.719  33.203 -15.647  1.00 31.40 LIG 0.01  C 
ENDBRANCH 21 22
ENDBRANCH 10 21
ENDBRANCH 7 10
ENDBRANCH 5 6
BRANCH 5 25
ATOM     25  CB  THR B 201       8.710  33.814 -12.569  1.00 29.82 LIG 0.15  C 
ATOM     26  CG2 THR B 201       8.763  32.306 -12.703  1.00 24.76 LIG 0.04  C 
BRANCH 25 27
ATOM     27 OG1  THR B 201       8.525  34.396 -13.865  1.00 30.74 LIG-0.39  OA
ATOM     28 HG1  THR B 201       8.316  35.205 -13.782  1.00 30.74 LIG 0.21  HD
ENDBRANCH 25 27
ENDBRANCH 5 25
ENDBRANCH 1 5
BRANCH 3 29
ATOM     29  CA  ARG B 202       9.919  35.125  -8.766  1.00 35.80 LIG 0.18  C 
BRANCH 29 30
ATOM     30  CB  ARG B 202      11.018  34.181  -8.281  1.00 39.99 LIG 0.04  C 
BRANCH 30 31
ATOM     31  CG  ARG B 202      11.823  33.613  -9.420  1.00 43.12 LIG 0.02  C 
BRANCH 31 32
ATOM     32  CD  ARG B 202      12.857  32.618  -8.951  1.00 49.76 LIG 0.14  C 
BRANCH 32 33
ATOM     33  NE  ARG B 202      14.054  33.305  -8.481  1.00 51.61 LIG-0.23  N 
ATOM     34  CZ  ARG B 202      15.245  32.727  -8.374  1.00 53.48 LIG 0.67  C 
ATOM     35  NH2 ARG B 202      16.284  33.426  -7.942  1.00 55.46 LIG-0.23  N 
ATOM     36  NH1 ARG B 202      15.395  31.449  -8.703  1.00 53.58 LIG-0.23  N 
ATOM     37 2HH2 ARG B 202      17.055  33.052  -7.873  1.00 55.46 LIG 0.17  HD
ATOM     38 1HH2 ARG B 202      16.187  34.253  -7.730  1.00 55.46 LIG 0.17  HD
ATOM     39 2HH1 ARG B 202      16.165  31.075  -8.634  1.00 53.58 LIG 0.17  HD
ATOM     40 1HH1 ARG B 202      14.720  30.996  -8.984  1.00 53.58 LIG 0.17  HD
ATOM     41 HE   ARG B 202      13.985  34.132  -8.259  1.00 51.61 LIG 0.18  HD
ENDBRANCH 32 33
ENDBRANCH 31 32
ENDBRANCH 30 31
ENDBRANCH 29 30
BRANCH 29 42
ATOM     42  C   ARG B 202      10.487  36.477  -9.272  1.00 54.52 LIG 0.24  C 
ATOM     43 O    ARG B 202      10.229  37.492  -8.634  1.00 52.27 LIG-0.27  OA
ATOM     44  N   PRO B 203      11.243  36.500 -10.413  1.00 63.22 LIG-0.34  N 
ATOM     45  CD  PRO B 203      11.006  35.663 -11.597  1.00 67.52 LIG 0.13  C 
ATOM     46  CA  PRO B 203      11.998  37.672 -10.881  1.00 66.04 LIG 0.17  C 
ATOM     47  CG  PRO B 203      10.554  36.713 -12.601  1.00 67.94 LIG 0.02  C 
ATOM     48  CB  PRO B 203      11.229  38.047 -12.158  1.00 64.70 LIG 0.04  C 
BRANCH 46 49
ATOM     49  C   PRO B 203      12.112  38.888  -9.961  1.00 68.17 LIG 0.22  C 
ATOM     50 O    PRO B 203      11.166  39.676  -9.913  1.00 70.96 LIG-0.29  OA
ENDBRANCH 46 49
ENDBRANCH 29 42
ENDBRANCH 3 29
TORSDOF 18
ENDMDL
MODEL 2
USER: ADFR SOLUTION from run 95
USER: SCORE 15.159091 LL:  -4.810 LR: -12.126 RR:   0.000 FEB:  -6.757
USER: RMSD 5.683543
USER: SEED 94
USER: STATUS no improvement in best in 6 clusters for 5 generations
USER: GENES 20
USER: genes 0 Translation |==|  0.39010 0.41863 0.54889
USER: genes 1 Rotation |==|  0.32957 0.21793 0.24334 0.77480
USER: genes 2 Torsion [N]-C--CA-[N] |==|  0.07687
USER: genes 3 Torsion [C]-CA--N-[C] |==|  0.66029
USER: genes 4 Torsion [N]-C--CA-[N] |==|  0.73541
USER: genes 5 Torsion [C]-CA--N-[C] |==|  0.82382
USER: genes 6 Torsion [N]-C--CA-[N] |==|  0.57784
USER: genes 7 Torsion [C]-CA--CB-[CG] |==|  0.83312
USER: genes 8 Torsion [CA]-CB--CG-[OD2] |==|  0.78535
USER: genes 9 Torsion [C]-CA--CB-[CG] |==|  0.21104
USER: genes 10 Torsion [CA]-CB--CG-[CD1] |==|  0.19341
USER: genes 11 Torsion [C]-CA--CB-[CG2] |==|  0.52927
USER: genes 12 Torsion [CA]-CB--OG1-[HG1] |==|  0.43975
USER: genes 13 Torsion [C]-N--CA-[C] |==|  0.73926
USER: genes 14 Torsion [N]-CA--CB-[CG] |==|  0.45112
USER: genes 15 Torsion [CA]-CB--CG-[CD] |==|  0.72804
USER: genes 16 Torsion [CB]-CG--CD-[NE] |==|  0.52007
USER: genes 17 Torsion [CG]-CD--NE-[CZ] |==|  0.30970
USER: genes 18 Torsion [N]-CA--C-[N] |==|  0.85313
USER: genes 19 Torsion [N]-CA--C-[O] |==|  0.17962
ROOT
ATOM      1  C   THR B 201       7.020  36.087 -10.717  1.00 36.45 LIG 0.24  C 
ATOM      2 O    THR B 201       6.660  36.801  -9.778  1.00 40.30 LIG-0.27  OA
ATOM      3  N   ARG B 202       8.138  35.368 -10.695  1.00 33.32 LIG-0.35  N 
ATOM      4 H    ARG B 202       8.364  34.829 -11.326  1.00 33.32 LIG 0.16  HD
ENDROOT
BRANCH 1 5
ATOM      5  CA  THR B 201       6.181  35.985 -11.995  1.00 30.51 LIG 0.20  C 
BRANCH 5 6
ATOM      6  N   THR B 201       6.350  34.707 -12.692  1.00 29.33 LIG-0.34  N 
ATOM      7  C   LEU B 200       6.766  34.658 -13.955  1.00 28.22 LIG 0.24  C 
ATOM      8 O    LEU B 200       7.138  35.653 -14.571  1.00 25.98 LIG-0.27  OA
ATOM      9 H    THR B 201       6.161  34.014 -12.219  1.00 29.33 LIG 0.16  HD
BRANCH 7 10
ATOM     10  CA  LEU B 200       6.775  33.289 -14.627  1.00 30.55 LIG 0.18  C 
BRANCH 10 11
ATOM     11  N   LEU B 200       8.076  32.654 -14.549  1.00 35.39 LIG-0.35  N 
ATOM     12 H    LEU B 200       8.093  31.923 -14.098  1.00 35.39 LIG 0.16  HD
ATOM     13  C   ASP B 199       9.135  33.191 -15.140  1.00 42.58 LIG 0.26  C 
ATOM     14 O    ASP B 199       9.087  34.261 -15.749  1.00 44.96 LIG-0.27  OA
BRANCH 13 15
ATOM     15  CA  ASP B 199      10.440  32.414 -15.011  1.00 43.98 LIG 0.41  C 
ATOM     16  N   ASP B 199      11.589  33.312 -15.076  1.00 41.74 LIG 0.61  N 
BRANCH 15 17
ATOM     17  CB  ASP B 199      10.448  31.621 -13.704  1.00 46.67 LIG 0.16  C 
BRANCH 17 18
ATOM     18  CG  ASP B 199      10.322  32.511 -12.478  1.00 50.58 LIG 0.17  C 
ATOM     19 OD2  ASP B 199      11.333  33.140 -12.095  1.00 55.98 LIG-0.65  OA
ATOM     20 OD1  ASP B 199       9.225  32.576 -11.885  1.00 45.33 LIG-0.65  OA
ENDBRANCH 17 18
ENDBRANCH 15 17
ENDBRANCH 13 15
ENDBRANCH 10 11
BRANCH 10 21
ATOM     21  CB  LEU B 200       5.717  32.388 -13.994  1.00 29.00 LIG 0.04  C 
BRANCH 21 22
ATOM     22  CG  LEU B 200       4.279  32.687 -14.412  1.00 29.82 LIG-0.02  C 
ATOM     23  CD1 LEU B 200       4.069  32.302 -15.867  1.00 24.53 LIG 0.01  C 
ATOM     24  CD2 LEU B 200       3.315  31.932 -13.507  1.00 31.40 LIG 0.01  C 
ENDBRANCH 21 22
ENDBRANCH 10 21
ENDBRANCH 7 10
ENDBRANCH 5 6
BRANCH 5 25
ATOM     25  CB  THR B 201       4.699  36.237 -11.636  1.00 29.82 LIG 0.15  C 
ATOM     26  CG2 THR B 201       3.797  35.896 -12.805  1.00 24.76 LIG 0.04  C 
BRANCH 25 27
ATOM     27 OG1  THR B 201       4.331  35.434 -10.509  1.00 30.74 LIG-0.39  OA
ATOM     28 HG1  THR B 201       3.657  35.768 -10.134  1.00 30.74 LIG 0.21  HD
ENDBRANCH 25 27
ENDBRANCH 5 25
ENDBRANCH 1 5
BRANCH 3 29
ATOM     29  CA  ARG B 202       9.097  35.422  -9.592  1.00 35.80 LIG 0.18  C 
BRANCH 29 30
ATOM     30  CB  ARG B 202       9.664  34.021  -9.371  1.00 39.99 LIG 0.04  C 
BRANCH 30 31
ATOM     31  CG  ARG B 202      10.939  34.044  -8.570  1.00 43.12 LIG 0.02  C 
BRANCH 31 32
ATOM     32  CD  ARG B 202      12.167  33.972  -9.444  1.00 49.76 LIG 0.14  C 
BRANCH 32 33
ATOM     33  NE  ARG B 202      13.368  33.825  -8.632  1.00 51.61 LIG-0.23  N 
ATOM     34  CZ  ARG B 202      14.111  32.725  -8.601  1.00 53.48 LIG 0.67  C 
ATOM     35  NH2 ARG B 202      15.193  32.677  -7.837  1.00 55.46 LIG-0.23  N 
ATOM     36  NH1 ARG B 202      13.771  31.674  -9.337  1.00 53.58 LIG-0.23  N 
ATOM     37 2HH2 ARG B 202      15.673  31.965  -7.818  1.00 55.46 LIG 0.17  HD
ATOM     38 1HH2 ARG B 202      15.413  33.358  -7.362  1.00 55.46 LIG 0.17  HD
ATOM     39 2HH1 ARG B 202      14.252  30.962  -9.317  1.00 53.58 LIG 0.17  HD
ATOM     40 1HH1 ARG B 202      13.069  31.706  -9.834  1.00 53.58 LIG 0.17  HD
ATOM     41 HE   ARG B 202      13.610  34.490  -8.143  1.00 51.61 LIG 0.18  HD
ENDBRANCH 32 33
ENDBRANCH 31 32
ENDBRANCH 30 31
ENDBRANCH 29 30
BRANCH 29 42
ATOM     42  C   ARG B 202      10.205  36.459  -9.920  1.00 54.52 LIG 0.24  C 
ATOM     43 O    ARG B 202      10.434  37.343  -9.101  1.00 52.27 LIG-0.27  OA
ATOM     44  N   PRO B 203      10.879  36.365 -11.107  1.00 63.22 LIG-0.34  N 
ATOM     45  CD  PRO B 203      10.281  35.957 -12.385  1.00 67.52 LIG 0.13  C 
ATOM     46  CA  PRO B 203      12.073  37.154 -11.444  1.00 66.04 LIG 0.17  C 
ATOM     47  CG  PRO B 203      10.335  37.268 -13.155  1.00 67.94 LIG 0.02  C 
ATOM     48  CB  PRO B 203      11.539  38.062 -12.564  1.00 64.70 LIG 0.04  C 
BRANCH 46 49
ATOM     49  C   PRO B 203      12.728  37.999 -10.350  1.00 68.17 LIG 0.22  C 
ATOM     50 O    PRO B 203      13.228  37.420  -9.384  1.00 70.96 LIG-0.29  OA
ENDBRANCH 46 49
ENDBRANCH 29 42
ENDBRANCH 3 29
TORSDOF 18
ENDMDL
MODEL 3
USER: ADFR SOLUTION from run 95
USER: SCORE 15.615720 LL:  -4.280 LR: -11.964 RR:   0.000 FEB:  -6.594
USER: RMSD 6.635289
USER: SEED 94
USER: STATUS no improvement in best in 6 clusters for 5 generations
USER: GENES 20
USER: genes 0 Translation |==|  0.39062 0.41433 0.55098
USER: genes 1 Rotation |==|  0.31307 0.21581 0.24891 0.76692
USER: genes 2 Torsion [N]-C--CA-[N] |==|  0.04120
USER: genes 3 Torsion [C]-CA--N-[C] |==|  0.70586
USER: genes 4 Torsion [N]-C--CA-[N] |==|  0.30000
USER: genes 5 Torsion [C]-CA--N-[C] |==|  0.78687
USER: genes 6 Torsion [N]-C--CA-[N] |==|  0.00442
USER: genes 7 Torsion [C]-CA--CB-[CG] |==|  0.69476
USER: genes 8 Torsion [CA]-CB--CG-[OD2] |==|  0.81724
USER: genes 9 Torsion [C]-CA--CB-[CG] |==|  0.22073
USER: genes 10 Torsion [CA]-CB--CG-[CD1] |==|  0.02396
USER: genes 11 Torsion [C]-CA--CB-[CG2] |==|  0.45972
USER: genes 12 Torsion [CA]-CB--OG1-[HG1] |==|  0.44859
USER: genes 13 Torsion [C]-N--CA-[C] |==|  0.75419
USER: genes 14 Torsion [N]-CA--CB-[CG] |==|  0.45078
USER: genes 15 Torsion [CA]-CB--CG-[CD] |==|  0.72297
USER: genes 16 Torsion [CB]-CG--CD-[NE] |==|  0.52266
USER: genes 17 Torsion [CG]-CD--NE-[CZ] |==|  0.30491
USER: genes 18 Torsion [N]-CA--C-[N] |==|  0.85227
USER: genes 19 Torsion [N]-CA--C-[O] |==|  0.16548
ROOT
ATOM      1  C   THR B 201       7.029  36.010 -10.678  1.00 36.45 LIG 0.24  C 
ATOM      2 O    THR B 201       6.715  36.795  -9.780  1.00 40.30 LIG-0.27  OA
ATOM      3  N   ARG B 202       8.119  35.251 -10.630  1.00 33.32 LIG-0.35  N 
ATOM      4 H    ARG B 202       8.312  34.664 -11.228  1.00 33.32 LIG 0.16  HD
ENDROOT
BRANCH 1 5
ATOM      5  CA  THR B 201       6.161  35.860 -11.932  1.00 30.51 LIG 0.20  C 
BRANCH 5 6
ATOM      6  N   THR B 201       6.485  34.663 -12.713  1.00 29.33 LIG-0.34  N 
ATOM      7  C   LEU B 200       7.149  34.747 -13.864  1.00 28.22 LIG 0.24  C 
ATOM      8 O    LEU B 200       7.625  35.799 -14.280  1.00 25.98 LIG-0.27  OA
ATOM      9 H    THR B 201       6.212  33.925 -12.367  1.00 29.33 LIG 0.16  HD
BRANCH 7 10
ATOM     10  CA  LEU B 200       7.312  33.458 -14.663  1.00 30.55 LIG 0.18  C 
BRANCH 10 11
ATOM     11  N   LEU B 200       6.484  33.450 -15.854  1.00 35.39 LIG-0.35  N 
ATOM     12 H    LEU B 200       6.908  33.602 -16.587  1.00 35.39 LIG 0.16  HD
ATOM     13  C   ASP B 199       5.180  33.222 -15.779  1.00 42.58 LIG 0.26  C 
ATOM     14 O    ASP B 199       4.596  33.043 -14.710  1.00 44.96 LIG-0.27  OA
BRANCH 13 15
ATOM     15  CA  ASP B 199       4.426  33.209 -17.104  1.00 43.98 LIG 0.41  C 
ATOM     16  N   ASP B 199       5.339  33.424 -18.223  1.00 41.74 LIG 0.61  N 
BRANCH 15 17
ATOM     17  CB  ASP B 199       3.674  31.889 -17.264  1.00 46.67 LIG 0.16  C 
BRANCH 17 18
ATOM     18  CG  ASP B 199       4.273  31.000 -18.343  1.00 50.58 LIG 0.17  C 
ATOM     19 OD2  ASP B 199       4.221  31.391 -19.530  1.00 55.98 LIG-0.65  OA
ATOM     20 OD1  ASP B 199       4.785  29.909 -18.017  1.00 45.33 LIG-0.65  OA
ENDBRANCH 17 18
ENDBRANCH 15 17
ENDBRANCH 13 15
ENDBRANCH 10 11
BRANCH 10 21
ATOM     21  CB  LEU B 200       8.777  33.260 -15.044  1.00 29.00 LIG 0.04  C 
BRANCH 21 22
ATOM     22  CG  LEU B 200       9.663  32.702 -13.933  1.00 29.82 LIG-0.02  C 
ATOM     23  CD1 LEU B 200       8.810  32.274 -12.751  1.00 24.53 LIG 0.01  C 
ATOM     24  CD2 LEU B 200      10.476  31.530 -14.467  1.00 31.40 LIG 0.01  C 
ENDBRANCH 21 22
ENDBRANCH 10 21
ENDBRANCH 7 10
ENDBRANCH 5 6
BRANCH 5 25
ATOM     25  CB  THR B 201       4.675  35.869 -11.509  1.00 29.82 LIG 0.15  C 
ATOM     26  CG2 THR B 201       3.775  36.080 -12.710  1.00 24.76 LIG 0.04  C 
BRANCH 25 27
ATOM     27 OG1  THR B 201       4.341  34.623 -10.885  1.00 30.74 LIG-0.39  OA
ATOM     28 HG1  THR B 201       3.635  34.713 -10.438  1.00 30.74 LIG 0.21  HD
ENDBRANCH 25 27
ENDBRANCH 5 25
ENDBRANCH 1 5
BRANCH 3 29
ATOM     29  CA  ARG B 202       9.102  35.337  -9.550  1.00 35.80 LIG 0.18  C 
BRANCH 29 30
ATOM     30  CB  ARG B 202       9.718  33.955  -9.340  1.00 39.99 LIG 0.04  C 
BRANCH 30 31
ATOM     31  CG  ARG B 202      11.011  34.020  -8.572  1.00 43.12 LIG 0.02  C 
BRANCH 31 32
ATOM     32  CD  ARG B 202      12.219  33.941  -9.474  1.00 49.76 LIG 0.14  C 
BRANCH 32 33
ATOM     33  NE  ARG B 202      13.440  33.813  -8.688  1.00 51.61 LIG-0.23  N 
ATOM     34  CZ  ARG B 202      14.171  32.706  -8.631  1.00 53.48 LIG 0.67  C 
ATOM     35  NH2 ARG B 202      15.272  32.677  -7.895  1.00 55.46 LIG-0.23  N 
ATOM     36  NH1 ARG B 202      13.800  31.630  -9.313  1.00 53.58 LIG-0.23  N 
ATOM     37 2HH2 ARG B 202      15.746  31.961  -7.858  1.00 55.46 LIG 0.17  HD
ATOM     38 1HH2 ARG B 202      15.512  33.374  -7.454  1.00 55.46 LIG 0.17  HD
ATOM     39 2HH1 ARG B 202      14.274  30.913  -9.277  1.00 53.58 LIG 0.17  HD
ATOM     40 1HH1 ARG B 202      13.086  31.649  -9.792  1.00 53.58 LIG 0.17  HD
ATOM     41 HE   ARG B 202      13.702  34.495  -8.234  1.00 51.61 LIG 0.18  HD
ENDBRANCH 32 33
ENDBRANCH 31 32
ENDBRANCH 30 31
ENDBRANCH 29 30
BRANCH 29 42
ATOM     42  C   ARG B 202      10.168  36.408  -9.905  1.00 54.52 LIG 0.24  C 
ATOM     43 O    ARG B 202      10.384  37.304  -9.096  1.00 52.27 LIG-0.27  OA
ATOM     44  N   PRO B 203      10.821  36.330 -11.104  1.00 63.22 LIG-0.34  N 
ATOM     45  CD  PRO B 203      10.211  35.895 -12.369  1.00 67.52 LIG 0.13  C 
ATOM     46  CA  PRO B 203      11.982  37.155 -11.469  1.00 66.04 LIG 0.17  C 
ATOM     47  CG  PRO B 203      10.207  37.203 -13.146  1.00 67.94 LIG 0.02  C 
ATOM     48  CB  PRO B 203      11.396  38.039 -12.583  1.00 64.70 LIG 0.04  C 
BRANCH 46 49
ATOM     49  C   PRO B 203      12.630  38.027 -10.394  1.00 68.17 LIG 0.22  C 
ATOM     50 O    PRO B 203      13.084  37.477  -9.388  1.00 70.96 LIG-0.29  OA
ENDBRANCH 46 49
ENDBRANCH 29 42
ENDBRANCH 3 29
TORSDOF 18
ENDMDL
MODEL 4
USER: ADFR SOLUTION from run 149
USER: SCORE 15.607154 LL:  -4.135 LR: -11.915 RR:   0.000 FEB:  -6.545
USER: RMSD 6.637962
USER: SEED 148
USER: STATUS no improvement in best in 3 clusters for 5 generations
USER: GENES 20
USER: genes 0 Translation |==|  0.31621 0.33117 0.30035
USER: genes 1 Rotation |==|  0.62166 0.95765 0.48782 0.66002
USER: genes 2 Torsion [N]-C--CA-[N] |==|  0.94863
USER: genes 3 Torsion [C]-CA--N-[C] |==|  0.81844
USER: genes 4 Torsion [N]-C--CA-[N] |==|  0.50555
USER: genes 5 Torsion [C]-CA--N-[C] |==|  0.57149
USER: genes 6 Torsion [N]-C--CA-[N] |==|  0.93702
USER: genes 7 Torsion [C]-CA--CB-[CG] |==|  0.64366
USER: genes 8 Torsion [CA]-CB--CG-[OD2] |==|  0.28949
USER: genes 9 Torsion [C]-CA--CB-[CG] |==|  0.91183
USER: genes 10 Torsion [CA]-CB--CG-[CD1] |==|  0.34128
USER: genes 11 Torsion [C]-CA--CB-[CG2] |==|  0.77528
USER: genes 12 Torsion [CA]-CB--OG1-[HG1] |==|  0.72132
USER: genes 13 Torsion [C]-N--CA-[C] |==|  0.68319
USER: genes 14 Torsion [N]-CA--CB-[CG] |==|  0.79148
USER: genes 15 Torsion [CA]-CB--CG-[CD] |==|  0.53424
USER: genes 16 Torsion [CB]-CG--CD-[NE] |==|  0.31064
USER: genes 17 Torsion [CG]-CD--NE-[CZ] |==|  0.64282
USER: genes 18 Torsion [N]-CA--C-[N] |==|  0.44245
USER: genes 19 Torsion [N]-CA--C-[O] |==|  0.69549
ROOT
ATOM      1  C   THR B 201       5.746  34.513 -15.377  1.00 36.45 LIG 0.24  C 
ATOM      2 O    THR B 201       5.703  34.714 -16.594  1.00 40.30 LIG-0.27  OA
ATOM      3  N   ARG B 202       5.613  35.482 -14.477  1.00 33.32 LIG-0.35  N 
ATOM      4 H    ARG B 202       5.589  35.338 -13.630  1.00 33.32 LIG 0.16  HD
ENDROOT
BRANCH 1 5
ATOM      5  CA  THR B 201       5.959  33.102 -14.820  1.00 30.51 LIG 0.20  C 
BRANCH 5 6
ATOM      6  N   THR B 201       6.406  33.099 -13.424  1.00 29.33 LIG-0.34  N 
ATOM      7  C   LEU B 200       7.592  33.595 -13.077  1.00 28.22 LIG 0.24  C 
ATOM      8 O    LEU B 200       8.324  34.182 -13.870  1.00 25.98 LIG-0.27  OA
ATOM      9 H    THR B 201       5.846  32.756 -12.869  1.00 29.33 LIG 0.16  HD
BRANCH 7 10
ATOM     10  CA  LEU B 200       8.017  33.417 -11.624  1.00 30.55 LIG 0.18  C 
BRANCH 10 11
ATOM     11  N   LEU B 200       9.300  34.036 -11.353  1.00 35.39 LIG-0.35  N 
ATOM     12 H    LEU B 200       9.501  34.689 -11.875  1.00 35.39 LIG 0.16  HD
ATOM     13  C   ASP B 199      10.075  33.602 -10.369  1.00 42.58 LIG 0.26  C 
ATOM     14 O    ASP B 199       9.776  32.640  -9.661  1.00 44.96 LIG-0.27  OA
BRANCH 13 15
ATOM     15  CA  ASP B 199      11.385  34.355 -10.167  1.00 43.98 LIG 0.41  C 
ATOM     16  N   ASP B 199      11.781  35.046 -11.391  1.00 41.74 LIG 0.61  N 
BRANCH 15 17
ATOM     17  CB  ASP B 199      11.247  35.342  -9.009  1.00 46.67 LIG 0.16  C 
BRANCH 17 18
ATOM     18  CG  ASP B 199      11.678  36.751  -9.384  1.00 50.58 LIG 0.17  C 
ATOM     19 OD2  ASP B 199      10.791  37.608  -9.590  1.00 55.98 LIG-0.65  OA
ATOM     20 OD1  ASP B 199      12.896  37.006  -9.487  1.00 45.33 LIG-0.65  OA
ENDBRANCH 17 18
ENDBRANCH 15 17
ENDBRANCH 13 15
ENDBRANCH 10 11
BRANCH 10 21
ATOM     21  CB  LEU B 200       6.953  33.993 -10.693  1.00 29.00 LIG 0.04  C 
BRANCH 21 22
ATOM     22  CG  LEU B 200       6.188  35.192 -11.249  1.00 29.82 LIG-0.02  C 
ATOM     23  CD1 LEU B 200       4.697  34.899 -11.259  1.00 24.53 LIG 0.01  C 
ATOM     24  CD2 LEU B 200       6.491  36.427 -10.410  1.00 31.40 LIG 0.01  C 
ENDBRANCH 21 22
ENDBRANCH 10 21
ENDBRANCH 7 10
ENDBRANCH 5 6
BRANCH 5 25
ATOM     25  CB  THR B 201       4.649  32.299 -14.990  1.00 29.82 LIG 0.15  C 
ATOM     26  CG2 THR B 201       3.666  32.630 -13.886  1.00 24.76 LIG 0.04  C 
BRANCH 25 27
ATOM     27 OG1  THR B 201       4.054  32.606 -16.257  1.00 30.74 LIG-0.39  OA
ATOM     28 HG1  THR B 201       3.431  33.159 -16.148  1.00 30.74 LIG 0.21  HD
ENDBRANCH 25 27
ENDBRANCH 5 25
ENDBRANCH 1 5
BRANCH 3 29
ATOM     29  CA  ARG B 202       5.495  36.894 -14.839  1.00 35.80 LIG 0.18  C 
BRANCH 29 30
ATOM     30  CB  ARG B 202       4.197  37.441 -14.250  1.00 39.99 LIG 0.04  C 
BRANCH 30 31
ATOM     31  CG  ARG B 202       2.986  36.979 -15.016  1.00 43.12 LIG 0.02  C 
BRANCH 31 32
ATOM     32  CD  ARG B 202       1.740  37.740 -14.633  1.00 49.76 LIG 0.14  C 
BRANCH 32 33
ATOM     33  NE  ARG B 202       1.292  38.580 -15.737  1.00 51.61 LIG-0.23  N 
ATOM     34  CZ  ARG B 202       1.023  39.875 -15.620  1.00 53.48 LIG 0.67  C 
ATOM     35  NH2 ARG B 202       0.625  40.567 -16.678  1.00 55.46 LIG-0.23  N 
ATOM     36  NH1 ARG B 202       1.156  40.477 -14.445  1.00 53.58 LIG-0.23  N 
ATOM     37 2HH2 ARG B 202       0.451  41.405 -16.602  1.00 55.46 LIG 0.17  HD
ATOM     38 1HH2 ARG B 202       0.540  40.177 -17.439  1.00 55.46 LIG 0.17  HD
ATOM     39 2HH1 ARG B 202       0.982  41.315 -14.369  1.00 53.58 LIG 0.17  HD
ATOM     40 1HH1 ARG B 202       1.415  40.028 -13.759  1.00 53.58 LIG 0.17  HD
ATOM     41 HE   ARG B 202       1.195  38.215 -16.510  1.00 51.61 LIG 0.18  HD
ENDBRANCH 32 33
ENDBRANCH 31 32
ENDBRANCH 30 31
ENDBRANCH 29 30
BRANCH 29 42
ATOM     42  C   ARG B 202       6.743  37.665 -14.330  1.00 54.52 LIG 0.24  C 
ATOM     43 O    ARG B 202       7.399  37.172 -13.419  1.00 52.27 LIG-0.27  OA
ATOM     44  N   PRO B 203       7.064  38.867 -14.899  1.00 63.22 LIG-0.34  N 
ATOM     45  CD  PRO B 203       6.092  39.873 -15.349  1.00 67.52 LIG 0.13  C 
ATOM     46  CA  PRO B 203       8.320  39.590 -14.649  1.00 66.04 LIG 0.17  C 
ATOM     47  CG  PRO B 203       6.335  40.977 -14.332  1.00 67.94 LIG 0.02  C 
ATOM     48  CB  PRO B 203       7.819  40.824 -13.880  1.00 64.70 LIG 0.04  C 
BRANCH 46 49
ATOM     49  C   PRO B 203       9.425  38.891 -13.857  1.00 68.17 LIG 0.22  C 
ATOM     50 O    PRO B 203       9.671  39.291 -12.717  1.00 70.96 LIG-0.29  OA
ENDBRANCH 46 49
ENDBRANCH 29 42
ENDBRANCH 3 29
TORSDOF 18
ENDMDL
MODEL 5
USER: ADFR SOLUTION from run 111
USER: SCORE 14.816029 LL:  -3.839 LR: -11.794 RR:   0.000 FEB:  -6.425
USER: RMSD 8.051771
USER: SEED 110
USER: STATUS no improvement in best in 9 clusters for 5 generations
USER: GENES 20
USER: genes 0 Translation |==|  0.29930 0.37382 0.46001
USER: genes 1 Rotation |==|  0.43002 0.25244 0.86859 0.71899
USER: genes 2 Torsion [N]-C--CA-[N] |==|  0.99200
USER: genes 3 Torsion [C]-CA--N-[C] |==|  0.65556
USER: genes 4 Torsion [N]-C--CA-[N] |==|  0.20360
USER: genes 5 Torsion [C]-CA--N-[C] |==|  0.78821
USER: genes 6 Torsion [N]-C--CA-[N] |==|  0.40304
USER: genes 7 Torsion [C]-CA--CB-[CG] |==|  0.68322
USER: genes 8 Torsion [CA]-CB--CG-[OD2] |==|  0.76820
USER: genes 9 Torsion [C]-CA--CB-[CG] |==|  0.38632
USER: genes 10 Torsion [CA]-CB--CG-[CD1] |==|  0.92136
USER: genes 11 Torsion [C]-CA--CB-[CG2] |==|  0.58843
USER: genes 12 Torsion [CA]-CB--OG1-[HG1] |==|  0.56214
USER: genes 13 Torsion [C]-N--CA-[C] |==|  0.64284
USER: genes 14 Torsion [N]-CA--CB-[CG] |==|  0.62852
USER: genes 15 Torsion [CA]-CB--CG-[CD] |==|  0.90272
USER: genes 16 Torsion [CB]-CG--CD-[NE] |==|  0.68383
USER: genes 17 Torsion [CG]-CD--NE-[CZ] |==|  0.80596
USER: genes 18 Torsion [N]-CA--C-[N] |==|  0.06126
USER: genes 19 Torsion [N]-CA--C-[O] |==|  0.53793
ROOT
ATOM      1  C   THR B 201       5.454  35.281 -12.384  1.00 36.45 LIG 0.24  C 
ATOM      2 O    THR B 201       4.380  35.391 -11.787  1.00 40.30 LIG-0.27  OA
ATOM      3  N   ARG B 202       5.650  35.742 -13.615  1.00 33.32 LIG-0.35  N 
ATOM      4 H    ARG B 202       6.412  35.714 -14.013  1.00 33.32 LIG 0.16  HD
ENDROOT
BRANCH 1 5
ATOM      5  CA  THR B 201       6.653  34.590 -11.726  1.00 30.51 LIG 0.20  C 
BRANCH 5 6
ATOM      6  N   THR B 201       7.817  34.495 -12.611  1.00 29.33 LIG-0.34  N 
ATOM      7  C   LEU B 200       8.384  33.323 -12.883  1.00 28.22 LIG 0.24  C 
ATOM      8 O    LEU B 200       7.910  32.253 -12.512  1.00 25.98 LIG-0.27  OA
ATOM      9 H    THR B 201       8.088  35.248 -12.926  1.00 29.33 LIG 0.16  HD
BRANCH 7 10
ATOM     10  CA  LEU B 200       9.671  33.351 -13.702  1.00 30.55 LIG 0.18  C 
BRANCH 10 11
ATOM     11  N   LEU B 200      10.798  33.829 -12.926  1.00 35.39 LIG-0.35  N 
ATOM     12 H    LEU B 200      11.341  33.215 -12.666  1.00 35.39 LIG 0.16  HD
ATOM     13  C   ASP B 199      10.946  35.119 -12.658  1.00 42.58 LIG 0.26  C 
ATOM     14 O    ASP B 199      10.132  35.971 -13.013  1.00 44.96 LIG-0.27  OA
BRANCH 13 15
ATOM     15  CA  ASP B 199      12.189  35.498 -11.858  1.00 43.98 LIG 0.41  C 
ATOM     16  N   ASP B 199      12.706  36.795 -12.285  1.00 41.74 LIG 0.61  N 
BRANCH 15 17
ATOM     17  CB  ASP B 199      11.865  35.510 -10.365  1.00 46.67 LIG 0.16  C 
BRANCH 17 18
ATOM     18  CG  ASP B 199      11.955  36.900  -9.756  1.00 50.58 LIG 0.17  C 
ATOM     19 OD2  ASP B 199      13.078  37.320  -9.401  1.00 55.98 LIG-0.65  OA
ATOM     20 OD1  ASP B 199      10.911  37.571  -9.619  1.00 45.33 LIG-0.65  OA
ENDBRANCH 17 18
ENDBRANCH 15 17
ENDBRANCH 13 15
ENDBRANCH 10 11
BRANCH 10 21
ATOM     21  CB  LEU B 200       9.970  31.961 -14.257  1.00 29.00 LIG 0.04  C 
BRANCH 21 22
ATOM     22  CG  LEU B 200      10.481  31.934 -15.695  1.00 29.82 LIG-0.02  C 
ATOM     23  CD1 LEU B 200       9.944  33.132 -16.460  1.00 24.53 LIG 0.01  C 
ATOM     24  CD2 LEU B 200      12.005  31.929 -15.697  1.00 31.40 LIG 0.01  C 
ENDBRANCH 21 22
ENDBRANCH 10 21
ENDBRANCH 7 10
ENDBRANCH 5 6
BRANCH 5 25
ATOM     25  CB  THR B 201       7.000  35.339 -10.419  1.00 29.82 LIG 0.15  C 
ATOM     26  CG2 THR B 201       8.489  35.275 -10.142  1.00 24.76 LIG 0.04  C 
BRANCH 25 27
ATOM     27 OG1  THR B 201       6.601  36.711 -10.527  1.00 30.74 LIG-0.39  OA
ATOM     28 HG1  THR B 201       7.042  37.175  -9.983  1.00 30.74 LIG 0.21  HD
ENDBRANCH 25 27
ENDBRANCH 5 25
ENDBRANCH 1 5
BRANCH 3 29
ATOM     29  CA  ARG B 202       4.587  36.343 -14.419  1.00 35.80 LIG 0.18  C 
BRANCH 29 30
ATOM     30  CB  ARG B 202       4.843  37.846 -14.519  1.00 39.99 LIG 0.04  C 
BRANCH 30 31
ATOM     31  CG  ARG B 202       3.598  38.653 -14.260  1.00 43.12 LIG 0.02  C 
BRANCH 31 32
ATOM     32  CD  ARG B 202       2.355  37.974 -14.782  1.00 49.76 LIG 0.14  C 
BRANCH 32 33
ATOM     33  NE  ARG B 202       1.772  38.740 -15.876  1.00 51.61 LIG-0.23  N 
ATOM     34  CZ  ARG B 202       1.178  39.917 -15.721  1.00 53.48 LIG 0.67  C 
ATOM     35  NH2 ARG B 202       0.678  40.550 -16.772  1.00 55.46 LIG-0.23  N 
ATOM     36  NH1 ARG B 202       1.086  40.460 -14.513  1.00 53.58 LIG-0.23  N 
ATOM     37 2HH2 ARG B 202       0.293  41.312 -16.672  1.00 55.46 LIG 0.17  HD
ATOM     38 1HH2 ARG B 202       0.738  40.198 -17.554  1.00 55.46 LIG 0.17  HD
ATOM     39 2HH1 ARG B 202       0.702  41.222 -14.413  1.00 53.58 LIG 0.17  HD
ATOM     40 1HH1 ARG B 202       1.412  40.050 -13.832  1.00 53.58 LIG 0.17  HD
ATOM     41 HE   ARG B 202       1.815  38.410 -16.669  1.00 51.61 LIG 0.18  HD
ENDBRANCH 32 33
ENDBRANCH 31 32
ENDBRANCH 30 31
ENDBRANCH 29 30
BRANCH 29 42
ATOM     42  C   ARG B 202       4.542  35.661 -15.812  1.00 54.52 LIG 0.24  C 
ATOM     43 O    ARG B 202       4.016  36.267 -16.739  1.00 52.27 LIG-0.27  OA
ATOM     44  N   PRO B 203       5.073  34.409 -15.961  1.00 63.22 LIG-0.34  N 
ATOM     45  CD  PRO B 203       5.004  33.339 -14.956  1.00 67.52 LIG 0.13  C 
ATOM     46  CA  PRO B 203       5.273  33.744 -17.258  1.00 66.04 LIG 0.17  C 
ATOM     47  CG  PRO B 203       4.065  32.361 -15.647  1.00 67.94 LIG 0.02  C 
ATOM     48  CB  PRO B 203       4.254  32.596 -17.177  1.00 64.70 LIG 0.04  C 
BRANCH 46 49
ATOM     49  C   PRO B 203       5.053  34.551 -18.538  1.00 68.17 LIG 0.22  C 
ATOM     50 O    PRO B 203       4.968  33.942 -19.606  1.00 70.96 LIG-0.29  OA
ENDBRANCH 46 49
ENDBRANCH 29 42
ENDBRANCH 3 29
TORSDOF 18
ENDMDL
MODEL 6
USER: ADFR SOLUTION from run 16
USER: SCORE 13.303966 LL:  -3.533 LR: -11.772 RR:   0.000 FEB:  -6.403
USER: RMSD 6.332729
USER: SEED 343712
USER: STATUS no improvement in best in 33 clusters for 5 generations
USER: GENES 20
USER: genes 0 Translation |==|  0.40591 0.32700 0.52609
USER: genes 1 Rotation |==|  0.20626 0.22807 0.25101 0.66666
USER: genes 2 Torsion [N]-C--CA-[N] |==|  0.52765
USER: genes 3 Torsion [C]-CA--N-[C] |==|  0.64276
USER: genes 4 Torsion [N]-C--CA-[N] |==|  0.04950
USER: genes 5 Torsion [C]-CA--N-[C] |==|  0.59591
USER: genes 6 Torsion [N]-C--CA-[N] |==|  0.54370
USER: genes 7 Torsion [C]-CA--CB-[CG] |==|  0.82783
USER: genes 8 Torsion [CA]-CB--CG-[OD2] |==|  0.77105
USER: genes 9 Torsion [C]-CA--CB-[CG] |==|  0.52138
USER: genes 10 Torsion [CA]-CB--CG-[CD1] |==|  0.30208
USER: genes 11 Torsion [C]-CA--CB-[CG2] |==|  0.79635
USER: genes 12 Torsion [CA]-CB--OG1-[HG1] |==|  0.46817
USER: genes 13 Torsion [C]-N--CA-[C] |==|  0.91466
USER: genes 14 Torsion [N]-CA--CB-[CG] |==|  0.45529
USER: genes 15 Torsion [CA]-CB--CG-[CD] |==|  0.63675
USER: genes 16 Torsion [CB]-CG--CD-[NE] |==|  0.53926
USER: genes 17 Torsion [CG]-CD--NE-[CZ] |==|  0.79372
USER: genes 18 Torsion [N]-CA--C-[N] |==|  0.78450
USER: genes 19 Torsion [N]-CA--C-[O] |==|  0.67864
ROOT
ATOM      1  C   THR B 201       7.293  34.438 -11.145  1.00 36.45 LIG 0.24  C 
ATOM      2 O    THR B 201       7.441  35.533 -10.597  1.00 40.30 LIG-0.27  OA
ATOM      3  N   ARG B 202       7.943  33.343 -10.764  1.00 33.32 LIG-0.35  N 
ATOM      4 H    ARG B 202       7.802  32.567 -11.108  1.00 33.32 LIG 0.16  HD
ENDROOT
BRANCH 1 5
ATOM      5  CA  THR B 201       6.329  34.271 -12.324  1.00 30.51 LIG 0.20  C 
BRANCH 5 6
ATOM      6  N   THR B 201       5.826  35.548 -12.838  1.00 29.33 LIG-0.34  N 
ATOM      7  C   LEU B 200       4.523  35.762 -13.003  1.00 28.22 LIG 0.24  C 
ATOM      8 O    LEU B 200       3.666  34.963 -12.633  1.00 25.98 LIG-0.27  OA
ATOM      9 H    THR B 201       6.436  36.127 -13.018  1.00 29.33 LIG 0.16  HD
BRANCH 7 10
ATOM     10  CA  LEU B 200       4.116  37.071 -13.673  1.00 30.55 LIG 0.18  C 
BRANCH 10 11
ATOM     11  N   LEU B 200       5.221  37.680 -14.387  1.00 35.39 LIG-0.35  N 
ATOM     12 H    LEU B 200       5.763  37.123 -14.753  1.00 35.39 LIG 0.16  HD
ATOM     13  C   ASP B 199       5.350  38.999 -14.450  1.00 42.58 LIG 0.26  C 
ATOM     14 O    ASP B 199       4.576  39.771 -13.884  1.00 44.96 LIG-0.27  OA
BRANCH 13 15
ATOM     15  CA  ASP B 199       6.536  39.517 -15.256  1.00 43.98 LIG 0.41  C 
ATOM     16  N   ASP B 199       6.794  40.923 -14.956  1.00 41.74 LIG 0.61  N 
BRANCH 15 17
ATOM     17  CB  ASP B 199       7.773  38.667 -14.970  1.00 46.67 LIG 0.16  C 
BRANCH 17 18
ATOM     18  CG  ASP B 199       8.201  38.726 -13.511  1.00 50.58 LIG 0.17  C 
ATOM     19 OD2  ASP B 199       8.896  39.695 -13.136  1.00 55.98 LIG-0.65  OA
ATOM     20 OD1  ASP B 199       7.857  37.805 -12.741  1.00 45.33 LIG-0.65  OA
ENDBRANCH 17 18
ENDBRANCH 15 17
ENDBRANCH 13 15
ENDBRANCH 10 11
BRANCH 10 21
ATOM     21  CB  LEU B 200       2.948  36.830 -14.625  1.00 29.00 LIG 0.04  C 
BRANCH 21 22
ATOM     22  CG  LEU B 200       2.567  38.026 -15.495  1.00 29.82 LIG-0.02  C 
ATOM     23  CD1 LEU B 200       2.965  37.767 -16.938  1.00 24.53 LIG 0.01  C 
ATOM     24  CD2 LEU B 200       1.069  38.283 -15.384  1.00 31.40 LIG 0.01  C 
ENDBRANCH 21 22
ENDBRANCH 10 21
ENDBRANCH 7 10
ENDBRANCH 5 6
BRANCH 5 25
ATOM     25  CB  THR B 201       7.037  33.460 -13.432  1.00 29.82 LIG 0.15  C 
ATOM     26  CG2 THR B 201       8.084  34.303 -14.131  1.00 24.76 LIG 0.04  C 
BRANCH 25 27
ATOM     27 OG1  THR B 201       7.667  32.307 -12.860  1.00 30.74 LIG-0.39  OA
ATOM     28 HG1  THR B 201       7.914  31.789 -13.474  1.00 30.74 LIG 0.21  HD
ENDBRANCH 25 27
ENDBRANCH 5 25
ENDBRANCH 1 5
BRANCH 3 29
ATOM     29  CA  ARG B 202       8.965  33.347  -9.718  1.00 35.80 LIG 0.18  C 
BRANCH 29 30
ATOM     30  CB  ARG B 202       9.926  32.187  -9.971  1.00 39.99 LIG 0.04  C 
BRANCH 30 31
ATOM     31  CG  ARG B 202      11.209  32.332  -9.197  1.00 43.12 LIG 0.02  C 
BRANCH 31 32
ATOM     32  CD  ARG B 202      12.428  32.134 -10.065  1.00 49.76 LIG 0.14  C 
BRANCH 32 33
ATOM     33  NE  ARG B 202      13.619  31.950  -9.245  1.00 51.61 LIG-0.23  N 
ATOM     34  CZ  ARG B 202      14.223  32.932  -8.587  1.00 53.48 LIG 0.67  C 
ATOM     35  NH2 ARG B 202      15.300  32.677  -7.859  1.00 55.46 LIG-0.23  N 
ATOM     36  NH1 ARG B 202      13.748  34.170  -8.658  1.00 53.58 LIG-0.23  N 
ATOM     37 2HH2 ARG B 202      15.692  33.313  -7.433  1.00 55.46 LIG 0.17  HD
ATOM     38 1HH2 ARG B 202      15.607  31.876  -7.812  1.00 55.46 LIG 0.17  HD
ATOM     39 2HH1 ARG B 202      14.140  34.806  -8.233  1.00 53.58 LIG 0.17  HD
ATOM     40 1HH1 ARG B 202      13.049  34.335  -9.131  1.00 53.58 LIG 0.17  HD
ATOM     41 HE   ARG B 202      13.949  31.159  -9.183  1.00 51.61 LIG 0.18  HD
ENDBRANCH 32 33
ENDBRANCH 31 32
ENDBRANCH 30 31
ENDBRANCH 29 30
BRANCH 29 42
ATOM     42  C   ARG B 202       9.690  34.719  -9.708  1.00 54.52 LIG 0.24  C 
ATOM     43 O    ARG B 202       9.381  35.535  -8.846  1.00 52.27 LIG-0.27  OA
ATOM     44  N   PRO B 203      10.637  34.982 -10.661  1.00 63.22 LIG-0.34  N 
ATOM     45  CD  PRO B 203      10.567  34.543 -12.062  1.00 67.52 LIG 0.13  C 
ATOM     46  CA  PRO B 203      11.529  36.151 -10.640  1.00 66.04 LIG 0.17  C 
ATOM     47  CG  PRO B 203      10.361  35.874 -12.767  1.00 67.94 LIG 0.02  C 
ATOM     48  CB  PRO B 203      11.021  36.950 -11.852  1.00 64.70 LIG 0.04  C 
BRANCH 46 49
ATOM     49  C   PRO B 203      11.546  37.039  -9.396  1.00 68.17 LIG 0.22  C 
ATOM     50 O    PRO B 203      11.164  38.206  -9.504  1.00 70.96 LIG-0.29  OA
ENDBRANCH 46 49
ENDBRANCH 29 42
ENDBRANCH 3 29
TORSDOF 18
ENDMDL
MODEL 7
USER: ADFR SOLUTION from run 138
USER: SCORE 15.434915 LL:  -4.296 LR: -11.759 RR:   0.000 FEB:  -6.390
USER: RMSD 6.479053
USER: SEED 137
USER: STATUS no improvement in best in 4 clusters for 5 generations
USER: GENES 20
USER: genes 0 Translation |==|  0.32330 0.34208 0.34009
USER: genes 1 Rotation |==|  0.65380 0.95098 0.64308 0.54995
USER: genes 2 Torsion [N]-C--CA-[N] |==|  0.88866
USER: genes 3 Torsion [C]-CA--N-[C] |==|  0.80307
USER: genes 4 Torsion [N]-C--CA-[N] |==|  0.39914
USER: genes 5 Torsion [C]-CA--N-[C] |==|  0.67312
USER: genes 6 Torsion [N]-C--CA-[N] |==|  0.42586
USER: genes 7 Torsion [C]-CA--CB-[CG] |==|  0.77017
USER: genes 8 Torsion [CA]-CB--CG-[OD2] |==|  0.78978
USER: genes 9 Torsion [C]-CA--CB-[CG] |==|  0.25456
USER: genes 10 Torsion [CA]-CB--CG-[CD1] |==|  0.38774
USER: genes 11 Torsion [C]-CA--CB-[CG2] |==|  0.91499
USER: genes 12 Torsion [CA]-CB--OG1-[HG1] |==|  0.71808
USER: genes 13 Torsion [C]-N--CA-[C] |==|  0.63479
USER: genes 14 Torsion [N]-CA--CB-[CG] |==|  0.82243
USER: genes 15 Torsion [CA]-CB--CG-[CD] |==|  0.87508
USER: genes 16 Torsion [CB]-CG--CD-[NE] |==|  0.64434
USER: genes 17 Torsion [CG]-CD--NE-[CZ] |==|  0.61246
USER: genes 18 Torsion [N]-CA--C-[N] |==|  0.12056
USER: genes 19 Torsion [N]-CA--C-[O] |==|  0.62555
ROOT
ATOM      1  C   THR B 201       5.868  34.709 -14.632  1.00 36.45 LIG 0.24  C 
ATOM      2 O    THR B 201       5.534  35.649 -15.359  1.00 40.30 LIG-0.27  OA
ATOM      3  N   ARG B 202       5.986  34.819 -13.313  1.00 33.32 LIG-0.35  N 
ATOM      4 H    ARG B 202       6.166  34.154 -12.799  1.00 33.32 LIG 0.16  HD
ENDROOT
BRANCH 1 5
ATOM      5  CA  THR B 201       6.173  33.329 -15.222  1.00 30.51 LIG 0.20  C 
BRANCH 5 6
ATOM      6  N   THR B 201       7.324  32.677 -14.590  1.00 29.33 LIG-0.34  N 
ATOM      7  C   LEU B 200       8.564  33.117 -14.791  1.00 28.22 LIG 0.24  C 
ATOM      8 O    LEU B 200       8.811  34.147 -15.412  1.00 25.98 LIG-0.27  OA
ATOM      9 H    THR B 201       7.125  32.004 -14.093  1.00 29.33 LIG 0.16  HD
BRANCH 7 10
ATOM     10  CA  LEU B 200       9.696  32.285 -14.199  1.00 30.55 LIG 0.18  C 
BRANCH 10 11
ATOM     11  N   LEU B 200      10.864  32.268 -15.058  1.00 35.39 LIG-0.35  N 
ATOM     12 H    LEU B 200      11.226  33.036 -15.188  1.00 35.39 LIG 0.16  HD
ATOM     13  C   ASP B 199      11.310  31.134 -15.583  1.00 42.58 LIG 0.26  C 
ATOM     14 O    ASP B 199      10.748  30.053 -15.407  1.00 44.96 LIG-0.27  OA
BRANCH 13 15
ATOM     15  CA  ASP B 199      12.563  31.244 -16.445  1.00 43.98 LIG 0.41  C 
ATOM     16  N   ASP B 199      13.305  29.986 -16.444  1.00 41.74 LIG 0.61  N 
BRANCH 15 17
ATOM     17  CB  ASP B 199      12.183  31.646 -17.869  1.00 46.67 LIG 0.16  C 
BRANCH 17 18
ATOM     18  CG  ASP B 199      11.745  30.462 -18.717  1.00 50.58 LIG 0.17  C 
ATOM     19 OD2  ASP B 199      12.624  29.683 -19.147  1.00 55.98 LIG-0.65  OA
ATOM     20 OD1  ASP B 199      10.531  30.311 -18.967  1.00 45.33 LIG-0.65  OA
ENDBRANCH 17 18
ENDBRANCH 15 17
ENDBRANCH 13 15
ENDBRANCH 10 11
BRANCH 10 21
ATOM     21  CB  LEU B 200      10.072  32.818 -12.819  1.00 29.00 LIG 0.04  C 
BRANCH 21 22
ATOM     22  CG  LEU B 200       9.333  32.169 -11.651  1.00 29.82 LIG-0.02  C 
ATOM     23  CD1 LEU B 200      10.288  31.944 -10.491  1.00 24.53 LIG 0.01  C 
ATOM     24  CD2 LEU B 200       8.166  33.052 -11.228  1.00 31.40 LIG 0.01  C 
ENDBRANCH 21 22
ENDBRANCH 10 21
ENDBRANCH 7 10
ENDBRANCH 5 6
BRANCH 5 25
ATOM     25  CB  THR B 201       4.904  32.453 -15.115  1.00 29.82 LIG 0.15  C 
ATOM     26  CG2 THR B 201       4.080  32.844 -13.905  1.00 24.76 LIG 0.04  C 
BRANCH 25 27
ATOM     27 OG1  THR B 201       4.108  32.608 -16.296  1.00 30.74 LIG-0.39  OA
ATOM     28 HG1  THR B 201       3.467  33.127 -16.137  1.00 30.74 LIG 0.21  HD
ENDBRANCH 25 27
ENDBRANCH 5 25
ENDBRANCH 1 5
BRANCH 3 29
ATOM     29  CA  ARG B 202       5.822  36.086 -12.602  1.00 35.80 LIG 0.18  C 
BRANCH 29 30
ATOM     30  CB  ARG B 202       4.474  36.070 -11.883  1.00 39.99 LIG 0.04  C 
BRANCH 30 31
ATOM     31  CG  ARG B 202       3.318  35.998 -12.845  1.00 43.12 LIG 0.02  C 
BRANCH 31 32
ATOM     32  CD  ARG B 202       3.478  36.948 -14.006  1.00 49.76 LIG 0.14  C 
BRANCH 32 33
ATOM     33  NE  ARG B 202       2.287  37.776 -14.160  1.00 51.61 LIG-0.23  N 
ATOM     34  CZ  ARG B 202       1.753  38.093 -15.334  1.00 53.48 LIG 0.67  C 
ATOM     35  NH2 ARG B 202       0.665  38.847 -15.384  1.00 55.46 LIG-0.23  N 
ATOM     36  NH1 ARG B 202       2.307  37.651 -16.456  1.00 53.58 LIG-0.23  N 
ATOM     37 2HH2 ARG B 202       0.319  39.052 -16.144  1.00 55.46 LIG 0.17  HD
ATOM     38 1HH2 ARG B 202       0.306  39.132 -14.657  1.00 55.46 LIG 0.17  HD
ATOM     39 2HH1 ARG B 202       1.961  37.856 -17.216  1.00 53.58 LIG 0.17  HD
ATOM     40 1HH1 ARG B 202       3.013  37.161 -16.423  1.00 53.58 LIG 0.17  HD
ATOM     41 HE   ARG B 202       1.910  38.077 -13.449  1.00 51.61 LIG 0.18  HD
ENDBRANCH 32 33
ENDBRANCH 31 32
ENDBRANCH 30 31
ENDBRANCH 29 30
BRANCH 29 42
ATOM     42  C   ARG B 202       7.008  36.288 -11.622  1.00 54.52 LIG 0.24  C 
ATOM     43 O    ARG B 202       6.767  36.711 -10.496  1.00 52.27 LIG-0.27  OA
ATOM     44  N   PRO B 203       8.278  36.004 -12.042  1.00 63.22 LIG-0.34  N 
ATOM     45  CD  PRO B 203       8.793  36.250 -13.397  1.00 67.52 LIG 0.13  C 
ATOM     46  CA  PRO B 203       9.452  35.960 -11.158  1.00 66.04 LIG 0.17  C 
ATOM     47  CG  PRO B 203       9.785  37.370 -13.124  1.00 67.94 LIG 0.02  C 
ATOM     48  CB  PRO B 203      10.257  37.174 -11.651  1.00 64.70 LIG 0.04  C 
BRANCH 46 49
ATOM     49  C   PRO B 203       9.236  36.052  -9.647  1.00 68.17 LIG 0.22  C 
ATOM     50 O    PRO B 203       9.966  36.803  -8.996  1.00 70.96 LIG-0.29  OA
ENDBRANCH 46 49
ENDBRANCH 29 42
ENDBRANCH 3 29
TORSDOF 18
ENDMDL
MODEL 8
USER: ADFR SOLUTION from run 52
USER: SCORE 13.414533 LL:  -2.719 LR: -11.640 RR:   0.000 FEB:  -6.271
USER: RMSD 7.938008
USER: SEED 51
USER: STATUS no improvement in best in 5 clusters for 5 generations
USER: GENES 20
USER: genes 0 Translation |==|  0.32933 0.30503 0.43150
USER: genes 1 Rotation |==|  0.53280 0.80071 0.10850 0.57230
USER: genes 2 Torsion [N]-C--CA-[N] |==|  0.81318
USER: genes 3 Torsion [C]-CA--N-[C] |==|  0.63614
USER: genes 4 Torsion [N]-C--CA-[N] |==|  0.07236
USER: genes 5 Torsion [C]-CA--N-[C] |==|  0.14528
USER: genes 6 Torsion [N]-C--CA-[N] |==|  0.30637
USER: genes 7 Torsion [C]-CA--CB-[CG] |==|  0.03717
USER: genes 8 Torsion [CA]-CB--CG-[OD2] |==|  0.21874
USER: genes 9 Torsion [C]-CA--CB-[CG] |==|  0.31565
USER: genes 10 Torsion [CA]-CB--CG-[CD1] |==|  0.96631
USER: genes 11 Torsion [C]-CA--CB-[CG2] |==|  0.17701
USER: genes 12 Torsion [CA]-CB--OG1-[HG1] |==|  0.22007
USER: genes 13 Torsion [C]-N--CA-[C] |==|  0.61566
USER: genes 14 Torsion [N]-CA--CB-[CG] |==|  0.95640
USER: genes 15 Torsion [CA]-CB--CG-[CD] |==|  0.32294
USER: genes 16 Torsion [CB]-CG--CD-[NE] |==|  0.31618
USER: genes 17 Torsion [CG]-CD--NE-[CZ] |==|  0.72750
USER: genes 18 Torsion [N]-CA--C-[N] |==|  0.45944
USER: genes 19 Torsion [N]-CA--C-[O] |==|  0.18724
ROOT
ATOM      1  C   THR B 201       5.972  34.043 -12.918  1.00 36.45 LIG 0.24  C 
ATOM      2 O    THR B 201       5.243  33.048 -12.930  1.00 40.30 LIG-0.27  OA
ATOM      3  N   ARG B 202       6.205  34.784 -13.997  1.00 33.32 LIG-0.35  N 
ATOM      4 H    ARG B 202       6.668  35.508 -13.980  1.00 33.32 LIG 0.16  HD
ENDROOT
BRANCH 1 5
ATOM      5  CA  THR B 201       6.668  34.493 -11.630  1.00 30.51 LIG 0.20  C 
BRANCH 5 6
ATOM      6  N   THR B 201       8.125  34.346 -11.685  1.00 29.33 LIG-0.34  N 
ATOM      7  C   LEU B 200       8.797  33.752 -10.702  1.00 28.22 LIG 0.24  C 
ATOM      8 O    LEU B 200       8.241  33.195  -9.759  1.00 25.98 LIG-0.27  OA
ATOM      9 H    THR B 201       8.492  34.672 -12.391  1.00 29.33 LIG 0.16  HD
BRANCH 7 10
ATOM     10  CA  LEU B 200      10.320  33.775 -10.793  1.00 30.55 LIG 0.18  C 
BRANCH 10 11
ATOM     11  N   LEU B 200      10.800  34.906 -11.562  1.00 35.39 LIG-0.35  N 
ATOM     12 H    LEU B 200      11.343  34.704 -12.197  1.00 35.39 LIG 0.16  HD
ATOM     13  C   ASP B 199      10.409  36.141 -11.279  1.00 42.58 LIG 0.26  C 
ATOM     14 O    ASP B 199       9.657  36.403 -10.339  1.00 44.96 LIG-0.27  OA
BRANCH 13 15
ATOM     15  CA  ASP B 199      10.961  37.241 -12.179  1.00 43.98 LIG 0.41  C 
ATOM     16  N   ASP B 199       9.907  37.802 -13.020  1.00 41.74 LIG 0.61  N 
BRANCH 15 17
ATOM     17  CB  ASP B 199      11.613  38.332 -11.331  1.00 46.67 LIG 0.16  C 
BRANCH 17 18
ATOM     18  CG  ASP B 199      11.834  37.901  -9.890  1.00 50.58 LIG 0.17  C 
ATOM     19 OD2  ASP B 199      12.810  37.161  -9.635  1.00 55.98 LIG-0.65  OA
ATOM     20 OD1  ASP B 199      11.034  38.285  -9.012  1.00 45.33 LIG-0.65  OA
ENDBRANCH 17 18
ENDBRANCH 15 17
ENDBRANCH 13 15
ENDBRANCH 10 11
BRANCH 10 21
ATOM     21  CB  LEU B 200      10.928  33.800  -9.393  1.00 29.00 LIG 0.04  C 
BRANCH 21 22
ATOM     22  CG  LEU B 200      11.714  32.549  -9.007  1.00 29.82 LIG-0.02  C 
ATOM     23  CD1 LEU B 200      11.454  31.440 -10.013  1.00 24.53 LIG 0.01  C 
ATOM     24  CD2 LEU B 200      13.199  32.879  -8.937  1.00 31.40 LIG 0.01  C 
ENDBRANCH 21 22
ENDBRANCH 10 21
ENDBRANCH 7 10
ENDBRANCH 5 6
BRANCH 5 25
ATOM     25  CB  THR B 201       6.262  35.954 -11.332  1.00 29.82 LIG 0.15  C 
ATOM     26  CG2 THR B 201       4.774  36.055 -11.065  1.00 24.76 LIG 0.04  C 
BRANCH 25 27
ATOM     27 OG1  THR B 201       6.979  36.432 -10.188  1.00 30.74 LIG-0.39  OA
ATOM     28 HG1  THR B 201       7.759  36.648 -10.415  1.00 30.74 LIG 0.21  HD
ENDBRANCH 25 27
ENDBRANCH 5 25
ENDBRANCH 1 5
BRANCH 3 29
ATOM     29  CA  ARG B 202       5.693  34.442 -15.324  1.00 35.80 LIG 0.18  C 
BRANCH 29 30
ATOM     30  CB  ARG B 202       4.432  35.262 -15.586  1.00 39.99 LIG 0.04  C 
BRANCH 30 31
ATOM     31  CG  ARG B 202       3.875  35.867 -14.325  1.00 43.12 LIG 0.02  C 
BRANCH 31 32
ATOM     32  CD  ARG B 202       3.906  37.375 -14.349  1.00 49.76 LIG 0.14  C 
BRANCH 32 33
ATOM     33  NE  ARG B 202       2.553  37.917 -14.365  1.00 51.61 LIG-0.23  N 
ATOM     34  CZ  ARG B 202       1.929  38.319 -15.467  1.00 53.48 LIG 0.67  C 
ATOM     35  NH2 ARG B 202       0.695  38.795 -15.392  1.00 55.46 LIG-0.23  N 
ATOM     36  NH1 ARG B 202       2.541  38.241 -16.642  1.00 53.58 LIG-0.23  N 
ATOM     37 2HH2 ARG B 202       0.291  39.055 -16.105  1.00 55.46 LIG 0.17  HD
ATOM     38 1HH2 ARG B 202       0.299  38.844 -14.631  1.00 55.46 LIG 0.17  HD
ATOM     39 2HH1 ARG B 202       2.137  38.501 -17.355  1.00 53.58 LIG 0.17  HD
ATOM     40 1HH1 ARG B 202       3.342  37.931 -16.689  1.00 53.58 LIG 0.17  HD
ATOM     41 HE   ARG B 202       2.134  37.981 -13.617  1.00 51.61 LIG 0.18  HD
ENDBRANCH 32 33
ENDBRANCH 31 32
ENDBRANCH 30 31
ENDBRANCH 29 30
BRANCH 29 42
ATOM     42  C   ARG B 202       6.795  34.701 -16.386  1.00 54.52 LIG 0.24  C 
ATOM     43 O    ARG B 202       7.762  35.384 -16.065  1.00 52.27 LIG-0.27  OA
ATOM     44  N   PRO B 203       6.651  34.176 -17.641  1.00 63.22 LIG-0.34  N 
ATOM     45  CD  PRO B 203       5.377  34.058 -18.363  1.00 67.52 LIG 0.13  C 
ATOM     46  CA  PRO B 203       7.706  34.179 -18.665  1.00 66.04 LIG 0.17  C 
ATOM     47  CG  PRO B 203       5.584  35.078 -19.473  1.00 67.94 LIG 0.02  C 
ATOM     48  CB  PRO B 203       7.124  35.147 -19.707  1.00 64.70 LIG 0.04  C 
BRANCH 46 49
ATOM     49  C   PRO B 203       9.115  34.622 -18.266  1.00 68.17 LIG 0.22  C 
ATOM     50 O    PRO B 203       9.754  33.911 -17.488  1.00 70.96 LIG-0.29  OA
ENDBRANCH 46 49
ENDBRANCH 29 42
ENDBRANCH 3 29
TORSDOF 18
ENDMDL
MODEL 9
USER: ADFR SOLUTION from run 7
USER: SCORE 14.486047 LL:  -3.889 LR: -11.518 RR:   0.000 FEB:  -6.149
USER: RMSD 7.342352
USER: SEED 178414
USER: STATUS no improvement in best in 8 clusters for 5 generations
USER: GENES 20
USER: genes 0 Translation |==|  0.33736 0.30507 0.43502
USER: genes 1 Rotation |==|  0.60997 0.76358 0.09761 0.58073
USER: genes 2 Torsion [N]-C--CA-[N] |==|  0.85817
USER: genes 3 Torsion [C]-CA--N-[C] |==|  0.83393
USER: genes 4 Torsion [N]-C--CA-[N] |==|  0.93917
USER: genes 5 Torsion [C]-CA--N-[C] |==|  0.70845
USER: genes 6 Torsion [N]-C--CA-[N] |==|  0.58891
USER: genes 7 Torsion [C]-CA--CB-[CG] |==|  0.28571
USER: genes 8 Torsion [CA]-CB--CG-[OD2] |==|  0.48857
USER: genes 9 Torsion [C]-CA--CB-[CG] |==|  0.37088
USER: genes 10 Torsion [CA]-CB--CG-[CD1] |==|  0.89837
USER: genes 11 Torsion [C]-CA--CB-[CG2] |==|  0.21653
USER: genes 12 Torsion [CA]-CB--OG1-[HG1] |==|  0.29341
USER: genes 13 Torsion [C]-N--CA-[C] |==|  0.60066
USER: genes 14 Torsion [N]-CA--CB-[CG] |==|  0.93797
USER: genes 15 Torsion [CA]-CB--CG-[CD] |==|  0.36101
USER: genes 16 Torsion [CB]-CG--CD-[NE] |==|  0.39020
USER: genes 17 Torsion [CG]-CD--NE-[CZ] |==|  0.71945
USER: genes 18 Torsion [N]-CA--C-[N] |==|  0.09913
USER: genes 19 Torsion [N]-CA--C-[O] |==|  0.19966
ROOT
ATOM      1  C   THR B 201       6.110  34.043 -12.852  1.00 36.45 LIG 0.24  C 
ATOM      2 O    THR B 201       5.239  33.183 -12.998  1.00 40.30 LIG-0.27  OA
ATOM      3  N   ARG B 202       6.757  34.600 -13.871  1.00 33.32 LIG-0.35  N 
ATOM      4 H    ARG B 202       7.326  35.238 -13.776  1.00 33.32 LIG 0.16  HD
ENDROOT
BRANCH 1 5
ATOM      5  CA  THR B 201       6.508  34.533 -11.456  1.00 30.51 LIG 0.20  C 
BRANCH 5 6
ATOM      6  N   THR B 201       7.955  34.493 -11.225  1.00 29.33 LIG-0.34  N 
ATOM      7  C   LEU B 200       8.636  33.352 -11.300  1.00 28.22 LIG 0.24  C 
ATOM      8 O    LEU B 200       8.128  32.299 -11.675  1.00 25.98 LIG-0.27  OA
ATOM      9 H    THR B 201       8.309  35.255 -11.042  1.00 29.33 LIG 0.16  HD
BRANCH 7 10
ATOM     10  CA  LEU B 200      10.109  33.400 -10.907  1.00 30.55 LIG 0.18  C 
BRANCH 10 11
ATOM     11  N   LEU B 200      10.652  34.741 -11.000  1.00 35.39 LIG-0.35  N 
ATOM     12 H    LEU B 200      10.412  35.270 -10.366  1.00 35.39 LIG 0.16  HD
ATOM     13  C   ASP B 199      11.454  35.087 -11.998  1.00 42.58 LIG 0.26  C 
ATOM     14 O    ASP B 199      11.751  34.316 -12.911  1.00 44.96 LIG-0.27  OA
BRANCH 13 15
ATOM     15  CA  ASP B 199      11.984  36.516 -11.966  1.00 43.98 LIG 0.41  C 
ATOM     16  N   ASP B 199      12.174  37.030 -13.320  1.00 41.74 LIG 0.61  N 
BRANCH 15 17
ATOM     17  CB  ASP B 199      11.027  37.410 -11.179  1.00 46.67 LIG 0.16  C 
BRANCH 17 18
ATOM     18  CG  ASP B 199      11.531  37.719  -9.778  1.00 50.58 LIG 0.17  C 
ATOM     19 OD2  ASP B 199      10.867  38.507  -9.069  1.00 55.98 LIG-0.65  OA
ATOM     20 OD1  ASP B 199      12.592  37.191  -9.384  1.00 45.33 LIG-0.65  OA
ENDBRANCH 17 18
ENDBRANCH 15 17
ENDBRANCH 13 15
ENDBRANCH 10 11
BRANCH 10 21
ATOM     21  CB  LEU B 200      10.291  32.860  -9.491  1.00 29.00 LIG 0.04  C 
BRANCH 21 22
ATOM     22  CG  LEU B 200      11.434  31.862  -9.322  1.00 29.82 LIG-0.02  C 
ATOM     23  CD1 LEU B 200      11.541  30.979 -10.555  1.00 24.53 LIG 0.01  C 
ATOM     24  CD2 LEU B 200      12.737  32.612  -9.078  1.00 31.40 LIG 0.01  C 
ENDBRANCH 21 22
ENDBRANCH 10 21
ENDBRANCH 7 10
ENDBRANCH 5 6
BRANCH 5 25
ATOM     25  CB  THR B 201       5.946  35.958 -11.252  1.00 29.82 LIG 0.15  C 
ATOM     26  CG2 THR B 201       4.465  35.912 -10.932  1.00 24.76 LIG 0.04  C 
BRANCH 25 27
ATOM     27 OG1  THR B 201       6.639  36.602 -10.177  1.00 30.74 LIG-0.39  OA
ATOM     28 HG1  THR B 201       7.168  37.176 -10.488  1.00 30.74 LIG 0.21  HD
ENDBRANCH 25 27
ENDBRANCH 5 25
ENDBRANCH 1 5
BRANCH 3 29
ATOM     29  CA  ARG B 202       6.565  34.182 -15.260  1.00 35.80 LIG 0.18  C 
BRANCH 29 30
ATOM     30  CB  ARG B 202       5.495  35.070 -15.892  1.00 39.99 LIG 0.04  C 
BRANCH 30 31
ATOM     31  CG  ARG B 202       4.597  35.700 -14.860  1.00 43.12 LIG 0.02  C 
BRANCH 31 32
ATOM     32  CD  ARG B 202       4.455  37.190 -15.056  1.00 49.76 LIG 0.14  C 
BRANCH 32 33
ATOM     33  NE  ARG B 202       3.083  37.613 -14.803  1.00 51.61 LIG-0.23  N 
ATOM     34  CZ  ARG B 202       2.198  37.866 -15.760  1.00 53.48 LIG 0.67  C 
ATOM     35  NH2 ARG B 202       0.968  38.241 -15.441  1.00 55.46 LIG-0.23  N 
ATOM     36  NH1 ARG B 202       2.545  37.742 -17.035  1.00 53.58 LIG-0.23  N 
ATOM     37 2HH2 ARG B 202       0.395  38.405 -16.060  1.00 55.46 LIG 0.17  HD
ATOM     38 1HH2 ARG B 202       0.744  38.321 -14.615  1.00 55.46 LIG 0.17  HD
ATOM     39 2HH1 ARG B 202       1.972  37.906 -17.654  1.00 53.58 LIG 0.17  HD
ATOM     40 1HH1 ARG B 202       3.343  37.497 -17.241  1.00 53.58 LIG 0.17  HD
ATOM     41 HE   ARG B 202       2.833  37.704 -13.985  1.00 51.61 LIG 0.18  HD
ENDBRANCH 32 33
ENDBRANCH 31 32
ENDBRANCH 30 31
ENDBRANCH 29 30
BRANCH 29 42
ATOM     42  C   ARG B 202       7.918  34.262 -16.016  1.00 54.52 LIG 0.24  C 
ATOM     43 O    ARG B 202       7.905  34.595 -17.196  1.00 52.27 LIG-0.27  OA
ATOM     44  N   PRO B 203       9.074  33.950 -15.355  1.00 63.22 LIG-0.34  N 
ATOM     45  CD  PRO B 203       9.207  32.888 -14.347  1.00 67.52 LIG 0.13  C 
ATOM     46  CA  PRO B 203      10.423  34.178 -15.894  1.00 66.04 LIG 0.17  C 
ATOM     47  CG  PRO B 203      10.083  31.895 -15.096  1.00 67.94 LIG 0.02  C 
ATOM     48  CB  PRO B 203      10.920  32.739 -16.105  1.00 64.70 LIG 0.04  C 
BRANCH 46 49
ATOM     49  C   PRO B 203      10.571  34.980 -17.187  1.00 68.17 LIG 0.22  C 
ATOM     50 O    PRO B 203      10.364  36.195 -17.149  1.00 70.96 LIG-0.29  OA
ENDBRANCH 46 49
ENDBRANCH 29 42
ENDBRANCH 3 29
TORSDOF 18
ENDMDL
MODEL 10
USER: ADFR SOLUTION from run 77
USER: SCORE 13.753294 LL:  -3.473 LR: -11.496 RR:   0.000 FEB:  -6.126
USER: RMSD 6.610853
USER: SEED 76
USER: STATUS no improvement in best in 3 clusters for 5 generations
USER: GENES 20
USER: genes 0 Translation |==|  0.34123 0.41756 0.36159
USER: genes 1 Rotation |==|  0.52884 0.93006 0.37412 0.71993
USER: genes 2 Torsion [N]-C--CA-[N] |==|  0.67677
USER: genes 3 Torsion [C]-CA--N-[C] |==|  0.65569
USER: genes 4 Torsion [N]-C--CA-[N] |==|  0.11383
USER: genes 5 Torsion [C]-CA--N-[C] |==|  0.15210
USER: genes 6 Torsion [N]-C--CA-[N] |==|  0.78221
USER: genes 7 Torsion [C]-CA--CB-[CG] |==|  0.51691
USER: genes 8 Torsion [CA]-CB--CG-[OD2] |==|  0.21893
USER: genes 9 Torsion [C]-CA--CB-[CG] |==|  0.59221
USER: genes 10 Torsion [CA]-CB--CG-[CD1] |==|  0.34388
USER: genes 11 Torsion [C]-CA--CB-[CG2] |==|  0.32677
USER: genes 12 Torsion [CA]-CB--OG1-[HG1] |==|  0.32813
USER: genes 13 Torsion [C]-N--CA-[C] |==|  0.60777
USER: genes 14 Torsion [N]-CA--CB-[CG] |==|  0.01421
USER: genes 15 Torsion [CA]-CB--CG-[CD] |==|  0.44650
USER: genes 16 Torsion [CB]-CG--CD-[NE] |==|  0.03054
USER: genes 17 Torsion [CG]-CD--NE-[CZ] |==|  0.70057
USER: genes 18 Torsion [N]-CA--C-[N] |==|  0.11601
USER: genes 19 Torsion [N]-CA--C-[O] |==|  0.31457
ROOT
ATOM      1  C   THR B 201       6.177  36.068 -14.229  1.00 36.45 LIG 0.24  C 
ATOM      2 O    THR B 201       6.329  35.548 -15.337  1.00 40.30 LIG-0.27  OA
ATOM      3  N   ARG B 202       5.766  37.322 -14.066  1.00 33.32 LIG-0.35  N 
ATOM      4 H    ARG B 202       5.608  37.669 -13.296  1.00 33.32 LIG 0.16  HD
ENDROOT
BRANCH 1 5
ATOM      5  CA  THR B 201       6.460  35.281 -12.945  1.00 30.51 LIG 0.20  C 
BRANCH 5 6
ATOM      6  N   THR B 201       7.865  34.888 -12.812  1.00 29.33 LIG-0.34  N 
ATOM      7  C   LEU B 200       8.214  33.613 -12.649  1.00 28.22 LIG 0.24  C 
ATOM      8 O    LEU B 200       7.406  32.690 -12.715  1.00 25.98 LIG-0.27  OA
ATOM      9 H    THR B 201       8.424  35.540 -12.848  1.00 29.33 LIG 0.16  HD
BRANCH 7 10
ATOM     10  CA  LEU B 200       9.688  33.329 -12.382  1.00 30.55 LIG 0.18  C 
BRANCH 10 11
ATOM     11  N   LEU B 200      10.270  34.293 -11.469  1.00 35.39 LIG-0.35  N 
ATOM     12 H    LEU B 200      10.972  34.691 -11.766  1.00 35.39 LIG 0.16  HD
ATOM     13  C   ASP B 199       9.734  34.517 -10.277  1.00 42.58 LIG 0.26  C 
ATOM     14 O    ASP B 199       8.748  33.904  -9.865  1.00 44.96 LIG-0.27  OA
BRANCH 13 15
ATOM     15  CA  ASP B 199      10.421  35.576  -9.422  1.00 43.98 LIG 0.41  C 
ATOM     16  N   ASP B 199      11.627  35.038  -8.799  1.00 41.74 LIG 0.61  N 
BRANCH 15 17
ATOM     17  CB  ASP B 199      10.753  36.800 -10.274  1.00 46.67 LIG 0.16  C 
BRANCH 17 18
ATOM     18  CG  ASP B 199      11.572  37.836  -9.520  1.00 50.58 LIG 0.17  C 
ATOM     19 OD2  ASP B 199      12.799  37.637  -9.384  1.00 55.98 LIG-0.65  OA
ATOM     20 OD1  ASP B 199      10.997  38.840  -9.051  1.00 45.33 LIG-0.65  OA
ENDBRANCH 17 18
ENDBRANCH 15 17
ENDBRANCH 13 15
ENDBRANCH 10 11
BRANCH 10 21
ATOM     21  CB  LEU B 200       9.857  31.917 -11.828  1.00 29.00 LIG 0.04  C 
BRANCH 21 22
ATOM     22  CG  LEU B 200      10.997  31.748 -10.826  1.00 29.82 LIG-0.02  C 
ATOM     23  CD1 LEU B 200      10.464  31.181  -9.521  1.00 24.53 LIG 0.01  C 
ATOM     24  CD2 LEU B 200      12.066  30.837 -11.416  1.00 31.40 LIG 0.01  C 
ENDBRANCH 21 22
ENDBRANCH 10 21
ENDBRANCH 7 10
ENDBRANCH 5 6
BRANCH 5 25
ATOM     25  CB  THR B 201       5.996  36.124 -11.736  1.00 29.82 LIG 0.15  C 
ATOM     26  CG2 THR B 201       4.891  35.415 -10.978  1.00 24.76 LIG 0.04  C 
BRANCH 25 27
ATOM     27 OG1  THR B 201       7.100  36.352 -10.852  1.00 30.74 LIG-0.39  OA
ATOM     28 HG1  THR B 201       7.252  37.177 -10.799  1.00 30.74 LIG 0.21  HD
ENDBRANCH 25 27
ENDBRANCH 5 25
ENDBRANCH 1 5
BRANCH 3 29
ATOM     29  CA  ARG B 202       5.541  38.237 -15.184  1.00 35.80 LIG 0.18  C 
BRANCH 29 30
ATOM     30  CB  ARG B 202       4.057  38.211 -15.544  1.00 39.99 LIG 0.04  C 
BRANCH 30 31
ATOM     31  CG  ARG B 202       3.255  37.368 -14.588  1.00 43.12 LIG 0.02  C 
BRANCH 31 32
ATOM     32  CD  ARG B 202       1.782  37.692 -14.634  1.00 49.76 LIG 0.14  C 
BRANCH 32 33
ATOM     33  NE  ARG B 202       1.480  38.552 -15.772  1.00 51.61 LIG-0.23  N 
ATOM     34  CZ  ARG B 202       1.170  39.838 -15.666  1.00 53.48 LIG 0.67  C 
ATOM     35  NH2 ARG B 202       0.914  40.550 -16.754  1.00 55.46 LIG-0.23  N 
ATOM     36  NH1 ARG B 202       1.117  40.412 -14.470  1.00 53.58 LIG-0.23  N 
ATOM     37 2HH2 ARG B 202       0.713  41.383 -16.686  1.00 55.46 LIG 0.17  HD
ATOM     38 1HH2 ARG B 202       0.949  40.178 -17.528  1.00 55.46 LIG 0.17  HD
ATOM     39 2HH1 ARG B 202       0.916  41.245 -14.402  1.00 53.58 LIG 0.17  HD
ATOM     40 1HH1 ARG B 202       1.284  39.950 -13.764  1.00 53.58 LIG 0.17  HD
ATOM     41 HE   ARG B 202       1.505  38.205 -16.559  1.00 51.61 LIG 0.18  HD
ENDBRANCH 32 33
ENDBRANCH 31 32
ENDBRANCH 30 31
ENDBRANCH 29 30
BRANCH 29 42
ATOM     42  C   ARG B 202       6.026  39.659 -14.795  1.00 54.52 LIG 0.24  C 
ATOM     43 O    ARG B 202       5.339  40.619 -15.126  1.00 52.27 LIG-0.27  OA
ATOM     44  N   PRO B 203       7.202  39.800 -14.110  1.00 63.22 LIG-0.34  N 
ATOM     45  CD  PRO B 203       8.403  38.979 -14.319  1.00 67.52 LIG 0.13  C 
ATOM     46  CA  PRO B 203       7.665  41.062 -13.513  1.00 66.04 LIG 0.17  C 
ATOM     47  CG  PRO B 203       9.343  40.003 -14.937  1.00 67.94 LIG 0.02  C 
ATOM     48  CB  PRO B 203       8.887  41.389 -14.387  1.00 64.70 LIG 0.04  C 
BRANCH 46 49
ATOM     49  C   PRO B 203       6.708  42.254 -13.481  1.00 68.17 LIG 0.22  C 
ATOM     50 O    PRO B 203       6.302  42.650 -12.387  1.00 70.96 LIG-0.29  OA
ENDBRANCH 46 49
ENDBRANCH 29 42
ENDBRANCH 3 29
TORSDOF 18
ENDMDL
MODEL 11
USER: ADFR SOLUTION from run 166
USER: SCORE 14.141588 LL:  -3.588 LR: -11.504 RR:   0.000 FEB:  -6.134
USER: RMSD 6.103184
USER: SEED 165
USER: STATUS no improvement in best in 18 clusters for 5 generations
USER: GENES 20
USER: genes 0 Translation |==|  0.43140 0.38362 0.55467
USER: genes 1 Rotation |==|  0.30929 0.15286 0.29053 0.72192
USER: genes 2 Torsion [N]-C--CA-[N] |==|  0.59355
USER: genes 3 Torsion [C]-CA--N-[C] |==|  0.71384
USER: genes 4 Torsion [N]-C--CA-[N] |==|  0.12651
USER: genes 5 Torsion [C]-CA--N-[C] |==|  0.16410
USER: genes 6 Torsion [N]-C--CA-[N] |==|  0.39816
USER: genes 7 Torsion [C]-CA--CB-[CG] |==|  0.68985
USER: genes 8 Torsion [CA]-CB--CG-[OD2] |==|  0.60781
USER: genes 9 Torsion [C]-CA--CB-[CG] |==|  0.46416
USER: genes 10 Torsion [CA]-CB--CG-[CD1] |==|  0.92381
USER: genes 11 Torsion [C]-CA--CB-[CG2] |==|  0.35439
USER: genes 12 Torsion [CA]-CB--OG1-[HG1] |==|  0.39428
USER: genes 13 Torsion [C]-N--CA-[C] |==|  0.79084
USER: genes 14 Torsion [N]-CA--CB-[CG] |==|  0.13950
USER: genes 15 Torsion [CA]-CB--CG-[CD] |==|  0.24759
USER: genes 16 Torsion [CB]-CG--CD-[NE] |==|  0.20483
USER: genes 17 Torsion [CG]-CD--NE-[CZ] |==|  0.19015
USER: genes 18 Torsion [N]-CA--C-[N] |==|  0.87911
USER: genes 19 Torsion [N]-CA--C-[O] |==|  0.16878
ROOT
ATOM      1  C   THR B 201       7.733  35.457 -10.609  1.00 36.45 LIG 0.24  C 
ATOM      2 O    THR B 201       7.220  36.427 -10.045  1.00 40.30 LIG-0.27  OA
ATOM      3  N   ARG B 202       8.839  34.865 -10.171  1.00 33.32 LIG-0.35  N 
ATOM      4 H    ARG B 202       9.169  34.157 -10.530  1.00 33.32 LIG 0.16  HD
ENDROOT
BRANCH 1 5
ATOM      5  CA  THR B 201       7.110  34.864 -11.877  1.00 30.51 LIG 0.20  C 
BRANCH 5 6
ATOM      6  N   THR B 201       6.473  35.872 -12.729  1.00 29.33 LIG-0.34  N 
ATOM      7  C   LEU B 200       5.150  36.016 -12.758  1.00 28.22 LIG 0.24  C 
ATOM      8 O    LEU B 200       4.398  35.406 -12.003  1.00 25.98 LIG-0.27  OA
ATOM      9 H    THR B 201       7.020  36.346 -13.193  1.00 29.33 LIG 0.16  HD
BRANCH 7 10
ATOM     10  CA  LEU B 200       4.585  36.998 -13.779  1.00 30.55 LIG 0.18  C 
BRANCH 10 11
ATOM     11  N   LEU B 200       5.193  36.833 -15.085  1.00 35.39 LIG-0.35  N 
ATOM     12 H    LEU B 200       5.590  37.534 -15.388  1.00 35.39 LIG 0.16  HD
ATOM     13  C   ASP B 199       5.123  35.677 -15.731  1.00 42.58 LIG 0.26  C 
ATOM     14 O    ASP B 199       4.517  34.702 -15.287  1.00 44.96 LIG-0.27  OA
BRANCH 13 15
ATOM     15  CA  ASP B 199       5.829  35.622 -17.082  1.00 43.98 LIG 0.41  C 
ATOM     16  N   ASP B 199       6.442  34.314 -17.295  1.00 41.74 LIG 0.61  N 
BRANCH 15 17
ATOM     17  CB  ASP B 199       4.839  35.944 -18.201  1.00 46.67 LIG 0.16  C 
BRANCH 17 18
ATOM     18  CG  ASP B 199       4.540  34.742 -19.083  1.00 50.58 LIG 0.17  C 
ATOM     19 OD2  ASP B 199       4.416  34.927 -20.314  1.00 55.98 LIG-0.65  OA
ATOM     20 OD1  ASP B 199       4.416  33.618 -18.556  1.00 45.33 LIG-0.65  OA
ENDBRANCH 17 18
ENDBRANCH 15 17
ENDBRANCH 13 15
ENDBRANCH 10 11
BRANCH 10 21
ATOM     21  CB  LEU B 200       3.071  36.830 -13.884  1.00 29.00 LIG 0.04  C 
BRANCH 21 22
ATOM     22  CG  LEU B 200       2.348  37.947 -14.632  1.00 29.82 LIG-0.02  C 
ATOM     23  CD1 LEU B 200       3.132  39.244 -14.517  1.00 24.53 LIG 0.01  C 
ATOM     24  CD2 LEU B 200       2.166  37.552 -16.092  1.00 31.40 LIG 0.01  C 
ENDBRANCH 21 22
ENDBRANCH 10 21
ENDBRANCH 7 10
ENDBRANCH 5 6
BRANCH 5 25
ATOM     25  CB  THR B 201       8.201  34.086 -12.647  1.00 29.82 LIG 0.15  C 
ATOM     26  CG2 THR B 201       7.739  32.677 -12.958  1.00 24.76 LIG 0.04  C 
BRANCH 25 27
ATOM     27 OG1  THR B 201       8.503  34.763 -13.873  1.00 30.74 LIG-0.39  OA
ATOM     28 HG1  THR B 201       9.329  34.716 -14.024  1.00 30.74 LIG 0.21  HD
ENDBRANCH 25 27
ENDBRANCH 5 25
ENDBRANCH 1 5
BRANCH 3 29
ATOM     29  CA  ARG B 202       9.609  35.361  -9.030  1.00 35.80 LIG 0.18  C 
BRANCH 29 30
ATOM     30  CB  ARG B 202      10.513  34.237  -8.528  1.00 39.99 LIG 0.04  C 
BRANCH 30 31
ATOM     31  CG  ARG B 202      11.306  33.605  -9.641  1.00 43.12 LIG 0.02  C 
BRANCH 31 32
ATOM     32  CD  ARG B 202      12.627  34.298  -9.869  1.00 49.76 LIG 0.14  C 
BRANCH 32 33
ATOM     33  NE  ARG B 202      13.568  33.976  -8.802  1.00 51.61 LIG-0.23  N 
ATOM     34  CZ  ARG B 202      14.096  32.772  -8.620  1.00 53.48 LIG 0.67  C 
ATOM     35  NH2 ARG B 202      14.949  32.566  -7.627  1.00 55.46 LIG-0.23  N 
ATOM     36  NH1 ARG B 202      13.772  31.774  -9.434  1.00 53.58 LIG-0.23  N 
ATOM     37 2HH2 ARG B 202      15.291  31.786  -7.509  1.00 55.46 LIG 0.17  HD
ATOM     38 1HH2 ARG B 202      15.159  33.212  -7.101  1.00 55.46 LIG 0.17  HD
ATOM     39 2HH1 ARG B 202      14.114  30.995  -9.316  1.00 53.58 LIG 0.17  HD
ATOM     40 1HH1 ARG B 202      13.219  31.909 -10.079  1.00 53.58 LIG 0.17  HD
ATOM     41 HE   ARG B 202      13.793  34.603  -8.259  1.00 51.61 LIG 0.18  HD
ENDBRANCH 32 33
ENDBRANCH 31 32
ENDBRANCH 30 31
ENDBRANCH 29 30
BRANCH 29 42
ATOM     42  C   ARG B 202      10.414  36.617  -9.456  1.00 54.52 LIG 0.24  C 
ATOM     43 O    ARG B 202      10.429  37.582  -8.699  1.00 52.27 LIG-0.27  OA
ATOM     44  N   PRO B 203      11.068  36.617 -10.658  1.00 63.22 LIG-0.34  N 
ATOM     45  CD  PRO B 203      10.568  35.990 -11.889  1.00 67.52 LIG 0.13  C 
ATOM     46  CA  PRO B 203      12.020  37.654 -11.081  1.00 66.04 LIG 0.17  C 
ATOM     47  CG  PRO B 203      10.277  37.219 -12.736  1.00 67.94 LIG 0.02  C 
ATOM     48  CB  PRO B 203      11.255  38.325 -12.234  1.00 64.70 LIG 0.04  C 
BRANCH 46 49
ATOM     49  C   PRO B 203      12.462  38.706 -10.063  1.00 68.17 LIG 0.22  C 
ATOM     50 O    PRO B 203      13.045  38.326  -9.045  1.00 70.96 LIG-0.29  OA
ENDBRANCH 46 49
ENDBRANCH 29 42
ENDBRANCH 3 29
TORSDOF 18
ENDMDL
MODEL 12
USER: ADFR SOLUTION from run 47
USER: SCORE 15.239788 LL:  -4.634 LR: -11.451 RR:   0.000 FEB:  -6.082
USER: RMSD 7.727595
USER: SEED 46
USER: STATUS no improvement in best in 4 clusters for 5 generations
USER: GENES 20
USER: genes 0 Translation |==|  0.64046 0.15389 0.52244
USER: genes 1 Rotation |==|  0.73605 0.23092 0.70172 0.78492
USER: genes 2 Torsion [N]-C--CA-[N] |==|  0.04766
USER: genes 3 Torsion [C]-CA--N-[C] |==|  0.69386
USER: genes 4 Torsion [N]-C--CA-[N] |==|  0.90226
USER: genes 5 Torsion [C]-CA--N-[C] |==|  0.83200
USER: genes 6 Torsion [N]-C--CA-[N] |==|  0.24156
USER: genes 7 Torsion [C]-CA--CB-[CG] |==|  0.46967
USER: genes 8 Torsion [CA]-CB--CG-[OD2] |==|  0.86313
USER: genes 9 Torsion [C]-CA--CB-[CG] |==|  0.81980
USER: genes 10 Torsion [CA]-CB--CG-[CD1] |==|  0.39204
USER: genes 11 Torsion [C]-CA--CB-[CG2] |==|  0.55081
USER: genes 12 Torsion [CA]-CB--OG1-[HG1] |==|  0.24554
USER: genes 13 Torsion [C]-N--CA-[C] |==|  0.56016
USER: genes 14 Torsion [N]-CA--CB-[CG] |==|  0.07836
USER: genes 15 Torsion [CA]-CB--CG-[CD] |==|  0.71769
USER: genes 16 Torsion [CB]-CG--CD-[NE] |==|  0.57860
USER: genes 17 Torsion [CG]-CD--NE-[CZ] |==|  0.52782
USER: genes 18 Torsion [N]-CA--C-[N] |==|  0.10574
USER: genes 19 Torsion [N]-CA--C-[O] |==|  0.78386
ROOT
ATOM      1  C   THR B 201      11.339  31.322 -11.213  1.00 36.45 LIG 0.24  C 
ATOM      2 O    THR B 201      11.188  30.410 -10.396  1.00 40.30 LIG-0.27  OA
ATOM      3  N   ARG B 202      10.701  32.485 -11.128  1.00 33.32 LIG-0.35  N 
ATOM      4 H    ARG B 202      10.844  33.142 -11.665  1.00 33.32 LIG 0.16  HD
ENDROOT
BRANCH 1 5
ATOM      5  CA  THR B 201      12.292  31.164 -12.402  1.00 30.51 LIG 0.20  C 
BRANCH 5 6
ATOM      6  N   THR B 201      12.650  32.442 -13.024  1.00 29.33 LIG-0.34  N 
ATOM      7  C   LEU B 200      12.207  32.769 -14.236  1.00 28.22 LIG 0.24  C 
ATOM      8 O    LEU B 200      11.393  32.086 -14.853  1.00 25.98 LIG-0.27  OA
ATOM      9 H    THR B 201      13.157  32.944 -12.545  1.00 29.33 LIG 0.16  HD
BRANCH 7 10
ATOM     10  CA  LEU B 200      12.750  34.057 -14.846  1.00 30.55 LIG 0.18  C 
BRANCH 10 11
ATOM     11  N   LEU B 200      12.968  35.082 -13.843  1.00 35.39 LIG-0.35  N 
ATOM     12 H    LEU B 200      13.782  35.352 -13.777  1.00 35.39 LIG 0.16  HD
ATOM     13  C   ASP B 199      11.966  35.541 -13.106  1.00 42.58 LIG 0.26  C 
ATOM     14 O    ASP B 199      10.818  35.107 -13.199  1.00 44.96 LIG-0.27  OA
BRANCH 13 15
ATOM     15  CA  ASP B 199      12.319  36.639 -12.108  1.00 43.98 LIG 0.41  C 
ATOM     16  N   ASP B 199      12.244  37.955 -12.736  1.00 41.74 LIG 0.61  N 
BRANCH 15 17
ATOM     17  CB  ASP B 199      11.388  36.563 -10.898  1.00 46.67 LIG 0.16  C 
BRANCH 17 18
ATOM     18  CG  ASP B 199      11.844  37.450  -9.750  1.00 50.58 LIG 0.17  C 
ATOM     19 OD2  ASP B 199      13.038  37.378  -9.384  1.00 55.98 LIG-0.65  OA
ATOM     20 OD1  ASP B 199      11.017  38.208  -9.203  1.00 45.33 LIG-0.65  OA
ENDBRANCH 17 18
ENDBRANCH 15 17
ENDBRANCH 13 15
ENDBRANCH 10 11
BRANCH 10 21
ATOM     21  CB  LEU B 200      14.050  33.775 -15.595  1.00 29.00 LIG 0.04  C 
BRANCH 21 22
ATOM     22  CG  LEU B 200      15.212  33.308 -14.721  1.00 29.82 LIG-0.02  C 
ATOM     23  CD1 LEU B 200      16.004  32.230 -15.441  1.00 24.53 LIG 0.01  C 
ATOM     24  CD2 LEU B 200      16.102  34.495 -14.376  1.00 31.40 LIG 0.01  C 
ENDBRANCH 21 22
ENDBRANCH 10 21
ENDBRANCH 7 10
ENDBRANCH 5 6
BRANCH 5 25
ATOM     25  CB  THR B 201      13.549  30.398 -11.932  1.00 29.82 LIG 0.15  C 
ATOM     26  CG2 THR B 201      14.695  30.595 -12.903  1.00 24.76 LIG 0.04  C 
BRANCH 25 27
ATOM     27 OG1  THR B 201      13.944  30.865 -10.637  1.00 30.74 LIG-0.39  OA
ATOM     28 HG1  THR B 201      13.544  30.424 -10.044  1.00 30.74 LIG 0.21  HD
ENDBRANCH 25 27
ENDBRANCH 5 25
ENDBRANCH 1 5
BRANCH 3 29
ATOM     29  CA  ARG B 202       9.690  32.766 -10.109  1.00 35.80 LIG 0.18  C 
BRANCH 29 30
ATOM     30  CB  ARG B 202      10.399  33.090  -8.795  1.00 39.99 LIG 0.04  C 
BRANCH 30 31
ATOM     31  CG  ARG B 202      11.763  33.688  -9.018  1.00 43.12 LIG 0.02  C 
BRANCH 31 32
ATOM     32  CD  ARG B 202      12.870  32.684  -8.813  1.00 49.76 LIG 0.14  C 
BRANCH 32 33
ATOM     33  NE  ARG B 202      14.092  33.348  -8.377  1.00 51.61 LIG-0.23  N 
ATOM     34  CZ  ARG B 202      15.275  32.748  -8.303  1.00 53.48 LIG 0.67  C 
ATOM     35  NH2 ARG B 202      16.338  33.429  -7.901  1.00 55.46 LIG-0.23  N 
ATOM     36  NH1 ARG B 202      15.391  31.468  -8.634  1.00 53.58 LIG-0.23  N 
ATOM     37 2HH2 ARG B 202      17.104  33.041  -7.853  1.00 55.46 LIG 0.17  HD
ATOM     38 1HH2 ARG B 202      16.262  34.258  -7.688  1.00 55.46 LIG 0.17  HD
ATOM     39 2HH1 ARG B 202      16.157  31.080  -8.586  1.00 53.58 LIG 0.17  HD
ATOM     40 1HH1 ARG B 202      14.701  31.027  -8.896  1.00 53.58 LIG 0.17  HD
ATOM     41 HE   ARG B 202      14.044  34.177  -8.155  1.00 51.61 LIG 0.18  HD
ENDBRANCH 32 33
ENDBRANCH 31 32
ENDBRANCH 30 31
ENDBRANCH 29 30
BRANCH 29 42
ATOM     42  C   ARG B 202       8.780  33.928 -10.589  1.00 54.52 LIG 0.24  C 
ATOM     43 O    ARG B 202       8.393  34.744  -9.759  1.00 52.27 LIG-0.27  OA
ATOM     44  N   PRO B 203       8.429  34.001 -11.909  1.00 63.22 LIG-0.34  N 
ATOM     45  CD  PRO B 203       8.139  32.845 -12.769  1.00 67.52 LIG 0.13  C 
ATOM     46  CA  PRO B 203       7.747  35.151 -12.521  1.00 66.04 LIG 0.17  C 
ATOM     47  CG  PRO B 203       6.644  33.022 -12.988  1.00 67.94 LIG 0.02  C 
ATOM     48  CB  PRO B 203       6.371  34.552 -12.858  1.00 64.70 LIG 0.04  C 
BRANCH 46 49
ATOM     49  C   PRO B 203       7.576  36.427 -11.696  1.00 68.17 LIG 0.22  C 
ATOM     50 O    PRO B 203       6.688  36.457 -10.841  1.00 70.96 LIG-0.29  OA
ENDBRANCH 46 49
ENDBRANCH 29 42
ENDBRANCH 3 29
TORSDOF 18
ENDMDL
MODEL 13
USER: ADFR SOLUTION from run 17
USER: SCORE 13.976860 LL:  -3.407 LR: -11.400 RR:   0.000 FEB:  -6.031
USER: RMSD 7.891098
USER: SEED 16
USER: STATUS no improvement in best in 29 clusters for 5 generations
USER: GENES 20
USER: genes 0 Translation |==|  0.47788 0.30311 0.46398
USER: genes 1 Rotation |==|  0.81811 0.49772 0.18654 0.72482
USER: genes 2 Torsion [N]-C--CA-[N] |==|  0.46713
USER: genes 3 Torsion [C]-CA--N-[C] |==|  0.72246
USER: genes 4 Torsion [N]-C--CA-[N] |==|  0.55212
USER: genes 5 Torsion [C]-CA--N-[C] |==|  0.57710
USER: genes 6 Torsion [N]-C--CA-[N] |==|  0.74998
USER: genes 7 Torsion [C]-CA--CB-[CG] |==|  0.42302
USER: genes 8 Torsion [CA]-CB--CG-[OD2] |==|  0.53990
USER: genes 9 Torsion [C]-CA--CB-[CG] |==|  0.86779
USER: genes 10 Torsion [CA]-CB--CG-[CD1] |==|  0.41842
USER: genes 11 Torsion [C]-CA--CB-[CG2] |==|  0.19109
USER: genes 12 Torsion [CA]-CB--OG1-[HG1] |==|  0.09057
USER: genes 13 Torsion [C]-N--CA-[C] |==|  0.17222
USER: genes 14 Torsion [N]-CA--CB-[CG] |==|  0.67372
USER: genes 15 Torsion [CA]-CB--CG-[CD] |==|  0.05471
USER: genes 16 Torsion [CB]-CG--CD-[NE] |==|  0.56293
USER: genes 17 Torsion [CG]-CD--NE-[CZ] |==|  0.52996
USER: genes 18 Torsion [N]-CA--C-[N] |==|  0.10561
USER: genes 19 Torsion [N]-CA--C-[O] |==|  0.78122
ROOT
ATOM      1  C   THR B 201       8.534  34.008 -12.309  1.00 36.45 LIG 0.24  C 
ATOM      2 O    THR B 201       8.004  33.005 -12.793  1.00 40.30 LIG-0.27  OA
ATOM      3  N   ARG B 202       9.815  34.053 -11.956  1.00 33.32 LIG-0.35  N 
ATOM      4 H    ARG B 202      10.200  34.766 -11.669  1.00 33.32 LIG 0.16  HD
ENDROOT
BRANCH 1 5
ATOM      5  CA  THR B 201       7.729  35.291 -12.082  1.00 30.51 LIG 0.20  C 
BRANCH 5 6
ATOM      6  N   THR B 201       6.418  35.270 -12.736  1.00 29.33 LIG-0.34  N 
ATOM      7  C   LEU B 200       6.215  35.886 -13.898  1.00 28.22 LIG 0.24  C 
ATOM      8 O    LEU B 200       7.123  36.406 -14.542  1.00 25.98 LIG-0.27  OA
ATOM      9 H    THR B 201       5.813  34.833 -12.310  1.00 29.33 LIG 0.16  HD
BRANCH 7 10
ATOM     10  CA  LEU B 200       4.784  35.919 -14.423  1.00 30.55 LIG 0.18  C 
BRANCH 10 11
ATOM     11  N   LEU B 200       4.732  36.206 -15.843  1.00 35.39 LIG-0.35  N 
ATOM     12 H    LEU B 200       5.428  35.961 -16.285  1.00 35.39 LIG 0.16  HD
ATOM     13  C   ASP B 199       3.677  36.802 -16.382  1.00 42.58 LIG 0.26  C 
ATOM     14 O    ASP B 199       2.710  37.174 -15.717  1.00 44.96 LIG-0.27  OA
BRANCH 13 15
ATOM     15  CA  ASP B 199       3.731  37.022 -17.890  1.00 43.98 LIG 0.41  C 
ATOM     16  N   ASP B 199       4.335  38.314 -18.205  1.00 41.74 LIG 0.61  N 
BRANCH 15 17
ATOM     17  CB  ASP B 199       4.506  35.886 -18.556  1.00 46.67 LIG 0.16  C 
BRANCH 17 18
ATOM     18  CG  ASP B 199       4.067  35.638 -19.991  1.00 50.58 LIG 0.17  C 
ATOM     19 OD2  ASP B 199       4.425  34.576 -20.545  1.00 55.98 LIG-0.65  OA
ATOM     20 OD1  ASP B 199       3.379  36.502 -20.573  1.00 45.33 LIG-0.65  OA
ENDBRANCH 17 18
ENDBRANCH 15 17
ENDBRANCH 13 15
ENDBRANCH 10 11
BRANCH 10 21
ATOM     21  CB  LEU B 200       4.090  34.590 -14.134  1.00 29.00 LIG 0.04  C 
BRANCH 21 22
ATOM     22  CG  LEU B 200       4.895  33.347 -14.505  1.00 29.82 LIG-0.02  C 
ATOM     23  CD1 LEU B 200       4.522  32.193 -13.589  1.00 24.53 LIG 0.01  C 
ATOM     24  CD2 LEU B 200       4.639  32.986 -15.962  1.00 31.40 LIG 0.01  C 
ENDBRANCH 21 22
ENDBRANCH 10 21
ENDBRANCH 7 10
ENDBRANCH 5 6
BRANCH 5 25
ATOM     25  CB  THR B 201       7.593  35.527 -10.560  1.00 29.82 LIG 0.15  C 
ATOM     26  CG2 THR B 201       8.932  35.886  -9.949  1.00 24.76 LIG 0.04  C 
BRANCH 25 27
ATOM     27 OG1  THR B 201       6.665  36.591 -10.317  1.00 30.74 LIG-0.39  OA
ATOM     28 HG1  THR B 201       6.071  36.587 -10.911  1.00 30.74 LIG 0.21  HD
ENDBRANCH 25 27
ENDBRANCH 5 25
ENDBRANCH 1 5
BRANCH 3 29
ATOM     29  CA  ARG B 202      10.700  32.890 -12.021  1.00 35.80 LIG 0.18  C 
BRANCH 29 30
ATOM     30  CB  ARG B 202      10.145  31.805 -11.100  1.00 39.99 LIG 0.04  C 
BRANCH 30 31
ATOM     31  CG  ARG B 202      11.095  31.470  -9.980  1.00 43.12 LIG 0.02  C 
BRANCH 31 32
ATOM     32  CD  ARG B 202      12.109  32.563  -9.742  1.00 49.76 LIG 0.14  C 
BRANCH 32 33
ATOM     33  NE  ARG B 202      13.290  32.030  -9.074  1.00 51.61 LIG-0.23  N 
ATOM     34  CZ  ARG B 202      14.251  32.787  -8.556  1.00 53.48 LIG 0.67  C 
ATOM     35  NH2 ARG B 202      15.291  32.221  -7.961  1.00 55.46 LIG-0.23  N 
ATOM     36  NH1 ARG B 202      14.170  34.109  -8.634  1.00 53.58 LIG-0.23  N 
ATOM     37 2HH2 ARG B 202      15.913  32.710  -7.625  1.00 55.46 LIG 0.17  HD
ATOM     38 1HH2 ARG B 202      15.343  31.364  -7.910  1.00 55.46 LIG 0.17  HD
ATOM     39 2HH1 ARG B 202      14.792  34.598  -8.299  1.00 53.58 LIG 0.17  HD
ATOM     40 1HH1 ARG B 202      13.494  34.476  -9.020  1.00 53.58 LIG 0.17  HD
ATOM     41 HE   ARG B 202      13.369  31.177  -9.012  1.00 51.61 LIG 0.18  HD
ENDBRANCH 32 33
ENDBRANCH 31 32
ENDBRANCH 30 31
ENDBRANCH 29 30
BRANCH 29 42
ATOM     42  C   ARG B 202      10.817  32.409 -13.492  1.00 54.52 LIG 0.24  C 
ATOM     43 O    ARG B 202      10.873  31.203 -13.706  1.00 52.27 LIG-0.27  OA
ATOM     44  N   PRO B 203      10.866  33.337 -14.496  1.00 63.22 LIG-0.34  N 
ATOM     45  CD  PRO B 203      11.551  34.634 -14.412  1.00 67.52 LIG 0.13  C 
ATOM     46  CA  PRO B 203      10.774  33.012 -15.927  1.00 66.04 LIG 0.17  C 
ATOM     47  CG  PRO B 203      12.700  34.412 -15.385  1.00 67.94 LIG 0.02  C 
ATOM     48  CB  PRO B 203      12.189  33.360 -16.416  1.00 64.70 LIG 0.04  C 
BRANCH 46 49
ATOM     49  C   PRO B 203      10.416  31.582 -16.334  1.00 68.17 LIG 0.22  C 
ATOM     50 O    PRO B 203      11.299  30.723 -16.293  1.00 70.96 LIG-0.29  OA
ENDBRANCH 46 49
ENDBRANCH 29 42
ENDBRANCH 3 29
TORSDOF 18
ENDMDL
MODEL 14
USER: ADFR SOLUTION from run 8
USER: SCORE 14.051587 LL:  -3.129 LR: -11.361 RR:   0.000 FEB:  -5.991
USER: RMSD 8.619411
USER: SEED 908906
USER: STATUS no improvement in best in 8 clusters for 5 generations
USER: GENES 20
USER: genes 0 Translation |==|  0.21855 0.37606 0.39258
USER: genes 1 Rotation |==|  0.36200 0.20579 0.84094 0.66781
USER: genes 2 Torsion [N]-C--CA-[N] |==|  0.00576
USER: genes 3 Torsion [C]-CA--N-[C] |==|  0.67192
USER: genes 4 Torsion [N]-C--CA-[N] |==|  0.14444
USER: genes 5 Torsion [C]-CA--N-[C] |==|  0.13822
USER: genes 6 Torsion [N]-C--CA-[N] |==|  0.65146
USER: genes 7 Torsion [C]-CA--CB-[CG] |==|  0.49239
USER: genes 8 Torsion [CA]-CB--CG-[OD2] |==|  0.30909
USER: genes 9 Torsion [C]-CA--CB-[CG] |==|  0.48739
USER: genes 10 Torsion [CA]-CB--CG-[CD1] |==|  0.29123
USER: genes 11 Torsion [C]-CA--CB-[CG2] |==|  0.70550
USER: genes 12 Torsion [CA]-CB--OG1-[HG1] |==|  0.48444
USER: genes 13 Torsion [C]-N--CA-[C] |==|  0.66347
USER: genes 14 Torsion [N]-CA--CB-[CG] |==|  0.83074
USER: genes 15 Torsion [CA]-CB--CG-[CD] |==|  0.79094
USER: genes 16 Torsion [CB]-CG--CD-[NE] |==|  0.69778
USER: genes 17 Torsion [CG]-CD--NE-[CZ] |==|  0.34710
USER: genes 18 Torsion [N]-CA--C-[N] |==|  0.03053
USER: genes 19 Torsion [N]-CA--C-[O] |==|  0.72377
ROOT
ATOM      1  C   THR B 201       4.061  35.321 -13.648  1.00 36.45 LIG 0.24  C 
ATOM      2 O    THR B 201       2.839  35.422 -13.514  1.00 40.30 LIG-0.27  OA
ATOM      3  N   ARG B 202       4.722  35.831 -14.683  1.00 33.32 LIG-0.35  N 
ATOM      4 H    ARG B 202       5.579  35.808 -14.751  1.00 33.32 LIG 0.16  HD
ENDROOT
BRANCH 1 5
ATOM      5  CA  THR B 201       4.909  34.585 -12.605  1.00 30.51 LIG 0.20  C 
BRANCH 5 6
ATOM      6  N   THR B 201       6.342  34.611 -12.910  1.00 29.33 LIG-0.34  N 
ATOM      7  C   LEU B 200       7.022  33.488 -13.133  1.00 28.22 LIG 0.24  C 
ATOM      8 O    LEU B 200       6.480  32.388 -13.211  1.00 25.98 LIG-0.27  OA
ATOM      9 H    THR B 201       6.690  35.397 -12.930  1.00 29.33 LIG 0.16  HD
BRANCH 7 10
ATOM     10  CA  LEU B 200       8.531  33.617 -13.304  1.00 30.55 LIG 0.18  C 
BRANCH 10 11
ATOM     11  N   LEU B 200       9.141  34.353 -12.213  1.00 35.39 LIG-0.35  N 
ATOM     12 H    LEU B 200       9.667  34.987 -12.457  1.00 35.39 LIG 0.16  HD
ATOM     13  C   ASP B 199       8.881  34.042 -10.950  1.00 42.58 LIG 0.26  C 
ATOM     14 O    ASP B 199       8.150  33.104 -10.632  1.00 44.96 LIG-0.27  OA
BRANCH 13 15
ATOM     15  CA  ASP B 199       9.560  34.909  -9.895  1.00 43.98 LIG 0.41  C 
ATOM     16  N   ASP B 199      10.316  34.087  -8.955  1.00 41.74 LIG 0.61  N 
BRANCH 15 17
ATOM     17  CB  ASP B 199      10.469  35.935 -10.569  1.00 46.67 LIG 0.16  C 
BRANCH 17 18
ATOM     18  CG  ASP B 199      11.127  36.879  -9.574  1.00 50.58 LIG 0.17  C 
ATOM     19 OD2  ASP B 199      12.362  36.788  -9.400  1.00 55.98 LIG-0.65  OA
ATOM     20 OD1  ASP B 199      10.419  37.701  -8.957  1.00 45.33 LIG-0.65  OA
ENDBRANCH 17 18
ENDBRANCH 15 17
ENDBRANCH 13 15
ENDBRANCH 10 11
BRANCH 10 21
ATOM     21  CB  LEU B 200       9.165  32.233 -13.418  1.00 29.00 LIG 0.04  C 
BRANCH 21 22
ATOM     22  CG  LEU B 200      10.666  32.230 -13.702  1.00 29.82 LIG-0.02  C 
ATOM     23  CD1 LEU B 200      11.433  31.870 -12.442  1.00 24.53 LIG 0.01  C 
ATOM     24  CD2 LEU B 200      10.973  31.247 -14.824  1.00 31.40 LIG 0.01  C 
ENDBRANCH 21 22
ENDBRANCH 10 21
ENDBRANCH 7 10
ENDBRANCH 5 6
BRANCH 5 25
ATOM     25  CB  THR B 201       4.620  35.193 -11.214  1.00 29.82 LIG 0.15  C 
ATOM     26  CG2 THR B 201       5.779  36.053 -10.752  1.00 24.76 LIG 0.04  C 
BRANCH 25 27
ATOM     27 OG1  THR B 201       3.434  35.994 -11.272  1.00 30.74 LIG-0.39  OA
ATOM     28 HG1  THR B 201       3.237  36.260 -10.500  1.00 30.74 LIG 0.21  HD
ENDBRANCH 25 27
ENDBRANCH 5 25
ENDBRANCH 1 5
BRANCH 3 29
ATOM     29  CA  ARG B 202       4.056  36.482 -15.810  1.00 35.80 LIG 0.18  C 
BRANCH 29 30
ATOM     30  CB  ARG B 202       4.476  37.950 -15.842  1.00 39.99 LIG 0.04  C 
BRANCH 30 31
ATOM     31  CG  ARG B 202       4.079  38.682 -14.588  1.00 43.12 LIG 0.02  C 
BRANCH 31 32
ATOM     32  CD  ARG B 202       2.602  38.988 -14.545  1.00 49.76 LIG 0.14  C 
BRANCH 32 33
ATOM     33  NE  ARG B 202       2.368  40.415 -14.729  1.00 51.61 LIG-0.23  N 
ATOM     34  CZ  ARG B 202       1.575  40.920 -15.667  1.00 53.48 LIG 0.67  C 
ATOM     35  NH2 ARG B 202       1.414  42.232 -15.762  1.00 55.46 LIG-0.23  N 
ATOM     36  NH1 ARG B 202       0.944  40.111 -16.509  1.00 53.58 LIG-0.23  N 
ATOM     37 2HH2 ARG B 202       0.900  42.559 -16.369  1.00 55.46 LIG 0.17  HD
ATOM     38 1HH2 ARG B 202       1.822  42.755 -15.217  1.00 55.46 LIG 0.17  HD
ATOM     39 2HH1 ARG B 202       0.430  40.438 -17.116  1.00 53.58 LIG 0.17  HD
ATOM     40 1HH1 ARG B 202       1.048  39.260 -16.446  1.00 53.58 LIG 0.17  HD
ATOM     41 HE   ARG B 202       2.767  40.962 -14.199  1.00 51.61 LIG 0.18  HD
ENDBRANCH 32 33
ENDBRANCH 31 32
ENDBRANCH 30 31
ENDBRANCH 29 30
BRANCH 29 42
ATOM     42  C   ARG B 202       4.417  35.738 -17.124  1.00 54.52 LIG 0.24  C 
ATOM     43 O    ARG B 202       4.106  36.258 -18.190  1.00 52.27 LIG-0.27  OA
ATOM     44  N   PRO B 203       5.054  34.530 -17.055  1.00 63.22 LIG-0.34  N 
ATOM     45  CD  PRO B 203       4.804  33.502 -16.035  1.00 67.52 LIG 0.13  C 
ATOM     46  CA  PRO B 203       5.624  33.828 -18.215  1.00 66.04 LIG 0.17  C 
ATOM     47  CG  PRO B 203       4.143  32.421 -16.877  1.00 67.94 LIG 0.02  C 
ATOM     48  CB  PRO B 203       4.701  32.604 -18.321  1.00 64.70 LIG 0.04  C 
BRANCH 46 49
ATOM     49  C   PRO B 203       5.685  34.558 -19.557  1.00 68.17 LIG 0.22  C 
ATOM     50 O    PRO B 203       4.813  34.317 -20.395  1.00 70.96 LIG-0.29  OA
ENDBRANCH 46 49
ENDBRANCH 29 42
ENDBRANCH 3 29
TORSDOF 18
ENDMDL
MODEL 15
USER: ADFR SOLUTION from run 111
USER: SCORE 14.172617 LL:  -3.379 LR: -11.315 RR:   0.000 FEB:  -5.946
USER: RMSD 8.091143
USER: SEED 110
USER: STATUS no improvement in best in 9 clusters for 5 generations
USER: GENES 20
USER: genes 0 Translation |==|  0.36087 0.49803 0.37857
USER: genes 1 Rotation |==|  0.21406 0.87278 0.57018 0.65603
USER: genes 2 Torsion [N]-C--CA-[N] |==|  0.25722
USER: genes 3 Torsion [C]-CA--N-[C] |==|  0.75497
USER: genes 4 Torsion [N]-C--CA-[N] |==|  0.21536
USER: genes 5 Torsion [C]-CA--N-[C] |==|  0.76410
USER: genes 6 Torsion [N]-C--CA-[N] |==|  0.38654
USER: genes 7 Torsion [C]-CA--CB-[CG] |==|  0.22461
USER: genes 8 Torsion [CA]-CB--CG-[OD2] |==|  0.95014
USER: genes 9 Torsion [C]-CA--CB-[CG] |==|  0.36128
USER: genes 10 Torsion [CA]-CB--CG-[CD1] |==|  0.90525
USER: genes 11 Torsion [C]-CA--CB-[CG2] |==|  0.20259
USER: genes 12 Torsion [CA]-CB--OG1-[HG1] |==|  0.28880
USER: genes 13 Torsion [C]-N--CA-[C] |==|  0.14955
USER: genes 14 Torsion [N]-CA--CB-[CG] |==|  0.48454
USER: genes 15 Torsion [CA]-CB--CG-[CD] |==|  0.30941
USER: genes 16 Torsion [CB]-CG--CD-[NE] |==|  0.28031
USER: genes 17 Torsion [CG]-CD--NE-[CZ] |==|  0.65518
USER: genes 18 Torsion [N]-CA--C-[N] |==|  0.14068
USER: genes 19 Torsion [N]-CA--C-[O] |==|  0.22370
ROOT
ATOM      1  C   THR B 201       6.516  37.517 -13.911  1.00 36.45 LIG 0.24  C 
ATOM      2 O    THR B 201       6.643  37.389 -15.131  1.00 40.30 LIG-0.27  OA
ATOM      3  N   ARG B 202       5.382  37.257 -13.268  1.00 33.32 LIG-0.35  N 
ATOM      4 H    ARG B 202       5.306  37.293 -12.412  1.00 33.32 LIG 0.16  HD
ENDROOT
BRANCH 1 5
ATOM      5  CA  THR B 201       7.686  37.993 -13.044  1.00 30.51 LIG 0.20  C 
BRANCH 5 6
ATOM      6  N   THR B 201       8.550  36.898 -12.595  1.00 29.33 LIG-0.34  N 
ATOM      7  C   LEU B 200       8.297  36.234 -11.469  1.00 28.22 LIG 0.24  C 
ATOM      8 O    LEU B 200       7.279  36.415 -10.806  1.00 25.98 LIG-0.27  OA
ATOM      9 H    THR B 201       9.215  36.731 -13.113  1.00 29.33 LIG 0.16  HD
BRANCH 7 10
ATOM     10  CA  LEU B 200       9.333  35.208 -11.024  1.00 30.55 LIG 0.18  C 
BRANCH 10 11
ATOM     11  N   LEU B 200      10.489  35.834 -10.411  1.00 35.39 LIG-0.35  N 
ATOM     12 H    LEU B 200      10.459  35.880  -9.553  1.00 35.39 LIG 0.16  HD
ATOM     13  C   ASP B 199      11.493  36.287 -11.149  1.00 42.58 LIG 0.26  C 
ATOM     14 O    ASP B 199      11.490  36.238 -12.379  1.00 44.96 LIG-0.27  OA
BRANCH 13 15
ATOM     15  CA  ASP B 199      12.663  36.896 -10.384  1.00 43.98 LIG 0.41  C 
ATOM     16  N   ASP B 199      13.936  36.494 -10.975  1.00 41.74 LIG 0.61  N 
BRANCH 15 17
ATOM     17  CB  ASP B 199      12.535  38.419 -10.362  1.00 46.67 LIG 0.16  C 
BRANCH 17 18
ATOM     18  CG  ASP B 199      11.569  38.911  -9.295  1.00 50.58 LIG 0.17  C 
ATOM     19 OD2  ASP B 199      10.755  38.095  -8.811  1.00 55.98 LIG-0.65  OA
ATOM     20 OD1  ASP B 199      11.610  40.109  -8.945  1.00 45.33 LIG-0.65  OA
ENDBRANCH 17 18
ENDBRANCH 15 17
ENDBRANCH 13 15
ENDBRANCH 10 11
BRANCH 10 21
ATOM     21  CB  LEU B 200       8.702  34.213 -10.054  1.00 29.00 LIG 0.04  C 
BRANCH 21 22
ATOM     22  CG  LEU B 200       8.946  32.743 -10.386  1.00 29.82 LIG-0.02  C 
ATOM     23  CD1 LEU B 200       8.990  32.550 -11.892  1.00 24.53 LIG 0.01  C 
ATOM     24  CD2 LEU B 200      10.247  32.280  -9.742  1.00 31.40 LIG 0.01  C 
ENDBRANCH 21 22
ENDBRANCH 10 21
ENDBRANCH 7 10
ENDBRANCH 5 6
BRANCH 5 25
ATOM     25  CB  THR B 201       8.488  39.053 -13.832  1.00 29.82 LIG 0.15  C 
ATOM     26  CG2 THR B 201       7.723  40.359 -13.908  1.00 24.76 LIG 0.04  C 
BRANCH 25 27
ATOM     27 OG1  THR B 201       9.747  39.283 -13.190  1.00 30.74 LIG-0.39  OA
ATOM     28 HG1  THR B 201      10.357  38.900 -13.624  1.00 30.74 LIG 0.21  HD
ENDBRANCH 25 27
ENDBRANCH 5 25
ENDBRANCH 1 5
BRANCH 3 29
ATOM     29  CA  ARG B 202       4.146  36.882 -13.955  1.00 35.80 LIG 0.18  C 
BRANCH 29 30
ATOM     30  CB  ARG B 202       3.630  38.096 -14.725  1.00 39.99 LIG 0.04  C 
BRANCH 30 31
ATOM     31  CG  ARG B 202       2.430  37.764 -15.571  1.00 43.12 LIG 0.02  C 
BRANCH 31 32
ATOM     32  CD  ARG B 202       1.169  38.418 -15.061  1.00 49.76 LIG 0.14  C 
BRANCH 32 33
ATOM     33  NE  ARG B 202       0.850  39.604 -15.846  1.00 51.61 LIG-0.23  N 
ATOM     34  CZ  ARG B 202       0.683  40.813 -15.326  1.00 53.48 LIG 0.67  C 
ATOM     35  NH2 ARG B 202       0.399  41.840 -16.114  1.00 55.46 LIG-0.23  N 
ATOM     36  NH1 ARG B 202       0.801  40.995 -14.016  1.00 53.58 LIG-0.23  N 
ATOM     37 2HH2 ARG B 202       0.291  42.623 -15.777  1.00 55.46 LIG 0.17  HD
ATOM     38 1HH2 ARG B 202       0.323  41.722 -16.962  1.00 55.46 LIG 0.17  HD
ATOM     39 2HH1 ARG B 202       0.693  41.778 -13.679  1.00 53.58 LIG 0.17  HD
ATOM     40 1HH1 ARG B 202       0.986  40.328 -13.505  1.00 53.58 LIG 0.17  HD
ATOM     41 HE   ARG B 202       0.765  39.514 -16.697  1.00 51.61 LIG 0.18  HD
ENDBRANCH 32 33
ENDBRANCH 31 32
ENDBRANCH 30 31
ENDBRANCH 29 30
BRANCH 29 42
ATOM     42  C   ARG B 202       4.416  35.669 -14.883  1.00 54.52 LIG 0.24  C 
ATOM     43 O    ARG B 202       4.041  35.733 -16.049  1.00 52.27 LIG-0.27  OA
ATOM     44  N   PRO B 203       5.049  34.566 -14.376  1.00 63.22 LIG-0.34  N 
ATOM     45  CD  PRO B 203       4.857  34.035 -13.019  1.00 67.52 LIG 0.13  C 
ATOM     46  CA  PRO B 203       5.538  33.445 -15.192  1.00 66.04 LIG 0.17  C 
ATOM     47  CG  PRO B 203       4.136  32.731 -13.324  1.00 67.94 LIG 0.02  C 
ATOM     48  CB  PRO B 203       4.602  32.309 -14.751  1.00 64.70 LIG 0.04  C 
BRANCH 46 49
ATOM     49  C   PRO B 203       5.518  33.582 -16.714  1.00 68.17 LIG 0.22  C 
ATOM     50 O    PRO B 203       6.428  34.211 -17.258  1.00 70.96 LIG-0.29  OA
ENDBRANCH 46 49
ENDBRANCH 29 42
ENDBRANCH 3 29
TORSDOF 18
ENDMDL
MODEL 16
USER: ADFR SOLUTION from run 24
USER: SCORE 15.360969 LL:  -4.590 LR: -11.285 RR:   0.000 FEB:  -5.916
USER: RMSD 6.211482
USER: SEED 23
USER: STATUS searching
USER: GENES 20
USER: genes 0 Translation |==|  0.34218 0.34842 0.34579
USER: genes 1 Rotation |==|  0.65828 0.93589 0.66313 0.59131
USER: genes 2 Torsion [N]-C--CA-[N] |==|  0.89842
USER: genes 3 Torsion [C]-CA--N-[C] |==|  0.78278
USER: genes 4 Torsion [N]-C--CA-[N] |==|  0.45175
USER: genes 5 Torsion [C]-CA--N-[C] |==|  0.74491
USER: genes 6 Torsion [N]-C--CA-[N] |==|  0.69182
USER: genes 7 Torsion [C]-CA--CB-[CG] |==|  0.75079
USER: genes 8 Torsion [CA]-CB--CG-[OD2] |==|  0.80362
USER: genes 9 Torsion [C]-CA--CB-[CG] |==|  0.59518
USER: genes 10 Torsion [CA]-CB--CG-[CD1] |==|  0.23982
USER: genes 11 Torsion [C]-CA--CB-[CG2] |==|  0.85031
USER: genes 12 Torsion [CA]-CB--OG1-[HG1] |==|  0.61700
USER: genes 13 Torsion [C]-N--CA-[C] |==|  0.65591
USER: genes 14 Torsion [N]-CA--CB-[CG] |==|  0.84134
USER: genes 15 Torsion [CA]-CB--CG-[CD] |==|  0.86671
USER: genes 16 Torsion [CB]-CG--CD-[NE] |==|  0.66827
USER: genes 17 Torsion [CG]-CD--NE-[CZ] |==|  0.60478
USER: genes 18 Torsion [N]-CA--C-[N] |==|  0.10397
USER: genes 19 Torsion [N]-CA--C-[O] |==|  0.65786
ROOT
ATOM      1  C   THR B 201       6.194  34.824 -14.525  1.00 36.45 LIG 0.24  C 
ATOM      2 O    THR B 201       6.059  35.810 -15.254  1.00 40.30 LIG-0.27  OA
ATOM      3  N   ARG B 202       6.086  34.879 -13.202  1.00 33.32 LIG-0.35  N 
ATOM      4 H    ARG B 202       6.126  34.184 -12.696  1.00 33.32 LIG 0.16  HD
ENDROOT
BRANCH 1 5
ATOM      5  CA  THR B 201       6.500  33.444 -15.117  1.00 30.51 LIG 0.20  C 
BRANCH 5 6
ATOM      6  N   THR B 201       7.410  32.652 -14.285  1.00 29.33 LIG-0.34  N 
ATOM      7  C   LEU B 200       8.721  32.880 -14.284  1.00 28.22 LIG 0.24  C 
ATOM      8 O    LEU B 200       9.231  33.826 -14.880  1.00 25.98 LIG-0.27  OA
ATOM      9 H    THR B 201       7.026  32.045 -13.813  1.00 29.33 LIG 0.16  HD
BRANCH 7 10
ATOM     10  CA  LEU B 200       9.591  31.911 -13.490  1.00 30.55 LIG 0.18  C 
BRANCH 10 11
ATOM     11  N   LEU B 200      10.987  31.997 -13.872  1.00 35.39 LIG-0.35  N 
ATOM     12 H    LEU B 200      11.442  32.584 -13.440  1.00 35.39 LIG 0.16  HD
ATOM     13  C   ASP B 199      11.486  31.213 -14.818  1.00 42.58 LIG 0.26  C 
ATOM     14 O    ASP B 199      10.799  30.406 -15.445  1.00 44.96 LIG-0.27  OA
BRANCH 13 15
ATOM     15  CA  ASP B 199      12.974  31.378 -15.108  1.00 43.98 LIG 0.41  C 
ATOM     16  N   ASP B 199      13.184  31.974 -16.424  1.00 41.74 LIG 0.61  N 
BRANCH 15 17
ATOM     17  CB  ASP B 199      13.626  32.228 -14.019  1.00 46.67 LIG 0.16  C 
BRANCH 17 18
ATOM     18  CG  ASP B 199      13.598  33.715 -14.339  1.00 50.58 LIG 0.17  C 
ATOM     19 OD2  ASP B 199      14.333  34.137 -15.259  1.00 55.98 LIG-0.65  OA
ATOM     20 OD1  ASP B 199      12.857  34.466 -13.671  1.00 45.33 LIG-0.65  OA
ENDBRANCH 17 18
ENDBRANCH 15 17
ENDBRANCH 13 15
ENDBRANCH 10 11
BRANCH 10 21
ATOM     21  CB  LEU B 200       9.442  32.179 -11.995  1.00 29.00 LIG 0.04  C 
BRANCH 21 22
ATOM     22  CG  LEU B 200      10.705  31.951 -11.168  1.00 29.82 LIG-0.02  C 
ATOM     23  CD1 LEU B 200      11.560  33.207 -11.167  1.00 24.53 LIG 0.01  C 
ATOM     24  CD2 LEU B 200      10.323  31.555  -9.748  1.00 31.40 LIG 0.01  C 
ENDBRANCH 21 22
ENDBRANCH 10 21
ENDBRANCH 7 10
ENDBRANCH 5 6
BRANCH 5 25
ATOM     25  CB  THR B 201       5.166  32.700 -15.355  1.00 29.82 LIG 0.15  C 
ATOM     26  CG2 THR B 201       4.340  32.658 -14.086  1.00 24.76 LIG 0.04  C 
BRANCH 25 27
ATOM     27 OG1  THR B 201       4.419  33.362 -16.382  1.00 30.74 LIG-0.39  OA
ATOM     28 HG1  THR B 201       3.609  33.398 -16.161  1.00 30.74 LIG 0.21  HD
ENDBRANCH 25 27
ENDBRANCH 5 25
ENDBRANCH 1 5
BRANCH 3 29
ATOM     29  CA  ARG B 202       5.888  36.131 -12.471  1.00 35.80 LIG 0.18  C 
BRANCH 29 30
ATOM     30  CB  ARG B 202       4.499  36.109 -11.835  1.00 39.99 LIG 0.04  C 
BRANCH 30 31
ATOM     31  CG  ARG B 202       3.411  35.906 -12.856  1.00 43.12 LIG 0.02  C 
BRANCH 31 32
ATOM     32  CD  ARG B 202       3.565  36.818 -14.048  1.00 49.76 LIG 0.14  C 
BRANCH 32 33
ATOM     33  NE  ARG B 202       2.403  37.688 -14.184  1.00 51.61 LIG-0.23  N 
ATOM     34  CZ  ARG B 202       1.871  38.035 -15.350  1.00 53.48 LIG 0.67  C 
ATOM     35  NH2 ARG B 202       0.809  38.827 -15.384  1.00 55.46 LIG-0.23  N 
ATOM     36  NH1 ARG B 202       2.402  37.589 -16.482  1.00 53.58 LIG-0.23  N 
ATOM     37 2HH2 ARG B 202       0.464  39.052 -16.138  1.00 55.46 LIG 0.17  HD
ATOM     38 1HH2 ARG B 202       0.465  39.115 -14.651  1.00 55.46 LIG 0.17  HD
ATOM     39 2HH1 ARG B 202       2.057  37.814 -17.236  1.00 53.58 LIG 0.17  HD
ATOM     40 1HH1 ARG B 202       3.091  37.074 -16.459  1.00 53.58 LIG 0.17  HD
ATOM     41 HE   ARG B 202       2.040  37.993 -13.467  1.00 51.61 LIG 0.18  HD
ENDBRANCH 32 33
ENDBRANCH 31 32
ENDBRANCH 30 31
ENDBRANCH 29 30
BRANCH 29 42
ATOM     42  C   ARG B 202       7.015  36.298 -11.416  1.00 54.52 LIG 0.24  C 
ATOM     43 O    ARG B 202       6.729  36.800 -10.335  1.00 52.27 LIG-0.27  OA
ATOM     44  N   PRO B 203       8.285  35.896 -11.725  1.00 63.22 LIG-0.34  N 
ATOM     45  CD  PRO B 203       8.912  36.027 -13.048  1.00 67.52 LIG 0.13  C 
ATOM     46  CA  PRO B 203       9.386  35.814 -10.754  1.00 66.04 LIG 0.17  C 
ATOM     47  CG  PRO B 203       9.968  37.083 -12.759  1.00 67.94 LIG 0.02  C 
ATOM     48  CB  PRO B 203      10.317  36.935 -11.246  1.00 64.70 LIG 0.04  C 
BRANCH 46 49
ATOM     49  C   PRO B 203       9.072  36.007  -9.270  1.00 68.17 LIG 0.22  C 
ATOM     50 O    PRO B 203       9.667  36.895  -8.656  1.00 70.96 LIG-0.29  OA
ENDBRANCH 46 49
ENDBRANCH 29 42
ENDBRANCH 3 29
TORSDOF 18
ENDMDL
MODEL 17
USER: ADFR SOLUTION from run 184
USER: SCORE 13.143482 LL:  -3.449 LR: -11.284 RR:   0.000 FEB:  -5.915
USER: RMSD 8.212786
USER: SEED 183
USER: STATUS no improvement in best in 33 clusters for 5 generations
USER: GENES 20
USER: genes 0 Translation |==|  0.47295 0.29107 0.48576
USER: genes 1 Rotation |==|  0.75903 0.48375 0.15236 0.74857
USER: genes 2 Torsion [N]-C--CA-[N] |==|  0.46081
USER: genes 3 Torsion [C]-CA--N-[C] |==|  0.65226
USER: genes 4 Torsion [N]-C--CA-[N] |==|  0.50925
USER: genes 5 Torsion [C]-CA--N-[C] |==|  0.55366
USER: genes 6 Torsion [N]-C--CA-[N] |==|  0.53913
USER: genes 7 Torsion [C]-CA--CB-[CG] |==|  0.85760
USER: genes 8 Torsion [CA]-CB--CG-[OD2] |==|  0.84829
USER: genes 9 Torsion [C]-CA--CB-[CG] |==|  0.92054
USER: genes 10 Torsion [CA]-CB--CG-[CD1] |==|  0.41902
USER: genes 11 Torsion [C]-CA--CB-[CG2] |==|  0.19335
USER: genes 12 Torsion [CA]-CB--OG1-[HG1] |==|  0.10859
USER: genes 13 Torsion [C]-N--CA-[C] |==|  0.20434
USER: genes 14 Torsion [N]-CA--CB-[CG] |==|  0.70382
USER: genes 15 Torsion [CA]-CB--CG-[CD] |==|  0.88551
USER: genes 16 Torsion [CB]-CG--CD-[NE] |==|  0.29939
USER: genes 17 Torsion [CG]-CD--NE-[CZ] |==|  0.37296
USER: genes 18 Torsion [N]-CA--C-[N] |==|  0.31884
USER: genes 19 Torsion [N]-CA--C-[O] |==|  0.19279
ROOT
ATOM      1  C   THR B 201       8.449  33.791 -11.901  1.00 36.45 LIG 0.24  C 
ATOM      2 O    THR B 201       7.812  32.746 -12.053  1.00 40.30 LIG-0.27  OA
ATOM      3  N   ARG B 202       9.776  33.828 -11.833  1.00 33.32 LIG-0.35  N 
ATOM      4 H    ARG B 202      10.226  34.560 -11.782  1.00 33.32 LIG 0.16  HD
ENDROOT
BRANCH 1 5
ATOM      5  CA  THR B 201       7.733  35.140 -11.779  1.00 30.51 LIG 0.20  C 
BRANCH 5 6
ATOM      6  N   THR B 201       6.326  35.080 -12.184  1.00 29.33 LIG-0.34  N 
ATOM      7  C   LEU B 200       5.839  35.898 -13.115  1.00 28.22 LIG 0.24  C 
ATOM      8 O    LEU B 200       6.548  36.662 -13.764  1.00 25.98 LIG-0.27  OA
ATOM      9 H    THR B 201       5.860  34.484 -11.775  1.00 29.33 LIG 0.16  HD
BRANCH 7 10
ATOM     10  CA  LEU B 200       4.335  35.846 -13.362  1.00 30.55 LIG 0.18  C 
BRANCH 10 11
ATOM     11  N   LEU B 200       3.933  36.721 -14.446  1.00 35.39 LIG-0.35  N 
ATOM     12 H    LEU B 200       4.568  36.952 -14.977  1.00 35.39 LIG 0.16  HD
ATOM     13  C   ASP B 199       2.672  37.114 -14.576  1.00 42.58 LIG 0.26  C 
ATOM     14 O    ASP B 199       1.790  36.796 -13.777  1.00 44.96 LIG-0.27  OA
BRANCH 13 15
ATOM     15  CA  ASP B 199       2.370  38.009 -15.773  1.00 43.98 LIG 0.41  C 
ATOM     16  N   ASP B 199       1.061  38.639 -15.633  1.00 41.74 LIG 0.61  N 
BRANCH 15 17
ATOM     17  CB  ASP B 199       3.465  39.064 -15.926  1.00 46.67 LIG 0.16  C 
BRANCH 17 18
ATOM     18  CG  ASP B 199       3.735  39.819 -14.634  1.00 50.58 LIG 0.17  C 
ATOM     19 OD2  ASP B 199       2.774  40.379 -14.062  1.00 55.98 LIG-0.65  OA
ATOM     20 OD1  ASP B 199       4.902  39.869 -14.193  1.00 45.33 LIG-0.65  OA
ENDBRANCH 17 18
ENDBRANCH 15 17
ENDBRANCH 13 15
ENDBRANCH 10 11
BRANCH 10 21
ATOM     21  CB  LEU B 200       3.903  34.413 -13.660  1.00 29.00 LIG 0.04  C 
BRANCH 21 22
ATOM     22  CG  LEU B 200       4.971  33.537 -14.309  1.00 29.82 LIG-0.02  C 
ATOM     23  CD1 LEU B 200       4.758  32.084 -13.923  1.00 24.53 LIG 0.01  C 
ATOM     24  CD2 LEU B 200       4.923  33.708 -15.823  1.00 31.40 LIG 0.01  C 
ENDBRANCH 21 22
ENDBRANCH 10 21
ENDBRANCH 7 10
ENDBRANCH 5 6
BRANCH 5 25
ATOM     25  CB  THR B 201       7.877  35.648 -10.326  1.00 29.82 LIG 0.15  C 
ATOM     26  CG2 THR B 201       9.310  36.048 -10.036  1.00 24.76 LIG 0.04  C 
BRANCH 25 27
ATOM     27 OG1  THR B 201       7.023  36.779 -10.122  1.00 30.74 LIG-0.39  OA
ATOM     28 HG1  THR B 201       6.294  36.656 -10.521  1.00 30.74 LIG 0.21  HD
ENDBRANCH 25 27
ENDBRANCH 5 25
ENDBRANCH 1 5
BRANCH 3 29
ATOM     29  CA  ARG B 202      10.608  32.624 -11.840  1.00 35.80 LIG 0.18  C 
BRANCH 29 30
ATOM     30  CB  ARG B 202      10.054  31.645 -10.806  1.00 39.99 LIG 0.04  C 
BRANCH 30 31
ATOM     31  CG  ARG B 202      10.925  31.560  -9.581  1.00 43.12 LIG 0.02  C 
BRANCH 31 32
ATOM     32  CD  ARG B 202      12.396  31.549  -9.922  1.00 49.76 LIG 0.14  C 
BRANCH 32 33
ATOM     33  NE  ARG B 202      13.016  32.818  -9.562  1.00 51.61 LIG-0.23  N 
ATOM     34  CZ  ARG B 202      14.173  32.920  -8.918  1.00 53.48 LIG 0.67  C 
ATOM     35  NH2 ARG B 202      14.670  34.115  -8.634  1.00 55.46 LIG-0.23  N 
ATOM     36  NH1 ARG B 202      14.833  31.825  -8.562  1.00 53.58 LIG-0.23  N 
ATOM     37 2HH2 ARG B 202      15.419  34.181  -8.218  1.00 55.46 LIG 0.17  HD
ATOM     38 1HH2 ARG B 202      14.243  34.823  -8.866  1.00 55.46 LIG 0.17  HD
ATOM     39 2HH1 ARG B 202      15.582  31.891  -8.145  1.00 53.58 LIG 0.17  HD
ATOM     40 1HH1 ARG B 202      14.511  31.049  -8.747  1.00 53.58 LIG 0.17  HD
ATOM     41 HE   ARG B 202      12.609  33.543  -9.779  1.00 51.61 LIG 0.18  HD
ENDBRANCH 32 33
ENDBRANCH 31 32
ENDBRANCH 30 31
ENDBRANCH 29 30
BRANCH 29 42
ATOM     42  C   ARG B 202      10.632  32.020 -13.269  1.00 54.52 LIG 0.24  C 
ATOM     43 O    ARG B 202       9.586  31.572 -13.728  1.00 52.27 LIG-0.27  OA
ATOM     44  N   PRO B 203      11.810  31.992 -13.964  1.00 63.22 LIG-0.34  N 
ATOM     45  CD  PRO B 203      13.132  31.747 -13.372  1.00 67.52 LIG 0.13  C 
ATOM     46  CA  PRO B 203      11.923  31.635 -15.386  1.00 66.04 LIG 0.17  C 
ATOM     47  CG  PRO B 203      13.457  30.382 -13.958  1.00 67.94 LIG 0.02  C 
ATOM     48  CB  PRO B 203      12.687  30.303 -15.311  1.00 64.70 LIG 0.04  C 
BRANCH 46 49
ATOM     49  C   PRO B 203      10.642  31.461 -16.203  1.00 68.17 LIG 0.22  C 
ATOM     50 O    PRO B 203       9.967  32.461 -16.453  1.00 70.96 LIG-0.29  OA
ENDBRANCH 46 49
ENDBRANCH 29 42
ENDBRANCH 3 29
TORSDOF 18
ENDMDL
MODEL 18
USER: ADFR SOLUTION from run 172
USER: SCORE 14.181208 LL:  -3.538 LR: -11.165 RR:   0.000 FEB:  -5.795
USER: RMSD 7.700126
USER: SEED 171
USER: STATUS no improvement in best in 11 clusters for 5 generations
USER: GENES 20
USER: genes 0 Translation |==|  0.37467 0.44906 0.39404
USER: genes 1 Rotation |==|  0.32113 0.63456 0.64776 0.92198
USER: genes 2 Torsion [N]-C--CA-[N] |==|  0.38619
USER: genes 3 Torsion [C]-CA--N-[C] |==|  0.59770
USER: genes 4 Torsion [N]-C--CA-[N] |==|  0.99445
USER: genes 5 Torsion [C]-CA--N-[C] |==|  0.74155
USER: genes 6 Torsion [N]-C--CA-[N] |==|  0.57243
USER: genes 7 Torsion [C]-CA--CB-[CG] |==|  0.25915
USER: genes 8 Torsion [CA]-CB--CG-[OD2] |==|  0.55659
USER: genes 9 Torsion [C]-CA--CB-[CG] |==|  0.40289
USER: genes 10 Torsion [CA]-CB--CG-[CD1] |==|  0.84846
USER: genes 11 Torsion [C]-CA--CB-[CG2] |==|  0.33152
USER: genes 12 Torsion [CA]-CB--OG1-[HG1] |==|  0.84723
USER: genes 13 Torsion [C]-N--CA-[C] |==|  0.65351
USER: genes 14 Torsion [N]-CA--CB-[CG] |==|  0.15033
USER: genes 15 Torsion [CA]-CB--CG-[CD] |==|  0.35707
USER: genes 16 Torsion [CB]-CG--CD-[NE] |==|  0.78680
USER: genes 17 Torsion [CG]-CD--NE-[CZ] |==|  0.26324
USER: genes 18 Torsion [N]-CA--C-[N] |==|  0.31383
USER: genes 19 Torsion [N]-CA--C-[O] |==|  0.14796
ROOT
ATOM      1  C   THR B 201       6.754  36.635 -13.621  1.00 36.45 LIG 0.24  C 
ATOM      2 O    THR B 201       7.531  37.593 -13.651  1.00 40.30 LIG-0.27  OA
ATOM      3  N   ARG B 202       5.876  36.382 -14.586  1.00 33.32 LIG-0.35  N 
ATOM      4 H    ARG B 202       5.371  35.686 -14.594  1.00 33.32 LIG 0.16  HD
ENDROOT
BRANCH 1 5
ATOM      5  CA  THR B 201       6.755  35.658 -12.441  1.00 30.51 LIG 0.20  C 
BRANCH 5 6
ATOM      6  N   THR B 201       8.104  35.325 -11.973  1.00 29.33 LIG-0.34  N 
ATOM      7  C   LEU B 200       8.398  34.109 -11.518  1.00 28.22 LIG 0.24  C 
ATOM      8 O    LEU B 200       7.605  33.172 -11.567  1.00 25.98 LIG-0.27  OA
ATOM      9 H    THR B 201       8.668  35.972 -12.020  1.00 29.33 LIG 0.16  HD
BRANCH 7 10
ATOM     10  CA  LEU B 200       9.790  33.910 -10.929  1.00 30.55 LIG 0.18  C 
BRANCH 10 11
ATOM     11  N   LEU B 200      10.593  35.115 -11.013  1.00 35.39 LIG-0.35  N 
ATOM     12 H    LEU B 200      10.497  35.657 -10.353  1.00 35.39 LIG 0.16  HD
ATOM     13  C   ASP B 199      11.401  35.327 -12.043  1.00 42.58 LIG 0.26  C 
ATOM     14 O    ASP B 199      11.489  34.548 -12.991  1.00 44.96 LIG-0.27  OA
BRANCH 13 15
ATOM     15  CA  ASP B 199      12.214  36.617 -12.000  1.00 43.98 LIG 0.41  C 
ATOM     16  N   ASP B 199      12.562  37.057 -13.348  1.00 41.74 LIG 0.61  N 
BRANCH 15 17
ATOM     17  CB  ASP B 199      11.432  37.702 -11.261  1.00 46.67 LIG 0.16  C 
BRANCH 17 18
ATOM     18  CG  ASP B 199      11.772  37.766  -9.781  1.00 50.58 LIG 0.17  C 
ATOM     19 OD2  ASP B 199      10.956  38.315  -9.008  1.00 55.98 LIG-0.65  OA
ATOM     20 OD1  ASP B 199      12.852  37.281  -9.384  1.00 45.33 LIG-0.65  OA
ENDBRANCH 17 18
ENDBRANCH 15 17
ENDBRANCH 13 15
ENDBRANCH 10 11
BRANCH 10 21
ATOM     21  CB  LEU B 200       9.683  33.454  -9.476  1.00 29.00 LIG 0.04  C 
BRANCH 21 22
ATOM     22  CG  LEU B 200      10.761  32.471  -9.026  1.00 29.82 LIG-0.02  C 
ATOM     23  CD1 LEU B 200      10.791  31.270  -9.957  1.00 24.53 LIG 0.01  C 
ATOM     24  CD2 LEU B 200      12.114  33.170  -9.000  1.00 31.40 LIG 0.01  C 
ENDBRANCH 21 22
ENDBRANCH 10 21
ENDBRANCH 7 10
ENDBRANCH 5 6
BRANCH 5 25
ATOM     25  CB  THR B 201       5.898  36.256 -11.302  1.00 29.82 LIG 0.15  C 
ATOM     26  CG2 THR B 201       4.730  35.348 -10.975  1.00 24.76 LIG 0.04  C 
BRANCH 25 27
ATOM     27 OG1  THR B 201       6.703  36.427 -10.129  1.00 30.74 LIG-0.39  OA
ATOM     28 HG1  THR B 201       7.063  35.696  -9.926  1.00 30.74 LIG 0.21  HD
ENDBRANCH 25 27
ENDBRANCH 5 25
ENDBRANCH 1 5
BRANCH 3 29
ATOM     29  CA  ARG B 202       5.681  37.264 -15.736  1.00 35.80 LIG 0.18  C 
BRANCH 29 30
ATOM     30  CB  ARG B 202       6.169  36.544 -16.992  1.00 39.99 LIG 0.04  C 
BRANCH 30 31
ATOM     31  CG  ARG B 202       5.520  35.196 -17.161  1.00 43.12 LIG 0.02  C 
BRANCH 31 32
ATOM     32  CD  ARG B 202       4.921  35.016 -18.535  1.00 49.76 LIG 0.14  C 
BRANCH 32 33
ATOM     33  NE  ARG B 202       3.661  35.742 -18.644  1.00 51.61 LIG-0.23  N 
ATOM     34  CZ  ARG B 202       3.554  36.969 -19.139  1.00 53.48 LIG 0.67  C 
ATOM     35  NH2 ARG B 202       2.368  37.555 -19.208  1.00 55.46 LIG-0.23  N 
ATOM     36  NH1 ARG B 202       4.636  37.609 -19.566  1.00 53.58 LIG-0.23  N 
ATOM     37 2HH2 ARG B 202       2.298  38.349 -19.528  1.00 55.46 LIG 0.17  HD
ATOM     38 1HH2 ARG B 202       1.668  37.140 -18.931  1.00 55.46 LIG 0.17  HD
ATOM     39 2HH1 ARG B 202       4.567  38.403 -19.887  1.00 53.58 LIG 0.17  HD
ATOM     40 1HH1 ARG B 202       5.406  37.228 -19.523  1.00 53.58 LIG 0.17  HD
ATOM     41 HE   ARG B 202       2.945  35.351 -18.373  1.00 51.61 LIG 0.18  HD
ENDBRANCH 32 33
ENDBRANCH 31 32
ENDBRANCH 30 31
ENDBRANCH 29 30
BRANCH 29 42
ATOM     42  C   ARG B 202       4.185  37.666 -15.833  1.00 54.52 LIG 0.24  C 
ATOM     43 O    ARG B 202       3.367  36.797 -16.114  1.00 52.27 LIG-0.27  OA
ATOM     44  N   PRO B 203       3.827  38.968 -15.615  1.00 63.22 LIG-0.34  N 
ATOM     45  CD  PRO B 203       4.614  40.139 -16.028  1.00 67.52 LIG 0.13  C 
ATOM     46  CA  PRO B 203       2.439  39.433 -15.479  1.00 66.04 LIG 0.17  C 
ATOM     47  CG  PRO B 203       3.720  40.711 -17.118  1.00 67.94 LIG 0.02  C 
ATOM     48  CB  PRO B 203       2.268  40.277 -16.752  1.00 64.70 LIG 0.04  C 
BRANCH 46 49
ATOM     49  C   PRO B 203       1.322  38.392 -15.386  1.00 68.17 LIG 0.22  C 
ATOM     50 O    PRO B 203       1.415  37.508 -14.532  1.00 70.96 LIG-0.29  OA
ENDBRANCH 46 49
ENDBRANCH 29 42
ENDBRANCH 3 29
TORSDOF 18
ENDMDL
MODEL 19
USER: ADFR SOLUTION from run 191
USER: SCORE 14.642423 LL:  -4.246 LR: -11.150 RR:   0.000 FEB:  -5.780
USER: RMSD 6.743641
USER: SEED 190
USER: STATUS no improvement in best in 9 clusters for 5 generations
USER: GENES 20
USER: genes 0 Translation |==|  0.37169 0.41752 0.53738
USER: genes 1 Rotation |==|  0.28004 0.26901 0.21551 0.75948
USER: genes 2 Torsion [N]-C--CA-[N] |==|  0.96556
USER: genes 3 Torsion [C]-CA--N-[C] |==|  0.67867
USER: genes 4 Torsion [N]-C--CA-[N] |==|  0.37220
USER: genes 5 Torsion [C]-CA--N-[C] |==|  0.86079
USER: genes 6 Torsion [N]-C--CA-[N] |==|  0.70085
USER: genes 7 Torsion [C]-CA--CB-[CG] |==|  0.37379
USER: genes 8 Torsion [CA]-CB--CG-[OD2] |==|  0.16976
USER: genes 9 Torsion [C]-CA--CB-[CG] |==|  0.28110
USER: genes 10 Torsion [CA]-CB--CG-[CD1] |==|  0.56255
USER: genes 11 Torsion [C]-CA--CB-[CG2] |==|  0.50246
USER: genes 12 Torsion [CA]-CB--OG1-[HG1] |==|  0.12057
USER: genes 13 Torsion [C]-N--CA-[C] |==|  0.81419
USER: genes 14 Torsion [N]-CA--CB-[CG] |==|  0.50393
USER: genes 15 Torsion [CA]-CB--CG-[CD] |==|  0.63949
USER: genes 16 Torsion [CB]-CG--CD-[NE] |==|  0.51401
USER: genes 17 Torsion [CG]-CD--NE-[CZ] |==|  0.77382
USER: genes 18 Torsion [N]-CA--C-[N] |==|  0.83333
USER: genes 19 Torsion [N]-CA--C-[O] |==|  0.17516
ROOT
ATOM      1  C   THR B 201       6.703  36.067 -10.933  1.00 36.45 LIG 0.24  C 
ATOM      2 O    THR B 201       6.681  36.797  -9.939  1.00 40.30 LIG-0.27  OA
ATOM      3  N   ARG B 202       7.574  35.075 -11.086  1.00 33.32 LIG-0.35  N 
ATOM      4 H    ARG B 202       7.557  34.532 -11.753  1.00 33.32 LIG 0.16  HD
ENDROOT
BRANCH 1 5
ATOM      5  CA  THR B 201       5.704  36.267 -12.077  1.00 30.51 LIG 0.20  C 
BRANCH 5 6
ATOM      6  N   THR B 201       6.056  35.513 -13.284  1.00 29.33 LIG-0.34  N 
ATOM      7  C   LEU B 200       6.370  36.132 -14.419  1.00 28.22 LIG 0.24  C 
ATOM      8 O    LEU B 200       6.496  37.351 -14.498  1.00 25.98 LIG-0.27  OA
ATOM      9 H    THR B 201       6.040  34.658 -13.189  1.00 29.33 LIG 0.16  HD
BRANCH 7 10
ATOM     10  CA  LEU B 200       6.584  35.255 -15.648  1.00 30.55 LIG 0.18  C 
BRANCH 10 11
ATOM     11  N   LEU B 200       5.902  35.779 -16.815  1.00 35.39 LIG-0.35  N 
ATOM     12 H    LEU B 200       6.391  35.844 -17.519  1.00 35.39 LIG 0.16  HD
ATOM     13  C   ASP B 199       4.621  36.122 -16.762  1.00 42.58 LIG 0.26  C 
ATOM     14 O    ASP B 199       3.956  36.052 -15.729  1.00 44.96 LIG-0.27  OA
BRANCH 13 15
ATOM     15  CA  ASP B 199       4.011  36.631 -18.063  1.00 43.98 LIG 0.41  C 
ATOM     16  N   ASP B 199       3.776  38.071 -17.998  1.00 41.74 LIG 0.61  N 
BRANCH 15 17
ATOM     17  CB  ASP B 199       4.923  36.285 -19.239  1.00 46.67 LIG 0.16  C 
BRANCH 17 18
ATOM     18  CG  ASP B 199       4.161  35.713 -20.424  1.00 50.58 LIG 0.17  C 
ATOM     19 OD2  ASP B 199       3.291  36.427 -20.970  1.00 55.98 LIG-0.65  OA
ATOM     20 OD1  ASP B 199       4.416  34.552 -20.808  1.00 45.33 LIG-0.65  OA
ENDBRANCH 17 18
ENDBRANCH 15 17
ENDBRANCH 13 15
ENDBRANCH 10 11
BRANCH 10 21
ATOM     21  CB  LEU B 200       8.077  35.114 -15.936  1.00 29.00 LIG 0.04  C 
BRANCH 21 22
ATOM     22  CG  LEU B 200       8.702  33.799 -15.477  1.00 29.82 LIG-0.02  C 
ATOM     23  CD1 LEU B 200      10.200  33.970 -15.295  1.00 24.53 LIG 0.01  C 
ATOM     24  CD2 LEU B 200       8.047  33.346 -14.178  1.00 31.40 LIG 0.01  C 
ENDBRANCH 21 22
ENDBRANCH 10 21
ENDBRANCH 7 10
ENDBRANCH 5 6
BRANCH 5 25
ATOM     25  CB  THR B 201       4.292  35.892 -11.573  1.00 29.82 LIG 0.15  C 
ATOM     26  CG2 THR B 201       3.266  36.052 -12.678  1.00 24.76 LIG 0.04  C 
BRANCH 25 27
ATOM     27 OG1  THR B 201       4.285  34.534 -11.118  1.00 30.74 LIG-0.39  OA
ATOM     28 HG1  THR B 201       4.975  34.387 -10.663  1.00 30.74 LIG 0.21  HD
ENDBRANCH 25 27
ENDBRANCH 5 25
ENDBRANCH 1 5
BRANCH 3 29
ATOM     29  CA  ARG B 202       8.651  34.807 -10.133  1.00 35.80 LIG 0.18  C 
BRANCH 29 30
ATOM     30  CB  ARG B 202       9.293  33.468 -10.489  1.00 39.99 LIG 0.04  C 
BRANCH 30 31
ATOM     31  CG  ARG B 202      10.396  33.095  -9.533  1.00 43.12 LIG 0.02  C 
BRANCH 31 32
ATOM     32  CD  ARG B 202      11.666  32.704 -10.248  1.00 49.76 LIG 0.14  C 
BRANCH 32 33
ATOM     33  NE  ARG B 202      12.668  32.237  -9.297  1.00 51.61 LIG-0.23  N 
ATOM     34  CZ  ARG B 202      13.445  33.045  -8.585  1.00 53.48 LIG 0.67  C 
ATOM     35  NH2 ARG B 202      14.328  32.537  -7.738  1.00 55.46 LIG-0.23  N 
ATOM     36  NH1 ARG B 202      13.335  34.361  -8.720  1.00 53.58 LIG-0.23  N 
ATOM     37 2HH2 ARG B 202      14.830  33.060  -7.276  1.00 55.46 LIG 0.17  HD
ATOM     38 1HH2 ARG B 202      14.398  31.685  -7.650  1.00 55.46 LIG 0.17  HD
ATOM     39 2HH1 ARG B 202      13.838  34.884  -8.259  1.00 53.58 LIG 0.17  HD
ATOM     40 1HH1 ARG B 202      12.762  34.690  -9.270  1.00 53.58 LIG 0.17  HD
ATOM     41 HE   ARG B 202      12.761  31.389  -9.192  1.00 51.61 LIG 0.18  HD
ENDBRANCH 32 33
ENDBRANCH 31 32
ENDBRANCH 30 31
ENDBRANCH 29 30
BRANCH 29 42
ATOM     42  C   ARG B 202       9.672  35.975 -10.164  1.00 54.52 LIG 0.24  C 
ATOM     43 O    ARG B 202       9.859  36.611  -9.132  1.00 52.27 LIG-0.27  OA
ATOM     44  N   PRO B 203      10.318  36.268 -11.334  1.00 63.22 LIG-0.34  N 
ATOM     45  CD  PRO B 203       9.716  36.189 -12.672  1.00 67.52 LIG 0.13  C 
ATOM     46  CA  PRO B 203      11.443  37.208 -11.444  1.00 66.04 LIG 0.17  C 
ATOM     47  CG  PRO B 203       9.655  37.662 -13.044  1.00 67.94 LIG 0.02  C 
ATOM     48  CB  PRO B 203      10.816  38.349 -12.261  1.00 64.70 LIG 0.04  C 
BRANCH 46 49
ATOM     49  C   PRO B 203      12.066  37.762 -10.162  1.00 68.17 LIG 0.22  C 
ATOM     50 O    PRO B 203      12.606  36.972  -9.385  1.00 70.96 LIG-0.29  OA
ENDBRANCH 46 49
ENDBRANCH 29 42
ENDBRANCH 3 29
TORSDOF 18
ENDMDL
MODEL 20
USER: ADFR SOLUTION from run 50
USER: SCORE 14.087547 LL:  -3.649 LR: -11.075 RR:   0.000 FEB:  -5.706
USER: RMSD 6.688544
USER: SEED 49
USER: STATUS no improvement in best in 23 clusters for 5 generations
USER: GENES 20
USER: genes 0 Translation |==|  0.36521 0.40409 0.52848
USER: genes 1 Rotation |==|  0.23591 0.31973 0.19171 0.72961
USER: genes 2 Torsion [N]-C--CA-[N] |==|  0.86251
USER: genes 3 Torsion [C]-CA--N-[C] |==|  0.62778
USER: genes 4 Torsion [N]-C--CA-[N] |==|  0.37637
USER: genes 5 Torsion [C]-CA--N-[C] |==|  0.84807
USER: genes 6 Torsion [N]-C--CA-[N] |==|  0.78136
USER: genes 7 Torsion [C]-CA--CB-[CG] |==|  0.23083
USER: genes 8 Torsion [CA]-CB--CG-[OD2] |==|  0.36612
USER: genes 9 Torsion [C]-CA--CB-[CG] |==|  0.01794
USER: genes 10 Torsion [CA]-CB--CG-[CD1] |==|  0.32967
USER: genes 11 Torsion [C]-CA--CB-[CG2] |==|  0.81002
USER: genes 12 Torsion [CA]-CB--OG1-[HG1] |==|  0.27539
USER: genes 13 Torsion [C]-N--CA-[C] |==|  0.84243
USER: genes 14 Torsion [N]-CA--CB-[CG] |==|  0.32789
USER: genes 15 Torsion [CA]-CB--CG-[CD] |==|  0.67047
USER: genes 16 Torsion [CB]-CG--CD-[NE] |==|  0.00407
USER: genes 17 Torsion [CG]-CD--NE-[CZ] |==|  0.24624
USER: genes 18 Torsion [N]-CA--C-[N] |==|  0.41375
USER: genes 19 Torsion [N]-CA--C-[O] |==|  0.32886
ROOT
ATOM      1  C   THR B 201       6.591  35.826 -11.100  1.00 36.45 LIG 0.24  C 
ATOM      2 O    THR B 201       6.883  36.500 -10.110  1.00 40.30 LIG-0.27  OA
ATOM      3  N   ARG B 202       7.121  34.632 -11.347  1.00 33.32 LIG-0.35  N 
ATOM      4 H    ARG B 202       6.880  34.137 -12.007  1.00 33.32 LIG 0.16  HD
ENDROOT
BRANCH 1 5
ATOM      5  CA  THR B 201       5.576  36.336 -12.128  1.00 30.51 LIG 0.20  C 
BRANCH 5 6
ATOM      6  N   THR B 201       6.060  36.239 -13.508  1.00 29.33 LIG-0.34  N 
ATOM      7  C   LEU B 200       5.926  37.253 -14.360  1.00 28.22 LIG 0.24  C 
ATOM      8 O    LEU B 200       5.503  38.355 -14.020  1.00 25.98 LIG-0.27  OA
ATOM      9 H    THR B 201       6.426  35.487 -13.707  1.00 29.33 LIG 0.16  HD
BRANCH 7 10
ATOM     10  CA  LEU B 200       6.338  36.999 -15.806  1.00 30.55 LIG 0.18  C 
BRANCH 10 11
ATOM     11  N   LEU B 200       5.369  37.526 -16.747  1.00 35.39 LIG-0.35  N 
ATOM     12 H    LEU B 200       5.693  38.066 -17.333  1.00 35.39 LIG 0.16  HD
ATOM     13  C   ASP B 199       4.090  37.180 -16.678  1.00 42.58 LIG 0.26  C 
ATOM     14 O    ASP B 199       3.649  36.433 -15.804  1.00 44.96 LIG-0.27  OA
BRANCH 13 15
ATOM     15  CA  ASP B 199       3.176  37.778 -17.742  1.00 43.98 LIG 0.41  C 
ATOM     16  N   ASP B 199       2.833  39.159 -17.415  1.00 41.74 LIG 0.61  N 
BRANCH 15 17
ATOM     17  CB  ASP B 199       3.849  37.698 -19.112  1.00 46.67 LIG 0.16  C 
BRANCH 17 18
ATOM     18  CG  ASP B 199       3.666  36.343 -19.777  1.00 50.58 LIG 0.17  C 
ATOM     19 OD2  ASP B 199       3.291  36.314 -20.970  1.00 55.98 LIG-0.65  OA
ATOM     20 OD1  ASP B 199       3.882  35.307 -19.114  1.00 45.33 LIG-0.65  OA
ENDBRANCH 17 18
ENDBRANCH 15 17
ENDBRANCH 13 15
ENDBRANCH 10 11
BRANCH 10 21
ATOM     21  CB  LEU B 200       7.711  37.610 -16.075  1.00 29.00 LIG 0.04  C 
BRANCH 21 22
ATOM     22  CG  LEU B 200       8.417  38.179 -14.846  1.00 29.82 LIG-0.02  C 
ATOM     23  CD1 LEU B 200       9.725  37.443 -14.610  1.00 24.53 LIG 0.01  C 
ATOM     24  CD2 LEU B 200       8.662  39.670 -15.041  1.00 31.40 LIG 0.01  C 
ENDBRANCH 21 22
ENDBRANCH 10 21
ENDBRANCH 7 10
ENDBRANCH 5 6
BRANCH 5 25
ATOM     25  CB  THR B 201       4.251  35.561 -11.943  1.00 29.82 LIG 0.15  C 
ATOM     26  CG2 THR B 201       4.416  34.110 -12.346  1.00 24.76 LIG 0.04  C 
BRANCH 25 27
ATOM     27 OG1  THR B 201       3.841  35.625 -10.572  1.00 30.74 LIG-0.39  OA
ATOM     28 HG1  THR B 201       3.256  36.222 -10.481  1.00 30.74 LIG 0.21  HD
ENDBRANCH 25 27
ENDBRANCH 5 25
ENDBRANCH 1 5
BRANCH 3 29
ATOM     29  CA  ARG B 202       8.171  34.040 -10.518  1.00 35.80 LIG 0.18  C 
BRANCH 29 30
ATOM     30  CB  ARG B 202       8.541  32.678 -11.100  1.00 39.99 LIG 0.04  C 
BRANCH 30 31
ATOM     31  CG  ARG B 202       9.979  32.622 -11.545  1.00 43.12 LIG 0.02  C 
BRANCH 31 32
ATOM     32  CD  ARG B 202      10.112  32.353 -13.024  1.00 49.76 LIG 0.14  C 
BRANCH 32 33
ATOM     33  NE  ARG B 202       8.798  32.251 -13.648  1.00 51.61 LIG-0.23  N 
ATOM     34  CZ  ARG B 202       8.129  33.288 -14.138  1.00 53.48 LIG 0.67  C 
ATOM     35  NH2 ARG B 202       6.940  33.106 -14.694  1.00 55.46 LIG-0.23  N 
ATOM     36  NH1 ARG B 202       8.651  34.507 -14.072  1.00 53.58 LIG-0.23  N 
ATOM     37 2HH2 ARG B 202       6.507  33.777 -15.011  1.00 55.46 LIG 0.17  HD
ATOM     38 1HH2 ARG B 202       6.603  32.317 -14.737  1.00 55.46 LIG 0.17  HD
ATOM     39 2HH1 ARG B 202       8.218  35.178 -14.389  1.00 53.58 LIG 0.17  HD
ATOM     40 1HH1 ARG B 202       9.423  34.624 -13.711  1.00 53.58 LIG 0.17  HD
ATOM     41 HE   ARG B 202       8.435  31.473 -13.702  1.00 51.61 LIG 0.18  HD
ENDBRANCH 32 33
ENDBRANCH 31 32
ENDBRANCH 30 31
ENDBRANCH 29 30
BRANCH 29 42
ATOM     42  C   ARG B 202       9.386  35.003 -10.456  1.00 54.52 LIG 0.24  C 
ATOM     43 O    ARG B 202       9.617  35.711 -11.430  1.00 52.27 LIG-0.27  OA
ATOM     44  N   PRO B 203      10.165  35.026  -9.331  1.00 63.22 LIG-0.34  N 
ATOM     45  CD  PRO B 203      10.507  33.850  -8.519  1.00 67.52 LIG 0.13  C 
ATOM     46  CA  PRO B 203      11.211  36.025  -9.070  1.00 66.04 LIG 0.17  C 
ATOM     47  CG  PRO B 203      11.995  33.726  -8.811  1.00 67.94 LIG 0.02  C 
ATOM     48  CB  PRO B 203      12.485  35.168  -9.148  1.00 64.70 LIG 0.04  C 
BRANCH 46 49
ATOM     49  C   PRO B 203      11.330  37.227 -10.008  1.00 68.17 LIG 0.22  C 
ATOM     50 O    PRO B 203      11.166  38.355  -9.538  1.00 70.96 LIG-0.29  OA
ENDBRANCH 46 49
ENDBRANCH 29 42
ENDBRANCH 3 29
TORSDOF 18
ENDMDL
MODEL 21
USER: ADFR SOLUTION from run 124
USER: SCORE 13.856312 LL:  -3.507 LR: -11.039 RR:   0.000 FEB:  -5.670
USER: RMSD 7.599407
USER: SEED 123
USER: STATUS no improvement in best in 6 clusters for 5 generations
USER: GENES 20
USER: genes 0 Translation |==|  0.40806 0.40157 0.52159
USER: genes 1 Rotation |==|  0.40803 0.39809 0.87995 0.79460
USER: genes 2 Torsion [N]-C--CA-[N] |==|  0.05176
USER: genes 3 Torsion [C]-CA--N-[C] |==|  0.65061
USER: genes 4 Torsion [N]-C--CA-[N] |==|  0.09852
USER: genes 5 Torsion [C]-CA--N-[C] |==|  0.15000
USER: genes 6 Torsion [N]-C--CA-[N] |==|  0.18803
USER: genes 7 Torsion [C]-CA--CB-[CG] |==|  0.73153
USER: genes 8 Torsion [CA]-CB--CG-[OD2] |==|  0.14507
USER: genes 9 Torsion [C]-CA--CB-[CG] |==|  0.52748
USER: genes 10 Torsion [CA]-CB--CG-[CD1] |==|  0.45627
USER: genes 11 Torsion [C]-CA--CB-[CG2] |==|  0.44791
USER: genes 12 Torsion [CA]-CB--OG1-[HG1] |==|  0.98460
USER: genes 13 Torsion [C]-N--CA-[C] |==|  0.61735
USER: genes 14 Torsion [N]-CA--CB-[CG] |==|  0.59309
USER: genes 15 Torsion [CA]-CB--CG-[CD] |==|  0.74302
USER: genes 16 Torsion [CB]-CG--CD-[NE] |==|  0.37727
USER: genes 17 Torsion [CG]-CD--NE-[CZ] |==|  0.48769
USER: genes 18 Torsion [N]-CA--C-[N] |==|  0.07908
USER: genes 19 Torsion [N]-CA--C-[O] |==|  0.52990
ROOT
ATOM      1  C   THR B 201       7.330  35.780 -11.229  1.00 36.45 LIG 0.24  C 
ATOM      2 O    THR B 201       6.643  36.509 -10.509  1.00 40.30 LIG-0.27  OA
ATOM      3  N   ARG B 202       7.118  35.642 -12.534  1.00 33.32 LIG-0.35  N 
ATOM      4 H    ARG B 202       7.627  35.178 -13.048  1.00 33.32 LIG 0.16  HD
ENDROOT
BRANCH 1 5
ATOM      5  CA  THR B 201       8.496  34.973 -10.649  1.00 30.51 LIG 0.20  C 
BRANCH 5 6
ATOM      6  N   THR B 201       9.446  34.523 -11.670  1.00 29.33 LIG-0.34  N 
ATOM      7  C   LEU B 200       9.776  33.239 -11.790  1.00 28.22 LIG 0.24  C 
ATOM      8 O    LEU B 200       9.230  32.350 -11.143  1.00 25.98 LIG-0.27  OA
ATOM      9 H    THR B 201       9.760  35.150 -12.168  1.00 29.33 LIG 0.16  HD
BRANCH 7 10
ATOM     10  CA  LEU B 200      10.875  32.899 -12.791  1.00 30.55 LIG 0.18  C 
BRANCH 10 11
ATOM     11  N   LEU B 200      11.899  33.925 -12.842  1.00 35.39 LIG-0.35  N 
ATOM     12 H    LEU B 200      12.057  34.236 -13.627  1.00 35.39 LIG 0.16  HD
ATOM     13  C   ASP B 199      12.521  34.325 -11.741  1.00 42.58 LIG 0.26  C 
ATOM     14 O    ASP B 199      12.299  33.833 -10.634  1.00 44.96 LIG-0.27  OA
BRANCH 13 15
ATOM     15  CA  ASP B 199      13.557  35.430 -11.922  1.00 43.98 LIG 0.41  C 
ATOM     16  N   ASP B 199      12.915  36.685 -12.302  1.00 41.74 LIG 0.61  N 
BRANCH 15 17
ATOM     17  CB  ASP B 199      14.365  35.603 -10.637  1.00 46.67 LIG 0.16  C 
BRANCH 17 18
ATOM     18  CG  ASP B 199      13.837  36.728  -9.759  1.00 50.58 LIG 0.17  C 
ATOM     19 OD2  ASP B 199      12.622  36.729  -9.463  1.00 55.98 LIG-0.65  OA
ATOM     20 OD1  ASP B 199      14.625  37.617  -9.373  1.00 45.33 LIG-0.65  OA
ENDBRANCH 17 18
ENDBRANCH 15 17
ENDBRANCH 13 15
ENDBRANCH 10 11
BRANCH 10 21
ATOM     21  CB  LEU B 200      11.503  31.552 -12.442  1.00 29.00 LIG 0.04  C 
BRANCH 21 22
ATOM     22  CG  LEU B 200      12.769  31.207 -13.222  1.00 29.82 LIG-0.02  C 
ATOM     23  CD1 LEU B 200      13.506  30.067 -12.540  1.00 24.53 LIG 0.01  C 
ATOM     24  CD2 LEU B 200      12.403  30.836 -14.654  1.00 31.40 LIG 0.01  C 
ENDBRANCH 21 22
ENDBRANCH 10 21
ENDBRANCH 7 10
ENDBRANCH 5 6
BRANCH 5 25
ATOM     25  CB  THR B 201       9.197  35.823  -9.565  1.00 29.82 LIG 0.15  C 
ATOM     26  CG2 THR B 201      10.034  34.949  -8.654  1.00 24.76 LIG 0.04  C 
BRANCH 25 27
ATOM     27 OG1  THR B 201      10.041  36.799 -10.187  1.00 30.74 LIG-0.39  OA
ATOM     28 HG1  THR B 201      10.052  36.673 -11.018  1.00 30.74 LIG 0.21  HD
ENDBRANCH 25 27
ENDBRANCH 5 25
ENDBRANCH 1 5
BRANCH 3 29
ATOM     29  CA  ARG B 202       5.993  36.269 -13.228  1.00 35.80 LIG 0.18  C 
BRANCH 29 30
ATOM     30  CB  ARG B 202       6.491  37.539 -13.914  1.00 39.99 LIG 0.04  C 
BRANCH 30 31
ATOM     31  CG  ARG B 202       5.441  38.618 -13.943  1.00 43.12 LIG 0.02  C 
BRANCH 31 32
ATOM     32  CD  ARG B 202       4.619  38.585 -15.208  1.00 49.76 LIG 0.14  C 
BRANCH 32 33
ATOM     33  NE  ARG B 202       3.203  38.751 -14.906  1.00 51.61 LIG-0.23  N 
ATOM     34  CZ  ARG B 202       2.254  38.846 -15.830  1.00 53.48 LIG 0.67  C 
ATOM     35  NH2 ARG B 202       0.988  38.990 -15.468  1.00 55.46 LIG-0.23  N 
ATOM     36  NH1 ARG B 202       2.575  38.796 -17.117  1.00 53.58 LIG-0.23  N 
ATOM     37 2HH2 ARG B 202       0.374  39.052 -16.066  1.00 55.46 LIG 0.17  HD
ATOM     38 1HH2 ARG B 202       0.781  39.022 -14.634  1.00 55.46 LIG 0.17  HD
ATOM     39 2HH1 ARG B 202       1.961  38.858 -17.716  1.00 53.58 LIG 0.17  HD
ATOM     40 1HH1 ARG B 202       3.397  38.702 -17.352  1.00 53.58 LIG 0.17  HD
ATOM     41 HE   ARG B 202       2.968  38.789 -14.079  1.00 51.61 LIG 0.18  HD
ENDBRANCH 32 33
ENDBRANCH 31 32
ENDBRANCH 30 31
ENDBRANCH 29 30
BRANCH 29 42
ATOM     42  C   ARG B 202       5.378  35.260 -14.234  1.00 54.52 LIG 0.24  C 
ATOM     43 O    ARG B 202       4.817  35.701 -15.231  1.00 52.27 LIG-0.27  OA
ATOM     44  N   PRO B 203       5.468  33.919 -13.976  1.00 63.22 LIG-0.34  N 
ATOM     45  CD  PRO B 203       5.371  33.310 -12.642  1.00 67.52 LIG 0.13  C 
ATOM     46  CA  PRO B 203       5.109  32.866 -14.937  1.00 66.04 LIG 0.17  C 
ATOM     47  CG  PRO B 203       4.041  32.580 -12.759  1.00 67.94 LIG 0.02  C 
ATOM     48  CB  PRO B 203       3.866  32.251 -14.273  1.00 64.70 LIG 0.04  C 
BRANCH 46 49
ATOM     49  C   PRO B 203       4.791  33.265 -16.378  1.00 68.17 LIG 0.22  C 
ATOM     50 O    PRO B 203       4.299  32.417 -17.125  1.00 70.96 LIG-0.29  OA
ENDBRANCH 46 49
ENDBRANCH 29 42
ENDBRANCH 3 29
TORSDOF 18
ENDMDL
MODEL 22
USER: ADFR SOLUTION from run 174
USER: SCORE 13.263184 LL:  -3.771 LR: -10.931 RR:   0.000 FEB:  -5.562
USER: RMSD 6.753304
USER: SEED 173
USER: STATUS no improvement in best in 12 clusters for 5 generations
USER: GENES 20
USER: genes 0 Translation |==|  0.40306 0.38216 0.54498
USER: genes 1 Rotation |==|  0.26726 0.19869 0.27595 0.73420
USER: genes 2 Torsion [N]-C--CA-[N] |==|  0.66150
USER: genes 3 Torsion [C]-CA--N-[C] |==|  0.64619
USER: genes 4 Torsion [N]-C--CA-[N] |==|  0.84748
USER: genes 5 Torsion [C]-CA--N-[C] |==|  0.66111
USER: genes 6 Torsion [N]-C--CA-[N] |==|  0.24210
USER: genes 7 Torsion [C]-CA--CB-[CG] |==|  0.44458
USER: genes 8 Torsion [CA]-CB--CG-[OD2] |==|  0.69608
USER: genes 9 Torsion [C]-CA--CB-[CG] |==|  0.77666
USER: genes 10 Torsion [CA]-CB--CG-[CD1] |==|  0.37330
USER: genes 11 Torsion [C]-CA--CB-[CG2] |==|  0.43376
USER: genes 12 Torsion [CA]-CB--OG1-[HG1] |==|  0.83891
USER: genes 13 Torsion [C]-N--CA-[C] |==|  0.83006
USER: genes 14 Torsion [N]-CA--CB-[CG] |==|  0.47612
USER: genes 15 Torsion [CA]-CB--CG-[CD] |==|  0.55053
USER: genes 16 Torsion [CB]-CG--CD-[NE] |==|  0.44236
USER: genes 17 Torsion [CG]-CD--NE-[CZ] |==|  0.46180
USER: genes 18 Torsion [N]-CA--C-[N] |==|  0.85049
USER: genes 19 Torsion [N]-CA--C-[O] |==|  0.14758
ROOT
ATOM      1  C   THR B 201       7.244  35.431 -10.791  1.00 36.45 LIG 0.24  C 
ATOM      2 O    THR B 201       7.025  36.433 -10.106  1.00 40.30 LIG-0.27  OA
ATOM      3  N   ARG B 202       8.268  34.612 -10.572  1.00 33.32 LIG-0.35  N 
ATOM      4 H    ARG B 202       8.392  33.885 -11.014  1.00 33.32 LIG 0.16  HD
ENDROOT
BRANCH 1 5
ATOM      5  CA  THR B 201       6.327  35.062 -11.961  1.00 30.51 LIG 0.20  C 
BRANCH 5 6
ATOM      6  N   THR B 201       6.232  36.121 -12.970  1.00 29.33 LIG-0.34  N 
ATOM      7  C   LEU B 200       5.052  36.583 -13.378  1.00 28.22 LIG 0.24  C 
ATOM      8 O    LEU B 200       3.991  36.243 -12.861  1.00 25.98 LIG-0.27  OA
ATOM      9 H    THR B 201       6.988  36.404 -13.264  1.00 29.33 LIG 0.16  HD
BRANCH 7 10
ATOM     10  CA  LEU B 200       5.062  37.584 -14.528  1.00 30.55 LIG 0.18  C 
BRANCH 10 11
ATOM     11  N   LEU B 200       5.913  38.724 -14.248  1.00 35.39 LIG-0.35  N 
ATOM     12 H    LEU B 200       6.733  38.528 -14.081  1.00 35.39 LIG 0.16  HD
ATOM     13  C   ASP B 199       5.428  39.959 -14.259  1.00 42.58 LIG 0.26  C 
ATOM     14 O    ASP B 199       4.239  40.205 -14.466  1.00 44.96 LIG-0.27  OA
BRANCH 13 15
ATOM     15  CA  ASP B 199       6.429  41.074 -13.979  1.00 43.98 LIG 0.41  C 
ATOM     16  N   ASP B 199       7.088  41.502 -15.210  1.00 41.74 LIG 0.61  N 
BRANCH 15 17
ATOM     17  CB  ASP B 199       5.725  42.250 -13.304  1.00 46.67 LIG 0.16  C 
BRANCH 17 18
ATOM     18  CG  ASP B 199       6.689  43.169 -12.570  1.00 50.58 LIG 0.17  C 
ATOM     19 OD2  ASP B 199       6.667  43.174 -11.320  1.00 55.98 LIG-0.65  OA
ATOM     20 OD1  ASP B 199       7.461  43.894 -13.232  1.00 45.33 LIG-0.65  OA
ENDBRANCH 17 18
ENDBRANCH 15 17
ENDBRANCH 13 15
ENDBRANCH 10 11
BRANCH 10 21
ATOM     21  CB  LEU B 200       5.515  36.898 -15.815  1.00 29.00 LIG 0.04  C 
BRANCH 21 22
ATOM     22  CG  LEU B 200       7.026  36.726 -15.958  1.00 29.82 LIG-0.02  C 
ATOM     23  CD1 LEU B 200       7.346  35.317 -16.429  1.00 24.53 LIG 0.01  C 
ATOM     24  CD2 LEU B 200       7.569  37.761 -16.935  1.00 31.40 LIG 0.01  C 
ENDBRANCH 21 22
ENDBRANCH 10 21
ENDBRANCH 7 10
ENDBRANCH 5 6
BRANCH 5 25
ATOM     25  CB  THR B 201       6.825  33.738 -12.583  1.00 29.82 LIG 0.15  C 
ATOM     26  CG2 THR B 201       5.701  33.029 -13.311  1.00 24.76 LIG 0.04  C 
BRANCH 25 27
ATOM     27 OG1  THR B 201       7.888  34.005 -13.505  1.00 30.74 LIG-0.39  OA
ATOM     28 HG1  THR B 201       7.617  34.533 -14.100  1.00 30.74 LIG 0.21  HD
ENDBRANCH 25 27
ENDBRANCH 5 25
ENDBRANCH 1 5
BRANCH 3 29
ATOM     29  CA  ARG B 202       9.289  34.868  -9.556  1.00 35.80 LIG 0.18  C 
BRANCH 29 30
ATOM     30  CB  ARG B 202      10.245  33.677  -9.516  1.00 39.99 LIG 0.04  C 
BRANCH 30 31
ATOM     31  CG  ARG B 202      11.446  33.942  -8.647  1.00 43.12 LIG 0.02  C 
BRANCH 31 32
ATOM     32  CD  ARG B 202      12.583  32.992  -8.935  1.00 49.76 LIG 0.14  C 
BRANCH 32 33
ATOM     33  NE  ARG B 202      13.847  33.547  -8.468  1.00 51.61 LIG-0.23  N 
ATOM     34  CZ  ARG B 202      14.965  32.842  -8.345  1.00 53.48 LIG 0.67  C 
ATOM     35  NH2 ARG B 202      16.074  33.427  -7.917  1.00 55.46 LIG-0.23  N 
ATOM     36  NH1 ARG B 202      14.972  31.550  -8.652  1.00 53.58 LIG-0.23  N 
ATOM     37 2HH2 ARG B 202      16.798  32.970  -7.838  1.00 55.46 LIG 0.17  HD
ATOM     38 1HH2 ARG B 202      16.069  34.263  -7.719  1.00 55.46 LIG 0.17  HD
ATOM     39 2HH1 ARG B 202      15.696  31.094  -8.573  1.00 53.58 LIG 0.17  HD
ATOM     40 1HH1 ARG B 202      14.252  31.171  -8.931  1.00 53.58 LIG 0.17  HD
ATOM     41 HE   ARG B 202      13.870  34.381  -8.260  1.00 51.61 LIG 0.18  HD
ENDBRANCH 32 33
ENDBRANCH 31 32
ENDBRANCH 30 31
ENDBRANCH 29 30
BRANCH 29 42
ATOM     42  C   ARG B 202      10.019  36.198  -9.879  1.00 54.52 LIG 0.24  C 
ATOM     43 O    ARG B 202      10.064  37.063  -9.010  1.00 52.27 LIG-0.27  OA
ATOM     44  N   PRO B 203      10.576  36.372 -11.117  1.00 63.22 LIG-0.34  N 
ATOM     45  CD  PRO B 203       9.999  35.882 -12.376  1.00 67.52 LIG 0.13  C 
ATOM     46  CA  PRO B 203      11.459  37.492 -11.477  1.00 66.04 LIG 0.17  C 
ATOM     47  CG  PRO B 203       9.604  37.194 -13.038  1.00 67.94 LIG 0.02  C 
ATOM     48  CB  PRO B 203      10.585  38.268 -12.475  1.00 64.70 LIG 0.04  C 
BRANCH 46 49
ATOM     49  C   PRO B 203      11.948  38.426 -10.370  1.00 68.17 LIG 0.22  C 
ATOM     50 O    PRO B 203      12.496  37.929  -9.384  1.00 70.96 LIG-0.29  OA
ENDBRANCH 46 49
ENDBRANCH 29 42
ENDBRANCH 3 29
TORSDOF 18
ENDMDL
MODEL 23
USER: ADFR SOLUTION from run 50
USER: SCORE 13.720646 LL:  -3.331 LR: -10.929 RR:   0.000 FEB:  -5.560
USER: RMSD 7.146966
USER: SEED 49
USER: STATUS no improvement in best in 23 clusters for 5 generations
USER: GENES 20
USER: genes 0 Translation |==|  0.37261 0.40342 0.52422
USER: genes 1 Rotation |==|  0.24289 0.32929 0.18870 0.74050
USER: genes 2 Torsion [N]-C--CA-[N] |==|  0.87635
USER: genes 3 Torsion [C]-CA--N-[C] |==|  0.63054
USER: genes 4 Torsion [N]-C--CA-[N] |==|  0.36828
USER: genes 5 Torsion [C]-CA--N-[C] |==|  0.84067
USER: genes 6 Torsion [N]-C--CA-[N] |==|  0.78108
USER: genes 7 Torsion [C]-CA--CB-[CG] |==|  0.21809
USER: genes 8 Torsion [CA]-CB--CG-[OD2] |==|  0.37692
USER: genes 9 Torsion [C]-CA--CB-[CG] |==|  0.09001
USER: genes 10 Torsion [CA]-CB--CG-[CD1] |==|  0.19763
USER: genes 11 Torsion [C]-CA--CB-[CG2] |==|  0.80895
USER: genes 12 Torsion [CA]-CB--OG1-[HG1] |==|  0.34848
USER: genes 13 Torsion [C]-N--CA-[C] |==|  0.83984
USER: genes 14 Torsion [N]-CA--CB-[CG] |==|  0.50465
USER: genes 15 Torsion [CA]-CB--CG-[CD] |==|  0.65011
USER: genes 16 Torsion [CB]-CG--CD-[NE] |==|  0.45516
USER: genes 17 Torsion [CG]-CD--NE-[CZ] |==|  0.67655
USER: genes 18 Torsion [N]-CA--C-[N] |==|  0.38035
USER: genes 19 Torsion [N]-CA--C-[O] |==|  0.31543
ROOT
ATOM      1  C   THR B 201       6.718  35.813 -11.180  1.00 36.45 LIG 0.24  C 
ATOM      2 O    THR B 201       7.013  36.427 -10.151  1.00 40.30 LIG-0.27  OA
ATOM      3  N   ARG B 202       7.259  34.644 -11.507  1.00 33.32 LIG-0.35  N 
ATOM      4 H    ARG B 202       7.017  34.189 -12.196  1.00 33.32 LIG 0.16  HD
ENDROOT
BRANCH 1 5
ATOM      5  CA  THR B 201       5.688  36.376 -12.164  1.00 30.51 LIG 0.20  C 
BRANCH 5 6
ATOM      6  N   THR B 201       6.111  36.267 -13.563  1.00 29.33 LIG-0.34  N 
ATOM      7  C   LEU B 200       6.009  37.298 -14.399  1.00 28.22 LIG 0.24  C 
ATOM      8 O    LEU B 200       5.668  38.419 -14.032  1.00 25.98 LIG-0.27  OA
ATOM      9 H    THR B 201       6.422  35.496 -13.783  1.00 29.33 LIG 0.16  HD
BRANCH 7 10
ATOM     10  CA  LEU B 200       6.347  37.036 -15.862  1.00 30.55 LIG 0.18  C 
BRANCH 10 11
ATOM     11  N   LEU B 200       5.342  37.576 -16.757  1.00 35.39 LIG-0.35  N 
ATOM     12 H    LEU B 200       5.640  38.137 -17.336  1.00 35.39 LIG 0.16  HD
ATOM     13  C   ASP B 199       4.072  37.207 -16.660  1.00 42.58 LIG 0.26  C 
ATOM     14 O    ASP B 199       3.669  36.427 -15.796  1.00 44.96 LIG-0.27  OA
BRANCH 13 15
ATOM     15  CA  ASP B 199       3.117  37.822 -17.677  1.00 43.98 LIG 0.41  C 
ATOM     16  N   ASP B 199       2.760  39.186 -17.297  1.00 41.74 LIG 0.61  N 
BRANCH 15 17
ATOM     17  CB  ASP B 199       3.749  37.796 -19.068  1.00 46.67 LIG 0.16  C 
BRANCH 17 18
ATOM     18  CG  ASP B 199       3.666  36.427 -19.725  1.00 50.58 LIG 0.17  C 
ATOM     19 OD2  ASP B 199       3.328  36.366 -20.927  1.00 55.98 LIG-0.65  OA
ATOM     20 OD1  ASP B 199       3.924  35.411 -19.046  1.00 45.33 LIG-0.65  OA
ENDBRANCH 17 18
ENDBRANCH 15 17
ENDBRANCH 13 15
ENDBRANCH 10 11
BRANCH 10 21
ATOM     21  CB  LEU B 200       7.715  37.627 -16.197  1.00 29.00 LIG 0.04  C 
BRANCH 21 22
ATOM     22  CG  LEU B 200       8.722  37.616 -15.050  1.00 29.82 LIG-0.02  C 
ATOM     23  CD1 LEU B 200       9.183  36.194 -14.776  1.00 24.53 LIG 0.01  C 
ATOM     24  CD2 LEU B 200       9.905  38.511 -15.398  1.00 31.40 LIG 0.01  C 
ENDBRANCH 21 22
ENDBRANCH 10 21
ENDBRANCH 7 10
ENDBRANCH 5 6
BRANCH 5 25
ATOM     25  CB  THR B 201       4.337  35.662 -11.929  1.00 29.82 LIG 0.15  C 
ATOM     26  CG2 THR B 201       4.416  34.210 -12.354  1.00 24.76 LIG 0.04  C 
BRANCH 25 27
ATOM     27 OG1  THR B 201       3.990  35.728 -10.541  1.00 30.74 LIG-0.39  OA
ATOM     28 HG1  THR B 201       3.224  36.063 -10.459  1.00 30.74 LIG 0.21  HD
ENDBRANCH 25 27
ENDBRANCH 5 25
ENDBRANCH 1 5
BRANCH 3 29
ATOM     29  CA  ARG B 202       8.323  34.013 -10.728  1.00 35.80 LIG 0.18  C 
BRANCH 29 30
ATOM     30  CB  ARG B 202       8.687  32.683 -11.386  1.00 39.99 LIG 0.04  C 
BRANCH 30 31
ATOM     31  CG  ARG B 202       9.752  31.943 -10.622  1.00 43.12 LIG 0.02  C 
BRANCH 31 32
ATOM     32  CD  ARG B 202      10.930  31.575 -11.491  1.00 49.76 LIG 0.14  C 
BRANCH 32 33
ATOM     33  NE  ARG B 202      12.080  31.214 -10.672  1.00 51.61 LIG-0.23  N 
ATOM     34  CZ  ARG B 202      13.223  31.890 -10.662  1.00 53.48 LIG 0.67  C 
ATOM     35  NH2 ARG B 202      14.219  31.496  -9.882  1.00 55.46 LIG-0.23  N 
ATOM     36  NH1 ARG B 202      13.367  32.962 -11.432  1.00 53.58 LIG-0.23  N 
ATOM     37 2HH2 ARG B 202      14.958  31.933  -9.875  1.00 55.46 LIG 0.17  HD
ATOM     38 1HH2 ARG B 202      14.125  30.802  -9.384  1.00 55.46 LIG 0.17  HD
ATOM     39 2HH1 ARG B 202      14.106  33.400 -11.425  1.00 53.58 LIG 0.17  HD
ATOM     40 1HH1 ARG B 202      12.720  33.218 -11.937  1.00 53.58 LIG 0.17  HD
ATOM     41 HE   ARG B 202      12.015  30.522 -10.166  1.00 51.61 LIG 0.18  HD
ENDBRANCH 32 33
ENDBRANCH 31 32
ENDBRANCH 30 31
ENDBRANCH 29 30
BRANCH 29 42
ATOM     42  C   ARG B 202       9.538  34.975 -10.636  1.00 54.52 LIG 0.24  C 
ATOM     43 O    ARG B 202       9.888  35.568 -11.650  1.00 52.27 LIG-0.27  OA
ATOM     44  N   PRO B 203      10.185  35.122  -9.439  1.00 63.22 LIG-0.34  N 
ATOM     45  CD  PRO B 203      10.416  34.044  -8.468  1.00 67.52 LIG 0.13  C 
ATOM     46  CA  PRO B 203      11.210  36.142  -9.174  1.00 66.04 LIG 0.17  C 
ATOM     47  CG  PRO B 203      11.926  33.886  -8.573  1.00 67.94 LIG 0.02  C 
ATOM     48  CB  PRO B 203      12.472  35.279  -9.011  1.00 64.70 LIG 0.04  C 
BRANCH 46 49
ATOM     49  C   PRO B 203      11.451  37.231 -10.220  1.00 68.17 LIG 0.22  C 
ATOM     50 O    PRO B 203      11.166  38.395  -9.930  1.00 70.96 LIG-0.29  OA
ENDBRANCH 46 49
ENDBRANCH 29 42
ENDBRANCH 3 29
TORSDOF 18
ENDMDL
MODEL 24
USER: ADFR SOLUTION from run 194
USER: SCORE 13.906578 LL:  -3.637 LR: -10.910 RR:   0.000 FEB:  -5.541
USER: RMSD 7.809704
USER: SEED 193
USER: STATUS no improvement in best in 18 clusters for 5 generations
USER: GENES 20
USER: genes 0 Translation |==|  0.37129 0.42658 0.39113
USER: genes 1 Rotation |==|  0.32106 0.69879 0.59530 0.91156
USER: genes 2 Torsion [N]-C--CA-[N] |==|  0.41655
USER: genes 3 Torsion [C]-CA--N-[C] |==|  0.70557
USER: genes 4 Torsion [N]-C--CA-[N] |==|  0.93545
USER: genes 5 Torsion [C]-CA--N-[C] |==|  0.79689
USER: genes 6 Torsion [N]-C--CA-[N] |==|  0.50393
USER: genes 7 Torsion [C]-CA--CB-[CG] |==|  0.29226
USER: genes 8 Torsion [CA]-CB--CG-[OD2] |==|  0.06978
USER: genes 9 Torsion [C]-CA--CB-[CG] |==|  0.44630
USER: genes 10 Torsion [CA]-CB--CG-[CD1] |==|  0.86272
USER: genes 11 Torsion [C]-CA--CB-[CG2] |==|  0.31514
USER: genes 12 Torsion [CA]-CB--OG1-[HG1] |==|  0.13704
USER: genes 13 Torsion [C]-N--CA-[C] |==|  0.63007
USER: genes 14 Torsion [N]-CA--CB-[CG] |==|  0.17197
USER: genes 15 Torsion [CA]-CB--CG-[CD] |==|  0.75225
USER: genes 16 Torsion [CB]-CG--CD-[NE] |==|  0.37841
USER: genes 17 Torsion [CG]-CD--NE-[CZ] |==|  0.58627
USER: genes 18 Torsion [N]-CA--C-[N] |==|  0.19143
USER: genes 19 Torsion [N]-CA--C-[O] |==|  0.30229
ROOT
ATOM      1  C   THR B 201       6.696  36.230 -13.675  1.00 36.45 LIG 0.24  C 
ATOM      2 O    THR B 201       7.664  36.937 -13.966  1.00 40.30 LIG-0.27  OA
ATOM      3  N   ARG B 202       5.632  36.099 -14.462  1.00 33.32 LIG-0.35  N 
ATOM      4 H    ARG B 202       4.980  35.566 -14.287  1.00 33.32 LIG 0.16  HD
ENDROOT
BRANCH 1 5
ATOM      5  CA  THR B 201       6.661  35.444 -12.361  1.00 30.51 LIG 0.20  C 
BRANCH 5 6
ATOM      6  N   THR B 201       7.992  35.045 -11.896  1.00 29.33 LIG-0.34  N 
ATOM      7  C   LEU B 200       8.407  33.784 -11.988  1.00 28.22 LIG 0.24  C 
ATOM      8 O    LEU B 200       7.761  32.912 -12.562  1.00 25.98 LIG-0.27  OA
ATOM      9 H    THR B 201       8.464  35.686 -11.568  1.00 29.33 LIG 0.16  HD
BRANCH 7 10
ATOM     10  CA  LEU B 200       9.752  33.451 -11.350  1.00 30.55 LIG 0.18  C 
BRANCH 10 11
ATOM     11  N   LEU B 200      10.597  34.622 -11.221  1.00 35.39 LIG-0.35  N 
ATOM     12 H    LEU B 200      10.681  34.919 -10.418  1.00 35.39 LIG 0.16  HD
ATOM     13  C   ASP B 199      11.178  35.166 -12.282  1.00 42.58 LIG 0.26  C 
ATOM     14 O    ASP B 199      11.009  34.740 -13.425  1.00 44.96 LIG-0.27  OA
BRANCH 13 15
ATOM     15  CA  ASP B 199      12.066  36.376 -12.012  1.00 43.98 LIG 0.41  C 
ATOM     16  N   ASP B 199      12.619  36.902 -13.257  1.00 41.74 LIG 0.61  N 
BRANCH 15 17
ATOM     17  CB  ASP B 199      11.270  37.453 -11.276  1.00 46.67 LIG 0.16  C 
BRANCH 17 18
ATOM     18  CG  ASP B 199      11.633  37.546  -9.802  1.00 50.58 LIG 0.17  C 
ATOM     19 OD2  ASP B 199      12.768  37.160  -9.445  1.00 55.98 LIG-0.65  OA
ATOM     20 OD1  ASP B 199      10.790  37.990  -8.996  1.00 45.33 LIG-0.65  OA
ENDBRANCH 17 18
ENDBRANCH 15 17
ENDBRANCH 13 15
ENDBRANCH 10 11
BRANCH 10 21
ATOM     21  CB  LEU B 200       9.538  32.809  -9.981  1.00 29.00 LIG 0.04  C 
BRANCH 21 22
ATOM     22  CG  LEU B 200      10.729  32.021  -9.444  1.00 29.82 LIG-0.02  C 
ATOM     23  CD1 LEU B 200      11.241  31.062 -10.506  1.00 24.53 LIG 0.01  C 
ATOM     24  CD2 LEU B 200      11.827  32.984  -9.009  1.00 31.40 LIG 0.01  C 
ENDBRANCH 21 22
ENDBRANCH 10 21
ENDBRANCH 7 10
ENDBRANCH 5 6
BRANCH 5 25
ATOM     25  CB  THR B 201       5.925  36.290 -11.297  1.00 29.82 LIG 0.15  C 
ATOM     26  CG2 THR B 201       4.618  35.636 -10.899  1.00 24.76 LIG 0.04  C 
BRANCH 25 27
ATOM     27 OG1  THR B 201       6.752  36.433 -10.136  1.00 30.74 LIG-0.39  OA
ATOM     28 HG1  THR B 201       7.521  36.679 -10.367  1.00 30.74 LIG 0.21  HD
ENDBRANCH 25 27
ENDBRANCH 5 25
ENDBRANCH 1 5
BRANCH 3 29
ATOM     29  CA  ARG B 202       5.464  36.849 -15.706  1.00 35.80 LIG 0.18  C 
BRANCH 29 30
ATOM     30  CB  ARG B 202       5.751  35.916 -16.880  1.00 39.99 LIG 0.04  C 
BRANCH 30 31
ATOM     31  CG  ARG B 202       4.793  34.756 -16.932  1.00 43.12 LIG 0.02  C 
BRANCH 31 32
ATOM     32  CD  ARG B 202       5.280  33.573 -16.131  1.00 49.76 LIG 0.14  C 
BRANCH 32 33
ATOM     33  NE  ARG B 202       4.192  33.001 -15.347  1.00 51.61 LIG-0.23  N 
ATOM     34  CZ  ARG B 202       4.361  32.405 -14.172  1.00 53.48 LIG 0.67  C 
ATOM     35  NH2 ARG B 202       3.315  31.916 -13.522  1.00 55.46 LIG-0.23  N 
ATOM     36  NH1 ARG B 202       5.576  32.302 -13.648  1.00 53.58 LIG-0.23  N 
ATOM     37 2HH2 ARG B 202       3.424  31.530 -12.762  1.00 55.46 LIG 0.17  HD
ATOM     38 1HH2 ARG B 202       2.529  31.983 -13.861  1.00 55.46 LIG 0.17  HD
ATOM     39 2HH1 ARG B 202       5.685  31.917 -12.888  1.00 53.58 LIG 0.17  HD
ATOM     40 1HH1 ARG B 202       6.254  32.621 -14.070  1.00 53.58 LIG 0.17  HD
ATOM     41 HE   ARG B 202       3.395  33.052 -15.664  1.00 51.61 LIG 0.18  HD
ENDBRANCH 32 33
ENDBRANCH 31 32
ENDBRANCH 30 31
ENDBRANCH 29 30
BRANCH 29 42
ATOM     42  C   ARG B 202       4.031  37.442 -15.763  1.00 54.52 LIG 0.24  C 
ATOM     43 O    ARG B 202       3.250  36.997 -16.597  1.00 52.27 LIG-0.27  OA
ATOM     44  N   PRO B 203       3.687  38.445 -14.898  1.00 63.22 LIG-0.34  N 
ATOM     45  CD  PRO B 203       4.582  39.526 -14.462  1.00 67.52 LIG 0.13  C 
ATOM     46  CA  PRO B 203       2.317  38.947 -14.716  1.00 66.04 LIG 0.17  C 
ATOM     47  CG  PRO B 203       3.938  40.722 -15.147  1.00 67.94 LIG 0.02  C 
ATOM     48  CB  PRO B 203       2.427  40.366 -15.295  1.00 64.70 LIG 0.04  C 
BRANCH 46 49
ATOM     49  C   PRO B 203       1.165  38.195 -15.384  1.00 68.17 LIG 0.22  C 
ATOM     50 O    PRO B 203       0.393  37.552 -14.670  1.00 70.96 LIG-0.29  OA
ENDBRANCH 46 49
ENDBRANCH 29 42
ENDBRANCH 3 29
TORSDOF 18
ENDMDL
MODEL 25
USER: ADFR SOLUTION from run 122
USER: SCORE 13.822202 LL:  -3.845 LR: -10.892 RR:   0.000 FEB:  -5.522
USER: RMSD 6.975627
USER: SEED 121
USER: STATUS no improvement in best in 24 clusters for 5 generations
USER: GENES 20
USER: genes 0 Translation |==|  0.34856 0.42747 0.38686
USER: genes 1 Rotation |==|  0.44401 0.87010 0.43463 0.82499
USER: genes 2 Torsion [N]-C--CA-[N] |==|  0.61344
USER: genes 3 Torsion [C]-CA--N-[C] |==|  0.65029
USER: genes 4 Torsion [N]-C--CA-[N] |==|  0.97431
USER: genes 5 Torsion [C]-CA--N-[C] |==|  0.76960
USER: genes 6 Torsion [N]-C--CA-[N] |==|  0.81848
USER: genes 7 Torsion [C]-CA--CB-[CG] |==|  0.74564
USER: genes 8 Torsion [CA]-CB--CG-[OD2] |==|  0.55656
USER: genes 9 Torsion [C]-CA--CB-[CG] |==|  0.37623
USER: genes 10 Torsion [CA]-CB--CG-[CD1] |==|  0.86065
USER: genes 11 Torsion [C]-CA--CB-[CG2] |==|  0.31397
USER: genes 12 Torsion [CA]-CB--OG1-[HG1] |==|  0.89096
USER: genes 13 Torsion [C]-N--CA-[C] |==|  0.63703
USER: genes 14 Torsion [N]-CA--CB-[CG] |==|  0.08416
USER: genes 15 Torsion [CA]-CB--CG-[CD] |==|  0.26966
USER: genes 16 Torsion [CB]-CG--CD-[NE] |==|  0.09944
USER: genes 17 Torsion [CG]-CD--NE-[CZ] |==|  0.58924
USER: genes 18 Torsion [N]-CA--C-[N] |==|  0.36793
USER: genes 19 Torsion [N]-CA--C-[O] |==|  0.25542
ROOT
ATOM      1  C   THR B 201       6.304  36.246 -13.755  1.00 36.45 LIG 0.24  C 
ATOM      2 O    THR B 201       7.088  35.941 -14.657  1.00 40.30 LIG-0.27  OA
ATOM      3  N   ARG B 202       5.335  37.144 -13.909  1.00 33.32 LIG-0.35  N 
ATOM      4 H    ARG B 202       4.754  37.319 -13.299  1.00 33.32 LIG 0.16  HD
ENDROOT
BRANCH 1 5
ATOM      5  CA  THR B 201       6.402  35.594 -12.373  1.00 30.51 LIG 0.20  C 
BRANCH 5 6
ATOM      6  N   THR B 201       7.784  35.434 -11.912  1.00 29.33 LIG-0.34  N 
ATOM      7  C   LEU B 200       8.251  34.249 -11.524  1.00 28.22 LIG 0.24  C 
ATOM      8 O    LEU B 200       7.603  33.212 -11.635  1.00 25.98 LIG-0.27  OA
ATOM      9 H    THR B 201       8.249  36.157 -11.916  1.00 29.33 LIG 0.16  HD
BRANCH 7 10
ATOM     10  CA  LEU B 200       9.656  34.220 -10.933  1.00 30.55 LIG 0.18  C 
BRANCH 10 11
ATOM     11  N   LEU B 200      10.339  35.489 -11.093  1.00 35.39 LIG-0.35  N 
ATOM     12 H    LEU B 200      10.304  36.005 -10.405  1.00 35.39 LIG 0.16  HD
ATOM     13  C   ASP B 199      10.958  35.795 -12.225  1.00 42.58 LIG 0.26  C 
ATOM     14 O    ASP B 199      10.960  35.050 -13.205  1.00 44.96 LIG-0.27  OA
BRANCH 13 15
ATOM     15  CA  ASP B 199      11.664  37.147 -12.257  1.00 43.98 LIG 0.41  C 
ATOM     16  N   ASP B 199      10.699  38.239 -12.157  1.00 41.74 LIG 0.61  N 
BRANCH 15 17
ATOM     17  CB  ASP B 199      12.690  37.227 -11.128  1.00 46.67 LIG 0.16  C 
BRANCH 17 18
ATOM     18  CG  ASP B 199      12.115  37.824  -9.853  1.00 50.58 LIG 0.17  C 
ATOM     19 OD2  ASP B 199      12.908  38.296  -9.009  1.00 55.98 LIG-0.65  OA
ATOM     20 OD1  ASP B 199      10.878  37.815  -9.683  1.00 45.33 LIG-0.65  OA
ENDBRANCH 17 18
ENDBRANCH 15 17
ENDBRANCH 13 15
ENDBRANCH 10 11
BRANCH 10 21
ATOM     21  CB  LEU B 200       9.596  33.842  -9.456  1.00 29.00 LIG 0.04  C 
BRANCH 21 22
ATOM     22  CG  LEU B 200      10.631  32.813  -9.009  1.00 29.82 LIG-0.02  C 
ATOM     23  CD1 LEU B 200      10.613  31.615  -9.944  1.00 24.53 LIG 0.01  C 
ATOM     24  CD2 LEU B 200      12.012  33.455  -8.979  1.00 31.40 LIG 0.01  C 
ENDBRANCH 21 22
ENDBRANCH 10 21
ENDBRANCH 7 10
ENDBRANCH 5 6
BRANCH 5 25
ATOM     25  CB  THR B 201       5.570  36.427 -11.371  1.00 29.82 LIG 0.15  C 
ATOM     26  CG2 THR B 201       4.370  35.640 -10.884  1.00 24.76 LIG 0.04  C 
BRANCH 25 27
ATOM     27 OG1  THR B 201       6.383  36.788 -10.249  1.00 30.74 LIG-0.39  OA
ATOM     28 HG1  THR B 201       6.880  36.143 -10.043  1.00 30.74 LIG 0.21  HD
ENDBRANCH 25 27
ENDBRANCH 5 25
ENDBRANCH 1 5
BRANCH 3 29
ATOM     29  CA  ARG B 202       5.160  37.924 -15.133  1.00 35.80 LIG 0.18  C 
BRANCH 29 30
ATOM     30  CB  ARG B 202       3.944  37.385 -15.885  1.00 39.99 LIG 0.04  C 
BRANCH 30 31
ATOM     31  CG  ARG B 202       2.908  36.814 -14.954  1.00 43.12 LIG 0.02  C 
BRANCH 31 32
ATOM     32  CD  ARG B 202       1.808  37.800 -14.646  1.00 49.76 LIG 0.14  C 
BRANCH 32 33
ATOM     33  NE  ARG B 202       1.510  38.619 -15.815  1.00 51.61 LIG-0.23  N 
ATOM     34  CZ  ARG B 202       1.103  39.882 -15.750  1.00 53.48 LIG 0.67  C 
ATOM     35  NH2 ARG B 202       0.859  40.556 -16.864  1.00 55.46 LIG-0.23  N 
ATOM     36  NH1 ARG B 202       0.943  40.468 -14.570  1.00 53.58 LIG-0.23  N 
ATOM     37 2HH2 ARG B 202       0.596  41.374 -16.822  1.00 55.46 LIG 0.17  HD
ATOM     38 1HH2 ARG B 202       0.964  40.177 -17.628  1.00 55.46 LIG 0.17  HD
ATOM     39 2HH1 ARG B 202       0.680  41.285 -14.529  1.00 53.58 LIG 0.17  HD
ATOM     40 1HH1 ARG B 202       1.103  40.029 -13.848  1.00 53.58 LIG 0.17  HD
ATOM     41 HE   ARG B 202       1.603  38.263 -16.592  1.00 51.61 LIG 0.18  HD
ENDBRANCH 32 33
ENDBRANCH 31 32
ENDBRANCH 30 31
ENDBRANCH 29 30
BRANCH 29 42
ATOM     42  C   ARG B 202       5.009  39.426 -14.773  1.00 54.52 LIG 0.24  C 
ATOM     43 O    ARG B 202       4.223  39.735 -13.884  1.00 52.27 LIG-0.27  OA
ATOM     44  N   PRO B 203       5.742  40.355 -15.459  1.00 63.22 LIG-0.34  N 
ATOM     45  CD  PRO B 203       6.059  40.287 -16.892  1.00 67.52 LIG 0.13  C 
ATOM     46  CA  PRO B 203       5.841  41.773 -15.082  1.00 66.04 LIG 0.17  C 
ATOM     47  CG  PRO B 203       5.226  41.444 -17.423  1.00 67.94 LIG 0.02  C 
ATOM     48  CB  PRO B 203       5.097  42.455 -16.242  1.00 64.70 LIG 0.04  C 
BRANCH 46 49
ATOM     49  C   PRO B 203       5.250  42.221 -13.745  1.00 68.17 LIG 0.22  C 
ATOM     50 O    PRO B 203       5.984  42.232 -12.755  1.00 70.96 LIG-0.29  OA
ENDBRANCH 46 49
ENDBRANCH 29 42
ENDBRANCH 3 29
TORSDOF 18
ENDMDL
MODEL 26
USER: ADFR SOLUTION from run 174
USER: SCORE 14.574208 LL:  -3.932 LR: -10.879 RR:   0.000 FEB:  -5.510
USER: RMSD 7.741766
USER: SEED 173
USER: STATUS no improvement in best in 12 clusters for 5 generations
USER: GENES 20
USER: genes 0 Translation |==|  0.28001 0.37652 0.38843
USER: genes 1 Rotation |==|  0.36937 0.20093 0.87353 0.56300
USER: genes 2 Torsion [N]-C--CA-[N] |==|  0.92000
USER: genes 3 Torsion [C]-CA--N-[C] |==|  0.78502
USER: genes 4 Torsion [N]-C--CA-[N] |==|  0.08834
USER: genes 5 Torsion [C]-CA--N-[C] |==|  0.16828
USER: genes 6 Torsion [N]-C--CA-[N] |==|  0.76340
USER: genes 7 Torsion [C]-CA--CB-[CG] |==|  0.51727
USER: genes 8 Torsion [CA]-CB--CG-[OD2] |==|  0.17324
USER: genes 9 Torsion [C]-CA--CB-[CG] |==|  0.31388
USER: genes 10 Torsion [CA]-CB--CG-[CD1] |==|  0.96242
USER: genes 11 Torsion [C]-CA--CB-[CG2] |==|  0.23963
USER: genes 12 Torsion [CA]-CB--OG1-[HG1] |==|  0.32274
USER: genes 13 Torsion [C]-N--CA-[C] |==|  0.17144
USER: genes 14 Torsion [N]-CA--CB-[CG] |==|  0.67581
USER: genes 15 Torsion [CA]-CB--CG-[CD] |==|  0.83252
USER: genes 16 Torsion [CB]-CG--CD-[NE] |==|  0.91969
USER: genes 17 Torsion [CG]-CD--NE-[CZ] |==|  0.40923
USER: genes 18 Torsion [N]-CA--C-[N] |==|  0.11432
USER: genes 19 Torsion [N]-CA--C-[O] |==|  0.19658
ROOT
ATOM      1  C   THR B 201       5.121  35.329 -13.726  1.00 36.45 LIG 0.24  C 
ATOM      2 O    THR B 201       3.936  35.000 -13.816  1.00 40.30 LIG-0.27  OA
ATOM      3  N   ARG B 202       5.792  35.903 -14.720  1.00 33.32 LIG-0.35  N 
ATOM      4 H    ARG B 202       6.601  36.183 -14.643  1.00 33.32 LIG 0.16  HD
ENDROOT
BRANCH 1 5
ATOM      5  CA  THR B 201       5.909  35.091 -12.434  1.00 30.51 LIG 0.20  C 
BRANCH 5 6
ATOM      6  N   THR B 201       7.343  34.895 -12.664  1.00 29.33 LIG-0.34  N 
ATOM      7  C   LEU B 200       7.818  33.737 -13.117  1.00 28.22 LIG 0.24  C 
ATOM      8 O    LEU B 200       7.090  32.815 -13.475  1.00 25.98 LIG-0.27  OA
ATOM      9 H    THR B 201       7.831  35.579 -12.483  1.00 29.33 LIG 0.16  HD
BRANCH 7 10
ATOM     10  CA  LEU B 200       9.335  33.594 -13.190  1.00 30.55 LIG 0.18  C 
BRANCH 10 11
ATOM     11  N   LEU B 200      10.002  34.348 -12.147  1.00 35.39 LIG-0.35  N 
ATOM     12 H    LEU B 200      10.538  34.957 -12.430  1.00 35.39 LIG 0.16  HD
ATOM     13  C   ASP B 199       9.776  34.090 -10.865  1.00 42.58 LIG 0.26  C 
ATOM     14 O    ASP B 199       9.028  33.186 -10.490  1.00 44.96 LIG-0.27  OA
BRANCH 13 15
ATOM     15  CA  ASP B 199      10.515  34.972  -9.865  1.00 43.98 LIG 0.41  C 
ATOM     16  N   ASP B 199      11.855  34.451  -9.604  1.00 41.74 LIG 0.61  N 
BRANCH 15 17
ATOM     17  CB  ASP B 199      10.584  36.406 -10.385  1.00 46.67 LIG 0.16  C 
BRANCH 17 18
ATOM     18  CG  ASP B 199      11.438  37.308  -9.508  1.00 50.58 LIG 0.17  C 
ATOM     19 OD2  ASP B 199      12.653  37.037  -9.384  1.00 55.98 LIG-0.65  OA
ATOM     20 OD1  ASP B 199      10.904  38.279  -8.932  1.00 45.33 LIG-0.65  OA
ENDBRANCH 17 18
ENDBRANCH 15 17
ENDBRANCH 13 15
ENDBRANCH 10 11
BRANCH 10 21
ATOM     21  CB  LEU B 200       9.726  32.121 -13.102  1.00 29.00 LIG 0.04  C 
BRANCH 21 22
ATOM     22  CG  LEU B 200      10.344  31.539 -14.371  1.00 29.82 LIG-0.02  C 
ATOM     23  CD1 LEU B 200      10.120  32.484 -15.539  1.00 24.53 LIG 0.01  C 
ATOM     24  CD2 LEU B 200      11.831  31.293 -14.151  1.00 31.40 LIG 0.01  C 
ENDBRANCH 21 22
ENDBRANCH 10 21
ENDBRANCH 7 10
ENDBRANCH 5 6
BRANCH 5 25
ATOM     25  CB  THR B 201       5.652  36.274 -11.472  1.00 29.82 LIG 0.15  C 
ATOM     26  CG2 THR B 201       4.400  36.037 -10.651  1.00 24.76 LIG 0.04  C 
BRANCH 25 27
ATOM     27 OG1  THR B 201       6.769  36.432 -10.590  1.00 30.74 LIG-0.39  OA
ATOM     28 HG1  THR B 201       7.133  37.177 -10.727  1.00 30.74 LIG 0.21  HD
ENDBRANCH 25 27
ENDBRANCH 5 25
ENDBRANCH 1 5
BRANCH 3 29
ATOM     29  CA  ARG B 202       5.217  36.117 -16.048  1.00 35.80 LIG 0.18  C 
BRANCH 29 30
ATOM     30  CB  ARG B 202       4.856  34.759 -16.647  1.00 39.99 LIG 0.04  C 
BRANCH 30 31
ATOM     31  CG  ARG B 202       5.648  34.458 -17.892  1.00 43.12 LIG 0.02  C 
BRANCH 31 32
ATOM     32  CD  ARG B 202       5.416  35.478 -18.980  1.00 49.76 LIG 0.14  C 
BRANCH 32 33
ATOM     33  NE  ARG B 202       4.080  36.053 -18.869  1.00 51.61 LIG-0.23  N 
ATOM     34  CZ  ARG B 202       3.784  37.304 -19.200  1.00 53.48 LIG 0.67  C 
ATOM     35  NH2 ARG B 202       2.541  37.745 -19.072  1.00 55.46 LIG-0.23  N 
ATOM     36  NH1 ARG B 202       4.731  38.111 -19.660  1.00 53.58 LIG-0.23  N 
ATOM     37 2HH2 ARG B 202       2.349  38.555 -19.286  1.00 55.46 LIG 0.17  HD
ATOM     38 1HH2 ARG B 202       1.928  37.222 -18.775  1.00 55.46 LIG 0.17  HD
ATOM     39 2HH1 ARG B 202       4.539  38.921 -19.874  1.00 53.58 LIG 0.17  HD
ATOM     40 1HH1 ARG B 202       5.537  37.824 -19.743  1.00 53.58 LIG 0.17  HD
ATOM     41 HE   ARG B 202       3.448  35.552 -18.571  1.00 51.61 LIG 0.18  HD
ENDBRANCH 32 33
ENDBRANCH 31 32
ENDBRANCH 30 31
ENDBRANCH 29 30
BRANCH 29 42
ATOM     42  C   ARG B 202       3.987  37.056 -15.935  1.00 54.52 LIG 0.24  C 
ATOM     43 O    ARG B 202       2.998  36.802 -16.614  1.00 52.27 LIG-0.27  OA
ATOM     44  N   PRO B 203       4.045  38.137 -15.099  1.00 63.22 LIG-0.34  N 
ATOM     45  CD  PRO B 203       5.239  38.965 -14.873  1.00 67.52 LIG 0.13  C 
ATOM     46  CA  PRO B 203       2.890  38.979 -14.753  1.00 66.04 LIG 0.17  C 
ATOM     47  CG  PRO B 203       4.812  40.266 -15.536  1.00 67.94 LIG 0.02  C 
ATOM     48  CB  PRO B 203       3.257  40.306 -15.437  1.00 64.70 LIG 0.04  C 
BRANCH 46 49
ATOM     49  C   PRO B 203       1.496  38.529 -15.193  1.00 68.17 LIG 0.22  C 
ATOM     50 O    PRO B 203       0.993  37.552 -14.635  1.00 70.96 LIG-0.29  OA
ENDBRANCH 46 49
ENDBRANCH 29 42
ENDBRANCH 3 29
TORSDOF 18
ENDMDL
MODEL 27
USER: ADFR SOLUTION from run 88
USER: SCORE 12.605694 LL:  -2.976 LR: -10.871 RR:   0.000 FEB:  -5.502
USER: RMSD 7.921954
USER: SEED 87
USER: STATUS no improvement in best in 11 clusters for 5 generations
USER: GENES 20
USER: genes 0 Translation |==|  0.42653 0.29276 0.51823
USER: genes 1 Rotation |==|  0.30685 0.90586 0.32111 0.62638
USER: genes 2 Torsion [N]-C--CA-[N] |==|  0.59787
USER: genes 3 Torsion [C]-CA--N-[C] |==|  0.62538
USER: genes 4 Torsion [N]-C--CA-[N] |==|  0.19980
USER: genes 5 Torsion [C]-CA--N-[C] |==|  0.78333
USER: genes 6 Torsion [N]-C--CA-[N] |==|  0.33300
USER: genes 7 Torsion [C]-CA--CB-[CG] |==|  0.23174
USER: genes 8 Torsion [CA]-CB--CG-[OD2] |==|  0.65313
USER: genes 9 Torsion [C]-CA--CB-[CG] |==|  0.46914
USER: genes 10 Torsion [CA]-CB--CG-[CD1] |==|  0.39886
USER: genes 11 Torsion [C]-CA--CB-[CG2] |==|  0.45242
USER: genes 12 Torsion [CA]-CB--OG1-[HG1] |==|  0.04913
USER: genes 13 Torsion [C]-N--CA-[C] |==|  0.80824
USER: genes 14 Torsion [N]-CA--CB-[CG] |==|  0.31168
USER: genes 15 Torsion [CA]-CB--CG-[CD] |==|  0.26244
USER: genes 16 Torsion [CB]-CG--CD-[NE] |==|  0.36485
USER: genes 17 Torsion [CG]-CD--NE-[CZ] |==|  0.35569
USER: genes 18 Torsion [N]-CA--C-[N] |==|  0.32491
USER: genes 19 Torsion [N]-CA--C-[O] |==|  0.75943
ROOT
ATOM      1  C   THR B 201       7.649  33.822 -11.292  1.00 36.45 LIG 0.24  C 
ATOM      2 O    THR B 201       7.774  32.804 -11.977  1.00 40.30 LIG-0.27  OA
ATOM      3  N   ARG B 202       6.592  34.625 -11.373  1.00 33.32 LIG-0.35  N 
ATOM      4 H    ARG B 202       6.477  35.305 -10.860  1.00 33.32 LIG 0.16  HD
ENDROOT
BRANCH 1 5
ATOM      5  CA  THR B 201       8.727  34.230 -10.284  1.00 30.51 LIG 0.20  C 
BRANCH 5 6
ATOM      6  N   THR B 201      10.085  33.915 -10.737  1.00 29.33 LIG-0.34  N 
ATOM      7  C   LEU B 200      10.971  33.347  -9.923  1.00 28.22 LIG 0.24  C 
ATOM      8 O    LEU B 200      10.681  32.952  -8.797  1.00 25.98 LIG-0.27  OA
ATOM      9 H    THR B 201      10.247  34.126 -11.555  1.00 29.33 LIG 0.16  HD
BRANCH 7 10
ATOM     10  CA  LEU B 200      12.393  33.189 -10.452  1.00 30.55 LIG 0.18  C 
BRANCH 10 11
ATOM     11  N   LEU B 200      13.088  34.459 -10.528  1.00 35.39 LIG-0.35  N 
ATOM     12 H    LEU B 200      13.647  34.602  -9.891  1.00 35.39 LIG 0.16  HD
ATOM     13  C   ASP B 199      12.853  35.308 -11.520  1.00 42.58 LIG 0.26  C 
ATOM     14 O    ASP B 199      12.020  35.090 -12.399  1.00 44.96 LIG-0.27  OA
BRANCH 13 15
ATOM     15  CA  ASP B 199      13.670  36.596 -11.505  1.00 43.98 LIG 0.41  C 
ATOM     16  N   ASP B 199      14.476  36.714 -12.717  1.00 41.74 LIG 0.61  N 
BRANCH 15 17
ATOM     17  CB  ASP B 199      12.741  37.800 -11.354  1.00 46.67 LIG 0.16  C 
BRANCH 17 18
ATOM     18  CG  ASP B 199      12.371  38.077  -9.905  1.00 50.58 LIG 0.17  C 
ATOM     19 OD2  ASP B 199      11.158  38.131  -9.603  1.00 55.98 LIG-0.65  OA
ATOM     20 OD1  ASP B 199      13.281  38.252  -9.068  1.00 45.33 LIG-0.65  OA
ENDBRANCH 17 18
ENDBRANCH 15 17
ENDBRANCH 13 15
ENDBRANCH 10 11
BRANCH 10 21
ATOM     21  CB  LEU B 200      13.175  32.218  -9.570  1.00 29.00 LIG 0.04  C 
BRANCH 21 22
ATOM     22  CG  LEU B 200      14.519  31.769 -10.136  1.00 29.82 LIG-0.02  C 
ATOM     23  CD1 LEU B 200      15.534  31.622  -9.015  1.00 24.53 LIG 0.01  C 
ATOM     24  CD2 LEU B 200      14.346  30.455 -10.886  1.00 31.40 LIG 0.01  C 
ENDBRANCH 21 22
ENDBRANCH 10 21
ENDBRANCH 7 10
ENDBRANCH 5 6
BRANCH 5 25
ATOM     25  CB  THR B 201       8.574  35.737  -9.978  1.00 29.82 LIG 0.15  C 
ATOM     26  CG2 THR B 201       9.313  36.106  -8.707  1.00 24.76 LIG 0.04  C 
BRANCH 25 27
ATOM     27 OG1  THR B 201       9.097  36.508 -11.066  1.00 30.74 LIG-0.39  OA
ATOM     28 HG1  THR B 201       9.161  36.022 -11.749  1.00 30.74 LIG 0.21  HD
ENDBRANCH 25 27
ENDBRANCH 5 25
ENDBRANCH 1 5
BRANCH 3 29
ATOM     29  CA  ARG B 202       5.518  34.431 -12.347  1.00 35.80 LIG 0.18  C 
BRANCH 29 30
ATOM     30  CB  ARG B 202       4.348  35.336 -11.967  1.00 39.99 LIG 0.04  C 
BRANCH 30 31
ATOM     31  CG  ARG B 202       4.132  36.438 -12.970  1.00 43.12 LIG 0.02  C 
BRANCH 31 32
ATOM     32  CD  ARG B 202       3.099  36.074 -14.008  1.00 49.76 LIG 0.14  C 
BRANCH 32 33
ATOM     33  NE  ARG B 202       2.125  37.148 -14.163  1.00 51.61 LIG-0.23  N 
ATOM     34  CZ  ARG B 202       1.800  37.688 -15.332  1.00 53.48 LIG 0.67  C 
ATOM     35  NH2 ARG B 202       0.899  38.659 -15.384  1.00 55.46 LIG-0.23  N 
ATOM     36  NH1 ARG B 202       2.374  37.255 -16.447  1.00 53.58 LIG-0.23  N 
ATOM     37 2HH2 ARG B 202       0.688  39.009 -16.140  1.00 55.46 LIG 0.17  HD
ATOM     38 1HH2 ARG B 202       0.527  38.939 -14.662  1.00 55.46 LIG 0.17  HD
ATOM     39 2HH1 ARG B 202       2.163  37.605 -17.203  1.00 53.58 LIG 0.17  HD
ATOM     40 1HH1 ARG B 202       2.958  36.624 -16.413  1.00 53.58 LIG 0.17  HD
ATOM     41 HE   ARG B 202       1.740  37.449 -13.456  1.00 51.61 LIG 0.18  HD
ENDBRANCH 32 33
ENDBRANCH 31 32
ENDBRANCH 30 31
ENDBRANCH 29 30
BRANCH 29 42
ATOM     42  C   ARG B 202       6.052  34.729 -13.773  1.00 54.52 LIG 0.24  C 
ATOM     43 O    ARG B 202       6.429  35.869 -14.027  1.00 52.27 LIG-0.27  OA
ATOM     44  N   PRO B 203       6.077  33.725 -14.702  1.00 63.22 LIG-0.34  N 
ATOM     45  CD  PRO B 203       5.055  32.677 -14.836  1.00 67.52 LIG 0.13  C 
ATOM     46  CA  PRO B 203       6.739  33.825 -16.011  1.00 66.04 LIG 0.17  C 
ATOM     47  CG  PRO B 203       4.422  33.066 -16.164  1.00 67.94 LIG 0.02  C 
ATOM     48  CB  PRO B 203       5.536  33.802 -16.969  1.00 64.70 LIG 0.04  C 
BRANCH 46 49
ATOM     49  C   PRO B 203       7.616  35.044 -16.299  1.00 68.17 LIG 0.22  C 
ATOM     50 O    PRO B 203       7.079  36.059 -16.746  1.00 70.96 LIG-0.29  OA
ENDBRANCH 46 49
ENDBRANCH 29 42
ENDBRANCH 3 29
TORSDOF 18
ENDMDL
MODEL 28
USER: ADFR SOLUTION from run 170
USER: SCORE 13.787419 LL:  -3.689 LR: -10.855 RR:   0.000 FEB:  -5.485
USER: RMSD 7.815189
USER: SEED 169
USER: STATUS searching
USER: GENES 20
USER: genes 0 Translation |==|  0.44371 0.29967 0.46189
USER: genes 1 Rotation |==|  0.04111 0.32961 0.43891 0.58156
USER: genes 2 Torsion [N]-C--CA-[N] |==|  0.47718
USER: genes 3 Torsion [C]-CA--N-[C] |==|  0.59444
USER: genes 4 Torsion [N]-C--CA-[N] |==|  0.96563
USER: genes 5 Torsion [C]-CA--N-[C] |==|  0.61470
USER: genes 6 Torsion [N]-C--CA-[N] |==|  0.48674
USER: genes 7 Torsion [C]-CA--CB-[CG] |==|  0.85847
USER: genes 8 Torsion [CA]-CB--CG-[OD2] |==|  0.34320
USER: genes 9 Torsion [C]-CA--CB-[CG] |==|  0.53492
USER: genes 10 Torsion [CA]-CB--CG-[CD1] |==|  0.27571
USER: genes 11 Torsion [C]-CA--CB-[CG2] |==|  0.52523
USER: genes 12 Torsion [CA]-CB--OG1-[HG1] |==|  0.23076
USER: genes 13 Torsion [C]-N--CA-[C] |==|  0.79838
USER: genes 14 Torsion [N]-CA--CB-[CG] |==|  0.73411
USER: genes 15 Torsion [CA]-CB--CG-[CD] |==|  0.82800
USER: genes 16 Torsion [CB]-CG--CD-[NE] |==|  0.78237
USER: genes 17 Torsion [CG]-CD--NE-[CZ] |==|  0.57634
USER: genes 18 Torsion [N]-CA--C-[N] |==|  0.44125
USER: genes 19 Torsion [N]-CA--C-[O] |==|  0.76014
ROOT
ATOM      1  C   THR B 201       7.945  33.946 -12.349  1.00 36.45 LIG 0.24  C 
ATOM      2 O    THR B 201       8.683  34.768 -12.897  1.00 40.30 LIG-0.27  OA
ATOM      3  N   ARG B 202       8.403  32.913 -11.649  1.00 33.32 LIG-0.35  N 
ATOM      4 H    ARG B 202       7.892  32.369 -11.221  1.00 33.32 LIG 0.16  HD
ENDROOT
BRANCH 1 5
ATOM      5  CA  THR B 201       6.421  34.070 -12.443  1.00 30.51 LIG 0.20  C 
BRANCH 5 6
ATOM      6  N   THR B 201       5.985  35.326 -13.061  1.00 29.33 LIG-0.34  N 
ATOM      7  C   LEU B 200       4.866  35.934 -12.674  1.00 28.22 LIG 0.24  C 
ATOM      8 O    LEU B 200       4.200  35.553 -11.715  1.00 25.98 LIG-0.27  OA
ATOM      9 H    THR B 201       6.506  35.621 -13.677  1.00 29.33 LIG 0.16  HD
BRANCH 7 10
ATOM     10  CA  LEU B 200       4.433  37.158 -13.474  1.00 30.55 LIG 0.18  C 
BRANCH 10 11
ATOM     11  N   LEU B 200       5.481  37.625 -14.361  1.00 35.39 LIG-0.35  N 
ATOM     12 H    LEU B 200       5.912  37.002 -14.767  1.00 35.39 LIG 0.16  HD
ATOM     13  C   ASP B 199       5.725  38.920 -14.508  1.00 42.58 LIG 0.26  C 
ATOM     14 O    ASP B 199       5.114  39.788 -13.885  1.00 44.96 LIG-0.27  OA
BRANCH 13 15
ATOM     15  CA  ASP B 199       6.832  39.285 -15.492  1.00 43.98 LIG 0.41  C 
ATOM     16  N   ASP B 199       6.929  40.733 -15.651  1.00 41.74 LIG 0.61  N 
BRANCH 15 17
ATOM     17  CB  ASP B 199       8.163  38.702 -15.019  1.00 46.67 LIG 0.16  C 
BRANCH 17 18
ATOM     18  CG  ASP B 199       8.471  39.043 -13.570  1.00 50.58 LIG 0.17  C 
ATOM     19 OD2  ASP B 199       8.683  38.103 -12.772  1.00 55.98 LIG-0.65  OA
ATOM     20 OD1  ASP B 199       8.490  40.241 -13.218  1.00 45.33 LIG-0.65  OA
ENDBRANCH 17 18
ENDBRANCH 15 17
ENDBRANCH 13 15
ENDBRANCH 10 11
BRANCH 10 21
ATOM     21  CB  LEU B 200       3.174  36.841 -14.276  1.00 29.00 LIG 0.04  C 
BRANCH 21 22
ATOM     22  CG  LEU B 200       2.809  37.872 -15.342  1.00 29.82 LIG-0.02  C 
ATOM     23  CD1 LEU B 200       3.279  37.397 -16.707  1.00 24.53 LIG 0.01  C 
ATOM     24  CD2 LEU B 200       1.304  38.103 -15.338  1.00 31.40 LIG 0.01  C 
ENDBRANCH 21 22
ENDBRANCH 10 21
ENDBRANCH 7 10
ENDBRANCH 5 6
BRANCH 5 25
ATOM     25  CB  THR B 201       5.871  32.847 -13.212  1.00 29.82 LIG 0.15  C 
ATOM     26  CG2 THR B 201       4.400  33.026 -13.528  1.00 24.76 LIG 0.04  C 
BRANCH 25 27
ATOM     27 OG1  THR B 201       6.598  32.677 -14.435  1.00 30.74 LIG-0.39  OA
ATOM     28 HG1  THR B 201       7.309  32.256 -14.283  1.00 30.74 LIG 0.21  HD
ENDBRANCH 25 27
ENDBRANCH 5 25
ENDBRANCH 1 5
BRANCH 3 29
ATOM     29  CA  ARG B 202       9.827  32.597 -11.537  1.00 35.80 LIG 0.18  C 
BRANCH 29 30
ATOM     30  CB  ARG B 202      10.019  31.618 -10.379  1.00 39.99 LIG 0.04  C 
BRANCH 30 31
ATOM     31  CG  ARG B 202      10.395  32.318  -9.100  1.00 43.12 LIG 0.02  C 
BRANCH 31 32
ATOM     32  CD  ARG B 202      11.708  33.054  -9.213  1.00 49.76 LIG 0.14  C 
BRANCH 32 33
ATOM     33  NE  ARG B 202      12.827  32.126  -9.105  1.00 51.61 LIG-0.23  N 
ATOM     34  CZ  ARG B 202      14.028  32.465  -8.651  1.00 53.48 LIG 0.67  C 
ATOM     35  NH2 ARG B 202      14.990  31.557  -8.580  1.00 55.46 LIG-0.23  N 
ATOM     36  NH1 ARG B 202      14.264  33.714  -8.266  1.00 53.58 LIG-0.23  N 
ATOM     37 2HH2 ARG B 202      15.767  31.776  -8.287  1.00 55.46 LIG 0.17  HD
ATOM     38 1HH2 ARG B 202      14.836  30.749  -8.829  1.00 55.46 LIG 0.17  HD
ATOM     39 2HH1 ARG B 202      15.041  33.933  -7.973  1.00 53.58 LIG 0.17  HD
ATOM     40 1HH1 ARG B 202      13.639  34.303  -8.312  1.00 53.58 LIG 0.17  HD
ATOM     41 HE   ARG B 202      12.702  31.311  -9.349  1.00 51.61 LIG 0.18  HD
ENDBRANCH 32 33
ENDBRANCH 31 32
ENDBRANCH 30 31
ENDBRANCH 29 30
BRANCH 29 42
ATOM     42  C   ARG B 202      10.338  32.021 -12.884  1.00 54.52 LIG 0.24  C 
ATOM     43 O    ARG B 202       9.518  31.534 -13.656  1.00 52.27 LIG-0.27  OA
ATOM     44  N   PRO B 203      11.676  32.061 -13.165  1.00 63.22 LIG-0.34  N 
ATOM     45  CD  PRO B 203      12.749  31.866 -12.180  1.00 67.52 LIG 0.13  C 
ATOM     46  CA  PRO B 203      12.256  31.736 -14.476  1.00 66.04 LIG 0.17  C 
ATOM     47  CG  PRO B 203      13.312  30.528 -12.635  1.00 67.94 LIG 0.02  C 
ATOM     48  CB  PRO B 203      13.021  30.440 -14.164  1.00 64.70 LIG 0.04  C 
BRANCH 46 49
ATOM     49  C   PRO B 203      11.315  31.519 -15.662  1.00 68.17 LIG 0.22  C 
ATOM     50 O    PRO B 203      10.846  30.392 -15.838  1.00 70.96 LIG-0.29  OA
ENDBRANCH 46 49
ENDBRANCH 29 42
ENDBRANCH 3 29
TORSDOF 18
ENDMDL
MODEL 29
USER: ADFR SOLUTION from run 6
USER: SCORE 13.582219 LL:  -3.732 LR: -10.767 RR:   0.000 FEB:  -5.398
USER: RMSD 7.565922
USER: SEED 173115
USER: STATUS no improvement in best in 19 clusters for 5 generations
USER: GENES 20
USER: genes 0 Translation |==|  0.33853 0.34412 0.34045
USER: genes 1 Rotation |==|  0.38910 0.43344 0.70808 0.93586
USER: genes 2 Torsion [N]-C--CA-[N] |==|  0.35559
USER: genes 3 Torsion [C]-CA--N-[C] |==|  0.85135
USER: genes 4 Torsion [N]-C--CA-[N] |==|  0.65810
USER: genes 5 Torsion [C]-CA--N-[C] |==|  0.14477
USER: genes 6 Torsion [N]-C--CA-[N] |==|  0.37393
USER: genes 7 Torsion [C]-CA--CB-[CG] |==|  0.59541
USER: genes 8 Torsion [CA]-CB--CG-[OD2] |==|  0.70334
USER: genes 9 Torsion [C]-CA--CB-[CG] |==|  0.59582
USER: genes 10 Torsion [CA]-CB--CG-[CD1] |==|  0.40544
USER: genes 11 Torsion [C]-CA--CB-[CG2] |==|  0.08857
USER: genes 12 Torsion [CA]-CB--OG1-[HG1] |==|  0.60587
USER: genes 13 Torsion [C]-N--CA-[C] |==|  0.82607
USER: genes 14 Torsion [N]-CA--CB-[CG] |==|  0.23111
USER: genes 15 Torsion [CA]-CB--CG-[CD] |==|  0.34443
USER: genes 16 Torsion [CB]-CG--CD-[NE] |==|  0.73861
USER: genes 17 Torsion [CG]-CD--NE-[CZ] |==|  0.29753
USER: genes 18 Torsion [N]-CA--C-[N] |==|  0.31717
USER: genes 19 Torsion [N]-CA--C-[O] |==|  0.17395
ROOT
ATOM      1  C   THR B 201       6.131  34.746 -14.626  1.00 36.45 LIG 0.24  C 
ATOM      2 O    THR B 201       6.261  35.668 -13.816  1.00 40.30 LIG-0.27  OA
ATOM      3  N   ARG B 202       5.927  34.945 -15.924  1.00 33.32 LIG-0.35  N 
ATOM      4 H    ARG B 202       5.889  34.305 -16.498  1.00 33.32 LIG 0.16  HD
ENDROOT
BRANCH 1 5
ATOM      5  CA  THR B 201       6.198  33.284 -14.172  1.00 30.51 LIG 0.20  C 
BRANCH 5 6
ATOM      6  N   THR B 201       7.396  32.983 -13.384  1.00 29.33 LIG-0.34  N 
ATOM      7  C   LEU B 200       8.614  33.265 -13.843  1.00 28.22 LIG 0.24  C 
ATOM      8 O    LEU B 200       8.803  33.890 -14.883  1.00 25.98 LIG-0.27  OA
ATOM      9 H    THR B 201       7.241  32.617 -12.622  1.00 29.33 LIG 0.16  HD
BRANCH 7 10
ATOM     10  CA  LEU B 200       9.795  32.785 -13.007  1.00 30.55 LIG 0.18  C 
BRANCH 10 11
ATOM     11  N   LEU B 200      10.670  33.877 -12.626  1.00 35.39 LIG-0.35  N 
ATOM     12 H    LEU B 200      11.500  33.755 -12.813  1.00 35.39 LIG 0.16  HD
ATOM     13  C   ASP B 199      10.190  34.964 -12.037  1.00 42.58 LIG 0.26  C 
ATOM     14 O    ASP B 199       9.000  35.095 -11.749  1.00 44.96 LIG-0.27  OA
BRANCH 13 15
ATOM     15  CA  ASP B 199      11.206  36.054 -11.713  1.00 43.98 LIG 0.41  C 
ATOM     16  N   ASP B 199      10.699  37.368 -12.099  1.00 41.74 LIG 0.61  N 
BRANCH 15 17
ATOM     17  CB  ASP B 199      11.549  36.022 -10.225  1.00 46.67 LIG 0.16  C 
BRANCH 17 18
ATOM     18  CG  ASP B 199      11.818  37.406  -9.655  1.00 50.58 LIG 0.17  C 
ATOM     19 OD2  ASP B 199      12.998  37.717  -9.384  1.00 55.98 LIG-0.65  OA
ATOM     20 OD1  ASP B 199      10.857  38.181  -9.464  1.00 45.33 LIG-0.65  OA
ENDBRANCH 17 18
ENDBRANCH 15 17
ENDBRANCH 13 15
ENDBRANCH 10 11
BRANCH 10 21
ATOM     21  CB  LEU B 200       9.295  32.059 -11.761  1.00 29.00 LIG 0.04  C 
BRANCH 21 22
ATOM     22  CG  LEU B 200      10.156  32.245 -10.514  1.00 29.82 LIG-0.02  C 
ATOM     23  CD1 LEU B 200       9.279  32.262  -9.274  1.00 24.53 LIG 0.01  C 
ATOM     24  CD2 LEU B 200      11.188  31.127 -10.433  1.00 31.40 LIG 0.01  C 
ENDBRANCH 21 22
ENDBRANCH 10 21
ENDBRANCH 7 10
ENDBRANCH 5 6
BRANCH 5 25
ATOM     25  CB  THR B 201       4.910  32.951 -13.384  1.00 29.82 LIG 0.15  C 
ATOM     26  CG2 THR B 201       3.734  33.746 -13.914  1.00 24.76 LIG 0.04  C 
BRANCH 25 27
ATOM     27 OG1  THR B 201       4.622  31.552 -13.498  1.00 30.74 LIG-0.39  OA
ATOM     28 HG1  THR B 201       3.792  31.441 -13.564  1.00 30.74 LIG 0.21  HD
ENDBRANCH 25 27
ENDBRANCH 5 25
ENDBRANCH 1 5
BRANCH 3 29
ATOM     29  CA  ARG B 202       5.746  36.274 -16.507  1.00 35.80 LIG 0.18  C 
BRANCH 29 30
ATOM     30  CB  ARG B 202       5.675  36.133 -18.027  1.00 39.99 LIG 0.04  C 
BRANCH 30 31
ATOM     31  CG  ARG B 202       4.294  35.764 -18.500  1.00 43.12 LIG 0.02  C 
BRANCH 31 32
ATOM     32  CD  ARG B 202       3.752  36.746 -19.509  1.00 49.76 LIG 0.14  C 
BRANCH 32 33
ATOM     33  NE  ARG B 202       2.943  37.766 -18.852  1.00 51.61 LIG-0.23  N 
ATOM     34  CZ  ARG B 202       3.333  39.023 -18.682  1.00 53.48 LIG 0.67  C 
ATOM     35  NH2 ARG B 202       2.533  39.889 -18.078  1.00 55.46 LIG-0.23  N 
ATOM     36  NH1 ARG B 202       4.524  39.414 -19.119  1.00 53.58 LIG-0.23  N 
ATOM     37 2HH2 ARG B 202       2.785  40.703 -17.968  1.00 55.46 LIG 0.17  HD
ATOM     38 1HH2 ARG B 202       1.761  39.636 -17.796  1.00 55.46 LIG 0.17  HD
ATOM     39 2HH1 ARG B 202       4.776  40.228 -19.009  1.00 53.58 LIG 0.17  HD
ATOM     40 1HH1 ARG B 202       5.043  38.852 -19.512  1.00 53.58 LIG 0.17  HD
ATOM     41 HE   ARG B 202       2.168  37.539 -18.558  1.00 51.61 LIG 0.18  HD
ENDBRANCH 32 33
ENDBRANCH 31 32
ENDBRANCH 30 31
ENDBRANCH 29 30
BRANCH 29 42
ATOM     42  C   ARG B 202       4.468  36.928 -15.917  1.00 54.52 LIG 0.24  C 
ATOM     43 O    ARG B 202       3.381  36.427 -16.186  1.00 52.27 LIG-0.27  OA
ATOM     44  N   PRO B 203       4.589  38.042 -15.132  1.00 63.22 LIG-0.34  N 
ATOM     45  CD  PRO B 203       5.565  39.120 -15.344  1.00 67.52 LIG 0.13  C 
ATOM     46  CA  PRO B 203       3.487  38.631 -14.357  1.00 66.04 LIG 0.17  C 
ATOM     47  CG  PRO B 203       4.647  40.258 -15.763  1.00 67.94 LIG 0.02  C 
ATOM     48  CB  PRO B 203       3.270  39.965 -15.090  1.00 64.70 LIG 0.04  C 
BRANCH 46 49
ATOM     49  C   PRO B 203       2.167  37.865 -14.259  1.00 68.17 LIG 0.22  C 
ATOM     50 O    PRO B 203       2.170  36.761 -13.712  1.00 70.96 LIG-0.29  OA
ENDBRANCH 46 49
ENDBRANCH 29 42
ENDBRANCH 3 29
TORSDOF 18
ENDMDL
MODEL 30
USER: ADFR SOLUTION from run 105
USER: SCORE 14.509714 LL:  -4.163 LR: -10.765 RR:   0.000 FEB:  -5.396
USER: RMSD 6.208601
USER: SEED 104
USER: STATUS no improvement in best in 6 clusters for 5 generations
USER: GENES 20
USER: genes 0 Translation |==|  0.39360 0.41425 0.54635
USER: genes 1 Rotation |==|  0.31726 0.20816 0.25091 0.76343
USER: genes 2 Torsion [N]-C--CA-[N] |==|  0.01562
USER: genes 3 Torsion [C]-CA--N-[C] |==|  0.68732
USER: genes 4 Torsion [N]-C--CA-[N] |==|  0.39401
USER: genes 5 Torsion [C]-CA--N-[C] |==|  0.83161
USER: genes 6 Torsion [N]-C--CA-[N] |==|  0.65398
USER: genes 7 Torsion [C]-CA--CB-[CG] |==|  0.75263
USER: genes 8 Torsion [CA]-CB--CG-[OD2] |==|  0.67883
USER: genes 9 Torsion [C]-CA--CB-[CG] |==|  0.28757
USER: genes 10 Torsion [CA]-CB--CG-[CD1] |==|  0.53558
USER: genes 11 Torsion [C]-CA--CB-[CG2] |==|  0.76429
USER: genes 12 Torsion [CA]-CB--OG1-[HG1] |==|  0.44755
USER: genes 13 Torsion [C]-N--CA-[C] |==|  0.74622
USER: genes 14 Torsion [N]-CA--CB-[CG] |==|  0.44727
USER: genes 15 Torsion [CA]-CB--CG-[CD] |==|  0.63308
USER: genes 16 Torsion [CB]-CG--CD-[NE] |==|  0.46945
USER: genes 17 Torsion [CG]-CD--NE-[CZ] |==|  0.44564
USER: genes 18 Torsion [N]-CA--C-[N] |==|  0.85858
USER: genes 19 Torsion [N]-CA--C-[O] |==|  0.16831
ROOT
ATOM      1  C   THR B 201       7.081  36.009 -10.765  1.00 36.45 LIG 0.24  C 
ATOM      2 O    THR B 201       6.726  36.802  -9.890  1.00 40.30 LIG-0.27  OA
ATOM      3  N   ARG B 202       8.182  35.271 -10.672  1.00 33.32 LIG-0.35  N 
ATOM      4 H    ARG B 202       8.403  34.678 -11.255  1.00 33.32 LIG 0.16  HD
ENDROOT
BRANCH 1 5
ATOM      5  CA  THR B 201       6.253  35.823 -12.041  1.00 30.51 LIG 0.20  C 
BRANCH 5 6
ATOM      6  N   THR B 201       6.758  34.748 -12.900  1.00 29.33 LIG-0.34  N 
ATOM      7  C   LEU B 200       7.292  35.009 -14.091  1.00 28.22 LIG 0.24  C 
ATOM      8 O    LEU B 200       7.498  36.152 -14.491  1.00 25.98 LIG-0.27  OA
ATOM      9 H    THR B 201       6.678  33.958 -12.570  1.00 29.33 LIG 0.16  HD
BRANCH 7 10
ATOM     10  CA  LEU B 200       7.659  33.811 -14.961  1.00 30.55 LIG 0.18  C 
BRANCH 10 11
ATOM     11  N   LEU B 200       7.377  34.051 -16.363  1.00 35.39 LIG-0.35  N 
ATOM     12 H    LEU B 200       8.063  34.013 -16.879  1.00 35.39 LIG 0.16  HD
ATOM     13  C   ASP B 199       6.144  34.307 -16.778  1.00 42.58 LIG 0.26  C 
ATOM     14 O    ASP B 199       5.186  34.392 -16.009  1.00 44.96 LIG-0.27  OA
BRANCH 13 15
ATOM     15  CA  ASP B 199       5.972  34.512 -18.279  1.00 43.98 LIG 0.41  C 
ATOM     16  N   ASP B 199       5.340  35.799 -18.559  1.00 41.74 LIG 0.61  N 
BRANCH 15 17
ATOM     17  CB  ASP B 199       7.328  34.413 -18.978  1.00 46.67 LIG 0.16  C 
BRANCH 17 18
ATOM     18  CG  ASP B 199       8.046  35.751 -19.058  1.00 50.58 LIG 0.17  C 
ATOM     19 OD2  ASP B 199       8.253  36.245 -20.188  1.00 55.98 LIG-0.65  OA
ATOM     20 OD1  ASP B 199       8.416  36.306 -18.003  1.00 45.33 LIG-0.65  OA
ENDBRANCH 17 18
ENDBRANCH 15 17
ENDBRANCH 13 15
ENDBRANCH 10 11
BRANCH 10 21
ATOM     21  CB  LEU B 200       9.134  33.463 -14.778  1.00 29.00 LIG 0.04  C 
BRANCH 21 22
ATOM     22  CG  LEU B 200       9.406  32.242 -13.903  1.00 29.82 LIG-0.02  C 
ATOM     23  CD1 LEU B 200      10.879  32.181 -13.537  1.00 24.53 LIG 0.01  C 
ATOM     24  CD2 LEU B 200       8.539  32.305 -12.651  1.00 31.40 LIG 0.01  C 
ENDBRANCH 21 22
ENDBRANCH 10 21
ENDBRANCH 7 10
ENDBRANCH 5 6
BRANCH 5 25
ATOM     25  CB  THR B 201       4.779  35.578 -11.645  1.00 29.82 LIG 0.15  C 
ATOM     26  CG2 THR B 201       4.541  34.113 -11.339  1.00 24.76 LIG 0.04  C 
BRANCH 25 27
ATOM     27 OG1  THR B 201       4.453  36.359 -10.489  1.00 30.74 LIG-0.39  OA
ATOM     28 HG1  THR B 201       3.618  36.433 -10.427  1.00 30.74 LIG 0.21  HD
ENDBRANCH 25 27
ENDBRANCH 5 25
ENDBRANCH 1 5
BRANCH 3 29
ATOM     29  CA  ARG B 202       9.131  35.393  -9.565  1.00 35.80 LIG 0.18  C 
BRANCH 29 30
ATOM     30  CB  ARG B 202       9.712  34.012  -9.267  1.00 39.99 LIG 0.04  C 
BRANCH 30 31
ATOM     31  CG  ARG B 202      10.996  34.092  -8.486  1.00 43.12 LIG 0.02  C 
BRANCH 31 32
ATOM     32  CD  ARG B 202      12.081  33.223  -9.075  1.00 49.76 LIG 0.14  C 
BRANCH 32 33
ATOM     33  NE  ARG B 202      13.368  33.520  -8.459  1.00 51.61 LIG-0.23  N 
ATOM     34  CZ  ARG B 202      14.409  32.696  -8.486  1.00 53.48 LIG 0.67  C 
ATOM     35  NH2 ARG B 202      15.547  33.047  -7.904  1.00 55.46 LIG-0.23  N 
ATOM     36  NH1 ARG B 202      14.311  31.522  -9.098  1.00 53.58 LIG-0.23  N 
ATOM     37 2HH2 ARG B 202      16.221  32.514  -7.922  1.00 55.46 LIG 0.17  HD
ATOM     38 1HH2 ARG B 202      15.610  33.807  -7.509  1.00 55.46 LIG 0.17  HD
ATOM     39 2HH1 ARG B 202      14.985  30.989  -9.116  1.00 53.58 LIG 0.17  HD
ATOM     40 1HH1 ARG B 202      13.573  31.295  -9.476  1.00 53.58 LIG 0.17  HD
ATOM     41 HE   ARG B 202      13.459  34.273  -8.054  1.00 51.61 LIG 0.18  HD
ENDBRANCH 32 33
ENDBRANCH 31 32
ENDBRANCH 30 31
ENDBRANCH 29 30
BRANCH 29 42
ATOM     42  C   ARG B 202      10.229  36.425  -9.936  1.00 54.52 LIG 0.24  C 
ATOM     43 O    ARG B 202      10.465  37.331  -9.145  1.00 52.27 LIG-0.27  OA
ATOM     44  N   PRO B 203      10.887  36.302 -11.129  1.00 63.22 LIG-0.34  N 
ATOM     45  CD  PRO B 203      10.273  35.857 -12.388  1.00 67.52 LIG 0.13  C 
ATOM     46  CA  PRO B 203      12.073  37.086 -11.504  1.00 66.04 LIG 0.17  C 
ATOM     47  CG  PRO B 203      10.310  37.147 -13.193  1.00 67.94 LIG 0.02  C 
ATOM     48  CB  PRO B 203      11.519  37.961 -12.640  1.00 64.70 LIG 0.04  C 
BRANCH 46 49
ATOM     49  C   PRO B 203      12.739  37.962 -10.443  1.00 68.17 LIG 0.22  C 
ATOM     50 O    PRO B 203      13.187  37.418  -9.432  1.00 70.96 LIG-0.29  OA
ENDBRANCH 46 49
ENDBRANCH 29 42
ENDBRANCH 3 29
TORSDOF 18
ENDMDL
MODEL 31
USER: ADFR SOLUTION from run 145
USER: SCORE 14.031722 LL:  -3.643 LR: -10.696 RR:   0.000 FEB:  -5.327
USER: RMSD 8.616098
USER: SEED 144
USER: STATUS no improvement in best in 9 clusters for 5 generations
USER: GENES 20
USER: genes 0 Translation |==|  0.29754 0.36252 0.38628
USER: genes 1 Rotation |==|  0.32552 0.23354 0.88156 0.55449
USER: genes 2 Torsion [N]-C--CA-[N] |==|  0.93832
USER: genes 3 Torsion [C]-CA--N-[C] |==|  0.77105
USER: genes 4 Torsion [N]-C--CA-[N] |==|  0.08199
USER: genes 5 Torsion [C]-CA--N-[C] |==|  0.16148
USER: genes 6 Torsion [N]-C--CA-[N] |==|  0.74525
USER: genes 7 Torsion [C]-CA--CB-[CG] |==|  0.53152
USER: genes 8 Torsion [CA]-CB--CG-[OD2] |==|  0.22300
USER: genes 9 Torsion [C]-CA--CB-[CG] |==|  0.58110
USER: genes 10 Torsion [CA]-CB--CG-[CD1] |==|  0.35347
USER: genes 11 Torsion [C]-CA--CB-[CG2] |==|  0.24810
USER: genes 12 Torsion [CA]-CB--OG1-[HG1] |==|  0.28715
USER: genes 13 Torsion [C]-N--CA-[C] |==|  0.81519
USER: genes 14 Torsion [N]-CA--CB-[CG] |==|  0.73323
USER: genes 15 Torsion [CA]-CB--CG-[CD] |==|  0.98726
USER: genes 16 Torsion [CB]-CG--CD-[NE] |==|  0.65887
USER: genes 17 Torsion [CG]-CD--NE-[CZ] |==|  0.35311
USER: genes 18 Torsion [N]-CA--C-[N] |==|  0.46654
USER: genes 19 Torsion [N]-CA--C-[O] |==|  0.57865
ROOT
ATOM      1  C   THR B 201       5.424  35.077 -13.766  1.00 36.45 LIG 0.24  C 
ATOM      2 O    THR B 201       4.227  34.857 -13.967  1.00 40.30 LIG-0.27  OA
ATOM      3  N   ARG B 202       6.269  35.422 -14.732  1.00 33.32 LIG-0.35  N 
ATOM      4 H    ARG B 202       7.092  35.628 -14.587  1.00 33.32 LIG 0.16  HD
ENDROOT
BRANCH 1 5
ATOM      5  CA  THR B 201       6.020  34.964 -12.360  1.00 30.51 LIG 0.20  C 
BRANCH 5 6
ATOM      6  N   THR B 201       7.469  34.745 -12.367  1.00 29.33 LIG-0.34  N 
ATOM      7  C   LEU B 200       7.984  33.529 -12.540  1.00 28.22 LIG 0.24  C 
ATOM      8 O    LEU B 200       7.296  32.549 -12.814  1.00 25.98 LIG-0.27  OA
ATOM      9 H    THR B 201       7.939  35.455 -12.253  1.00 29.33 LIG 0.16  HD
BRANCH 7 10
ATOM     10  CA  LEU B 200       9.495  33.392 -12.393  1.00 30.55 LIG 0.18  C 
BRANCH 10 11
ATOM     11  N   LEU B 200      10.042  34.365 -11.467  1.00 35.39 LIG-0.35  N 
ATOM     12 H    LEU B 200      10.642  34.881 -11.801  1.00 35.39 LIG 0.16  HD
ATOM     13  C   ASP B 199       9.622  34.423 -10.210  1.00 42.58 LIG 0.26  C 
ATOM     14 O    ASP B 199       8.785  33.645  -9.751  1.00 44.96 LIG-0.27  OA
BRANCH 13 15
ATOM     15  CA  ASP B 199      10.251  35.509  -9.344  1.00 43.98 LIG 0.41  C 
ATOM     16  N   ASP B 199      11.430  35.000  -8.648  1.00 41.74 LIG 0.61  N 
BRANCH 15 17
ATOM     17  CB  ASP B 199      10.613  36.719 -10.205  1.00 46.67 LIG 0.16  C 
BRANCH 17 18
ATOM     18  CG  ASP B 199      11.487  37.722  -9.470  1.00 50.58 LIG 0.17  C 
ATOM     19 OD2  ASP B 199      12.713  37.489  -9.384  1.00 55.98 LIG-0.65  OA
ATOM     20 OD1  ASP B 199      10.958  38.735  -8.966  1.00 45.33 LIG-0.65  OA
ENDBRANCH 17 18
ENDBRANCH 15 17
ENDBRANCH 13 15
ENDBRANCH 10 11
BRANCH 10 21
ATOM     21  CB  LEU B 200       9.851  31.979 -11.935  1.00 29.00 LIG 0.04  C 
BRANCH 21 22
ATOM     22  CG  LEU B 200      11.128  31.871 -11.106  1.00 29.82 LIG-0.02  C 
ATOM     23  CD1 LEU B 200      10.844  31.136  -9.807  1.00 24.53 LIG 0.01  C 
ATOM     24  CD2 LEU B 200      12.202  31.151 -11.912  1.00 31.40 LIG 0.01  C 
ENDBRANCH 21 22
ENDBRANCH 10 21
ENDBRANCH 7 10
ENDBRANCH 5 6
BRANCH 5 25
ATOM     25  CB  THR B 201       5.649  36.233 -11.560  1.00 29.82 LIG 0.15  C 
ATOM     26  CG2 THR B 201       4.326  36.050 -10.843  1.00 24.76 LIG 0.04  C 
BRANCH 25 27
ATOM     27 OG1  THR B 201       6.671  36.514 -10.596  1.00 30.74 LIG-0.39  OA
ATOM     28 HG1  THR B 201       7.146  37.151 -10.869  1.00 30.74 LIG 0.21  HD
ENDBRANCH 25 27
ENDBRANCH 5 25
ENDBRANCH 1 5
BRANCH 3 29
ATOM     29  CA  ARG B 202       5.885  35.486 -16.142  1.00 35.80 LIG 0.18  C 
BRANCH 29 30
ATOM     30  CB  ARG B 202       7.022  36.136 -16.928  1.00 39.99 LIG 0.04  C 
BRANCH 30 31
ATOM     31  CG  ARG B 202       6.801  37.611 -17.133  1.00 43.12 LIG 0.02  C 
BRANCH 31 32
ATOM     32  CD  ARG B 202       5.460  38.067 -16.611  1.00 49.76 LIG 0.14  C 
BRANCH 32 33
ATOM     33  NE  ARG B 202       4.685  38.701 -17.670  1.00 51.61 LIG-0.23  N 
ATOM     34  CZ  ARG B 202       3.445  38.349 -17.991  1.00 53.48 LIG 0.67  C 
ATOM     35  NH2 ARG B 202       2.809  38.982 -18.966  1.00 55.46 LIG-0.23  N 
ATOM     36  NH1 ARG B 202       2.843  37.366 -17.334  1.00 53.58 LIG-0.23  N 
ATOM     37 2HH2 ARG B 202       2.006  38.755 -19.174  1.00 55.46 LIG 0.17  HD
ATOM     38 1HH2 ARG B 202       3.199  39.619 -19.391  1.00 55.46 LIG 0.17  HD
ATOM     39 2HH1 ARG B 202       2.040  37.138 -17.542  1.00 53.58 LIG 0.17  HD
ATOM     40 1HH1 ARG B 202       3.256  36.956 -16.701  1.00 53.58 LIG 0.17  HD
ATOM     41 HE   ARG B 202       5.052  39.339 -18.114  1.00 51.61 LIG 0.18  HD
ENDBRANCH 32 33
ENDBRANCH 31 32
ENDBRANCH 30 31
ENDBRANCH 29 30
BRANCH 29 42
ATOM     42  C   ARG B 202       5.557  34.058 -16.654  1.00 54.52 LIG 0.24  C 
ATOM     43 O    ARG B 202       5.875  33.102 -15.954  1.00 52.27 LIG-0.27  OA
ATOM     44  N   PRO B 203       4.940  33.907 -17.865  1.00 63.22 LIG-0.34  N 
ATOM     45  CD  PRO B 203       5.192  34.741 -19.049  1.00 67.52 LIG 0.13  C 
ATOM     46  CA  PRO B 203       4.399  32.634 -18.365  1.00 66.04 LIG 0.17  C 
ATOM     47  CG  PRO B 203       5.884  33.738 -19.960  1.00 67.94 LIG 0.02  C 
ATOM     48  CB  PRO B 203       5.345  32.336 -19.540  1.00 64.70 LIG 0.04  C 
BRANCH 46 49
ATOM     49  C   PRO B 203       4.346  31.436 -17.417  1.00 68.17 LIG 0.22  C 
ATOM     50 O    PRO B 203       4.415  30.304 -17.900  1.00 70.96 LIG-0.29  OA
ENDBRANCH 46 49
ENDBRANCH 29 42
ENDBRANCH 3 29
TORSDOF 18
ENDMDL
MODEL 32
USER: ADFR SOLUTION from run 110
USER: SCORE 15.093836 LL:  -5.047 LR: -10.693 RR:   0.000 FEB:  -5.323
USER: RMSD 6.434238
USER: SEED 109
USER: STATUS no improvement in best in 4 clusters for 5 generations
USER: GENES 20
USER: genes 0 Translation |==|  0.33380 0.32680 0.31473
USER: genes 1 Rotation |==|  0.65989 0.95466 0.46544 0.62853
USER: genes 2 Torsion [N]-C--CA-[N] |==|  0.96638
USER: genes 3 Torsion [C]-CA--N-[C] |==|  0.79697
USER: genes 4 Torsion [N]-C--CA-[N] |==|  0.49443
USER: genes 5 Torsion [C]-CA--N-[C] |==|  0.55214
USER: genes 6 Torsion [N]-C--CA-[N] |==|  0.94539
USER: genes 7 Torsion [C]-CA--CB-[CG] |==|  0.75007
USER: genes 8 Torsion [CA]-CB--CG-[OD2] |==|  0.06452
USER: genes 9 Torsion [C]-CA--CB-[CG] |==|  0.86362
USER: genes 10 Torsion [CA]-CB--CG-[CD1] |==|  0.38415
USER: genes 11 Torsion [C]-CA--CB-[CG2] |==|  0.78329
USER: genes 12 Torsion [CA]-CB--OG1-[HG1] |==|  0.74256
USER: genes 13 Torsion [C]-N--CA-[C] |==|  0.65361
USER: genes 14 Torsion [N]-CA--CB-[CG] |==|  0.99765
USER: genes 15 Torsion [CA]-CB--CG-[CD] |==|  0.71742
USER: genes 16 Torsion [CB]-CG--CD-[NE] |==|  0.78894
USER: genes 17 Torsion [CG]-CD--NE-[CZ] |==|  0.32712
USER: genes 18 Torsion [N]-CA--C-[N] |==|  0.11806
USER: genes 19 Torsion [N]-CA--C-[O] |==|  0.41789
ROOT
ATOM      1  C   THR B 201       6.049  34.434 -15.108  1.00 36.45 LIG 0.24  C 
ATOM      2 O    THR B 201       5.886  34.650 -16.311  1.00 40.30 LIG-0.27  OA
ATOM      3  N   ARG B 202       6.204  35.404 -14.212  1.00 33.32 LIG-0.35  N 
ATOM      4 H    ARG B 202       6.264  35.259 -13.366  1.00 33.32 LIG 0.16  HD
ENDROOT
BRANCH 1 5
ATOM      5  CA  THR B 201       6.084  33.003 -14.562  1.00 30.51 LIG 0.20  C 
BRANCH 5 6
ATOM      6  N   THR B 201       6.563  32.928 -13.179  1.00 29.33 LIG-0.34  N 
ATOM      7  C   LEU B 200       7.848  33.110 -12.881  1.00 28.22 LIG 0.24  C 
ATOM      8 O    LEU B 200       8.680  33.460 -13.715  1.00 25.98 LIG-0.27  OA
ATOM      9 H    THR B 201       5.952  32.761 -12.598  1.00 29.33 LIG 0.16  HD
BRANCH 7 10
ATOM     10  CA  LEU B 200       8.261  32.874 -11.433  1.00 30.55 LIG 0.18  C 
BRANCH 10 11
ATOM     11  N   LEU B 200       9.686  33.056 -11.238  1.00 35.39 LIG-0.35  N 
ATOM     12 H    LEU B 200      10.079  33.505 -11.857  1.00 35.39 LIG 0.16  HD
ATOM     13  C   ASP B 199      10.301  32.554 -10.176  1.00 42.58 LIG 0.26  C 
ATOM     14 O    ASP B 199       9.718  31.883  -9.324  1.00 44.96 LIG-0.27  OA
BRANCH 13 15
ATOM     15  CA  ASP B 199      11.795  32.840 -10.070  1.00 43.98 LIG 0.41  C 
ATOM     16  N   ASP B 199      12.346  33.211 -11.371  1.00 41.74 LIG 0.61  N 
BRANCH 15 17
ATOM     17  CB  ASP B 199      12.045  33.942  -9.043  1.00 46.67 LIG 0.16  C 
BRANCH 17 18
ATOM     18  CG  ASP B 199      12.027  35.333  -9.658  1.00 50.58 LIG 0.17  C 
ATOM     19 OD2  ASP B 199      11.408  35.498 -10.733  1.00 55.98 LIG-0.65  OA
ATOM     20 OD1  ASP B 199      12.635  36.259  -9.083  1.00 45.33 LIG-0.65  OA
ENDBRANCH 17 18
ENDBRANCH 15 17
ENDBRANCH 13 15
ENDBRANCH 10 11
BRANCH 10 21
ATOM     21  CB  LEU B 200       7.485  33.808 -10.508  1.00 29.00 LIG 0.04  C 
BRANCH 21 22
ATOM     22  CG  LEU B 200       7.478  35.276 -10.930  1.00 29.82 LIG-0.02  C 
ATOM     23  CD1 LEU B 200       6.092  35.867 -10.733  1.00 24.53 LIG 0.01  C 
ATOM     24  CD2 LEU B 200       8.515  36.046 -10.122  1.00 31.40 LIG 0.01  C 
ENDBRANCH 21 22
ENDBRANCH 10 21
ENDBRANCH 7 10
ENDBRANCH 5 6
BRANCH 5 25
ATOM     25  CB  THR B 201       4.675  32.385 -14.703  1.00 29.82 LIG 0.15  C 
ATOM     26  CG2 THR B 201       3.754  32.892 -13.611  1.00 24.76 LIG 0.04  C 
BRANCH 25 27
ATOM     27 OG1  THR B 201       4.122  32.724 -15.980  1.00 30.74 LIG-0.39  OA
ATOM     28 HG1  THR B 201       3.665  33.426 -15.910  1.00 30.74 LIG 0.21  HD
ENDBRANCH 25 27
ENDBRANCH 5 25
ENDBRANCH 1 5
BRANCH 3 29
ATOM     29  CA  ARG B 202       6.287  36.818 -14.575  1.00 35.80 LIG 0.18  C 
BRANCH 29 30
ATOM     30  CB  ARG B 202       5.042  37.530 -14.050  1.00 39.99 LIG 0.04  C 
BRANCH 30 31
ATOM     31  CG  ARG B 202       4.103  36.587 -13.346  1.00 43.12 LIG 0.02  C 
BRANCH 31 32
ATOM     32  CD  ARG B 202       2.928  36.196 -14.209  1.00 49.76 LIG 0.14  C 
BRANCH 32 33
ATOM     33  NE  ARG B 202       1.959  37.283 -14.281  1.00 51.61 LIG-0.23  N 
ATOM     34  CZ  ARG B 202       1.627  37.905 -15.407  1.00 53.48 LIG 0.67  C 
ATOM     35  NH2 ARG B 202       0.732  38.881 -15.384  1.00 55.46 LIG-0.23  N 
ATOM     36  NH1 ARG B 202       2.190  37.547 -16.554  1.00 53.58 LIG-0.23  N 
ATOM     37 2HH2 ARG B 202       0.516  39.284 -16.112  1.00 55.46 LIG 0.17  HD
ATOM     38 1HH2 ARG B 202       0.367  39.112 -14.641  1.00 55.46 LIG 0.17  HD
ATOM     39 2HH1 ARG B 202       1.975  37.950 -17.282  1.00 53.58 LIG 0.17  HD
ATOM     40 1HH1 ARG B 202       2.770  36.913 -16.568  1.00 53.58 LIG 0.17  HD
ATOM     41 HE   ARG B 202       1.581  37.537 -13.552  1.00 51.61 LIG 0.18  HD
ENDBRANCH 32 33
ENDBRANCH 31 32
ENDBRANCH 30 31
ENDBRANCH 29 30
BRANCH 29 42
ATOM     42  C   ARG B 202       7.596  37.424 -14.002  1.00 54.52 LIG 0.24  C 
ATOM     43 O    ARG B 202       7.548  38.540 -13.497  1.00 52.27 LIG-0.27  OA
ATOM     44  N   PRO B 203       8.758  36.706 -14.086  1.00 63.22 LIG-0.34  N 
ATOM     45  CD  PRO B 203       9.140  35.852 -15.219  1.00 67.52 LIG 0.13  C 
ATOM     46  CA  PRO B 203      10.010  37.077 -13.409  1.00 66.04 LIG 0.17  C 
ATOM     47  CG  PRO B 203      10.302  36.648 -15.796  1.00 67.94 LIG 0.02  C 
ATOM     48  CB  PRO B 203      10.910  37.443 -14.601  1.00 64.70 LIG 0.04  C 
BRANCH 46 49
ATOM     49  C   PRO B 203       9.986  38.223 -12.398  1.00 68.17 LIG 0.22  C 
ATOM     50 O    PRO B 203      10.791  38.198 -11.465  1.00 70.96 LIG-0.29  OA
ENDBRANCH 46 49
ENDBRANCH 29 42
ENDBRANCH 3 29
TORSDOF 18
ENDMDL
MODEL 33
USER: ADFR SOLUTION from run 46
USER: SCORE 14.109377 LL:  -3.596 LR: -10.678 RR:   0.000 FEB:  -5.308
USER: RMSD 7.649737
USER: SEED 45
USER: STATUS no improvement in best in 16 clusters for 5 generations
USER: GENES 20
USER: genes 0 Translation |==|  0.60564 0.31388 0.48393
USER: genes 1 Rotation |==|  0.60576 0.69417 0.94365 0.56547
USER: genes 2 Torsion [N]-C--CA-[N] |==|  0.44222
USER: genes 3 Torsion [C]-CA--N-[C] |==|  0.79044
USER: genes 4 Torsion [N]-C--CA-[N] |==|  0.92096
USER: genes 5 Torsion [C]-CA--N-[C] |==|  0.79855
USER: genes 6 Torsion [N]-C--CA-[N] |==|  0.19617
USER: genes 7 Torsion [C]-CA--CB-[CG] |==|  0.16365
USER: genes 8 Torsion [CA]-CB--CG-[OD2] |==|  0.16054
USER: genes 9 Torsion [C]-CA--CB-[CG] |==|  0.71439
USER: genes 10 Torsion [CA]-CB--CG-[CD1] |==|  0.21436
USER: genes 11 Torsion [C]-CA--CB-[CG2] |==|  0.27290
USER: genes 12 Torsion [CA]-CB--OG1-[HG1] |==|  0.54180
USER: genes 13 Torsion [C]-N--CA-[C] |==|  0.16918
USER: genes 14 Torsion [N]-CA--CB-[CG] |==|  0.81051
USER: genes 15 Torsion [CA]-CB--CG-[CD] |==|  0.23350
USER: genes 16 Torsion [CB]-CG--CD-[NE] |==|  0.36226
USER: genes 17 Torsion [CG]-CD--NE-[CZ] |==|  0.70385
USER: genes 18 Torsion [N]-CA--C-[N] |==|  0.09623
USER: genes 19 Torsion [N]-CA--C-[O] |==|  0.21321
ROOT
ATOM      1  C   THR B 201      10.738  34.202 -11.935  1.00 36.45 LIG 0.24  C 
ATOM      2 O    THR B 201      10.429  35.092 -11.140  1.00 40.30 LIG-0.27  OA
ATOM      3  N   ARG B 202      10.236  32.973 -11.880  1.00 33.32 LIG-0.35  N 
ATOM      4 H    ARG B 202      10.409  32.366 -12.464  1.00 33.32 LIG 0.16  HD
ENDROOT
BRANCH 1 5
ATOM      5  CA  THR B 201      11.744  34.466 -13.061  1.00 30.51 LIG 0.20  C 
BRANCH 5 6
ATOM      6  N   THR B 201      11.888  35.890 -13.377  1.00 29.33 LIG-0.34  N 
ATOM      7  C   LEU B 200      10.956  36.543 -14.067  1.00 28.22 LIG 0.24  C 
ATOM      8 O    LEU B 200       9.881  36.036 -14.376  1.00 25.98 LIG-0.27  OA
ATOM      9 H    THR B 201      12.612  36.250 -13.083  1.00 29.33 LIG 0.16  HD
BRANCH 7 10
ATOM     10  CA  LEU B 200      11.269  37.983 -14.460  1.00 30.55 LIG 0.18  C 
BRANCH 10 11
ATOM     11  N   LEU B 200      12.172  38.618 -13.520  1.00 35.39 LIG-0.35  N 
ATOM     12 H    LEU B 200      12.971  38.737 -13.814  1.00 35.39 LIG 0.16  HD
ATOM     13  C   ASP B 199      11.761  38.974 -12.310  1.00 42.58 LIG 0.26  C 
ATOM     14 O    ASP B 199      10.619  38.757 -11.905  1.00 44.96 LIG-0.27  OA
BRANCH 13 15
ATOM     15  CA  ASP B 199      12.797  39.660 -11.427  1.00 43.98 LIG 0.41  C 
ATOM     16  N   ASP B 199      13.091  41.003 -11.918  1.00 41.74 LIG 0.61  N 
BRANCH 15 17
ATOM     17  CB  ASP B 199      12.301  39.709  -9.982  1.00 46.67 LIG 0.16  C 
BRANCH 17 18
ATOM     18  CG  ASP B 199      12.021  38.328  -9.411  1.00 50.58 LIG 0.17  C 
ATOM     19 OD2  ASP B 199      12.953  37.494  -9.393  1.00 55.98 LIG-0.65  OA
ATOM     20 OD1  ASP B 199      10.875  38.066  -8.991  1.00 45.33 LIG-0.65  OA
ENDBRANCH 17 18
ENDBRANCH 15 17
ENDBRANCH 13 15
ENDBRANCH 10 11
BRANCH 10 21
ATOM     21  CB  LEU B 200      11.864  38.025 -15.865  1.00 29.00 LIG 0.04  C 
BRANCH 21 22
ATOM     22  CG  LEU B 200      13.377  38.221 -15.921  1.00 29.82 LIG-0.02  C 
ATOM     23  CD1 LEU B 200      14.083  36.917 -15.587  1.00 24.53 LIG 0.01  C 
ATOM     24  CD2 LEU B 200      13.779  38.716 -17.304  1.00 31.40 LIG 0.01  C 
ENDBRANCH 21 22
ENDBRANCH 10 21
ENDBRANCH 7 10
ENDBRANCH 5 6
BRANCH 5 25
ATOM     25  CB  THR B 201      13.101  33.838 -12.671  1.00 29.82 LIG 0.15  C 
ATOM     26  CG2 THR B 201      13.275  32.484 -13.330  1.00 24.76 LIG 0.04  C 
BRANCH 25 27
ATOM     27 OG1  THR B 201      14.169  34.700 -13.078  1.00 30.74 LIG-0.39  OA
ATOM     28 HG1  THR B 201      14.895  34.278 -13.057  1.00 30.74 LIG 0.21  HD
ENDBRANCH 25 27
ENDBRANCH 5 25
ENDBRANCH 1 5
BRANCH 3 29
ATOM     29  CA  ARG B 202       9.336  32.528 -10.816  1.00 35.80 LIG 0.18  C 
BRANCH 29 30
ATOM     30  CB  ARG B 202      10.078  32.615  -9.483  1.00 39.99 LIG 0.04  C 
BRANCH 30 31
ATOM     31  CG  ARG B 202      11.193  31.608  -9.386  1.00 43.12 LIG 0.02  C 
BRANCH 31 32
ATOM     32  CD  ARG B 202      12.466  32.099 -10.032  1.00 49.76 LIG 0.14  C 
BRANCH 32 33
ATOM     33  NE  ARG B 202      13.599  31.925  -9.132  1.00 51.61 LIG-0.23  N 
ATOM     34  CZ  ARG B 202      14.198  32.924  -8.494  1.00 53.48 LIG 0.67  C 
ATOM     35  NH2 ARG B 202      15.220  32.677  -7.688  1.00 55.46 LIG-0.23  N 
ATOM     36  NH1 ARG B 202      13.770  34.169  -8.662  1.00 53.58 LIG-0.23  N 
ATOM     37 2HH2 ARG B 202      15.607  33.323  -7.275  1.00 55.46 LIG 0.17  HD
ATOM     38 1HH2 ARG B 202      15.496  31.870  -7.579  1.00 55.46 LIG 0.17  HD
ATOM     39 2HH1 ARG B 202      14.158  34.816  -8.248  1.00 53.58 LIG 0.17  HD
ATOM     40 1HH1 ARG B 202      13.106  34.329  -9.184  1.00 53.58 LIG 0.17  HD
ATOM     41 HE   ARG B 202      13.898  31.128  -9.007  1.00 51.61 LIG 0.18  HD
ENDBRANCH 32 33
ENDBRANCH 31 32
ENDBRANCH 30 31
ENDBRANCH 29 30
BRANCH 29 42
ATOM     42  C   ARG B 202       8.049  33.394 -10.830  1.00 54.52 LIG 0.24  C 
ATOM     43 O    ARG B 202       7.504  33.644  -9.760  1.00 52.27 LIG-0.27  OA
ATOM     44  N   PRO B 203       7.556  33.840 -12.026  1.00 63.22 LIG-0.34  N 
ATOM     45  CD  PRO B 203       7.574  33.077 -13.281  1.00 67.52 LIG 0.13  C 
ATOM     46  CA  PRO B 203       6.472  34.825 -12.158  1.00 66.04 LIG 0.17  C 
ATOM     47  CG  PRO B 203       6.090  32.797 -13.466  1.00 67.94 LIG 0.02  C 
ATOM     48  CB  PRO B 203       5.344  33.966 -12.752  1.00 64.70 LIG 0.04  C 
BRANCH 46 49
ATOM     49  C   PRO B 203       5.978  35.546 -10.903  1.00 68.17 LIG 0.22  C 
ATOM     50 O    PRO B 203       6.666  36.459 -10.444  1.00 70.96 LIG-0.29  OA
ENDBRANCH 46 49
ENDBRANCH 29 42
ENDBRANCH 3 29
TORSDOF 18
ENDMDL
MODEL 34
USER: ADFR SOLUTION from run 189
USER: SCORE 12.943761 LL:  -3.132 LR: -10.629 RR:   0.000 FEB:  -5.260
USER: RMSD 8.049597
USER: SEED 188
USER: STATUS no improvement in best in 13 clusters for 5 generations
USER: GENES 20
USER: genes 0 Translation |==|  0.21839 0.34994 0.40632
USER: genes 1 Rotation |==|  0.52354 0.91515 0.22476 0.53662
USER: genes 2 Torsion [N]-C--CA-[N] |==|  0.82459
USER: genes 3 Torsion [C]-CA--N-[C] |==|  0.73856
USER: genes 4 Torsion [N]-C--CA-[N] |==|  0.10280
USER: genes 5 Torsion [C]-CA--N-[C] |==|  0.17146
USER: genes 6 Torsion [N]-C--CA-[N] |==|  0.59142
USER: genes 7 Torsion [C]-CA--CB-[CG] |==|  0.50552
USER: genes 8 Torsion [CA]-CB--CG-[OD2] |==|  0.33424
USER: genes 9 Torsion [C]-CA--CB-[CG] |==|  0.41957
USER: genes 10 Torsion [CA]-CB--CG-[CD1] |==|  0.66733
USER: genes 11 Torsion [C]-CA--CB-[CG2] |==|  0.69784
USER: genes 12 Torsion [CA]-CB--OG1-[HG1] |==|  0.45608
USER: genes 13 Torsion [C]-N--CA-[C] |==|  0.60556
USER: genes 14 Torsion [N]-CA--CB-[CG] |==|  0.31800
USER: genes 15 Torsion [CA]-CB--CG-[CD] |==|  0.37594
USER: genes 16 Torsion [CB]-CG--CD-[NE] |==|  0.48828
USER: genes 17 Torsion [CG]-CD--NE-[CZ] |==|  0.26215
USER: genes 18 Torsion [N]-CA--C-[N] |==|  0.35814
USER: genes 19 Torsion [N]-CA--C-[O] |==|  0.19491
ROOT
ATOM      1  C   THR B 201       4.058  34.851 -13.390  1.00 36.45 LIG 0.24  C 
ATOM      2 O    THR B 201       3.295  34.028 -13.902  1.00 40.30 LIG-0.27  OA
ATOM      3  N   ARG B 202       4.163  36.106 -13.817  1.00 33.32 LIG-0.35  N 
ATOM      4 H    ARG B 202       4.653  36.696 -13.429  1.00 33.32 LIG 0.16  HD
ENDROOT
BRANCH 1 5
ATOM      5  CA  THR B 201       4.951  34.467 -12.206  1.00 30.51 LIG 0.20  C 
BRANCH 5 6
ATOM      6  N   THR B 201       6.381  34.557 -12.514  1.00 29.33 LIG-0.34  N 
ATOM      7  C   LEU B 200       7.068  33.495 -12.929  1.00 28.22 LIG 0.24  C 
ATOM      8 O    LEU B 200       6.535  32.419 -13.187  1.00 25.98 LIG-0.27  OA
ATOM      9 H    THR B 201       6.723  35.339 -12.403  1.00 29.33 LIG 0.16  HD
BRANCH 7 10
ATOM     10  CA  LEU B 200       8.575  33.665 -13.087  1.00 30.55 LIG 0.18  C 
BRANCH 10 11
ATOM     11  N   LEU B 200       9.137  34.517 -12.057  1.00 35.39 LIG-0.35  N 
ATOM     12 H    LEU B 200       9.508  35.235 -12.348  1.00 35.39 LIG 0.16  HD
ATOM     13  C   ASP B 199       9.063  34.180 -10.776  1.00 42.58 LIG 0.26  C 
ATOM     14 O    ASP B 199       8.557  33.125 -10.393  1.00 44.96 LIG-0.27  OA
BRANCH 13 15
ATOM     15  CA  ASP B 199       9.665  35.173  -9.788  1.00 43.98 LIG 0.41  C 
ATOM     16  N   ASP B 199      10.233  34.479  -8.635  1.00 41.74 LIG 0.61  N 
BRANCH 15 17
ATOM     17  CB  ASP B 199      10.725  36.025 -10.484  1.00 46.67 LIG 0.16  C 
BRANCH 17 18
ATOM     18  CG  ASP B 199      11.401  37.007  -9.540  1.00 50.58 LIG 0.17  C 
ATOM     19 OD2  ASP B 199      12.639  36.923  -9.384  1.00 55.98 LIG-0.65  OA
ATOM     20 OD1  ASP B 199      10.703  37.854  -8.943  1.00 45.33 LIG-0.65  OA
ENDBRANCH 17 18
ENDBRANCH 15 17
ENDBRANCH 13 15
ENDBRANCH 10 11
BRANCH 10 21
ATOM     21  CB  LEU B 200       9.261  32.301 -13.068  1.00 29.00 LIG 0.04  C 
BRANCH 21 22
ATOM     22  CG  LEU B 200      10.561  32.220 -13.865  1.00 29.82 LIG-0.02  C 
ATOM     23  CD1 LEU B 200      10.435  31.176 -14.962  1.00 24.53 LIG 0.01  C 
ATOM     24  CD2 LEU B 200      10.887  33.587 -14.453  1.00 31.40 LIG 0.01  C 
ENDBRANCH 21 22
ENDBRANCH 10 21
ENDBRANCH 7 10
ENDBRANCH 5 6
BRANCH 5 25
ATOM     25  CB  THR B 201       4.580  35.356 -10.997  1.00 29.82 LIG 0.15  C 
ATOM     26  CG2 THR B 201       5.676  36.364 -10.715  1.00 24.76 LIG 0.04  C 
BRANCH 25 27
ATOM     27 OG1  THR B 201       3.358  36.052 -11.266  1.00 30.74 LIG-0.39  OA
ATOM     28 HG1  THR B 201       3.045  36.358 -10.548  1.00 30.74 LIG 0.21  HD
ENDBRANCH 25 27
ENDBRANCH 5 25
ENDBRANCH 1 5
BRANCH 3 29
ATOM     29  CA  ARG B 202       3.451  36.609 -14.992  1.00 35.80 LIG 0.18  C 
BRANCH 29 30
ATOM     30  CB  ARG B 202       2.154  37.269 -14.529  1.00 39.99 LIG 0.04  C 
BRANCH 30 31
ATOM     31  CG  ARG B 202       2.144  38.751 -14.796  1.00 43.12 LIG 0.02  C 
BRANCH 31 32
ATOM     32  CD  ARG B 202       0.836  39.220 -15.384  1.00 49.76 LIG 0.14  C 
BRANCH 32 33
ATOM     33  NE  ARG B 202       0.830  40.670 -15.534  1.00 51.61 LIG-0.23  N 
ATOM     34  CZ  ARG B 202       1.167  41.299 -16.654  1.00 53.48 LIG 0.67  C 
ATOM     35  NH2 ARG B 202       1.128  42.622 -16.707  1.00 55.46 LIG-0.23  N 
ATOM     36  NH1 ARG B 202       1.540  40.603 -17.720  1.00 53.58 LIG-0.23  N 
ATOM     37 2HH2 ARG B 202       1.346  43.030 -17.431  1.00 55.46 LIG 0.17  HD
ATOM     38 1HH2 ARG B 202       0.886  43.073 -16.016  1.00 55.46 LIG 0.17  HD
ATOM     39 2HH1 ARG B 202       1.758  41.010 -18.445  1.00 53.58 LIG 0.17  HD
ATOM     40 1HH1 ARG B 202       1.564  39.744 -17.686  1.00 53.58 LIG 0.17  HD
ATOM     41 HE   ARG B 202       0.594  41.145 -14.858  1.00 51.61 LIG 0.18  HD
ENDBRANCH 32 33
ENDBRANCH 31 32
ENDBRANCH 30 31
ENDBRANCH 29 30
BRANCH 29 42
ATOM     42  C   ARG B 202       4.367  37.592 -15.769  1.00 54.52 LIG 0.24  C 
ATOM     43 O    ARG B 202       4.893  38.510 -15.150  1.00 52.27 LIG-0.27  OA
ATOM     44  N   PRO B 203       4.549  37.414 -17.113  1.00 63.22 LIG-0.34  N 
ATOM     45  CD  PRO B 203       3.513  36.959 -18.051  1.00 67.52 LIG 0.13  C 
ATOM     46  CA  PRO B 203       5.539  38.146 -17.917  1.00 66.04 LIG 0.17  C 
ATOM     47  CG  PRO B 203       3.289  38.225 -18.864  1.00 67.94 LIG 0.02  C 
ATOM     48  CB  PRO B 203       4.635  39.010 -18.811  1.00 64.70 LIG 0.04  C 
BRANCH 46 49
ATOM     49  C   PRO B 203       6.562  39.026 -17.199  1.00 68.17 LIG 0.22  C 
ATOM     50 O    PRO B 203       7.445  38.477 -16.536  1.00 70.96 LIG-0.29  OA
ENDBRANCH 46 49
ENDBRANCH 29 42
ENDBRANCH 3 29
TORSDOF 18
ENDMDL
MODEL 35
USER: ADFR SOLUTION from run 99
USER: SCORE 14.541016 LL:  -4.709 LR: -10.620 RR:   0.000 FEB:  -5.250
USER: RMSD 6.530119
USER: SEED 98
USER: STATUS no improvement in best in 7 clusters for 5 generations
USER: GENES 20
USER: genes 0 Translation |==|  0.31642 0.33029 0.30910
USER: genes 1 Rotation |==|  0.63557 0.97989 0.48585 0.53352
USER: genes 2 Torsion [N]-C--CA-[N] |==|  0.93875
USER: genes 3 Torsion [C]-CA--N-[C] |==|  0.82632
USER: genes 4 Torsion [N]-C--CA-[N] |==|  0.62222
USER: genes 5 Torsion [C]-CA--N-[C] |==|  0.17714
USER: genes 6 Torsion [N]-C--CA-[N] |==|  0.43210
USER: genes 7 Torsion [C]-CA--CB-[CG] |==|  0.66210
USER: genes 8 Torsion [CA]-CB--CG-[OD2] |==|  0.15447
USER: genes 9 Torsion [C]-CA--CB-[CG] |==|  0.57100
USER: genes 10 Torsion [CA]-CB--CG-[CD1] |==|  0.40186
USER: genes 11 Torsion [C]-CA--CB-[CG2] |==|  0.84344
USER: genes 12 Torsion [CA]-CB--OG1-[HG1] |==|  0.83820
USER: genes 13 Torsion [C]-N--CA-[C] |==|  0.68524
USER: genes 14 Torsion [N]-CA--CB-[CG] |==|  0.86476
USER: genes 15 Torsion [CA]-CB--CG-[CD] |==|  0.86482
USER: genes 16 Torsion [CB]-CG--CD-[NE] |==|  0.73630
USER: genes 17 Torsion [CG]-CD--NE-[CZ] |==|  0.39148
USER: genes 18 Torsion [N]-CA--C-[N] |==|  0.43876
USER: genes 19 Torsion [N]-CA--C-[O] |==|  0.70872
ROOT
ATOM      1  C   THR B 201       5.749  34.497 -15.213  1.00 36.45 LIG 0.24  C 
ATOM      2 O    THR B 201       5.152  34.869 -16.226  1.00 40.30 LIG-0.27  OA
ATOM      3  N   ARG B 202       6.132  35.329 -14.250  1.00 33.32 LIG-0.35  N 
ATOM      4 H    ARG B 202       6.500  35.066 -13.519  1.00 33.32 LIG 0.16  HD
ENDROOT
BRANCH 1 5
ATOM      5  CA  THR B 201       6.092  33.019 -15.000  1.00 30.51 LIG 0.20  C 
BRANCH 5 6
ATOM      6  N   THR B 201       7.201  32.818 -14.063  1.00 29.33 LIG-0.34  N 
ATOM      7  C   LEU B 200       8.420  33.284 -14.324  1.00 28.22 LIG 0.24  C 
ATOM      8 O    LEU B 200       8.665  33.998 -15.293  1.00 25.98 LIG-0.27  OA
ATOM      9 H    THR B 201       6.994  32.383 -13.351  1.00 29.33 LIG 0.16  HD
BRANCH 7 10
ATOM     10  CA  LEU B 200       9.530  32.900 -13.351  1.00 30.55 LIG 0.18  C 
BRANCH 10 11
ATOM     11  N   LEU B 200      10.379  34.029 -13.023  1.00 35.39 LIG-0.35  N 
ATOM     12 H    LEU B 200      11.197  33.949 -13.275  1.00 35.39 LIG 0.16  HD
ATOM     13  C   ASP B 199       9.895  35.085 -12.383  1.00 42.58 LIG 0.26  C 
ATOM     14 O    ASP B 199       8.726  35.155 -12.003  1.00 44.96 LIG-0.27  OA
BRANCH 13 15
ATOM     15  CA  ASP B 199      10.880  36.219 -12.123  1.00 43.98 LIG 0.41  C 
ATOM     16  N   ASP B 199      10.179  37.491 -11.966  1.00 41.74 LIG 0.61  N 
BRANCH 15 17
ATOM     17  CB  ASP B 199      11.720  35.908 -10.885  1.00 46.67 LIG 0.16  C 
BRANCH 17 18
ATOM     18  CG  ASP B 199      11.591  36.971  -9.806  1.00 50.58 LIG 0.17  C 
ATOM     19 OD2  ASP B 199      10.448  37.254  -9.386  1.00 55.98 LIG-0.65  OA
ATOM     20 OD1  ASP B 199      12.622  37.535  -9.384  1.00 45.33 LIG-0.65  OA
ENDBRANCH 17 18
ENDBRANCH 15 17
ENDBRANCH 13 15
ENDBRANCH 10 11
BRANCH 10 21
ATOM     21  CB  LEU B 200       8.928  32.312 -12.077  1.00 29.00 LIG 0.04  C 
BRANCH 21 22
ATOM     22  CG  LEU B 200       9.797  32.449 -10.829  1.00 29.82 LIG-0.02  C 
ATOM     23  CD1 LEU B 200       8.921  32.678  -9.608  1.00 24.53 LIG 0.01  C 
ATOM     24  CD2 LEU B 200      10.649  31.199 -10.657  1.00 31.40 LIG 0.01  C 
ENDBRANCH 21 22
ENDBRANCH 10 21
ENDBRANCH 7 10
ENDBRANCH 5 6
BRANCH 5 25
ATOM     25  CB  THR B 201       4.820  32.278 -14.532  1.00 29.82 LIG 0.15  C 
ATOM     26  CG2 THR B 201       4.254  32.918 -13.280  1.00 24.76 LIG 0.04  C 
BRANCH 25 27
ATOM     27 OG1  THR B 201       3.831  32.312 -15.567  1.00 30.74 LIG-0.39  OA
ATOM     28 HG1  THR B 201       3.655  33.111 -15.761  1.00 30.74 LIG 0.21  HD
ENDBRANCH 25 27
ENDBRANCH 5 25
ENDBRANCH 1 5
BRANCH 3 29
ATOM     29  CA  ARG B 202       5.965  36.780 -14.339  1.00 35.80 LIG 0.18  C 
BRANCH 29 30
ATOM     30  CB  ARG B 202       5.161  37.252 -13.129  1.00 39.99 LIG 0.04  C 
BRANCH 30 31
ATOM     31  CG  ARG B 202       3.922  36.425 -12.912  1.00 43.12 LIG 0.02  C 
BRANCH 31 32
ATOM     32  CD  ARG B 202       3.122  36.249 -14.180  1.00 49.76 LIG 0.14  C 
BRANCH 32 33
ATOM     33  NE  ARG B 202       2.068  37.253 -14.267  1.00 51.61 LIG-0.23  N 
ATOM     34  CZ  ARG B 202       1.716  37.861 -15.393  1.00 53.48 LIG 0.67  C 
ATOM     35  NH2 ARG B 202       0.742  38.759 -15.384  1.00 55.46 LIG-0.23  N 
ATOM     36  NH1 ARG B 202       2.338  37.567 -16.528  1.00 53.58 LIG-0.23  N 
ATOM     37 2HH2 ARG B 202       0.514  39.153 -16.114  1.00 55.46 LIG 0.17  HD
ATOM     38 1HH2 ARG B 202       0.339  38.948 -14.649  1.00 55.46 LIG 0.17  HD
ATOM     39 2HH1 ARG B 202       2.110  37.961 -17.258  1.00 53.58 LIG 0.17  HD
ATOM     40 1HH1 ARG B 202       2.969  36.983 -16.534  1.00 53.58 LIG 0.17  HD
ATOM     41 HE   ARG B 202       1.650  37.463 -13.545  1.00 51.61 LIG 0.18  HD
ENDBRANCH 32 33
ENDBRANCH 31 32
ENDBRANCH 30 31
ENDBRANCH 29 30
BRANCH 29 42
ATOM     42  C   ARG B 202       7.359  37.457 -14.419  1.00 54.52 LIG 0.24  C 
ATOM     43 O    ARG B 202       8.330  36.843 -13.989  1.00 52.27 LIG-0.27  OA
ATOM     44  N   PRO B 203       7.462  38.713 -14.951  1.00 63.22 LIG-0.34  N 
ATOM     45  CD  PRO B 203       6.473  39.786 -14.778  1.00 67.52 LIG 0.13  C 
ATOM     46  CA  PRO B 203       8.737  39.376 -15.266  1.00 66.04 LIG 0.17  C 
ATOM     47  CG  PRO B 203       7.253  40.753 -13.899  1.00 67.94 LIG 0.02  C 
ATOM     48  CB  PRO B 203       8.757  40.515 -14.234  1.00 64.70 LIG 0.04  C 
BRANCH 46 49
ATOM     49  C   PRO B 203      10.029  38.563 -15.176  1.00 68.17 LIG 0.22  C 
ATOM     50 O    PRO B 203      10.774  38.753 -14.213  1.00 70.96 LIG-0.29  OA
ENDBRANCH 46 49
ENDBRANCH 29 42
ENDBRANCH 3 29
TORSDOF 18
ENDMDL
MODEL 36
USER: ADFR SOLUTION from run 137
USER: SCORE 14.032732 LL:  -4.194 LR: -10.528 RR:   0.000 FEB:  -5.158
USER: RMSD 7.981585
USER: SEED 136
USER: STATUS no improvement in best in 30 clusters for 5 generations
USER: GENES 20
USER: genes 0 Translation |==|  0.39317 0.39208 0.50074
USER: genes 1 Rotation |==|  0.21692 0.34026 0.22755 0.76481
USER: genes 2 Torsion [N]-C--CA-[N] |==|  0.93333
USER: genes 3 Torsion [C]-CA--N-[C] |==|  0.71847
USER: genes 4 Torsion [N]-C--CA-[N] |==|  0.37420
USER: genes 5 Torsion [C]-CA--N-[C] |==|  0.82478
USER: genes 6 Torsion [N]-C--CA-[N] |==|  0.88293
USER: genes 7 Torsion [C]-CA--CB-[CG] |==|  0.80464
USER: genes 8 Torsion [CA]-CB--CG-[OD2] |==|  0.44573
USER: genes 9 Torsion [C]-CA--CB-[CG] |==|  0.08955
USER: genes 10 Torsion [CA]-CB--CG-[CD1] |==|  0.17419
USER: genes 11 Torsion [C]-CA--CB-[CG2] |==|  0.82660
USER: genes 12 Torsion [CA]-CB--OG1-[HG1] |==|  0.35425
USER: genes 13 Torsion [C]-N--CA-[C] |==|  0.54591
USER: genes 14 Torsion [N]-CA--CB-[CG] |==|  0.44869
USER: genes 15 Torsion [CA]-CB--CG-[CD] |==|  0.22848
USER: genes 16 Torsion [CB]-CG--CD-[NE] |==|  0.56168
USER: genes 17 Torsion [CG]-CD--NE-[CZ] |==|  0.48680
USER: genes 18 Torsion [N]-CA--C-[N] |==|  0.32960
USER: genes 19 Torsion [N]-CA--C-[O] |==|  0.45775
ROOT
ATOM      1  C   THR B 201       7.073  35.610 -11.620  1.00 36.45 LIG 0.24  C 
ATOM      2 O    THR B 201       7.515  36.277 -10.682  1.00 40.30 LIG-0.27  OA
ATOM      3  N   ARG B 202       7.630  34.473 -12.028  1.00 33.32 LIG-0.35  N 
ATOM      4 H    ARG B 202       7.294  33.979 -12.646  1.00 33.32 LIG 0.16  HD
ENDROOT
BRANCH 1 5
ATOM      5  CA  THR B 201       5.828  36.061 -12.390  1.00 30.51 LIG 0.20  C 
BRANCH 5 6
ATOM      6  N   THR B 201       5.764  35.516 -13.748  1.00 29.33 LIG-0.34  N 
ATOM      7  C   LEU B 200       6.098  36.253 -14.805  1.00 28.22 LIG 0.24  C 
ATOM      8 O    LEU B 200       6.582  37.377 -14.705  1.00 25.98 LIG-0.27  OA
ATOM      9 H    THR B 201       5.498  34.700 -13.794  1.00 29.33 LIG 0.16  HD
BRANCH 7 10
ATOM     10  CA  LEU B 200       5.864  35.635 -16.180  1.00 30.55 LIG 0.18  C 
BRANCH 10 11
ATOM     11  N   LEU B 200       5.242  36.570 -17.097  1.00 35.39 LIG-0.35  N 
ATOM     12 H    LEU B 200       5.719  36.773 -17.782  1.00 35.39 LIG 0.16  HD
ATOM     13  C   ASP B 199       4.029  37.053 -16.862  1.00 42.58 LIG 0.26  C 
ATOM     14 O    ASP B 199       3.384  36.771 -15.851  1.00 44.96 LIG-0.27  OA
BRANCH 13 15
ATOM     15  CA  ASP B 199       3.472  38.004 -17.915  1.00 43.98 LIG 0.41  C 
ATOM     16  N   ASP B 199       4.500  38.936 -18.369  1.00 41.74 LIG 0.61  N 
BRANCH 15 17
ATOM     17  CB  ASP B 199       2.907  37.208 -19.091  1.00 46.67 LIG 0.16  C 
BRANCH 17 18
ATOM     18  CG  ASP B 199       3.991  36.536 -19.919  1.00 50.58 LIG 0.17  C 
ATOM     19 OD2  ASP B 199       3.666  35.580 -20.657  1.00 55.98 LIG-0.65  OA
ATOM     20 OD1  ASP B 199       5.167  36.946 -19.828  1.00 45.33 LIG-0.65  OA
ENDBRANCH 17 18
ENDBRANCH 15 17
ENDBRANCH 13 15
ENDBRANCH 10 11
BRANCH 10 21
ATOM     21  CB  LEU B 200       7.185  35.136 -16.761  1.00 29.00 LIG 0.04  C 
BRANCH 21 22
ATOM     22  CG  LEU B 200       8.194  34.631 -15.732  1.00 29.82 LIG-0.02  C 
ATOM     23  CD1 LEU B 200       7.630  33.426 -14.999  1.00 24.53 LIG 0.01  C 
ATOM     24  CD2 LEU B 200       9.502  34.278 -16.429  1.00 31.40 LIG 0.01  C 
ENDBRANCH 21 22
ENDBRANCH 10 21
ENDBRANCH 7 10
ENDBRANCH 5 6
BRANCH 5 25
ATOM     25  CB  THR B 201       4.574  35.677 -11.572  1.00 29.82 LIG 0.15  C 
ATOM     26  CG2 THR B 201       4.479  34.174 -11.407  1.00 24.76 LIG 0.04  C 
BRANCH 25 27
ATOM     27 OG1  THR B 201       4.633  36.289 -10.278  1.00 30.74 LIG-0.39  OA
ATOM     28 HG1  THR B 201       3.921  36.711 -10.134  1.00 30.74 LIG 0.21  HD
ENDBRANCH 25 27
ENDBRANCH 5 25
ENDBRANCH 1 5
BRANCH 3 29
ATOM     29  CA  ARG B 202       8.874  33.949 -11.464  1.00 35.80 LIG 0.18  C 
BRANCH 29 30
ATOM     30  CB  ARG B 202       8.581  33.397 -10.070  1.00 39.99 LIG 0.04  C 
BRANCH 30 31
ATOM     31  CG  ARG B 202       9.657  32.456  -9.594  1.00 43.12 LIG 0.02  C 
BRANCH 31 32
ATOM     32  CD  ARG B 202      10.841  33.187  -9.010  1.00 49.76 LIG 0.14  C 
BRANCH 32 33
ATOM     33  NE  ARG B 202      12.032  32.347  -9.047  1.00 51.61 LIG-0.23  N 
ATOM     34  CZ  ARG B 202      13.240  32.761  -8.683  1.00 53.48 LIG 0.67  C 
ATOM     35  NH2 ARG B 202      14.271  31.930  -8.743  1.00 55.46 LIG-0.23  N 
ATOM     36  NH1 ARG B 202      13.416  34.006  -8.259  1.00 53.58 LIG-0.23  N 
ATOM     37 2HH2 ARG B 202      15.053  32.197  -8.508  1.00 55.46 LIG 0.17  HD
ATOM     38 1HH2 ARG B 202      14.156  31.124  -9.017  1.00 55.46 LIG 0.17  HD
ATOM     39 2HH1 ARG B 202      14.198  34.274  -8.023  1.00 53.58 LIG 0.17  HD
ATOM     40 1HH1 ARG B 202      12.747  34.545  -8.219  1.00 53.58 LIG 0.17  HD
ATOM     41 HE   ARG B 202      11.947  31.537  -9.320  1.00 51.61 LIG 0.18  HD
ENDBRANCH 32 33
ENDBRANCH 31 32
ENDBRANCH 30 31
ENDBRANCH 29 30
BRANCH 29 42
ATOM     42  C   ARG B 202       9.458  32.870 -12.413  1.00 54.52 LIG 0.24  C 
ATOM     43 O    ARG B 202       8.794  31.861 -12.626  1.00 52.27 LIG-0.27  OA
ATOM     44  N   PRO B 203      10.692  33.068 -12.971  1.00 63.22 LIG-0.34  N 
ATOM     45  CD  PRO B 203      11.829  33.708 -12.296  1.00 67.52 LIG 0.13  C 
ATOM     46  CA  PRO B 203      11.264  32.226 -14.033  1.00 66.04 LIG 0.17  C 
ATOM     47  CG  PRO B 203      12.766  32.520 -12.130  1.00 67.94 LIG 0.02  C 
ATOM     48  CB  PRO B 203      12.424  31.541 -13.294  1.00 64.70 LIG 0.04  C 
BRANCH 46 49
ATOM     49  C   PRO B 203      10.372  31.177 -14.698  1.00 68.17 LIG 0.22  C 
ATOM     50 O    PRO B 203      10.749  30.677 -15.760  1.00 70.96 LIG-0.29  OA
ENDBRANCH 46 49
ENDBRANCH 29 42
ENDBRANCH 3 29
TORSDOF 18
ENDMDL
MODEL 37
USER: ADFR SOLUTION from run 84
USER: SCORE 12.129864 LL:  -3.829 LR: -10.534 RR:   0.000 FEB:  -5.164
USER: RMSD 5.690687
USER: SEED 83
USER: STATUS no improvement in best in 14 clusters for 5 generations
USER: GENES 20
USER: genes 0 Translation |==|  0.50516 0.27913 0.57079
USER: genes 1 Rotation |==|  0.64919 0.30481 0.41044 0.92617
USER: genes 2 Torsion [N]-C--CA-[N] |==|  0.83436
USER: genes 3 Torsion [C]-CA--N-[C] |==|  0.18607
USER: genes 4 Torsion [N]-C--CA-[N] |==|  0.54526
USER: genes 5 Torsion [C]-CA--N-[C] |==|  0.17061
USER: genes 6 Torsion [N]-C--CA-[N] |==|  0.76777
USER: genes 7 Torsion [C]-CA--CB-[CG] |==|  0.72107
USER: genes 8 Torsion [CA]-CB--CG-[OD2] |==|  0.11022
USER: genes 9 Torsion [C]-CA--CB-[CG] |==|  0.32995
USER: genes 10 Torsion [CA]-CB--CG-[CD1] |==|  0.49992
USER: genes 11 Torsion [C]-CA--CB-[CG2] |==|  0.10247
USER: genes 12 Torsion [CA]-CB--OG1-[HG1] |==|  0.90968
USER: genes 13 Torsion [C]-N--CA-[C] |==|  0.58337
USER: genes 14 Torsion [N]-CA--CB-[CG] |==|  0.84310
USER: genes 15 Torsion [CA]-CB--CG-[CD] |==|  0.48902
USER: genes 16 Torsion [CB]-CG--CD-[NE] |==|  0.05418
USER: genes 17 Torsion [CG]-CD--NE-[CZ] |==|  0.49289
USER: genes 18 Torsion [N]-CA--C-[N] |==|  0.80019
USER: genes 19 Torsion [N]-CA--C-[O] |==|  0.80251
ROOT
ATOM      1  C   THR B 201       9.005  33.576 -10.307  1.00 36.45 LIG 0.24  C 
ATOM      2 O    THR B 201       8.842  32.807  -9.356  1.00 40.30 LIG-0.27  OA
ATOM      3  N   ARG B 202       9.810  34.633 -10.256  1.00 33.32 LIG-0.35  N 
ATOM      4 H    ARG B 202       9.967  35.139 -10.933  1.00 33.32 LIG 0.16  HD
ENDROOT
BRANCH 1 5
ATOM      5  CA  THR B 201       8.272  33.354 -11.634  1.00 30.51 LIG 0.20  C 
BRANCH 5 6
ATOM      6  N   THR B 201       7.414  34.481 -12.010  1.00 29.33 LIG-0.34  N 
ATOM      7  C   LEU B 200       7.930  35.665 -12.334  1.00 28.22 LIG 0.24  C 
ATOM      8 O    LEU B 200       9.138  35.854 -12.447  1.00 25.98 LIG-0.27  OA
ATOM      9 H    THR B 201       6.572  34.308 -12.002  1.00 29.33 LIG 0.16  HD
BRANCH 7 10
ATOM     10  CA  LEU B 200       6.946  36.804 -12.575  1.00 30.55 LIG 0.18  C 
BRANCH 10 11
ATOM     11  N   LEU B 200       7.563  37.915 -13.274  1.00 35.39 LIG-0.35  N 
ATOM     12 H    LEU B 200       7.568  38.656 -12.837  1.00 35.39 LIG 0.16  HD
ATOM     13  C   ASP B 199       8.068  37.762 -14.490  1.00 42.58 LIG 0.26  C 
ATOM     14 O    ASP B 199       8.012  36.696 -15.105  1.00 44.96 LIG-0.27  OA
BRANCH 13 15
ATOM     15  CA  ASP B 199       8.716  38.997 -15.106  1.00 43.98 LIG 0.41  C 
ATOM     16  N   ASP B 199       7.711  39.854 -15.731  1.00 41.74 LIG 0.61  N 
BRANCH 15 17
ATOM     17  CB  ASP B 199       9.493  39.766 -14.039  1.00 46.67 LIG 0.16  C 
BRANCH 17 18
ATOM     18  CG  ASP B 199       8.731  40.970 -13.511  1.00 50.58 LIG 0.17  C 
ATOM     19 OD2  ASP B 199       7.499  40.857 -13.324  1.00 55.98 LIG-0.65  OA
ATOM     20 OD1  ASP B 199       9.350  42.033 -13.292  1.00 45.33 LIG-0.65  OA
ENDBRANCH 17 18
ENDBRANCH 15 17
ENDBRANCH 13 15
ENDBRANCH 10 11
BRANCH 10 21
ATOM     21  CB  LEU B 200       5.740  36.297 -13.362  1.00 29.00 LIG 0.04  C 
BRANCH 21 22
ATOM     22  CG  LEU B 200       4.399  36.425 -12.643  1.00 29.82 LIG-0.02  C 
ATOM     23  CD1 LEU B 200       3.283  35.890 -13.525  1.00 24.53 LIG 0.01  C 
ATOM     24  CD2 LEU B 200       4.453  35.672 -11.321  1.00 31.40 LIG 0.01  C 
ENDBRANCH 21 22
ENDBRANCH 10 21
ENDBRANCH 7 10
ENDBRANCH 5 6
BRANCH 5 25
ATOM     25  CB  THR B 201       9.316  33.052 -12.732  1.00 29.82 LIG 0.15  C 
ATOM     26  CG2 THR B 201      10.452  32.215 -12.179  1.00 24.76 LIG 0.04  C 
BRANCH 25 27
ATOM     27 OG1  THR B 201       8.693  32.345 -13.811  1.00 30.74 LIG-0.39  OA
ATOM     28 HG1  THR B 201       8.080  31.857 -13.510  1.00 30.74 LIG 0.21  HD
ENDBRANCH 25 27
ENDBRANCH 5 25
ENDBRANCH 1 5
BRANCH 3 29
ATOM     29  CA  ARG B 202      10.512  35.041  -9.039  1.00 35.80 LIG 0.18  C 
BRANCH 29 30
ATOM     30  CB  ARG B 202      11.837  34.284  -8.964  1.00 39.99 LIG 0.04  C 
BRANCH 30 31
ATOM     31  CG  ARG B 202      11.642  32.791  -9.011  1.00 43.12 LIG 0.02  C 
BRANCH 31 32
ATOM     32  CD  ARG B 202      12.952  32.043  -9.033  1.00 49.76 LIG 0.14  C 
BRANCH 32 33
ATOM     33  NE  ARG B 202      14.036  32.889  -8.550  1.00 51.61 LIG-0.23  N 
ATOM     34  CZ  ARG B 202      15.292  32.478  -8.414  1.00 53.48 LIG 0.67  C 
ATOM     35  NH2 ARG B 202      16.218  33.316  -7.972  1.00 55.46 LIG-0.23  N 
ATOM     36  NH1 ARG B 202      15.618  31.229  -8.722  1.00 53.58 LIG-0.23  N 
ATOM     37 2HH2 ARG B 202      17.031  33.050  -7.883  1.00 55.46 LIG 0.17  HD
ATOM     38 1HH2 ARG B 202      16.006  34.124  -7.773  1.00 55.46 LIG 0.17  HD
ATOM     39 2HH1 ARG B 202      16.431  30.963  -8.634  1.00 53.58 LIG 0.17  HD
ATOM     40 1HH1 ARG B 202      15.017  30.686  -9.010  1.00 53.58 LIG 0.17  HD
ATOM     41 HE   ARG B 202      13.852  33.702  -8.341  1.00 51.61 LIG 0.18  HD
ENDBRANCH 32 33
ENDBRANCH 31 32
ENDBRANCH 30 31
ENDBRANCH 29 30
BRANCH 29 42
ATOM     42  C   ARG B 202      10.713  36.579  -9.048  1.00 54.52 LIG 0.24  C 
ATOM     43 O    ARG B 202      10.036  37.259  -8.285  1.00 52.27 LIG-0.27  OA
ATOM     44  N   PRO B 203      11.624  37.129  -9.908  1.00 63.22 LIG-0.34  N 
ATOM     45  CD  PRO B 203      11.887  36.653 -11.273  1.00 67.52 LIG 0.13  C 
ATOM     46  CA  PRO B 203      12.049  38.537  -9.874  1.00 66.04 LIG 0.17  C 
ATOM     47  CG  PRO B 203      11.326  37.808 -12.090  1.00 67.94 LIG 0.02  C 
ATOM     48  CB  PRO B 203      11.455  39.072 -11.187  1.00 64.70 LIG 0.04  C 
BRANCH 46 49
ATOM     49  C   PRO B 203      11.602  39.410  -8.701  1.00 68.17 LIG 0.22  C 
ATOM     50 O    PRO B 203      10.416  39.738  -8.634  1.00 70.96 LIG-0.29  OA
ENDBRANCH 46 49
ENDBRANCH 29 42
ENDBRANCH 3 29
TORSDOF 18
ENDMDL
MODEL 38
USER: ADFR SOLUTION from run 150
USER: SCORE 14.811299 LL:  -4.708 LR: -10.517 RR:   0.000 FEB:  -5.147
USER: RMSD 7.694964
USER: SEED 149
USER: STATUS no improvement in best in 1 clusters for 5 generations
USER: GENES 20
USER: genes 0 Translation |==|  0.57206 0.18673 0.36357
USER: genes 1 Rotation |==|  0.81106 0.16955 0.46061 0.70614
USER: genes 2 Torsion [N]-C--CA-[N] |==|  0.92927
USER: genes 3 Torsion [C]-CA--N-[C] |==|  0.77126
USER: genes 4 Torsion [N]-C--CA-[N] |==|  0.90762
USER: genes 5 Torsion [C]-CA--N-[C] |==|  0.82231
USER: genes 6 Torsion [N]-C--CA-[N] |==|  0.15503
USER: genes 7 Torsion [C]-CA--CB-[CG] |==|  0.55710
USER: genes 8 Torsion [CA]-CB--CG-[OD2] |==|  0.35534
USER: genes 9 Torsion [C]-CA--CB-[CG] |==|  0.80833
USER: genes 10 Torsion [CA]-CB--CG-[CD1] |==|  0.30226
USER: genes 11 Torsion [C]-CA--CB-[CG2] |==|  0.25268
USER: genes 12 Torsion [CA]-CB--OG1-[HG1] |==|  0.87843
USER: genes 13 Torsion [C]-N--CA-[C] |==|  0.67304
USER: genes 14 Torsion [N]-CA--CB-[CG] |==|  0.10408
USER: genes 15 Torsion [CA]-CB--CG-[CD] |==|  0.44239
USER: genes 16 Torsion [CB]-CG--CD-[NE] |==|  0.23279
USER: genes 17 Torsion [CG]-CD--NE-[CZ] |==|  0.37555
USER: genes 18 Torsion [N]-CA--C-[N] |==|  0.10553
USER: genes 19 Torsion [N]-CA--C-[O] |==|  0.30041
ROOT
ATOM      1  C   THR B 201      10.159  31.913 -14.192  1.00 36.45 LIG 0.24  C 
ATOM      2 O    THR B 201       9.659  30.802 -14.386  1.00 40.30 LIG-0.27  OA
ATOM      3  N   ARG B 202      10.113  32.535 -13.018  1.00 33.32 LIG-0.35  N 
ATOM      4 H    ARG B 202      10.507  33.284 -12.866  1.00 33.32 LIG 0.16  HD
ENDROOT
BRANCH 1 5
ATOM      5  CA  THR B 201      10.879  32.659 -15.320  1.00 30.51 LIG 0.20  C 
BRANCH 5 6
ATOM      6  N   THR B 201      10.882  34.113 -15.135  1.00 29.33 LIG-0.34  N 
ATOM      7  C   LEU B 200       9.836  34.857 -15.488  1.00 28.22 LIG 0.24  C 
ATOM      8 O    LEU B 200       8.777  34.372 -15.877  1.00 25.98 LIG-0.27  OA
ATOM      9 H    THR B 201      11.602  34.428 -14.787  1.00 29.33 LIG 0.16  HD
BRANCH 7 10
ATOM     10  CA  LEU B 200       9.997  36.370 -15.382  1.00 30.55 LIG 0.18  C 
BRANCH 10 11
ATOM     11  N   LEU B 200      10.854  36.748 -14.275  1.00 35.39 LIG-0.35  N 
ATOM     12 H    LEU B 200      11.582  37.143 -14.504  1.00 35.39 LIG 0.16  HD
ATOM     13  C   ASP B 199      10.507  36.488 -13.022  1.00 42.58 LIG 0.26  C 
ATOM     14 O    ASP B 199       9.474  35.888 -12.728  1.00 44.96 LIG-0.27  OA
BRANCH 13 15
ATOM     15  CA  ASP B 199      11.479  36.963 -11.947  1.00 43.98 LIG 0.41  C 
ATOM     16  N   ASP B 199      11.729  38.396 -12.068  1.00 41.74 LIG 0.61  N 
BRANCH 15 17
ATOM     17  CB  ASP B 199      10.931  36.625 -10.561  1.00 46.67 LIG 0.16  C 
BRANCH 17 18
ATOM     18  CG  ASP B 199      11.552  37.471  -9.462  1.00 50.58 LIG 0.17  C 
ATOM     19 OD2  ASP B 199      10.790  38.075  -8.675  1.00 55.98 LIG-0.65  OA
ATOM     20 OD1  ASP B 199      12.796  37.547  -9.384  1.00 45.33 LIG-0.65  OA
ENDBRANCH 17 18
ENDBRANCH 15 17
ENDBRANCH 13 15
ENDBRANCH 10 11
BRANCH 10 21
ATOM     21  CB  LEU B 200      10.552  36.931 -16.688  1.00 29.00 LIG 0.04  C 
BRANCH 21 22
ATOM     22  CG  LEU B 200      12.000  36.553 -16.990  1.00 29.82 LIG-0.02  C 
ATOM     23  CD1 LEU B 200      12.051  35.561 -18.139  1.00 24.53 LIG 0.01  C 
ATOM     24  CD2 LEU B 200      12.799  37.807 -17.321  1.00 31.40 LIG 0.01  C 
ENDBRANCH 21 22
ENDBRANCH 10 21
ENDBRANCH 7 10
ENDBRANCH 5 6
BRANCH 5 25
ATOM     25  CB  THR B 201      12.318  32.107 -15.440  1.00 29.82 LIG 0.15  C 
ATOM     26  CG2 THR B 201      12.373  30.960 -16.429  1.00 24.76 LIG 0.04  C 
BRANCH 25 27
ATOM     27 OG1  THR B 201      13.201  33.147 -15.876  1.00 30.74 LIG-0.39  OA
ATOM     28 HG1  THR B 201      12.839  33.580 -16.498  1.00 30.74 LIG 0.21  HD
ENDBRANCH 25 27
ENDBRANCH 5 25
ENDBRANCH 1 5
BRANCH 3 29
ATOM     29  CA  ARG B 202       9.386  32.005 -11.864  1.00 35.80 LIG 0.18  C 
BRANCH 29 30
ATOM     30  CB  ARG B 202      10.380  31.773 -10.728  1.00 39.99 LIG 0.04  C 
BRANCH 30 31
ATOM     31  CG  ARG B 202      11.438  32.843 -10.670  1.00 43.12 LIG 0.02  C 
BRANCH 31 32
ATOM     32  CD  ARG B 202      12.098  32.924  -9.316  1.00 49.76 LIG 0.14  C 
BRANCH 32 33
ATOM     33  NE  ARG B 202      13.171  31.942  -9.207  1.00 51.61 LIG-0.23  N 
ATOM     34  CZ  ARG B 202      14.369  32.208  -8.701  1.00 53.48 LIG 0.67  C 
ATOM     35  NH2 ARG B 202      15.286  31.254  -8.635  1.00 55.46 LIG-0.23  N 
ATOM     36  NH1 ARG B 202      14.648  33.429  -8.261  1.00 53.58 LIG-0.23  N 
ATOM     37 2HH2 ARG B 202      16.062  31.425  -8.307  1.00 55.46 LIG 0.17  HD
ATOM     38 1HH2 ARG B 202      15.105  30.463  -8.920  1.00 55.46 LIG 0.17  HD
ATOM     39 2HH1 ARG B 202      15.424  33.600  -7.934  1.00 53.58 LIG 0.17  HD
ATOM     40 1HH1 ARG B 202      14.052  34.047  -8.303  1.00 53.58 LIG 0.17  HD
ATOM     41 HE   ARG B 202      13.017  31.144  -9.487  1.00 51.61 LIG 0.18  HD
ENDBRANCH 32 33
ENDBRANCH 31 32
ENDBRANCH 30 31
ENDBRANCH 29 30
BRANCH 29 42
ATOM     42  C   ARG B 202       8.257  32.991 -11.466  1.00 54.52 LIG 0.24  C 
ATOM     43 O    ARG B 202       8.016  33.149 -10.274  1.00 52.27 LIG-0.27  OA
ATOM     44  N   PRO B 203       7.560  33.642 -12.447  1.00 63.22 LIG-0.34  N 
ATOM     45  CD  PRO B 203       7.183  33.058 -13.742  1.00 67.52 LIG 0.13  C 
ATOM     46  CA  PRO B 203       6.615  34.741 -12.200  1.00 66.04 LIG 0.17  C 
ATOM     47  CG  PRO B 203       5.674  32.958 -13.579  1.00 67.94 LIG 0.02  C 
ATOM     48  CB  PRO B 203       5.276  34.089 -12.583  1.00 64.70 LIG 0.04  C 
BRANCH 46 49
ATOM     49  C   PRO B 203       6.528  35.332 -10.793  1.00 68.17 LIG 0.22  C 
ATOM     50 O    PRO B 203       6.989  36.459 -10.602  1.00 70.96 LIG-0.29  OA
ENDBRANCH 46 49
ENDBRANCH 29 42
ENDBRANCH 3 29
TORSDOF 18
ENDMDL
MODEL 39
USER: ADFR SOLUTION from run 108
USER: SCORE 13.154396 LL:  -3.373 LR: -10.493 RR:   0.000 FEB:  -5.123
USER: RMSD 8.615834
USER: SEED 107
USER: STATUS no improvement in best in 5 clusters for 5 generations
USER: GENES 20
USER: genes 0 Translation |==|  0.26874 0.32923 0.32063
USER: genes 1 Rotation |==|  0.39336 0.20482 0.74857 0.79951
USER: genes 2 Torsion [N]-C--CA-[N] |==|  0.31468
USER: genes 3 Torsion [C]-CA--N-[C] |==|  0.78289
USER: genes 4 Torsion [N]-C--CA-[N] |==|  0.48398
USER: genes 5 Torsion [C]-CA--N-[C] |==|  0.52302
USER: genes 6 Torsion [N]-C--CA-[N] |==|  0.01822
USER: genes 7 Torsion [C]-CA--CB-[CG] |==|  0.70455
USER: genes 8 Torsion [CA]-CB--CG-[OD2] |==|  0.21145
USER: genes 9 Torsion [C]-CA--CB-[CG] |==|  0.85724
USER: genes 10 Torsion [CA]-CB--CG-[CD1] |==|  0.91892
USER: genes 11 Torsion [C]-CA--CB-[CG2] |==|  0.77529
USER: genes 12 Torsion [CA]-CB--OG1-[HG1] |==|  0.91857
USER: genes 13 Torsion [C]-N--CA-[C] |==|  0.63179
USER: genes 14 Torsion [N]-CA--CB-[CG] |==|  0.53965
USER: genes 15 Torsion [CA]-CB--CG-[CD] |==|  0.23647
USER: genes 16 Torsion [CB]-CG--CD-[NE] |==|  0.70972
USER: genes 17 Torsion [CG]-CD--NE-[CZ] |==|  0.31114
USER: genes 18 Torsion [N]-CA--C-[N] |==|  0.35788
USER: genes 19 Torsion [N]-CA--C-[O] |==|  0.24147
ROOT
ATOM      1  C   THR B 201       4.927  34.478 -14.997  1.00 36.45 LIG 0.24  C 
ATOM      2 O    THR B 201       3.930  34.902 -14.408  1.00 40.30 LIG-0.27  OA
ATOM      3  N   ARG B 202       5.532  35.148 -15.973  1.00 33.32 LIG-0.35  N 
ATOM      4 H    ARG B 202       6.257  34.880 -16.349  1.00 33.32 LIG 0.16  HD
ENDROOT
BRANCH 1 5
ATOM      5  CA  THR B 201       5.541  33.123 -14.631  1.00 30.51 LIG 0.20  C 
BRANCH 5 6
ATOM      6  N   THR B 201       6.126  33.104 -13.287  1.00 29.33 LIG-0.34  N 
ATOM      7  C   LEU B 200       7.316  33.647 -13.043  1.00 28.22 LIG 0.24  C 
ATOM      8 O    LEU B 200       7.939  34.289 -13.885  1.00 25.98 LIG-0.27  OA
ATOM      9 H    THR B 201       5.640  32.719 -12.691  1.00 29.33 LIG 0.16  HD
BRANCH 7 10
ATOM     10  CA  LEU B 200       7.892  33.450 -11.644  1.00 30.55 LIG 0.18  C 
BRANCH 10 11
ATOM     11  N   LEU B 200       9.242  33.966 -11.535  1.00 35.39 LIG-0.35  N 
ATOM     12 H    LEU B 200       9.512  34.413 -12.218  1.00 35.39 LIG 0.16  HD
ATOM     13  C   ASP B 199       9.973  33.745 -10.451  1.00 42.58 LIG 0.26  C 
ATOM     14 O    ASP B 199       9.571  33.070  -9.503  1.00 44.96 LIG-0.27  OA
BRANCH 13 15
ATOM     15  CA  ASP B 199      11.366  34.366 -10.446  1.00 43.98 LIG 0.41  C 
ATOM     16  N   ASP B 199      11.556  35.227 -11.610  1.00 41.74 LIG 0.61  N 
BRANCH 15 17
ATOM     17  CB  ASP B 199      11.583  35.150  -9.152  1.00 46.67 LIG 0.16  C 
BRANCH 17 18
ATOM     18  CG  ASP B 199      11.540  36.655  -9.364  1.00 50.58 LIG 0.17  C 
ATOM     19 OD2  ASP B 199      10.425  37.199  -9.525  1.00 55.98 LIG-0.65  OA
ATOM     20 OD1  ASP B 199      12.611  37.297  -9.384  1.00 45.33 LIG-0.65  OA
ENDBRANCH 17 18
ENDBRANCH 15 17
ENDBRANCH 13 15
ENDBRANCH 10 11
BRANCH 10 21
ATOM     21  CB  LEU B 200       6.992  34.120 -10.609  1.00 29.00 LIG 0.04  C 
BRANCH 21 22
ATOM     22  CG  LEU B 200       6.643  35.577 -10.902  1.00 29.82 LIG-0.02  C 
ATOM     23  CD1 LEU B 200       7.763  36.232 -11.693  1.00 24.53 LIG 0.01  C 
ATOM     24  CD2 LEU B 200       5.328  35.644 -11.669  1.00 31.40 LIG 0.01  C 
ENDBRANCH 21 22
ENDBRANCH 10 21
ENDBRANCH 7 10
ENDBRANCH 5 6
BRANCH 5 25
ATOM     25  CB  THR B 201       4.460  32.030 -14.788  1.00 29.82 LIG 0.15  C 
ATOM     26  CG2 THR B 201       3.553  31.992 -13.575  1.00 24.76 LIG 0.04  C 
BRANCH 25 27
ATOM     27 OG1  THR B 201       3.673  32.292 -15.956  1.00 30.74 LIG-0.39  OA
ATOM     28 HG1  THR B 201       3.650  33.120 -16.099  1.00 30.74 LIG 0.21  HD
ENDBRANCH 25 27
ENDBRANCH 5 25
ENDBRANCH 1 5
BRANCH 3 29
ATOM     29  CA  ARG B 202       5.022  36.410 -16.508  1.00 35.80 LIG 0.18  C 
BRANCH 29 30
ATOM     30  CB  ARG B 202       5.884  37.550 -15.968  1.00 39.99 LIG 0.04  C 
BRANCH 30 31
ATOM     31  CG  ARG B 202       5.241  38.896 -16.178  1.00 43.12 LIG 0.02  C 
BRANCH 31 32
ATOM     32  CD  ARG B 202       4.274  39.248 -15.074  1.00 49.76 LIG 0.14  C 
BRANCH 32 33
ATOM     33  NE  ARG B 202       2.897  39.092 -15.528  1.00 51.61 LIG-0.23  N 
ATOM     34  CZ  ARG B 202       2.068  38.161 -15.072  1.00 53.48 LIG 0.67  C 
ATOM     35  NH2 ARG B 202       0.829  38.093 -15.537  1.00 55.46 LIG-0.23  N 
ATOM     36  NH1 ARG B 202       2.480  37.299 -14.151  1.00 53.58 LIG-0.23  N 
ATOM     37 2HH2 ARG B 202       0.293  37.490 -15.241  1.00 55.46 LIG 0.17  HD
ATOM     38 1HH2 ARG B 202       0.563  38.651 -16.133  1.00 55.46 LIG 0.17  HD
ATOM     39 2HH1 ARG B 202       1.944  36.696 -13.856  1.00 53.58 LIG 0.17  HD
ATOM     40 1HH1 ARG B 202       3.285  37.344 -13.849  1.00 53.58 LIG 0.17  HD
ATOM     41 HE   ARG B 202       2.605  39.636 -16.127  1.00 51.61 LIG 0.18  HD
ENDBRANCH 32 33
ENDBRANCH 31 32
ENDBRANCH 30 31
ENDBRANCH 29 30
BRANCH 29 42
ATOM     42  C   ARG B 202       5.024  36.355 -18.058  1.00 54.52 LIG 0.24  C 
ATOM     43 O    ARG B 202       6.060  36.027 -18.627  1.00 52.27 LIG-0.27  OA
ATOM     44  N   PRO B 203       3.884  36.682 -18.741  1.00 63.22 LIG-0.34  N 
ATOM     45  CD  PRO B 203       2.943  37.740 -18.350  1.00 67.52 LIG 0.13  C 
ATOM     46  CA  PRO B 203       3.697  36.477 -20.185  1.00 66.04 LIG 0.17  C 
ATOM     47  CG  PRO B 203       3.173  38.751 -19.464  1.00 67.94 LIG 0.02  C 
ATOM     48  CB  PRO B 203       3.645  37.925 -20.699  1.00 64.70 LIG 0.04  C 
BRANCH 46 49
ATOM     49  C   PRO B 203       4.752  35.684 -20.957  1.00 68.17 LIG 0.22  C 
ATOM     50 O    PRO B 203       4.644  34.457 -21.003  1.00 70.96 LIG-0.29  OA
ENDBRANCH 46 49
ENDBRANCH 29 42
ENDBRANCH 3 29
TORSDOF 18
ENDMDL
MODEL 40
USER: ADFR SOLUTION from run 105
USER: SCORE 14.164452 LL:  -3.879 LR: -10.493 RR:   0.000 FEB:  -5.123
USER: RMSD 7.383582
USER: SEED 104
USER: STATUS no improvement in best in 6 clusters for 5 generations
USER: GENES 20
USER: genes 0 Translation |==|  0.44627 0.24991 0.46633
USER: genes 1 Rotation |==|  0.84805 0.52778 0.29459 0.79308
USER: genes 2 Torsion [N]-C--CA-[N] |==|  0.07240
USER: genes 3 Torsion [C]-CA--N-[C] |==|  0.16389
USER: genes 4 Torsion [N]-C--CA-[N] |==|  0.36354
USER: genes 5 Torsion [C]-CA--N-[C] |==|  0.82780
USER: genes 6 Torsion [N]-C--CA-[N] |==|  0.93466
USER: genes 7 Torsion [C]-CA--CB-[CG] |==|  0.18733
USER: genes 8 Torsion [CA]-CB--CG-[OD2] |==|  0.19879
USER: genes 9 Torsion [C]-CA--CB-[CG] |==|  0.08080
USER: genes 10 Torsion [CA]-CB--CG-[CD1] |==|  0.34752
USER: genes 11 Torsion [C]-CA--CB-[CG2] |==|  0.26085
USER: genes 12 Torsion [CA]-CB--OG1-[HG1] |==|  0.77340
USER: genes 13 Torsion [C]-N--CA-[C] |==|  0.14309
USER: genes 14 Torsion [N]-CA--CB-[CG] |==|  0.55274
USER: genes 15 Torsion [CA]-CB--CG-[CD] |==|  0.00509
USER: genes 16 Torsion [CB]-CG--CD-[NE] |==|  0.47113
USER: genes 17 Torsion [CG]-CD--NE-[CZ] |==|  0.65583
USER: genes 18 Torsion [N]-CA--C-[N] |==|  0.12245
USER: genes 19 Torsion [N]-CA--C-[O] |==|  0.22692
ROOT
ATOM      1  C   THR B 201       7.989  33.050 -12.265  1.00 36.45 LIG 0.24  C 
ATOM      2 O    THR B 201       8.097  31.927 -12.763  1.00 40.30 LIG-0.27  OA
ATOM      3  N   ARG B 202       8.966  33.639 -11.582  1.00 33.32 LIG-0.35  N 
ATOM      4 H    ARG B 202       8.913  34.442 -11.281  1.00 33.32 LIG 0.16  HD
ENDROOT
BRANCH 1 5
ATOM      5  CA  THR B 201       6.692  33.853 -12.409  1.00 30.51 LIG 0.20  C 
BRANCH 5 6
ATOM      6  N   THR B 201       6.902  35.301 -12.327  1.00 29.33 LIG-0.34  N 
ATOM      7  C   LEU B 200       7.705  35.933 -13.179  1.00 28.22 LIG 0.24  C 
ATOM      8 O    LEU B 200       8.222  35.375 -14.144  1.00 25.98 LIG-0.27  OA
ATOM      9 H    THR B 201       6.470  35.690 -11.693  1.00 29.33 LIG 0.16  HD
BRANCH 7 10
ATOM     10  CA  LEU B 200       7.961  37.414 -12.920  1.00 30.55 LIG 0.18  C 
BRANCH 10 11
ATOM     11  N   LEU B 200       9.374  37.736 -12.958  1.00 35.39 LIG-0.35  N 
ATOM     12 H    LEU B 200       9.599  38.294 -13.572  1.00 35.39 LIG 0.16  HD
ATOM     13  C   ASP B 199      10.223  37.192 -12.096  1.00 42.58 LIG 0.26  C 
ATOM     14 O    ASP B 199       9.876  36.368 -11.250  1.00 44.96 LIG-0.27  OA
BRANCH 13 15
ATOM     15  CA  ASP B 199      11.677  37.634 -12.220  1.00 43.98 LIG 0.41  C 
ATOM     16  N   ASP B 199      11.958  38.125 -13.567  1.00 41.74 LIG 0.61  N 
BRANCH 15 17
ATOM     17  CB  ASP B 199      11.987  38.707 -11.178  1.00 46.67 LIG 0.16  C 
BRANCH 17 18
ATOM     18  CG  ASP B 199      11.951  38.171  -9.755  1.00 50.58 LIG 0.17  C 
ATOM     19 OD2  ASP B 199      12.874  37.413  -9.384  1.00 55.98 LIG-0.65  OA
ATOM     20 OD1  ASP B 199      11.003  38.492  -9.009  1.00 45.33 LIG-0.65  OA
ENDBRANCH 17 18
ENDBRANCH 15 17
ENDBRANCH 13 15
ENDBRANCH 10 11
BRANCH 10 21
ATOM     21  CB  LEU B 200       7.204  38.263 -13.938  1.00 29.00 LIG 0.04  C 
BRANCH 21 22
ATOM     22  CG  LEU B 200       5.918  37.637 -14.472  1.00 29.82 LIG-0.02  C 
ATOM     23  CD1 LEU B 200       4.751  38.586 -14.260  1.00 24.53 LIG 0.01  C 
ATOM     24  CD2 LEU B 200       6.084  37.306 -15.950  1.00 31.40 LIG 0.01  C 
ENDBRANCH 21 22
ENDBRANCH 10 21
ENDBRANCH 7 10
ENDBRANCH 5 6
BRANCH 5 25
ATOM     25  CB  THR B 201       6.011  33.460 -13.740  1.00 29.82 LIG 0.15  C 
ATOM     26  CG2 THR B 201       4.994  32.359 -13.519  1.00 24.76 LIG 0.04  C 
BRANCH 25 27
ATOM     27 OG1  THR B 201       5.354  34.602 -14.303  1.00 30.74 LIG-0.39  OA
ATOM     28 HG1  THR B 201       4.606  34.706 -13.935  1.00 30.74 LIG 0.21  HD
ENDBRANCH 25 27
ENDBRANCH 5 25
ENDBRANCH 1 5
BRANCH 3 29
ATOM     29  CA  ARG B 202      10.233  32.975 -11.274  1.00 35.80 LIG 0.18  C 
BRANCH 29 30
ATOM     30  CB  ARG B 202       9.975  31.900 -10.220  1.00 39.99 LIG 0.04  C 
BRANCH 30 31
ATOM     31  CG  ARG B 202      11.238  31.485  -9.512  1.00 43.12 LIG 0.02  C 
BRANCH 31 32
ATOM     32  CD  ARG B 202      12.442  32.262  -9.984  1.00 49.76 LIG 0.14  C 
BRANCH 32 33
ATOM     33  NE  ARG B 202      13.588  32.012  -9.117  1.00 51.61 LIG-0.23  N 
ATOM     34  CZ  ARG B 202      14.264  32.967  -8.491  1.00 53.48 LIG 0.67  C 
ATOM     35  NH2 ARG B 202      15.292  32.652  -7.716  1.00 55.46 LIG-0.23  N 
ATOM     36  NH1 ARG B 202      13.911  34.238  -8.640  1.00 53.58 LIG-0.23  N 
ATOM     37 2HH2 ARG B 202      15.730  33.270  -7.311  1.00 55.46 LIG 0.17  HD
ATOM     38 1HH2 ARG B 202      15.520  31.829  -7.619  1.00 55.46 LIG 0.17  HD
ATOM     39 2HH1 ARG B 202      14.349  34.856  -8.235  1.00 53.58 LIG 0.17  HD
ATOM     40 1HH1 ARG B 202      13.243  34.442  -9.143  1.00 53.58 LIG 0.17  HD
ATOM     41 HE   ARG B 202      13.839  31.197  -9.005  1.00 51.61 LIG 0.18  HD
ENDBRANCH 32 33
ENDBRANCH 31 32
ENDBRANCH 30 31
ENDBRANCH 29 30
BRANCH 29 42
ATOM     42  C   ARG B 202      10.840  32.389 -12.575  1.00 54.52 LIG 0.24  C 
ATOM     43 O    ARG B 202      11.317  31.260 -12.537  1.00 52.27 LIG-0.27  OA
ATOM     44  N   PRO B 203      10.839  33.146 -13.715  1.00 63.22 LIG-0.34  N 
ATOM     45  CD  PRO B 203      11.048  34.600 -13.760  1.00 67.52 LIG 0.13  C 
ATOM     46  CA  PRO B 203      11.197  32.637 -15.047  1.00 66.04 LIG 0.17  C 
ATOM     47  CG  PRO B 203      12.406  34.671 -14.441  1.00 67.94 LIG 0.02  C 
ATOM     48  CB  PRO B 203      12.508  33.390 -15.324  1.00 64.70 LIG 0.04  C 
BRANCH 46 49
ATOM     49  C   PRO B 203      11.407  31.133 -15.226  1.00 68.17 LIG 0.22  C 
ATOM     50 O    PRO B 203      10.414  30.418 -15.378  1.00 70.96 LIG-0.29  OA
ENDBRANCH 46 49
ENDBRANCH 29 42
ENDBRANCH 3 29
TORSDOF 18
ENDMDL
MODEL 41
USER: ADFR SOLUTION from run 155
USER: SCORE 14.424015 LL:  -4.878 LR: -10.475 RR:   0.000 FEB:  -5.106
USER: RMSD 5.924404
USER: SEED 154
USER: STATUS no improvement in best in 3 clusters for 5 generations
USER: GENES 20
USER: genes 0 Translation |==|  0.41491 0.38400 0.54526
USER: genes 1 Rotation |==|  0.29357 0.16676 0.28478 0.72365
USER: genes 2 Torsion [N]-C--CA-[N] |==|  0.97558
USER: genes 3 Torsion [C]-CA--N-[C] |==|  0.71667
USER: genes 4 Torsion [N]-C--CA-[N] |==|  0.55983
USER: genes 5 Torsion [C]-CA--N-[C] |==|  0.77145
USER: genes 6 Torsion [N]-C--CA-[N] |==|  0.70683
USER: genes 7 Torsion [C]-CA--CB-[CG] |==|  0.75250
USER: genes 8 Torsion [CA]-CB--CG-[OD2] |==|  0.09070
USER: genes 9 Torsion [C]-CA--CB-[CG] |==|  0.84511
USER: genes 10 Torsion [CA]-CB--CG-[CD1] |==|  0.40932
USER: genes 11 Torsion [C]-CA--CB-[CG2] |==|  0.23452
USER: genes 12 Torsion [CA]-CB--OG1-[HG1] |==|  0.66363
USER: genes 13 Torsion [C]-N--CA-[C] |==|  0.78909
USER: genes 14 Torsion [N]-CA--CB-[CG] |==|  0.31798
USER: genes 15 Torsion [CA]-CB--CG-[CD] |==|  0.50754
USER: genes 16 Torsion [CB]-CG--CD-[NE] |==|  0.58627
USER: genes 17 Torsion [CG]-CD--NE-[CZ] |==|  0.58601
USER: genes 18 Torsion [N]-CA--C-[N] |==|  0.86874
USER: genes 19 Torsion [N]-CA--C-[O] |==|  0.17460
ROOT
ATOM      1  C   THR B 201       7.448  35.464 -10.785  1.00 36.45 LIG 0.24  C 
ATOM      2 O    THR B 201       7.034  36.459 -10.186  1.00 40.30 LIG-0.27  OA
ATOM      3  N   ARG B 202       8.528  34.787 -10.408  1.00 33.32 LIG-0.35  N 
ATOM      4 H    ARG B 202       8.788  34.063 -10.791  1.00 33.32 LIG 0.16  HD
ENDROOT
BRANCH 1 5
ATOM      5  CA  THR B 201       6.726  34.937 -12.029  1.00 30.51 LIG 0.20  C 
BRANCH 5 6
ATOM      6  N   THR B 201       7.471  33.881 -12.721  1.00 29.33 LIG-0.34  N 
ATOM      7  C   LEU B 200       8.161  34.135 -13.830  1.00 28.22 LIG 0.24  C 
ATOM      8 O    LEU B 200       8.311  35.271 -14.274  1.00 25.98 LIG-0.27  OA
ATOM      9 H    THR B 201       7.420  33.106 -12.351  1.00 29.33 LIG 0.16  HD
BRANCH 7 10
ATOM     10  CA  LEU B 200       8.785  32.941 -14.544  1.00 30.55 LIG 0.18  C 
BRANCH 10 11
ATOM     11  N   LEU B 200       9.886  33.335 -15.402  1.00 35.39 LIG-0.35  N 
ATOM     12 H    LEU B 200      10.666  33.238 -15.054  1.00 35.39 LIG 0.16  HD
ATOM     13  C   ASP B 199       9.667  33.805 -16.623  1.00 42.58 LIG 0.26  C 
ATOM     14 O    ASP B 199       8.535  33.967 -17.081  1.00 44.96 LIG-0.27  OA
BRANCH 13 15
ATOM     15  CA  ASP B 199      10.907  34.157 -17.437  1.00 43.98 LIG 0.41  C 
ATOM     16  N   ASP B 199      11.083  35.604 -17.516  1.00 41.74 LIG 0.61  N 
BRANCH 15 17
ATOM     17  CB  ASP B 199      12.140  33.495 -16.822  1.00 46.67 LIG 0.16  C 
BRANCH 17 18
ATOM     18  CG  ASP B 199      12.807  34.363 -15.767  1.00 50.58 LIG 0.17  C 
ATOM     19 OD2  ASP B 199      12.085  35.112 -15.072  1.00 55.98 LIG-0.65  OA
ATOM     20 OD1  ASP B 199      14.047  34.313 -15.635  1.00 45.33 LIG-0.65  OA
ENDBRANCH 17 18
ENDBRANCH 15 17
ENDBRANCH 13 15
ENDBRANCH 10 11
BRANCH 10 21
ATOM     21  CB  LEU B 200       9.263  31.911 -13.524  1.00 29.00 LIG 0.04  C 
BRANCH 21 22
ATOM     22  CG  LEU B 200      10.237  32.444 -12.476  1.00 29.82 LIG-0.02  C 
ATOM     23  CD1 LEU B 200      10.034  31.714 -11.158  1.00 24.53 LIG 0.01  C 
ATOM     24  CD2 LEU B 200      11.667  32.275 -12.973  1.00 31.40 LIG 0.01  C 
ENDBRANCH 21 22
ENDBRANCH 10 21
ENDBRANCH 7 10
ENDBRANCH 5 6
BRANCH 5 25
ATOM     25  CB  THR B 201       5.318  34.451 -11.616  1.00 29.82 LIG 0.15  C 
ATOM     26  CG2 THR B 201       4.337  35.606 -11.589  1.00 24.76 LIG 0.04  C 
BRANCH 25 27
ATOM     27 OG1  THR B 201       4.855  33.464 -12.545  1.00 30.74 LIG-0.39  OA
ATOM     28 HG1  THR B 201       4.136  33.722 -12.895  1.00 30.74 LIG 0.21  HD
ENDBRANCH 25 27
ENDBRANCH 5 25
ENDBRANCH 1 5
BRANCH 3 29
ATOM     29  CA  ARG B 202       9.384  35.208  -9.299  1.00 35.80 LIG 0.18  C 
BRANCH 29 30
ATOM     30  CB  ARG B 202      10.215  34.011  -8.843  1.00 39.99 LIG 0.04  C 
BRANCH 30 31
ATOM     31  CG  ARG B 202      11.687  34.212  -9.094  1.00 43.12 LIG 0.02  C 
BRANCH 31 32
ATOM     32  CD  ARG B 202      12.505  33.004  -8.706  1.00 49.76 LIG 0.14  C 
BRANCH 32 33
ATOM     33  NE  ARG B 202      13.833  33.406  -8.258  1.00 51.61 LIG-0.23  N 
ATOM     34  CZ  ARG B 202      14.922  32.662  -8.413  1.00 53.48 LIG 0.67  C 
ATOM     35  NH2 ARG B 202      16.093  33.106  -7.980  1.00 55.46 LIG-0.23  N 
ATOM     36  NH1 ARG B 202      14.838  31.476  -9.001  1.00 53.58 LIG-0.23  N 
ATOM     37 2HH2 ARG B 202      16.798  32.625  -8.080  1.00 55.46 LIG 0.17  HD
ATOM     38 1HH2 ARG B 202      16.147  33.875  -7.599  1.00 55.46 LIG 0.17  HD
ATOM     39 2HH1 ARG B 202      15.543  30.995  -9.101  1.00 53.58 LIG 0.17  HD
ATOM     40 1HH1 ARG B 202      14.078  31.189  -9.283  1.00 53.58 LIG 0.17  HD
ATOM     41 HE   ARG B 202      13.915  34.169  -7.871  1.00 51.61 LIG 0.18  HD
ENDBRANCH 32 33
ENDBRANCH 31 32
ENDBRANCH 30 31
ENDBRANCH 29 30
BRANCH 29 42
ATOM     42  C   ARG B 202      10.269  36.400  -9.752  1.00 54.52 LIG 0.24  C 
ATOM     43 O    ARG B 202      10.339  37.383  -9.022  1.00 52.27 LIG-0.27  OA
ATOM     44  N   PRO B 203      10.930  36.326 -10.947  1.00 63.22 LIG-0.34  N 
ATOM     45  CD  PRO B 203      10.401  35.697 -12.165  1.00 67.52 LIG 0.13  C 
ATOM     46  CA  PRO B 203      11.948  37.290 -11.391  1.00 66.04 LIG 0.17  C 
ATOM     47  CG  PRO B 203      10.193  36.918 -13.049  1.00 67.94 LIG 0.02  C 
ATOM     48  CB  PRO B 203      11.234  37.974 -12.568  1.00 64.70 LIG 0.04  C 
BRANCH 46 49
ATOM     49  C   PRO B 203      12.447  38.340 -10.398  1.00 68.17 LIG 0.22  C 
ATOM     50 O    PRO B 203      13.033  37.955  -9.384  1.00 70.96 LIG-0.29  OA
ENDBRANCH 46 49
ENDBRANCH 29 42
ENDBRANCH 3 29
TORSDOF 18
ENDMDL
MODEL 42
USER: ADFR SOLUTION from run 37
USER: SCORE 14.071063 LL:  -4.087 LR: -10.431 RR:   0.000 FEB:  -5.061
USER: RMSD 7.281877
USER: SEED 36
USER: STATUS no improvement in best in 6 clusters for 5 generations
USER: GENES 20
USER: genes 0 Translation |==|  0.32925 0.31631 0.29012
USER: genes 1 Rotation |==|  0.65259 0.94862 0.42983 0.64330
USER: genes 2 Torsion [N]-C--CA-[N] |==|  0.97585
USER: genes 3 Torsion [C]-CA--N-[C] |==|  0.79895
USER: genes 4 Torsion [N]-C--CA-[N] |==|  0.52410
USER: genes 5 Torsion [C]-CA--N-[C] |==|  0.58354
USER: genes 6 Torsion [N]-C--CA-[N] |==|  0.94964
USER: genes 7 Torsion [C]-CA--CB-[CG] |==|  0.68809
USER: genes 8 Torsion [CA]-CB--CG-[OD2] |==|  0.76069
USER: genes 9 Torsion [C]-CA--CB-[CG] |==|  0.90230
USER: genes 10 Torsion [CA]-CB--CG-[CD1] |==|  0.46702
USER: genes 11 Torsion [C]-CA--CB-[CG2] |==|  0.76359
USER: genes 12 Torsion [CA]-CB--OG1-[HG1] |==|  0.65351
USER: genes 13 Torsion [C]-N--CA-[C] |==|  0.82230
USER: genes 14 Torsion [N]-CA--CB-[CG] |==|  0.75804
USER: genes 15 Torsion [CA]-CB--CG-[CD] |==|  0.05087
USER: genes 16 Torsion [CB]-CG--CD-[NE] |==|  0.55487
USER: genes 17 Torsion [CG]-CD--NE-[CZ] |==|  0.27996
USER: genes 18 Torsion [N]-CA--C-[N] |==|  0.39440
USER: genes 19 Torsion [N]-CA--C-[O] |==|  0.19592
ROOT
ATOM      1  C   THR B 201       5.971  34.246 -15.569  1.00 36.45 LIG 0.24  C 
ATOM      2 O    THR B 201       5.824  34.272 -16.794  1.00 40.30 LIG-0.27  OA
ATOM      3  N   ARG B 202       6.129  35.342 -14.834  1.00 33.32 LIG-0.35  N 
ATOM      4 H    ARG B 202       6.178  35.331 -13.976  1.00 33.32 LIG 0.16  HD
ENDROOT
BRANCH 1 5
ATOM      5  CA  THR B 201       5.979  32.918 -14.805  1.00 30.51 LIG 0.20  C 
BRANCH 5 6
ATOM      6  N   THR B 201       6.364  33.067 -13.399  1.00 29.33 LIG-0.34  N 
ATOM      7  C   LEU B 200       7.622  33.328 -13.052  1.00 28.22 LIG 0.24  C 
ATOM      8 O    LEU B 200       8.502  33.572 -13.874  1.00 25.98 LIG-0.27  OA
ATOM      9 H    THR B 201       5.719  32.972 -12.839  1.00 29.33 LIG 0.16  HD
BRANCH 7 10
ATOM     10  CA  LEU B 200       7.941  33.327 -11.560  1.00 30.55 LIG 0.18  C 
BRANCH 10 11
ATOM     11  N   LEU B 200       9.279  33.818 -11.291  1.00 35.39 LIG-0.35  N 
ATOM     12 H    LEU B 200       9.570  34.397 -11.856  1.00 35.39 LIG 0.16  HD
ATOM     13  C   ASP B 199       9.969  33.384 -10.245  1.00 42.58 LIG 0.26  C 
ATOM     14 O    ASP B 199       9.539  32.526  -9.473  1.00 44.96 LIG-0.27  OA
BRANCH 13 15
ATOM     15  CA  ASP B 199      11.351  33.998 -10.053  1.00 43.98 LIG 0.41  C 
ATOM     16  N   ASP B 199      11.815  34.628 -11.287  1.00 41.74 LIG 0.61  N 
BRANCH 15 17
ATOM     17  CB  ASP B 199      11.319  35.010  -8.909  1.00 46.67 LIG 0.16  C 
BRANCH 17 18
ATOM     18  CG  ASP B 199      11.522  36.440  -9.384  1.00 50.58 LIG 0.17  C 
ATOM     19 OD2  ASP B 199      12.692  36.863  -9.510  1.00 55.98 LIG-0.65  OA
ATOM     20 OD1  ASP B 199      10.521  37.149  -9.621  1.00 45.33 LIG-0.65  OA
ENDBRANCH 17 18
ENDBRANCH 15 17
ENDBRANCH 13 15
ENDBRANCH 10 11
BRANCH 10 21
ATOM     21  CB  LEU B 200       6.915  34.168 -10.805  1.00 29.00 LIG 0.04  C 
BRANCH 21 22
ATOM     22  CG  LEU B 200       6.409  35.397 -11.555  1.00 29.82 LIG-0.02  C 
ATOM     23  CD1 LEU B 200       5.199  35.979 -10.843  1.00 24.53 LIG 0.01  C 
ATOM     24  CD2 LEU B 200       7.524  36.429 -11.659  1.00 31.40 LIG 0.01  C 
ENDBRANCH 21 22
ENDBRANCH 10 21
ENDBRANCH 7 10
ENDBRANCH 5 6
BRANCH 5 25
ATOM     25  CB  THR B 201       4.586  32.261 -14.938  1.00 29.82 LIG 0.15  C 
ATOM     26  CG2 THR B 201       3.637  32.795 -13.884  1.00 24.76 LIG 0.04  C 
BRANCH 25 27
ATOM     27 OG1  THR B 201       4.045  32.531 -16.237  1.00 30.74 LIG-0.39  OA
ATOM     28 HG1  THR B 201       3.291  32.892 -16.158  1.00 30.74 LIG 0.21  HD
ENDBRANCH 25 27
ENDBRANCH 5 25
ENDBRANCH 1 5
BRANCH 3 29
ATOM     29  CA  ARG B 202       6.237  36.680 -15.414  1.00 35.80 LIG 0.18  C 
BRANCH 29 30
ATOM     30  CB  ARG B 202       6.237  37.704 -14.280  1.00 39.99 LIG 0.04  C 
BRANCH 30 31
ATOM     31  CG  ARG B 202       4.844  38.113 -13.884  1.00 43.12 LIG 0.02  C 
BRANCH 31 32
ATOM     32  CD  ARG B 202       3.801  37.131 -14.360  1.00 49.76 LIG 0.14  C 
BRANCH 32 33
ATOM     33  NE  ARG B 202       2.482  37.753 -14.384  1.00 51.61 LIG-0.23  N 
ATOM     34  CZ  ARG B 202       1.899  38.209 -15.487  1.00 53.48 LIG 0.67  C 
ATOM     35  NH2 ARG B 202       0.695  38.757 -15.421  1.00 55.46 LIG-0.23  N 
ATOM     36  NH1 ARG B 202       2.523  38.114 -16.655  1.00 53.58 LIG-0.23  N 
ATOM     37 2HH2 ARG B 202       0.317  39.052 -16.134  1.00 55.46 LIG 0.17  HD
ATOM     38 1HH2 ARG B 202       0.292  38.818 -14.664  1.00 55.46 LIG 0.17  HD
ATOM     39 2HH1 ARG B 202       2.145  38.409 -17.368  1.00 53.58 LIG 0.17  HD
ATOM     40 1HH1 ARG B 202       3.304  37.758 -16.697  1.00 53.58 LIG 0.17  HD
ATOM     41 HE   ARG B 202       2.058  37.830 -13.640  1.00 51.61 LIG 0.18  HD
ENDBRANCH 32 33
ENDBRANCH 31 32
ENDBRANCH 30 31
ENDBRANCH 29 30
BRANCH 29 42
ATOM     42  C   ARG B 202       7.520  36.766 -16.283  1.00 54.52 LIG 0.24  C 
ATOM     43 O    ARG B 202       8.532  36.200 -15.884  1.00 52.27 LIG-0.27  OA
ATOM     44  N   PRO B 203       7.489  37.474 -17.454  1.00 63.22 LIG-0.34  N 
ATOM     45  CD  PRO B 203       6.744  38.723 -17.663  1.00 67.52 LIG 0.13  C 
ATOM     46  CA  PRO B 203       8.566  37.463 -18.455  1.00 66.04 LIG 0.17  C 
ATOM     47  CG  PRO B 203       7.888  39.717 -17.799  1.00 67.94 LIG 0.02  C 
ATOM     48  CB  PRO B 203       9.097  38.902 -18.354  1.00 64.70 LIG 0.04  C 
BRANCH 46 49
ATOM     49  C   PRO B 203       9.713  36.467 -18.289  1.00 68.17 LIG 0.22  C 
ATOM     50 O    PRO B 203       9.481  35.271 -18.474  1.00 70.96 LIG-0.29  OA
ENDBRANCH 46 49
ENDBRANCH 29 42
ENDBRANCH 3 29
TORSDOF 18
ENDMDL
MODEL 43
USER: ADFR SOLUTION from run 12
USER: SCORE 14.603245 LL:  -5.115 LR: -10.417 RR:   0.000 FEB:  -5.047
USER: RMSD 7.994827
USER: SEED 128080
USER: STATUS no improvement in best in 5 clusters for 5 generations
USER: GENES 20
USER: genes 0 Translation |==|  0.20615 0.40084 0.40290
USER: genes 1 Rotation |==|  0.37265 0.10858 0.75674 0.62108
USER: genes 2 Torsion [N]-C--CA-[N] |==|  0.91230
USER: genes 3 Torsion [C]-CA--N-[C] |==|  0.66849
USER: genes 4 Torsion [N]-C--CA-[N] |==|  0.95378
USER: genes 5 Torsion [C]-CA--N-[C] |==|  0.71034
USER: genes 6 Torsion [N]-C--CA-[N] |==|  0.64597
USER: genes 7 Torsion [C]-CA--CB-[CG] |==|  0.76535
USER: genes 8 Torsion [CA]-CB--CG-[OD2] |==|  0.32762
USER: genes 9 Torsion [C]-CA--CB-[CG] |==|  0.70053
USER: genes 10 Torsion [CA]-CB--CG-[CD1] |==|  0.28257
USER: genes 11 Torsion [C]-CA--CB-[CG2] |==|  0.73228
USER: genes 12 Torsion [CA]-CB--OG1-[HG1] |==|  0.44234
USER: genes 13 Torsion [C]-N--CA-[C] |==|  0.80353
USER: genes 14 Torsion [N]-CA--CB-[CG] |==|  0.69879
USER: genes 15 Torsion [CA]-CB--CG-[CD] |==|  0.92266
USER: genes 16 Torsion [CB]-CG--CD-[NE] |==|  0.78726
USER: genes 17 Torsion [CG]-CD--NE-[CZ] |==|  0.36845
USER: genes 18 Torsion [N]-CA--C-[N] |==|  0.83889
USER: genes 19 Torsion [N]-CA--C-[O] |==|  0.48382
ROOT
ATOM      1  C   THR B 201       3.847  35.767 -13.455  1.00 36.45 LIG 0.24  C 
ATOM      2 O    THR B 201       2.639  35.707 -13.696  1.00 40.30 LIG-0.27  OA
ATOM      3  N   ARG B 202       4.636  36.723 -13.936  1.00 33.32 LIG-0.35  N 
ATOM      4 H    ARG B 202       5.467  36.798 -13.726  1.00 33.32 LIG 0.16  HD
ENDROOT
BRANCH 1 5
ATOM      5  CA  THR B 201       4.525  34.720 -12.565  1.00 30.51 LIG 0.20  C 
BRANCH 5 6
ATOM      6  N   THR B 201       5.920  34.468 -12.938  1.00 29.33 LIG-0.34  N 
ATOM      7  C   LEU B 200       6.325  33.259 -13.321  1.00 28.22 LIG 0.24  C 
ATOM      8 O    LEU B 200       5.550  32.322 -13.495  1.00 25.98 LIG-0.27  OA
ATOM      9 H    THR B 201       6.434  35.155 -12.887  1.00 29.33 LIG 0.16  HD
BRANCH 7 10
ATOM     10  CA  LEU B 200       7.821  33.073 -13.553  1.00 30.55 LIG 0.18  C 
BRANCH 10 11
ATOM     11  N   LEU B 200       8.511  34.342 -13.689  1.00 35.39 LIG-0.35  N 
ATOM     12 H    LEU B 200       8.633  34.765 -12.951  1.00 35.39 LIG 0.16  HD
ATOM     13  C   ASP B 199       8.907  34.781 -14.876  1.00 42.58 LIG 0.26  C 
ATOM     14 O    ASP B 199       8.685  34.168 -15.921  1.00 44.96 LIG-0.27  OA
BRANCH 13 15
ATOM     15  CA  ASP B 199       9.648  36.114 -14.883  1.00 43.98 LIG 0.41  C 
ATOM     16  N   ASP B 199       9.038  37.042 -15.831  1.00 41.74 LIG 0.61  N 
BRANCH 15 17
ATOM     17  CB  ASP B 199       9.663  36.709 -13.476  1.00 46.67 LIG 0.16  C 
BRANCH 17 18
ATOM     18  CG  ASP B 199       8.402  37.497 -13.158  1.00 50.58 LIG 0.17  C 
ATOM     19 OD2  ASP B 199       7.678  37.102 -12.218  1.00 55.98 LIG-0.65  OA
ATOM     20 OD1  ASP B 199       8.121  38.499 -13.848  1.00 45.33 LIG-0.65  OA
ENDBRANCH 17 18
ENDBRANCH 15 17
ENDBRANCH 13 15
ENDBRANCH 10 11
BRANCH 10 21
ATOM     21  CB  LEU B 200       8.432  32.266 -12.411  1.00 29.00 LIG 0.04  C 
BRANCH 21 22
ATOM     22  CG  LEU B 200       9.312  33.066 -11.453  1.00 29.82 LIG-0.02  C 
ATOM     23  CD1 LEU B 200       8.545  33.376 -10.178  1.00 24.53 LIG 0.01  C 
ATOM     24  CD2 LEU B 200      10.580  32.281 -11.144  1.00 31.40 LIG 0.01  C 
ENDBRANCH 21 22
ENDBRANCH 10 21
ENDBRANCH 7 10
ENDBRANCH 5 6
BRANCH 5 25
ATOM     25  CB  THR B 201       4.412  35.173 -11.092  1.00 29.82 LIG 0.15  C 
ATOM     26  CG2 THR B 201       5.671  35.892 -10.652  1.00 24.76 LIG 0.04  C 
BRANCH 25 27
ATOM     27 OG1  THR B 201       3.291  36.052 -10.941  1.00 30.74 LIG-0.39  OA
ATOM     28 HG1  THR B 201       3.056  36.072 -10.134  1.00 30.74 LIG 0.21  HD
ENDBRANCH 25 27
ENDBRANCH 5 25
ENDBRANCH 1 5
BRANCH 3 29
ATOM     29  CA  ARG B 202       4.169  37.744 -14.872  1.00 35.80 LIG 0.18  C 
BRANCH 29 30
ATOM     30  CB  ARG B 202       5.216  38.854 -14.945  1.00 39.99 LIG 0.04  C 
BRANCH 30 31
ATOM     31  CG  ARG B 202       4.752  40.118 -14.270  1.00 43.12 LIG 0.02  C 
BRANCH 31 32
ATOM     32  CD  ARG B 202       3.250  40.259 -14.288  1.00 49.76 LIG 0.14  C 
BRANCH 32 33
ATOM     33  NE  ARG B 202       2.788  40.677 -15.607  1.00 51.61 LIG-0.23  N 
ATOM     34  CZ  ARG B 202       1.778  40.106 -16.252  1.00 53.48 LIG 0.67  C 
ATOM     35  NH2 ARG B 202       1.420  40.552 -17.447  1.00 55.46 LIG-0.23  N 
ATOM     36  NH1 ARG B 202       1.127  39.090 -15.700  1.00 53.58 LIG-0.23  N 
ATOM     37 2HH2 ARG B 202       0.766  40.183 -17.865  1.00 55.46 LIG 0.17  HD
ATOM     38 1HH2 ARG B 202       1.842  41.210 -17.804  1.00 55.46 LIG 0.17  HD
ATOM     39 2HH1 ARG B 202       0.473  38.721 -16.118  1.00 53.58 LIG 0.17  HD
ATOM     40 1HH1 ARG B 202       1.359  38.801 -14.924  1.00 53.58 LIG 0.17  HD
ATOM     41 HE   ARG B 202       3.195  41.331 -15.988  1.00 51.61 LIG 0.18  HD
ENDBRANCH 32 33
ENDBRANCH 31 32
ENDBRANCH 30 31
ENDBRANCH 29 30
BRANCH 29 42
ATOM     42  C   ARG B 202       3.904  37.095 -16.257  1.00 54.52 LIG 0.24  C 
ATOM     43 O    ARG B 202       2.777  37.180 -16.733  1.00 52.27 LIG-0.27  OA
ATOM     44  N   PRO B 203       4.923  36.441 -16.895  1.00 63.22 LIG-0.34  N 
ATOM     45  CD  PRO B 203       5.950  35.629 -16.229  1.00 67.52 LIG 0.13  C 
ATOM     46  CA  PRO B 203       4.857  35.964 -18.284  1.00 66.04 LIG 0.17  C 
ATOM     47  CG  PRO B 203       5.568  34.237 -16.710  1.00 67.94 LIG 0.02  C 
ATOM     48  CB  PRO B 203       4.868  34.439 -18.089  1.00 64.70 LIG 0.04  C 
BRANCH 46 49
ATOM     49  C   PRO B 203       3.662  36.374 -19.146  1.00 68.17 LIG 0.22  C 
ATOM     50 O    PRO B 203       3.666  36.063 -20.338  1.00 70.96 LIG-0.29  OA
ENDBRANCH 46 49
ENDBRANCH 29 42
ENDBRANCH 3 29
TORSDOF 18
ENDMDL
MODEL 44
USER: ADFR SOLUTION from run 151
USER: SCORE 13.752428 LL:  -3.465 LR: -10.418 RR:   0.000 FEB:  -5.048
USER: RMSD 8.194020
USER: SEED 150
USER: STATUS no improvement in best in 8 clusters for 5 generations
USER: GENES 20
USER: genes 0 Translation |==|  0.41530 0.29027 0.41100
USER: genes 1 Rotation |==|  0.96526 0.68188 0.51610 0.51390
USER: genes 2 Torsion [N]-C--CA-[N] |==|  0.44248
USER: genes 3 Torsion [C]-CA--N-[C] |==|  0.71684
USER: genes 4 Torsion [N]-C--CA-[N] |==|  0.96783
USER: genes 5 Torsion [C]-CA--N-[C] |==|  0.78253
USER: genes 6 Torsion [N]-C--CA-[N] |==|  0.72864
USER: genes 7 Torsion [C]-CA--CB-[CG] |==|  0.65278
USER: genes 8 Torsion [CA]-CB--CG-[OD2] |==|  0.64999
USER: genes 9 Torsion [C]-CA--CB-[CG] |==|  0.48238
USER: genes 10 Torsion [CA]-CB--CG-[CD1] |==|  0.44525
USER: genes 11 Torsion [C]-CA--CB-[CG2] |==|  0.39016
USER: genes 12 Torsion [CA]-CB--OG1-[HG1] |==|  0.44962
USER: genes 13 Torsion [C]-N--CA-[C] |==|  0.83833
USER: genes 14 Torsion [N]-CA--CB-[CG] |==|  0.50076
USER: genes 15 Torsion [CA]-CB--CG-[CD] |==|  0.39750
USER: genes 16 Torsion [CB]-CG--CD-[NE] |==|  0.52346
USER: genes 17 Torsion [CG]-CD--NE-[CZ] |==|  0.31971
USER: genes 18 Torsion [N]-CA--C-[N] |==|  0.38240
USER: genes 19 Torsion [N]-CA--C-[O] |==|  0.75055
ROOT
ATOM      1  C   THR B 201       7.455  33.777 -13.303  1.00 36.45 LIG 0.24  C 
ATOM      2 O    THR B 201       8.159  34.307 -14.165  1.00 40.30 LIG-0.27  OA
ATOM      3  N   ARG B 202       7.955  33.128 -12.256  1.00 33.32 LIG-0.35  N 
ATOM      4 H    ARG B 202       7.467  32.805 -11.625  1.00 33.32 LIG 0.16  HD
ENDROOT
BRANCH 1 5
ATOM      5  CA  THR B 201       5.926  33.836 -13.389  1.00 30.51 LIG 0.20  C 
BRANCH 5 6
ATOM      6  N   THR B 201       5.442  34.925 -14.242  1.00 29.33 LIG-0.34  N 
ATOM      7  C   LEU B 200       4.968  36.054 -13.720  1.00 28.22 LIG 0.24  C 
ATOM      8 O    LEU B 200       5.012  36.299 -12.517  1.00 25.98 LIG-0.27  OA
ATOM      9 H    THR B 201       5.493  34.768 -15.086  1.00 29.33 LIG 0.16  HD
BRANCH 7 10
ATOM     10  CA  LEU B 200       4.364  37.064 -14.690  1.00 30.55 LIG 0.18  C 
BRANCH 10 11
ATOM     11  N   LEU B 200       4.651  36.729 -16.071  1.00 35.39 LIG-0.35  N 
ATOM     12 H    LEU B 200       4.001  36.358 -16.494  1.00 35.39 LIG 0.16  HD
ATOM     13  C   ASP B 199       5.837  36.989 -16.605  1.00 42.58 LIG 0.26  C 
ATOM     14 O    ASP B 199       6.762  37.488 -15.963  1.00 44.96 LIG-0.27  OA
BRANCH 13 15
ATOM     15  CA  ASP B 199       6.005  36.617 -18.075  1.00 43.98 LIG 0.41  C 
ATOM     16  N   ASP B 199       6.667  35.322 -18.210  1.00 41.74 LIG 0.61  N 
BRANCH 15 17
ATOM     17  CB  ASP B 199       4.644  36.603 -18.769  1.00 46.67 LIG 0.16  C 
BRANCH 17 18
ATOM     18  CG  ASP B 199       4.351  35.281 -19.460  1.00 50.58 LIG 0.17  C 
ATOM     19 OD2  ASP B 199       4.041  35.302 -20.672  1.00 55.98 LIG-0.65  OA
ATOM     20 OD1  ASP B 199       4.415  34.223 -18.800  1.00 45.33 LIG-0.65  OA
ENDBRANCH 17 18
ENDBRANCH 15 17
ENDBRANCH 13 15
ENDBRANCH 10 11
BRANCH 10 21
ATOM     21  CB  LEU B 200       2.855  37.154 -14.478  1.00 29.00 LIG 0.04  C 
BRANCH 21 22
ATOM     22  CG  LEU B 200       2.153  38.243 -15.287  1.00 29.82 LIG-0.02  C 
ATOM     23  CD1 LEU B 200       0.667  37.943 -15.384  1.00 24.53 LIG 0.01  C 
ATOM     24  CD2 LEU B 200       2.390  39.599 -14.634  1.00 31.40 LIG 0.01  C 
ENDBRANCH 21 22
ENDBRANCH 10 21
ENDBRANCH 7 10
ENDBRANCH 5 6
BRANCH 5 25
ATOM     25  CB  THR B 201       5.404  32.466 -13.878  1.00 29.82 LIG 0.15  C 
ATOM     26  CG2 THR B 201       4.137  32.079 -13.142  1.00 24.76 LIG 0.04  C 
BRANCH 25 27
ATOM     27 OG1  THR B 201       5.132  32.525 -15.283  1.00 30.74 LIG-0.39  OA
ATOM     28 HG1  THR B 201       5.091  31.745 -15.594  1.00 30.74 LIG 0.21  HD
ENDBRANCH 25 27
ENDBRANCH 5 25
ENDBRANCH 1 5
BRANCH 3 29
ATOM     29  CA  ARG B 202       9.388  32.900 -12.071  1.00 35.80 LIG 0.18  C 
BRANCH 29 30
ATOM     30  CB  ARG B 202       9.596  32.153 -10.755  1.00 39.99 LIG 0.04  C 
BRANCH 30 31
ATOM     31  CG  ARG B 202      11.051  31.880 -10.480  1.00 43.12 LIG 0.02  C 
BRANCH 31 32
ATOM     32  CD  ARG B 202      11.390  32.000  -9.014  1.00 49.76 LIG 0.14  C 
BRANCH 32 33
ATOM     33  NE  ARG B 202      12.832  31.927  -8.812  1.00 51.61 LIG-0.23  N 
ATOM     34  CZ  ARG B 202      13.565  32.930  -8.345  1.00 53.48 LIG 0.67  C 
ATOM     35  NH2 ARG B 202      14.872  32.778  -8.187  1.00 55.46 LIG-0.23  N 
ATOM     36  NH1 ARG B 202      12.990  34.085  -8.034  1.00 53.58 LIG-0.23  N 
ATOM     37 2HH2 ARG B 202      15.347  33.427  -7.884  1.00 55.46 LIG 0.17  HD
ATOM     38 1HH2 ARG B 202      15.244  32.030  -8.388  1.00 55.46 LIG 0.17  HD
ATOM     39 2HH1 ARG B 202      13.465  34.735  -7.732  1.00 53.58 LIG 0.17  HD
ATOM     40 1HH1 ARG B 202      12.141  34.184  -8.136  1.00 53.58 LIG 0.17  HD
ATOM     41 HE   ARG B 202      13.230  31.191  -9.008  1.00 51.61 LIG 0.18  HD
ENDBRANCH 32 33
ENDBRANCH 31 32
ENDBRANCH 30 31
ENDBRANCH 29 30
BRANCH 29 42
ATOM     42  C   ARG B 202       9.948  32.116 -13.287  1.00 54.52 LIG 0.24  C 
ATOM     43 O    ARG B 202       9.292  31.177 -13.726  1.00 52.27 LIG-0.27  OA
ATOM     44  N   PRO B 203      11.153  32.483 -13.822  1.00 63.22 LIG-0.34  N 
ATOM     45  CD  PRO B 203      12.308  32.960 -13.048  1.00 67.52 LIG 0.13  C 
ATOM     46  CA  PRO B 203      11.691  31.957 -15.085  1.00 66.04 LIG 0.17  C 
ATOM     47  CG  PRO B 203      13.270  31.795 -13.228  1.00 67.94 LIG 0.02  C 
ATOM     48  CB  PRO B 203      12.894  31.137 -14.591  1.00 64.70 LIG 0.04  C 
BRANCH 46 49
ATOM     49  C   PRO B 203      10.789  31.089 -15.963  1.00 68.17 LIG 0.22  C 
ATOM     50 O    PRO B 203      10.790  29.871 -15.779  1.00 70.96 LIG-0.29  OA
ENDBRANCH 46 49
ENDBRANCH 29 42
ENDBRANCH 3 29
TORSDOF 18
ENDMDL
MODEL 45
USER: ADFR SOLUTION from run 7
USER: SCORE 13.621239 LL:  -3.831 LR: -10.403 RR:   0.000 FEB:  -5.034
USER: RMSD 8.183846
USER: SEED 178414
USER: STATUS no improvement in best in 8 clusters for 5 generations
USER: GENES 20
USER: genes 0 Translation |==|  0.29503 0.34214 0.39304
USER: genes 1 Rotation |==|  0.55352 0.84037 0.14004 0.54138
USER: genes 2 Torsion [N]-C--CA-[N] |==|  0.84444
USER: genes 3 Torsion [C]-CA--N-[C] |==|  0.82353
USER: genes 4 Torsion [N]-C--CA-[N] |==|  0.12188
USER: genes 5 Torsion [C]-CA--N-[C] |==|  0.16353
USER: genes 6 Torsion [N]-C--CA-[N] |==|  0.82992
USER: genes 7 Torsion [C]-CA--CB-[CG] |==|  0.70820
USER: genes 8 Torsion [CA]-CB--CG-[OD2] |==|  0.35734
USER: genes 9 Torsion [C]-CA--CB-[CG] |==|  0.34247
USER: genes 10 Torsion [CA]-CB--CG-[CD1] |==|  0.64535
USER: genes 11 Torsion [C]-CA--CB-[CG2] |==|  0.21834
USER: genes 12 Torsion [CA]-CB--OG1-[HG1] |==|  0.49422
USER: genes 13 Torsion [C]-N--CA-[C] |==|  0.67042
USER: genes 14 Torsion [N]-CA--CB-[CG] |==|  0.92789
USER: genes 15 Torsion [CA]-CB--CG-[CD] |==|  0.67077
USER: genes 16 Torsion [CB]-CG--CD-[NE] |==|  0.83041
USER: genes 17 Torsion [CG]-CD--NE-[CZ] |==|  0.71649
USER: genes 18 Torsion [N]-CA--C-[N] |==|  0.34592
USER: genes 19 Torsion [N]-CA--C-[O] |==|  0.24458
ROOT
ATOM      1  C   THR B 201       5.380  34.711 -13.640  1.00 36.45 LIG 0.24  C 
ATOM      2 O    THR B 201       4.538  33.833 -13.840  1.00 40.30 LIG-0.27  OA
ATOM      3  N   ARG B 202       5.688  35.640 -14.539  1.00 33.32 LIG-0.35  N 
ATOM      4 H    ARG B 202       6.236  36.284 -14.382  1.00 33.32 LIG 0.16  HD
ENDROOT
BRANCH 1 5
ATOM      5  CA  THR B 201       6.140  34.784 -12.311  1.00 30.51 LIG 0.20  C 
BRANCH 5 6
ATOM      6  N   THR B 201       7.595  34.748 -12.480  1.00 29.33 LIG-0.34  N 
ATOM      7  C   LEU B 200       8.205  33.684 -12.996  1.00 28.22 LIG 0.24  C 
ATOM      8 O    LEU B 200       7.592  32.728 -13.462  1.00 25.98 LIG-0.27  OA
ATOM      9 H    THR B 201       8.003  35.460 -12.220  1.00 29.33 LIG 0.16  HD
BRANCH 7 10
ATOM     10  CA  LEU B 200       9.730  33.696 -12.999  1.00 30.55 LIG 0.18  C 
BRANCH 10 11
ATOM     11  N   LEU B 200      10.272  34.169 -11.740  1.00 35.39 LIG-0.35  N 
ATOM     12 H    LEU B 200      10.775  34.864 -11.803  1.00 35.39 LIG 0.16  HD
ATOM     13  C   ASP B 199       9.991  33.553 -10.600  1.00 42.58 LIG 0.26  C 
ATOM     14 O    ASP B 199       9.295  32.538 -10.545  1.00 44.96 LIG-0.27  OA
BRANCH 13 15
ATOM     15  CA  ASP B 199      10.597  34.165  -9.341  1.00 43.98 LIG 0.41  C 
ATOM     16  N   ASP B 199      12.055  34.154  -9.409  1.00 41.74 LIG 0.61  N 
BRANCH 15 17
ATOM     17  CB  ASP B 199      10.075  35.589  -9.150  1.00 46.67 LIG 0.16  C 
BRANCH 17 18
ATOM     18  CG  ASP B 199      11.110  36.645  -9.504  1.00 50.58 LIG 0.17  C 
ATOM     19 OD2  ASP B 199      10.780  37.557 -10.294  1.00 55.98 LIG-0.65  OA
ATOM     20 OD1  ASP B 199      12.253  36.565  -9.010  1.00 45.33 LIG-0.65  OA
ENDBRANCH 17 18
ENDBRANCH 15 17
ENDBRANCH 13 15
ENDBRANCH 10 11
BRANCH 10 21
ATOM     21  CB  LEU B 200      10.264  32.299 -13.305  1.00 29.00 LIG 0.04  C 
BRANCH 21 22
ATOM     22  CG  LEU B 200      11.197  32.214 -14.510  1.00 29.82 LIG-0.02  C 
ATOM     23  CD1 LEU B 200      10.716  31.134 -15.465  1.00 24.53 LIG 0.01  C 
ATOM     24  CD2 LEU B 200      11.258  33.566 -15.208  1.00 31.40 LIG 0.01  C 
ENDBRANCH 21 22
ENDBRANCH 10 21
ENDBRANCH 7 10
ENDBRANCH 5 6
BRANCH 5 25
ATOM     25  CB  THR B 201       5.693  36.056 -11.555  1.00 29.82 LIG 0.15  C 
ATOM     26  CG2 THR B 201       4.352  35.840 -10.883  1.00 24.76 LIG 0.04  C 
BRANCH 25 27
ATOM     27 OG1  THR B 201       6.668  36.395 -10.561  1.00 30.74 LIG-0.39  OA
ATOM     28 HG1  THR B 201       6.436  37.103 -10.171  1.00 30.74 LIG 0.21  HD
ENDBRANCH 25 27
ENDBRANCH 5 25
ENDBRANCH 1 5
BRANCH 3 29
ATOM     29  CA  ARG B 202       5.125  35.658 -15.889  1.00 35.80 LIG 0.18  C 
BRANCH 29 30
ATOM     30  CB  ARG B 202       4.335  36.953 -16.069  1.00 39.99 LIG 0.04  C 
BRANCH 30 31
ATOM     31  CG  ARG B 202       3.829  37.497 -14.759  1.00 43.12 LIG 0.02  C 
BRANCH 31 32
ATOM     32  CD  ARG B 202       2.323  37.568 -14.711  1.00 49.76 LIG 0.14  C 
BRANCH 32 33
ATOM     33  NE  ARG B 202       1.816  38.454 -15.752  1.00 51.61 LIG-0.23  N 
ATOM     34  CZ  ARG B 202       1.404  39.696 -15.530  1.00 53.48 LIG 0.67  C 
ATOM     35  NH2 ARG B 202       0.962  40.437 -16.536  1.00 55.46 LIG-0.23  N 
ATOM     36  NH1 ARG B 202       1.437  40.197 -14.302  1.00 53.58 LIG-0.23  N 
ATOM     37 2HH2 ARG B 202       0.696  41.241 -16.393  1.00 55.46 LIG 0.17  HD
ATOM     38 1HH2 ARG B 202       0.942  40.112 -17.332  1.00 55.46 LIG 0.17  HD
ATOM     39 2HH1 ARG B 202       1.170  41.002 -14.158  1.00 53.58 LIG 0.17  HD
ATOM     40 1HH1 ARG B 202       1.724  39.717 -13.649  1.00 53.58 LIG 0.17  HD
ATOM     41 HE   ARG B 202       1.782  38.153 -16.557  1.00 51.61 LIG 0.18  HD
ENDBRANCH 32 33
ENDBRANCH 31 32
ENDBRANCH 30 31
ENDBRANCH 29 30
BRANCH 29 42
ATOM     42  C   ARG B 202       6.268  35.518 -16.929  1.00 54.52 LIG 0.24  C 
ATOM     43 O    ARG B 202       7.188  36.329 -16.895  1.00 52.27 LIG-0.27  OA
ATOM     44  N   PRO B 203       6.213  34.510 -17.852  1.00 63.22 LIG-0.34  N 
ATOM     45  CD  PRO B 203       4.984  34.024 -18.496  1.00 67.52 LIG 0.13  C 
ATOM     46  CA  PRO B 203       7.319  34.149 -18.751  1.00 66.04 LIG 0.17  C 
ATOM     47  CG  PRO B 203       5.205  34.500 -19.924  1.00 67.94 LIG 0.02  C 
ATOM     48  CB  PRO B 203       6.751  34.558 -20.120  1.00 64.70 LIG 0.04  C 
BRANCH 46 49
ATOM     49  C   PRO B 203       8.685  34.802 -18.533  1.00 68.17 LIG 0.22  C 
ATOM     50 O    PRO B 203       9.473  34.263 -17.754  1.00 70.96 LIG-0.29  OA
ENDBRANCH 46 49
ENDBRANCH 29 42
ENDBRANCH 3 29
TORSDOF 18
ENDMDL
MODEL 46
USER: ADFR SOLUTION from run 88
USER: SCORE 13.336552 LL:  -4.035 LR: -10.396 RR:   0.000 FEB:  -5.026
USER: RMSD 7.488736
USER: SEED 87
USER: STATUS no improvement in best in 11 clusters for 5 generations
USER: GENES 20
USER: genes 0 Translation |==|  0.36883 0.32628 0.51297
USER: genes 1 Rotation |==|  0.28987 0.23857 0.22597 0.74982
USER: genes 2 Torsion [N]-C--CA-[N] |==|  0.70656
USER: genes 3 Torsion [C]-CA--N-[C] |==|  0.69659
USER: genes 4 Torsion [N]-C--CA-[N] |==|  0.43822
USER: genes 5 Torsion [C]-CA--N-[C] |==|  0.82785
USER: genes 6 Torsion [N]-C--CA-[N] |==|  0.68502
USER: genes 7 Torsion [C]-CA--CB-[CG] |==|  0.76585
USER: genes 8 Torsion [CA]-CB--CG-[OD2] |==|  0.79306
USER: genes 9 Torsion [C]-CA--CB-[CG] |==|  0.53874
USER: genes 10 Torsion [CA]-CB--CG-[CD1] |==|  0.40524
USER: genes 11 Torsion [C]-CA--CB-[CG2] |==|  0.34144
USER: genes 12 Torsion [CA]-CB--OG1-[HG1] |==|  0.97420
USER: genes 13 Torsion [C]-N--CA-[C] |==|  0.83658
USER: genes 14 Torsion [N]-CA--CB-[CG] |==|  0.56199
USER: genes 15 Torsion [CA]-CB--CG-[CD] |==|  0.64081
USER: genes 16 Torsion [CB]-CG--CD-[NE] |==|  0.26796
USER: genes 17 Torsion [CG]-CD--NE-[CZ] |==|  0.45671
USER: genes 18 Torsion [N]-CA--C-[N] |==|  0.85000
USER: genes 19 Torsion [N]-CA--C-[O] |==|  0.76042
ROOT
ATOM      1  C   THR B 201       6.653  34.425 -11.391  1.00 36.45 LIG 0.24  C 
ATOM      2 O    THR B 201       6.495  35.230 -10.469  1.00 40.30 LIG-0.27  OA
ATOM      3  N   ARG B 202       7.599  33.491 -11.384  1.00 33.32 LIG-0.35  N 
ATOM      4 H    ARG B 202       7.678  32.896 -11.999  1.00 33.32 LIG 0.16  HD
ENDROOT
BRANCH 1 5
ATOM      5  CA  THR B 201       5.747  34.455 -12.626  1.00 30.51 LIG 0.20  C 
BRANCH 5 6
ATOM      6  N   THR B 201       6.044  35.572 -13.527  1.00 29.33 LIG-0.34  N 
ATOM      7  C   LEU B 200       5.208  36.600 -13.652  1.00 28.22 LIG 0.24  C 
ATOM      8 O    LEU B 200       4.210  36.734 -12.949  1.00 25.98 LIG-0.27  OA
ATOM      9 H    THR B 201       6.787  35.500 -13.954  1.00 29.33 LIG 0.16  HD
BRANCH 7 10
ATOM     10  CA  LEU B 200       5.544  37.638 -14.717  1.00 30.55 LIG 0.18  C 
BRANCH 10 11
ATOM     11  N   LEU B 200       4.376  38.393 -15.127  1.00 35.39 LIG-0.35  N 
ATOM     12 H    LEU B 200       4.420  39.237 -14.971  1.00 35.39 LIG 0.16  HD
ATOM     13  C   ASP B 199       3.339  37.793 -15.697  1.00 42.58 LIG 0.26  C 
ATOM     14 O    ASP B 199       3.290  36.576 -15.876  1.00 44.96 LIG-0.27  OA
BRANCH 13 15
ATOM     15  CA  ASP B 199       2.185  38.700 -16.110  1.00 43.98 LIG 0.41  C 
ATOM     16  N   ASP B 199       0.994  38.421 -15.313  1.00 41.74 LIG 0.61  N 
BRANCH 15 17
ATOM     17  CB  ASP B 199       2.597  40.165 -15.971  1.00 46.67 LIG 0.16  C 
BRANCH 17 18
ATOM     18  CG  ASP B 199       2.416  40.694 -14.557  1.00 50.58 LIG 0.17  C 
ATOM     19 OD2  ASP B 199       1.255  40.939 -14.160  1.00 55.98 LIG-0.65  OA
ATOM     20 OD1  ASP B 199       3.424  40.880 -13.844  1.00 45.33 LIG-0.65  OA
ENDBRANCH 17 18
ENDBRANCH 15 17
ENDBRANCH 13 15
ENDBRANCH 10 11
BRANCH 10 21
ATOM     21  CB  LEU B 200       6.623  38.586 -14.202  1.00 29.00 LIG 0.04  C 
BRANCH 21 22
ATOM     22  CG  LEU B 200       6.813  39.858 -15.025  1.00 29.82 LIG-0.02  C 
ATOM     23  CD1 LEU B 200       7.188  41.016 -14.115  1.00 24.53 LIG 0.01  C 
ATOM     24  CD2 LEU B 200       7.888  39.630 -16.080  1.00 31.40 LIG 0.01  C 
ENDBRANCH 21 22
ENDBRANCH 10 21
ENDBRANCH 7 10
ENDBRANCH 5 6
BRANCH 5 25
ATOM     25  CB  THR B 201       5.862  33.098 -13.357  1.00 29.82 LIG 0.15  C 
ATOM     26  CG2 THR B 201       4.502  32.444 -13.494  1.00 24.76 LIG 0.04  C 
BRANCH 25 27
ATOM     27 OG1  THR B 201       6.422  33.296 -14.661  1.00 30.74 LIG-0.39  OA
ATOM     28 HG1  THR B 201       6.462  34.119 -14.827  1.00 30.74 LIG 0.21  HD
ENDBRANCH 25 27
ENDBRANCH 5 25
ENDBRANCH 1 5
BRANCH 3 29
ATOM     29  CA  ARG B 202       8.604  33.384 -10.327  1.00 35.80 LIG 0.18  C 
BRANCH 29 30
ATOM     30  CB  ARG B 202       9.495  32.179 -10.622  1.00 39.99 LIG 0.04  C 
BRANCH 30 31
ATOM     31  CG  ARG B 202      10.182  31.663  -9.386  1.00 43.12 LIG 0.02  C 
BRANCH 31 32
ATOM     32  CD  ARG B 202      11.670  31.499  -9.582  1.00 49.76 LIG 0.14  C 
BRANCH 32 33
ATOM     33  NE  ARG B 202      12.386  32.666  -9.083  1.00 51.61 LIG-0.23  N 
ATOM     34  CZ  ARG B 202      13.693  32.687  -8.847  1.00 53.48 LIG 0.67  C 
ATOM     35  NH2 ARG B 202      14.267  33.794  -8.398  1.00 55.46 LIG-0.23  N 
ATOM     36  NH1 ARG B 202      14.424  31.601  -9.064  1.00 53.58 LIG-0.23  N 
ATOM     37 2HH2 ARG B 202      15.112  33.808  -8.245  1.00 55.46 LIG 0.17  HD
ATOM     38 1HH2 ARG B 202      13.793  34.497  -8.258  1.00 55.46 LIG 0.17  HD
ATOM     39 2HH1 ARG B 202      15.270  31.615  -8.911  1.00 53.58 LIG 0.17  HD
ATOM     40 1HH1 ARG B 202      14.052  30.883  -9.356  1.00 53.58 LIG 0.17  HD
ATOM     41 HE   ARG B 202      11.936  33.382  -8.932  1.00 51.61 LIG 0.18  HD
ENDBRANCH 32 33
ENDBRANCH 31 32
ENDBRANCH 30 31
ENDBRANCH 29 30
BRANCH 29 42
ATOM     42  C   ARG B 202       9.412  34.706 -10.244  1.00 54.52 LIG 0.24  C 
ATOM     43 O    ARG B 202       9.477  35.281  -9.163  1.00 52.27 LIG-0.27  OA
ATOM     44  N   PRO B 203      10.013  35.195 -11.372  1.00 63.22 LIG-0.34  N 
ATOM     45  CD  PRO B 203       9.449  35.120 -12.727  1.00 67.52 LIG 0.13  C 
ATOM     46  CA  PRO B 203      10.964  36.317 -11.383  1.00 66.04 LIG 0.17  C 
ATOM     47  CG  PRO B 203       9.143  36.587 -12.988  1.00 67.94 LIG 0.02  C 
ATOM     48  CB  PRO B 203      10.161  37.396 -12.127  1.00 64.70 LIG 0.04  C 
BRANCH 46 49
ATOM     49  C   PRO B 203      11.468  36.865 -10.047  1.00 68.17 LIG 0.22  C 
ATOM     50 O    PRO B 203      10.796  37.727  -9.477  1.00 70.96 LIG-0.29  OA
ENDBRANCH 46 49
ENDBRANCH 29 42
ENDBRANCH 3 29
TORSDOF 18
ENDMDL
MODEL 47
USER: ADFR SOLUTION from run 46
USER: SCORE 14.435316 LL:  -4.583 LR: -10.386 RR:   0.000 FEB:  -5.017
USER: RMSD 7.707677
USER: SEED 45
USER: STATUS no improvement in best in 16 clusters for 5 generations
USER: GENES 20
USER: genes 0 Translation |==|  0.60347 0.36512 0.53992
USER: genes 1 Rotation |==|  0.53774 0.60974 0.98590 0.52080
USER: genes 2 Torsion [N]-C--CA-[N] |==|  0.37994
USER: genes 3 Torsion [C]-CA--N-[C] |==|  0.75198
USER: genes 4 Torsion [N]-C--CA-[N] |==|  0.03500
USER: genes 5 Torsion [C]-CA--N-[C] |==|  0.17269
USER: genes 6 Torsion [N]-C--CA-[N] |==|  0.88285
USER: genes 7 Torsion [C]-CA--CB-[CG] |==|  0.82320
USER: genes 8 Torsion [CA]-CB--CG-[OD2] |==|  0.77868
USER: genes 9 Torsion [C]-CA--CB-[CG] |==|  0.42232
USER: genes 10 Torsion [CA]-CB--CG-[CD1] |==|  0.37517
USER: genes 11 Torsion [C]-CA--CB-[CG2] |==|  0.46683
USER: genes 12 Torsion [CA]-CB--OG1-[HG1] |==|  0.92911
USER: genes 13 Torsion [C]-N--CA-[C] |==|  0.16357
USER: genes 14 Torsion [N]-CA--CB-[CG] |==|  0.77801
USER: genes 15 Torsion [CA]-CB--CG-[CD] |==|  0.17799
USER: genes 16 Torsion [CB]-CG--CD-[NE] |==|  0.35435
USER: genes 17 Torsion [CG]-CD--NE-[CZ] |==|  0.73215
USER: genes 18 Torsion [N]-CA--C-[N] |==|  0.13889
USER: genes 19 Torsion [N]-CA--C-[O] |==|  0.23539
ROOT
ATOM      1  C   THR B 201      10.701  35.124 -10.886  1.00 36.45 LIG 0.24  C 
ATOM      2 O    THR B 201      10.019  35.579  -9.964  1.00 40.30 LIG-0.27  OA
ATOM      3  N   ARG B 202      10.527  33.904 -11.382  1.00 33.32 LIG-0.35  N 
ATOM      4 H    ARG B 202      10.965  33.604 -12.060  1.00 33.32 LIG 0.16  HD
ENDROOT
BRANCH 1 5
ATOM      5  CA  THR B 201      11.814  35.959 -11.527  1.00 30.51 LIG 0.20  C 
BRANCH 5 6
ATOM      6  N   THR B 201      11.421  37.349 -11.770  1.00 29.33 LIG-0.34  N 
ATOM      7  C   LEU B 200      10.843  37.715 -12.912  1.00 28.22 LIG 0.24  C 
ATOM      8 O    LEU B 200      10.503  36.907 -13.773  1.00 25.98 LIG-0.27  OA
ATOM      9 H    THR B 201      11.594  37.889 -11.124  1.00 29.33 LIG 0.16  HD
BRANCH 7 10
ATOM     10  CA  LEU B 200      10.601  39.206 -13.118  1.00 30.55 LIG 0.18  C 
BRANCH 10 11
ATOM     11  N   LEU B 200      11.311  40.011 -12.143  1.00 35.39 LIG-0.35  N 
ATOM     12 H    LEU B 200      10.807  40.483 -11.631  1.00 35.39 LIG 0.16  HD
ATOM     13  C   ASP B 199      12.636  39.994 -12.078  1.00 42.58 LIG 0.26  C 
ATOM     14 O    ASP B 199      13.332  39.335 -12.850  1.00 44.96 LIG-0.27  OA
BRANCH 13 15
ATOM     15  CA  ASP B 199      13.263  40.860 -10.991  1.00 43.98 LIG 0.41  C 
ATOM     16  N   ASP B 199      12.594  42.155 -10.908  1.00 41.74 LIG 0.61  N 
BRANCH 15 17
ATOM     17  CB  ASP B 199      13.205  40.135  -9.647  1.00 46.67 LIG 0.16  C 
BRANCH 17 18
ATOM     18  CG  ASP B 199      11.781  39.892  -9.172  1.00 50.58 LIG 0.17  C 
ATOM     19 OD2  ASP B 199      11.166  40.839  -8.634  1.00 55.98 LIG-0.65  OA
ATOM     20 OD1  ASP B 199      11.276  38.760  -9.321  1.00 45.33 LIG-0.65  OA
ENDBRANCH 17 18
ENDBRANCH 15 17
ENDBRANCH 13 15
ENDBRANCH 10 11
BRANCH 10 21
ATOM     21  CB  LEU B 200      11.012  39.614 -14.530  1.00 29.00 LIG 0.04  C 
BRANCH 21 22
ATOM     22  CG  LEU B 200      10.259  40.813 -15.102  1.00 29.82 LIG-0.02  C 
ATOM     23  CD1 LEU B 200      11.233  41.769 -15.770  1.00 24.53 LIG 0.01  C 
ATOM     24  CD2 LEU B 200       9.206  40.332 -16.092  1.00 31.40 LIG 0.01  C 
ENDBRANCH 21 22
ENDBRANCH 10 21
ENDBRANCH 7 10
ENDBRANCH 5 6
BRANCH 5 25
ATOM     25  CB  THR B 201      13.071  35.880 -10.631  1.00 29.82 LIG 0.15  C 
ATOM     26  CG2 THR B 201      14.282  36.438 -11.353  1.00 24.76 LIG 0.04  C 
BRANCH 25 27
ATOM     27 OG1  THR B 201      12.856  36.626  -9.428  1.00 30.74 LIG-0.39  OA
ATOM     28 HG1  THR B 201      12.282  37.224  -9.567  1.00 30.74 LIG 0.21  HD
ENDBRANCH 25 27
ENDBRANCH 5 25
ENDBRANCH 1 5
BRANCH 3 29
ATOM     29  CA  ARG B 202       9.572  32.946 -10.825  1.00 35.80 LIG 0.18  C 
BRANCH 29 30
ATOM     30  CB  ARG B 202      10.007  32.596  -9.403  1.00 39.99 LIG 0.04  C 
BRANCH 30 31
ATOM     31  CG  ARG B 202      11.117  31.579  -9.382  1.00 43.12 LIG 0.02  C 
BRANCH 31 32
ATOM     32  CD  ARG B 202      12.384  32.099 -10.016  1.00 49.76 LIG 0.14  C 
BRANCH 32 33
ATOM     33  NE  ARG B 202      13.517  31.927  -9.115  1.00 51.61 LIG-0.23  N 
ATOM     34  CZ  ARG B 202      13.976  32.880  -8.312  1.00 53.48 LIG 0.67  C 
ATOM     35  NH2 ARG B 202      15.010  32.637  -7.520  1.00 55.46 LIG-0.23  N 
ATOM     36  NH1 ARG B 202      13.398  34.075  -8.302  1.00 53.58 LIG-0.23  N 
ATOM     37 2HH2 ARG B 202      15.307  33.254  -7.000  1.00 55.46 LIG 0.17  HD
ATOM     38 1HH2 ARG B 202      15.384  31.863  -7.527  1.00 55.46 LIG 0.17  HD
ATOM     39 2HH1 ARG B 202      13.695  34.691  -7.782  1.00 53.58 LIG 0.17  HD
ATOM     40 1HH1 ARG B 202      12.726  34.231  -8.816  1.00 53.58 LIG 0.17  HD
ATOM     41 HE   ARG B 202      13.912  31.163  -9.104  1.00 51.61 LIG 0.18  HD
ENDBRANCH 32 33
ENDBRANCH 31 32
ENDBRANCH 30 31
ENDBRANCH 29 30
BRANCH 29 42
ATOM     42  C   ARG B 202       8.145  33.551 -10.872  1.00 54.52 LIG 0.24  C 
ATOM     43 O    ARG B 202       7.464  33.515  -9.852  1.00 52.27 LIG-0.27  OA
ATOM     44  N   PRO B 203       7.685  34.093 -12.041  1.00 63.22 LIG-0.34  N 
ATOM     45  CD  PRO B 203       7.972  33.566 -13.383  1.00 67.52 LIG 0.13  C 
ATOM     46  CA  PRO B 203       6.443  34.870 -12.161  1.00 66.04 LIG 0.17  C 
ATOM     47  CG  PRO B 203       6.598  33.054 -13.788  1.00 67.94 LIG 0.02  C 
ATOM     48  CB  PRO B 203       5.570  33.930 -13.009  1.00 64.70 LIG 0.04  C 
BRANCH 46 49
ATOM     49  C   PRO B 203       5.700  35.268 -10.885  1.00 68.17 LIG 0.22  C 
ATOM     50 O    PRO B 203       6.054  36.292 -10.297  1.00 70.96 LIG-0.29  OA
ENDBRANCH 46 49
ENDBRANCH 29 42
ENDBRANCH 3 29
TORSDOF 18
ENDMDL
MODEL 48
USER: ADFR SOLUTION from run 68
USER: SCORE 13.445416 LL:  -4.486 LR: -10.386 RR:   0.000 FEB:  -5.016
USER: RMSD 7.534879
USER: SEED 67
USER: STATUS no improvement in best in 10 clusters for 5 generations
USER: GENES 20
USER: genes 0 Translation |==|  0.32039 0.32133 0.31429
USER: genes 1 Rotation |==|  0.64302 0.96246 0.43342 0.60604
USER: genes 2 Torsion [N]-C--CA-[N] |==|  0.99199
USER: genes 3 Torsion [C]-CA--N-[C] |==|  0.75477
USER: genes 4 Torsion [N]-C--CA-[N] |==|  0.51638
USER: genes 5 Torsion [C]-CA--N-[C] |==|  0.56907
USER: genes 6 Torsion [N]-C--CA-[N] |==|  0.95189
USER: genes 7 Torsion [C]-CA--CB-[CG] |==|  0.77014
USER: genes 8 Torsion [CA]-CB--CG-[OD2] |==|  0.60006
USER: genes 9 Torsion [C]-CA--CB-[CG] |==|  0.93129
USER: genes 10 Torsion [CA]-CB--CG-[CD1] |==|  0.44754
USER: genes 11 Torsion [C]-CA--CB-[CG2] |==|  0.66245
USER: genes 12 Torsion [CA]-CB--OG1-[HG1] |==|  0.20344
USER: genes 13 Torsion [C]-N--CA-[C] |==|  0.20861
USER: genes 14 Torsion [N]-CA--CB-[CG] |==|  0.42516
USER: genes 15 Torsion [CA]-CB--CG-[CD] |==|  0.71093
USER: genes 16 Torsion [CB]-CG--CD-[NE] |==|  0.42494
USER: genes 17 Torsion [CG]-CD--NE-[CZ] |==|  0.67613
USER: genes 18 Torsion [N]-CA--C-[N] |==|  0.35915
USER: genes 19 Torsion [N]-CA--C-[O] |==|  0.79781
ROOT
ATOM      1  C   THR B 201       5.818  34.336 -15.116  1.00 36.45 LIG 0.24  C 
ATOM      2 O    THR B 201       5.487  34.420 -16.301  1.00 40.30 LIG-0.27  OA
ATOM      3  N   ARG B 202       6.053  35.397 -14.351  1.00 33.32 LIG-0.35  N 
ATOM      4 H    ARG B 202       6.231  35.343 -13.512  1.00 33.32 LIG 0.16  HD
ENDROOT
BRANCH 1 5
ATOM      5  CA  THR B 201       5.981  32.971 -14.440  1.00 30.51 LIG 0.20  C 
BRANCH 5 6
ATOM      6  N   THR B 201       6.443  33.070 -13.052  1.00 29.33 LIG-0.34  N 
ATOM      7  C   LEU B 200       7.740  33.104 -12.756  1.00 28.22 LIG 0.24  C 
ATOM      8 O    LEU B 200       8.616  33.170 -13.614  1.00 25.98 LIG-0.27  OA
ATOM      9 H    THR B 201       5.813  33.103 -12.467  1.00 29.33 LIG 0.16  HD
BRANCH 7 10
ATOM     10  CA  LEU B 200       8.112  33.068 -11.277  1.00 30.55 LIG 0.18  C 
BRANCH 10 11
ATOM     11  N   LEU B 200       9.536  33.248 -11.071  1.00 35.39 LIG-0.35  N 
ATOM     12 H    LEU B 200       9.940  33.671 -11.701  1.00 35.39 LIG 0.16  HD
ATOM     13  C   ASP B 199      10.133  32.782  -9.983  1.00 42.58 LIG 0.26  C 
ATOM     14 O    ASP B 199       9.534  32.148  -9.114  1.00 44.96 LIG-0.27  OA
BRANCH 13 15
ATOM     15  CA  ASP B 199      11.628  33.061  -9.869  1.00 43.98 LIG 0.41  C 
ATOM     16  N   ASP B 199      12.187  33.433 -11.165  1.00 41.74 LIG 0.61  N 
BRANCH 15 17
ATOM     17  CB  ASP B 199      11.877  34.160  -8.837  1.00 46.67 LIG 0.16  C 
BRANCH 17 18
ATOM     18  CG  ASP B 199      11.695  35.556  -9.412  1.00 50.58 LIG 0.17  C 
ATOM     19 OD2  ASP B 199      12.451  36.467  -9.009  1.00 55.98 LIG-0.65  OA
ATOM     20 OD1  ASP B 199      10.794  35.754 -10.254  1.00 45.33 LIG-0.65  OA
ENDBRANCH 17 18
ENDBRANCH 15 17
ENDBRANCH 13 15
ENDBRANCH 10 11
BRANCH 10 21
ATOM     21  CB  LEU B 200       7.335  34.140 -10.516  1.00 29.00 LIG 0.04  C 
BRANCH 21 22
ATOM     22  CG  LEU B 200       6.873  35.326 -11.360  1.00 29.82 LIG-0.02  C 
ATOM     23  CD1 LEU B 200       5.753  36.066 -10.648  1.00 24.53 LIG 0.01  C 
ATOM     24  CD2 LEU B 200       8.051  36.254 -11.627  1.00 31.40 LIG 0.01  C 
ENDBRANCH 21 22
ENDBRANCH 10 21
ENDBRANCH 7 10
ENDBRANCH 5 6
BRANCH 5 25
ATOM     25  CB  THR B 201       4.640  32.209 -14.532  1.00 29.82 LIG 0.15  C 
ATOM     26  CG2 THR B 201       4.129  31.851 -13.151  1.00 24.76 LIG 0.04  C 
BRANCH 25 27
ATOM     27 OG1  THR B 201       3.666  33.021 -15.198  1.00 30.74 LIG-0.39  OA
ATOM     28 HG1  THR B 201       3.842  33.054 -16.019  1.00 30.74 LIG 0.21  HD
ENDBRANCH 25 27
ENDBRANCH 5 25
ENDBRANCH 1 5
BRANCH 3 29
ATOM     29  CA  ARG B 202       6.031  36.767 -14.863  1.00 35.80 LIG 0.18  C 
BRANCH 29 30
ATOM     30  CB  ARG B 202       6.857  36.820 -16.147  1.00 39.99 LIG 0.04  C 
BRANCH 30 31
ATOM     31  CG  ARG B 202       6.402  37.920 -17.070  1.00 43.12 LIG 0.02  C 
BRANCH 31 32
ATOM     32  CD  ARG B 202       5.601  37.395 -18.237  1.00 49.76 LIG 0.14  C 
BRANCH 32 33
ATOM     33  NE  ARG B 202       4.676  38.411 -18.723  1.00 51.61 LIG-0.23  N 
ATOM     34  CZ  ARG B 202       3.355  38.283 -18.694  1.00 53.48 LIG 0.67  C 
ATOM     35  NH2 ARG B 202       2.585  39.259 -19.153  1.00 55.46 LIG-0.23  N 
ATOM     36  NH1 ARG B 202       2.805  37.179 -18.204  1.00 53.58 LIG-0.23  N 
ATOM     37 2HH2 ARG B 202       1.729  39.177 -19.134  1.00 55.46 LIG 0.17  HD
ATOM     38 1HH2 ARG B 202       2.941  39.974 -19.469  1.00 55.46 LIG 0.17  HD
ATOM     39 2HH1 ARG B 202       1.950  37.096 -18.185  1.00 53.58 LIG 0.17  HD
ATOM     40 1HH1 ARG B 202       3.305  36.546 -17.905  1.00 53.58 LIG 0.17  HD
ATOM     41 HE   ARG B 202       5.005  39.136 -19.048  1.00 51.61 LIG 0.18  HD
ENDBRANCH 32 33
ENDBRANCH 31 32
ENDBRANCH 30 31
ENDBRANCH 29 30
BRANCH 29 42
ATOM     42  C   ARG B 202       4.562  37.213 -15.089  1.00 54.52 LIG 0.24  C 
ATOM     43 O    ARG B 202       3.828  36.484 -15.747  1.00 52.27 LIG-0.27  OA
ATOM     44  N   PRO B 203       4.136  38.402 -14.563  1.00 63.22 LIG-0.34  N 
ATOM     45  CD  PRO B 203       4.947  39.624 -14.476  1.00 67.52 LIG 0.13  C 
ATOM     46  CA  PRO B 203       2.731  38.837 -14.534  1.00 66.04 LIG 0.17  C 
ATOM     47  CG  PRO B 203       4.234  40.511 -15.485  1.00 67.94 LIG 0.02  C 
ATOM     48  CB  PRO B 203       2.753  40.022 -15.513  1.00 64.70 LIG 0.04  C 
BRANCH 46 49
ATOM     49  C   PRO B 203       1.645  37.840 -14.941  1.00 68.17 LIG 0.22  C 
ATOM     50 O    PRO B 203       1.532  37.552 -16.134  1.00 70.96 LIG-0.29  OA
ENDBRANCH 46 49
ENDBRANCH 29 42
ENDBRANCH 3 29
TORSDOF 18
ENDMDL
MODEL 49
USER: ADFR SOLUTION from run 135
USER: SCORE 15.206232 LL:  -5.504 LR: -10.357 RR:   0.000 FEB:  -4.988
USER: RMSD 7.424802
USER: SEED 134
USER: STATUS no improvement in best in 7 clusters for 5 generations
USER: GENES 20
USER: genes 0 Translation |==|  0.39304 0.40325 0.51150
USER: genes 1 Rotation |==|  0.39873 0.43221 0.88476 0.79514
USER: genes 2 Torsion [N]-C--CA-[N] |==|  0.03493
USER: genes 3 Torsion [C]-CA--N-[C] |==|  0.70437
USER: genes 4 Torsion [N]-C--CA-[N] |==|  0.92404
USER: genes 5 Torsion [C]-CA--N-[C] |==|  0.82652
USER: genes 6 Torsion [N]-C--CA-[N] |==|  0.37920
USER: genes 7 Torsion [C]-CA--CB-[CG] |==|  0.10465
USER: genes 8 Torsion [CA]-CB--CG-[OD2] |==|  0.62678
USER: genes 9 Torsion [C]-CA--CB-[CG] |==|  0.97854
USER: genes 10 Torsion [CA]-CB--CG-[CD1] |==|  0.27852
USER: genes 11 Torsion [C]-CA--CB-[CG2] |==|  0.44578
USER: genes 12 Torsion [CA]-CB--OG1-[HG1] |==|  0.89612
USER: genes 13 Torsion [C]-N--CA-[C] |==|  0.58163
USER: genes 14 Torsion [N]-CA--CB-[CG] |==|  0.56651
USER: genes 15 Torsion [CA]-CB--CG-[CD] |==|  0.98858
USER: genes 16 Torsion [CB]-CG--CD-[NE] |==|  0.51725
USER: genes 17 Torsion [CG]-CD--NE-[CZ] |==|  0.22745
USER: genes 18 Torsion [N]-CA--C-[N] |==|  0.07527
USER: genes 19 Torsion [N]-CA--C-[O] |==|  0.53813
ROOT
ATOM      1  C   THR B 201       7.071  35.811 -11.418  1.00 36.45 LIG 0.24  C 
ATOM      2 O    THR B 201       6.441  36.643 -10.762  1.00 40.30 LIG-0.27  OA
ATOM      3  N   ARG B 202       6.781  35.512 -12.681  1.00 33.32 LIG-0.35  N 
ATOM      4 H    ARG B 202       7.251  34.972 -13.157  1.00 33.32 LIG 0.16  HD
ENDROOT
BRANCH 1 5
ATOM      5  CA  THR B 201       8.252  35.053 -10.803  1.00 30.51 LIG 0.20  C 
BRANCH 5 6
ATOM      6  N   THR B 201       9.053  34.334 -11.798  1.00 29.33 LIG-0.34  N 
ATOM      7  C   LEU B 200       8.994  33.009 -11.906  1.00 28.22 LIG 0.24  C 
ATOM      8 O    LEU B 200       8.195  32.326 -11.271  1.00 25.98 LIG-0.27  OA
ATOM      9 H    THR B 201       9.549  34.837 -12.289  1.00 29.33 LIG 0.16  HD
BRANCH 7 10
ATOM     10  CA  LEU B 200       9.969  32.351 -12.876  1.00 30.55 LIG 0.18  C 
BRANCH 10 11
ATOM     11  N   LEU B 200      10.348  33.244 -13.954  1.00 35.39 LIG-0.35  N 
ATOM     12 H    LEU B 200      11.185  33.438 -13.983  1.00 35.39 LIG 0.16  HD
ATOM     13  C   ASP B 199       9.445  33.705 -14.809  1.00 42.58 LIG 0.26  C 
ATOM     14 O    ASP B 199       8.247  33.439 -14.720  1.00 44.96 LIG-0.27  OA
BRANCH 13 15
ATOM     15  CA  ASP B 199       9.974  34.612 -15.915  1.00 43.98 LIG 0.41  C 
ATOM     16  N   ASP B 199       9.374  34.267 -17.201  1.00 41.74 LIG 0.61  N 
BRANCH 15 17
ATOM     17  CB  ASP B 199       9.701  36.074 -15.566  1.00 46.67 LIG 0.16  C 
BRANCH 17 18
ATOM     18  CG  ASP B 199       9.872  36.366 -14.084  1.00 50.58 LIG 0.17  C 
ATOM     19 OD2  ASP B 199       8.994  37.046 -13.508  1.00 55.98 LIG-0.65  OA
ATOM     20 OD1  ASP B 199      10.882  35.931 -13.492  1.00 45.33 LIG-0.65  OA
ENDBRANCH 17 18
ENDBRANCH 15 17
ENDBRANCH 13 15
ENDBRANCH 10 11
BRANCH 10 21
ATOM     21  CB  LEU B 200      11.213  31.877 -12.129  1.00 29.00 LIG 0.04  C 
BRANCH 21 22
ATOM     22  CG  LEU B 200      11.296  32.316 -10.669  1.00 29.82 LIG-0.02  C 
ATOM     23  CD1 LEU B 200      10.869  31.177  -9.759  1.00 24.53 LIG 0.01  C 
ATOM     24  CD2 LEU B 200      12.717  32.762 -10.348  1.00 31.40 LIG 0.01  C 
ENDBRANCH 21 22
ENDBRANCH 10 21
ENDBRANCH 7 10
ENDBRANCH 5 6
BRANCH 5 25
ATOM     25  CB  THR B 201       9.117  36.052 -10.001  1.00 29.82 LIG 0.15  C 
ATOM     26  CG2 THR B 201       9.995  35.323  -9.003  1.00 24.76 LIG 0.04  C 
BRANCH 25 27
ATOM     27 OG1  THR B 201       9.947  36.801 -10.897  1.00 30.74 LIG-0.39  OA
ATOM     28 HG1  THR B 201      10.211  36.302 -11.519  1.00 30.74 LIG 0.21  HD
ENDBRANCH 25 27
ENDBRANCH 5 25
ENDBRANCH 1 5
BRANCH 3 29
ATOM     29  CA  ARG B 202       5.631  36.074 -13.388  1.00 35.80 LIG 0.18  C 
BRANCH 29 30
ATOM     30  CB  ARG B 202       6.041  37.413 -13.999  1.00 39.99 LIG 0.04  C 
BRANCH 30 31
ATOM     31  CG  ARG B 202       4.860  38.317 -14.232  1.00 43.12 LIG 0.02  C 
BRANCH 31 32
ATOM     32  CD  ARG B 202       3.550  37.646 -13.898  1.00 49.76 LIG 0.14  C 
BRANCH 32 33
ATOM     33  NE  ARG B 202       2.427  38.497 -14.273  1.00 51.61 LIG-0.23  N 
ATOM     34  CZ  ARG B 202       1.939  38.578 -15.505  1.00 53.48 LIG 0.67  C 
ATOM     35  NH2 ARG B 202       0.910  39.374 -15.759  1.00 55.46 LIG-0.23  N 
ATOM     36  NH1 ARG B 202       2.480  37.861 -16.482  1.00 53.58 LIG-0.23  N 
ATOM     37 2HH2 ARG B 202       0.594  39.427 -16.556  1.00 55.46 LIG 0.17  HD
ATOM     38 1HH2 ARG B 202       0.560  39.838 -15.126  1.00 55.46 LIG 0.17  HD
ATOM     39 2HH1 ARG B 202       2.164  37.913 -17.279  1.00 53.58 LIG 0.17  HD
ATOM     40 1HH1 ARG B 202       3.146  37.343 -16.317  1.00 53.58 LIG 0.17  HD
ATOM     41 HE   ARG B 202       2.059  38.975 -13.660  1.00 51.61 LIG 0.18  HD
ENDBRANCH 32 33
ENDBRANCH 31 32
ENDBRANCH 30 31
ENDBRANCH 29 30
BRANCH 29 42
ATOM     42  C   ARG B 202       5.138  35.065 -14.459  1.00 54.52 LIG 0.24  C 
ATOM     43 O    ARG B 202       4.552  35.502 -15.443  1.00 52.27 LIG-0.27  OA
ATOM     44  N   PRO B 203       5.358  33.728 -14.270  1.00 63.22 LIG-0.34  N 
ATOM     45  CD  PRO B 203       5.301  33.040 -12.973  1.00 67.52 LIG 0.13  C 
ATOM     46  CA  PRO B 203       5.123  32.698 -15.293  1.00 66.04 LIG 0.17  C 
ATOM     47  CG  PRO B 203       4.053  32.189 -13.157  1.00 67.94 LIG 0.02  C 
ATOM     48  CB  PRO B 203       3.938  31.927 -14.690  1.00 64.70 LIG 0.04  C 
BRANCH 46 49
ATOM     49  C   PRO B 203       4.791  33.142 -16.718  1.00 68.17 LIG 0.22  C 
ATOM     50 O    PRO B 203       4.346  32.302 -17.504  1.00 70.96 LIG-0.29  OA
ENDBRANCH 46 49
ENDBRANCH 29 42
ENDBRANCH 3 29
TORSDOF 18
ENDMDL
MODEL 50
USER: ADFR SOLUTION from run 17
USER: SCORE 14.196155 LL:  -4.288 LR: -10.359 RR:   0.000 FEB:  -4.990
USER: RMSD 6.569454
USER: SEED 16
USER: STATUS no improvement in best in 29 clusters for 5 generations
USER: GENES 20
USER: genes 0 Translation |==|  0.46290 0.42080 0.49036
USER: genes 1 Rotation |==|  0.43571 0.26538 0.13414 0.73867
USER: genes 2 Torsion [N]-C--CA-[N] |==|  0.37521
USER: genes 3 Torsion [C]-CA--N-[C] |==|  0.67907
USER: genes 4 Torsion [N]-C--CA-[N] |==|  0.42428
USER: genes 5 Torsion [C]-CA--N-[C] |==|  0.62227
USER: genes 6 Torsion [N]-C--CA-[N] |==|  0.58369
USER: genes 7 Torsion [C]-CA--CB-[CG] |==|  0.48982
USER: genes 8 Torsion [CA]-CB--CG-[OD2] |==|  0.57413
USER: genes 9 Torsion [C]-CA--CB-[CG] |==|  0.97618
USER: genes 10 Torsion [CA]-CB--CG-[CD1] |==|  0.31007
USER: genes 11 Torsion [C]-CA--CB-[CG2] |==|  0.25050
USER: genes 12 Torsion [CA]-CB--OG1-[HG1] |==|  0.88257
USER: genes 13 Torsion [C]-N--CA-[C] |==|  0.65683
USER: genes 14 Torsion [N]-CA--CB-[CG] |==|  0.24454
USER: genes 15 Torsion [CA]-CB--CG-[CD] |==|  0.74558
USER: genes 16 Torsion [CB]-CG--CD-[NE] |==|  0.89505
USER: genes 17 Torsion [CG]-CD--NE-[CZ] |==|  0.33268
USER: genes 18 Torsion [N]-CA--C-[N] |==|  0.47735
USER: genes 19 Torsion [N]-CA--C-[O] |==|  0.19747
ROOT
ATOM      1  C   THR B 201       8.276  36.126 -11.815  1.00 36.45 LIG 0.24  C 
ATOM      2 O    THR B 201       7.630  36.367 -10.792  1.00 40.30 LIG-0.27  OA
ATOM      3  N   ARG B 202       9.279  35.255 -11.851  1.00 33.32 LIG-0.35  N 
ATOM      4 H    ARG B 202       9.696  35.046 -12.573  1.00 33.32 LIG 0.16  HD
ENDROOT
BRANCH 1 5
ATOM      5  CA  THR B 201       7.954  36.834 -13.134  1.00 30.51 LIG 0.20  C 
BRANCH 5 6
ATOM      6  N   THR B 201       6.517  36.886 -13.422  1.00 29.33 LIG-0.34  N 
ATOM      7  C   LEU B 200       5.999  36.254 -14.472  1.00 28.22 LIG 0.24  C 
ATOM      8 O    LEU B 200       6.659  35.506 -15.189  1.00 25.98 LIG-0.27  OA
ATOM      9 H    THR B 201       6.057  37.350 -12.863  1.00 29.33 LIG 0.16  HD
BRANCH 7 10
ATOM     10  CA  LEU B 200       4.519  36.485 -14.757  1.00 30.55 LIG 0.18  C 
BRANCH 10 11
ATOM     11  N   LEU B 200       4.204  36.317 -16.162  1.00 35.39 LIG-0.35  N 
ATOM     12 H    LEU B 200       4.565  35.631 -16.532  1.00 35.39 LIG 0.16  HD
ATOM     13  C   ASP B 199       3.416  37.177 -16.794  1.00 42.58 LIG 0.26  C 
ATOM     14 O    ASP B 199       2.942  38.172 -16.245  1.00 44.96 LIG-0.27  OA
BRANCH 13 15
ATOM     15  CA  ASP B 199       3.136  36.874 -18.262  1.00 43.98 LIG 0.41  C 
ATOM     16  N   ASP B 199       2.913  38.107 -19.013  1.00 41.74 LIG 0.61  N 
BRANCH 15 17
ATOM     17  CB  ASP B 199       4.295  36.078 -18.860  1.00 46.67 LIG 0.16  C 
BRANCH 17 18
ATOM     18  CG  ASP B 199       4.041  35.666 -20.302  1.00 50.58 LIG 0.17  C 
ATOM     19 OD2  ASP B 199       4.611  34.640 -20.734  1.00 55.98 LIG-0.65  OA
ATOM     20 OD1  ASP B 199       3.285  36.364 -21.009  1.00 45.33 LIG-0.65  OA
ENDBRANCH 17 18
ENDBRANCH 15 17
ENDBRANCH 13 15
ENDBRANCH 10 11
BRANCH 10 21
ATOM     21  CB  LEU B 200       3.669  35.538 -13.915  1.00 29.00 LIG 0.04  C 
BRANCH 21 22
ATOM     22  CG  LEU B 200       4.451  34.464 -13.161  1.00 29.82 LIG-0.02  C 
ATOM     23  CD1 LEU B 200       4.388  34.727 -11.666  1.00 24.53 LIG 0.01  C 
ATOM     24  CD2 LEU B 200       3.885  33.090 -13.494  1.00 31.40 LIG 0.01  C 
ENDBRANCH 21 22
ENDBRANCH 10 21
ENDBRANCH 7 10
ENDBRANCH 5 6
BRANCH 5 25
ATOM     25  CB  THR B 201       8.570  38.251 -13.100  1.00 29.82 LIG 0.15  C 
ATOM     26  CG2 THR B 201       9.979  38.239 -13.656  1.00 24.76 LIG 0.04  C 
BRANCH 25 27
ATOM     27 OG1  THR B 201       7.766  39.148 -13.876  1.00 30.74 LIG-0.39  OA
ATOM     28 HG1  THR B 201       7.531  38.770 -14.588  1.00 30.74 LIG 0.21  HD
ENDBRANCH 25 27
ENDBRANCH 5 25
ENDBRANCH 1 5
BRANCH 3 29
ATOM     29  CA  ARG B 202       9.775  34.563 -10.661  1.00 35.80 LIG 0.18  C 
BRANCH 29 30
ATOM     30  CB  ARG B 202       9.470  33.072 -10.803  1.00 39.99 LIG 0.04  C 
BRANCH 30 31
ATOM     31  CG  ARG B 202      10.567  32.334 -11.523  1.00 43.12 LIG 0.02  C 
BRANCH 31 32
ATOM     32  CD  ARG B 202      10.330  32.265 -13.012  1.00 49.76 LIG 0.14  C 
BRANCH 32 33
ATOM     33  NE  ARG B 202       8.913  32.076 -13.299  1.00 51.61 LIG-0.23  N 
ATOM     34  CZ  ARG B 202       8.180  32.929 -14.005  1.00 53.48 LIG 0.67  C 
ATOM     35  NH2 ARG B 202       6.898  32.677 -14.224  1.00 55.46 LIG-0.23  N 
ATOM     36  NH1 ARG B 202       8.733  34.032 -14.494  1.00 53.58 LIG-0.23  N 
ATOM     37 2HH2 ARG B 202       6.424  33.229 -14.681  1.00 55.46 LIG 0.17  HD
ATOM     38 1HH2 ARG B 202       6.541  31.962 -13.908  1.00 55.46 LIG 0.17  HD
ATOM     39 2HH1 ARG B 202       8.259  34.584 -14.951  1.00 53.58 LIG 0.17  HD
ATOM     40 1HH1 ARG B 202       9.566  34.194 -14.352  1.00 53.58 LIG 0.17  HD
ATOM     41 HE   ARG B 202       8.529  31.370 -12.992  1.00 51.61 LIG 0.18  HD
ENDBRANCH 32 33
ENDBRANCH 31 32
ENDBRANCH 30 31
ENDBRANCH 29 30
BRANCH 29 42
ATOM     42  C   ARG B 202      11.293  34.839 -10.497  1.00 54.52 LIG 0.24  C 
ATOM     43 O    ARG B 202      11.881  35.413 -11.407  1.00 52.27 LIG-0.27  OA
ATOM     44  N   PRO B 203      11.928  34.427  -9.358  1.00 63.22 LIG-0.34  N 
ATOM     45  CD  PRO B 203      11.638  33.181  -8.635  1.00 67.52 LIG 0.13  C 
ATOM     46  CA  PRO B 203      13.303  34.802  -8.995  1.00 66.04 LIG 0.17  C 
ATOM     47  CG  PRO B 203      12.911  32.393  -8.903  1.00 67.94 LIG 0.02  C 
ATOM     48  CB  PRO B 203      14.034  33.454  -9.114  1.00 64.70 LIG 0.04  C 
BRANCH 46 49
ATOM     49  C   PRO B 203      14.020  35.863  -9.832  1.00 68.17 LIG 0.22  C 
ATOM     50 O    PRO B 203      13.646  37.033  -9.737  1.00 70.96 LIG-0.29  OA
ENDBRANCH 46 49
ENDBRANCH 29 42
ENDBRANCH 3 29
TORSDOF 18
ENDMDL
MODEL 51
USER: ADFR SOLUTION from run 176
USER: SCORE 13.041144 LL:  -3.984 LR: -10.346 RR:   0.000 FEB:  -4.976
USER: RMSD 6.148722
USER: SEED 175
USER: STATUS no improvement in best in 20 clusters for 5 generations
USER: GENES 20
USER: genes 0 Translation |==|  0.36088 0.40150 0.52695
USER: genes 1 Rotation |==|  0.24457 0.32021 0.20021 0.75011
USER: genes 2 Torsion [N]-C--CA-[N] |==|  0.87290
USER: genes 3 Torsion [C]-CA--N-[C] |==|  0.44442
USER: genes 4 Torsion [N]-C--CA-[N] |==|  0.92027
USER: genes 5 Torsion [C]-CA--N-[C] |==|  0.83186
USER: genes 6 Torsion [N]-C--CA-[N] |==|  0.42818
USER: genes 7 Torsion [C]-CA--CB-[CG] |==|  0.83730
USER: genes 8 Torsion [CA]-CB--CG-[OD2] |==|  0.78114
USER: genes 9 Torsion [C]-CA--CB-[CG] |==|  0.96131
USER: genes 10 Torsion [CA]-CB--CG-[CD1] |==|  0.41388
USER: genes 11 Torsion [C]-CA--CB-[CG2] |==|  0.83924
USER: genes 12 Torsion [CA]-CB--OG1-[HG1] |==|  0.16525
USER: genes 13 Torsion [C]-N--CA-[C] |==|  0.82933
USER: genes 14 Torsion [N]-CA--CB-[CG] |==|  0.51766
USER: genes 15 Torsion [CA]-CB--CG-[CD] |==|  0.64053
USER: genes 16 Torsion [CB]-CG--CD-[NE] |==|  0.45299
USER: genes 17 Torsion [CG]-CD--NE-[CZ] |==|  0.68058
USER: genes 18 Torsion [N]-CA--C-[N] |==|  0.37878
USER: genes 19 Torsion [N]-CA--C-[O] |==|  0.34592
ROOT
ATOM      1  C   THR B 201       6.516  35.779 -11.129  1.00 36.45 LIG 0.24  C 
ATOM      2 O    THR B 201       6.784  36.427 -10.114  1.00 40.30 LIG-0.27  OA
ATOM      3  N   ARG B 202       7.129  34.643 -11.447  1.00 33.32 LIG-0.35  N 
ATOM      4 H    ARG B 202       6.908  34.162 -12.125  1.00 33.32 LIG 0.16  HD
ENDROOT
BRANCH 1 5
ATOM      5  CA  THR B 201       5.436  36.256 -12.105  1.00 30.51 LIG 0.20  C 
BRANCH 5 6
ATOM      6  N   THR B 201       5.856  36.180 -13.507  1.00 29.33 LIG-0.34  N 
ATOM      7  C   LEU B 200       4.965  36.167 -14.495  1.00 28.22 LIG 0.24  C 
ATOM      8 O    LEU B 200       3.762  36.331 -14.308  1.00 25.98 LIG-0.27  OA
ATOM      9 H    THR B 201       6.707  36.146 -13.624  1.00 29.33 LIG 0.16  HD
BRANCH 7 10
ATOM     10  CA  LEU B 200       5.502  35.947 -15.906  1.00 30.55 LIG 0.18  C 
BRANCH 10 11
ATOM     11  N   LEU B 200       6.860  36.433 -16.052  1.00 35.39 LIG-0.35  N 
ATOM     12 H    LEU B 200       7.435  35.833 -16.270  1.00 35.39 LIG 0.16  HD
ATOM     13  C   ASP B 199       7.153  37.712 -15.856  1.00 42.58 LIG 0.26  C 
ATOM     14 O    ASP B 199       6.313  38.542 -15.508  1.00 44.96 LIG-0.27  OA
BRANCH 13 15
ATOM     15  CA  ASP B 199       8.611  38.104 -16.069  1.00 43.98 LIG 0.41  C 
ATOM     16  N   ASP B 199       8.722  39.515 -16.429  1.00 41.74 LIG 0.61  N 
BRANCH 15 17
ATOM     17  CB  ASP B 199       9.423  37.801 -14.811  1.00 46.67 LIG 0.16  C 
BRANCH 17 18
ATOM     18  CG  ASP B 199       8.897  38.530 -13.584  1.00 50.58 LIG 0.17  C 
ATOM     19 OD2  ASP B 199       9.187  39.738 -13.443  1.00 55.98 LIG-0.65  OA
ATOM     20 OD1  ASP B 199       8.207  37.902 -12.754  1.00 45.33 LIG-0.65  OA
ENDBRANCH 17 18
ENDBRANCH 15 17
ENDBRANCH 13 15
ENDBRANCH 10 11
BRANCH 10 21
ATOM     21  CB  LEU B 200       5.436  34.465 -16.266  1.00 29.00 LIG 0.04  C 
BRANCH 21 22
ATOM     22  CG  LEU B 200       5.191  33.524 -15.088  1.00 29.82 LIG-0.02  C 
ATOM     23  CD1 LEU B 200       4.416  32.302 -15.552  1.00 24.53 LIG 0.01  C 
ATOM     24  CD2 LEU B 200       6.523  33.119 -14.470  1.00 31.40 LIG 0.01  C 
ENDBRANCH 21 22
ENDBRANCH 10 21
ENDBRANCH 7 10
ENDBRANCH 5 6
BRANCH 5 25
ATOM     25  CB  THR B 201       4.149  35.435 -11.859  1.00 29.82 LIG 0.15  C 
ATOM     26  CG2 THR B 201       4.416  33.953 -12.029  1.00 24.76 LIG 0.04  C 
BRANCH 25 27
ATOM     27 OG1  THR B 201       3.666  35.677 -10.532  1.00 30.74 LIG-0.39  OA
ATOM     28 HG1  THR B 201       3.503  36.496 -10.438  1.00 30.74 LIG 0.21  HD
ENDBRANCH 25 27
ENDBRANCH 5 25
ENDBRANCH 1 5
BRANCH 3 29
ATOM     29  CA  ARG B 202       8.245  34.097 -10.675  1.00 35.80 LIG 0.18  C 
BRANCH 29 30
ATOM     30  CB  ARG B 202       8.625  32.739 -11.262  1.00 39.99 LIG 0.04  C 
BRANCH 30 31
ATOM     31  CG  ARG B 202       9.666  32.033 -10.434  1.00 43.12 LIG 0.02  C 
BRANCH 31 32
ATOM     32  CD  ARG B 202      10.830  31.552 -11.265  1.00 49.76 LIG 0.14  C 
BRANCH 32 33
ATOM     33  NE  ARG B 202      11.974  31.243 -10.416  1.00 51.61 LIG-0.23  N 
ATOM     34  CZ  ARG B 202      13.124  31.906 -10.454  1.00 53.48 LIG 0.67  C 
ATOM     35  NH2 ARG B 202      14.114  31.562  -9.642  1.00 55.46 LIG-0.23  N 
ATOM     36  NH1 ARG B 202      13.282  32.913 -11.303  1.00 53.58 LIG-0.23  N 
ATOM     37 2HH2 ARG B 202      14.858  31.991  -9.666  1.00 55.46 LIG 0.17  HD
ATOM     38 1HH2 ARG B 202      14.011  30.910  -9.092  1.00 55.46 LIG 0.17  HD
ATOM     39 2HH1 ARG B 202      14.027  33.342 -11.328  1.00 53.58 LIG 0.17  HD
ATOM     40 1HH1 ARG B 202      12.640  33.136 -11.829  1.00 53.58 LIG 0.17  HD
ATOM     41 HE   ARG B 202      11.900  30.593  -9.858  1.00 51.61 LIG 0.18  HD
ENDBRANCH 32 33
ENDBRANCH 31 32
ENDBRANCH 30 31
ENDBRANCH 29 30
BRANCH 29 42
ATOM     42  C   ARG B 202       9.429  35.100 -10.696  1.00 54.52 LIG 0.24  C 
ATOM     43 O    ARG B 202       9.724  35.628 -11.763  1.00 52.27 LIG-0.27  OA
ATOM     44  N   PRO B 203      10.112  35.354  -9.538  1.00 63.22 LIG-0.34  N 
ATOM     45  CD  PRO B 203      10.412  34.356  -8.501  1.00 67.52 LIG 0.13  C 
ATOM     46  CA  PRO B 203      11.111  36.421  -9.384  1.00 66.04 LIG 0.17  C 
ATOM     47  CG  PRO B 203      11.921  34.237  -8.650  1.00 67.94 LIG 0.02  C 
ATOM     48  CB  PRO B 203      12.405  35.611  -9.206  1.00 64.70 LIG 0.04  C 
BRANCH 46 49
ATOM     49  C   PRO B 203      11.280  37.438 -10.514  1.00 68.17 LIG 0.22  C 
ATOM     50 O    PRO B 203      11.166  38.635 -10.245  1.00 70.96 LIG-0.29  OA
ENDBRANCH 46 49
ENDBRANCH 29 42
ENDBRANCH 3 29
TORSDOF 18
ENDMDL
MODEL 52
USER: ADFR SOLUTION from run 190
USER: SCORE 13.592790 LL:  -4.217 LR: -10.338 RR:   0.000 FEB:  -4.969
USER: RMSD 7.657846
USER: SEED 189
USER: STATUS no improvement in best in 8 clusters for 5 generations
USER: GENES 20
USER: genes 0 Translation |==|  0.53617 0.29842 0.31110
USER: genes 1 Rotation |==|  0.42839 0.74571 0.76255 0.83995
USER: genes 2 Torsion [N]-C--CA-[N] |==|  0.82241
USER: genes 3 Torsion [C]-CA--N-[C] |==|  0.74818
USER: genes 4 Torsion [N]-C--CA-[N] |==|  0.44693
USER: genes 5 Torsion [C]-CA--N-[C] |==|  0.79137
USER: genes 6 Torsion [N]-C--CA-[N] |==|  0.58093
USER: genes 7 Torsion [C]-CA--CB-[CG] |==|  0.81244
USER: genes 8 Torsion [CA]-CB--CG-[OD2] |==|  0.94205
USER: genes 9 Torsion [C]-CA--CB-[CG] |==|  0.92180
USER: genes 10 Torsion [CA]-CB--CG-[CD1] |==|  0.42882
USER: genes 11 Torsion [C]-CA--CB-[CG2] |==|  0.32985
USER: genes 12 Torsion [CA]-CB--OG1-[HG1] |==|  0.14933
USER: genes 13 Torsion [C]-N--CA-[C] |==|  0.58466
USER: genes 14 Torsion [N]-CA--CB-[CG] |==|  0.56162
USER: genes 15 Torsion [CA]-CB--CG-[CD] |==|  0.79699
USER: genes 16 Torsion [CB]-CG--CD-[NE] |==|  0.44001
USER: genes 17 Torsion [CG]-CD--NE-[CZ] |==|  0.41970
USER: genes 18 Torsion [N]-CA--C-[N] |==|  0.28333
USER: genes 19 Torsion [N]-CA--C-[O] |==|  0.16382
ROOT
ATOM      1  C   THR B 201       9.540  33.924 -15.176  1.00 36.45 LIG 0.24  C 
ATOM      2 O    THR B 201       9.959  35.056 -15.429  1.00 40.30 LIG-0.27  OA
ATOM      3  N   ARG B 202       8.269  33.569 -15.332  1.00 33.32 LIG-0.35  N 
ATOM      4 H    ARG B 202       7.984  32.766 -15.207  1.00 33.32 LIG 0.16  HD
ENDROOT
BRANCH 1 5
ATOM      5  CA  THR B 201      10.482  32.834 -14.654  1.00 30.51 LIG 0.20  C 
BRANCH 5 6
ATOM      6  N   THR B 201      10.147  32.387 -13.300  1.00 29.33 LIG-0.34  N 
ATOM      7  C   LEU B 200      10.683  32.966 -12.228  1.00 28.22 LIG 0.24  C 
ATOM      8 O    LEU B 200      11.389  33.969 -12.297  1.00 25.98 LIG-0.27  OA
ATOM      9 H    THR B 201       9.589  31.734 -13.266  1.00 29.33 LIG 0.16  HD
BRANCH 7 10
ATOM     10  CA  LEU B 200      10.374  32.334 -10.874  1.00 30.55 LIG 0.18  C 
BRANCH 10 11
ATOM     11  N   LEU B 200      11.323  32.741  -9.856  1.00 35.39 LIG-0.35  N 
ATOM     12 H    LEU B 200      11.023  33.318  -9.294  1.00 35.39 LIG 0.16  HD
ATOM     13  C   ASP B 199      12.551  32.239  -9.827  1.00 42.58 LIG 0.26  C 
ATOM     14 O    ASP B 199      12.964  31.441 -10.669  1.00 44.96 LIG-0.27  OA
BRANCH 13 15
ATOM     15  CA  ASP B 199      13.444  32.723  -8.690  1.00 43.98 LIG 0.41  C 
ATOM     16  N   ASP B 199      14.849  32.702  -9.089  1.00 41.74 LIG 0.61  N 
BRANCH 15 17
ATOM     17  CB  ASP B 199      13.025  34.128  -8.259  1.00 46.67 LIG 0.16  C 
BRANCH 17 18
ATOM     18  CG  ASP B 199      13.298  35.175  -9.327  1.00 50.58 LIG 0.17  C 
ATOM     19 OD2  ASP B 199      14.145  34.915 -10.210  1.00 55.98 LIG-0.65  OA
ATOM     20 OD1  ASP B 199      12.683  36.261  -9.284  1.00 45.33 LIG-0.65  OA
ENDBRANCH 17 18
ENDBRANCH 15 17
ENDBRANCH 13 15
ENDBRANCH 10 11
BRANCH 10 21
ATOM     21  CB  LEU B 200       8.956  32.696 -10.439  1.00 29.00 LIG 0.04  C 
BRANCH 21 22
ATOM     22  CG  LEU B 200       8.433  34.024 -10.980  1.00 29.82 LIG-0.02  C 
ATOM     23  CD1 LEU B 200       6.915  33.999 -11.042  1.00 24.53 LIG 0.01  C 
ATOM     24  CD2 LEU B 200       8.920  35.165 -10.095  1.00 31.40 LIG 0.01  C 
ENDBRANCH 21 22
ENDBRANCH 10 21
ENDBRANCH 7 10
ENDBRANCH 5 6
BRANCH 5 25
ATOM     25  CB  THR B 201      10.477  31.654 -15.653  1.00 29.82 LIG 0.15  C 
ATOM     26  CG2 THR B 201      11.861  31.428 -16.225  1.00 24.76 LIG 0.04  C 
BRANCH 25 27
ATOM     27 OG1  THR B 201      10.041  30.462 -14.990  1.00 30.74 LIG-0.39  OA
ATOM     28 HG1  THR B 201       9.302  30.602 -14.616  1.00 30.74 LIG 0.21  HD
ENDBRANCH 25 27
ENDBRANCH 5 25
ENDBRANCH 1 5
BRANCH 3 29
ATOM     29  CA  ARG B 202       7.223  34.510 -15.732  1.00 35.80 LIG 0.18  C 
BRANCH 29 30
ATOM     30  CB  ARG B 202       7.172  34.561 -17.258  1.00 39.99 LIG 0.04  C 
BRANCH 30 31
ATOM     31  CG  ARG B 202       6.545  35.834 -17.763  1.00 43.12 LIG 0.02  C 
BRANCH 31 32
ATOM     32  CD  ARG B 202       5.051  35.860 -17.552  1.00 49.76 LIG 0.14  C 
BRANCH 32 33
ATOM     33  NE  ARG B 202       4.555  37.231 -17.563  1.00 51.61 LIG-0.23  N 
ATOM     34  CZ  ARG B 202       3.331  37.572 -17.948  1.00 53.48 LIG 0.67  C 
ATOM     35  NH2 ARG B 202       2.958  38.843 -17.922  1.00 55.46 LIG-0.23  N 
ATOM     36  NH1 ARG B 202       2.480  36.639 -18.359  1.00 53.58 LIG-0.23  N 
ATOM     37 2HH2 ARG B 202       2.166  39.064 -18.171  1.00 55.46 LIG 0.17  HD
ATOM     38 1HH2 ARG B 202       3.509  39.447 -17.655  1.00 55.46 LIG 0.17  HD
ATOM     39 2HH1 ARG B 202       1.688  36.860 -18.608  1.00 53.58 LIG 0.17  HD
ATOM     40 1HH1 ARG B 202       2.722  35.814 -18.375  1.00 53.58 LIG 0.17  HD
ATOM     41 HE   ARG B 202       5.086  37.855 -17.304  1.00 51.61 LIG 0.18  HD
ENDBRANCH 32 33
ENDBRANCH 31 32
ENDBRANCH 30 31
ENDBRANCH 29 30
BRANCH 29 42
ATOM     42  C   ARG B 202       5.868  34.072 -15.113  1.00 54.52 LIG 0.24  C 
ATOM     43 O    ARG B 202       5.256  33.153 -15.646  1.00 52.27 LIG-0.27  OA
ATOM     44  N   PRO B 203       5.395  34.727 -14.009  1.00 63.22 LIG-0.34  N 
ATOM     45  CD  PRO B 203       5.537  36.168 -13.758  1.00 67.52 LIG 0.13  C 
ATOM     46  CA  PRO B 203       4.239  34.283 -13.216  1.00 66.04 LIG 0.17  C 
ATOM     47  CG  PRO B 203       4.092  36.623 -13.898  1.00 67.94 LIG 0.02  C 
ATOM     48  CB  PRO B 203       3.217  35.392 -13.511  1.00 64.70 LIG 0.04  C 
BRANCH 46 49
ATOM     49  C   PRO B 203       3.628  32.913 -13.514  1.00 68.17 LIG 0.22  C 
ATOM     50 O    PRO B 203       4.346  31.917 -13.412  1.00 70.96 LIG-0.29  OA
ENDBRANCH 46 49
ENDBRANCH 29 42
ENDBRANCH 3 29
TORSDOF 18
ENDMDL
MODEL 53
USER: ADFR SOLUTION from run 200
USER: SCORE 13.954149 LL:  -4.913 LR: -10.316 RR:   0.000 FEB:  -4.946
USER: RMSD 6.223983
USER: SEED 199
USER: STATUS searching
USER: GENES 20
USER: genes 0 Translation |==|  0.43488 0.36276 0.52488
USER: genes 1 Rotation |==|  0.29929 0.17012 0.24669 0.69164
USER: genes 2 Torsion [N]-C--CA-[N] |==|  0.86752
USER: genes 3 Torsion [C]-CA--N-[C] |==|  0.19192
USER: genes 4 Torsion [N]-C--CA-[N] |==|  0.29089
USER: genes 5 Torsion [C]-CA--N-[C] |==|  0.65002
USER: genes 6 Torsion [N]-C--CA-[N] |==|  0.62056
USER: genes 7 Torsion [C]-CA--CB-[CG] |==|  0.59215
USER: genes 8 Torsion [CA]-CB--CG-[OD2] |==|  0.25171
USER: genes 9 Torsion [C]-CA--CB-[CG] |==|  0.52118
USER: genes 10 Torsion [CA]-CB--CG-[CD1] |==|  0.28898
USER: genes 11 Torsion [C]-CA--CB-[CG2] |==|  0.25300
USER: genes 12 Torsion [CA]-CB--OG1-[HG1] |==|  0.38083
USER: genes 13 Torsion [C]-N--CA-[C] |==|  0.84433
USER: genes 14 Torsion [N]-CA--CB-[CG] |==|  0.39474
USER: genes 15 Torsion [CA]-CB--CG-[CD] |==|  0.54961
USER: genes 16 Torsion [CB]-CG--CD-[NE] |==|  0.47857
USER: genes 17 Torsion [CG]-CD--NE-[CZ] |==|  0.48498
USER: genes 18 Torsion [N]-CA--C-[N] |==|  0.85000
USER: genes 19 Torsion [N]-CA--C-[O] |==|  0.78427
ROOT
ATOM      1  C   THR B 201       7.793  35.082 -11.168  1.00 36.45 LIG 0.24  C 
ATOM      2 O    THR B 201       7.400  36.084 -10.565  1.00 40.30 LIG-0.27  OA
ATOM      3  N   ARG B 202       8.721  34.262 -10.685  1.00 33.32 LIG-0.35  N 
ATOM      4 H    ARG B 202       8.958  33.535 -11.078  1.00 33.32 LIG 0.16  HD
ENDROOT
BRANCH 1 5
ATOM      5  CA  THR B 201       7.219  34.713 -12.540  1.00 30.51 LIG 0.20  C 
BRANCH 5 6
ATOM      6  N   THR B 201       8.254  34.390 -13.526  1.00 29.33 LIG-0.34  N 
ATOM      7  C   LEU B 200       8.988  33.285 -13.420  1.00 28.22 LIG 0.24  C 
ATOM      8 O    LEU B 200       8.772  32.422 -12.573  1.00 25.98 LIG-0.27  OA
ATOM      9 H    THR B 201       8.339  34.967 -14.158  1.00 29.33 LIG 0.16  HD
BRANCH 7 10
ATOM     10  CA  LEU B 200      10.128  33.114 -14.419  1.00 30.55 LIG 0.18  C 
BRANCH 10 11
ATOM     11  N   LEU B 200      11.422  33.368 -13.815  1.00 35.39 LIG-0.35  N 
ATOM     12 H    LEU B 200      11.584  32.907 -13.108  1.00 35.39 LIG 0.16  HD
ATOM     13  C   ASP B 199      12.262  34.248 -14.343  1.00 42.58 LIG 0.26  C 
ATOM     14 O    ASP B 199      11.986  34.918 -15.338  1.00 44.96 LIG-0.27  OA
BRANCH 13 15
ATOM     15  CA  ASP B 199      13.602  34.402 -13.632  1.00 43.98 LIG 0.41  C 
ATOM     16  N   ASP B 199      13.968  35.810 -13.513  1.00 41.74 LIG 0.61  N 
BRANCH 15 17
ATOM     17  CB  ASP B 199      13.543  33.740 -12.256  1.00 46.67 LIG 0.16  C 
BRANCH 17 18
ATOM     18  CG  ASP B 199      14.395  34.458 -11.222  1.00 50.58 LIG 0.17  C 
ATOM     19 OD2  ASP B 199      13.865  35.365 -10.543  1.00 55.98 LIG-0.65  OA
ATOM     20 OD1  ASP B 199      15.594  34.133 -11.091  1.00 45.33 LIG-0.65  OA
ENDBRANCH 17 18
ENDBRANCH 15 17
ENDBRANCH 13 15
ENDBRANCH 10 11
BRANCH 10 21
ATOM     21  CB  LEU B 200      10.096  31.709 -15.015  1.00 29.00 LIG 0.04  C 
BRANCH 21 22
ATOM     22  CG  LEU B 200      11.293  31.352 -15.893  1.00 29.82 LIG-0.02  C 
ATOM     23  CD1 LEU B 200      12.236  30.431 -15.138  1.00 24.53 LIG 0.01  C 
ATOM     24  CD2 LEU B 200      10.808  30.695 -17.179  1.00 31.40 LIG 0.01  C 
ENDBRANCH 21 22
ENDBRANCH 10 21
ENDBRANCH 7 10
ENDBRANCH 5 6
BRANCH 5 25
ATOM     25  CB  THR B 201       6.227  33.542 -12.364  1.00 29.82 LIG 0.15  C 
ATOM     26  CG2 THR B 201       4.820  34.058 -12.135  1.00 24.76 LIG 0.04  C 
BRANCH 25 27
ATOM     27 OG1  THR B 201       6.240  32.716 -13.534  1.00 30.74 LIG-0.39  OA
ATOM     28 HG1  THR B 201       6.237  31.907 -13.307  1.00 30.74 LIG 0.21  HD
ENDBRANCH 25 27
ENDBRANCH 5 25
ENDBRANCH 1 5
BRANCH 3 29
ATOM     29  CA  ARG B 202       9.436  34.517  -9.434  1.00 35.80 LIG 0.18  C 
BRANCH 29 30
ATOM     30  CB  ARG B 202      10.440  33.388  -9.208  1.00 39.99 LIG 0.04  C 
BRANCH 30 31
ATOM     31  CG  ARG B 202      11.731  33.886  -8.616  1.00 43.12 LIG 0.02  C 
BRANCH 31 32
ATOM     32  CD  ARG B 202      12.859  32.897  -8.784  1.00 49.76 LIG 0.14  C 
BRANCH 32 33
ATOM     33  NE  ARG B 202      14.125  33.485  -8.365  1.00 51.61 LIG-0.23  N 
ATOM     34  CZ  ARG B 202      15.269  32.813  -8.305  1.00 53.48 LIG 0.67  C 
ATOM     35  NH2 ARG B 202      16.377  33.427  -7.917  1.00 55.46 LIG-0.23  N 
ATOM     36  NH1 ARG B 202      15.302  31.528  -8.635  1.00 53.58 LIG-0.23  N 
ATOM     37 2HH2 ARG B 202      17.118  32.993  -7.879  1.00 55.46 LIG 0.17  HD
ATOM     38 1HH2 ARG B 202      16.355  34.259  -7.704  1.00 55.46 LIG 0.17  HD
ATOM     39 2HH1 ARG B 202      16.043  31.094  -8.597  1.00 53.58 LIG 0.17  HD
ATOM     40 1HH1 ARG B 202      14.583  31.131  -8.888  1.00 53.58 LIG 0.17  HD
ATOM     41 HE   ARG B 202      14.131  34.316  -8.143  1.00 51.61 LIG 0.18  HD
ENDBRANCH 32 33
ENDBRANCH 31 32
ENDBRANCH 30 31
ENDBRANCH 29 30
BRANCH 29 42
ATOM     42  C   ARG B 202      10.121  35.908  -9.504  1.00 54.52 LIG 0.24  C 
ATOM     43 O    ARG B 202       9.881  36.719  -8.615  1.00 52.27 LIG-0.27  OA
ATOM     44  N   PRO B 203      10.955  36.191 -10.550  1.00 63.22 LIG-0.34  N 
ATOM     45  CD  PRO B 203      10.751  35.743 -11.935  1.00 67.52 LIG 0.13  C 
ATOM     46  CA  PRO B 203      11.813  37.383 -10.625  1.00 66.04 LIG 0.17  C 
ATOM     47  CG  PRO B 203      10.437  37.066 -12.618  1.00 67.94 LIG 0.02  C 
ATOM     48  CB  PRO B 203      11.161  38.162 -11.779  1.00 64.70 LIG 0.04  C 
BRANCH 46 49
ATOM     49  C   PRO B 203      11.937  38.277  -9.391  1.00 68.17 LIG 0.22  C 
ATOM     50 O    PRO B 203      11.014  39.053  -9.136  1.00 70.96 LIG-0.29  OA
ENDBRANCH 46 49
ENDBRANCH 29 42
ENDBRANCH 3 29
TORSDOF 18
ENDMDL
MODEL 54
USER: ADFR SOLUTION from run 184
USER: SCORE 13.807917 LL:  -4.203 LR: -10.256 RR:   0.000 FEB:  -4.887
USER: RMSD 7.857795
USER: SEED 183
USER: STATUS no improvement in best in 33 clusters for 5 generations
USER: GENES 20
USER: genes 0 Translation |==|  0.34610 0.28243 0.45995
USER: genes 1 Rotation |==|  0.36314 0.32480 0.19656 0.82939
USER: genes 2 Torsion [N]-C--CA-[N] |==|  0.78071
USER: genes 3 Torsion [C]-CA--N-[C] |==|  0.67353
USER: genes 4 Torsion [N]-C--CA-[N] |==|  0.40556
USER: genes 5 Torsion [C]-CA--N-[C] |==|  0.83112
USER: genes 6 Torsion [N]-C--CA-[N] |==|  0.68910
USER: genes 7 Torsion [C]-CA--CB-[CG] |==|  0.74721
USER: genes 8 Torsion [CA]-CB--CG-[OD2] |==|  0.29887
USER: genes 9 Torsion [C]-CA--CB-[CG] |==|  0.20280
USER: genes 10 Torsion [CA]-CB--CG-[CD1] |==|  0.74269
USER: genes 11 Torsion [C]-CA--CB-[CG2] |==|  0.25594
USER: genes 12 Torsion [CA]-CB--OG1-[HG1] |==|  0.68129
USER: genes 13 Torsion [C]-N--CA-[C] |==|  0.85488
USER: genes 14 Torsion [N]-CA--CB-[CG] |==|  0.34668
USER: genes 15 Torsion [CA]-CB--CG-[CD] |==|  0.39011
USER: genes 16 Torsion [CB]-CG--CD-[NE] |==|  0.71776
USER: genes 17 Torsion [CG]-CD--NE-[CZ] |==|  0.70775
USER: genes 18 Torsion [N]-CA--C-[N] |==|  0.36290
USER: genes 19 Torsion [N]-CA--C-[O] |==|  0.55193
ROOT
ATOM      1  C   THR B 201       6.261  33.636 -12.385  1.00 36.45 LIG 0.24  C 
ATOM      2 O    THR B 201       6.181  33.835 -11.170  1.00 40.30 LIG-0.27  OA
ATOM      3  N   ARG B 202       7.272  32.982 -12.948  1.00 33.32 LIG-0.35  N 
ATOM      4 H    ARG B 202       7.304  32.796 -13.787  1.00 33.32 LIG 0.16  HD
ENDROOT
BRANCH 1 5
ATOM      5  CA  THR B 201       5.174  34.142 -13.338  1.00 30.51 LIG 0.20  C 
BRANCH 5 6
ATOM      6  N   THR B 201       5.553  35.372 -14.039  1.00 29.33 LIG-0.34  N 
ATOM      7  C   LEU B 200       4.870  36.502 -13.872  1.00 28.22 LIG 0.24  C 
ATOM      8 O    LEU B 200       3.966  36.616 -13.049  1.00 25.98 LIG-0.27  OA
ATOM      9 H    THR B 201       6.239  35.294 -14.553  1.00 29.33 LIG 0.16  HD
BRANCH 7 10
ATOM     10  CA  LEU B 200       5.263  37.684 -14.752  1.00 30.55 LIG 0.18  C 
BRANCH 10 11
ATOM     11  N   LEU B 200       4.120  38.504 -15.102  1.00 35.39 LIG-0.35  N 
ATOM     12 H    LEU B 200       4.167  39.319 -14.832  1.00 35.39 LIG 0.16  HD
ATOM     13  C   ASP B 199       3.101  38.001 -15.786  1.00 42.58 LIG 0.26  C 
ATOM     14 O    ASP B 199       3.047  36.819 -16.127  1.00 44.96 LIG-0.27  OA
BRANCH 13 15
ATOM     15  CA  ASP B 199       1.974  38.973 -16.118  1.00 43.98 LIG 0.41  C 
ATOM     16  N   ASP B 199       0.759  38.629 -15.384  1.00 41.74 LIG 0.61  N 
BRANCH 15 17
ATOM     17  CB  ASP B 199       2.408  40.403 -15.803  1.00 46.67 LIG 0.16  C 
BRANCH 17 18
ATOM     18  CG  ASP B 199       2.053  40.826 -14.386  1.00 50.58 LIG 0.17  C 
ATOM     19 OD2  ASP B 199       2.978  40.934 -13.551  1.00 55.98 LIG-0.65  OA
ATOM     20 OD1  ASP B 199       0.858  41.040 -14.098  1.00 45.33 LIG-0.65  OA
ENDBRANCH 17 18
ENDBRANCH 15 17
ENDBRANCH 13 15
ENDBRANCH 10 11
BRANCH 10 21
ATOM     21  CB  LEU B 200       6.319  38.532 -14.048  1.00 29.00 LIG 0.04  C 
BRANCH 21 22
ATOM     22  CG  LEU B 200       7.712  37.911 -13.986  1.00 29.82 LIG-0.02  C 
ATOM     23  CD1 LEU B 200       7.878  37.133 -12.691  1.00 24.53 LIG 0.01  C 
ATOM     24  CD2 LEU B 200       7.923  37.005 -15.193  1.00 31.40 LIG 0.01  C 
ENDBRANCH 21 22
ENDBRANCH 10 21
ENDBRANCH 7 10
ENDBRANCH 5 6
BRANCH 5 25
ATOM     25  CB  THR B 201       4.824  33.013 -14.335  1.00 29.82 LIG 0.15  C 
ATOM     26  CG2 THR B 201       3.670  32.179 -13.819  1.00 24.76 LIG 0.04  C 
BRANCH 25 27
ATOM     27 OG1  THR B 201       4.467  33.579 -15.601  1.00 30.74 LIG-0.39  OA
ATOM     28 HG1  THR B 201       3.659  33.416 -15.764  1.00 30.74 LIG 0.21  HD
ENDBRANCH 25 27
ENDBRANCH 5 25
ENDBRANCH 1 5
BRANCH 3 29
ATOM     29  CA  ARG B 202       8.436  32.514 -12.195  1.00 35.80 LIG 0.18  C 
BRANCH 29 30
ATOM     30  CB  ARG B 202       9.444  31.919 -13.176  1.00 39.99 LIG 0.04  C 
BRANCH 30 31
ATOM     31  CG  ARG B 202      10.801  32.561 -13.057  1.00 43.12 LIG 0.02  C 
BRANCH 31 32
ATOM     32  CD  ARG B 202      11.922  31.560 -13.185  1.00 49.76 LIG 0.14  C 
BRANCH 32 33
ATOM     33  NE  ARG B 202      12.464  31.224 -11.874  1.00 51.61 LIG-0.23  N 
ATOM     34  CZ  ARG B 202      13.629  31.669 -11.419  1.00 53.48 LIG 0.67  C 
ATOM     35  NH2 ARG B 202      14.045  31.318 -10.211  1.00 55.46 LIG-0.23  N 
ATOM     36  NH1 ARG B 202      14.376  32.467 -12.172  1.00 53.58 LIG-0.23  N 
ATOM     37 2HH2 ARG B 202      14.799  31.606  -9.915  1.00 55.46 LIG 0.17  HD
ATOM     38 1HH2 ARG B 202      13.561  30.802  -9.723  1.00 55.46 LIG 0.17  HD
ATOM     39 2HH1 ARG B 202      15.130  32.755 -11.877  1.00 53.58 LIG 0.17  HD
ATOM     40 1HH1 ARG B 202      14.105  32.695 -12.956  1.00 53.58 LIG 0.17  HD
ATOM     41 HE   ARG B 202      12.002  30.706 -11.367  1.00 51.61 LIG 0.18  HD
ENDBRANCH 32 33
ENDBRANCH 31 32
ENDBRANCH 30 31
ENDBRANCH 29 30
BRANCH 29 42
ATOM     42  C   ARG B 202       9.033  33.692 -11.381  1.00 54.52 LIG 0.24  C 
ATOM     43 O    ARG B 202       9.255  34.748 -11.963  1.00 52.27 LIG-0.27  OA
ATOM     44  N   PRO B 203       9.304  33.517 -10.051  1.00 63.22 LIG-0.34  N 
ATOM     45  CD  PRO B 203       9.817  32.277  -9.452  1.00 67.52 LIG 0.13  C 
ATOM     46  CA  PRO B 203       9.678  34.603  -9.133  1.00 66.04 LIG 0.17  C 
ATOM     47  CG  PRO B 203      11.221  32.711  -9.058  1.00 67.94 LIG 0.02  C 
ATOM     48  CB  PRO B 203      11.139  34.249  -8.812  1.00 64.70 LIG 0.04  C 
BRANCH 46 49
ATOM     49  C   PRO B 203       9.584  36.047  -9.626  1.00 68.17 LIG 0.22  C 
ATOM     50 O    PRO B 203      10.208  36.916  -9.015  1.00 70.96 LIG-0.29  OA
ENDBRANCH 46 49
ENDBRANCH 29 42
ENDBRANCH 3 29
TORSDOF 18
ENDMDL
MODEL 55
USER: ADFR SOLUTION from run 63
USER: SCORE 15.370904 LL:  -5.372 LR: -10.257 RR:   0.000 FEB:  -4.887
USER: RMSD 7.807666
USER: SEED 62
USER: STATUS no improvement in best in 3 clusters for 5 generations
USER: GENES 20
USER: genes 0 Translation |==|  0.47547 0.31601 0.32190
USER: genes 1 Rotation |==|  0.39680 0.97924 0.48981 0.59783
USER: genes 2 Torsion [N]-C--CA-[N] |==|  0.07326
USER: genes 3 Torsion [C]-CA--N-[C] |==|  0.18065
USER: genes 4 Torsion [N]-C--CA-[N] |==|  0.92980
USER: genes 5 Torsion [C]-CA--N-[C] |==|  0.78397
USER: genes 6 Torsion [N]-C--CA-[N] |==|  0.75180
USER: genes 7 Torsion [C]-CA--CB-[CG] |==|  0.73940
USER: genes 8 Torsion [CA]-CB--CG-[OD2] |==|  0.80820
USER: genes 9 Torsion [C]-CA--CB-[CG] |==|  0.89819
USER: genes 10 Torsion [CA]-CB--CG-[CD1] |==|  0.45467
USER: genes 11 Torsion [C]-CA--CB-[CG2] |==|  0.21586
USER: genes 12 Torsion [CA]-CB--OG1-[HG1] |==|  0.29479
USER: genes 13 Torsion [C]-N--CA-[C] |==|  0.14465
USER: genes 14 Torsion [N]-CA--CB-[CG] |==|  0.60689
USER: genes 15 Torsion [CA]-CB--CG-[CD] |==|  0.64804
USER: genes 16 Torsion [CB]-CG--CD-[NE] |==|  0.17330
USER: genes 17 Torsion [CG]-CD--NE-[CZ] |==|  0.39128
USER: genes 18 Torsion [N]-CA--C-[N] |==|  0.10000
USER: genes 19 Torsion [N]-CA--C-[O] |==|  0.41941
ROOT
ATOM      1  C   THR B 201       8.493  34.240 -14.973  1.00 36.45 LIG 0.24  C 
ATOM      2 O    THR B 201       8.124  33.958 -16.116  1.00 40.30 LIG-0.27  OA
ATOM      3  N   ARG B 202       7.796  35.027 -14.160  1.00 33.32 LIG-0.35  N 
ATOM      4 H    ARG B 202       8.024  35.183 -13.345  1.00 33.32 LIG 0.16  HD
ENDROOT
BRANCH 1 5
ATOM      5  CA  THR B 201       9.806  33.687 -14.411  1.00 30.51 LIG 0.20  C 
BRANCH 5 6
ATOM      6  N   THR B 201       9.807  33.586 -12.949  1.00 29.33 LIG-0.34  N 
ATOM      7  C   LEU B 200       8.985  32.754 -12.314  1.00 28.22 LIG 0.24  C 
ATOM      8 O    LEU B 200       8.268  31.949 -12.903  1.00 25.98 LIG-0.27  OA
ATOM      9 H    THR B 201      10.371  34.100 -12.555  1.00 29.33 LIG 0.16  HD
BRANCH 7 10
ATOM     10  CA  LEU B 200       8.969  32.827 -10.791  1.00 30.55 LIG 0.18  C 
BRANCH 10 11
ATOM     11  N   LEU B 200      10.216  33.341 -10.259  1.00 35.39 LIG-0.35  N 
ATOM     12 H    LEU B 200      10.189  34.163 -10.010  1.00 35.39 LIG 0.16  HD
ATOM     13  C   ASP B 199      11.294  32.572 -10.179  1.00 42.58 LIG 0.26  C 
ATOM     14 O    ASP B 199      11.312  31.407 -10.577  1.00 44.96 LIG-0.27  OA
BRANCH 13 15
ATOM     15  CA  ASP B 199      12.535  33.220  -9.574  1.00 43.98 LIG 0.41  C 
ATOM     16  N   ASP B 199      13.338  33.868 -10.607  1.00 41.74 LIG 0.61  N 
BRANCH 15 17
ATOM     17  CB  ASP B 199      12.127  34.224  -8.497  1.00 46.67 LIG 0.16  C 
BRANCH 17 18
ATOM     18  CG  ASP B 199      12.002  35.641  -9.033  1.00 50.58 LIG 0.17  C 
ATOM     19 OD2  ASP B 199      13.044  36.237  -9.384  1.00 55.98 LIG-0.65  OA
ATOM     20 OD1  ASP B 199      10.872  36.170  -9.096  1.00 45.33 LIG-0.65  OA
ENDBRANCH 17 18
ENDBRANCH 15 17
ENDBRANCH 13 15
ENDBRANCH 10 11
BRANCH 10 21
ATOM     21  CB  LEU B 200       7.804  33.694 -10.320  1.00 29.00 LIG 0.04  C 
BRANCH 21 22
ATOM     22  CG  LEU B 200       7.500  34.902 -11.203  1.00 29.82 LIG-0.02  C 
ATOM     23  CD1 LEU B 200       6.116  35.444 -10.884  1.00 24.53 LIG 0.01  C 
ATOM     24  CD2 LEU B 200       8.563  35.972 -10.991  1.00 31.40 LIG 0.01  C 
ENDBRANCH 21 22
ENDBRANCH 10 21
ENDBRANCH 7 10
ENDBRANCH 5 6
BRANCH 5 25
ATOM     25  CB  THR B 201      10.089  32.318 -15.069  1.00 29.82 LIG 0.15  C 
ATOM     26  CG2 THR B 201      10.633  32.496 -16.472  1.00 24.76 LIG 0.04  C 
BRANCH 25 27
ATOM     27 OG1  THR B 201      11.042  31.591 -14.284  1.00 30.74 LIG-0.39  OA
ATOM     28 HG1  THR B 201      10.653  30.972 -13.871  1.00 30.74 LIG 0.21  HD
ENDBRANCH 25 27
ENDBRANCH 5 25
ENDBRANCH 1 5
BRANCH 3 29
ATOM     29  CA  ARG B 202       6.570  35.710 -14.571  1.00 35.80 LIG 0.18  C 
BRANCH 29 30
ATOM     30  CB  ARG B 202       6.937  36.822 -15.551  1.00 39.99 LIG 0.04  C 
BRANCH 30 31
ATOM     31  CG  ARG B 202       6.107  38.061 -15.342  1.00 43.12 LIG 0.02  C 
BRANCH 31 32
ATOM     32  CD  ARG B 202       5.434  38.522 -16.612  1.00 49.76 LIG 0.14  C 
BRANCH 32 33
ATOM     33  NE  ARG B 202       4.506  37.509 -17.099  1.00 51.61 LIG-0.23  N 
ATOM     34  CZ  ARG B 202       3.321  37.785 -17.632  1.00 53.48 LIG 0.67  C 
ATOM     35  NH2 ARG B 202       2.540  36.802 -18.055  1.00 55.46 LIG-0.23  N 
ATOM     36  NH1 ARG B 202       2.921  39.046 -17.744  1.00 53.58 LIG-0.23  N 
ATOM     37 2HH2 ARG B 202       1.774  36.981 -18.400  1.00 55.46 LIG 0.17  HD
ATOM     38 1HH2 ARG B 202       2.800  35.986 -17.983  1.00 55.46 LIG 0.17  HD
ATOM     39 2HH1 ARG B 202       2.155  39.224 -18.089  1.00 53.58 LIG 0.17  HD
ATOM     40 1HH1 ARG B 202       3.429  39.683 -17.470  1.00 53.58 LIG 0.17  HD
ATOM     41 HE   ARG B 202       4.739  36.684 -17.036  1.00 51.61 LIG 0.18  HD
ENDBRANCH 32 33
ENDBRANCH 31 32
ENDBRANCH 30 31
ENDBRANCH 29 30
BRANCH 29 42
ATOM     42  C   ARG B 202       5.586  34.682 -15.189  1.00 54.52 LIG 0.24  C 
ATOM     43 O    ARG B 202       4.880  35.043 -16.124  1.00 52.27 LIG-0.27  OA
ATOM     44  N   PRO B 203       5.528  33.417 -14.671  1.00 63.22 LIG-0.34  N 
ATOM     45  CD  PRO B 203       5.657  33.084 -13.245  1.00 67.52 LIG 0.13  C 
ATOM     46  CA  PRO B 203       4.794  32.303 -15.289  1.00 66.04 LIG 0.17  C 
ATOM     47  CG  PRO B 203       4.241  32.624 -12.932  1.00 67.94 LIG 0.02  C 
ATOM     48  CB  PRO B 203       3.664  32.073 -14.272  1.00 64.70 LIG 0.04  C 
BRANCH 46 49
ATOM     49  C   PRO B 203       4.208  32.496 -16.688  1.00 68.17 LIG 0.22  C 
ATOM     50 O    PRO B 203       4.091  31.507 -17.415  1.00 70.96 LIG-0.29  OA
ENDBRANCH 46 49
ENDBRANCH 29 42
ENDBRANCH 3 29
TORSDOF 18
ENDMDL
MODEL 56
USER: ADFR SOLUTION from run 182
USER: SCORE 13.228435 LL:  -3.472 LR: -10.237 RR:   0.000 FEB:  -4.867
USER: RMSD 7.883925
USER: SEED 181
USER: STATUS no improvement in best in 40 clusters for 5 generations
USER: GENES 20
USER: genes 0 Translation |==|  0.24839 0.34330 0.41227
USER: genes 1 Rotation |==|  0.39252 0.14302 0.83251 0.52125
USER: genes 2 Torsion [N]-C--CA-[N] |==|  0.89125
USER: genes 3 Torsion [C]-CA--N-[C] |==|  0.84240
USER: genes 4 Torsion [N]-C--CA-[N] |==|  0.93318
USER: genes 5 Torsion [C]-CA--N-[C] |==|  0.66199
USER: genes 6 Torsion [N]-C--CA-[N] |==|  0.76728
USER: genes 7 Torsion [C]-CA--CB-[CG] |==|  0.52709
USER: genes 8 Torsion [CA]-CB--CG-[OD2] |==|  0.65366
USER: genes 9 Torsion [C]-CA--CB-[CG] |==|  0.68556
USER: genes 10 Torsion [CA]-CB--CG-[CD1] |==|  0.22706
USER: genes 11 Torsion [C]-CA--CB-[CG2] |==|  0.71684
USER: genes 12 Torsion [CA]-CB--OG1-[HG1] |==|  0.37458
USER: genes 13 Torsion [C]-N--CA-[C] |==|  0.63091
USER: genes 14 Torsion [N]-CA--CB-[CG] |==|  0.79093
USER: genes 15 Torsion [CA]-CB--CG-[CD] |==|  0.64291
USER: genes 16 Torsion [CB]-CG--CD-[NE] |==|  0.74894
USER: genes 17 Torsion [CG]-CD--NE-[CZ] |==|  0.36265
USER: genes 18 Torsion [N]-CA--C-[N] |==|  0.42030
USER: genes 19 Torsion [N]-CA--C-[O] |==|  0.40272
ROOT
ATOM      1  C   THR B 201       4.576  34.731 -13.279  1.00 36.45 LIG 0.24  C 
ATOM      2 O    THR B 201       3.508  34.199 -13.591  1.00 40.30 LIG-0.27  OA
ATOM      3  N   ARG B 202       5.169  35.658 -14.025  1.00 33.32 LIG-0.35  N 
ATOM      4 H    ARG B 202       5.885  36.069 -13.784  1.00 33.32 LIG 0.16  HD
ENDROOT
BRANCH 1 5
ATOM      5  CA  THR B 201       5.298  34.348 -11.983  1.00 30.51 LIG 0.20  C 
BRANCH 5 6
ATOM      6  N   THR B 201       6.754  34.279 -12.137  1.00 29.33 LIG-0.34  N 
ATOM      7  C   LEU B 200       7.316  33.485 -13.045  1.00 28.22 LIG 0.24  C 
ATOM      8 O    LEU B 200       6.663  32.857 -13.875  1.00 25.98 LIG-0.27  OA
ATOM      9 H    THR B 201       7.195  34.786 -11.601  1.00 29.33 LIG 0.16  HD
BRANCH 7 10
ATOM     10  CA  LEU B 200       8.838  33.385 -13.028  1.00 30.55 LIG 0.18  C 
BRANCH 10 11
ATOM     11  N   LEU B 200       9.452  34.552 -12.425  1.00 35.39 LIG-0.35  N 
ATOM     12 H    LEU B 200       9.207  34.709 -11.616  1.00 35.39 LIG 0.16  HD
ATOM     13  C   ASP B 199      10.319  35.294 -13.100  1.00 42.58 LIG 0.26  C 
ATOM     14 O    ASP B 199      10.623  35.064 -14.271  1.00 44.96 LIG-0.27  OA
BRANCH 13 15
ATOM     15  CA  ASP B 199      10.917  36.477 -12.345  1.00 43.98 LIG 0.41  C 
ATOM     16  N   ASP B 199      10.027  37.633 -12.403  1.00 41.74 LIG 0.61  N 
BRANCH 15 17
ATOM     17  CB  ASP B 199      11.198  36.083 -10.896  1.00 46.67 LIG 0.16  C 
BRANCH 17 18
ATOM     18  CG  ASP B 199      11.573  37.273 -10.027  1.00 50.58 LIG 0.17  C 
ATOM     19 OD2  ASP B 199      12.652  37.231  -9.397  1.00 55.98 LIG-0.65  OA
ATOM     20 OD1  ASP B 199      10.791  38.244  -9.958  1.00 45.33 LIG-0.65  OA
ENDBRANCH 17 18
ENDBRANCH 15 17
ENDBRANCH 13 15
ENDBRANCH 10 11
BRANCH 10 21
ATOM     21  CB  LEU B 200       9.272  32.124 -12.285  1.00 29.00 LIG 0.04  C 
BRANCH 21 22
ATOM     22  CG  LEU B 200      10.008  32.370 -10.970  1.00 29.82 LIG-0.02  C 
ATOM     23  CD1 LEU B 200       9.010  32.641  -9.857  1.00 24.53 LIG 0.01  C 
ATOM     24  CD2 LEU B 200      10.877  31.164 -10.637  1.00 31.40 LIG 0.01  C 
ENDBRANCH 21 22
ENDBRANCH 10 21
ENDBRANCH 7 10
ENDBRANCH 5 6
BRANCH 5 25
ATOM     25  CB  THR B 201       4.897  35.350 -10.877  1.00 29.82 LIG 0.15  C 
ATOM     26  CG2 THR B 201       5.994  36.372 -10.654  1.00 24.76 LIG 0.04  C 
BRANCH 25 27
ATOM     27 OG1  THR B 201       3.692  36.028 -11.252  1.00 30.74 LIG-0.39  OA
ATOM     28 HG1  THR B 201       3.168  36.052 -10.596  1.00 30.74 LIG 0.21  HD
ENDBRANCH 25 27
ENDBRANCH 5 25
ENDBRANCH 1 5
BRANCH 3 29
ATOM     29  CA  ARG B 202       4.663  36.071 -15.333  1.00 35.80 LIG 0.18  C 
BRANCH 29 30
ATOM     30  CB  ARG B 202       3.986  37.433 -15.185  1.00 39.99 LIG 0.04  C 
BRANCH 30 31
ATOM     31  CG  ARG B 202       2.638  37.328 -14.523  1.00 43.12 LIG 0.02  C 
BRANCH 31 32
ATOM     32  CD  ARG B 202       1.556  38.023 -15.312  1.00 49.76 LIG 0.14  C 
BRANCH 32 33
ATOM     33  NE  ARG B 202       1.426  39.414 -14.894  1.00 51.61 LIG-0.23  N 
ATOM     34  CZ  ARG B 202       1.400  40.440 -15.735  1.00 53.48 LIG 0.67  C 
ATOM     35  NH2 ARG B 202       1.274  41.675 -15.270  1.00 55.46 LIG-0.23  N 
ATOM     36  NH1 ARG B 202       1.498  40.230 -17.042  1.00 53.58 LIG-0.23  N 
ATOM     37 2HH2 ARG B 202       1.257  42.339 -15.814  1.00 55.46 LIG 0.17  HD
ATOM     38 1HH2 ARG B 202       1.210  41.810 -14.424  1.00 55.46 LIG 0.17  HD
ATOM     39 2HH1 ARG B 202       1.481  40.895 -17.587  1.00 53.58 LIG 0.17  HD
ATOM     40 1HH1 ARG B 202       1.579  39.429 -17.344  1.00 53.58 LIG 0.17  HD
ATOM     41 HE   ARG B 202       1.363  39.578 -14.052  1.00 51.61 LIG 0.18  HD
ENDBRANCH 32 33
ENDBRANCH 31 32
ENDBRANCH 30 31
ENDBRANCH 29 30
BRANCH 29 42
ATOM     42  C   ARG B 202       5.831  36.103 -16.355  1.00 54.52 LIG 0.24  C 
ATOM     43 O    ARG B 202       6.959  36.344 -15.940  1.00 52.27 LIG-0.27  OA
ATOM     44  N   PRO B 203       5.569  35.875 -17.678  1.00 63.22 LIG-0.34  N 
ATOM     45  CD  PRO B 203       4.365  36.328 -18.388  1.00 67.52 LIG 0.13  C 
ATOM     46  CA  PRO B 203       6.603  35.680 -18.704  1.00 66.04 LIG 0.17  C 
ATOM     47  CG  PRO B 203       4.959  37.380 -19.312  1.00 67.94 LIG 0.02  C 
ATOM     48  CB  PRO B 203       6.437  36.948 -19.558  1.00 64.70 LIG 0.04  C 
BRANCH 46 49
ATOM     49  C   PRO B 203       8.059  35.533 -18.261  1.00 68.17 LIG 0.22  C 
ATOM     50 O    PRO B 203       8.791  34.772 -18.897  1.00 70.96 LIG-0.29  OA
ENDBRANCH 46 49
ENDBRANCH 29 42
ENDBRANCH 3 29
TORSDOF 18
ENDMDL
