MODEL 1
USER: ADFR SOLUTION from run 44
USER: SCORE 19.340900 LL:  -4.166 LR: -17.205 RR:   0.000 FEB:  -9.449
USER: RMSD 13.232110
USER: SEED 43
USER: STATUS no improvement in best in 6 clusters for 5 generations
USER: GENES 28
USER: genes 0 Translation |==|  0.66428 0.38173 0.33046
USER: genes 1 Rotation |==|  0.40533 0.72760 0.06871 0.55676
USER: genes 2 Torsion [N]-CA--C-[N] |==|  0.53754
USER: genes 3 Torsion [C]-N--CA-[CB] |==|  0.23859
USER: genes 4 Torsion [N]-CA--CB-[CG] |==|  0.12322
USER: genes 5 Torsion [CA]-CB--CG-[CD] |==|  0.71205
USER: genes 6 Torsion [CB]-CG--CD-[OE1] |==|  0.74202
USER: genes 7 Torsion [N]-CA--C-[N] |==|  0.36747
USER: genes 8 Torsion [C]-N--CA-[CB] |==|  0.28131
USER: genes 9 Torsion [N]-CA--C-[O] |==|  0.80245
USER: genes 10 Torsion [N]-CA--CB-[CG] |==|  0.69619
USER: genes 11 Torsion [CA]-CB--CG-[CD1] |==|  0.39723
USER: genes 12 Torsion [CE1]-CZ--OH-[HH] |==|  0.78044
USER: genes 13 Torsion [C]-CA--CB-[OG] |==|  0.40041
USER: genes 14 Torsion [CA]-CB--OG-[HG] |==|  0.53524
USER: genes 15 Torsion [C]-CA--N-[C] |==|  0.64972
USER: genes 16 Torsion [N]-C--CA-[N] |==|  0.12432
USER: genes 17 Torsion [C]-CA--CB-[CG1] |==|  0.22908
USER: genes 18 Torsion [C]-CA--N-[C] |==|  0.16517
USER: genes 19 Torsion [N]-C--CA-[N] |==|  0.92222
USER: genes 20 Torsion [C]-CA--CB-[CG] |==|  0.34074
USER: genes 21 Torsion [CA]-CB--CG-[CD] |==|  0.13802
USER: genes 22 Torsion [CB]-CG--CD-[OE1] |==|  0.27915
USER: genes 23 Torsion [C]-CA--N-[C] |==|  0.65701
USER: genes 24 Torsion [N]-C--CA-[N] |==|  0.25709
USER: genes 25 Torsion [C]-CA--CB-[CG] |==|  0.19255
USER: genes 26 Torsion [CA]-CB--CG-[CD] |==|  0.55064
USER: genes 27 Torsion [CB]-CG--CD-[OE1] |==|  0.43687
ROOT
ATOM      1  CA  SER T 970      36.918  35.704 -12.677  1.00 53.81 LIG 0.20  C 
ENDROOT
BRANCH 1 2
ATOM      2  C   SER T 970      36.444  37.123 -12.387  1.00 54.98 LIG 0.24  C 
ATOM      3  N   GLU T 971      35.182  37.239 -11.996  1.00 36.24 LIG-0.35  N 
ATOM      4 H    GLU T 971      34.615  36.596 -11.930  1.00 36.24 LIG 0.16  HD
ATOM      5 O    SER T 970      37.207  38.100 -12.466  1.00 50.73 LIG-0.27  OA
BRANCH 3 6
ATOM      6  CA  GLU T 971      34.699  38.553 -11.645  1.00 34.69 LIG 0.18  C 
BRANCH 6 7
ATOM      7  CB  GLU T 971      34.206  39.315 -12.872  1.00 35.28 LIG 0.04  C 
BRANCH 7 8
ATOM      8  CG  GLU T 971      33.345  38.462 -13.801  1.00 38.63 LIG 0.12  C 
BRANCH 8 9
ATOM      9  CD  GLU T 971      34.099  38.012 -15.051  1.00 44.02 LIG 0.17  C 
ATOM     10 OE1  GLU T 971      34.026  38.708 -16.090  1.00 46.94 LIG-0.65  OA
ATOM     11 OE2  GLU T 971      34.767  36.959 -14.995  1.00 38.45 LIG-0.65  OA
ENDBRANCH 8 9
ENDBRANCH 7 8
ENDBRANCH 6 7
BRANCH 6 12
ATOM     12  C   GLU T 971      33.581  38.430 -10.637  1.00 38.38 LIG 0.24  C 
ATOM     13  N   TYR T 972      33.697  39.231  -9.597  1.00 34.07 LIG-0.34  N 
ATOM     14 H    TYR T 972      34.382  39.729  -9.448  1.00 34.07 LIG 0.16  HD
ATOM     15 O    GLU T 971      32.638  37.642 -10.807  1.00 36.91 LIG-0.27  OA
BRANCH 13 16
ATOM     16  CA  TYR T 972      32.656  39.339  -8.602  1.00 35.97 LIG 0.19  C 
BRANCH 16 17
ATOM     17  C   TYR T 972      32.447  40.812  -8.232  1.00 45.43 LIG 0.20  C 
ATOM     18 OXT  TYR T 972      31.425  41.379  -8.621  1.00 40.76 LIG-0.65  OA
ATOM     19 O    TYR T 972      33.271  41.469  -7.571  1.00 41.72 LIG-0.65  OA
ENDBRANCH 16 17
BRANCH 16 20
ATOM     20  CB  TYR T 972      33.015  38.529  -7.360  1.00 33.99 LIG 0.07  C 
BRANCH 20 21
ATOM     21  CG  TYR T 972      32.147  37.321  -7.235  1.00 33.93 LIG-0.06  A 
ATOM     22  CD1 TYR T 972      32.659  36.122  -6.760  1.00 33.64 LIG 0.01  A 
ATOM     23  CE1 TYR T 972      31.851  35.011  -6.631  1.00 37.50 LIG 0.04  A 
ATOM     24  CZ  TYR T 972      30.525  35.107  -6.964  1.00 37.64 LIG 0.07  A 
ATOM     25  CE2 TYR T 972      29.989  36.289  -7.413  1.00 36.30 LIG 0.04  A 
ATOM     26  CD2 TYR T 972      30.796  37.386  -7.551  1.00 38.70 LIG 0.01  A 
BRANCH 24 27
ATOM     27 OH   TYR T 972      29.725  34.009  -6.840  1.00 40.25 LIG-0.36  OA
ATOM     28 HH   TYR T 972      29.847  33.499  -7.496  1.00 40.25 LIG 0.22  HD
ENDBRANCH 24 27
ENDBRANCH 20 21
ENDBRANCH 16 20
ENDBRANCH 13 16
ENDBRANCH 6 12
ENDBRANCH 3 6
ENDBRANCH 1 2
BRANCH 1 29
ATOM     29  CB  SER T 970      36.371  34.787 -11.577  1.00 55.16 LIG 0.20  C 
BRANCH 29 30
ATOM     30 OG   SER T 970      36.029  33.518 -12.103  1.00 59.72 LIG-0.40  OA
ATOM     31 HG   SER T 970      35.577  33.092 -11.538  1.00 59.72 LIG 0.21  HD
ENDBRANCH 29 30
ENDBRANCH 1 29
BRANCH 1 32
ATOM     32  N   SER T 970      38.369  35.524 -12.808  1.00 52.51 LIG-0.34  N 
ATOM     33  C   VAL T 969      38.911  34.951 -13.880  1.00 50.69 LIG 0.24  C 
ATOM     34 O    VAL T 969      38.291  34.787 -14.931  1.00 50.98 LIG-0.27  OA
ATOM     35 H    SER T 970      38.824  35.818 -12.140  1.00 52.51 LIG 0.16  HD
BRANCH 33 36
ATOM     36  CA  VAL T 969      40.396  34.556 -13.771  1.00 48.28 LIG 0.18  C 
BRANCH 36 37
ATOM     37  CB  VAL T 969      40.815  33.637 -14.928  1.00 45.61 LIG 0.01  C 
ATOM     38  CG1 VAL T 969      41.152  34.436 -16.186  1.00 51.33 LIG 0.01  C 
ATOM     39  CG2 VAL T 969      42.008  32.777 -14.508  1.00 51.13 LIG 0.01  C 
ENDBRANCH 36 37
BRANCH 36 40
ATOM     40  N   VAL T 969      40.622  33.910 -12.492  1.00 42.62 LIG-0.35  N 
ATOM     41  C   GLU T 968      39.964  32.808 -12.174  1.00 39.23 LIG 0.24  C 
ATOM     42 O    GLU T 968      39.077  32.335 -12.875  1.00 41.64 LIG-0.27  OA
ATOM     43 H    VAL T 969      41.199  34.298 -11.985  1.00 42.62 LIG 0.16  HD
BRANCH 41 44
ATOM     44  CA  GLU T 968      40.393  32.091 -10.911  1.00 43.46 LIG 0.18  C 
BRANCH 44 45
ATOM     45  CB  GLU T 968      39.498  32.601  -9.795  1.00 39.65 LIG 0.04  C 
BRANCH 45 46
ATOM     46  CG  GLU T 968      38.702  31.615  -9.039  1.00 48.42 LIG 0.12  C 
BRANCH 46 47
ATOM     47  CD  GLU T 968      39.609  30.489  -8.594  1.00 46.07 LIG 0.17  C 
ATOM     48 OE1  GLU T 968      40.015  30.504  -7.405  1.00 37.62 LIG-0.65  OA
ATOM     49 OE2  GLU T 968      39.853  29.565  -9.408  1.00 42.01 LIG-0.65  OA
ENDBRANCH 46 47
ENDBRANCH 45 46
ENDBRANCH 44 45
BRANCH 44 50
ATOM     50  N   GLU T 968      41.804  32.322 -10.613  1.00 42.28 LIG-0.35  N 
ATOM     51  C   GLU T 967      42.665  31.314 -10.470  1.00 44.22 LIG 0.26  C 
ATOM     52 O    GLU T 967      42.326  30.140 -10.448  1.00 45.73 LIG-0.27  OA
ATOM     53 H    GLU T 968      42.020  33.151 -10.540  1.00 42.28 LIG 0.16  HD
BRANCH 51 54
ATOM     54  CA  GLU T 967      44.137  31.678 -10.319  1.00 63.10 LIG 0.40  C 
ATOM     55  N   GLU T 967      44.486  31.799  -8.907  1.00 61.06 LIG 0.61  N 
BRANCH 54 56
ATOM     56  CB  GLU T 967      45.006  30.620 -10.998  1.00 76.10 LIG 0.06  C 
BRANCH 56 57
ATOM     57  CG  GLU T 967      44.897  30.624 -12.508  1.00 93.75 LIG 0.12  C 
BRANCH 57 58
ATOM     58  CD  GLU T 967      45.393  29.330 -13.121  1.00103.86 LIG 0.17  C 
ATOM     59 OE1  GLU T 967      44.984  29.014 -14.257  1.00104.00 LIG-0.65  OA
ATOM     60 OE2  GLU T 967      46.200  28.635 -12.467  1.00109.28 LIG-0.65  OA
ENDBRANCH 57 58
ENDBRANCH 56 57
ENDBRANCH 54 56
ENDBRANCH 51 54
ENDBRANCH 44 50
ENDBRANCH 41 44
ENDBRANCH 36 40
ENDBRANCH 33 36
ENDBRANCH 1 32
TORSDOF 26
ENDMDL
MODEL 2
USER: ADFR SOLUTION from run 87
USER: SCORE 19.042844 LL:  -4.641 LR: -17.101 RR:   0.000 FEB:  -9.345
USER: RMSD 5.495009
USER: SEED 86
USER: STATUS no improvement in best in 14 clusters for 5 generations
USER: GENES 28
USER: genes 0 Translation |==|  0.47847 0.49776 0.57704
USER: genes 1 Rotation |==|  0.67413 0.45545 0.62017 0.95084
USER: genes 2 Torsion [N]-CA--C-[N] |==|  0.53878
USER: genes 3 Torsion [C]-N--CA-[CB] |==|  0.29444
USER: genes 4 Torsion [N]-CA--CB-[CG] |==|  0.09019
USER: genes 5 Torsion [CA]-CB--CG-[CD] |==|  0.70979
USER: genes 6 Torsion [CB]-CG--CD-[OE1] |==|  0.75420
USER: genes 7 Torsion [N]-CA--C-[N] |==|  0.30785
USER: genes 8 Torsion [C]-N--CA-[CB] |==|  0.47052
USER: genes 9 Torsion [N]-CA--C-[O] |==|  0.88970
USER: genes 10 Torsion [N]-CA--CB-[CG] |==|  0.45724
USER: genes 11 Torsion [CA]-CB--CG-[CD1] |==|  0.73245
USER: genes 12 Torsion [CE1]-CZ--OH-[HH] |==|  0.19974
USER: genes 13 Torsion [C]-CA--CB-[OG] |==|  0.76892
USER: genes 14 Torsion [CA]-CB--OG-[HG] |==|  0.30134
USER: genes 15 Torsion [C]-CA--N-[C] |==|  0.82746
USER: genes 16 Torsion [N]-C--CA-[N] |==|  0.49363
USER: genes 17 Torsion [C]-CA--CB-[CG1] |==|  0.18782
USER: genes 18 Torsion [C]-CA--N-[C] |==|  0.64360
USER: genes 19 Torsion [N]-C--CA-[N] |==|  0.97537
USER: genes 20 Torsion [C]-CA--CB-[CG] |==|  0.44663
USER: genes 21 Torsion [CA]-CB--CG-[CD] |==|  0.26070
USER: genes 22 Torsion [CB]-CG--CD-[OE1] |==|  0.76163
USER: genes 23 Torsion [C]-CA--N-[C] |==|  0.81477
USER: genes 24 Torsion [N]-C--CA-[N] |==|  0.91969
USER: genes 25 Torsion [C]-CA--CB-[CG] |==|  0.72883
USER: genes 26 Torsion [CA]-CB--CG-[CD] |==|  0.75739
USER: genes 27 Torsion [CB]-CG--CD-[OE1] |==|  0.24725
ROOT
ATOM      1  CA  SER T 970      31.622  37.966  -7.869  1.00 53.81 LIG 0.20  C 
ENDROOT
BRANCH 1 2
ATOM      2  C   SER T 970      32.107  38.027  -9.312  1.00 54.98 LIG 0.24  C 
ATOM      3  N   GLU T 971      33.343  38.476  -9.485  1.00 36.24 LIG-0.35  N 
ATOM      4 H    GLU T 971      33.866  38.762  -8.865  1.00 36.24 LIG 0.16  HD
ATOM      5 O    SER T 970      31.405  37.635 -10.259  1.00 50.73 LIG-0.27  OA
BRANCH 3 6
ATOM      6  CA  GLU T 971      33.877  38.494 -10.827  1.00 34.69 LIG 0.18  C 
BRANCH 6 7
ATOM      7  CB  GLU T 971      33.936  39.912 -11.388  1.00 35.28 LIG 0.04  C 
BRANCH 7 8
ATOM      8  CG  GLU T 971      34.203  40.969 -10.318  1.00 38.63 LIG 0.12  C 
BRANCH 8 9
ATOM      9  CD  GLU T 971      32.949  41.763  -9.952  1.00 44.02 LIG 0.17  C 
ATOM     10 OE1  GLU T 971      32.670  42.794 -10.606  1.00 46.94 LIG-0.65  OA
ATOM     11 OE2  GLU T 971      32.242  41.355  -9.008  1.00 38.45 LIG-0.65  OA
ENDBRANCH 8 9
ENDBRANCH 7 8
ENDBRANCH 6 7
BRANCH 6 12
ATOM     12  C   GLU T 971      35.258  37.885 -10.831  1.00 38.38 LIG 0.24  C 
ATOM     13  N   TYR T 972      35.337  36.721 -11.444  1.00 34.07 LIG-0.34  N 
ATOM     14 H    TYR T 972      34.657  36.293 -11.750  1.00 34.07 LIG 0.16  HD
ATOM     15 O    GLU T 971      36.223  38.461 -10.305  1.00 36.91 LIG-0.27  OA
BRANCH 13 16
ATOM     16  CA  TYR T 972      36.602  36.058 -11.655  1.00 35.97 LIG 0.19  C 
BRANCH 16 17
ATOM     17  C   TYR T 972      37.434  36.846 -12.674  1.00 45.43 LIG 0.20  C 
ATOM     18 OXT  TYR T 972      38.642  36.977 -12.476  1.00 40.76 LIG-0.65  OA
ATOM     19 O    TYR T 972      36.941  37.377 -13.686  1.00 41.72 LIG-0.65  OA
ENDBRANCH 16 17
BRANCH 16 20
ATOM     20  CB  TYR T 972      36.384  34.629 -12.143  1.00 33.99 LIG 0.07  C 
BRANCH 20 21
ATOM     21  CG  TYR T 972      37.640  34.058 -12.714  1.00 33.93 LIG-0.06  A 
ATOM     22  CD1 TYR T 972      37.878  34.084 -14.080  1.00 33.64 LIG 0.01  A 
ATOM     23  CE1 TYR T 972      39.046  33.569 -14.604  1.00 37.50 LIG 0.04  A 
ATOM     24  CZ  TYR T 972      39.984  33.042 -13.754  1.00 37.64 LIG 0.07  A 
ATOM     25  CE2 TYR T 972      39.782  33.027 -12.395  1.00 36.30 LIG 0.04  A 
ATOM     26  CD2 TYR T 972      38.618  33.528 -11.881  1.00 38.70 LIG 0.01  A 
BRANCH 24 27
ATOM     27 OH   TYR T 972      41.138  32.529 -14.269  1.00 40.25 LIG-0.36  OA
ATOM     28 HH   TYR T 972      41.625  33.156 -14.543  1.00 40.25 LIG 0.22  HD
ENDBRANCH 24 27
ENDBRANCH 20 21
ENDBRANCH 16 20
ENDBRANCH 13 16
ENDBRANCH 6 12
ENDBRANCH 3 6
ENDBRANCH 1 2
BRANCH 1 29
ATOM     29  CB  SER T 970      32.768  37.424  -7.006  1.00 55.16 LIG 0.20  C 
BRANCH 29 30
ATOM     30 OG   SER T 970      32.803  36.010  -7.048  1.00 59.72 LIG-0.40  OA
ATOM     31 HG   SER T 970      33.468  35.758  -7.495  1.00 59.72 LIG 0.21  HD
ENDBRANCH 29 30
ENDBRANCH 1 29
BRANCH 1 32
ATOM     32  N   SER T 970      30.401  37.187  -7.633  1.00 52.51 LIG-0.34  N 
ATOM     33  C   VAL T 969      29.238  37.520  -8.187  1.00 50.69 LIG 0.24  C 
ATOM     34 O    VAL T 969      29.152  38.310  -9.128  1.00 50.98 LIG-0.27  OA
ATOM     35 H    SER T 970      30.508  36.509  -7.113  1.00 52.51 LIG 0.16  HD
BRANCH 33 36
ATOM     36  CA  VAL T 969      27.986  36.812  -7.636  1.00 48.28 LIG 0.18  C 
BRANCH 36 37
ATOM     37  CB  VAL T 969      28.085  35.288  -7.809  1.00 45.61 LIG 0.01  C 
ATOM     38  CG1 VAL T 969      29.181  34.694  -6.925  1.00 51.33 LIG 0.01  C 
ATOM     39  CG2 VAL T 969      26.737  34.637  -7.498  1.00 51.13 LIG 0.01  C 
ENDBRANCH 36 37
BRANCH 36 40
ATOM     40  N   VAL T 969      26.811  37.332  -8.311  1.00 42.62 LIG-0.35  N 
ATOM     41  C   GLU T 968      25.779  37.771  -7.611  1.00 39.23 LIG 0.24  C 
ATOM     42 O    GLU T 968      25.711  37.678  -6.391  1.00 41.64 LIG-0.27  OA
ATOM     43 H    VAL T 969      26.852  37.324  -9.170  1.00 42.62 LIG 0.16  HD
BRANCH 41 44
ATOM     44  CA  GLU T 968      24.676  38.471  -8.378  1.00 43.46 LIG 0.18  C 
BRANCH 44 45
ATOM     45  CB  GLU T 968      23.451  37.579  -8.290  1.00 39.65 LIG 0.04  C 
BRANCH 45 46
ATOM     46  CG  GLU T 968      22.132  38.183  -8.563  1.00 48.42 LIG 0.12  C 
BRANCH 46 47
ATOM     47  CD  GLU T 968      21.789  37.973 -10.021  1.00 46.07 LIG 0.17  C 
ATOM     48 OE1  GLU T 968      22.221  38.816 -10.848  1.00 37.62 LIG-0.65  OA
ATOM     49 OE2  GLU T 968      21.154  36.938 -10.340  1.00 42.01 LIG-0.65  OA
ENDBRANCH 46 47
ENDBRANCH 45 46
ENDBRANCH 44 45
BRANCH 44 50
ATOM     50  N   GLU T 968      25.059  38.719  -9.766  1.00 42.28 LIG-0.35  N 
ATOM     51  C   GLU T 967      26.036  39.568 -10.084  1.00 44.22 LIG 0.26  C 
ATOM     52 O    GLU T 967      26.590  40.289  -9.267  1.00 45.73 LIG-0.27  OA
ATOM     53 H    GLU T 968      24.603  38.274 -10.344  1.00 42.28 LIG 0.16  HD
BRANCH 51 54
ATOM     54  CA  GLU T 967      26.454  39.627 -11.548  1.00 63.10 LIG 0.40  C 
ATOM     55  N   GLU T 967      26.222  38.338 -12.192  1.00 61.06 LIG 0.61  N 
BRANCH 54 56
ATOM     56  CB  GLU T 967      25.681  40.734 -12.264  1.00 76.10 LIG 0.06  C 
BRANCH 56 57
ATOM     57  CG  GLU T 967      24.471  40.235 -13.024  1.00 93.75 LIG 0.12  C 
BRANCH 57 58
ATOM     58  CD  GLU T 967      24.819  39.800 -14.433  1.00103.86 LIG 0.17  C 
ATOM     59 OE1  GLU T 967      25.167  38.616 -14.623  1.00104.00 LIG-0.65  OA
ATOM     60 OE2  GLU T 967      24.735  40.643 -15.352  1.00109.28 LIG-0.65  OA
ENDBRANCH 57 58
ENDBRANCH 56 57
ENDBRANCH 54 56
ENDBRANCH 51 54
ENDBRANCH 44 50
ENDBRANCH 41 44
ENDBRANCH 36 40
ENDBRANCH 33 36
ENDBRANCH 1 32
TORSDOF 26
ENDMDL
MODEL 3
USER: ADFR SOLUTION from run 44
USER: SCORE 18.875837 LL:  -3.877 LR: -16.803 RR:   0.000 FEB:  -9.047
USER: RMSD 13.132782
USER: SEED 43
USER: STATUS no improvement in best in 6 clusters for 5 generations
USER: GENES 28
USER: genes 0 Translation |==|  0.66712 0.37239 0.30162
USER: genes 1 Rotation |==|  0.41037 0.67745 0.04536 0.56145
USER: genes 2 Torsion [N]-CA--C-[N] |==|  0.42229
USER: genes 3 Torsion [C]-N--CA-[CB] |==|  0.50128
USER: genes 4 Torsion [N]-CA--CB-[CG] |==|  0.63482
USER: genes 5 Torsion [CA]-CB--CG-[CD] |==|  0.62838
USER: genes 6 Torsion [CB]-CG--CD-[OE1] |==|  0.30227
USER: genes 7 Torsion [N]-CA--C-[N] |==|  0.84439
USER: genes 8 Torsion [C]-N--CA-[CB] |==|  0.11210
USER: genes 9 Torsion [N]-CA--C-[O] |==|  0.86399
USER: genes 10 Torsion [N]-CA--CB-[CG] |==|  0.63436
USER: genes 11 Torsion [CA]-CB--CG-[CD1] |==|  0.38630
USER: genes 12 Torsion [CE1]-CZ--OH-[HH] |==|  0.49419
USER: genes 13 Torsion [C]-CA--CB-[OG] |==|  0.39810
USER: genes 14 Torsion [CA]-CB--OG-[HG] |==|  0.54117
USER: genes 15 Torsion [C]-CA--N-[C] |==|  0.67947
USER: genes 16 Torsion [N]-C--CA-[N] |==|  0.12122
USER: genes 17 Torsion [C]-CA--CB-[CG1] |==|  0.21544
USER: genes 18 Torsion [C]-CA--N-[C] |==|  0.16492
USER: genes 19 Torsion [N]-C--CA-[N] |==|  0.91382
USER: genes 20 Torsion [C]-CA--CB-[CG] |==|  0.34315
USER: genes 21 Torsion [CA]-CB--CG-[CD] |==|  0.13786
USER: genes 22 Torsion [CB]-CG--CD-[OE1] |==|  0.27975
USER: genes 23 Torsion [C]-CA--N-[C] |==|  0.66707
USER: genes 24 Torsion [N]-C--CA-[N] |==|  0.26386
USER: genes 25 Torsion [C]-CA--CB-[CG] |==|  0.18669
USER: genes 26 Torsion [CA]-CB--CG-[CD] |==|  0.55726
USER: genes 27 Torsion [CB]-CG--CD-[OE1] |==|  0.43865
ROOT
ATOM      1  CA  SER T 970      36.999  35.522 -13.239  1.00 53.81 LIG 0.20  C 
ENDROOT
BRANCH 1 2
ATOM      2  C   SER T 970      36.468  36.949 -13.283  1.00 54.98 LIG 0.24  C 
ATOM      3  N   GLU T 971      35.277  37.102 -13.845  1.00 36.24 LIG-0.35  N 
ATOM      4 H    GLU T 971      34.809  36.480 -14.210  1.00 36.24 LIG 0.16  HD
ATOM      5 O    SER T 970      37.091  37.899 -12.780  1.00 50.73 LIG-0.27  OA
BRANCH 3 6
ATOM      6  CA  GLU T 971      34.696  38.424 -13.855  1.00 34.69 LIG 0.18  C 
BRANCH 6 7
ATOM      7  CB  GLU T 971      33.325  38.429 -14.526  1.00 35.28 LIG 0.04  C 
BRANCH 7 8
ATOM      8  CG  GLU T 971      33.170  39.538 -15.564  1.00 38.63 LIG 0.12  C 
BRANCH 8 9
ATOM      9  CD  GLU T 971      31.848  40.292 -15.425  1.00 44.02 LIG 0.17  C 
ATOM     10 OE1  GLU T 971      31.861  41.468 -14.994  1.00 46.94 LIG-0.65  OA
ATOM     11 OE2  GLU T 971      30.793  39.708 -15.746  1.00 38.45 LIG-0.65  OA
ENDBRANCH 8 9
ENDBRANCH 7 8
ENDBRANCH 6 7
BRANCH 6 12
ATOM     12  C   GLU T 971      34.574  38.936 -12.440  1.00 38.38 LIG 0.24  C 
ATOM     13  N   TYR T 972      33.888  38.150 -11.635  1.00 34.07 LIG-0.34  N 
ATOM     14 H    TYR T 972      33.471  37.444 -11.894  1.00 34.07 LIG 0.16  HD
ATOM     15 O    GLU T 971      35.099  40.004 -12.089  1.00 36.91 LIG-0.27  OA
BRANCH 13 16
ATOM     16  CA  TYR T 972      33.781  38.419 -10.221  1.00 35.97 LIG 0.19  C 
BRANCH 16 17
ATOM     17  C   TYR T 972      32.600  37.635  -9.635  1.00 45.43 LIG 0.20  C 
ATOM     18 OXT  TYR T 972      32.784  36.959  -8.622  1.00 40.76 LIG-0.65  OA
ATOM     19 O    TYR T 972      31.466  37.635 -10.146  1.00 41.72 LIG-0.65  OA
ENDBRANCH 16 17
BRANCH 16 20
ATOM     20  CB  TYR T 972      33.599  39.912  -9.971  1.00 33.99 LIG 0.07  C 
BRANCH 20 21
ATOM     21  CG  TYR T 972      34.536  40.400  -8.915  1.00 33.93 LIG-0.06  A 
ATOM     22  CD1 TYR T 972      35.183  41.620  -9.047  1.00 33.64 LIG 0.01  A 
ATOM     23  CE1 TYR T 972      36.037  42.076  -8.063  1.00 37.50 LIG 0.04  A 
ATOM     24  CZ  TYR T 972      36.228  41.314  -6.939  1.00 37.64 LIG 0.07  A 
ATOM     25  CE2 TYR T 972      35.580  40.115  -6.775  1.00 36.30 LIG 0.04  A 
ATOM     26  CD2 TYR T 972      34.743  39.660  -7.758  1.00 38.70 LIG 0.01  A 
BRANCH 24 27
ATOM     27 OH   TYR T 972      37.074  41.761  -5.967  1.00 40.25 LIG-0.36  OA
ATOM     28 HH   TYR T 972      37.077  41.217  -5.327  1.00 40.25 LIG 0.22  HD
ENDBRANCH 24 27
ENDBRANCH 20 21
ENDBRANCH 16 20
ENDBRANCH 13 16
ENDBRANCH 6 12
ENDBRANCH 3 6
ENDBRANCH 1 2
BRANCH 1 29
ATOM     29  CB  SER T 970      36.402  34.831 -12.008  1.00 55.16 LIG 0.20  C 
BRANCH 29 30
ATOM     30 OG   SER T 970      36.115  33.472 -12.283  1.00 59.72 LIG-0.40  OA
ATOM     31 HG   SER T 970      35.612  33.165 -11.684  1.00 59.72 LIG 0.21  HD
ENDBRANCH 29 30
ENDBRANCH 1 29
BRANCH 1 32
ATOM     32  N   SER T 970      38.460  35.379 -13.239  1.00 52.51 LIG-0.34  N 
ATOM     33  C   VAL T 969      39.108  34.796 -14.245  1.00 50.69 LIG 0.24  C 
ATOM     34 O    VAL T 969      38.587  34.591 -15.342  1.00 50.98 LIG-0.27  OA
ATOM     35 H    SER T 970      38.848  35.701 -12.542  1.00 52.51 LIG 0.16  HD
BRANCH 33 36
ATOM     36  CA  VAL T 969      40.587  34.444 -13.997  1.00 48.28 LIG 0.18  C 
BRANCH 36 37
ATOM     37  CB  VAL T 969      41.122  33.488 -15.075  1.00 45.61 LIG 0.01  C 
ATOM     38  CG1 VAL T 969      41.430  34.225 -16.377  1.00 51.33 LIG 0.01  C 
ATOM     39  CG2 VAL T 969      42.369  32.767 -14.562  1.00 51.13 LIG 0.01  C 
ENDBRANCH 36 37
BRANCH 36 40
ATOM     40  N   VAL T 969      40.721  33.859 -12.676  1.00 42.62 LIG-0.35  N 
ATOM     41  C   GLU T 968      40.062  32.755 -12.365  1.00 39.23 LIG 0.24  C 
ATOM     42 O    GLU T 968      39.245  32.231 -13.114  1.00 41.64 LIG-0.27  OA
ATOM     43 H    VAL T 969      41.246  34.281 -12.142  1.00 42.62 LIG 0.16  HD
BRANCH 41 44
ATOM     44  CA  GLU T 968      40.400  32.103 -11.041  1.00 43.46 LIG 0.18  C 
BRANCH 44 45
ATOM     45  CB  GLU T 968      39.455  32.695 -10.010  1.00 39.65 LIG 0.04  C 
BRANCH 45 46
ATOM     46  CG  GLU T 968      38.607  31.770  -9.233  1.00 48.42 LIG 0.12  C 
BRANCH 46 47
ATOM     47  CD  GLU T 968      39.474  30.665  -8.670  1.00 46.07 LIG 0.17  C 
ATOM     48 OE1  GLU T 968      39.816  30.752  -7.463  1.00 37.62 LIG-0.65  OA
ATOM     49 OE2  GLU T 968      39.750  29.689  -9.409  1.00 42.01 LIG-0.65  OA
ENDBRANCH 46 47
ENDBRANCH 45 46
ENDBRANCH 44 45
BRANCH 44 50
ATOM     50  N   GLU T 968      41.797  32.321 -10.674  1.00 42.28 LIG-0.35  N 
ATOM     51  C   GLU T 967      42.642  31.306 -10.493  1.00 44.22 LIG 0.26  C 
ATOM     52 O    GLU T 967      42.292  30.135 -10.493  1.00 45.73 LIG-0.27  OA
ATOM     53 H    GLU T 968      42.016  33.148 -10.587  1.00 42.28 LIG 0.16  HD
BRANCH 51 54
ATOM     54  CA  GLU T 967      44.108  31.657 -10.270  1.00 63.10 LIG 0.40  C 
ATOM     55  N   GLU T 967      44.402  31.713  -8.841  1.00 61.06 LIG 0.61  N 
BRANCH 54 56
ATOM     56  CB  GLU T 967      44.999  30.627 -10.963  1.00 76.10 LIG 0.06  C 
BRANCH 56 57
ATOM     57  CG  GLU T 967      44.910  30.666 -12.473  1.00 93.75 LIG 0.12  C 
BRANCH 57 58
ATOM     58  CD  GLU T 967      45.378  29.372 -13.107  1.00103.86 LIG 0.17  C 
ATOM     59 OE1  GLU T 967      44.985  29.097 -14.260  1.00104.00 LIG-0.65  OA
ATOM     60 OE2  GLU T 967      46.148  28.635 -12.453  1.00109.28 LIG-0.65  OA
ENDBRANCH 57 58
ENDBRANCH 56 57
ENDBRANCH 54 56
ENDBRANCH 51 54
ENDBRANCH 44 50
ENDBRANCH 41 44
ENDBRANCH 36 40
ENDBRANCH 33 36
ENDBRANCH 1 32
TORSDOF 26
ENDMDL
MODEL 4
USER: ADFR SOLUTION from run 153
USER: SCORE 17.970511 LL:  -4.040 LR: -16.780 RR:   0.000 FEB:  -9.025
USER: RMSD 11.290624
USER: SEED 152
USER: STATUS no improvement in best in 26 clusters for 5 generations
USER: GENES 28
USER: genes 0 Translation |==|  0.58133 0.50582 0.36934
USER: genes 1 Rotation |==|  0.73373 0.91575 0.35777 0.54787
USER: genes 2 Torsion [N]-CA--C-[N] |==|  0.18850
USER: genes 3 Torsion [C]-N--CA-[CB] |==|  0.79909
USER: genes 4 Torsion [N]-CA--CB-[CG] |==|  0.95778
USER: genes 5 Torsion [CA]-CB--CG-[CD] |==|  0.41846
USER: genes 6 Torsion [CB]-CG--CD-[OE1] |==|  0.01471
USER: genes 7 Torsion [N]-CA--C-[N] |==|  0.68087
USER: genes 8 Torsion [C]-N--CA-[CB] |==|  0.29738
USER: genes 9 Torsion [N]-CA--C-[O] |==|  0.65563
USER: genes 10 Torsion [N]-CA--CB-[CG] |==|  0.62746
USER: genes 11 Torsion [CA]-CB--CG-[CD1] |==|  0.43636
USER: genes 12 Torsion [CE1]-CZ--OH-[HH] |==|  0.92835
USER: genes 13 Torsion [C]-CA--CB-[OG] |==|  0.54643
USER: genes 14 Torsion [CA]-CB--OG-[HG] |==|  0.27816
USER: genes 15 Torsion [C]-CA--N-[C] |==|  0.76111
USER: genes 16 Torsion [N]-C--CA-[N] |==|  0.67960
USER: genes 17 Torsion [C]-CA--CB-[CG1] |==|  0.38545
USER: genes 18 Torsion [C]-CA--N-[C] |==|  0.55667
USER: genes 19 Torsion [N]-C--CA-[N] |==|  0.86711
USER: genes 20 Torsion [C]-CA--CB-[CG] |==|  0.43393
USER: genes 21 Torsion [CA]-CB--CG-[CD] |==|  0.77210
USER: genes 22 Torsion [CB]-CG--CD-[OE1] |==|  0.67943
USER: genes 23 Torsion [C]-CA--N-[C] |==|  0.72933
USER: genes 24 Torsion [N]-C--CA-[N] |==|  0.22650
USER: genes 25 Torsion [C]-CA--CB-[CG] |==|  0.46032
USER: genes 26 Torsion [CA]-CB--CG-[CD] |==|  0.94984
USER: genes 27 Torsion [CB]-CG--CD-[OE1] |==|  0.71184
ROOT
ATOM      1  CA  SER T 970      34.554  38.124 -11.919  1.00 53.81 LIG 0.20  C 
ENDROOT
BRANCH 1 2
ATOM      2  C   SER T 970      33.818  38.306 -10.597  1.00 54.98 LIG 0.24  C 
ATOM      3  N   GLU T 971      34.585  38.538  -9.540  1.00 36.24 LIG-0.35  N 
ATOM      4 H    GLU T 971      35.445  38.557  -9.536  1.00 36.24 LIG 0.16  HD
ATOM      5 O    SER T 970      32.578  38.285 -10.525  1.00 50.73 LIG-0.27  OA
BRANCH 3 6
ATOM      6  CA  GLU T 971      33.937  38.782  -8.273  1.00 34.69 LIG 0.18  C 
BRANCH 6 7
ATOM      7  CB  GLU T 971      33.273  40.156  -8.239  1.00 35.28 LIG 0.04  C 
BRANCH 7 8
ATOM      8  CG  GLU T 971      33.743  41.077  -9.363  1.00 38.63 LIG 0.12  C 
BRANCH 8 9
ATOM      9  CD  GLU T 971      32.673  42.082  -9.785  1.00 44.02 LIG 0.17  C 
ATOM     10 OE1  GLU T 971      31.600  42.134  -9.142  1.00 46.94 LIG-0.65  OA
ATOM     11 OE2  GLU T 971      32.905  42.821 -10.764  1.00 38.45 LIG-0.65  OA
ENDBRANCH 8 9
ENDBRANCH 7 8
ENDBRANCH 6 7
BRANCH 6 12
ATOM     12  C   GLU T 971      32.907  37.710  -8.014  1.00 38.38 LIG 0.24  C 
ATOM     13  N   TYR T 972      31.664  38.146  -7.983  1.00 34.07 LIG-0.34  N 
ATOM     14 H    TYR T 972      31.446  38.977  -8.024  1.00 34.07 LIG 0.16  HD
ATOM     15 O    GLU T 971      33.231  36.522  -7.861  1.00 36.91 LIG-0.27  OA
BRANCH 13 16
ATOM     16  CA  TYR T 972      30.544  37.242  -7.876  1.00 35.97 LIG 0.19  C 
BRANCH 16 17
ATOM     17  C   TYR T 972      29.495  37.591  -8.939  1.00 45.43 LIG 0.20  C 
ATOM     18 OXT  TYR T 972      29.843  37.635 -10.119  1.00 40.76 LIG-0.65  OA
ATOM     19 O    TYR T 972      28.310  37.851  -8.663  1.00 41.72 LIG-0.65  OA
ENDBRANCH 16 17
BRANCH 16 20
ATOM     20  CB  TYR T 972      29.927  37.314  -6.483  1.00 33.99 LIG 0.07  C 
BRANCH 20 21
ATOM     21  CG  TYR T 972      29.668  35.949  -5.936  1.00 33.93 LIG-0.06  A 
ATOM     22  CD1 TYR T 972      29.567  35.737  -4.569  1.00 33.64 LIG 0.01  A 
ATOM     23  CE1 TYR T 972      29.312  34.477  -4.067  1.00 37.50 LIG 0.04  A 
ATOM     24  CZ  TYR T 972      29.143  33.432  -4.938  1.00 37.64 LIG 0.07  A 
ATOM     25  CE2 TYR T 972      29.215  33.622  -6.297  1.00 36.30 LIG 0.04  A 
ATOM     26  CD2 TYR T 972      29.479  34.870  -6.790  1.00 38.70 LIG 0.01  A 
BRANCH 24 27
ATOM     27 OH   TYR T 972      28.895  32.186  -4.445  1.00 40.25 LIG-0.36  OA
ATOM     28 HH   TYR T 972      29.210  32.124  -3.669  1.00 40.25 LIG 0.22  HD
ENDBRANCH 24 27
ENDBRANCH 20 21
ENDBRANCH 16 20
ENDBRANCH 13 16
ENDBRANCH 6 12
ENDBRANCH 3 6
ENDBRANCH 1 2
BRANCH 1 29
ATOM     29  CB  SER T 970      33.517  38.168 -13.048  1.00 55.16 LIG 0.20  C 
BRANCH 29 30
ATOM     30 OG   SER T 970      34.054  37.635 -14.244  1.00 59.72 LIG-0.40  OA
ATOM     31 HG   SER T 970      33.788  36.844 -14.343  1.00 59.72 LIG 0.21  HD
ENDBRANCH 29 30
ENDBRANCH 1 29
BRANCH 1 32
ATOM     32  N   SER T 970      35.376  36.913 -12.037  1.00 52.51 LIG-0.34  N 
ATOM     33  C   VAL T 969      36.634  36.874 -11.604  1.00 50.69 LIG 0.24  C 
ATOM     34 O    VAL T 969      37.102  37.723 -10.845  1.00 50.98 LIG-0.27  OA
ATOM     35 H    SER T 970      34.974  36.246 -12.404  1.00 52.51 LIG 0.16  HD
BRANCH 33 36
ATOM     36  CA  VAL T 969      37.475  35.662 -12.045  1.00 48.28 LIG 0.18  C 
BRANCH 36 37
ATOM     37  CB  VAL T 969      36.719  34.801 -13.070  1.00 45.61 LIG 0.01  C 
ATOM     38  CG1 VAL T 969      37.642  34.325 -14.191  1.00 51.33 LIG 0.01  C 
ATOM     39  CG2 VAL T 969      36.069  33.606 -12.371  1.00 51.13 LIG 0.01  C 
ENDBRANCH 36 37
BRANCH 36 40
ATOM     40  N   VAL T 969      37.828  34.879 -10.875  1.00 42.62 LIG-0.35  N 
ATOM     41  C   GLU T 968      38.851  34.041 -10.916  1.00 39.23 LIG 0.24  C 
ATOM     42 O    GLU T 968      39.482  33.808 -11.941  1.00 41.64 LIG-0.27  OA
ATOM     43 H    VAL T 969      37.329  35.007 -10.187  1.00 42.62 LIG 0.16  HD
BRANCH 41 44
ATOM     44  CA  GLU T 968      39.273  33.407  -9.607  1.00 43.46 LIG 0.18  C 
BRANCH 44 45
ATOM     45  CB  GLU T 968      38.226  32.359  -9.274  1.00 39.65 LIG 0.04  C 
BRANCH 45 46
ATOM     46  CG  GLU T 968      38.618  31.245  -8.388  1.00 48.42 LIG 0.12  C 
BRANCH 46 47
ATOM     47  CD  GLU T 968      39.330  30.192  -9.210  1.00 46.07 LIG 0.17  C 
ATOM     48 OE1  GLU T 968      38.781  29.066  -9.315  1.00 37.62 LIG-0.65  OA
ATOM     49 OE2  GLU T 968      40.390  30.514  -9.799  1.00 42.01 LIG-0.65  OA
ENDBRANCH 46 47
ENDBRANCH 45 46
ENDBRANCH 44 45
BRANCH 44 50
ATOM     50  N   GLU T 968      39.394  34.399  -8.542  1.00 42.28 LIG-0.35  N 
ATOM     51  C   GLU T 967      40.570  34.930  -8.207  1.00 44.22 LIG 0.26  C 
ATOM     52 O    GLU T 967      41.635  34.541  -8.664  1.00 45.73 LIG-0.27  OA
ATOM     53 H    GLU T 968      38.651  34.603  -8.161  1.00 42.28 LIG 0.16  HD
BRANCH 51 54
ATOM     54  CA  GLU T 967      40.554  36.067  -7.193  1.00 63.10 LIG 0.40  C 
ATOM     55  N   GLU T 967      40.465  35.535  -5.837  1.00 61.06 LIG 0.61  N 
BRANCH 54 56
ATOM     56  CB  GLU T 967      41.809  36.924  -7.354  1.00 76.10 LIG 0.06  C 
BRANCH 56 57
ATOM     57  CG  GLU T 967      41.729  38.257  -6.642  1.00 93.75 LIG 0.12  C 
BRANCH 57 58
ATOM     58  CD  GLU T 967      40.302  38.639  -6.302  1.00103.86 LIG 0.17  C 
ATOM     59 OE1  GLU T 967      39.736  39.507  -6.999  1.00104.00 LIG-0.65  OA
ATOM     60 OE2  GLU T 967      39.746  38.063  -5.343  1.00109.28 LIG-0.65  OA
ENDBRANCH 57 58
ENDBRANCH 56 57
ENDBRANCH 54 56
ENDBRANCH 51 54
ENDBRANCH 44 50
ENDBRANCH 41 44
ENDBRANCH 36 40
ENDBRANCH 33 36
ENDBRANCH 1 32
TORSDOF 26
ENDMDL
MODEL 5
USER: ADFR SOLUTION from run 87
USER: SCORE 18.730767 LL:  -4.652 LR: -16.537 RR:   0.000 FEB:  -8.781
USER: RMSD 5.940948
USER: SEED 86
USER: STATUS no improvement in best in 14 clusters for 5 generations
USER: GENES 28
USER: genes 0 Translation |==|  0.48192 0.49900 0.57790
USER: genes 1 Rotation |==|  0.67541 0.45759 0.61791 0.95114
USER: genes 2 Torsion [N]-CA--C-[N] |==|  0.53333
USER: genes 3 Torsion [C]-N--CA-[CB] |==|  0.29312
USER: genes 4 Torsion [N]-CA--CB-[CG] |==|  0.09599
USER: genes 5 Torsion [CA]-CB--CG-[CD] |==|  0.70759
USER: genes 6 Torsion [CB]-CG--CD-[OE1] |==|  0.74567
USER: genes 7 Torsion [N]-CA--C-[N] |==|  0.35529
USER: genes 8 Torsion [C]-N--CA-[CB] |==|  0.55532
USER: genes 9 Torsion [N]-CA--C-[O] |==|  0.88658
USER: genes 10 Torsion [N]-CA--CB-[CG] |==|  0.16374
USER: genes 11 Torsion [CA]-CB--CG-[CD1] |==|  0.25551
USER: genes 12 Torsion [CE1]-CZ--OH-[HH] |==|  0.12904
USER: genes 13 Torsion [C]-CA--CB-[OG] |==|  0.76637
USER: genes 14 Torsion [CA]-CB--OG-[HG] |==|  0.30010
USER: genes 15 Torsion [C]-CA--N-[C] |==|  0.82095
USER: genes 16 Torsion [N]-C--CA-[N] |==|  0.50239
USER: genes 17 Torsion [C]-CA--CB-[CG1] |==|  0.20438
USER: genes 18 Torsion [C]-CA--N-[C] |==|  0.66713
USER: genes 19 Torsion [N]-C--CA-[N] |==|  0.95176
USER: genes 20 Torsion [C]-CA--CB-[CG] |==|  0.45251
USER: genes 21 Torsion [CA]-CB--CG-[CD] |==|  0.26724
USER: genes 22 Torsion [CB]-CG--CD-[OE1] |==|  0.76251
USER: genes 23 Torsion [C]-CA--N-[C] |==|  0.81478
USER: genes 24 Torsion [N]-C--CA-[N] |==|  0.91689
USER: genes 25 Torsion [C]-CA--CB-[CG] |==|  0.73456
USER: genes 26 Torsion [CA]-CB--CG-[CD] |==|  0.74458
USER: genes 27 Torsion [CB]-CG--CD-[OE1] |==|  0.23065
ROOT
ATOM      1  CA  SER T 970      31.721  37.990  -7.852  1.00 53.81 LIG 0.20  C 
ENDROOT
BRANCH 1 2
ATOM      2  C   SER T 970      32.188  38.053  -9.301  1.00 54.98 LIG 0.24  C 
ATOM      3  N   GLU T 971      33.409  38.535  -9.491  1.00 36.24 LIG-0.35  N 
ATOM      4 H    GLU T 971      33.930  38.840  -8.879  1.00 36.24 LIG 0.16  HD
ATOM      5 O    SER T 970      31.487  37.634 -10.237  1.00 50.73 LIG-0.27  OA
BRANCH 3 6
ATOM      6  CA  GLU T 971      33.928  38.556 -10.838  1.00 34.69 LIG 0.18  C 
BRANCH 6 7
ATOM      7  CB  GLU T 971      33.931  39.969 -11.415  1.00 35.28 LIG 0.04  C 
BRANCH 7 8
ATOM      8  CG  GLU T 971      34.222  41.043 -10.368  1.00 38.63 LIG 0.12  C 
BRANCH 8 9
ATOM      9  CD  GLU T 971      32.973  41.827  -9.969  1.00 44.02 LIG 0.17  C 
ATOM     10 OE1  GLU T 971      32.690  42.878 -10.587  1.00 46.94 LIG-0.65  OA
ATOM     11 OE2  GLU T 971      32.271  41.390  -9.033  1.00 38.45 LIG-0.65  OA
ENDBRANCH 8 9
ENDBRANCH 7 8
ENDBRANCH 6 7
BRANCH 6 12
ATOM     12  C   GLU T 971      35.330  37.996 -10.851  1.00 38.38 LIG 0.24  C 
ATOM     13  N   TYR T 972      35.523  37.035 -11.732  1.00 34.07 LIG-0.34  N 
ATOM     14 H    TYR T 972      34.898  36.689 -12.210  1.00 34.07 LIG 0.16  HD
ATOM     15 O    GLU T 971      36.210  38.432 -10.093  1.00 36.91 LIG-0.27  OA
BRANCH 13 16
ATOM     16  CA  TYR T 972      36.833  36.475 -11.969  1.00 35.97 LIG 0.19  C 
BRANCH 16 17
ATOM     17  C   TYR T 972      37.887  37.588 -11.916  1.00 45.43 LIG 0.20  C 
ATOM     18 OXT  TYR T 972      38.951  37.365 -11.338  1.00 40.76 LIG-0.65  OA
ATOM     19 O    TYR T 972      37.710  38.714 -12.413  1.00 41.72 LIG-0.65  OA
ENDBRANCH 16 17
BRANCH 16 20
ATOM     20  CB  TYR T 972      36.877  35.771 -13.322  1.00 33.99 LIG 0.07  C 
BRANCH 20 21
ATOM     21  CG  TYR T 972      36.547  36.715 -14.431  1.00 33.93 LIG-0.06  A 
ATOM     22  CD1 TYR T 972      37.546  37.412 -15.094  1.00 33.64 LIG 0.01  A 
ATOM     23  CE1 TYR T 972      37.239  38.272 -16.129  1.00 37.50 LIG 0.04  A 
ATOM     24  CZ  TYR T 972      35.930  38.419 -16.510  1.00 37.64 LIG 0.07  A 
ATOM     25  CE2 TYR T 972      34.926  37.721 -15.885  1.00 36.30 LIG 0.04  A 
ATOM     26  CD2 TYR T 972      35.233  36.878 -14.852  1.00 38.70 LIG 0.01  A 
BRANCH 24 27
ATOM     27 OH   TYR T 972      35.625  39.270 -17.530  1.00 40.25 LIG-0.36  OA
ATOM     28 HH   TYR T 972      36.151  39.140 -18.171  1.00 40.25 LIG 0.22  HD
ENDBRANCH 24 27
ENDBRANCH 20 21
ENDBRANCH 16 20
ENDBRANCH 13 16
ENDBRANCH 6 12
ENDBRANCH 3 6
ENDBRANCH 1 2
BRANCH 1 29
ATOM     29  CB  SER T 970      32.874  37.440  -7.005  1.00 55.16 LIG 0.20  C 
BRANCH 29 30
ATOM     30 OG   SER T 970      32.888  36.025  -7.034  1.00 59.72 LIG-0.40  OA
ATOM     31 HG   SER T 970      33.538  35.760  -7.496  1.00 59.72 LIG 0.21  HD
ENDBRANCH 29 30
ENDBRANCH 1 29
BRANCH 1 32
ATOM     32  N   SER T 970      30.498  37.216  -7.603  1.00 52.51 LIG-0.34  N 
ATOM     33  C   VAL T 969      29.321  37.583  -8.105  1.00 50.69 LIG 0.24  C 
ATOM     34 O    VAL T 969      29.214  38.408  -9.013  1.00 50.98 LIG-0.27  OA
ATOM     35 H    SER T 970      30.614  36.519  -7.113  1.00 52.51 LIG 0.16  HD
BRANCH 33 36
ATOM     36  CA  VAL T 969      28.080  36.869  -7.538  1.00 48.28 LIG 0.18  C 
BRANCH 36 37
ATOM     37  CB  VAL T 969      28.191  35.345  -7.700  1.00 45.61 LIG 0.01  C 
ATOM     38  CG1 VAL T 969      29.195  34.747  -6.716  1.00 51.33 LIG 0.01  C 
ATOM     39  CG2 VAL T 969      26.817  34.698  -7.518  1.00 51.13 LIG 0.01  C 
ENDBRANCH 36 37
BRANCH 36 40
ATOM     40  N   VAL T 969      26.895  37.373  -8.207  1.00 42.62 LIG-0.35  N 
ATOM     41  C   GLU T 968      25.936  37.963  -7.513  1.00 39.23 LIG 0.24  C 
ATOM     42 O    GLU T 968      25.942  38.028  -6.288  1.00 41.64 LIG-0.27  OA
ATOM     43 H    VAL T 969      26.881  37.256  -9.058  1.00 42.62 LIG 0.16  HD
BRANCH 41 44
ATOM     44  CA  GLU T 968      24.828  38.630  -8.300  1.00 43.46 LIG 0.18  C 
BRANCH 44 45
ATOM     45  CB  GLU T 968      23.616  37.720  -8.202  1.00 39.65 LIG 0.04  C 
BRANCH 45 46
ATOM     46  CG  GLU T 968      22.295  38.285  -8.541  1.00 48.42 LIG 0.12  C 
BRANCH 46 47
ATOM     47  CD  GLU T 968      21.972  37.947  -9.980  1.00 46.07 LIG 0.17  C 
ATOM     48 OE1  GLU T 968      22.412  38.717 -10.871  1.00 37.62 LIG-0.65  OA
ATOM     49 OE2  GLU T 968      21.346  36.885 -10.215  1.00 42.01 LIG-0.65  OA
ENDBRANCH 46 47
ENDBRANCH 45 46
ENDBRANCH 44 45
BRANCH 44 50
ATOM     50  N   GLU T 968      25.216  38.856  -9.690  1.00 42.28 LIG-0.35  N 
ATOM     51  C   GLU T 967      26.181  39.714 -10.019  1.00 44.22 LIG 0.26  C 
ATOM     52 O    GLU T 967      26.718  40.460  -9.212  1.00 45.73 LIG-0.27  OA
ATOM     53 H    GLU T 968      24.771  38.393 -10.262  1.00 42.28 LIG 0.16  HD
BRANCH 51 54
ATOM     54  CA  GLU T 967      26.607  39.751 -11.481  1.00 63.10 LIG 0.40  C 
ATOM     55  N   GLU T 967      26.422  38.440 -12.095  1.00 61.06 LIG 0.61  N 
BRANCH 54 56
ATOM     56  CB  GLU T 967      25.804  40.814 -12.229  1.00 76.10 LIG 0.06  C 
BRANCH 56 57
ATOM     57  CG  GLU T 967      24.589  40.265 -12.944  1.00 93.75 LIG 0.12  C 
BRANCH 57 58
ATOM     58  CD  GLU T 967      24.893  39.879 -14.377  1.00103.86 LIG 0.17  C 
ATOM     59 OE1  GLU T 967      25.402  38.760 -14.597  1.00104.00 LIG-0.65  OA
ATOM     60 OE2  GLU T 967      24.614  40.693 -15.283  1.00109.28 LIG-0.65  OA
ENDBRANCH 57 58
ENDBRANCH 56 57
ENDBRANCH 54 56
ENDBRANCH 51 54
ENDBRANCH 44 50
ENDBRANCH 41 44
ENDBRANCH 36 40
ENDBRANCH 33 36
ENDBRANCH 1 32
TORSDOF 26
ENDMDL
MODEL 6
USER: ADFR SOLUTION from run 87
USER: SCORE 18.222417 LL:  -4.819 LR: -16.437 RR:   0.000 FEB:  -8.681
USER: RMSD 4.658399
USER: SEED 86
USER: STATUS no improvement in best in 14 clusters for 5 generations
USER: GENES 28
USER: genes 0 Translation |==|  0.47925 0.49698 0.57156
USER: genes 1 Rotation |==|  0.68644 0.43169 0.58032 0.95180
USER: genes 2 Torsion [N]-CA--C-[N] |==|  0.50433
USER: genes 3 Torsion [C]-N--CA-[CB] |==|  0.30523
USER: genes 4 Torsion [N]-CA--CB-[CG] |==|  0.07931
USER: genes 5 Torsion [CA]-CB--CG-[CD] |==|  0.72464
USER: genes 6 Torsion [CB]-CG--CD-[OE1] |==|  0.75481
USER: genes 7 Torsion [N]-CA--C-[N] |==|  0.29999
USER: genes 8 Torsion [C]-N--CA-[CB] |==|  0.48407
USER: genes 9 Torsion [N]-CA--C-[O] |==|  0.88213
USER: genes 10 Torsion [N]-CA--CB-[CG] |==|  0.44527
USER: genes 11 Torsion [CA]-CB--CG-[CD1] |==|  0.73400
USER: genes 12 Torsion [CE1]-CZ--OH-[HH] |==|  0.16285
USER: genes 13 Torsion [C]-CA--CB-[OG] |==|  0.75156
USER: genes 14 Torsion [CA]-CB--OG-[HG] |==|  0.33813
USER: genes 15 Torsion [C]-CA--N-[C] |==|  0.73907
USER: genes 16 Torsion [N]-C--CA-[N] |==|  0.60989
USER: genes 17 Torsion [C]-CA--CB-[CG1] |==|  0.22116
USER: genes 18 Torsion [C]-CA--N-[C] |==|  0.14169
USER: genes 19 Torsion [N]-C--CA-[N] |==|  0.94610
USER: genes 20 Torsion [C]-CA--CB-[CG] |==|  0.42790
USER: genes 21 Torsion [CA]-CB--CG-[CD] |==|  0.14453
USER: genes 22 Torsion [CB]-CG--CD-[OE1] |==|  0.77588
USER: genes 23 Torsion [C]-CA--N-[C] |==|  0.21567
USER: genes 24 Torsion [N]-C--CA-[N] |==|  0.80585
USER: genes 25 Torsion [C]-CA--CB-[CG] |==|  0.79570
USER: genes 26 Torsion [CA]-CB--CG-[CD] |==|  0.76201
USER: genes 27 Torsion [CB]-CG--CD-[OE1] |==|  0.25237
ROOT
ATOM      1  CA  SER T 970      31.645  37.951  -7.976  1.00 53.81 LIG 0.20  C 
ENDROOT
BRANCH 1 2
ATOM      2  C   SER T 970      32.168  38.040  -9.404  1.00 54.98 LIG 0.24  C 
ATOM      3  N   GLU T 971      33.394  38.527  -9.538  1.00 36.24 LIG-0.35  N 
ATOM      4 H    GLU T 971      33.890  38.824  -8.901  1.00 36.24 LIG 0.16  HD
ATOM      5 O    SER T 970      31.506  37.635 -10.374  1.00 50.73 LIG-0.27  OA
BRANCH 3 6
ATOM      6  CA  GLU T 971      33.965  38.573 -10.863  1.00 34.69 LIG 0.18  C 
BRANCH 6 7
ATOM      7  CB  GLU T 971      34.085  40.007 -11.372  1.00 35.28 LIG 0.04  C 
BRANCH 7 8
ATOM      8  CG  GLU T 971      34.260  41.028 -10.251  1.00 38.63 LIG 0.12  C 
BRANCH 8 9
ATOM      9  CD  GLU T 971      32.953  41.731  -9.887  1.00 44.02 LIG 0.17  C 
ATOM     10 OE1  GLU T 971      32.628  42.770 -10.506  1.00 46.94 LIG-0.65  OA
ATOM     11 OE2  GLU T 971      32.249  41.244  -8.979  1.00 38.45 LIG-0.65  OA
ENDBRANCH 8 9
ENDBRANCH 7 8
ENDBRANCH 6 7
BRANCH 6 12
ATOM     12  C   GLU T 971      35.326  37.920 -10.851  1.00 38.38 LIG 0.24  C 
ATOM     13  N   TYR T 972      35.372  36.748 -11.452  1.00 34.07 LIG-0.34  N 
ATOM     14 H    TYR T 972      34.680  36.339 -11.758  1.00 34.07 LIG 0.16  HD
ATOM     15 O    GLU T 971      36.306  38.470 -10.325  1.00 36.91 LIG-0.27  OA
BRANCH 13 16
ATOM     16  CA  TYR T 972      36.616  36.042 -11.648  1.00 35.97 LIG 0.19  C 
BRANCH 16 17
ATOM     17  C   TYR T 972      37.528  36.854 -12.576  1.00 45.43 LIG 0.20  C 
ATOM     18 OXT  TYR T 972      38.721  36.958 -12.287  1.00 40.76 LIG-0.65  OA
ATOM     19 O    TYR T 972      37.116  37.428 -13.600  1.00 41.72 LIG-0.65  OA
ENDBRANCH 16 17
BRANCH 16 20
ATOM     20  CB  TYR T 972      36.361  34.659 -12.237  1.00 33.99 LIG 0.07  C 
BRANCH 20 21
ATOM     21  CG  TYR T 972      37.593  34.110 -12.878  1.00 33.93 LIG-0.06  A 
ATOM     22  CD1 TYR T 972      37.807  34.246 -14.242  1.00 33.64 LIG 0.01  A 
ATOM     23  CE1 TYR T 972      38.954  33.752 -14.829  1.00 37.50 LIG 0.04  A 
ATOM     24  CZ  TYR T 972      39.895  33.136 -14.045  1.00 37.64 LIG 0.07  A 
ATOM     25  CE2 TYR T 972      39.717  33.012 -12.688  1.00 36.30 LIG 0.04  A 
ATOM     26  CD2 TYR T 972      38.573  33.492 -12.111  1.00 38.70 LIG 0.01  A 
BRANCH 24 27
ATOM     27 OH   TYR T 972      41.027  32.645 -14.623  1.00 40.25 LIG-0.36  OA
ATOM     28 HH   TYR T 972      41.435  33.266 -15.013  1.00 40.25 LIG 0.22  HD
ENDBRANCH 24 27
ENDBRANCH 20 21
ENDBRANCH 16 20
ENDBRANCH 13 16
ENDBRANCH 6 12
ENDBRANCH 3 6
ENDBRANCH 1 2
BRANCH 1 29
ATOM     29  CB  SER T 970      32.659  37.153  -7.147  1.00 55.16 LIG 0.20  C 
BRANCH 29 30
ATOM     30 OG   SER T 970      32.363  35.769  -7.189  1.00 59.72 LIG-0.40  OA
ATOM     31 HG   SER T 970      33.023  35.350  -7.496  1.00 59.72 LIG 0.21  HD
ENDBRANCH 29 30
ENDBRANCH 1 29
BRANCH 1 32
ATOM     32  N   SER T 970      30.302  37.379  -7.817  1.00 52.51 LIG-0.34  N 
ATOM     33  C   VAL T 969      29.215  38.145  -7.766  1.00 50.69 LIG 0.24  C 
ATOM     34 O    VAL T 969      29.216  39.325  -8.117  1.00 50.98 LIG-0.27  OA
ATOM     35 H    SER T 970      30.287  36.520  -7.761  1.00 52.51 LIG 0.16  HD
BRANCH 33 36
ATOM     36  CA  VAL T 969      27.914  37.461  -7.306  1.00 48.28 LIG 0.18  C 
BRANCH 36 37
ATOM     37  CB  VAL T 969      28.019  35.931  -7.412  1.00 45.61 LIG 0.01  C 
ATOM     38  CG1 VAL T 969      28.789  35.339  -6.232  1.00 51.33 LIG 0.01  C 
ATOM     39  CG2 VAL T 969      26.623  35.315  -7.501  1.00 51.13 LIG 0.01  C 
ENDBRANCH 36 37
BRANCH 36 40
ATOM     40  N   VAL T 969      26.809  37.957  -8.105  1.00 42.62 LIG-0.35  N 
ATOM     41  C   GLU T 968      26.886  37.959  -9.425  1.00 39.23 LIG 0.24  C 
ATOM     42 O    GLU T 968      27.902  37.644 -10.034  1.00 41.64 LIG-0.27  OA
ATOM     43 H    VAL T 969      26.132  38.238  -7.654  1.00 42.62 LIG 0.16  HD
BRANCH 41 44
ATOM     44  CA  GLU T 968      25.626  38.311 -10.187  1.00 43.46 LIG 0.18  C 
BRANCH 44 45
ATOM     45  CB  GLU T 968      25.788  39.746 -10.658  1.00 39.65 LIG 0.04  C 
BRANCH 45 46
ATOM     46  CG  GLU T 968      25.048  40.169 -11.862  1.00 48.42 LIG 0.12  C 
BRANCH 46 47
ATOM     47  CD  GLU T 968      23.588  39.812 -11.691  1.00 46.07 LIG 0.17  C 
ATOM     48 OE1  GLU T 968      23.248  38.624 -11.922  1.00 37.62 LIG-0.65  OA
ATOM     49 OE2  GLU T 968      22.806  40.695 -11.262  1.00 42.01 LIG-0.65  OA
ENDBRANCH 46 47
ENDBRANCH 45 46
ENDBRANCH 44 45
BRANCH 44 50
ATOM     50  N   GLU T 968      24.433  38.151  -9.360  1.00 42.28 LIG-0.35  N 
ATOM     51  C   GLU T 967      24.089  39.054  -8.441  1.00 44.22 LIG 0.26  C 
ATOM     52 O    GLU T 967      24.799  40.001  -8.134  1.00 45.73 LIG-0.27  OA
ATOM     53 H    GLU T 968      23.984  37.435  -9.519  1.00 42.28 LIG 0.16  HD
BRANCH 51 54
ATOM     54  CA  GLU T 967      22.745  38.863  -7.751  1.00 63.10 LIG 0.40  C 
ATOM     55  N   GLU T 967      21.655  39.121  -8.686  1.00 61.06 LIG 0.61  N 
BRANCH 54 56
ATOM     56  CB  GLU T 967      22.647  37.447  -7.187  1.00 76.10 LIG 0.06  C 
BRANCH 56 57
ATOM     57  CG  GLU T 967      22.439  36.385  -8.246  1.00 93.75 LIG 0.12  C 
BRANCH 57 58
ATOM     58  CD  GLU T 967      20.975  36.205  -8.595  1.00103.86 LIG 0.17  C 
ATOM     59 OE1  GLU T 967      20.496  36.885  -9.526  1.00104.00 LIG-0.65  OA
ATOM     60 OE2  GLU T 967      20.308  35.374  -7.942  1.00109.28 LIG-0.65  OA
ENDBRANCH 57 58
ENDBRANCH 56 57
ENDBRANCH 54 56
ENDBRANCH 51 54
ENDBRANCH 44 50
ENDBRANCH 41 44
ENDBRANCH 36 40
ENDBRANCH 33 36
ENDBRANCH 1 32
TORSDOF 26
ENDMDL
MODEL 7
USER: ADFR SOLUTION from run 44
USER: SCORE 18.686666 LL:  -4.271 LR: -16.318 RR:   0.000 FEB:  -8.562
USER: RMSD 13.257532
USER: SEED 43
USER: STATUS no improvement in best in 6 clusters for 5 generations
USER: GENES 28
USER: genes 0 Translation |==|  0.66991 0.37563 0.29282
USER: genes 1 Rotation |==|  0.40731 0.64213 0.03279 0.55410
USER: genes 2 Torsion [N]-CA--C-[N] |==|  0.44719
USER: genes 3 Torsion [C]-N--CA-[CB] |==|  0.46089
USER: genes 4 Torsion [N]-CA--CB-[CG] |==|  0.57732
USER: genes 5 Torsion [CA]-CB--CG-[CD] |==|  0.66033
USER: genes 6 Torsion [CB]-CG--CD-[OE1] |==|  0.32105
USER: genes 7 Torsion [N]-CA--C-[N] |==|  0.92425
USER: genes 8 Torsion [C]-N--CA-[CB] |==|  0.43520
USER: genes 9 Torsion [N]-CA--C-[O] |==|  0.95164
USER: genes 10 Torsion [N]-CA--CB-[CG] |==|  0.62283
USER: genes 11 Torsion [CA]-CB--CG-[CD1] |==|  0.42448
USER: genes 12 Torsion [CE1]-CZ--OH-[HH] |==|  0.53394
USER: genes 13 Torsion [C]-CA--CB-[OG] |==|  0.39884
USER: genes 14 Torsion [CA]-CB--OG-[HG] |==|  0.54149
USER: genes 15 Torsion [C]-CA--N-[C] |==|  0.69080
USER: genes 16 Torsion [N]-C--CA-[N] |==|  0.13333
USER: genes 17 Torsion [C]-CA--CB-[CG1] |==|  0.21592
USER: genes 18 Torsion [C]-CA--N-[C] |==|  0.15995
USER: genes 19 Torsion [N]-C--CA-[N] |==|  0.91404
USER: genes 20 Torsion [C]-CA--CB-[CG] |==|  0.34352
USER: genes 21 Torsion [CA]-CB--CG-[CD] |==|  0.13843
USER: genes 22 Torsion [CB]-CG--CD-[OE1] |==|  0.27967
USER: genes 23 Torsion [C]-CA--N-[C] |==|  0.66937
USER: genes 24 Torsion [N]-C--CA-[N] |==|  0.26597
USER: genes 25 Torsion [C]-CA--CB-[CG] |==|  0.18702
USER: genes 26 Torsion [CA]-CB--CG-[CD] |==|  0.55725
USER: genes 27 Torsion [CB]-CG--CD-[OE1] |==|  0.43864
ROOT
ATOM      1  CA  SER T 970      37.078  35.585 -13.411  1.00 53.81 LIG 0.20  C 
ENDROOT
BRANCH 1 2
ATOM      2  C   SER T 970      36.552  36.991 -13.675  1.00 54.98 LIG 0.24  C 
ATOM      3  N   GLU T 971      35.294  37.065 -14.087  1.00 36.24 LIG-0.35  N 
ATOM      4 H    GLU T 971      34.777  36.398 -14.247  1.00 36.24 LIG 0.16  HD
ATOM      5 O    SER T 970      37.245  38.001 -13.470  1.00 50.73 LIG-0.27  OA
BRANCH 3 6
ATOM      6  CA  GLU T 971      34.724  38.376 -14.290  1.00 34.69 LIG 0.18  C 
BRANCH 6 7
ATOM      7  CB  GLU T 971      33.419  38.304 -15.078  1.00 35.28 LIG 0.04  C 
BRANCH 7 8
ATOM      8  CG  GLU T 971      33.134  39.570 -15.882  1.00 38.63 LIG 0.12  C 
BRANCH 8 9
ATOM      9  CD  GLU T 971      31.796  40.211 -15.515  1.00 44.02 LIG 0.17  C 
ATOM     10 OE1  GLU T 971      31.789  41.349 -14.993  1.00 46.94 LIG-0.65  OA
ATOM     11 OE2  GLU T 971      30.749  39.574 -15.749  1.00 38.45 LIG-0.65  OA
ENDBRANCH 8 9
ENDBRANCH 7 8
ENDBRANCH 6 7
BRANCH 6 12
ATOM     12  C   GLU T 971      34.477  39.034 -12.953  1.00 38.38 LIG 0.24  C 
ATOM     13  N   TYR T 972      34.268  38.191 -11.962  1.00 34.07 LIG-0.34  N 
ATOM     14 H    TYR T 972      34.196  37.340 -12.064  1.00 34.07 LIG 0.16  HD
ATOM     15 O    GLU T 971      34.489  40.268 -12.826  1.00 36.91 LIG-0.27  OA
BRANCH 13 16
ATOM     16  CA  TYR T 972      34.143  38.641 -10.596  1.00 35.97 LIG 0.19  C 
BRANCH 16 17
ATOM     17  C   TYR T 972      35.538  38.859  -9.996  1.00 45.43 LIG 0.20  C 
ATOM     18 OXT  TYR T 972      35.643  39.554  -8.985  1.00 40.76 LIG-0.65  OA
ATOM     19 O    TYR T 972      36.573  38.380 -10.493  1.00 41.72 LIG-0.65  OA
ENDBRANCH 16 17
BRANCH 16 20
ATOM     20  CB  TYR T 972      33.365  37.625  -9.766  1.00 33.99 LIG 0.07  C 
BRANCH 20 21
ATOM     21  CG  TYR T 972      32.359  38.300  -8.893  1.00 33.93 LIG-0.06  A 
ATOM     22  CD1 TYR T 972      31.206  37.641  -8.495  1.00 33.64 LIG 0.01  A 
ATOM     23  CE1 TYR T 972      30.285  38.261  -7.675  1.00 37.50 LIG 0.04  A 
ATOM     24  CZ  TYR T 972      30.531  39.539  -7.241  1.00 37.64 LIG 0.07  A 
ATOM     25  CE2 TYR T 972      31.678  40.203  -7.602  1.00 36.30 LIG 0.04  A 
ATOM     26  CD2 TYR T 972      32.582  39.589  -8.424  1.00 38.70 LIG 0.01  A 
BRANCH 24 27
ATOM     27 OH   TYR T 972      29.621  40.155  -6.434  1.00 40.25 LIG-0.36  OA
ATOM     28 HH   TYR T 972      29.804  40.973  -6.380  1.00 40.25 LIG 0.22  HD
ENDBRANCH 24 27
ENDBRANCH 20 21
ENDBRANCH 16 20
ENDBRANCH 13 16
ENDBRANCH 6 12
ENDBRANCH 3 6
ENDBRANCH 1 2
BRANCH 1 29
ATOM     29  CB  SER T 970      36.473  35.092 -12.091  1.00 55.16 LIG 0.20  C 
BRANCH 29 30
ATOM     30 OG   SER T 970      36.188  33.707 -12.156  1.00 59.72 LIG-0.40  OA
ATOM     31 HG   SER T 970      35.680  33.495 -11.521  1.00 59.72 LIG 0.21  HD
ENDBRANCH 29 30
ENDBRANCH 1 29
BRANCH 1 32
ATOM     32  N   SER T 970      38.539  35.439 -13.382  1.00 52.51 LIG-0.34  N 
ATOM     33  C   VAL T 969      39.197  34.774 -14.328  1.00 50.69 LIG 0.24  C 
ATOM     34 O    VAL T 969      38.688  34.481 -15.410  1.00 50.98 LIG-0.27  OA
ATOM     35 H    SER T 970      38.919  35.817 -12.708  1.00 52.51 LIG 0.16  HD
BRANCH 33 36
ATOM     36  CA  VAL T 969      40.672  34.441 -14.035  1.00 48.28 LIG 0.18  C 
BRANCH 36 37
ATOM     37  CB  VAL T 969      41.247  33.481 -15.087  1.00 45.61 LIG 0.01  C 
ATOM     38  CG1 VAL T 969      41.589  34.210 -16.385  1.00 51.33 LIG 0.01  C 
ATOM     39  CG2 VAL T 969      42.484  32.775 -14.531  1.00 51.13 LIG 0.01  C 
ENDBRANCH 36 37
BRANCH 36 40
ATOM     40  N   VAL T 969      40.774  33.870 -12.705  1.00 42.62 LIG-0.35  N 
ATOM     41  C   GLU T 968      40.090  32.782 -12.391  1.00 39.23 LIG 0.24  C 
ATOM     42 O    GLU T 968      39.277  32.263 -13.148  1.00 41.64 LIG-0.27  OA
ATOM     43 H    VAL T 969      41.298  34.289 -12.168  1.00 42.62 LIG 0.16  HD
BRANCH 41 44
ATOM     44  CA  GLU T 968      40.395  32.140 -11.054  1.00 43.46 LIG 0.18  C 
BRANCH 44 45
ATOM     45  CB  GLU T 968      39.443  32.760 -10.046  1.00 39.65 LIG 0.04  C 
BRANCH 45 46
ATOM     46  CG  GLU T 968      38.569  31.857  -9.271  1.00 48.42 LIG 0.12  C 
BRANCH 46 47
ATOM     47  CD  GLU T 968      39.411  30.751  -8.675  1.00 46.07 LIG 0.17  C 
ATOM     48 OE1  GLU T 968      39.732  30.852  -7.464  1.00 37.62 LIG-0.65  OA
ATOM     49 OE2  GLU T 968      39.687  29.760  -9.395  1.00 42.01 LIG-0.65  OA
ENDBRANCH 46 47
ENDBRANCH 45 46
ENDBRANCH 44 45
BRANCH 44 50
ATOM     50  N   GLU T 968      41.789  32.339 -10.666  1.00 42.28 LIG-0.35  N 
ATOM     51  C   GLU T 967      42.619  31.313 -10.475  1.00 44.22 LIG 0.26  C 
ATOM     52 O    GLU T 967      42.254  30.147 -10.483  1.00 45.73 LIG-0.27  OA
ATOM     53 H    GLU T 968      42.017  33.164 -10.574  1.00 42.28 LIG 0.16  HD
BRANCH 51 54
ATOM     54  CA  GLU T 967      44.085  31.645 -10.229  1.00 63.10 LIG 0.40  C 
ATOM     55  N   GLU T 967      44.363  31.677  -8.797  1.00 61.06 LIG 0.61  N 
BRANCH 54 56
ATOM     56  CB  GLU T 967      44.974  30.616 -10.927  1.00 76.10 LIG 0.06  C 
BRANCH 56 57
ATOM     57  CG  GLU T 967      44.905  30.680 -12.437  1.00 93.75 LIG 0.12  C 
BRANCH 57 58
ATOM     58  CD  GLU T 967      45.367  29.391 -13.086  1.00103.86 LIG 0.17  C 
ATOM     59 OE1  GLU T 967      44.986  29.139 -14.248  1.00104.00 LIG-0.65  OA
ATOM     60 OE2  GLU T 967      46.120  28.635 -12.434  1.00109.28 LIG-0.65  OA
ENDBRANCH 57 58
ENDBRANCH 56 57
ENDBRANCH 54 56
ENDBRANCH 51 54
ENDBRANCH 44 50
ENDBRANCH 41 44
ENDBRANCH 36 40
ENDBRANCH 33 36
ENDBRANCH 1 32
TORSDOF 26
ENDMDL
MODEL 8
USER: ADFR SOLUTION from run 29
USER: SCORE 20.195034 LL:  -4.592 LR: -16.255 RR:   0.000 FEB:  -8.499
USER: RMSD 12.726521
USER: SEED 28
USER: STATUS no improvement in best in 8 clusters for 5 generations
USER: GENES 28
USER: genes 0 Translation |==|  0.65906 0.38554 0.35787
USER: genes 1 Rotation |==|  0.39568 0.78481 0.10767 0.56381
USER: genes 2 Torsion [N]-CA--C-[N] |==|  0.44739
USER: genes 3 Torsion [C]-N--CA-[CB] |==|  0.84703
USER: genes 4 Torsion [N]-CA--CB-[CG] |==|  0.63971
USER: genes 5 Torsion [CA]-CB--CG-[CD] |==|  0.16397
USER: genes 6 Torsion [CB]-CG--CD-[OE1] |==|  0.23872
USER: genes 7 Torsion [N]-CA--C-[N] |==|  0.33889
USER: genes 8 Torsion [C]-N--CA-[CB] |==|  0.25378
USER: genes 9 Torsion [N]-CA--C-[O] |==|  0.62601
USER: genes 10 Torsion [N]-CA--CB-[CG] |==|  0.97218
USER: genes 11 Torsion [CA]-CB--CG-[CD1] |==|  0.73579
USER: genes 12 Torsion [CE1]-CZ--OH-[HH] |==|  0.31765
USER: genes 13 Torsion [C]-CA--CB-[OG] |==|  0.39862
USER: genes 14 Torsion [CA]-CB--OG-[HG] |==|  0.52436
USER: genes 15 Torsion [C]-CA--N-[C] |==|  0.61821
USER: genes 16 Torsion [N]-C--CA-[N] |==|  0.11985
USER: genes 17 Torsion [C]-CA--CB-[CG1] |==|  0.24879
USER: genes 18 Torsion [C]-CA--N-[C] |==|  0.14790
USER: genes 19 Torsion [N]-C--CA-[N] |==|  0.92835
USER: genes 20 Torsion [C]-CA--CB-[CG] |==|  0.33421
USER: genes 21 Torsion [CA]-CB--CG-[CD] |==|  0.11344
USER: genes 22 Torsion [CB]-CG--CD-[OE1] |==|  0.77289
USER: genes 23 Torsion [C]-CA--N-[C] |==|  0.65205
USER: genes 24 Torsion [N]-C--CA-[N] |==|  0.17974
USER: genes 25 Torsion [C]-CA--CB-[CG] |==|  0.29991
USER: genes 26 Torsion [CA]-CB--CG-[CD] |==|  0.81163
USER: genes 27 Torsion [CB]-CG--CD-[OE1] |==|  0.68839
ROOT
ATOM      1  CA  SER T 970      36.769  35.778 -12.143  1.00 53.81 LIG 0.20  C 
ENDROOT
BRANCH 1 2
ATOM      2  C   SER T 970      36.311  37.056 -11.450  1.00 54.98 LIG 0.24  C 
ATOM      3  N   GLU T 971      35.017  37.329 -11.545  1.00 36.24 LIG-0.35  N 
ATOM      4 H    GLU T 971      34.437  36.871 -11.986  1.00 36.24 LIG 0.16  HD
ATOM      5 O    SER T 970      37.093  37.768 -10.798  1.00 50.73 LIG-0.27  OA
BRANCH 3 6
ATOM      6  CA  GLU T 971      34.516  38.493 -10.852  1.00 34.69 LIG 0.18  C 
BRANCH 6 7
ATOM      7  CB  GLU T 971      34.864  38.454  -9.367  1.00 35.28 LIG 0.04  C 
BRANCH 7 8
ATOM      8  CG  GLU T 971      33.660  38.706  -8.463  1.00 38.63 LIG 0.12  C 
BRANCH 8 9
ATOM      9  CD  GLU T 971      32.541  37.688  -8.677  1.00 44.02 LIG 0.17  C 
ATOM     10 OE1  GLU T 971      32.578  36.603  -8.051  1.00 46.94 LIG-0.65  OA
ATOM     11 OE2  GLU T 971      31.623  37.971  -9.473  1.00 38.45 LIG-0.65  OA
ENDBRANCH 8 9
ENDBRANCH 7 8
ENDBRANCH 6 7
BRANCH 6 12
ATOM     12  C   GLU T 971      35.089  39.741 -11.479  1.00 38.38 LIG 0.24  C 
ATOM     13  N   TYR T 972      34.185  40.588 -11.927  1.00 34.07 LIG-0.34  N 
ATOM     14 H    TYR T 972      33.341  40.426 -11.943  1.00 34.07 LIG 0.16  HD
ATOM     15 O    GLU T 971      36.313  39.933 -11.541  1.00 36.91 LIG-0.27  OA
BRANCH 13 16
ATOM     16  CA  TYR T 972      34.550  41.888 -12.439  1.00 35.97 LIG 0.19  C 
BRANCH 16 17
ATOM     17  C   TYR T 972      33.442  42.899 -12.116  1.00 45.43 LIG 0.20  C 
ATOM     18 OXT  TYR T 972      32.948  42.893 -10.988  1.00 40.76 LIG-0.65  OA
ATOM     19 O    TYR T 972      33.005  43.714 -12.948  1.00 41.72 LIG-0.65  OA
ENDBRANCH 16 17
BRANCH 16 20
ATOM     20  CB  TYR T 972      34.784  41.826 -13.944  1.00 33.99 LIG 0.07  C 
BRANCH 20 21
ATOM     21  CG  TYR T 972      34.810  40.413 -14.427  1.00 33.93 LIG-0.06  A 
ATOM     22  CD1 TYR T 972      36.010  39.732 -14.573  1.00 33.64 LIG 0.01  A 
ATOM     23  CE1 TYR T 972      36.030  38.421 -15.004  1.00 37.50 LIG 0.04  A 
ATOM     24  CZ  TYR T 972      34.844  37.789 -15.275  1.00 37.64 LIG 0.07  A 
ATOM     25  CE2 TYR T 972      33.642  38.434 -15.115  1.00 36.30 LIG 0.04  A 
ATOM     26  CD2 TYR T 972      33.627  39.737 -14.698  1.00 38.70 LIG 0.01  A 
BRANCH 24 27
ATOM     27 OH   TYR T 972      34.861  36.495 -15.705  1.00 40.25 LIG-0.36  OA
ATOM     28 HH   TYR T 972      34.504  36.003 -15.126  1.00 40.25 LIG 0.22  HD
ENDBRANCH 24 27
ENDBRANCH 20 21
ENDBRANCH 16 20
ENDBRANCH 13 16
ENDBRANCH 6 12
ENDBRANCH 3 6
ENDBRANCH 1 2
BRANCH 1 29
ATOM     29  CB  SER T 970      36.314  34.587 -11.290  1.00 55.16 LIG 0.20  C 
BRANCH 29 30
ATOM     30 OG   SER T 970      35.927  33.501 -12.111  1.00 59.72 LIG-0.40  OA
ATOM     31 HG   SER T 970      35.570  32.906 -11.638  1.00 59.72 LIG 0.21  HD
ENDBRANCH 29 30
ENDBRANCH 1 29
BRANCH 1 32
ATOM     32  N   SER T 970      38.207  35.678 -12.422  1.00 52.51 LIG-0.34  N 
ATOM     33  C   VAL T 969      38.665  35.211 -13.581  1.00 50.69 LIG 0.24  C 
ATOM     34 O    VAL T 969      37.953  35.095 -14.579  1.00 50.98 LIG-0.27  OA
ATOM     35 H    SER T 970      38.713  35.944 -11.779  1.00 52.51 LIG 0.16  HD
BRANCH 33 36
ATOM     36  CA  VAL T 969      40.168  34.881 -13.643  1.00 48.28 LIG 0.18  C 
BRANCH 36 37
ATOM     37  CB  VAL T 969      40.504  34.035 -14.881  1.00 45.61 LIG 0.01  C 
ATOM     38  CG1 VAL T 969      40.846  34.913 -16.084  1.00 51.33 LIG 0.01  C 
ATOM     39  CG2 VAL T 969      41.661  33.085 -14.568  1.00 51.13 LIG 0.01  C 
ENDBRANCH 36 37
BRANCH 36 40
ATOM     40  N   VAL T 969      40.552  34.188 -12.426  1.00 42.62 LIG-0.35  N 
ATOM     41  C   GLU T 968      39.894  33.110 -12.035  1.00 39.23 LIG 0.24  C 
ATOM     42 O    GLU T 968      38.888  32.700 -12.603  1.00 41.64 LIG-0.27  OA
ATOM     43 H    VAL T 969      41.218  34.534 -12.006  1.00 42.62 LIG 0.16  HD
BRANCH 41 44
ATOM     44  CA  GLU T 968      40.471  32.338 -10.868  1.00 43.46 LIG 0.18  C 
BRANCH 44 45
ATOM     45  CB  GLU T 968      39.743  32.819  -9.625  1.00 39.65 LIG 0.04  C 
BRANCH 45 46
ATOM     46  CG  GLU T 968      38.989  31.826  -8.834  1.00 48.42 LIG 0.12  C 
BRANCH 46 47
ATOM     47  CD  GLU T 968      39.796  30.549  -8.753  1.00 46.07 LIG 0.17  C 
ATOM     48 OE1  GLU T 968      39.737  29.760  -9.730  1.00 37.62 LIG-0.65  OA
ATOM     49 OE2  GLU T 968      40.535  30.374  -7.753  1.00 42.01 LIG-0.65  OA
ENDBRANCH 46 47
ENDBRANCH 45 46
ENDBRANCH 44 45
BRANCH 44 50
ATOM     50  N   GLU T 968      41.914  32.534 -10.752  1.00 42.28 LIG-0.35  N 
ATOM     51  C   GLU T 967      42.763  31.507 -10.727  1.00 44.22 LIG 0.26  C 
ATOM     52 O    GLU T 967      42.401  30.340 -10.668  1.00 45.73 LIG-0.27  OA
ATOM     53 H    GLU T 968      42.157  33.358 -10.703  1.00 42.28 LIG 0.16  HD
BRANCH 51 54
ATOM     54  CA  GLU T 967      44.250  31.835 -10.764  1.00 63.10 LIG 0.40  C 
ATOM     55  N   GLU T 967      44.637  32.562  -9.559  1.00 61.06 LIG 0.61  N 
BRANCH 54 56
ATOM     56  CB  GLU T 967      45.062  30.548 -10.902  1.00 76.10 LIG 0.06  C 
BRANCH 56 57
ATOM     57  CG  GLU T 967      45.691  30.371 -12.267  1.00 93.75 LIG 0.12  C 
BRANCH 57 58
ATOM     58  CD  GLU T 967      44.655  30.136 -13.347  1.00103.86 LIG 0.17  C 
ATOM     59 OE1  GLU T 967      44.610  29.016 -13.897  1.00104.00 LIG-0.65  OA
ATOM     60 OE2  GLU T 967      43.879  31.072 -13.639  1.00109.28 LIG-0.65  OA
ENDBRANCH 57 58
ENDBRANCH 56 57
ENDBRANCH 54 56
ENDBRANCH 51 54
ENDBRANCH 44 50
ENDBRANCH 41 44
ENDBRANCH 36 40
ENDBRANCH 33 36
ENDBRANCH 1 32
TORSDOF 26
ENDMDL
MODEL 9
USER: ADFR SOLUTION from run 183
USER: SCORE 20.246747 LL:  -5.203 LR: -16.056 RR:   0.000 FEB:  -8.300
USER: RMSD 11.055093
USER: SEED 182
USER: STATUS no improvement in best in 4 clusters for 5 generations
USER: GENES 28
USER: genes 0 Translation |==|  0.28995 0.52659 0.35639
USER: genes 1 Rotation |==|  0.77908 0.58472 0.15068 0.70716
USER: genes 2 Torsion [N]-CA--C-[N] |==|  0.15087
USER: genes 3 Torsion [C]-N--CA-[CB] |==|  0.87609
USER: genes 4 Torsion [N]-CA--CB-[CG] |==|  0.63815
USER: genes 5 Torsion [CA]-CB--CG-[CD] |==|  0.25679
USER: genes 6 Torsion [CB]-CG--CD-[OE1] |==|  0.59607
USER: genes 7 Torsion [N]-CA--C-[N] |==|  0.91285
USER: genes 8 Torsion [C]-N--CA-[CB] |==|  0.18965
USER: genes 9 Torsion [N]-CA--C-[O] |==|  0.98165
USER: genes 10 Torsion [N]-CA--CB-[CG] |==|  0.12162
USER: genes 11 Torsion [CA]-CB--CG-[CD1] |==|  0.23572
USER: genes 12 Torsion [CE1]-CZ--OH-[HH] |==|  0.87150
USER: genes 13 Torsion [C]-CA--CB-[OG] |==|  0.12248
USER: genes 14 Torsion [CA]-CB--OG-[HG] |==|  0.29881
USER: genes 15 Torsion [C]-CA--N-[C] |==|  0.78262
USER: genes 16 Torsion [N]-C--CA-[N] |==|  0.00409
USER: genes 17 Torsion [C]-CA--CB-[CG1] |==|  0.60810
USER: genes 18 Torsion [C]-CA--N-[C] |==|  0.77341
USER: genes 19 Torsion [N]-C--CA-[N] |==|  0.13573
USER: genes 20 Torsion [C]-CA--CB-[CG] |==|  0.54771
USER: genes 21 Torsion [CA]-CB--CG-[CD] |==|  0.88044
USER: genes 22 Torsion [CB]-CG--CD-[OE1] |==|  0.79964
USER: genes 23 Torsion [C]-CA--N-[C] |==|  0.15769
USER: genes 24 Torsion [N]-C--CA-[N] |==|  0.89929
USER: genes 25 Torsion [C]-CA--CB-[CG] |==|  0.82213
USER: genes 26 Torsion [CA]-CB--CG-[CD] |==|  0.78588
USER: genes 27 Torsion [CB]-CG--CD-[OE1] |==|  0.99031
ROOT
ATOM      1  CA  SER T 970      26.250  38.529 -12.171  1.00 53.81 LIG 0.20  C 
ENDROOT
BRANCH 1 2
ATOM      2  C   SER T 970      26.156  39.942 -12.734  1.00 54.98 LIG 0.24  C 
ATOM      3  N   GLU T 971      26.939  40.843 -12.157  1.00 36.24 LIG-0.35  N 
ATOM      4 H    GLU T 971      27.455  40.704 -11.484  1.00 36.24 LIG 0.16  HD
ATOM      5 O    SER T 970      25.428  40.218 -13.702  1.00 50.73 LIG-0.27  OA
BRANCH 3 6
ATOM      6  CA  GLU T 971      26.938  42.184 -12.692  1.00 34.69 LIG 0.18  C 
BRANCH 6 7
ATOM      7  CB  GLU T 971      27.003  42.179 -14.217  1.00 35.28 LIG 0.04  C 
BRANCH 7 8
ATOM      8  CG  GLU T 971      28.084  43.103 -14.773  1.00 38.63 LIG 0.12  C 
BRANCH 8 9
ATOM      9  CD  GLU T 971      29.413  42.383 -15.000  1.00 44.02 LIG 0.17  C 
ATOM     10 OE1  GLU T 971      30.483  43.006 -14.812  1.00 46.94 LIG-0.65  OA
ATOM     11 OE2  GLU T 971      29.387  41.191 -15.368  1.00 38.45 LIG-0.65  OA
ENDBRANCH 8 9
ENDBRANCH 7 8
ENDBRANCH 6 7
BRANCH 6 12
ATOM     12  C   GLU T 971      25.697  42.912 -12.236  1.00 38.38 LIG 0.24  C 
ATOM     13  N   TYR T 972      24.644  42.138 -12.065  1.00 34.07 LIG-0.34  N 
ATOM     14 H    TYR T 972      24.626  41.302 -12.267  1.00 34.07 LIG 0.16  HD
ATOM     15 O    GLU T 971      25.700  44.136 -12.034  1.00 36.91 LIG-0.27  OA
BRANCH 13 16
ATOM     16  CA  TYR T 972      23.411  42.643 -11.510  1.00 35.97 LIG 0.19  C 
BRANCH 16 17
ATOM     17  C   TYR T 972      22.467  41.475 -11.202  1.00 45.43 LIG 0.20  C 
ATOM     18 OXT  TYR T 972      21.423  41.705 -10.591  1.00 40.76 LIG-0.65  OA
ATOM     19 O    TYR T 972      22.715  40.299 -11.524  1.00 41.72 LIG-0.65  OA
ENDBRANCH 16 17
BRANCH 16 20
ATOM     20  CB  TYR T 972      22.747  43.617 -12.479  1.00 33.99 LIG 0.07  C 
BRANCH 20 21
ATOM     21  CG  TYR T 972      22.784  43.095 -13.877  1.00 33.93 LIG-0.06  A 
ATOM     22  CD1 TYR T 972      21.810  42.219 -14.337  1.00 33.64 LIG 0.01  A 
ATOM     23  CE1 TYR T 972      21.838  41.750 -15.634  1.00 37.50 LIG 0.04  A 
ATOM     24  CZ  TYR T 972      22.834  42.172 -16.476  1.00 37.64 LIG 0.07  A 
ATOM     25  CE2 TYR T 972      23.795  43.057 -16.052  1.00 36.30 LIG 0.04  A 
ATOM     26  CD2 TYR T 972      23.771  43.511 -14.761  1.00 38.70 LIG 0.01  A 
BRANCH 24 27
ATOM     27 OH   TYR T 972      22.866  41.707 -17.757  1.00 40.25 LIG-0.36  OA
ATOM     28 HH   TYR T 972      22.750  40.876 -17.756  1.00 40.25 LIG 0.22  HD
ENDBRANCH 24 27
ENDBRANCH 20 21
ENDBRANCH 16 20
ENDBRANCH 13 16
ENDBRANCH 6 12
ENDBRANCH 3 6
ENDBRANCH 1 2
BRANCH 1 29
ATOM     29  CB  SER T 970      25.251  37.648 -12.932  1.00 55.16 LIG 0.20  C 
BRANCH 29 30
ATOM     30 OG   SER T 970      25.312  37.906 -14.323  1.00 59.72 LIG-0.40  OA
ATOM     31 HG   SER T 970      25.682  37.260 -14.712  1.00 59.72 LIG 0.21  HD
ENDBRANCH 29 30
ENDBRANCH 1 29
BRANCH 1 32
ATOM     32  N   SER T 970      26.038  38.397 -10.724  1.00 52.51 LIG-0.34  N 
ATOM     33  C   VAL T 969      26.990  38.701  -9.845  1.00 50.69 LIG 0.24  C 
ATOM     34 O    VAL T 969      27.986  39.360 -10.146  1.00 50.98 LIG-0.27  OA
ATOM     35 H    SER T 970      25.257  38.110 -10.505  1.00 52.51 LIG 0.16  HD
BRANCH 33 36
ATOM     36  CA  VAL T 969      26.755  38.246  -8.393  1.00 48.28 LIG 0.18  C 
BRANCH 36 37
ATOM     37  CB  VAL T 969      27.915  37.377  -7.886  1.00 45.61 LIG 0.01  C 
ATOM     38  CG1 VAL T 969      27.414  36.222  -7.020  1.00 51.33 LIG 0.01  C 
ATOM     39  CG2 VAL T 969      28.726  36.844  -9.068  1.00 51.13 LIG 0.01  C 
ENDBRANCH 36 37
BRANCH 36 40
ATOM     40  N   VAL T 969      25.499  37.523  -8.320  1.00 42.62 LIG-0.35  N 
ATOM     41  C   GLU T 968      24.354  38.179  -8.235  1.00 39.23 LIG 0.24  C 
ATOM     42 O    GLU T 968      24.290  39.398  -8.117  1.00 41.64 LIG-0.27  OA
ATOM     43 H    VAL T 969      25.571  36.666  -8.336  1.00 42.62 LIG 0.16  HD
BRANCH 41 44
ATOM     44  CA  GLU T 968      23.083  37.364  -8.356  1.00 43.46 LIG 0.18  C 
BRANCH 44 45
ATOM     45  CB  GLU T 968      21.935  38.292  -8.001  1.00 39.65 LIG 0.04  C 
BRANCH 45 46
ATOM     46  CG  GLU T 968      20.633  37.686  -7.660  1.00 48.42 LIG 0.12  C 
BRANCH 46 47
ATOM     47  CD  GLU T 968      20.343  36.567  -8.635  1.00 46.07 LIG 0.17  C 
ATOM     48 OE1  GLU T 968      20.039  36.885  -9.813  1.00 37.62 LIG-0.65  OA
ATOM     49 OE2  GLU T 968      20.487  35.383  -8.243  1.00 42.01 LIG-0.65  OA
ENDBRANCH 46 47
ENDBRANCH 45 46
ENDBRANCH 44 45
BRANCH 44 50
ATOM     50  N   GLU T 968      23.111  36.191  -7.487  1.00 42.28 LIG-0.35  N 
ATOM     51  C   GLU T 967      23.298  36.296  -6.171  1.00 44.22 LIG 0.26  C 
ATOM     52 O    GLU T 967      23.585  37.347  -5.617  1.00 45.73 LIG-0.27  OA
ATOM     53 H    GLU T 968      22.999  35.443  -7.896  1.00 42.28 LIG 0.16  HD
BRANCH 51 54
ATOM     54  CA  GLU T 967      23.150  35.024  -5.346  1.00 63.10 LIG 0.40  C 
ATOM     55  N   GLU T 967      22.084  34.189  -5.891  1.00 61.06 LIG 0.61  N 
BRANCH 54 56
ATOM     56  CB  GLU T 967      24.474  34.262  -5.325  1.00 76.10 LIG 0.06  C 
BRANCH 56 57
ATOM     57  CG  GLU T 967      24.910  33.765  -6.686  1.00 93.75 LIG 0.12  C 
BRANCH 57 58
ATOM     58  CD  GLU T 967      24.141  32.533  -7.119  1.00103.86 LIG 0.17  C 
ATOM     59 OE1  GLU T 967      23.317  32.035  -6.324  1.00104.00 LIG-0.65  OA
ATOM     60 OE2  GLU T 967      24.355  32.070  -8.260  1.00109.28 LIG-0.65  OA
ENDBRANCH 57 58
ENDBRANCH 56 57
ENDBRANCH 54 56
ENDBRANCH 51 54
ENDBRANCH 44 50
ENDBRANCH 41 44
ENDBRANCH 36 40
ENDBRANCH 33 36
ENDBRANCH 1 32
TORSDOF 26
ENDMDL
MODEL 10
USER: ADFR SOLUTION from run 141
USER: SCORE 18.718918 LL:  -5.602 LR: -16.051 RR:   0.000 FEB:  -8.296
USER: RMSD 8.424610
USER: SEED 140
USER: STATUS no improvement in best in 11 clusters for 5 generations
USER: GENES 28
USER: genes 0 Translation |==|  0.28427 0.60808 0.29145
USER: genes 1 Rotation |==|  0.86508 0.50004 0.21957 0.69513
USER: genes 2 Torsion [N]-CA--C-[N] |==|  0.32300
USER: genes 3 Torsion [C]-N--CA-[CB] |==|  0.27458
USER: genes 4 Torsion [N]-CA--CB-[CG] |==|  0.92899
USER: genes 5 Torsion [CA]-CB--CG-[CD] |==|  0.23054
USER: genes 6 Torsion [CB]-CG--CD-[OE1] |==|  0.67130
USER: genes 7 Torsion [N]-CA--C-[N] |==|  0.12197
USER: genes 8 Torsion [C]-N--CA-[CB] |==|  0.12488
USER: genes 9 Torsion [N]-CA--C-[O] |==|  0.88802
USER: genes 10 Torsion [N]-CA--CB-[CG] |==|  0.31563
USER: genes 11 Torsion [CA]-CB--CG-[CD1] |==|  0.25155
USER: genes 12 Torsion [CE1]-CZ--OH-[HH] |==|  0.49506
USER: genes 13 Torsion [C]-CA--CB-[OG] |==|  0.46862
USER: genes 14 Torsion [CA]-CB--OG-[HG] |==|  0.70167
USER: genes 15 Torsion [C]-CA--N-[C] |==|  0.16848
USER: genes 16 Torsion [N]-C--CA-[N] |==|  0.93027
USER: genes 17 Torsion [C]-CA--CB-[CG1] |==|  0.78438
USER: genes 18 Torsion [C]-CA--N-[C] |==|  0.83271
USER: genes 19 Torsion [N]-C--CA-[N] |==|  0.91595
USER: genes 20 Torsion [C]-CA--CB-[CG] |==|  0.00827
USER: genes 21 Torsion [CA]-CB--CG-[CD] |==|  0.26847
USER: genes 22 Torsion [CB]-CG--CD-[OE1] |==|  0.14374
USER: genes 23 Torsion [C]-CA--N-[C] |==|  0.83308
USER: genes 24 Torsion [N]-C--CA-[N] |==|  0.79548
USER: genes 25 Torsion [C]-CA--CB-[CG] |==|  0.21265
USER: genes 26 Torsion [CA]-CB--CG-[CD] |==|  0.12383
USER: genes 27 Torsion [CB]-CG--CD-[OE1] |==|  0.22753
ROOT
ATOM      1  CA  SER T 970      26.088  40.118 -13.438  1.00 53.81 LIG 0.20  C 
ENDROOT
BRANCH 1 2
ATOM      2  C   SER T 970      26.526  41.490 -13.936  1.00 54.98 LIG 0.24  C 
ATOM      3  N   GLU T 971      27.819  41.759 -13.815  1.00 36.24 LIG-0.35  N 
ATOM      4 H    GLU T 971      28.408  41.247 -13.454  1.00 36.24 LIG 0.16  HD
ATOM      5 O    SER T 970      25.729  42.283 -14.464  1.00 50.73 LIG-0.27  OA
BRANCH 3 6
ATOM      6  CA  GLU T 971      28.300  43.019 -14.330  1.00 34.69 LIG 0.18  C 
BRANCH 6 7
ATOM      7  CB  GLU T 971      28.449  44.057 -13.222  1.00 35.28 LIG 0.04  C 
BRANCH 7 8
ATOM      8  CG  GLU T 971      27.530  43.797 -12.030  1.00 38.63 LIG 0.12  C 
BRANCH 8 9
ATOM      9  CD  GLU T 971      28.111  42.777 -11.053  1.00 44.02 LIG 0.17  C 
ATOM     10 OE1  GLU T 971      27.492  41.707 -10.849  1.00 46.94 LIG-0.65  OA
ATOM     11 OE2  GLU T 971      29.190  43.045 -10.485  1.00 38.45 LIG-0.65  OA
ENDBRANCH 8 9
ENDBRANCH 7 8
ENDBRANCH 6 7
BRANCH 6 12
ATOM     12  C   GLU T 971      29.628  42.811 -15.017  1.00 38.38 LIG 0.24  C 
ATOM     13  N   TYR T 972      29.678  41.750 -15.797  1.00 34.07 LIG-0.34  N 
ATOM     14 H    TYR T 972      29.046  41.170 -15.858  1.00 34.07 LIG 0.16  HD
ATOM     15 O    GLU T 971      30.573  43.599 -14.854  1.00 36.91 LIG-0.27  OA
BRANCH 13 16
ATOM     16  CA  TYR T 972      30.824  41.471 -16.629  1.00 35.97 LIG 0.19  C 
BRANCH 16 17
ATOM     17  C   TYR T 972      30.741  40.033 -17.155  1.00 45.43 LIG 0.20  C 
ATOM     18 OXT  TYR T 972      31.050  39.814 -18.327  1.00 40.76 LIG-0.65  OA
ATOM     19 O    TYR T 972      30.359  39.076 -16.457  1.00 41.72 LIG-0.65  OA
ENDBRANCH 16 17
BRANCH 16 20
ATOM     20  CB  TYR T 972      32.117  41.672 -15.845  1.00 33.99 LIG 0.07  C 
BRANCH 20 21
ATOM     21  CG  TYR T 972      32.838  40.378 -15.654  1.00 33.93 LIG-0.06  A 
ATOM     22  CD1 TYR T 972      33.780  39.945 -16.575  1.00 33.64 LIG 0.01  A 
ATOM     23  CE1 TYR T 972      34.455  38.756 -16.388  1.00 37.50 LIG 0.04  A 
ATOM     24  CZ  TYR T 972      34.198  38.010 -15.267  1.00 37.64 LIG 0.07  A 
ATOM     25  CE2 TYR T 972      33.288  38.431 -14.328  1.00 36.30 LIG 0.04  A 
ATOM     26  CD2 TYR T 972      32.611  39.604 -14.523  1.00 38.70 LIG 0.01  A 
BRANCH 24 27
ATOM     27 OH   TYR T 972      34.861  36.834 -15.082  1.00 40.25 LIG-0.36  OA
ATOM     28 HH   TYR T 972      34.629  36.493 -14.350  1.00 40.25 LIG 0.22  HD
ENDBRANCH 24 27
ENDBRANCH 20 21
ENDBRANCH 16 20
ENDBRANCH 13 16
ENDBRANCH 6 12
ENDBRANCH 3 6
ENDBRANCH 1 2
BRANCH 1 29
ATOM     29  CB  SER T 970      25.479  39.356 -14.621  1.00 55.16 LIG 0.20  C 
BRANCH 29 30
ATOM     30 OG   SER T 970      25.288  37.991 -14.296  1.00 59.72 LIG-0.40  OA
ATOM     31 HG   SER T 970      25.856  37.524 -14.702  1.00 59.72 LIG 0.21  HD
ENDBRANCH 29 30
ENDBRANCH 1 29
BRANCH 1 32
ATOM     32  N   SER T 970      25.157  40.112 -12.302  1.00 52.51 LIG-0.34  N 
ATOM     33  C   VAL T 969      23.956  40.681 -12.377  1.00 50.69 LIG 0.24  C 
ATOM     34 O    VAL T 969      23.435  40.997 -13.448  1.00 50.98 LIG-0.27  OA
ATOM     35 H    SER T 970      25.457  39.716 -11.600  1.00 52.51 LIG 0.16  HD
BRANCH 33 36
ATOM     36  CA  VAL T 969      23.200  40.868 -11.048  1.00 48.28 LIG 0.18  C 
BRANCH 36 37
ATOM     37  CB  VAL T 969      23.380  42.292 -10.499  1.00 45.61 LIG 0.01  C 
ATOM     38  CG1 VAL T 969      24.746  42.470  -9.840  1.00 51.33 LIG 0.01  C 
ATOM     39  CG2 VAL T 969      23.192  43.313 -11.622  1.00 51.13 LIG 0.01  C 
ENDBRANCH 36 37
BRANCH 36 40
ATOM     40  N   VAL T 969      23.672  39.884 -10.092  1.00 42.62 LIG-0.35  N 
ATOM     41  C   GLU T 968      23.550  38.592 -10.347  1.00 39.23 LIG 0.24  C 
ATOM     42 O    GLU T 968      22.959  38.158 -11.330  1.00 41.64 LIG-0.27  OA
ATOM     43 H    VAL T 969      24.021  40.210  -9.377  1.00 42.62 LIG 0.16  HD
BRANCH 41 44
ATOM     44  CA  GLU T 968      24.235  37.635  -9.394  1.00 43.46 LIG 0.18  C 
BRANCH 44 45
ATOM     45  CB  GLU T 968      23.214  37.278  -8.328  1.00 39.65 LIG 0.04  C 
BRANCH 45 46
ATOM     46  CG  GLU T 968      21.851  37.829  -8.459  1.00 48.42 LIG 0.12  C 
BRANCH 46 47
ATOM     47  CD  GLU T 968      20.965  36.794  -9.117  1.00 46.07 LIG 0.17  C 
ATOM     48 OE1  GLU T 968      20.953  35.639  -8.621  1.00 37.62 LIG-0.65  OA
ATOM     49 OE2  GLU T 968      20.238  37.156 -10.074  1.00 42.01 LIG-0.65  OA
ENDBRANCH 46 47
ENDBRANCH 45 46
ENDBRANCH 44 45
BRANCH 44 50
ATOM     50  N   GLU T 968      25.436  38.225  -8.809  1.00 42.28 LIG-0.35  N 
ATOM     51  C   GLU T 967      26.459  38.628  -9.562  1.00 44.22 LIG 0.26  C 
ATOM     52 O    GLU T 967      26.528  38.421 -10.765  1.00 45.73 LIG-0.27  OA
ATOM     53 H    GLU T 968      25.420  38.285  -7.951  1.00 42.28 LIG 0.16  HD
BRANCH 51 54
ATOM     54  CA  GLU T 967      27.588  39.371  -8.859  1.00 63.10 LIG 0.40  C 
ATOM     55  N   GLU T 967      27.163  40.723  -8.511  1.00 61.06 LIG 0.61  N 
BRANCH 54 56
ATOM     56  CB  GLU T 967      28.015  38.602  -7.609  1.00 76.10 LIG 0.06  C 
BRANCH 56 57
ATOM     57  CG  GLU T 967      28.869  37.388  -7.906  1.00 93.75 LIG 0.12  C 
BRANCH 57 58
ATOM     58  CD  GLU T 967      29.944  37.681  -8.932  1.00103.86 LIG 0.17  C 
ATOM     59 OE1  GLU T 967      30.999  38.228  -8.550  1.00104.00 LIG-0.65  OA
ATOM     60 OE2  GLU T 967      29.734  37.356 -10.121  1.00109.28 LIG-0.65  OA
ENDBRANCH 57 58
ENDBRANCH 56 57
ENDBRANCH 54 56
ENDBRANCH 51 54
ENDBRANCH 44 50
ENDBRANCH 41 44
ENDBRANCH 36 40
ENDBRANCH 33 36
ENDBRANCH 1 32
TORSDOF 26
ENDMDL
MODEL 11
USER: ADFR SOLUTION from run 179
USER: SCORE 19.937493 LL:  -5.741 LR: -15.999 RR:   0.000 FEB:  -8.243
USER: RMSD 6.113960
USER: SEED 178
USER: STATUS no improvement in best in 5 clusters for 5 generations
USER: GENES 28
USER: genes 0 Translation |==|  0.66780 0.40865 0.37761
USER: genes 1 Rotation |==|  0.76233 0.32842 0.39638 0.87551
USER: genes 2 Torsion [N]-CA--C-[N] |==|  0.81367
USER: genes 3 Torsion [C]-N--CA-[CB] |==|  0.80400
USER: genes 4 Torsion [N]-CA--CB-[CG] |==|  0.94516
USER: genes 5 Torsion [CA]-CB--CG-[CD] |==|  0.81071
USER: genes 6 Torsion [CB]-CG--CD-[OE1] |==|  0.76419
USER: genes 7 Torsion [N]-CA--C-[N] |==|  0.13473
USER: genes 8 Torsion [C]-N--CA-[CB] |==|  0.28985
USER: genes 9 Torsion [N]-CA--C-[O] |==|  0.50446
USER: genes 10 Torsion [N]-CA--CB-[CG] |==|  0.22470
USER: genes 11 Torsion [CA]-CB--CG-[CD1] |==|  0.31300
USER: genes 12 Torsion [CE1]-CZ--OH-[HH] |==|  0.85594
USER: genes 13 Torsion [C]-CA--CB-[OG] |==|  0.75151
USER: genes 14 Torsion [CA]-CB--OG-[HG] |==|  0.01868
USER: genes 15 Torsion [C]-CA--N-[C] |==|  0.68552
USER: genes 16 Torsion [N]-C--CA-[N] |==|  0.37849
USER: genes 17 Torsion [C]-CA--CB-[CG1] |==|  0.84593
USER: genes 18 Torsion [C]-CA--N-[C] |==|  0.55195
USER: genes 19 Torsion [N]-C--CA-[N] |==|  0.20080
USER: genes 20 Torsion [C]-CA--CB-[CG] |==|  0.38555
USER: genes 21 Torsion [CA]-CB--CG-[CD] |==|  0.79887
USER: genes 22 Torsion [CB]-CG--CD-[OE1] |==|  0.69132
USER: genes 23 Torsion [C]-CA--N-[C] |==|  0.77705
USER: genes 24 Torsion [N]-C--CA-[N] |==|  0.68771
USER: genes 25 Torsion [C]-CA--CB-[CG] |==|  0.70044
USER: genes 26 Torsion [CA]-CB--CG-[CD] |==|  0.19001
USER: genes 27 Torsion [CB]-CG--CD-[OE1] |==|  0.26444
ROOT
ATOM      1  CA  SER T 970      37.018  36.229 -11.758  1.00 53.81 LIG 0.20  C 
ENDROOT
BRANCH 1 2
ATOM      2  C   SER T 970      37.861  36.584 -12.977  1.00 54.98 LIG 0.24  C 
ATOM      3  N   GLU T 971      37.486  36.022 -14.118  1.00 36.24 LIG-0.35  N 
ATOM      4 H    GLU T 971      36.843  35.460 -14.214  1.00 36.24 LIG 0.16  HD
ATOM      5 O    SER T 970      38.807  37.386 -12.911  1.00 50.73 LIG-0.27  OA
BRANCH 3 6
ATOM      6  CA  GLU T 971      38.209  36.375 -15.317  1.00 34.69 LIG 0.18  C 
BRANCH 6 7
ATOM      7  CB  GLU T 971      37.915  37.809 -15.748  1.00 35.28 LIG 0.04  C 
BRANCH 7 8
ATOM      8  CG  GLU T 971      36.624  38.362 -15.148  1.00 38.63 LIG 0.12  C 
BRANCH 8 9
ATOM      9  CD  GLU T 971      35.378  37.672 -15.699  1.00 44.02 LIG 0.17  C 
ATOM     10 OE1  GLU T 971      34.882  38.079 -16.775  1.00 46.94 LIG-0.65  OA
ATOM     11 OE2  GLU T 971      34.892  36.719 -15.055  1.00 38.45 LIG-0.65  OA
ENDBRANCH 8 9
ENDBRANCH 7 8
ENDBRANCH 6 7
BRANCH 6 12
ATOM     12  C   GLU T 971      39.691  36.205 -15.084  1.00 38.38 LIG 0.24  C 
ATOM     13  N   TYR T 972      40.028  35.054 -14.537  1.00 34.07 LIG-0.34  N 
ATOM     14 H    TYR T 972      39.460  34.472 -14.257  1.00 34.07 LIG 0.16  HD
ATOM     15 O    GLU T 971      40.503  37.087 -15.403  1.00 36.91 LIG-0.27  OA
BRANCH 13 16
ATOM     16  CA  TYR T 972      41.409  34.671 -14.362  1.00 35.97 LIG 0.19  C 
BRANCH 16 17
ATOM     17  C   TYR T 972      41.604  33.222 -14.826  1.00 45.43 LIG 0.20  C 
ATOM     18 OXT  TYR T 972      40.634  32.608 -15.270  1.00 40.76 LIG-0.65  OA
ATOM     19 O    TYR T 972      42.696  32.630 -14.757  1.00 41.72 LIG-0.65  OA
ENDBRANCH 16 17
BRANCH 16 20
ATOM     20  CB  TYR T 972      41.825  34.819 -12.902  1.00 33.99 LIG 0.07  C 
BRANCH 20 21
ATOM     21  CG  TYR T 972      41.379  33.645 -12.094  1.00 33.93 LIG-0.06  A 
ATOM     22  CD1 TYR T 972      42.302  32.762 -11.552  1.00 33.64 LIG 0.01  A 
ATOM     23  CE1 TYR T 972      41.888  31.687 -10.793  1.00 37.50 LIG 0.04  A 
ATOM     24  CZ  TYR T 972      40.549  31.507 -10.562  1.00 37.64 LIG 0.07  A 
ATOM     25  CE2 TYR T 972      39.618  32.382 -11.067  1.00 36.30 LIG 0.04  A 
ATOM     26  CD2 TYR T 972      40.031  33.440 -11.830  1.00 38.70 LIG 0.01  A 
BRANCH 24 27
ATOM     27 OH   TYR T 972      40.137  30.444  -9.815  1.00 40.25 LIG-0.36  OA
ATOM     28 HH   TYR T 972      40.476  29.739 -10.121  1.00 40.25 LIG 0.22  HD
ENDBRANCH 24 27
ENDBRANCH 20 21
ENDBRANCH 16 20
ENDBRANCH 13 16
ENDBRANCH 6 12
ENDBRANCH 3 6
ENDBRANCH 1 2
BRANCH 1 29
ATOM     29  CB  SER T 970      37.028  34.703 -11.603  1.00 55.16 LIG 0.20  C 
BRANCH 29 30
ATOM     30 OG   SER T 970      35.964  34.118 -12.330  1.00 59.72 LIG-0.40  OA
ATOM     31 HG   SER T 970      35.578  34.708 -12.786  1.00 59.72 LIG 0.21  HD
ENDBRANCH 29 30
ENDBRANCH 1 29
BRANCH 1 32
ATOM     32  N   SER T 970      35.637  36.726 -11.763  1.00 52.51 LIG-0.34  N 
ATOM     33  C   VAL T 969      35.219  37.647 -10.898  1.00 50.69 LIG 0.24  C 
ATOM     34 O    VAL T 969      35.995  38.336 -10.234  1.00 50.98 LIG-0.27  OA
ATOM     35 H    SER T 970      35.135  36.372 -12.366  1.00 52.51 LIG 0.16  HD
BRANCH 33 36
ATOM     36  CA  VAL T 969      33.698  37.868 -10.810  1.00 48.28 LIG 0.18  C 
BRANCH 36 37
ATOM     37  CB  VAL T 969      33.270  39.123 -11.587  1.00 45.61 LIG 0.01  C 
ATOM     38  CG1 VAL T 969      34.030  40.361 -11.115  1.00 51.33 LIG 0.01  C 
ATOM     39  CG2 VAL T 969      33.480  38.908 -13.086  1.00 51.13 LIG 0.01  C 
ENDBRANCH 36 37
BRANCH 36 40
ATOM     40  N   VAL T 969      33.313  37.970  -9.415  1.00 42.62 LIG-0.35  N 
ATOM     41  C   GLU T 968      32.053  37.792  -9.054  1.00 39.23 LIG 0.24  C 
ATOM     42 O    GLU T 968      31.144  37.635  -9.862  1.00 41.64 LIG-0.27  OA
ATOM     43 H    VAL T 969      33.956  38.149  -8.872  1.00 42.62 LIG 0.16  HD
BRANCH 41 44
ATOM     44  CA  GLU T 968      31.765  37.725  -7.569  1.00 43.46 LIG 0.18  C 
BRANCH 44 45
ATOM     45  CB  GLU T 968      30.359  37.169  -7.423  1.00 39.65 LIG 0.04  C 
BRANCH 45 46
ATOM     46  CG  GLU T 968      30.112  36.180  -6.356  1.00 48.42 LIG 0.12  C 
BRANCH 46 47
ATOM     47  CD  GLU T 968      30.754  34.866  -6.746  1.00 46.07 LIG 0.17  C 
ATOM     48 OE1  GLU T 968      29.992  33.906  -7.026  1.00 37.62 LIG-0.65  OA
ATOM     49 OE2  GLU T 968      32.005  34.820  -6.839  1.00 42.01 LIG-0.65  OA
ENDBRANCH 46 47
ENDBRANCH 45 46
ENDBRANCH 44 45
BRANCH 44 50
ATOM     50  N   GLU T 968      31.891  39.034  -6.936  1.00 42.28 LIG-0.35  N 
ATOM     51  C   GLU T 967      33.078  39.541  -6.600  1.00 44.22 LIG 0.26  C 
ATOM     52 O    GLU T 967      34.121  38.909  -6.675  1.00 45.73 LIG-0.27  OA
ATOM     53 H    GLU T 968      31.143  39.438  -6.803  1.00 42.28 LIG 0.16  HD
BRANCH 51 54
ATOM     54  CA  GLU T 967      33.099  40.977  -6.093  1.00 63.10 LIG 0.40  C 
ATOM     55  N   GLU T 967      33.782  41.842  -7.050  1.00 61.06 LIG 0.61  N 
BRANCH 54 56
ATOM     56  CB  GLU T 967      31.671  41.464  -5.851  1.00 76.10 LIG 0.06  C 
BRANCH 56 57
ATOM     57  CG  GLU T 967      31.193  42.475  -6.871  1.00 93.75 LIG 0.12  C 
BRANCH 57 58
ATOM     58  CD  GLU T 967      31.012  41.859  -8.244  1.00103.86 LIG 0.17  C 
ATOM     59 OE1  GLU T 967      29.874  41.463  -8.574  1.00104.00 LIG-0.65  OA
ATOM     60 OE2  GLU T 967      32.007  41.781  -8.996  1.00109.28 LIG-0.65  OA
ENDBRANCH 57 58
ENDBRANCH 56 57
ENDBRANCH 54 56
ENDBRANCH 51 54
ENDBRANCH 44 50
ENDBRANCH 41 44
ENDBRANCH 36 40
ENDBRANCH 33 36
ENDBRANCH 1 32
TORSDOF 26
ENDMDL
MODEL 12
USER: ADFR SOLUTION from run 183
USER: SCORE 20.294205 LL:  -5.176 LR: -15.981 RR:   0.000 FEB:  -8.225
USER: RMSD 10.725513
USER: SEED 182
USER: STATUS no improvement in best in 4 clusters for 5 generations
USER: GENES 28
USER: genes 0 Translation |==|  0.29646 0.51956 0.38746
USER: genes 1 Rotation |==|  0.71415 0.56333 0.08975 0.67841
USER: genes 2 Torsion [N]-CA--C-[N] |==|  0.07778
USER: genes 3 Torsion [C]-N--CA-[CB] |==|  0.88315
USER: genes 4 Torsion [N]-CA--CB-[CG] |==|  0.60780
USER: genes 5 Torsion [CA]-CB--CG-[CD] |==|  0.29979
USER: genes 6 Torsion [CB]-CG--CD-[OE1] |==|  0.58904
USER: genes 7 Torsion [N]-CA--C-[N] |==|  0.89251
USER: genes 8 Torsion [C]-N--CA-[CB] |==|  0.17997
USER: genes 9 Torsion [N]-CA--C-[O] |==|  0.03971
USER: genes 10 Torsion [N]-CA--CB-[CG] |==|  0.15828
USER: genes 11 Torsion [CA]-CB--CG-[CD1] |==|  0.33207
USER: genes 12 Torsion [CE1]-CZ--OH-[HH] |==|  0.75576
USER: genes 13 Torsion [C]-CA--CB-[OG] |==|  0.16629
USER: genes 14 Torsion [CA]-CB--OG-[HG] |==|  0.23553
USER: genes 15 Torsion [C]-CA--N-[C] |==|  0.69802
USER: genes 16 Torsion [N]-C--CA-[N] |==|  0.25794
USER: genes 17 Torsion [C]-CA--CB-[CG1] |==|  0.46882
USER: genes 18 Torsion [C]-CA--N-[C] |==|  0.74729
USER: genes 19 Torsion [N]-C--CA-[N] |==|  0.12521
USER: genes 20 Torsion [C]-CA--CB-[CG] |==|  0.57636
USER: genes 21 Torsion [CA]-CB--CG-[CD] |==|  0.85873
USER: genes 22 Torsion [CB]-CG--CD-[OE1] |==|  0.86443
USER: genes 23 Torsion [C]-CA--N-[C] |==|  0.16591
USER: genes 24 Torsion [N]-C--CA-[N] |==|  0.94971
USER: genes 25 Torsion [C]-CA--CB-[CG] |==|  0.90593
USER: genes 26 Torsion [CA]-CB--CG-[CD] |==|  0.78744
USER: genes 27 Torsion [CB]-CG--CD-[OE1] |==|  0.17229
ROOT
ATOM      1  CA  SER T 970      26.435  38.391 -11.565  1.00 53.81 LIG 0.20  C 
ENDROOT
BRANCH 1 2
ATOM      2  C   SER T 970      26.399  39.721 -12.310  1.00 54.98 LIG 0.24  C 
ATOM      3  N   GLU T 971      27.109  40.702 -11.769  1.00 36.24 LIG-0.35  N 
ATOM      4 H    GLU T 971      27.548  40.657 -11.031  1.00 36.24 LIG 0.16  HD
ATOM      5 O    SER T 970      25.783  39.859 -13.379  1.00 50.73 LIG-0.27  OA
BRANCH 3 6
ATOM      6  CA  GLU T 971      27.163  41.964 -12.468  1.00 34.69 LIG 0.18  C 
BRANCH 6 7
ATOM      7  CB  GLU T 971      27.336  41.766 -13.971  1.00 35.28 LIG 0.04  C 
BRANCH 7 8
ATOM      8  CG  GLU T 971      28.273  42.791 -14.606  1.00 38.63 LIG 0.12  C 
BRANCH 8 9
ATOM      9  CD  GLU T 971      29.616  42.185 -15.012  1.00 44.02 LIG 0.17  C 
ATOM     10 OE1  GLU T 971      30.645  42.898 -14.965  1.00 46.94 LIG-0.65  OA
ATOM     11 OE2  GLU T 971      29.644  40.993 -15.379  1.00 38.45 LIG-0.65  OA
ENDBRANCH 8 9
ENDBRANCH 7 8
ENDBRANCH 6 7
BRANCH 6 12
ATOM     12  C   GLU T 971      25.902  42.748 -12.197  1.00 38.38 LIG 0.24  C 
ATOM     13  N   TYR T 972      24.806  42.018 -12.156  1.00 34.07 LIG-0.34  N 
ATOM     14 H    TYR T 972      24.781  41.179 -12.345  1.00 34.07 LIG 0.16  HD
ATOM     15 O    GLU T 971      25.926  43.976 -12.018  1.00 36.91 LIG-0.27  OA
BRANCH 13 16
ATOM     16  CA  TYR T 972      23.530  42.582 -11.782  1.00 35.97 LIG 0.19  C 
BRANCH 16 17
ATOM     17  C   TYR T 972      22.486  41.464 -11.669  1.00 45.43 LIG 0.20  C 
ATOM     18 OXT  TYR T 972      21.296  41.773 -11.604  1.00 40.76 LIG-0.65  OA
ATOM     19 O    TYR T 972      22.786  40.258 -11.622  1.00 41.72 LIG-0.65  OA
ENDBRANCH 16 17
BRANCH 16 20
ATOM     20  CB  TYR T 972      23.083  43.620 -12.806  1.00 33.99 LIG 0.07  C 
BRANCH 20 21
ATOM     21  CG  TYR T 972      23.010  43.030 -14.176  1.00 33.93 LIG-0.06  A 
ATOM     22  CD1 TYR T 972      21.814  43.005 -14.878  1.00 33.64 LIG 0.01  A 
ATOM     23  CE1 TYR T 972      21.753  42.473 -16.149  1.00 37.50 LIG 0.04  A 
ATOM     24  CZ  TYR T 972      22.896  41.981 -16.724  1.00 37.64 LIG 0.07  A 
ATOM     25  CE2 TYR T 972      24.098  42.018 -16.059  1.00 36.30 LIG 0.04  A 
ATOM     26  CD2 TYR T 972      24.152  42.536 -14.793  1.00 38.70 LIG 0.01  A 
BRANCH 24 27
ATOM     27 OH   TYR T 972      22.838  41.452 -17.979  1.00 40.25 LIG-0.36  OA
ATOM     28 HH   TYR T 972      22.646  40.636 -17.930  1.00 40.25 LIG 0.22  HD
ENDBRANCH 24 27
ENDBRANCH 20 21
ENDBRANCH 16 20
ENDBRANCH 13 16
ENDBRANCH 6 12
ENDBRANCH 3 6
ENDBRANCH 1 2
BRANCH 1 29
ATOM     29  CB  SER T 970      25.123  37.652 -11.852  1.00 55.16 LIG 0.20  C 
BRANCH 29 30
ATOM     30 OG   SER T 970      24.972  37.417 -13.240  1.00 59.72 LIG-0.40  OA
ATOM     31 HG   SER T 970      25.377  36.712 -13.451  1.00 59.72 LIG 0.21  HD
ENDBRANCH 29 30
ENDBRANCH 1 29
BRANCH 1 32
ATOM     32  N   SER T 970      26.663  38.471 -10.117  1.00 52.51 LIG-0.34  N 
ATOM     33  C   VAL T 969      27.811  38.085  -9.565  1.00 50.69 LIG 0.24  C 
ATOM     34 O    VAL T 969      28.836  37.902 -10.223  1.00 50.98 LIG-0.27  OA
ATOM     35 H    SER T 970      25.998  38.784  -9.671  1.00 52.51 LIG 0.16  HD
BRANCH 33 36
ATOM     36  CA  VAL T 969      27.822  37.940  -8.032  1.00 48.28 LIG 0.18  C 
BRANCH 36 37
ATOM     37  CB  VAL T 969      29.177  38.357  -7.441  1.00 45.61 LIG 0.01  C 
ATOM     38  CG1 VAL T 969      29.112  38.480  -5.920  1.00 51.33 LIG 0.01  C 
ATOM     39  CG2 VAL T 969      30.257  37.353  -7.849  1.00 51.13 LIG 0.01  C 
ENDBRANCH 36 37
BRANCH 36 40
ATOM     40  N   VAL T 969      27.508  36.566  -7.684  1.00 42.62 LIG-0.35  N 
ATOM     41  C   GLU T 968      26.255  36.200  -7.472  1.00 39.23 LIG 0.24  C 
ATOM     42 O    GLU T 968      25.321  36.993  -7.459  1.00 41.64 LIG-0.27  OA
ATOM     43 H    VAL T 969      28.187  36.040  -7.631  1.00 42.62 LIG 0.16  HD
BRANCH 41 44
ATOM     44  CA  GLU T 968      25.991  34.718  -7.302  1.00 43.46 LIG 0.18  C 
BRANCH 44 45
ATOM     45  CB  GLU T 968      24.579  34.587  -6.759  1.00 39.65 LIG 0.04  C 
BRANCH 45 46
ATOM     46  CG  GLU T 968      24.259  33.403  -5.938  1.00 48.42 LIG 0.12  C 
BRANCH 46 47
ATOM     47  CD  GLU T 968      24.699  32.159  -6.678  1.00 46.07 LIG 0.17  C 
ATOM     48 OE1  GLU T 968      24.357  32.047  -7.883  1.00 37.62 LIG-0.65  OA
ATOM     49 OE2  GLU T 968      25.438  31.341  -6.079  1.00 42.01 LIG-0.65  OA
ENDBRANCH 46 47
ENDBRANCH 45 46
ENDBRANCH 44 45
BRANCH 44 50
ATOM     50  N   GLU T 968      26.967  34.095  -6.412  1.00 42.28 LIG-0.35  N 
ATOM     51  C   GLU T 967      27.118  34.491  -5.148  1.00 44.22 LIG 0.26  C 
ATOM     52 O    GLU T 967      26.556  35.471  -4.681  1.00 45.73 LIG-0.27  OA
ATOM     53 H    GLU T 968      27.425  33.463  -6.774  1.00 42.28 LIG 0.16  HD
BRANCH 51 54
ATOM     54  CA  GLU T 967      28.050  33.666  -4.270  1.00 63.10 LIG 0.40  C 
ATOM     55  N   GLU T 967      28.275  32.353  -4.865  1.00 61.06 LIG 0.61  N 
BRANCH 54 56
ATOM     56  CB  GLU T 967      29.374  34.405  -4.081  1.00 76.10 LIG 0.06  C 
BRANCH 56 57
ATOM     57  CG  GLU T 967      29.795  35.215  -5.288  1.00 93.75 LIG 0.12  C 
BRANCH 57 58
ATOM     58  CD  GLU T 967      30.358  34.344  -6.393  1.00103.86 LIG 0.17  C 
ATOM     59 OE1  GLU T 967      29.615  33.485  -6.912  1.00104.00 LIG-0.65  OA
ATOM     60 OE2  GLU T 967      31.543  34.526  -6.747  1.00109.28 LIG-0.65  OA
ENDBRANCH 57 58
ENDBRANCH 56 57
ENDBRANCH 54 56
ENDBRANCH 51 54
ENDBRANCH 44 50
ENDBRANCH 41 44
ENDBRANCH 36 40
ENDBRANCH 33 36
ENDBRANCH 1 32
TORSDOF 26
ENDMDL
MODEL 13
USER: ADFR SOLUTION from run 87
USER: SCORE 17.765709 LL:  -4.790 LR: -15.899 RR:   0.000 FEB:  -8.143
USER: RMSD 5.359404
USER: SEED 86
USER: STATUS no improvement in best in 14 clusters for 5 generations
USER: GENES 28
USER: genes 0 Translation |==|  0.46771 0.48697 0.57182
USER: genes 1 Rotation |==|  0.71155 0.41352 0.56433 0.94003
USER: genes 2 Torsion [N]-CA--C-[N] |==|  0.48403
USER: genes 3 Torsion [C]-N--CA-[CB] |==|  0.30238
USER: genes 4 Torsion [N]-CA--CB-[CG] |==|  0.08273
USER: genes 5 Torsion [CA]-CB--CG-[CD] |==|  0.67703
USER: genes 6 Torsion [CB]-CG--CD-[OE1] |==|  0.78183
USER: genes 7 Torsion [N]-CA--C-[N] |==|  0.33609
USER: genes 8 Torsion [C]-N--CA-[CB] |==|  0.54275
USER: genes 9 Torsion [N]-CA--C-[O] |==|  0.89404
USER: genes 10 Torsion [N]-CA--CB-[CG] |==|  0.17197
USER: genes 11 Torsion [CA]-CB--CG-[CD1] |==|  0.26860
USER: genes 12 Torsion [CE1]-CZ--OH-[HH] |==|  0.15170
USER: genes 13 Torsion [C]-CA--CB-[OG] |==|  0.75784
USER: genes 14 Torsion [CA]-CB--OG-[HG] |==|  0.22694
USER: genes 15 Torsion [C]-CA--N-[C] |==|  0.70548
USER: genes 16 Torsion [N]-C--CA-[N] |==|  0.65341
USER: genes 17 Torsion [C]-CA--CB-[CG1] |==|  0.19073
USER: genes 18 Torsion [C]-CA--N-[C] |==|  0.14581
USER: genes 19 Torsion [N]-C--CA-[N] |==|  0.95219
USER: genes 20 Torsion [C]-CA--CB-[CG] |==|  0.45278
USER: genes 21 Torsion [CA]-CB--CG-[CD] |==|  0.07581
USER: genes 22 Torsion [CB]-CG--CD-[OE1] |==|  0.77856
USER: genes 23 Torsion [C]-CA--N-[C] |==|  0.21136
USER: genes 24 Torsion [N]-C--CA-[N] |==|  0.83358
USER: genes 25 Torsion [C]-CA--CB-[CG] |==|  0.80530
USER: genes 26 Torsion [CA]-CB--CG-[CD] |==|  0.76539
USER: genes 27 Torsion [CB]-CG--CD-[OE1] |==|  0.23904
ROOT
ATOM      1  CA  SER T 970      31.316  37.756  -7.970  1.00 53.81 LIG 0.20  C 
ENDROOT
BRANCH 1 2
ATOM      2  C   SER T 970      31.895  37.991  -9.360  1.00 54.98 LIG 0.24  C 
ATOM      3  N   GLU T 971      33.096  38.552  -9.395  1.00 36.24 LIG-0.35  N 
ATOM      4 H    GLU T 971      33.547  38.820  -8.713  1.00 36.24 LIG 0.16  HD
ATOM      5 O    SER T 970      31.299  37.635 -10.390  1.00 50.73 LIG-0.27  OA
BRANCH 3 6
ATOM      6  CA  GLU T 971      33.721  38.739 -10.683  1.00 34.69 LIG 0.18  C 
BRANCH 6 7
ATOM      7  CB  GLU T 971      33.759  40.212 -11.079  1.00 35.28 LIG 0.04  C 
BRANCH 7 8
ATOM      8  CG  GLU T 971      33.840  41.153  -9.879  1.00 38.63 LIG 0.12  C 
BRANCH 8 9
ATOM      9  CD  GLU T 971      32.611  42.052  -9.754  1.00 44.02 LIG 0.17  C 
ATOM     10 OE1  GLU T 971      32.515  43.058 -10.494  1.00 46.94 LIG-0.65  OA
ATOM     11 OE2  GLU T 971      31.739  41.753  -8.913  1.00 38.45 LIG-0.65  OA
ENDBRANCH 8 9
ENDBRANCH 7 8
ENDBRANCH 6 7
BRANCH 6 12
ATOM     12  C   GLU T 971      35.124  38.182 -10.652  1.00 38.38 LIG 0.24  C 
ATOM     13  N   TYR T 972      35.351  37.232 -11.536  1.00 34.07 LIG-0.34  N 
ATOM     14 H    TYR T 972      34.744  36.890 -12.040  1.00 34.07 LIG 0.16  HD
ATOM     15 O    GLU T 971      35.975  38.611  -9.858  1.00 36.91 LIG-0.27  OA
BRANCH 13 16
ATOM     16  CA  TYR T 972      36.670  36.677 -11.734  1.00 35.97 LIG 0.19  C 
BRANCH 16 17
ATOM     17  C   TYR T 972      37.708  37.806 -11.741  1.00 45.43 LIG 0.20  C 
ATOM     18 OXT  TYR T 972      38.792  37.615 -11.189  1.00 40.76 LIG-0.65  OA
ATOM     19 O    TYR T 972      37.500  38.915 -12.265  1.00 41.72 LIG-0.65  OA
ENDBRANCH 16 17
BRANCH 16 20
ATOM     20  CB  TYR T 972      36.732  35.894 -13.041  1.00 33.99 LIG 0.07  C 
BRANCH 20 21
ATOM     21  CG  TYR T 972      36.465  36.780 -14.213  1.00 33.93 LIG-0.06  A 
ATOM     22  CD1 TYR T 972      37.508  37.329 -14.943  1.00 33.64 LIG 0.01  A 
ATOM     23  CE1 TYR T 972      37.259  38.136 -16.035  1.00 37.50 LIG 0.04  A 
ATOM     24  CZ  TYR T 972      35.961  38.377 -16.404  1.00 37.64 LIG 0.07  A 
ATOM     25  CE2 TYR T 972      34.911  37.825 -15.712  1.00 36.30 LIG 0.04  A 
ATOM     26  CD2 TYR T 972      35.162  37.035 -14.623  1.00 38.70 LIG 0.01  A 
BRANCH 24 27
ATOM     27 OH   TYR T 972      35.712  39.176 -17.480  1.00 40.25 LIG-0.36  OA
ATOM     28 HH   TYR T 972      36.125  38.881 -18.149  1.00 40.25 LIG 0.22  HD
ENDBRANCH 24 27
ENDBRANCH 20 21
ENDBRANCH 16 20
ENDBRANCH 13 16
ENDBRANCH 6 12
ENDBRANCH 3 6
ENDBRANCH 1 2
BRANCH 1 29
ATOM     29  CB  SER T 970      32.248  36.794  -7.225  1.00 55.16 LIG 0.20  C 
BRANCH 29 30
ATOM     30 OG   SER T 970      31.902  35.448  -7.494  1.00 59.72 LIG-0.40  OA
ATOM     31 HG   SER T 970      32.236  35.214  -8.229  1.00 59.72 LIG 0.21  HD
ENDBRANCH 29 30
ENDBRANCH 1 29
BRANCH 1 32
ATOM     32  N   SER T 970      29.936  37.257  -7.925  1.00 52.51 LIG-0.34  N 
ATOM     33  C   VAL T 969      28.918  38.040  -7.572  1.00 50.69 LIG 0.24  C 
ATOM     34 O    VAL T 969      29.007  39.267  -7.530  1.00 50.98 LIG-0.27  OA
ATOM     35 H    SER T 970      29.850  36.430  -8.143  1.00 52.51 LIG 0.16  HD
BRANCH 33 36
ATOM     36  CA  VAL T 969      27.580  37.336  -7.279  1.00 48.28 LIG 0.18  C 
BRANCH 36 37
ATOM     37  CB  VAL T 969      27.682  35.821  -7.514  1.00 45.61 LIG 0.01  C 
ATOM     38  CG1 VAL T 969      28.582  35.152  -6.476  1.00 51.33 LIG 0.01  C 
ATOM     39  CG2 VAL T 969      26.288  35.194  -7.496  1.00 51.13 LIG 0.01  C 
ENDBRANCH 36 37
BRANCH 36 40
ATOM     40  N   VAL T 969      26.545  37.919  -8.113  1.00 42.62 LIG-0.35  N 
ATOM     41  C   GLU T 968      26.715  38.010  -9.421  1.00 39.23 LIG 0.24  C 
ATOM     42 O    GLU T 968      27.764  37.711  -9.981  1.00 41.64 LIG-0.27  OA
ATOM     43 H    VAL T 969      25.845  38.185  -7.691  1.00 42.62 LIG 0.16  HD
BRANCH 41 44
ATOM     44  CA  GLU T 968      25.520  38.450 -10.240  1.00 43.46 LIG 0.18  C 
BRANCH 44 45
ATOM     45  CB  GLU T 968      25.774  39.893 -10.641  1.00 39.65 LIG 0.04  C 
BRANCH 45 46
ATOM     46  CG  GLU T 968      24.975  40.457 -11.746  1.00 48.42 LIG 0.12  C 
BRANCH 46 47
ATOM     47  CD  GLU T 968      23.648  39.734 -11.811  1.00 46.07 LIG 0.17  C 
ATOM     48 OE1  GLU T 968      23.625  38.608 -12.370  1.00 37.62 LIG-0.65  OA
ATOM     49 OE2  GLU T 968      22.657  40.257 -11.246  1.00 42.01 LIG-0.65  OA
ENDBRANCH 46 47
ENDBRANCH 45 46
ENDBRANCH 44 45
BRANCH 44 50
ATOM     50  N   GLU T 968      24.273  38.315  -9.491  1.00 42.28 LIG-0.35  N 
ATOM     51  C   GLU T 967      23.930  39.179  -8.536  1.00 44.22 LIG 0.26  C 
ATOM     52 O    GLU T 967      24.675  40.060  -8.131  1.00 45.73 LIG-0.27  OA
ATOM     53 H    GLU T 968      23.794  37.638  -9.720  1.00 42.28 LIG 0.16  HD
BRANCH 51 54
ATOM     54  CA  GLU T 967      22.539  39.030  -7.934  1.00 63.10 LIG 0.40  C 
ATOM     55  N   GLU T 967      21.521  39.181  -8.969  1.00 61.06 LIG 0.61  N 
BRANCH 54 56
ATOM     56  CB  GLU T 967      22.413  37.671  -7.248  1.00 76.10 LIG 0.06  C 
BRANCH 56 57
ATOM     57  CG  GLU T 967      22.380  36.505  -8.213  1.00 93.75 LIG 0.12  C 
BRANCH 57 58
ATOM     58  CD  GLU T 967      20.987  36.246  -8.750  1.00103.86 LIG 0.17  C 
ATOM     59 OE1  GLU T 967      20.606  36.885  -9.752  1.00104.00 LIG-0.65  OA
ATOM     60 OE2  GLU T 967      20.278  35.393  -8.172  1.00109.28 LIG-0.65  OA
ENDBRANCH 57 58
ENDBRANCH 56 57
ENDBRANCH 54 56
ENDBRANCH 51 54
ENDBRANCH 44 50
ENDBRANCH 41 44
ENDBRANCH 36 40
ENDBRANCH 33 36
ENDBRANCH 1 32
TORSDOF 26
ENDMDL
MODEL 14
USER: ADFR SOLUTION from run 87
USER: SCORE 18.389074 LL:  -4.666 LR: -15.891 RR:   0.000 FEB:  -8.135
USER: RMSD 5.112585
USER: SEED 86
USER: STATUS no improvement in best in 14 clusters for 5 generations
USER: GENES 28
USER: genes 0 Translation |==|  0.47954 0.49452 0.56755
USER: genes 1 Rotation |==|  0.69853 0.41638 0.54330 0.94913
USER: genes 2 Torsion [N]-CA--C-[N] |==|  0.47778
USER: genes 3 Torsion [C]-N--CA-[CB] |==|  0.30541
USER: genes 4 Torsion [N]-CA--CB-[CG] |==|  0.07910
USER: genes 5 Torsion [CA]-CB--CG-[CD] |==|  0.71611
USER: genes 6 Torsion [CB]-CG--CD-[OE1] |==|  0.76696
USER: genes 7 Torsion [N]-CA--C-[N] |==|  0.28913
USER: genes 8 Torsion [C]-N--CA-[CB] |==|  0.48877
USER: genes 9 Torsion [N]-CA--C-[O] |==|  0.88318
USER: genes 10 Torsion [N]-CA--CB-[CG] |==|  0.44093
USER: genes 11 Torsion [CA]-CB--CG-[CD1] |==|  0.73719
USER: genes 12 Torsion [CE1]-CZ--OH-[HH] |==|  0.24719
USER: genes 13 Torsion [C]-CA--CB-[OG] |==|  0.75143
USER: genes 14 Torsion [CA]-CB--OG-[HG] |==|  0.32946
USER: genes 15 Torsion [C]-CA--N-[C] |==|  0.77235
USER: genes 16 Torsion [N]-C--CA-[N] |==|  0.62564
USER: genes 17 Torsion [C]-CA--CB-[CG1] |==|  0.22723
USER: genes 18 Torsion [C]-CA--N-[C] |==|  0.14117
USER: genes 19 Torsion [N]-C--CA-[N] |==|  0.12026
USER: genes 20 Torsion [C]-CA--CB-[CG] |==|  0.48732
USER: genes 21 Torsion [CA]-CB--CG-[CD] |==|  0.28611
USER: genes 22 Torsion [CB]-CG--CD-[OE1] |==|  0.02764
USER: genes 23 Torsion [C]-CA--N-[C] |==|  0.14801
USER: genes 24 Torsion [N]-C--CA-[N] |==|  0.82339
USER: genes 25 Torsion [C]-CA--CB-[CG] |==|  0.83533
USER: genes 26 Torsion [CA]-CB--CG-[CD] |==|  0.82897
USER: genes 27 Torsion [CB]-CG--CD-[OE1] |==|  0.37280
ROOT
ATOM      1  CA  SER T 970      31.653  37.903  -8.054  1.00 53.81 LIG 0.20  C 
ENDROOT
BRANCH 1 2
ATOM      2  C   SER T 970      32.183  38.024  -9.477  1.00 54.98 LIG 0.24  C 
ATOM      3  N   GLU T 971      33.406  38.524  -9.594  1.00 36.24 LIG-0.35  N 
ATOM      4 H    GLU T 971      33.896  38.811  -8.949  1.00 36.24 LIG 0.16  HD
ATOM      5 O    SER T 970      31.529  37.634 -10.459  1.00 50.73 LIG-0.27  OA
BRANCH 3 6
ATOM      6  CA  GLU T 971      33.984  38.601 -10.915  1.00 34.69 LIG 0.18  C 
BRANCH 6 7
ATOM      7  CB  GLU T 971      34.097  40.046 -11.394  1.00 35.28 LIG 0.04  C 
BRANCH 7 8
ATOM      8  CG  GLU T 971      34.257  41.045 -10.251  1.00 38.63 LIG 0.12  C 
BRANCH 8 9
ATOM      9  CD  GLU T 971      32.959  41.786  -9.932  1.00 44.02 LIG 0.17  C 
ATOM     10 OE1  GLU T 971      32.654  42.797 -10.604  1.00 46.94 LIG-0.65  OA
ATOM     11 OE2  GLU T 971      32.242  41.355  -9.005  1.00 38.45 LIG-0.65  OA
ENDBRANCH 8 9
ENDBRANCH 7 8
ENDBRANCH 6 7
BRANCH 6 12
ATOM     12  C   GLU T 971      35.349  37.956 -10.910  1.00 38.38 LIG 0.24  C 
ATOM     13  N   TYR T 972      35.388  36.761 -11.463  1.00 34.07 LIG-0.34  N 
ATOM     14 H    TYR T 972      34.692  36.336 -11.736  1.00 34.07 LIG 0.16  HD
ATOM     15 O    GLU T 971      36.337  38.533 -10.431  1.00 36.91 LIG-0.27  OA
BRANCH 13 16
ATOM     16  CA  TYR T 972      36.632  36.055 -11.660  1.00 35.97 LIG 0.19  C 
BRANCH 16 17
ATOM     17  C   TYR T 972      37.533  36.854 -12.609  1.00 45.43 LIG 0.20  C 
ATOM     18 OXT  TYR T 972      38.730  36.960 -12.337  1.00 40.76 LIG-0.65  OA
ATOM     19 O    TYR T 972      37.109  37.417 -13.634  1.00 41.72 LIG-0.65  OA
ENDBRANCH 16 17
BRANCH 16 20
ATOM     20  CB  TYR T 972      36.374  34.662 -12.225  1.00 33.99 LIG 0.07  C 
BRANCH 20 21
ATOM     21  CG  TYR T 972      37.591  34.122 -12.902  1.00 33.93 LIG-0.06  A 
ATOM     22  CD1 TYR T 972      37.767  34.266 -14.271  1.00 33.64 LIG 0.01  A 
ATOM     23  CE1 TYR T 972      38.899  33.779 -14.892  1.00 37.50 LIG 0.04  A 
ATOM     24  CZ  TYR T 972      39.863  33.163 -14.137  1.00 37.64 LIG 0.07  A 
ATOM     25  CE2 TYR T 972      39.723  33.031 -12.777  1.00 36.30 LIG 0.04  A 
ATOM     26  CD2 TYR T 972      38.594  33.504 -12.166  1.00 38.70 LIG 0.01  A 
BRANCH 24 27
ATOM     27 OH   TYR T 972      40.981  32.679 -14.748  1.00 40.25 LIG-0.36  OA
ATOM     28 HH   TYR T 972      41.567  33.280 -14.778  1.00 40.25 LIG 0.22  HD
ENDBRANCH 24 27
ENDBRANCH 20 21
ENDBRANCH 16 20
ENDBRANCH 13 16
ENDBRANCH 6 12
ENDBRANCH 3 6
ENDBRANCH 1 2
BRANCH 1 29
ATOM     29  CB  SER T 970      32.538  36.902  -7.302  1.00 55.16 LIG 0.20  C 
BRANCH 29 30
ATOM     30 OG   SER T 970      32.040  35.585  -7.445  1.00 59.72 LIG-0.40  OA
ATOM     31 HG   SER T 970      32.614  35.108  -7.830  1.00 59.72 LIG 0.21  HD
ENDBRANCH 29 30
ENDBRANCH 1 29
BRANCH 1 32
ATOM     32  N   SER T 970      30.240  37.525  -7.924  1.00 52.51 LIG-0.34  N 
ATOM     33  C   VAL T 969      29.261  38.419  -8.036  1.00 50.69 LIG 0.24  C 
ATOM     34 O    VAL T 969      29.435  39.539  -8.518  1.00 50.98 LIG-0.27  OA
ATOM     35 H    SER T 970      30.110  36.688  -7.771  1.00 52.51 LIG 0.16  HD
BRANCH 33 36
ATOM     36  CA  VAL T 969      27.859  37.962  -7.591  1.00 48.28 LIG 0.18  C 
BRANCH 36 37
ATOM     37  CB  VAL T 969      27.809  36.441  -7.378  1.00 45.61 LIG 0.01  C 
ATOM     38  CG1 VAL T 969      28.355  36.049  -6.007  1.00 51.33 LIG 0.01  C 
ATOM     39  CG2 VAL T 969      26.375  35.937  -7.546  1.00 51.13 LIG 0.01  C 
ENDBRANCH 36 37
BRANCH 36 40
ATOM     40  N   VAL T 969      26.888  38.376  -8.587  1.00 42.62 LIG-0.35  N 
ATOM     41  C   GLU T 968      27.082  38.098  -9.865  1.00 39.23 LIG 0.24  C 
ATOM     42 O    GLU T 968      28.109  37.579 -10.287  1.00 41.64 LIG-0.27  OA
ATOM     43 H    VAL T 969      26.207  38.800  -8.277  1.00 42.62 LIG 0.16  HD
BRANCH 41 44
ATOM     44  CA  GLU T 968      25.938  38.391 -10.814  1.00 43.46 LIG 0.18  C 
BRANCH 44 45
ATOM     45  CB  GLU T 968      26.515  38.345 -12.218  1.00 39.65 LIG 0.04  C 
BRANCH 45 46
ATOM     46  CG  GLU T 968      25.586  38.497 -13.355  1.00 48.42 LIG 0.12  C 
BRANCH 46 47
ATOM     47  CD  GLU T 968      25.711  39.900 -13.906  1.00 46.07 LIG 0.17  C 
ATOM     48 OE1  GLU T 968      26.658  40.610 -13.483  1.00 37.62 LIG-0.65  OA
ATOM     49 OE2  GLU T 968      24.912  40.259 -14.805  1.00 42.01 LIG-0.65  OA
ENDBRANCH 46 47
ENDBRANCH 45 46
ENDBRANCH 44 45
BRANCH 44 50
ATOM     50  N   GLU T 968      25.322  39.684 -10.531  1.00 42.28 LIG-0.35  N 
ATOM     51  C   GLU T 967      26.041  40.805 -10.460  1.00 44.22 LIG 0.26  C 
ATOM     52 O    GLU T 967      27.262  40.820 -10.495  1.00 45.73 LIG-0.27  OA
ATOM     53 H    GLU T 968      24.469  39.654 -10.418  1.00 42.28 LIG 0.16  HD
BRANCH 51 54
ATOM     54  CA  GLU T 967      25.273  42.113 -10.318  1.00 63.10 LIG 0.40  C 
ATOM     55  N   GLU T 967      24.448  42.346 -11.499  1.00 61.06 LIG 0.61  N 
BRANCH 54 56
ATOM     56  CB  GLU T 967      24.411  42.075  -9.057  1.00 76.10 LIG 0.06  C 
BRANCH 56 57
ATOM     57  CG  GLU T 967      23.402  40.946  -9.046  1.00 93.75 LIG 0.12  C 
BRANCH 57 58
ATOM     58  CD  GLU T 967      22.409  41.054 -10.186  1.00103.86 LIG 0.17  C 
ATOM     59 OE1  GLU T 967      22.149  40.029 -10.848  1.00104.00 LIG-0.65  OA
ATOM     60 OE2  GLU T 967      21.883  42.166 -10.411  1.00109.28 LIG-0.65  OA
ENDBRANCH 57 58
ENDBRANCH 56 57
ENDBRANCH 54 56
ENDBRANCH 51 54
ENDBRANCH 44 50
ENDBRANCH 41 44
ENDBRANCH 36 40
ENDBRANCH 33 36
ENDBRANCH 1 32
TORSDOF 26
ENDMDL
MODEL 15
USER: ADFR SOLUTION from run 180
USER: SCORE 19.170601 LL:  -5.438 LR: -15.888 RR:   0.000 FEB:  -8.132
USER: RMSD 10.304951
USER: SEED 179
USER: STATUS searching
USER: GENES 28
USER: genes 0 Translation |==|  0.26311 0.50875 0.34971
USER: genes 1 Rotation |==|  0.68621 0.50130 0.09017 0.71763
USER: genes 2 Torsion [N]-CA--C-[N] |==|  0.97798
USER: genes 3 Torsion [C]-N--CA-[CB] |==|  0.38632
USER: genes 4 Torsion [N]-CA--CB-[CG] |==|  0.73325
USER: genes 5 Torsion [CA]-CB--CG-[CD] |==|  0.25290
USER: genes 6 Torsion [CB]-CG--CD-[OE1] |==|  0.95376
USER: genes 7 Torsion [N]-CA--C-[N] |==|  0.61409
USER: genes 8 Torsion [C]-N--CA-[CB] |==|  0.79904
USER: genes 9 Torsion [N]-CA--C-[O] |==|  0.16864
USER: genes 10 Torsion [N]-CA--CB-[CG] |==|  0.96119
USER: genes 11 Torsion [CA]-CB--CG-[CD1] |==|  0.30573
USER: genes 12 Torsion [CE1]-CZ--OH-[HH] |==|  0.43282
USER: genes 13 Torsion [C]-CA--CB-[OG] |==|  0.24040
USER: genes 14 Torsion [CA]-CB--OG-[HG] |==|  0.02903
USER: genes 15 Torsion [C]-CA--N-[C] |==|  0.66881
USER: genes 16 Torsion [N]-C--CA-[N] |==|  0.34525
USER: genes 17 Torsion [C]-CA--CB-[CG1] |==|  0.43943
USER: genes 18 Torsion [C]-CA--N-[C] |==|  0.81648
USER: genes 19 Torsion [N]-C--CA-[N] |==|  0.06854
USER: genes 20 Torsion [C]-CA--CB-[CG] |==|  0.43659
USER: genes 21 Torsion [CA]-CB--CG-[CD] |==|  0.67096
USER: genes 22 Torsion [CB]-CG--CD-[OE1] |==|  0.28324
USER: genes 23 Torsion [C]-CA--N-[C] |==|  0.68061
USER: genes 24 Torsion [N]-C--CA-[N] |==|  0.41981
USER: genes 25 Torsion [C]-CA--CB-[CG] |==|  0.86915
USER: genes 26 Torsion [CA]-CB--CG-[CD] |==|  0.75926
USER: genes 27 Torsion [CB]-CG--CD-[OE1] |==|  0.65795
ROOT
ATOM      1  CA  SER T 970      25.485  38.181 -12.302  1.00 53.81 LIG 0.20  C 
ENDROOT
BRANCH 1 2
ATOM      2  C   SER T 970      25.421  39.216 -13.419  1.00 54.98 LIG 0.24  C 
ATOM      3  N   GLU T 971      25.381  40.482 -13.027  1.00 36.24 LIG-0.35  N 
ATOM      4 H    GLU T 971      25.353  40.756 -12.213  1.00 36.24 LIG 0.16  HD
ATOM      5 O    SER T 970      25.453  38.893 -14.618  1.00 50.73 LIG-0.27  OA
BRANCH 3 6
ATOM      6  CA  GLU T 971      25.385  41.507 -14.044  1.00 34.69 LIG 0.18  C 
BRANCH 6 7
ATOM      7  CB  GLU T 971      24.419  42.638 -13.703  1.00 35.28 LIG 0.04  C 
BRANCH 7 8
ATOM      8  CG  GLU T 971      23.055  42.483 -14.372  1.00 38.63 LIG 0.12  C 
BRANCH 8 9
ATOM      9  CD  GLU T 971      22.059  41.714 -13.505  1.00 44.02 LIG 0.17  C 
ATOM     10 OE1  GLU T 971      22.487  41.035 -12.544  1.00 46.94 LIG-0.65  OA
ATOM     11 OE2  GLU T 971      20.845  41.790 -13.785  1.00 38.45 LIG-0.65  OA
ENDBRANCH 8 9
ENDBRANCH 7 8
ENDBRANCH 6 7
BRANCH 6 12
ATOM     12  C   GLU T 971      26.781  42.058 -14.203  1.00 38.38 LIG 0.24  C 
ATOM     13  N   TYR T 972      26.836  43.366 -14.354  1.00 34.07 LIG-0.34  N 
ATOM     14 H    TYR T 972      26.143  43.868 -14.438  1.00 34.07 LIG 0.16  HD
ATOM     15 O    GLU T 971      27.777  41.319 -14.176  1.00 36.91 LIG-0.27  OA
BRANCH 13 16
ATOM     16  CA  TYR T 972      28.093  44.075 -14.391  1.00 35.97 LIG 0.19  C 
BRANCH 16 17
ATOM     17  C   TYR T 972      29.042  43.389 -15.381  1.00 45.43 LIG 0.20  C 
ATOM     18 OXT  TYR T 972      30.117  42.955 -14.964  1.00 40.76 LIG-0.65  OA
ATOM     19 O    TYR T 972      28.786  43.266 -16.592  1.00 41.72 LIG-0.65  OA
ENDBRANCH 16 17
BRANCH 16 20
ATOM     20  CB  TYR T 972      28.723  44.122 -13.003  1.00 33.99 LIG 0.07  C 
BRANCH 20 21
ATOM     21  CG  TYR T 972      27.737  43.734 -11.950  1.00 33.93 LIG-0.06  A 
ATOM     22  CD1 TYR T 972      27.861  42.535 -11.265  1.00 33.64 LIG 0.01  A 
ATOM     23  CE1 TYR T 972      26.957  42.185 -10.283  1.00 37.50 LIG 0.04  A 
ATOM     24  CZ  TYR T 972      25.937  43.048  -9.976  1.00 37.64 LIG 0.07  A 
ATOM     25  CE2 TYR T 972      25.807  44.253 -10.623  1.00 36.30 LIG 0.04  A 
ATOM     26  CD2 TYR T 972      26.698  44.591 -11.605  1.00 38.70 LIG 0.01  A 
BRANCH 24 27
ATOM     27 OH   TYR T 972      25.041  42.704  -9.008  1.00 40.25 LIG-0.36  OA
ATOM     28 HH   TYR T 972      24.694  43.399  -8.688  1.00 40.25 LIG 0.22  HD
ENDBRANCH 24 27
ENDBRANCH 20 21
ENDBRANCH 16 20
ENDBRANCH 13 16
ENDBRANCH 6 12
ENDBRANCH 3 6
ENDBRANCH 1 2
BRANCH 1 29
ATOM     29  CB  SER T 970      24.206  37.337 -12.363  1.00 55.16 LIG 0.20  C 
BRANCH 29 30
ATOM     30 OG   SER T 970      24.359  36.257 -13.264  1.00 59.72 LIG-0.40  OA
ATOM     31 HG   SER T 970      25.165  36.193 -13.491  1.00 59.72 LIG 0.21  HD
ENDBRANCH 29 30
ENDBRANCH 1 29
BRANCH 1 32
ATOM     32  N   SER T 970      25.676  38.709 -10.945  1.00 52.51 LIG-0.34  N 
ATOM     33  C   VAL T 969      26.737  38.385 -10.210  1.00 50.69 LIG 0.24  C 
ATOM     34 O    VAL T 969      27.745  37.864 -10.689  1.00 50.98 LIG-0.27  OA
ATOM     35 H    SER T 970      25.051  39.236 -10.678  1.00 52.51 LIG 0.16  HD
BRANCH 33 36
ATOM     36  CA  VAL T 969      26.678  38.759  -8.717  1.00 48.28 LIG 0.18  C 
BRANCH 36 37
ATOM     37  CB  VAL T 969      27.714  39.841  -8.371  1.00 45.61 LIG 0.01  C 
ATOM     38  CG1 VAL T 969      27.335  40.593  -7.096  1.00 51.33 LIG 0.01  C 
ATOM     39  CG2 VAL T 969      29.100  39.212  -8.228  1.00 51.13 LIG 0.01  C 
ENDBRANCH 36 37
BRANCH 36 40
ATOM     40  N   VAL T 969      26.894  37.566  -7.920  1.00 42.62 LIG-0.35  N 
ATOM     41  C   GLU T 968      26.009  36.584  -7.934  1.00 39.23 LIG 0.24  C 
ATOM     42 O    GLU T 968      24.937  36.660  -8.525  1.00 41.64 LIG-0.27  OA
ATOM     43 H    VAL T 969      27.620  37.563  -7.459  1.00 42.62 LIG 0.16  HD
BRANCH 41 44
ATOM     44  CA  GLU T 968      26.395  35.300  -7.231  1.00 43.46 LIG 0.18  C 
BRANCH 44 45
ATOM     45  CB  GLU T 968      25.117  34.719  -6.652  1.00 39.65 LIG 0.04  C 
BRANCH 45 46
ATOM     46  CG  GLU T 968      25.078  33.270  -6.371  1.00 48.42 LIG 0.12  C 
BRANCH 46 47
ATOM     47  CD  GLU T 968      23.995  32.635  -7.215  1.00 46.07 LIG 0.17  C 
ATOM     48 OE1  GLU T 968      24.353  32.010  -8.246  1.00 37.62 LIG-0.65  OA
ATOM     49 OE2  GLU T 968      22.809  32.703  -6.811  1.00 42.01 LIG-0.65  OA
ENDBRANCH 46 47
ENDBRANCH 45 46
ENDBRANCH 44 45
BRANCH 44 50
ATOM     50  N   GLU T 968      27.395  35.534  -6.192  1.00 42.28 LIG-0.35  N 
ATOM     51  C   GLU T 967      28.626  35.029  -6.275  1.00 44.22 LIG 0.26  C 
ATOM     52 O    GLU T 967      28.968  34.239  -7.142  1.00 45.73 LIG-0.27  OA
ATOM     53 H    GLU T 968      27.118  36.018  -5.537  1.00 42.28 LIG 0.16  HD
BRANCH 51 54
ATOM     54  CA  GLU T 967      29.628  35.468  -5.215  1.00 63.10 LIG 0.40  C 
ATOM     55  N   GLU T 967      30.619  34.421  -4.990  1.00 61.06 LIG 0.61  N 
BRANCH 54 56
ATOM     56  CB  GLU T 967      30.307  36.767  -5.650  1.00 76.10 LIG 0.06  C 
BRANCH 56 57
ATOM     57  CG  GLU T 967      30.794  36.746  -7.083  1.00 93.75 LIG 0.12  C 
BRANCH 57 58
ATOM     58  CD  GLU T 967      32.186  36.160  -7.205  1.00103.86 LIG 0.17  C 
ATOM     59 OE1  GLU T 967      33.080  36.852  -7.735  1.00104.00 LIG-0.65  OA
ATOM     60 OE2  GLU T 967      32.386  35.008  -6.761  1.00109.28 LIG-0.65  OA
ENDBRANCH 57 58
ENDBRANCH 56 57
ENDBRANCH 54 56
ENDBRANCH 51 54
ENDBRANCH 44 50
ENDBRANCH 41 44
ENDBRANCH 36 40
ENDBRANCH 33 36
ENDBRANCH 1 32
TORSDOF 26
ENDMDL
MODEL 16
USER: ADFR SOLUTION from run 87
USER: SCORE 18.193665 LL:  -4.547 LR: -15.878 RR:   0.000 FEB:  -8.122
USER: RMSD 5.472454
USER: SEED 86
USER: STATUS no improvement in best in 14 clusters for 5 generations
USER: GENES 28
USER: genes 0 Translation |==|  0.50151 0.51253 0.53362
USER: genes 1 Rotation |==|  0.64005 0.43307 0.55475 0.97213
USER: genes 2 Torsion [N]-CA--C-[N] |==|  0.52172
USER: genes 3 Torsion [C]-N--CA-[CB] |==|  0.26653
USER: genes 4 Torsion [N]-CA--CB-[CG] |==|  0.75639
USER: genes 5 Torsion [CA]-CB--CG-[CD] |==|  0.78782
USER: genes 6 Torsion [CB]-CG--CD-[OE1] |==|  0.52500
USER: genes 7 Torsion [N]-CA--C-[N] |==|  0.38967
USER: genes 8 Torsion [C]-N--CA-[CB] |==|  0.46920
USER: genes 9 Torsion [N]-CA--C-[O] |==|  0.90661
USER: genes 10 Torsion [N]-CA--CB-[CG] |==|  0.49008
USER: genes 11 Torsion [CA]-CB--CG-[CD1] |==|  0.68521
USER: genes 12 Torsion [CE1]-CZ--OH-[HH] |==|  0.32092
USER: genes 13 Torsion [C]-CA--CB-[OG] |==|  0.74374
USER: genes 14 Torsion [CA]-CB--OG-[HG] |==|  0.41211
USER: genes 15 Torsion [C]-CA--N-[C] |==|  0.66989
USER: genes 16 Torsion [N]-C--CA-[N] |==|  0.65250
USER: genes 17 Torsion [C]-CA--CB-[CG1] |==|  0.21761
USER: genes 18 Torsion [C]-CA--N-[C] |==|  0.15845
USER: genes 19 Torsion [N]-C--CA-[N] |==|  0.39965
USER: genes 20 Torsion [C]-CA--CB-[CG] |==|  0.53593
USER: genes 21 Torsion [CA]-CB--CG-[CD] |==|  0.79193
USER: genes 22 Torsion [CB]-CG--CD-[OE1] |==|  0.89442
USER: genes 23 Torsion [C]-CA--N-[C] |==|  0.66588
USER: genes 24 Torsion [N]-C--CA-[N] |==|  0.04042
USER: genes 25 Torsion [C]-CA--CB-[CG] |==|  0.86307
USER: genes 26 Torsion [CA]-CB--CG-[CD] |==|  0.79258
USER: genes 27 Torsion [CB]-CG--CD-[OE1] |==|  0.23065
ROOT
ATOM      1  CA  SER T 970      32.279  38.254  -8.715  1.00 53.81 LIG 0.20  C 
ENDROOT
BRANCH 1 2
ATOM      2  C   SER T 970      32.758  38.012 -10.142  1.00 54.98 LIG 0.24  C 
ATOM      3  N   GLU T 971      34.057  38.180 -10.348  1.00 36.24 LIG-0.35  N 
ATOM      4 H    GLU T 971      34.629  38.442  -9.763  1.00 36.24 LIG 0.16  HD
ATOM      5 O    SER T 970      31.986  37.635 -11.040  1.00 50.73 LIG-0.27  OA
BRANCH 3 6
ATOM      6  CA  GLU T 971      34.576  37.900 -11.666  1.00 34.69 LIG 0.18  C 
BRANCH 6 7
ATOM      7  CB  GLU T 971      34.680  39.169 -12.508  1.00 35.28 LIG 0.04  C 
BRANCH 7 8
ATOM      8  CG  GLU T 971      33.394  39.492 -13.266  1.00 38.63 LIG 0.12  C 
BRANCH 8 9
ATOM      9  CD  GLU T 971      33.197  38.604 -14.494  1.00 44.02 LIG 0.17  C 
ATOM     10 OE1  GLU T 971      32.276  38.873 -15.298  1.00 46.94 LIG-0.65  OA
ATOM     11 OE2  GLU T 971      33.965  37.633 -14.654  1.00 38.45 LIG-0.65  OA
ENDBRANCH 8 9
ENDBRANCH 7 8
ENDBRANCH 6 7
BRANCH 6 12
ATOM     12  C   GLU T 971      35.934  37.252 -11.550  1.00 38.38 LIG 0.24  C 
ATOM     13  N   TYR T 972      36.148  36.279 -12.412  1.00 34.07 LIG-0.34  N 
ATOM     14 H    TYR T 972      35.549  35.972 -12.948  1.00 34.07 LIG 0.16  HD
ATOM     15 O    GLU T 971      36.765  37.633 -10.712  1.00 36.91 LIG-0.27  OA
BRANCH 13 16
ATOM     16  CA  TYR T 972      37.435  35.636 -12.529  1.00 35.97 LIG 0.19  C 
BRANCH 16 17
ATOM     17  C   TYR T 972      38.448  36.615 -13.135  1.00 45.43 LIG 0.20  C 
ATOM     18 OXT  TYR T 972      39.618  36.564 -12.756  1.00 40.76 LIG-0.65  OA
ATOM     19 O    TYR T 972      38.138  37.474 -13.981  1.00 41.72 LIG-0.65  OA
ENDBRANCH 16 17
BRANCH 16 20
ATOM     20  CB  TYR T 972      37.333  34.382 -13.391  1.00 33.99 LIG 0.07  C 
BRANCH 20 21
ATOM     21  CG  TYR T 972      38.673  33.754 -13.591  1.00 33.93 LIG-0.06  A 
ATOM     22  CD1 TYR T 972      39.264  33.722 -14.845  1.00 33.64 LIG 0.01  A 
ATOM     23  CE1 TYR T 972      40.509  33.155 -15.024  1.00 37.50 LIG 0.04  A 
ATOM     24  CZ  TYR T 972      41.169  32.635 -13.941  1.00 37.64 LIG 0.07  A 
ATOM     25  CE2 TYR T 972      40.615  32.678 -12.684  1.00 36.30 LIG 0.04  A 
ATOM     26  CD2 TYR T 972      39.375  33.230 -12.513  1.00 38.70 LIG 0.01  A 
BRANCH 24 27
ATOM     27 OH   TYR T 972      42.398  32.071 -14.116  1.00 40.25 LIG-0.36  OA
ATOM     28 HH   TYR T 972      42.974  32.520 -13.701  1.00 40.25 LIG 0.22  HD
ENDBRANCH 24 27
ENDBRANCH 20 21
ENDBRANCH 16 20
ENDBRANCH 13 16
ENDBRANCH 6 12
ENDBRANCH 3 6
ENDBRANCH 1 2
BRANCH 1 29
ATOM     29  CB  SER T 970      33.214  37.495  -7.766  1.00 55.16 LIG 0.20  C 
BRANCH 29 30
ATOM     30 OG   SER T 970      32.711  36.200  -7.496  1.00 59.72 LIG-0.40  OA
ATOM     31 HG   SER T 970      33.352  35.671  -7.371  1.00 59.72 LIG 0.21  HD
ENDBRANCH 29 30
ENDBRANCH 1 29
BRANCH 1 32
ATOM     32  N   SER T 970      30.881  37.900  -8.437  1.00 52.51 LIG-0.34  N 
ATOM     33  C   VAL T 969      29.994  38.808  -8.036  1.00 50.69 LIG 0.24  C 
ATOM     34 O    VAL T 969      30.192  40.020  -8.135  1.00 50.98 LIG-0.27  OA
ATOM     35 H    SER T 970      30.696  37.068  -8.555  1.00 52.51 LIG 0.16  HD
BRANCH 33 36
ATOM     36  CA  VAL T 969      28.656  38.270  -7.498  1.00 48.28 LIG 0.18  C 
BRANCH 36 37
ATOM     37  CB  VAL T 969      28.591  36.737  -7.593  1.00 45.61 LIG 0.01  C 
ATOM     38  CG1 VAL T 969      29.384  36.072  -6.470  1.00 51.33 LIG 0.01  C 
ATOM     39  CG2 VAL T 969      27.135  36.272  -7.566  1.00 51.13 LIG 0.01  C 
ENDBRANCH 36 37
BRANCH 36 40
ATOM     40  N   VAL T 969      27.567  38.878  -8.240  1.00 42.62 LIG-0.35  N 
ATOM     41  C   GLU T 968      27.508  38.762  -9.556  1.00 39.23 LIG 0.24  C 
ATOM     42 O    GLU T 968      28.394  38.236 -10.220  1.00 41.64 LIG-0.27  OA
ATOM     43 H    VAL T 969      26.992  39.301  -7.760  1.00 42.62 LIG 0.16  HD
BRANCH 41 44
ATOM     44  CA  GLU T 968      26.248  39.257 -10.234  1.00 43.46 LIG 0.18  C 
BRANCH 44 45
ATOM     45  CB  GLU T 968      25.331  38.055 -10.380  1.00 39.65 LIG 0.04  C 
BRANCH 45 46
ATOM     46  CG  GLU T 968      24.156  38.181 -11.264  1.00 48.42 LIG 0.12  C 
BRANCH 46 47
ATOM     47  CD  GLU T 968      23.108  39.022 -10.569  1.00 46.07 LIG 0.17  C 
ATOM     48 OE1  GLU T 968      22.964  38.866  -9.330  1.00 37.62 LIG-0.65  OA
ATOM     49 OE2  GLU T 968      22.486  39.877 -11.246  1.00 42.01 LIG-0.65  OA
ENDBRANCH 46 47
ENDBRANCH 45 46
ENDBRANCH 44 45
BRANCH 44 50
ATOM     50  N   GLU T 968      26.538  39.868 -11.529  1.00 42.28 LIG-0.35  N 
ATOM     51  C   GLU T 967      26.228  41.138 -11.791  1.00 44.22 LIG 0.26  C 
ATOM     52 O    GLU T 967      25.573  41.838 -11.032  1.00 45.73 LIG-0.27  OA
ATOM     53 H    GLU T 968      26.918  39.342 -12.093  1.00 42.28 LIG 0.16  HD
BRANCH 51 54
ATOM     54  CA  GLU T 967      26.719  41.713 -13.113  1.00 63.10 LIG 0.40  C 
ATOM     55  N   GLU T 967      27.155  40.639 -14.001  1.00 61.06 LIG 0.61  N 
BRANCH 54 56
ATOM     56  CB  GLU T 967      25.608  42.534 -13.767  1.00 76.10 LIG 0.06  C 
BRANCH 56 57
ATOM     57  CG  GLU T 967      24.278  41.813 -13.832  1.00 93.75 LIG 0.12  C 
BRANCH 57 58
ATOM     58  CD  GLU T 967      24.262  40.736 -14.898  1.00103.86 LIG 0.17  C 
ATOM     59 OE1  GLU T 967      24.740  39.617 -14.621  1.00104.00 LIG-0.65  OA
ATOM     60 OE2  GLU T 967      23.762  41.010 -16.010  1.00109.28 LIG-0.65  OA
ENDBRANCH 57 58
ENDBRANCH 56 57
ENDBRANCH 54 56
ENDBRANCH 51 54
ENDBRANCH 44 50
ENDBRANCH 41 44
ENDBRANCH 36 40
ENDBRANCH 33 36
ENDBRANCH 1 32
TORSDOF 26
ENDMDL
MODEL 17
USER: ADFR SOLUTION from run 103
USER: SCORE 19.531348 LL:  -5.023 LR: -15.880 RR:   0.000 FEB:  -8.124
USER: RMSD 6.412929
USER: SEED 102
USER: STATUS no improvement in best in 5 clusters for 5 generations
USER: GENES 28
USER: genes 0 Translation |==|  0.66525 0.38550 0.36546
USER: genes 1 Rotation |==|  0.70986 0.34009 0.34621 0.89590
USER: genes 2 Torsion [N]-CA--C-[N] |==|  0.09650
USER: genes 3 Torsion [C]-N--CA-[CB] |==|  0.48889
USER: genes 4 Torsion [N]-CA--CB-[CG] |==|  0.88462
USER: genes 5 Torsion [CA]-CB--CG-[CD] |==|  0.85172
USER: genes 6 Torsion [CB]-CG--CD-[OE1] |==|  0.25332
USER: genes 7 Torsion [N]-CA--C-[N] |==|  0.41810
USER: genes 8 Torsion [C]-N--CA-[CB] |==|  0.31521
USER: genes 9 Torsion [N]-CA--C-[O] |==|  0.50698
USER: genes 10 Torsion [N]-CA--CB-[CG] |==|  0.84737
USER: genes 11 Torsion [CA]-CB--CG-[CD1] |==|  0.31931
USER: genes 12 Torsion [CE1]-CZ--OH-[HH] |==|  0.92016
USER: genes 13 Torsion [C]-CA--CB-[OG] |==|  0.81809
USER: genes 14 Torsion [CA]-CB--OG-[HG] |==|  0.98434
USER: genes 15 Torsion [C]-CA--N-[C] |==|  0.67831
USER: genes 16 Torsion [N]-C--CA-[N] |==|  0.40468
USER: genes 17 Torsion [C]-CA--CB-[CG1] |==|  0.82241
USER: genes 18 Torsion [C]-CA--N-[C] |==|  0.69509
USER: genes 19 Torsion [N]-C--CA-[N] |==|  0.23538
USER: genes 20 Torsion [C]-CA--CB-[CG] |==|  0.80621
USER: genes 21 Torsion [CA]-CB--CG-[CD] |==|  0.36399
USER: genes 22 Torsion [CB]-CG--CD-[OE1] |==|  0.17883
USER: genes 23 Torsion [C]-CA--N-[C] |==|  0.75594
USER: genes 24 Torsion [N]-C--CA-[N] |==|  0.18949
USER: genes 25 Torsion [C]-CA--CB-[CG] |==|  0.34283
USER: genes 26 Torsion [CA]-CB--CG-[CD] |==|  0.79812
USER: genes 27 Torsion [CB]-CG--CD-[OE1] |==|  0.59481
ROOT
ATOM      1  CA  SER T 970      36.945  35.777 -11.994  1.00 53.81 LIG 0.20  C 
ENDROOT
BRANCH 1 2
ATOM      2  C   SER T 970      37.546  35.839 -13.394  1.00 54.98 LIG 0.24  C 
ATOM      3  N   GLU T 971      37.393  36.990 -14.035  1.00 36.24 LIG-0.35  N 
ATOM      4 H    GLU T 971      36.962  37.674 -13.744  1.00 36.24 LIG 0.16  HD
ATOM      5 O    SER T 970      38.179  34.887 -13.881  1.00 50.73 LIG-0.27  OA
BRANCH 3 6
ATOM      6  CA  GLU T 971      37.999  37.126 -15.338  1.00 34.69 LIG 0.18  C 
BRANCH 6 7
ATOM      7  CB  GLU T 971      37.650  38.465 -15.981  1.00 35.28 LIG 0.04  C 
BRANCH 7 8
ATOM      8  CG  GLU T 971      36.191  38.866 -15.777  1.00 38.63 LIG 0.12  C 
BRANCH 8 9
ATOM      9  CD  GLU T 971      35.215  37.778 -16.225  1.00 44.02 LIG 0.17  C 
ATOM     10 OE1  GLU T 971      34.831  36.925 -15.392  1.00 46.94 LIG-0.65  OA
ATOM     11 OE2  GLU T 971      34.832  37.776 -17.413  1.00 38.45 LIG-0.65  OA
ENDBRANCH 8 9
ENDBRANCH 7 8
ENDBRANCH 6 7
BRANCH 6 12
ATOM     12  C   GLU T 971      39.497  36.991 -15.218  1.00 38.38 LIG 0.24  C 
ATOM     13  N   TYR T 972      40.087  36.497 -16.288  1.00 34.07 LIG-0.34  N 
ATOM     14 H    TYR T 972      39.663  36.197 -16.974  1.00 34.07 LIG 0.16  HD
ATOM     15 O    GLU T 971      40.100  37.338 -14.190  1.00 36.91 LIG-0.27  OA
BRANCH 13 16
ATOM     16  CA  TYR T 972      41.524  36.420 -16.397  1.00 35.97 LIG 0.19  C 
BRANCH 16 17
ATOM     17  C   TYR T 972      41.985  37.138 -17.671  1.00 45.43 LIG 0.20  C 
ATOM     18 OXT  TYR T 972      41.138  37.681 -18.382  1.00 40.76 LIG-0.65  OA
ATOM     19 O    TYR T 972      43.175  37.183 -18.032  1.00 41.72 LIG-0.65  OA
ENDBRANCH 16 17
BRANCH 16 20
ATOM     20  CB  TYR T 972      41.983  34.966 -16.416  1.00 33.99 LIG 0.07  C 
BRANCH 20 21
ATOM     21  CG  TYR T 972      41.471  34.224 -15.226  1.00 33.93 LIG-0.06  A 
ATOM     22  CD1 TYR T 972      40.569  33.180 -15.371  1.00 33.64 LIG 0.01  A 
ATOM     23  CE1 TYR T 972      40.109  32.486 -14.271  1.00 37.50 LIG 0.04  A 
ATOM     24  CZ  TYR T 972      40.567  32.828 -13.025  1.00 37.64 LIG 0.07  A 
ATOM     25  CE2 TYR T 972      41.479  33.841 -12.858  1.00 36.30 LIG 0.04  A 
ATOM     26  CD2 TYR T 972      41.924  34.535 -13.950  1.00 38.70 LIG 0.01  A 
BRANCH 24 27
ATOM     27 OH   TYR T 972      40.112  32.146 -11.936  1.00 40.25 LIG-0.36  OA
ATOM     28 HH   TYR T 972      39.336  31.862 -12.088  1.00 40.25 LIG 0.22  HD
ENDBRANCH 24 27
ENDBRANCH 20 21
ENDBRANCH 16 20
ENDBRANCH 13 16
ENDBRANCH 6 12
ENDBRANCH 3 6
ENDBRANCH 1 2
BRANCH 1 29
ATOM     29  CB  SER T 970      36.735  34.302 -11.633  1.00 55.16 LIG 0.20  C 
BRANCH 29 30
ATOM     30 OG   SER T 970      35.763  33.712 -12.476  1.00 59.72 LIG-0.40  OA
ATOM     31 HG   SER T 970      35.425  34.302 -12.969  1.00 59.72 LIG 0.21  HD
ENDBRANCH 29 30
ENDBRANCH 1 29
BRANCH 1 32
ATOM     32  N   SER T 970      35.699  36.528 -11.795  1.00 52.51 LIG-0.34  N 
ATOM     33  C   VAL T 969      35.630  37.564 -10.963  1.00 50.69 LIG 0.24  C 
ATOM     34 O    VAL T 969      36.630  38.132 -10.524  1.00 50.98 LIG-0.27  OA
ATOM     35 H    SER T 970      35.034  36.239 -12.258  1.00 52.51 LIG 0.16  HD
BRANCH 33 36
ATOM     36  CA  VAL T 969      34.218  38.075 -10.620  1.00 48.28 LIG 0.18  C 
BRANCH 36 37
ATOM     37  CB  VAL T 969      33.779  39.190 -11.582  1.00 45.61 LIG 0.01  C 
ATOM     38  CG1 VAL T 969      34.670  40.425 -11.455  1.00 51.33 LIG 0.01  C 
ATOM     39  CG2 VAL T 969      33.788  38.672 -13.021  1.00 51.13 LIG 0.01  C 
ENDBRANCH 36 37
BRANCH 36 40
ATOM     40  N   VAL T 969      34.205  38.546  -9.247  1.00 42.62 LIG-0.35  N 
ATOM     41  C   GLU T 968      33.550  37.872  -8.316  1.00 39.23 LIG 0.24  C 
ATOM     42 O    GLU T 968      32.854  36.894  -8.565  1.00 41.64 LIG-0.27  OA
ATOM     43 H    VAL T 969      34.644  39.272  -9.107  1.00 42.62 LIG 0.16  HD
BRANCH 41 44
ATOM     44  CA  GLU T 968      33.742  38.318  -6.882  1.00 43.46 LIG 0.18  C 
BRANCH 44 45
ATOM     45  CB  GLU T 968      33.498  37.098  -6.011  1.00 39.65 LIG 0.04  C 
BRANCH 45 46
ATOM     46  CG  GLU T 968      32.120  36.580  -5.912  1.00 48.42 LIG 0.12  C 
BRANCH 46 47
ATOM     47  CD  GLU T 968      32.139  35.086  -6.150  1.00 46.07 LIG 0.17  C 
ATOM     48 OE1  GLU T 968      32.753  34.371  -5.318  1.00 37.62 LIG-0.65  OA
ATOM     49 OE2  GLU T 968      31.486  34.630  -7.121  1.00 42.01 LIG-0.65  OA
ENDBRANCH 46 47
ENDBRANCH 45 46
ENDBRANCH 44 45
BRANCH 44 50
ATOM     50  N   GLU T 968      32.840  39.412  -6.533  1.00 42.28 LIG-0.35  N 
ATOM     51  C   GLU T 967      33.170  40.687  -6.741  1.00 44.22 LIG 0.26  C 
ATOM     52 O    GLU T 967      34.280  41.040  -7.111  1.00 45.73 LIG-0.27  OA
ATOM     53 H    GLU T 968      32.093  39.161  -6.188  1.00 42.28 LIG 0.16  HD
BRANCH 51 54
ATOM     54  CA  GLU T 967      32.091  41.732  -6.487  1.00 63.10 LIG 0.40  C 
ATOM     55  N   GLU T 967      31.789  41.811  -5.061  1.00 61.06 LIG 0.61  N 
BRANCH 54 56
ATOM     56  CB  GLU T 967      32.549  43.091  -7.016  1.00 76.10 LIG 0.06  C 
BRANCH 56 57
ATOM     57  CG  GLU T 967      31.598  43.702  -8.022  1.00 93.75 LIG 0.12  C 
BRANCH 57 58
ATOM     58  CD  GLU T 967      31.648  42.992  -9.360  1.00103.86 LIG 0.17  C 
ATOM     59 OE1  GLU T 967      31.483  43.665 -10.399  1.00104.00 LIG-0.65  OA
ATOM     60 OE2  GLU T 967      31.861  41.760  -9.371  1.00109.28 LIG-0.65  OA
ENDBRANCH 57 58
ENDBRANCH 56 57
ENDBRANCH 54 56
ENDBRANCH 51 54
ENDBRANCH 44 50
ENDBRANCH 41 44
ENDBRANCH 36 40
ENDBRANCH 33 36
ENDBRANCH 1 32
TORSDOF 26
ENDMDL
MODEL 18
USER: ADFR SOLUTION from run 50
USER: SCORE 19.318769 LL:  -5.065 LR: -15.877 RR:   0.000 FEB:  -8.121
USER: RMSD 8.408790
USER: SEED 49
USER: STATUS no improvement in best in 6 clusters for 5 generations
USER: GENES 28
USER: genes 0 Translation |==|  0.64508 0.39118 0.27809
USER: genes 1 Rotation |==|  0.30701 0.89326 0.72800 0.57818
USER: genes 2 Torsion [N]-CA--C-[N] |==|  0.12566
USER: genes 3 Torsion [C]-N--CA-[CB] |==|  0.22963
USER: genes 4 Torsion [N]-CA--CB-[CG] |==|  0.71748
USER: genes 5 Torsion [CA]-CB--CG-[CD] |==|  0.37281
USER: genes 6 Torsion [CB]-CG--CD-[OE1] |==|  0.34968
USER: genes 7 Torsion [N]-CA--C-[N] |==|  0.49724
USER: genes 8 Torsion [C]-N--CA-[CB] |==|  0.18911
USER: genes 9 Torsion [N]-CA--C-[O] |==|  0.18426
USER: genes 10 Torsion [N]-CA--CB-[CG] |==|  0.68442
USER: genes 11 Torsion [CA]-CB--CG-[CD1] |==|  0.50709
USER: genes 12 Torsion [CE1]-CZ--OH-[HH] |==|  0.66368
USER: genes 13 Torsion [C]-CA--CB-[OG] |==|  0.44083
USER: genes 14 Torsion [CA]-CB--OG-[HG] |==|  0.85113
USER: genes 15 Torsion [C]-CA--N-[C] |==|  0.67425
USER: genes 16 Torsion [N]-C--CA-[N] |==|  0.42686
USER: genes 17 Torsion [C]-CA--CB-[CG1] |==|  0.63470
USER: genes 18 Torsion [C]-CA--N-[C] |==|  0.79302
USER: genes 19 Torsion [N]-C--CA-[N] |==|  0.86369
USER: genes 20 Torsion [C]-CA--CB-[CG] |==|  0.53587
USER: genes 21 Torsion [CA]-CB--CG-[CD] |==|  0.87658
USER: genes 22 Torsion [CB]-CG--CD-[OE1] |==|  0.78704
USER: genes 23 Torsion [C]-CA--N-[C] |==|  0.83333
USER: genes 24 Torsion [N]-C--CA-[N] |==|  0.90762
USER: genes 25 Torsion [C]-CA--CB-[CG] |==|  0.48534
USER: genes 26 Torsion [CA]-CB--CG-[CD] |==|  0.92074
USER: genes 27 Torsion [CB]-CG--CD-[OE1] |==|  0.69398
ROOT
ATOM      1  CA  SER T 970      36.371  35.888 -13.698  1.00 53.81 LIG 0.20  C 
ENDROOT
BRANCH 1 2
ATOM      2  C   SER T 970      37.292  34.674 -13.711  1.00 54.98 LIG 0.24  C 
ATOM      3  N   GLU T 971      37.987  34.468 -12.601  1.00 36.24 LIG-0.35  N 
ATOM      4 H    GLU T 971      37.985  34.973 -11.905  1.00 36.24 LIG 0.16  HD
ATOM      5 O    SER T 970      37.350  33.903 -14.683  1.00 50.73 LIG-0.27  OA
BRANCH 3 6
ATOM      6  CA  GLU T 971      38.827  33.295 -12.534  1.00 34.69 LIG 0.18  C 
BRANCH 6 7
ATOM      7  CB  GLU T 971      40.174  33.532 -13.209  1.00 35.28 LIG 0.04  C 
BRANCH 7 8
ATOM      8  CG  GLU T 971      40.262  32.918 -14.605  1.00 38.63 LIG 0.12  C 
BRANCH 8 9
ATOM      9  CD  GLU T 971      40.864  33.875 -15.632  1.00 44.02 LIG 0.17  C 
ATOM     10 OE1  GLU T 971      41.848  33.501 -16.310  1.00 46.94 LIG-0.65  OA
ATOM     11 OE2  GLU T 971      40.352  35.006 -15.761  1.00 38.45 LIG-0.65  OA
ENDBRANCH 8 9
ENDBRANCH 7 8
ENDBRANCH 6 7
BRANCH 6 12
ATOM     12  C   GLU T 971      39.040  32.906 -11.091  1.00 38.38 LIG 0.24  C 
ATOM     13  N   TYR T 972      39.781  31.829 -10.922  1.00 34.07 LIG-0.34  N 
ATOM     14 H    TYR T 972      40.060  31.333 -11.567  1.00 34.07 LIG 0.16  HD
ATOM     15 O    GLU T 971      38.557  33.571 -10.161  1.00 36.91 LIG-0.27  OA
BRANCH 13 16
ATOM     16  CA  TYR T 972      40.192  31.388  -9.611  1.00 35.97 LIG 0.19  C 
BRANCH 16 17
ATOM     17  C   TYR T 972      41.233  30.270  -9.746  1.00 45.43 LIG 0.20  C 
ATOM     18 OXT  TYR T 972      40.942  29.141  -9.348  1.00 40.76 LIG-0.65  OA
ATOM     19 O    TYR T 972      42.367  30.453 -10.223  1.00 41.72 LIG-0.65  OA
ENDBRANCH 16 17
BRANCH 16 20
ATOM     20  CB  TYR T 972      38.991  30.897  -8.809  1.00 33.99 LIG 0.07  C 
BRANCH 20 21
ATOM     21  CG  TYR T 972      38.722  31.789  -7.641  1.00 33.93 LIG-0.06  A 
ATOM     22  CD1 TYR T 972      37.705  31.499  -6.744  1.00 33.64 LIG 0.01  A 
ATOM     23  CE1 TYR T 972      37.468  32.316  -5.657  1.00 37.50 LIG 0.04  A 
ATOM     24  CZ  TYR T 972      38.264  33.416  -5.462  1.00 37.64 LIG 0.07  A 
ATOM     25  CE2 TYR T 972      39.292  33.710  -6.323  1.00 36.30 LIG 0.04  A 
ATOM     26  CD2 TYR T 972      39.517  32.904  -7.406  1.00 38.70 LIG 0.01  A 
BRANCH 24 27
ATOM     27 OH   TYR T 972      38.029  34.226  -4.391  1.00 40.25 LIG-0.36  OA
ATOM     28 HH   TYR T 972      37.868  35.006  -4.660  1.00 40.25 LIG 0.22  HD
ENDBRANCH 24 27
ENDBRANCH 20 21
ENDBRANCH 16 20
ENDBRANCH 13 16
ENDBRANCH 6 12
ENDBRANCH 3 6
ENDBRANCH 1 2
BRANCH 1 29
ATOM     29  CB  SER T 970      35.868  36.117 -15.129  1.00 55.16 LIG 0.20  C 
BRANCH 29 30
ATOM     30 OG   SER T 970      34.675  36.879 -15.126  1.00 59.72 LIG-0.40  OA
ATOM     31 HG   SER T 970      34.111  36.514 -14.622  1.00 59.72 LIG 0.21  HD
ENDBRANCH 29 30
ENDBRANCH 1 29
BRANCH 1 32
ATOM     32  N   SER T 970      36.947  37.127 -13.161  1.00 52.51 LIG-0.34  N 
ATOM     33  C   VAL T 969      36.457  37.714 -12.072  1.00 50.69 LIG 0.24  C 
ATOM     34 O    VAL T 969      35.693  37.141 -11.294  1.00 50.98 LIG-0.27  OA
ATOM     35 H    SER T 970      37.616  37.430 -13.609  1.00 52.51 LIG 0.16  HD
BRANCH 33 36
ATOM     36  CA  VAL T 969      36.948  39.145 -11.782  1.00 48.28 LIG 0.18  C 
BRANCH 36 37
ATOM     37  CB  VAL T 969      38.292  39.133 -11.037  1.00 45.61 LIG 0.01  C 
ATOM     38  CG1 VAL T 969      38.267  40.060  -9.823  1.00 51.33 LIG 0.01  C 
ATOM     39  CG2 VAL T 969      38.643  37.707 -10.612  1.00 51.13 LIG 0.01  C 
ENDBRANCH 36 37
BRANCH 36 40
ATOM     40  N   VAL T 969      35.938  39.847 -11.013  1.00 42.62 LIG-0.35  N 
ATOM     41  C   GLU T 968      34.829  40.271 -11.595  1.00 39.23 LIG 0.24  C 
ATOM     42 O    GLU T 968      34.636  40.189 -12.803  1.00 41.64 LIG-0.27  OA
ATOM     43 H    VAL T 969      36.125  39.954 -10.180  1.00 42.62 LIG 0.16  HD
BRANCH 41 44
ATOM     44  CA  GLU T 968      33.745  40.821 -10.692  1.00 43.46 LIG 0.18  C 
BRANCH 44 45
ATOM     45  CB  GLU T 968      34.228  42.177 -10.209  1.00 39.65 LIG 0.04  C 
BRANCH 45 46
ATOM     46  CG  GLU T 968      33.506  42.812  -9.089  1.00 48.42 LIG 0.12  C 
BRANCH 46 47
ATOM     47  CD  GLU T 968      32.017  42.673  -9.324  1.00 46.07 LIG 0.17  C 
ATOM     48 OE1  GLU T 968      31.488  43.438 -10.170  1.00 37.62 LIG-0.65  OA
ATOM     49 OE2  GLU T 968      31.402  41.762  -8.718  1.00 42.01 LIG-0.65  OA
ENDBRANCH 46 47
ENDBRANCH 45 46
ENDBRANCH 44 45
BRANCH 44 50
ATOM     50  N   GLU T 968      33.468  39.922  -9.574  1.00 42.28 LIG-0.35  N 
ATOM     51  C   GLU T 967      33.047  38.672  -9.766  1.00 44.22 LIG 0.26  C 
ATOM     52 O    GLU T 967      32.741  38.229 -10.863  1.00 45.73 LIG-0.27  OA
ATOM     53 H    GLU T 968      33.599  40.270  -8.798  1.00 42.28 LIG 0.16  HD
BRANCH 51 54
ATOM     54  CA  GLU T 967      32.943  37.780  -8.535  1.00 63.10 LIG 0.40  C 
ATOM     55  N   GLU T 967      33.983  38.124  -7.571  1.00 61.06 LIG 0.61  N 
BRANCH 54 56
ATOM     56  CB  GLU T 967      31.558  37.922  -7.906  1.00 76.10 LIG 0.06  C 
BRANCH 56 57
ATOM     57  CG  GLU T 967      31.317  36.977  -6.749  1.00 93.75 LIG 0.12  C 
BRANCH 57 58
ATOM     58  CD  GLU T 967      32.119  35.698  -6.878  1.00103.86 LIG 0.17  C 
ATOM     59 OE1  GLU T 967      31.511  34.635  -7.121  1.00104.00 LIG-0.65  OA
ATOM     60 OE2  GLU T 967      33.361  35.761  -6.746  1.00109.28 LIG-0.65  OA
ENDBRANCH 57 58
ENDBRANCH 56 57
ENDBRANCH 54 56
ENDBRANCH 51 54
ENDBRANCH 44 50
ENDBRANCH 41 44
ENDBRANCH 36 40
ENDBRANCH 33 36
ENDBRANCH 1 32
TORSDOF 26
ENDMDL
MODEL 19
USER: ADFR SOLUTION from run 180
USER: SCORE 19.204875 LL:  -4.521 LR: -15.867 RR:   0.000 FEB:  -8.111
USER: RMSD 11.616255
USER: SEED 179
USER: STATUS searching
USER: GENES 28
USER: genes 0 Translation |==|  0.25980 0.50656 0.35214
USER: genes 1 Rotation |==|  0.70520 0.53822 0.09437 0.70469
USER: genes 2 Torsion [N]-CA--C-[N] |==|  0.96389
USER: genes 3 Torsion [C]-N--CA-[CB] |==|  0.85261
USER: genes 4 Torsion [N]-CA--CB-[CG] |==|  0.62177
USER: genes 5 Torsion [CA]-CB--CG-[CD] |==|  0.48899
USER: genes 6 Torsion [CB]-CG--CD-[OE1] |==|  0.77217
USER: genes 7 Torsion [N]-CA--C-[N] |==|  0.31705
USER: genes 8 Torsion [C]-N--CA-[CB] |==|  0.89392
USER: genes 9 Torsion [N]-CA--C-[O] |==|  0.68927
USER: genes 10 Torsion [N]-CA--CB-[CG] |==|  0.81124
USER: genes 11 Torsion [CA]-CB--CG-[CD1] |==|  0.50265
USER: genes 12 Torsion [CE1]-CZ--OH-[HH] |==|  0.56551
USER: genes 13 Torsion [C]-CA--CB-[OG] |==|  0.25157
USER: genes 14 Torsion [CA]-CB--OG-[HG] |==|  0.98197
USER: genes 15 Torsion [C]-CA--N-[C] |==|  0.79883
USER: genes 16 Torsion [N]-C--CA-[N] |==|  0.11255
USER: genes 17 Torsion [C]-CA--CB-[CG1] |==|  0.48868
USER: genes 18 Torsion [C]-CA--N-[C] |==|  0.70236
USER: genes 19 Torsion [N]-C--CA-[N] |==|  0.20280
USER: genes 20 Torsion [C]-CA--CB-[CG] |==|  0.16465
USER: genes 21 Torsion [CA]-CB--CG-[CD] |==|  0.26962
USER: genes 22 Torsion [CB]-CG--CD-[OE1] |==|  0.52626
USER: genes 23 Torsion [C]-CA--N-[C] |==|  0.73513
USER: genes 24 Torsion [N]-C--CA-[N] |==|  0.40829
USER: genes 25 Torsion [C]-CA--CB-[CG] |==|  0.87538
USER: genes 26 Torsion [CA]-CB--CG-[CD] |==|  0.75540
USER: genes 27 Torsion [CB]-CG--CD-[OE1] |==|  0.65385
ROOT
ATOM      1  CA  SER T 970      25.390  38.138 -12.254  1.00 53.81 LIG 0.20  C 
ENDROOT
BRANCH 1 2
ATOM      2  C   SER T 970      25.308  39.349 -13.176  1.00 54.98 LIG 0.24  C 
ATOM      3  N   GLU T 971      25.137  40.518 -12.575  1.00 36.24 LIG-0.35  N 
ATOM      4 H    GLU T 971      25.035  40.639 -11.729  1.00 36.24 LIG 0.16  HD
ATOM      5 O    SER T 970      25.442  39.249 -14.407  1.00 50.73 LIG-0.27  OA
BRANCH 3 6
ATOM      6  CA  GLU T 971      25.117  41.706 -13.395  1.00 34.69 LIG 0.18  C 
BRANCH 6 7
ATOM      7  CB  GLU T 971      26.352  41.791 -14.288  1.00 35.28 LIG 0.04  C 
BRANCH 7 8
ATOM      8  CG  GLU T 971      26.969  43.188 -14.326  1.00 38.63 LIG 0.12  C 
BRANCH 8 9
ATOM      9  CD  GLU T 971      28.258  43.238 -15.145  1.00 44.02 LIG 0.17  C 
ATOM     10 OE1  GLU T 971      29.332  42.881 -14.611  1.00 46.94 LIG-0.65  OA
ATOM     11 OE2  GLU T 971      28.196  43.637 -16.326  1.00 38.45 LIG-0.65  OA
ENDBRANCH 8 9
ENDBRANCH 7 8
ENDBRANCH 6 7
BRANCH 6 12
ATOM     12  C   GLU T 971      23.870  41.715 -14.245  1.00 38.38 LIG 0.24  C 
ATOM     13  N   TYR T 972      23.023  42.683 -13.958  1.00 34.07 LIG-0.34  N 
ATOM     14 H    TYR T 972      23.117  43.223 -13.295  1.00 34.07 LIG 0.16  HD
ATOM     15 O    GLU T 971      23.690  40.877 -15.142  1.00 36.91 LIG-0.27  OA
BRANCH 13 16
ATOM     16  CA  TYR T 972      21.842  42.920 -14.754  1.00 35.97 LIG 0.19  C 
BRANCH 16 17
ATOM     17  C   TYR T 972      20.717  41.982 -14.298  1.00 45.43 LIG 0.20  C 
ATOM     18 OXT  TYR T 972      20.234  42.141 -13.176  1.00 40.76 LIG-0.65  OA
ATOM     19 O    TYR T 972      20.280  41.054 -15.003  1.00 41.72 LIG-0.65  OA
ENDBRANCH 16 17
BRANCH 16 20
ATOM     20  CB  TYR T 972      22.140  42.704 -16.234  1.00 33.99 LIG 0.07  C 
BRANCH 20 21
ATOM     21  CG  TYR T 972      23.067  43.753 -16.755  1.00 33.93 LIG-0.06  A 
ATOM     22  CD1 TYR T 972      23.458  43.761 -18.086  1.00 33.64 LIG 0.01  A 
ATOM     23  CE1 TYR T 972      24.302  44.740 -18.568  1.00 37.50 LIG 0.04  A 
ATOM     24  CZ  TYR T 972      24.743  45.721 -17.717  1.00 37.64 LIG 0.07  A 
ATOM     25  CE2 TYR T 972      24.350  45.748 -16.401  1.00 36.30 LIG 0.04  A 
ATOM     26  CD2 TYR T 972      23.522  44.769 -15.924  1.00 38.70 LIG 0.01  A 
BRANCH 24 27
ATOM     27 OH   TYR T 972      25.580  46.687 -18.191  1.00 40.25 LIG-0.36  OA
ATOM     28 HH   TYR T 972      26.019  47.014 -17.554  1.00 40.25 LIG 0.22  HD
ENDBRANCH 24 27
ENDBRANCH 20 21
ENDBRANCH 16 20
ENDBRANCH 13 16
ENDBRANCH 6 12
ENDBRANCH 3 6
ENDBRANCH 1 2
BRANCH 1 29
ATOM     29  CB  SER T 970      24.128  37.294 -12.467  1.00 55.16 LIG 0.20  C 
BRANCH 29 30
ATOM     30 OG   SER T 970      24.336  36.326 -13.480  1.00 59.72 LIG-0.40  OA
ATOM     31 HG   SER T 970      25.085  36.452 -13.838  1.00 59.72 LIG 0.21  HD
ENDBRANCH 29 30
ENDBRANCH 1 29
BRANCH 1 32
ATOM     32  N   SER T 970      25.568  38.428 -10.826  1.00 52.51 LIG-0.34  N 
ATOM     33  C   VAL T 969      26.723  38.876 -10.340  1.00 50.69 LIG 0.24  C 
ATOM     34 O    VAL T 969      27.613  39.335 -11.057  1.00 50.98 LIG-0.27  OA
ATOM     35 H    SER T 970      24.870  38.282 -10.345  1.00 52.51 LIG 0.16  HD
BRANCH 33 36
ATOM     36  CA  VAL T 969      26.876  38.859  -8.807  1.00 48.28 LIG 0.18  C 
BRANCH 36 37
ATOM     37  CB  VAL T 969      28.349  38.990  -8.391  1.00 45.61 LIG 0.01  C 
ATOM     38  CG1 VAL T 969      28.498  39.076  -6.873  1.00 51.33 LIG 0.01  C 
ATOM     39  CG2 VAL T 969      29.155  37.813  -8.941  1.00 51.13 LIG 0.01  C 
ENDBRANCH 36 37
BRANCH 36 40
ATOM     40  N   VAL T 969      26.301  37.633  -8.286  1.00 42.62 LIG-0.35  N 
ATOM     41  C   GLU T 968      25.151  37.659  -7.632  1.00 39.23 LIG 0.24  C 
ATOM     42 O    GLU T 968      24.569  38.700  -7.347  1.00 41.64 LIG-0.27  OA
ATOM     43 H    VAL T 969      26.761  36.923  -8.438  1.00 42.62 LIG 0.16  HD
BRANCH 41 44
ATOM     44  CA  GLU T 968      24.525  36.324  -7.289  1.00 43.46 LIG 0.18  C 
BRANCH 44 45
ATOM     45  CB  GLU T 968      23.084  36.606  -6.901  1.00 39.65 LIG 0.04  C 
BRANCH 45 46
ATOM     46  CG  GLU T 968      22.212  37.257  -7.897  1.00 48.42 LIG 0.12  C 
BRANCH 46 47
ATOM     47  CD  GLU T 968      21.404  36.195  -8.611  1.00 46.07 LIG 0.17  C 
ATOM     48 OE1  GLU T 968      20.740  36.548  -9.618  1.00 37.62 LIG-0.65  OA
ATOM     49 OE2  GLU T 968      21.493  35.010  -8.208  1.00 42.01 LIG-0.65  OA
ENDBRANCH 46 47
ENDBRANCH 45 46
ENDBRANCH 44 45
BRANCH 44 50
ATOM     50  N   GLU T 968      25.247  35.650  -6.213  1.00 42.28 LIG-0.35  N 
ATOM     51  C   GLU T 967      26.188  34.740  -6.462  1.00 44.22 LIG 0.26  C 
ATOM     52 O    GLU T 967      26.425  34.310  -7.581  1.00 45.73 LIG-0.27  OA
ATOM     53 H    GLU T 968      25.012  35.893  -5.422  1.00 42.28 LIG 0.16  HD
BRANCH 51 54
ATOM     54  CA  GLU T 967      26.983  34.221  -5.270  1.00 63.10 LIG 0.40  C 
ATOM     55  N   GLU T 967      27.350  32.824  -5.476  1.00 61.06 LIG 0.61  N 
BRANCH 54 56
ATOM     56  CB  GLU T 967      28.229  35.081  -5.063  1.00 76.10 LIG 0.06  C 
BRANCH 56 57
ATOM     57  CG  GLU T 967      28.974  35.387  -6.345  1.00 93.75 LIG 0.12  C 
BRANCH 57 58
ATOM     58  CD  GLU T 967      29.995  34.319  -6.682  1.00103.86 LIG 0.17  C 
ATOM     59 OE1  GLU T 967      31.182  34.663  -6.857  1.00104.00 LIG-0.65  OA
ATOM     60 OE2  GLU T 967      29.608  33.133  -6.763  1.00109.28 LIG-0.65  OA
ENDBRANCH 57 58
ENDBRANCH 56 57
ENDBRANCH 54 56
ENDBRANCH 51 54
ENDBRANCH 44 50
ENDBRANCH 41 44
ENDBRANCH 36 40
ENDBRANCH 33 36
ENDBRANCH 1 32
TORSDOF 26
ENDMDL
MODEL 20
USER: ADFR SOLUTION from run 153
USER: SCORE 17.716445 LL:  -4.529 LR: -15.819 RR:   0.000 FEB:  -8.063
USER: RMSD 11.744306
USER: SEED 152
USER: STATUS no improvement in best in 26 clusters for 5 generations
USER: GENES 28
USER: genes 0 Translation |==|  0.57282 0.51322 0.37530
USER: genes 1 Rotation |==|  0.71231 0.92431 0.35544 0.56319
USER: genes 2 Torsion [N]-CA--C-[N] |==|  0.18536
USER: genes 3 Torsion [C]-N--CA-[CB] |==|  0.79401
USER: genes 4 Torsion [N]-CA--CB-[CG] |==|  0.94348
USER: genes 5 Torsion [CA]-CB--CG-[CD] |==|  0.43051
USER: genes 6 Torsion [CB]-CG--CD-[OE1] |==|  0.00066
USER: genes 7 Torsion [N]-CA--C-[N] |==|  0.68356
USER: genes 8 Torsion [C]-N--CA-[CB] |==|  0.28686
USER: genes 9 Torsion [N]-CA--C-[O] |==|  0.66419
USER: genes 10 Torsion [N]-CA--CB-[CG] |==|  0.57232
USER: genes 11 Torsion [CA]-CB--CG-[CD1] |==|  0.24375
USER: genes 12 Torsion [CE1]-CZ--OH-[HH] |==|  0.02619
USER: genes 13 Torsion [C]-CA--CB-[OG] |==|  0.54441
USER: genes 14 Torsion [CA]-CB--OG-[HG] |==|  0.14648
USER: genes 15 Torsion [C]-CA--N-[C] |==|  0.77641
USER: genes 16 Torsion [N]-C--CA-[N] |==|  0.58245
USER: genes 17 Torsion [C]-CA--CB-[CG1] |==|  0.30307
USER: genes 18 Torsion [C]-CA--N-[C] |==|  0.73559
USER: genes 19 Torsion [N]-C--CA-[N] |==|  0.18462
USER: genes 20 Torsion [C]-CA--CB-[CG] |==|  0.36532
USER: genes 21 Torsion [CA]-CB--CG-[CD] |==|  0.03379
USER: genes 22 Torsion [CB]-CG--CD-[OE1] |==|  0.69389
USER: genes 23 Torsion [C]-CA--N-[C] |==|  0.79719
USER: genes 24 Torsion [N]-C--CA-[N] |==|  0.22972
USER: genes 25 Torsion [C]-CA--CB-[CG] |==|  0.42410
USER: genes 26 Torsion [CA]-CB--CG-[CD] |==|  0.06936
USER: genes 27 Torsion [CB]-CG--CD-[OE1] |==|  0.69552
ROOT
ATOM      1  CA  SER T 970      34.311  38.268 -11.803  1.00 53.81 LIG 0.20  C 
ENDROOT
BRANCH 1 2
ATOM      2  C   SER T 970      33.534  38.417 -10.500  1.00 54.98 LIG 0.24  C 
ATOM      3  N   GLU T 971      34.254  38.740  -9.435  1.00 36.24 LIG-0.35  N 
ATOM      4 H    GLU T 971      35.108  38.835  -9.415  1.00 36.24 LIG 0.16  HD
ATOM      5 O    SER T 970      32.299  38.291 -10.453  1.00 50.73 LIG-0.27  OA
BRANCH 3 6
ATOM      6  CA  GLU T 971      33.560  38.958  -8.188  1.00 34.69 LIG 0.18  C 
BRANCH 6 7
ATOM      7  CB  GLU T 971      32.814  40.290  -8.187  1.00 35.28 LIG 0.04  C 
BRANCH 7 8
ATOM      8  CG  GLU T 971      33.345  41.274  -9.227  1.00 38.63 LIG 0.12  C 
BRANCH 8 9
ATOM      9  CD  GLU T 971      32.295  42.299  -9.655  1.00 44.02 LIG 0.17  C 
ATOM     10 OE1  GLU T 971      31.153  42.251  -9.142  1.00 46.94 LIG-0.65  OA
ATOM     11 OE2  GLU T 971      32.612  43.154 -10.507  1.00 38.45 LIG-0.65  OA
ENDBRANCH 8 9
ENDBRANCH 7 8
ENDBRANCH 6 7
BRANCH 6 12
ATOM     12  C   GLU T 971      32.588  37.829  -7.944  1.00 38.38 LIG 0.24  C 
ATOM     13  N   TYR T 972      31.320  38.188  -7.970  1.00 34.07 LIG-0.34  N 
ATOM     14 H    TYR T 972      31.053  39.002  -8.038  1.00 34.07 LIG 0.16  HD
ATOM     15 O    GLU T 971      32.978  36.667  -7.752  1.00 36.91 LIG-0.27  OA
BRANCH 13 16
ATOM     16  CA  TYR T 972      30.254  37.218  -7.885  1.00 35.97 LIG 0.19  C 
BRANCH 16 17
ATOM     17  C   TYR T 972      29.182  37.536  -8.934  1.00 45.43 LIG 0.20  C 
ATOM     18 OXT  TYR T 972      29.509  37.577 -10.120  1.00 40.76 LIG-0.65  OA
ATOM     19 O    TYR T 972      27.996  37.775  -8.640  1.00 41.72 LIG-0.65  OA
ENDBRANCH 16 17
BRANCH 16 20
ATOM     20  CB  TYR T 972      29.642  37.215  -6.488  1.00 33.99 LIG 0.07  C 
BRANCH 20 21
ATOM     21  CG  TYR T 972      29.029  35.891  -6.171  1.00 33.93 LIG-0.06  A 
ATOM     22  CD1 TYR T 972      29.785  34.873  -5.608  1.00 33.64 LIG 0.01  A 
ATOM     23  CE1 TYR T 972      29.214  33.655  -5.301  1.00 37.50 LIG 0.04  A 
ATOM     24  CZ  TYR T 972      27.878  33.464  -5.545  1.00 37.64 LIG 0.07  A 
ATOM     25  CE2 TYR T 972      27.103  34.465  -6.078  1.00 36.30 LIG 0.04  A 
ATOM     26  CD2 TYR T 972      27.676  35.667  -6.392  1.00 38.70 LIG 0.01  A 
BRANCH 24 27
ATOM     27 OH   TYR T 972      27.311  32.260  -5.246  1.00 40.25 LIG-0.36  OA
ATOM     28 HH   TYR T 972      27.857  31.794  -4.811  1.00 40.25 LIG 0.22  HD
ENDBRANCH 24 27
ENDBRANCH 20 21
ENDBRANCH 16 20
ENDBRANCH 13 16
ENDBRANCH 6 12
ENDBRANCH 3 6
ENDBRANCH 1 2
BRANCH 1 29
ATOM     29  CB  SER T 970      33.300  38.167 -12.950  1.00 55.16 LIG 0.20  C 
BRANCH 29 30
ATOM     30 OG   SER T 970      33.917  37.667 -14.122  1.00 59.72 LIG-0.40  OA
ATOM     31 HG   SER T 970      34.316  36.950 -13.944  1.00 59.72 LIG 0.21  HD
ENDBRANCH 29 30
ENDBRANCH 1 29
BRANCH 1 32
ATOM     32  N   SER T 970      35.256  37.146 -11.863  1.00 52.51 LIG-0.34  N 
ATOM     33  C   VAL T 969      36.466  37.216 -11.312  1.00 50.69 LIG 0.24  C 
ATOM     34 O    VAL T 969      36.775  38.086 -10.496  1.00 50.98 LIG-0.27  OA
ATOM     35 H    SER T 970      34.959  36.454 -12.279  1.00 52.51 LIG 0.16  HD
BRANCH 33 36
ATOM     36  CA  VAL T 969      37.460  36.104 -11.692  1.00 48.28 LIG 0.18  C 
BRANCH 36 37
ATOM     37  CB  VAL T 969      36.729  34.802 -12.057  1.00 45.61 LIG 0.01  C 
ATOM     38  CG1 VAL T 969      36.817  34.510 -13.554  1.00 51.33 LIG 0.01  C 
ATOM     39  CG2 VAL T 969      37.303  33.636 -11.251  1.00 51.13 LIG 0.01  C 
ENDBRANCH 36 37
BRANCH 36 40
ATOM     40  N   VAL T 969      38.376  35.888 -10.587  1.00 42.62 LIG-0.35  N 
ATOM     41  C   GLU T 968      39.551  36.494 -10.565  1.00 39.23 LIG 0.24  C 
ATOM     42 O    GLU T 968      39.969  37.174 -11.495  1.00 41.64 LIG-0.27  OA
ATOM     43 H    VAL T 969      38.091  35.352  -9.978  1.00 42.62 LIG 0.16  HD
BRANCH 41 44
ATOM     44  CA  GLU T 968      40.365  36.370  -9.294  1.00 43.46 LIG 0.18  C 
BRANCH 44 45
ATOM     45  CB  GLU T 968      41.548  37.311  -9.441  1.00 39.65 LIG 0.04  C 
BRANCH 45 46
ATOM     46  CG  GLU T 968      41.850  38.225  -8.323  1.00 48.42 LIG 0.12  C 
BRANCH 46 47
ATOM     47  CD  GLU T 968      41.049  37.800  -7.112  1.00 46.07 LIG 0.17  C 
ATOM     48 OE1  GLU T 968      40.110  38.550  -6.742  1.00 37.62 LIG-0.65  OA
ATOM     49 OE2  GLU T 968      41.314  36.693  -6.582  1.00 42.01 LIG-0.65  OA
ENDBRANCH 46 47
ENDBRANCH 45 46
ENDBRANCH 44 45
BRANCH 44 50
ATOM     50  N   GLU T 968      40.801  34.995  -9.066  1.00 42.28 LIG-0.35  N 
ATOM     51  C   GLU T 967      39.953  34.045  -8.673  1.00 44.22 LIG 0.26  C 
ATOM     52 O    GLU T 967      38.795  34.271  -8.353  1.00 45.73 LIG-0.27  OA
ATOM     53 H    GLU T 968      41.639  34.860  -9.206  1.00 42.28 LIG 0.16  HD
BRANCH 51 54
ATOM     54  CA  GLU T 967      40.485  32.618  -8.620  1.00 63.10 LIG 0.40  C 
ATOM     55  N   GLU T 967      41.201  32.391  -7.368  1.00 61.06 LIG 0.61  N 
BRANCH 54 56
ATOM     56  CB  GLU T 967      39.331  31.627  -8.768  1.00 76.10 LIG 0.06  C 
BRANCH 56 57
ATOM     57  CG  GLU T 967      39.743  30.301  -9.370  1.00 93.75 LIG 0.12  C 
BRANCH 57 58
ATOM     58  CD  GLU T 967      41.211  30.002  -9.142  1.00103.86 LIG 0.17  C 
ATOM     59 OE1  GLU T 967      41.986  30.041 -10.121  1.00104.00 LIG-0.65  OA
ATOM     60 OE2  GLU T 967      41.590  29.736  -7.981  1.00109.28 LIG-0.65  OA
ENDBRANCH 57 58
ENDBRANCH 56 57
ENDBRANCH 54 56
ENDBRANCH 51 54
ENDBRANCH 44 50
ENDBRANCH 41 44
ENDBRANCH 36 40
ENDBRANCH 33 36
ENDBRANCH 1 32
TORSDOF 26
ENDMDL
MODEL 21
USER: ADFR SOLUTION from run 153
USER: SCORE 18.514464 LL:  -4.542 LR: -15.804 RR:   0.000 FEB:  -8.048
USER: RMSD 10.893399
USER: SEED 152
USER: STATUS no improvement in best in 26 clusters for 5 generations
USER: GENES 28
USER: genes 0 Translation |==|  0.57967 0.50947 0.38276
USER: genes 1 Rotation |==|  0.73709 0.92375 0.38992 0.54590
USER: genes 2 Torsion [N]-CA--C-[N] |==|  0.22372
USER: genes 3 Torsion [C]-N--CA-[CB] |==|  0.85876
USER: genes 4 Torsion [N]-CA--CB-[CG] |==|  0.76258
USER: genes 5 Torsion [CA]-CB--CG-[CD] |==|  0.28947
USER: genes 6 Torsion [CB]-CG--CD-[OE1] |==|  0.28617
USER: genes 7 Torsion [N]-CA--C-[N] |==|  0.33904
USER: genes 8 Torsion [C]-N--CA-[CB] |==|  0.54934
USER: genes 9 Torsion [N]-CA--C-[O] |==|  0.29068
USER: genes 10 Torsion [N]-CA--CB-[CG] |==|  0.80659
USER: genes 11 Torsion [CA]-CB--CG-[CD1] |==|  0.23398
USER: genes 12 Torsion [CE1]-CZ--OH-[HH] |==|  0.02669
USER: genes 13 Torsion [C]-CA--CB-[OG] |==|  0.59472
USER: genes 14 Torsion [CA]-CB--OG-[HG] |==|  0.11358
USER: genes 15 Torsion [C]-CA--N-[C] |==|  0.74292
USER: genes 16 Torsion [N]-C--CA-[N] |==|  0.68893
USER: genes 17 Torsion [C]-CA--CB-[CG1] |==|  0.37580
USER: genes 18 Torsion [C]-CA--N-[C] |==|  0.56111
USER: genes 19 Torsion [N]-C--CA-[N] |==|  0.86310
USER: genes 20 Torsion [C]-CA--CB-[CG] |==|  0.46379
USER: genes 21 Torsion [CA]-CB--CG-[CD] |==|  0.76511
USER: genes 22 Torsion [CB]-CG--CD-[OE1] |==|  0.67806
USER: genes 23 Torsion [C]-CA--N-[C] |==|  0.74870
USER: genes 24 Torsion [N]-C--CA-[N] |==|  0.19714
USER: genes 25 Torsion [C]-CA--CB-[CG] |==|  0.42663
USER: genes 26 Torsion [CA]-CB--CG-[CD] |==|  0.06393
USER: genes 27 Torsion [CB]-CG--CD-[OE1] |==|  0.69756
ROOT
ATOM      1  CA  SER T 970      34.507  38.195 -11.657  1.00 53.81 LIG 0.20  C 
ENDROOT
BRANCH 1 2
ATOM      2  C   SER T 970      33.699  38.207 -10.365  1.00 54.98 LIG 0.24  C 
ATOM      3  N   GLU T 971      34.361  38.576  -9.277  1.00 36.24 LIG-0.35  N 
ATOM      4 H    GLU T 971      35.198  38.770  -9.238  1.00 36.24 LIG 0.16  HD
ATOM      5 O    SER T 970      32.487  37.936 -10.344  1.00 50.73 LIG-0.27  OA
BRANCH 3 6
ATOM      6  CA  GLU T 971      33.628  38.669  -8.036  1.00 34.69 LIG 0.18  C 
BRANCH 6 7
ATOM      7  CB  GLU T 971      32.362  39.507  -8.194  1.00 35.28 LIG 0.04  C 
BRANCH 7 8
ATOM      8  CG  GLU T 971      32.610  41.005  -8.023  1.00 38.63 LIG 0.12  C 
BRANCH 8 9
ATOM      9  CD  GLU T 971      32.611  41.755  -9.355  1.00 44.02 LIG 0.17  C 
ATOM     10 OE1  GLU T 971      31.605  42.429  -9.674  1.00 46.94 LIG-0.65  OA
ATOM     11 OE2  GLU T 971      33.620  41.670 -10.084  1.00 38.45 LIG-0.65  OA
ENDBRANCH 8 9
ENDBRANCH 7 8
ENDBRANCH 6 7
BRANCH 6 12
ATOM     12  C   GLU T 971      33.267  37.284  -7.555  1.00 38.38 LIG 0.24  C 
ATOM     13  N   TYR T 972      33.722  36.990  -6.354  1.00 34.07 LIG-0.34  N 
ATOM     14 H    TYR T 972      34.248  37.499  -5.902  1.00 34.07 LIG 0.16  HD
ATOM     15 O    GLU T 971      32.586  36.514  -8.249  1.00 36.91 LIG-0.27  OA
BRANCH 13 16
ATOM     16  CA  TYR T 972      33.364  35.761  -5.686  1.00 35.97 LIG 0.19  C 
BRANCH 16 17
ATOM     17  C   TYR T 972      31.880  35.457  -5.926  1.00 45.43 LIG 0.20  C 
ATOM     18 OXT  TYR T 972      31.037  36.095  -5.294  1.00 40.76 LIG-0.65  OA
ATOM     19 O    TYR T 972      31.487  34.582  -6.718  1.00 41.72 LIG-0.65  OA
ENDBRANCH 16 17
BRANCH 16 20
ATOM     20  CB  TYR T 972      33.647  35.861  -4.191  1.00 33.99 LIG 0.07  C 
BRANCH 20 21
ATOM     21  CG  TYR T 972      35.116  35.891  -3.921  1.00 33.93 LIG-0.06  A 
ATOM     22  CD1 TYR T 972      35.828  37.080  -3.987  1.00 33.64 LIG 0.01  A 
ATOM     23  CE1 TYR T 972      37.182  37.107  -3.723  1.00 37.50 LIG 0.04  A 
ATOM     24  CZ  TYR T 972      37.819  35.944  -3.376  1.00 37.64 LIG 0.07  A 
ATOM     25  CE2 TYR T 972      37.130  34.759  -3.279  1.00 36.30 LIG 0.04  A 
ATOM     26  CD2 TYR T 972      35.790  34.733  -3.554  1.00 38.70 LIG 0.01  A 
BRANCH 24 27
ATOM     27 OH   TYR T 972      39.157  35.968  -3.117  1.00 40.25 LIG-0.36  OA
ATOM     28 HH   TYR T 972      39.421  36.764  -3.080  1.00 40.25 LIG 0.22  HD
ENDBRANCH 24 27
ENDBRANCH 20 21
ENDBRANCH 16 20
ENDBRANCH 13 16
ENDBRANCH 6 12
ENDBRANCH 3 6
ENDBRANCH 1 2
BRANCH 1 29
ATOM     29  CB  SER T 970      33.531  38.365 -12.828  1.00 55.16 LIG 0.20  C 
BRANCH 29 30
ATOM     30 OG   SER T 970      33.971  37.635 -13.958  1.00 59.72 LIG-0.40  OA
ATOM     31 HG   SER T 970      34.268  36.889 -13.712  1.00 59.72 LIG 0.21  HD
ENDBRANCH 29 30
ENDBRANCH 1 29
BRANCH 1 32
ATOM     32  N   SER T 970      35.354  37.016 -11.874  1.00 52.51 LIG-0.34  N 
ATOM     33  C   VAL T 969      36.629  36.988 -11.493  1.00 50.69 LIG 0.24  C 
ATOM     34 O    VAL T 969      37.105  37.807 -10.706  1.00 50.98 LIG-0.27  OA
ATOM     35 H    SER T 970      34.956  36.360 -12.263  1.00 52.51 LIG 0.16  HD
BRANCH 33 36
ATOM     36  CA  VAL T 969      37.483  35.826 -12.033  1.00 48.28 LIG 0.18  C 
BRANCH 36 37
ATOM     37  CB  VAL T 969      36.741  35.053 -13.135  1.00 45.61 LIG 0.01  C 
ATOM     38  CG1 VAL T 969      37.653  34.760 -14.325  1.00 51.33 LIG 0.01  C 
ATOM     39  CG2 VAL T 969      36.170  33.753 -12.568  1.00 51.13 LIG 0.01  C 
ENDBRANCH 36 37
BRANCH 36 40
ATOM     40  N   VAL T 969      37.836  34.946 -10.935  1.00 42.62 LIG-0.35  N 
ATOM     41  C   GLU T 968      38.885  34.146 -11.030  1.00 39.23 LIG 0.24  C 
ATOM     42 O    GLU T 968      39.544  34.030 -12.057  1.00 41.64 LIG-0.27  OA
ATOM     43 H    VAL T 969      37.319  34.994 -10.250  1.00 42.62 LIG 0.16  HD
BRANCH 41 44
ATOM     44  CA  GLU T 968      39.299  33.403  -9.778  1.00 43.46 LIG 0.18  C 
BRANCH 44 45
ATOM     45  CB  GLU T 968      38.258  32.320  -9.550  1.00 39.65 LIG 0.04  C 
BRANCH 45 46
ATOM     46  CG  GLU T 968      38.564  31.259  -8.570  1.00 48.42 LIG 0.12  C 
BRANCH 46 47
ATOM     47  CD  GLU T 968      39.375  30.180  -9.253  1.00 46.07 LIG 0.17  C 
ATOM     48 OE1  GLU T 968      38.859  29.038  -9.351  1.00 37.62 LIG-0.65  OA
ATOM     49 OE2  GLU T 968      40.486  30.494  -9.746  1.00 42.01 LIG-0.65  OA
ENDBRANCH 46 47
ENDBRANCH 45 46
ENDBRANCH 44 45
BRANCH 44 50
ATOM     50  N   GLU T 968      39.400  34.298  -8.628  1.00 42.28 LIG-0.35  N 
ATOM     51  C   GLU T 967      40.540  34.914  -8.315  1.00 44.22 LIG 0.26  C 
ATOM     52 O    GLU T 967      41.601  34.683  -8.875  1.00 45.73 LIG-0.27  OA
ATOM     53 H    GLU T 968      38.669  34.387  -8.183  1.00 42.28 LIG 0.16  HD
BRANCH 51 54
ATOM     54  CA  GLU T 967      40.486  35.944  -7.194  1.00 63.10 LIG 0.40  C 
ATOM     55  N   GLU T 967      40.295  35.281  -5.908  1.00 61.06 LIG 0.61  N 
BRANCH 54 56
ATOM     56  CB  GLU T 967      41.770  36.772  -7.188  1.00 76.10 LIG 0.06  C 
BRANCH 56 57
ATOM     57  CG  GLU T 967      41.596  38.156  -6.601  1.00 93.75 LIG 0.12  C 
BRANCH 57 58
ATOM     58  CD  GLU T 967      40.405  38.236  -5.667  1.00103.86 LIG 0.17  C 
ATOM     59 OE1  GLU T 967      39.397  38.873  -6.040  1.00104.00 LIG-0.65  OA
ATOM     60 OE2  GLU T 967      40.475  37.652  -4.564  1.00109.28 LIG-0.65  OA
ENDBRANCH 57 58
ENDBRANCH 56 57
ENDBRANCH 54 56
ENDBRANCH 51 54
ENDBRANCH 44 50
ENDBRANCH 41 44
ENDBRANCH 36 40
ENDBRANCH 33 36
ENDBRANCH 1 32
TORSDOF 26
ENDMDL
MODEL 22
USER: ADFR SOLUTION from run 180
USER: SCORE 19.437472 LL:  -4.692 LR: -15.783 RR:   0.000 FEB:  -8.027
USER: RMSD 10.870293
USER: SEED 179
USER: STATUS searching
USER: GENES 28
USER: genes 0 Translation |==|  0.26355 0.50344 0.37045
USER: genes 1 Rotation |==|  0.71699 0.49459 0.09064 0.68792
USER: genes 2 Torsion [N]-CA--C-[N] |==|  0.00168
USER: genes 3 Torsion [C]-N--CA-[CB] |==|  0.83333
USER: genes 4 Torsion [N]-CA--CB-[CG] |==|  0.61092
USER: genes 5 Torsion [CA]-CB--CG-[CD] |==|  0.46075
USER: genes 6 Torsion [CB]-CG--CD-[OE1] |==|  0.04295
USER: genes 7 Torsion [N]-CA--C-[N] |==|  0.26256
USER: genes 8 Torsion [C]-N--CA-[CB] |==|  0.84255
USER: genes 9 Torsion [N]-CA--C-[O] |==|  0.26132
USER: genes 10 Torsion [N]-CA--CB-[CG] |==|  0.88572
USER: genes 11 Torsion [CA]-CB--CG-[CD1] |==|  0.34918
USER: genes 12 Torsion [CE1]-CZ--OH-[HH] |==|  0.74067
USER: genes 13 Torsion [C]-CA--CB-[OG] |==|  0.25082
USER: genes 14 Torsion [CA]-CB--OG-[HG] |==|  0.87296
USER: genes 15 Torsion [C]-CA--N-[C] |==|  0.70409
USER: genes 16 Torsion [N]-C--CA-[N] |==|  0.34485
USER: genes 17 Torsion [C]-CA--CB-[CG1] |==|  0.11733
USER: genes 18 Torsion [C]-CA--N-[C] |==|  0.81589
USER: genes 19 Torsion [N]-C--CA-[N] |==|  0.06345
USER: genes 20 Torsion [C]-CA--CB-[CG] |==|  0.47885
USER: genes 21 Torsion [CA]-CB--CG-[CD] |==|  0.66271
USER: genes 22 Torsion [CB]-CG--CD-[OE1] |==|  0.56775
USER: genes 23 Torsion [C]-CA--N-[C] |==|  0.69496
USER: genes 24 Torsion [N]-C--CA-[N] |==|  0.39804
USER: genes 25 Torsion [C]-CA--CB-[CG] |==|  0.88784
USER: genes 26 Torsion [CA]-CB--CG-[CD] |==|  0.77446
USER: genes 27 Torsion [CB]-CG--CD-[OE1] |==|  0.14043
ROOT
ATOM      1  CA  SER T 970      25.497  38.077 -11.897  1.00 53.81 LIG 0.20  C 
ENDROOT
BRANCH 1 2
ATOM      2  C   SER T 970      25.670  39.188 -12.926  1.00 54.98 LIG 0.24  C 
ATOM      3  N   GLU T 971      25.891  40.399 -12.433  1.00 36.24 LIG-0.35  N 
ATOM      4 H    GLU T 971      25.908  40.607 -11.599  1.00 36.24 LIG 0.16  HD
ATOM      5 O    SER T 970      25.653  38.962 -14.148  1.00 50.73 LIG-0.27  OA
BRANCH 3 6
ATOM      6  CA  GLU T 971      26.126  41.478 -13.363  1.00 34.69 LIG 0.18  C 
BRANCH 6 7
ATOM      7  CB  GLU T 971      27.352  41.210 -14.233  1.00 35.28 LIG 0.04  C 
BRANCH 7 8
ATOM      8  CG  GLU T 971      28.202  42.457 -14.468  1.00 38.63 LIG 0.12  C 
BRANCH 8 9
ATOM      9  CD  GLU T 971      29.583  42.127 -15.034  1.00 44.02 LIG 0.17  C 
ATOM     10 OE1  GLU T 971      29.788  40.990 -15.516  1.00 46.94 LIG-0.65  OA
ATOM     11 OE2  GLU T 971      30.466  43.008 -14.996  1.00 38.45 LIG-0.65  OA
ENDBRANCH 8 9
ENDBRANCH 7 8
ENDBRANCH 6 7
BRANCH 6 12
ATOM     12  C   GLU T 971      24.911  41.667 -14.239  1.00 38.38 LIG 0.24  C 
ATOM     13  N   TYR T 972      24.069  42.585 -13.809  1.00 34.07 LIG-0.34  N 
ATOM     14 H    TYR T 972      24.148  42.994 -13.057  1.00 34.07 LIG 0.16  HD
ATOM     15 O    GLU T 971      24.751  41.009 -15.278  1.00 36.91 LIG-0.27  OA
BRANCH 13 16
ATOM     16  CA  TYR T 972      22.921  42.987 -14.587  1.00 35.97 LIG 0.19  C 
BRANCH 16 17
ATOM     17  C   TYR T 972      21.951  41.807 -14.722  1.00 45.43 LIG 0.20  C 
ATOM     18 OXT  TYR T 972      22.116  41.010 -15.646  1.00 40.76 LIG-0.65  OA
ATOM     19 O    TYR T 972      20.991  41.627 -13.951  1.00 41.72 LIG-0.65  OA
ENDBRANCH 16 17
BRANCH 16 20
ATOM     20  CB  TYR T 972      23.353  43.476 -15.966  1.00 33.99 LIG 0.07  C 
BRANCH 20 21
ATOM     21  CG  TYR T 972      24.585  44.315 -15.879  1.00 33.93 LIG-0.06  A 
ATOM     22  CD1 TYR T 972      25.707  44.013 -16.636  1.00 33.64 LIG 0.01  A 
ATOM     23  CE1 TYR T 972      26.839  44.799 -16.566  1.00 37.50 LIG 0.04  A 
ATOM     24  CZ  TYR T 972      26.839  45.899 -15.747  1.00 37.64 LIG 0.07  A 
ATOM     25  CE2 TYR T 972      25.731  46.233 -15.007  1.00 36.30 LIG 0.04  A 
ATOM     26  CD2 TYR T 972      24.615  45.444 -15.070  1.00 38.70 LIG 0.01  A 
BRANCH 24 27
ATOM     27 OH   TYR T 972      27.957  46.675 -15.673  1.00 40.25 LIG-0.36  OA
ATOM     28 HH   TYR T 972      28.434  46.418 -15.032  1.00 40.25 LIG 0.22  HD
ENDBRANCH 24 27
ENDBRANCH 20 21
ENDBRANCH 16 20
ENDBRANCH 13 16
ENDBRANCH 6 12
ENDBRANCH 3 6
ENDBRANCH 1 2
BRANCH 1 29
ATOM     29  CB  SER T 970      24.154  37.387 -12.165  1.00 55.16 LIG 0.20  C 
BRANCH 29 30
ATOM     30 OG   SER T 970      24.316  36.306 -13.065  1.00 59.72 LIG-0.40  OA
ATOM     31 HG   SER T 970      24.797  36.548 -13.710  1.00 59.72 LIG 0.21  HD
ENDBRANCH 29 30
ENDBRANCH 1 29
BRANCH 1 32
ATOM     32  N   SER T 970      25.582  38.485 -10.489  1.00 52.51 LIG-0.34  N 
ATOM     33  C   VAL T 969      26.643  38.197  -9.739  1.00 50.69 LIG 0.24  C 
ATOM     34 O    VAL T 969      27.716  37.829 -10.217  1.00 50.98 LIG-0.27  OA
ATOM     35 H    SER T 970      24.896  38.918 -10.204  1.00 52.51 LIG 0.16  HD
BRANCH 33 36
ATOM     36  CA  VAL T 969      26.490  38.415  -8.222  1.00 48.28 LIG 0.18  C 
BRANCH 36 37
ATOM     37  CB  VAL T 969      27.397  39.552  -7.726  1.00 45.61 LIG 0.01  C 
ATOM     38  CG1 VAL T 969      27.381  40.741  -8.687  1.00 51.33 LIG 0.01  C 
ATOM     39  CG2 VAL T 969      26.967  39.992  -6.327  1.00 51.13 LIG 0.01  C 
ENDBRANCH 36 37
BRANCH 36 40
ATOM     40  N   VAL T 969      26.795  37.175  -7.532  1.00 42.62 LIG-0.35  N 
ATOM     41  C   GLU T 968      26.013  36.119  -7.678  1.00 39.23 LIG 0.24  C 
ATOM     42 O    GLU T 968      24.960  36.150  -8.305  1.00 41.64 LIG-0.27  OA
ATOM     43 H    VAL T 969      27.502  37.196  -7.041  1.00 42.62 LIG 0.16  HD
BRANCH 41 44
ATOM     44  CA  GLU T 968      26.500  34.815  -7.082  1.00 43.46 LIG 0.18  C 
BRANCH 44 45
ATOM     45  CB  GLU T 968      25.270  34.081  -6.576  1.00 39.65 LIG 0.04  C 
BRANCH 45 46
ATOM     46  CG  GLU T 968      25.438  32.695  -6.098  1.00 48.42 LIG 0.12  C 
BRANCH 46 47
ATOM     47  CD  GLU T 968      24.548  31.783  -6.914  1.00 46.07 LIG 0.17  C 
ATOM     48 OE1  GLU T 968      24.190  30.698  -6.390  1.00 37.62 LIG-0.65  OA
ATOM     49 OE2  GLU T 968      24.156  32.184  -8.037  1.00 42.01 LIG-0.65  OA
ENDBRANCH 46 47
ENDBRANCH 45 46
ENDBRANCH 44 45
BRANCH 44 50
ATOM     50  N   GLU T 968      27.467  35.040  -6.011  1.00 42.28 LIG-0.35  N 
ATOM     51  C   GLU T 967      28.758  34.740  -6.156  1.00 44.22 LIG 0.26  C 
ATOM     52 O    GLU T 967      29.203  34.146  -7.127  1.00 45.73 LIG-0.27  OA
ATOM     53 H    GLU T 968      27.131  35.376  -5.294  1.00 42.28 LIG 0.16  HD
BRANCH 51 54
ATOM     54  CA  GLU T 967      29.698  35.163  -5.034  1.00 63.10 LIG 0.40  C 
ATOM     55  N   GLU T 967      30.733  34.155  -4.834  1.00 61.06 LIG 0.61  N 
BRANCH 54 56
ATOM     56  CB  GLU T 967      30.323  36.518  -5.364  1.00 76.10 LIG 0.06  C 
BRANCH 56 57
ATOM     57  CG  GLU T 967      30.715  36.668  -6.818  1.00 93.75 LIG 0.12  C 
BRANCH 57 58
ATOM     58  CD  GLU T 967      32.049  36.016  -7.121  1.00103.86 LIG 0.17  C 
ATOM     59 OE1  GLU T 967      32.232  34.836  -6.755  1.00104.00 LIG-0.65  OA
ATOM     60 OE2  GLU T 967      32.910  36.683  -7.734  1.00109.28 LIG-0.65  OA
ENDBRANCH 57 58
ENDBRANCH 56 57
ENDBRANCH 54 56
ENDBRANCH 51 54
ENDBRANCH 44 50
ENDBRANCH 41 44
ENDBRANCH 36 40
ENDBRANCH 33 36
ENDBRANCH 1 32
TORSDOF 26
ENDMDL
MODEL 23
USER: ADFR SOLUTION from run 87
USER: SCORE 17.810232 LL:  -4.740 LR: -15.776 RR:   0.000 FEB:  -8.020
USER: RMSD 5.861868
USER: SEED 86
USER: STATUS no improvement in best in 14 clusters for 5 generations
USER: GENES 28
USER: genes 0 Translation |==|  0.47914 0.49464 0.56638
USER: genes 1 Rotation |==|  0.69909 0.41110 0.54511 0.94769
USER: genes 2 Torsion [N]-CA--C-[N] |==|  0.47603
USER: genes 3 Torsion [C]-N--CA-[CB] |==|  0.31111
USER: genes 4 Torsion [N]-CA--CB-[CG] |==|  0.07346
USER: genes 5 Torsion [CA]-CB--CG-[CD] |==|  0.72039
USER: genes 6 Torsion [CB]-CG--CD-[OE1] |==|  0.76750
USER: genes 7 Torsion [N]-CA--C-[N] |==|  0.29058
USER: genes 8 Torsion [C]-N--CA-[CB] |==|  0.48829
USER: genes 9 Torsion [N]-CA--C-[O] |==|  0.88283
USER: genes 10 Torsion [N]-CA--CB-[CG] |==|  0.43926
USER: genes 11 Torsion [CA]-CB--CG-[CD1] |==|  0.73565
USER: genes 12 Torsion [CE1]-CZ--OH-[HH] |==|  0.24721
USER: genes 13 Torsion [C]-CA--CB-[OG] |==|  0.75386
USER: genes 14 Torsion [CA]-CB--OG-[HG] |==|  0.32783
USER: genes 15 Torsion [C]-CA--N-[C] |==|  0.75127
USER: genes 16 Torsion [N]-C--CA-[N] |==|  0.62901
USER: genes 17 Torsion [C]-CA--CB-[CG1] |==|  0.21251
USER: genes 18 Torsion [C]-CA--N-[C] |==|  0.15981
USER: genes 19 Torsion [N]-C--CA-[N] |==|  0.18092
USER: genes 20 Torsion [C]-CA--CB-[CG] |==|  0.43015
USER: genes 21 Torsion [CA]-CB--CG-[CD] |==|  0.20746
USER: genes 22 Torsion [CB]-CG--CD-[OE1] |==|  0.78043
USER: genes 23 Torsion [C]-CA--N-[C] |==|  0.15521
USER: genes 24 Torsion [N]-C--CA-[N] |==|  0.40653
USER: genes 25 Torsion [C]-CA--CB-[CG] |==|  0.90581
USER: genes 26 Torsion [CA]-CB--CG-[CD] |==|  0.78455
USER: genes 27 Torsion [CB]-CG--CD-[OE1] |==|  0.98490
ROOT
ATOM      1  CA  SER T 970      31.642  37.906  -8.077  1.00 53.81 LIG 0.20  C 
ENDROOT
BRANCH 1 2
ATOM      2  C   SER T 970      32.204  38.033  -9.487  1.00 54.98 LIG 0.24  C 
ATOM      3  N   GLU T 971      33.425  38.544  -9.575  1.00 36.24 LIG-0.35  N 
ATOM      4 H    GLU T 971      33.897  38.835  -8.918  1.00 36.24 LIG 0.16  HD
ATOM      5 O    SER T 970      31.577  37.638 -10.484  1.00 50.73 LIG-0.27  OA
BRANCH 3 6
ATOM      6  CA  GLU T 971      34.033  38.628 -10.882  1.00 34.69 LIG 0.18  C 
BRANCH 6 7
ATOM      7  CB  GLU T 971      34.190  40.077 -11.335  1.00 35.28 LIG 0.04  C 
BRANCH 7 8
ATOM      8  CG  GLU T 971      34.299  41.060 -10.172  1.00 38.63 LIG 0.12  C 
BRANCH 8 9
ATOM      9  CD  GLU T 971      32.984  41.786  -9.891  1.00 44.02 LIG 0.17  C 
ATOM     10 OE1  GLU T 971      32.695  42.803 -10.562  1.00 46.94 LIG-0.65  OA
ATOM     11 OE2  GLU T 971      32.238  41.338  -8.996  1.00 38.45 LIG-0.65  OA
ENDBRANCH 8 9
ENDBRANCH 7 8
ENDBRANCH 6 7
BRANCH 6 12
ATOM     12  C   GLU T 971      35.382  37.951 -10.858  1.00 38.38 LIG 0.24  C 
ATOM     13  N   TYR T 972      35.408  36.769 -11.439  1.00 34.07 LIG-0.34  N 
ATOM     14 H    TYR T 972      34.709  36.366 -11.739  1.00 34.07 LIG 0.16  HD
ATOM     15 O    GLU T 971      36.371  38.493 -10.340  1.00 36.91 LIG-0.27  OA
BRANCH 13 16
ATOM     16  CA  TYR T 972      36.640  36.038 -11.621  1.00 35.97 LIG 0.19  C 
BRANCH 16 17
ATOM     17  C   TYR T 972      37.582  36.836 -12.531  1.00 45.43 LIG 0.20  C 
ATOM     18 OXT  TYR T 972      38.773  36.910 -12.227  1.00 40.76 LIG-0.65  OA
ATOM     19 O    TYR T 972      37.196  37.429 -13.555  1.00 41.72 LIG-0.65  OA
ENDBRANCH 16 17
BRANCH 16 20
ATOM     20  CB  TYR T 972      36.364  34.664 -12.222  1.00 33.99 LIG 0.07  C 
BRANCH 20 21
ATOM     21  CG  TYR T 972      37.580  34.116 -12.894  1.00 33.93 LIG-0.06  A 
ATOM     22  CD1 TYR T 972      37.774  34.278 -14.258  1.00 33.64 LIG 0.01  A 
ATOM     23  CE1 TYR T 972      38.906  33.785 -14.874  1.00 37.50 LIG 0.04  A 
ATOM     24  CZ  TYR T 972      39.852  33.143 -14.118  1.00 37.64 LIG 0.07  A 
ATOM     25  CE2 TYR T 972      39.695  32.992 -12.762  1.00 36.30 LIG 0.04  A 
ATOM     26  CD2 TYR T 972      38.566  33.472 -12.156  1.00 38.70 LIG 0.01  A 
BRANCH 24 27
ATOM     27 OH   TYR T 972      40.970  32.652 -14.725  1.00 40.25 LIG-0.36  OA
ATOM     28 HH   TYR T 972      41.564  33.245 -14.739  1.00 40.25 LIG 0.22  HD
ENDBRANCH 24 27
ENDBRANCH 20 21
ENDBRANCH 16 20
ENDBRANCH 13 16
ENDBRANCH 6 12
ENDBRANCH 3 6
ENDBRANCH 1 2
BRANCH 1 29
ATOM     29  CB  SER T 970      32.508  36.900  -7.310  1.00 55.16 LIG 0.20  C 
BRANCH 29 30
ATOM     30 OG   SER T 970      32.024  35.581  -7.487  1.00 59.72 LIG-0.40  OA
ATOM     31 HG   SER T 970      32.611  35.116  -7.867  1.00 59.72 LIG 0.21  HD
ENDBRANCH 29 30
ENDBRANCH 1 29
BRANCH 1 32
ATOM     32  N   SER T 970      30.226  37.528  -7.980  1.00 52.51 LIG-0.34  N 
ATOM     33  C   VAL T 969      29.257  38.440  -7.961  1.00 50.69 LIG 0.24  C 
ATOM     34 O    VAL T 969      29.439  39.611  -8.294  1.00 50.98 LIG-0.27  OA
ATOM     35 H    SER T 970      30.088  36.680  -7.938  1.00 52.51 LIG 0.16  HD
BRANCH 33 36
ATOM     36  CA  VAL T 969      27.854  37.943  -7.564  1.00 48.28 LIG 0.18  C 
BRANCH 36 37
ATOM     37  CB  VAL T 969      27.796  36.408  -7.524  1.00 45.61 LIG 0.01  C 
ATOM     38  CG1 VAL T 969      28.464  35.854  -6.267  1.00 51.33 LIG 0.01  C 
ATOM     39  CG2 VAL T 969      26.344  35.937  -7.608  1.00 51.13 LIG 0.01  C 
ENDBRANCH 36 37
BRANCH 36 40
ATOM     40  N   VAL T 969      26.881  38.471  -8.502  1.00 42.62 LIG-0.35  N 
ATOM     41  C   GLU T 968      26.997  38.225  -9.796  1.00 39.23 LIG 0.24  C 
ATOM     42 O    GLU T 968      27.959  37.638 -10.280  1.00 41.64 LIG-0.27  OA
ATOM     43 H    VAL T 969      26.251  38.938  -8.148  1.00 42.62 LIG 0.16  HD
BRANCH 41 44
ATOM     44  CA  GLU T 968      25.844  38.646 -10.683  1.00 43.46 LIG 0.18  C 
BRANCH 44 45
ATOM     45  CB  GLU T 968      26.139  38.098 -12.068  1.00 39.65 LIG 0.04  C 
BRANCH 45 46
ATOM     46  CG  GLU T 968      24.999  37.851 -12.973  1.00 48.42 LIG 0.12  C 
BRANCH 46 47
ATOM     47  CD  GLU T 968      24.488  39.177 -13.492  1.00 46.07 LIG 0.17  C 
ATOM     48 OE1  GLU T 968      23.752  39.855 -12.732  1.00 37.62 LIG-0.65  OA
ATOM     49 OE2  GLU T 968      24.878  39.564 -14.621  1.00 42.01 LIG-0.65  OA
ENDBRANCH 46 47
ENDBRANCH 45 46
ENDBRANCH 44 45
BRANCH 44 50
ATOM     50  N   GLU T 968      25.683  40.097 -10.704  1.00 42.28 LIG-0.35  N 
ATOM     51  C   GLU T 967      26.681  40.910 -11.050  1.00 44.22 LIG 0.26  C 
ATOM     52 O    GLU T 967      27.824  40.522 -11.246  1.00 45.73 LIG-0.27  OA
ATOM     53 H    GLU T 968      24.899  40.370 -10.477  1.00 42.28 LIG 0.16  HD
BRANCH 51 54
ATOM     54  CA  GLU T 967      26.353  42.391 -11.189  1.00 63.10 LIG 0.40  C 
ATOM     55  N   GLU T 967      27.495  43.203 -10.782  1.00 61.06 LIG 0.61  N 
BRANCH 54 56
ATOM     56  CB  GLU T 967      25.958  42.702 -12.633  1.00 76.10 LIG 0.06  C 
BRANCH 56 57
ATOM     57  CG  GLU T 967      26.698  41.868 -13.657  1.00 93.75 LIG 0.12  C 
BRANCH 57 58
ATOM     58  CD  GLU T 967      28.111  42.365 -13.886  1.00103.86 LIG 0.17  C 
ATOM     59 OE1  GLU T 967      28.471  43.418 -13.320  1.00104.00 LIG-0.65  OA
ATOM     60 OE2  GLU T 967      28.864  41.694 -14.625  1.00109.28 LIG-0.65  OA
ENDBRANCH 57 58
ENDBRANCH 56 57
ENDBRANCH 54 56
ENDBRANCH 51 54
ENDBRANCH 44 50
ENDBRANCH 41 44
ENDBRANCH 36 40
ENDBRANCH 33 36
ENDBRANCH 1 32
TORSDOF 26
ENDMDL
MODEL 24
USER: ADFR SOLUTION from run 87
USER: SCORE 17.826068 LL:  -4.396 LR: -15.760 RR:   0.000 FEB:  -8.004
USER: RMSD 5.680245
USER: SEED 86
USER: STATUS no improvement in best in 14 clusters for 5 generations
USER: GENES 28
USER: genes 0 Translation |==|  0.47573 0.49649 0.56575
USER: genes 1 Rotation |==|  0.69559 0.41514 0.55747 0.94860
USER: genes 2 Torsion [N]-CA--C-[N] |==|  0.48740
USER: genes 3 Torsion [C]-N--CA-[CB] |==|  0.30556
USER: genes 4 Torsion [N]-CA--CB-[CG] |==|  0.08044
USER: genes 5 Torsion [CA]-CB--CG-[CD] |==|  0.72214
USER: genes 6 Torsion [CB]-CG--CD-[OE1] |==|  0.76367
USER: genes 7 Torsion [N]-CA--C-[N] |==|  0.33316
USER: genes 8 Torsion [C]-N--CA-[CB] |==|  0.56903
USER: genes 9 Torsion [N]-CA--C-[O] |==|  0.87888
USER: genes 10 Torsion [N]-CA--CB-[CG] |==|  0.16082
USER: genes 11 Torsion [CA]-CB--CG-[CD1] |==|  0.26400
USER: genes 12 Torsion [CE1]-CZ--OH-[HH] |==|  0.23445
USER: genes 13 Torsion [C]-CA--CB-[OG] |==|  0.75427
USER: genes 14 Torsion [CA]-CB--OG-[HG] |==|  0.31379
USER: genes 15 Torsion [C]-CA--N-[C] |==|  0.77043
USER: genes 16 Torsion [N]-C--CA-[N] |==|  0.61628
USER: genes 17 Torsion [C]-CA--CB-[CG1] |==|  0.21849
USER: genes 18 Torsion [C]-CA--N-[C] |==|  0.13680
USER: genes 19 Torsion [N]-C--CA-[N] |==|  0.12834
USER: genes 20 Torsion [C]-CA--CB-[CG] |==|  0.48013
USER: genes 21 Torsion [CA]-CB--CG-[CD] |==|  0.28130
USER: genes 22 Torsion [CB]-CG--CD-[OE1] |==|  0.01788
USER: genes 23 Torsion [C]-CA--N-[C] |==|  0.13740
USER: genes 24 Torsion [N]-C--CA-[N] |==|  0.82866
USER: genes 25 Torsion [C]-CA--CB-[CG] |==|  0.84484
USER: genes 26 Torsion [CA]-CB--CG-[CD] |==|  0.82933
USER: genes 27 Torsion [CB]-CG--CD-[OE1] |==|  0.29475
ROOT
ATOM      1  CA  SER T 970      31.544  37.942  -8.089  1.00 53.81 LIG 0.20  C 
ENDROOT
BRANCH 1 2
ATOM      2  C   SER T 970      32.109  38.062  -9.499  1.00 54.98 LIG 0.24  C 
ATOM      3  N   GLU T 971      33.339  38.551  -9.586  1.00 36.24 LIG-0.35  N 
ATOM      4 H    GLU T 971      33.816  38.832  -8.928  1.00 36.24 LIG 0.16  HD
ATOM      5 O    SER T 970      31.475  37.681 -10.497  1.00 50.73 LIG-0.27  OA
BRANCH 3 6
ATOM      6  CA  GLU T 971      33.948  38.626 -10.893  1.00 34.69 LIG 0.18  C 
BRANCH 6 7
ATOM      7  CB  GLU T 971      34.087  40.071 -11.364  1.00 35.28 LIG 0.04  C 
BRANCH 7 8
ATOM      8  CG  GLU T 971      34.242  41.064 -10.214  1.00 38.63 LIG 0.12  C 
BRANCH 8 9
ATOM      9  CD  GLU T 971      32.935  41.781  -9.877  1.00 44.02 LIG 0.17  C 
ATOM     10 OE1  GLU T 971      32.619  42.806 -10.523  1.00 46.94 LIG-0.65  OA
ATOM     11 OE2  GLU T 971      32.223  41.319  -8.962  1.00 38.45 LIG-0.65  OA
ENDBRANCH 8 9
ENDBRANCH 7 8
ENDBRANCH 6 7
BRANCH 6 12
ATOM     12  C   GLU T 971      35.306  37.968 -10.858  1.00 38.38 LIG 0.24  C 
ATOM     13  N   TYR T 972      35.437  36.948 -11.681  1.00 34.07 LIG-0.34  N 
ATOM     14 H    TYR T 972      34.792  36.620 -12.146  1.00 34.07 LIG 0.16  HD
ATOM     15 O    GLU T 971      36.210  38.384 -10.116  1.00 36.91 LIG-0.27  OA
BRANCH 13 16
ATOM     16  CA  TYR T 972      36.705  36.283 -11.871  1.00 35.97 LIG 0.19  C 
BRANCH 16 17
ATOM     17  C   TYR T 972      37.845  37.302 -11.746  1.00 45.43 LIG 0.20  C 
ATOM     18 OXT  TYR T 972      38.837  36.998 -11.082  1.00 40.76 LIG-0.65  OA
ATOM     19 O    TYR T 972      37.807  38.430 -12.268  1.00 41.72 LIG-0.65  OA
ENDBRANCH 16 17
BRANCH 16 20
ATOM     20  CB  TYR T 972      36.754  35.603 -13.236  1.00 33.99 LIG 0.07  C 
BRANCH 20 21
ATOM     21  CG  TYR T 972      36.530  36.587 -14.337  1.00 33.93 LIG-0.06  A 
ATOM     22  CD1 TYR T 972      37.601  37.180 -14.990  1.00 33.64 LIG 0.01  A 
ATOM     23  CE1 TYR T 972      37.392  38.077 -16.017  1.00 37.50 LIG 0.04  A 
ATOM     24  CZ  TYR T 972      36.108  38.367 -16.400  1.00 37.64 LIG 0.07  A 
ATOM     25  CE2 TYR T 972      35.032  37.774 -15.785  1.00 36.30 LIG 0.04  A 
ATOM     26  CD2 TYR T 972      35.243  36.894 -14.759  1.00 38.70 LIG 0.01  A 
BRANCH 24 27
ATOM     27 OH   TYR T 972      35.899  39.256 -17.413  1.00 40.25 LIG-0.36  OA
ATOM     28 HH   TYR T 972      35.954  38.858 -18.150  1.00 40.25 LIG 0.22  HD
ENDBRANCH 24 27
ENDBRANCH 20 21
ENDBRANCH 16 20
ENDBRANCH 13 16
ENDBRANCH 6 12
ENDBRANCH 3 6
ENDBRANCH 1 2
BRANCH 1 29
ATOM     29  CB  SER T 970      32.453  36.997  -7.293  1.00 55.16 LIG 0.20  C 
BRANCH 29 30
ATOM     30 OG   SER T 970      32.036  35.653  -7.444  1.00 59.72 LIG-0.40  OA
ATOM     31 HG   SER T 970      32.619  35.224  -7.870  1.00 59.72 LIG 0.21  HD
ENDBRANCH 29 30
ENDBRANCH 1 29
BRANCH 1 32
ATOM     32  N   SER T 970      30.148  37.499  -7.991  1.00 52.51 LIG-0.34  N 
ATOM     33  C   VAL T 969      29.132  38.346  -8.134  1.00 50.69 LIG 0.24  C 
ATOM     34 O    VAL T 969      29.266  39.470  -8.621  1.00 50.98 LIG-0.27  OA
ATOM     35 H    SER T 970      30.053  36.658  -7.835  1.00 52.51 LIG 0.16  HD
BRANCH 33 36
ATOM     36  CA  VAL T 969      27.741  37.828  -7.721  1.00 48.28 LIG 0.18  C 
BRANCH 36 37
ATOM     37  CB  VAL T 969      27.735  36.298  -7.579  1.00 45.61 LIG 0.01  C 
ATOM     38  CG1 VAL T 969      28.356  35.856  -6.255  1.00 51.33 LIG 0.01  C 
ATOM     39  CG2 VAL T 969      26.307  35.767  -7.702  1.00 51.13 LIG 0.01  C 
ENDBRANCH 36 37
BRANCH 36 40
ATOM     40  N   VAL T 969      26.764  38.258  -8.704  1.00 42.62 LIG-0.35  N 
ATOM     41  C   GLU T 968      26.987  38.073  -9.994  1.00 39.23 LIG 0.24  C 
ATOM     42 O    GLU T 968      28.044  37.633 -10.432  1.00 41.64 LIG-0.27  OA
ATOM     43 H    VAL T 969      26.059  38.628  -8.378  1.00 42.62 LIG 0.16  HD
BRANCH 41 44
ATOM     44  CA  GLU T 968      25.843  38.372 -10.940  1.00 43.46 LIG 0.18  C 
BRANCH 44 45
ATOM     45  CB  GLU T 968      26.427  38.372 -12.342  1.00 39.65 LIG 0.04  C 
BRANCH 45 46
ATOM     46  CG  GLU T 968      25.494  38.480 -13.481  1.00 48.42 LIG 0.12  C 
BRANCH 46 47
ATOM     47  CD  GLU T 968      25.507  39.904 -13.993  1.00 46.07 LIG 0.17  C 
ATOM     48 OE1  GLU T 968      26.347  40.694 -13.493  1.00 37.62 LIG-0.65  OA
ATOM     49 OE2  GLU T 968      24.732  40.205 -14.933  1.00 42.01 LIG-0.65  OA
ENDBRANCH 46 47
ENDBRANCH 45 46
ENDBRANCH 44 45
BRANCH 44 50
ATOM     50  N   GLU T 968      25.204  39.647 -10.626  1.00 42.28 LIG-0.35  N 
ATOM     51  C   GLU T 967      25.911  40.763 -10.449  1.00 44.22 LIG 0.26  C 
ATOM     52 O    GLU T 967      27.133  40.782 -10.406  1.00 45.73 LIG-0.27  OA
ATOM     53 H    GLU T 968      24.346  39.609 -10.568  1.00 42.28 LIG 0.16  HD
BRANCH 51 54
ATOM     54  CA  GLU T 967      25.130  42.060 -10.284  1.00 63.10 LIG 0.40  C 
ATOM     55  N   GLU T 967      24.344  42.333 -11.483  1.00 61.06 LIG 0.61  N 
BRANCH 54 56
ATOM     56  CB  GLU T 967      24.224  41.969  -9.056  1.00 76.10 LIG 0.06  C 
BRANCH 56 57
ATOM     57  CG  GLU T 967      23.280  40.786  -9.085  1.00 93.75 LIG 0.12  C 
BRANCH 57 58
ATOM     58  CD  GLU T 967      22.328  40.843 -10.263  1.00103.86 LIG 0.17  C 
ATOM     59 OE1  GLU T 967      22.518  40.066 -11.221  1.00104.00 LIG-0.65  OA
ATOM     60 OE2  GLU T 967      21.383  41.661 -10.223  1.00109.28 LIG-0.65  OA
ENDBRANCH 57 58
ENDBRANCH 56 57
ENDBRANCH 54 56
ENDBRANCH 51 54
ENDBRANCH 44 50
ENDBRANCH 41 44
ENDBRANCH 36 40
ENDBRANCH 33 36
ENDBRANCH 1 32
TORSDOF 26
ENDMDL
MODEL 25
USER: ADFR SOLUTION from run 162
USER: SCORE 17.628176 LL:  -4.326 LR: -15.727 RR:   0.000 FEB:  -7.971
USER: RMSD 12.978444
USER: SEED 161
USER: STATUS no improvement in best in 17 clusters for 5 generations
USER: GENES 28
USER: genes 0 Translation |==|  0.66347 0.37878 0.34354
USER: genes 1 Rotation |==|  0.41396 0.78830 0.10863 0.57945
USER: genes 2 Torsion [N]-CA--C-[N] |==|  0.42346
USER: genes 3 Torsion [C]-N--CA-[CB] |==|  0.35094
USER: genes 4 Torsion [N]-CA--CB-[CG] |==|  0.94919
USER: genes 5 Torsion [CA]-CB--CG-[CD] |==|  0.23625
USER: genes 6 Torsion [CB]-CG--CD-[OE1] |==|  0.67289
USER: genes 7 Torsion [N]-CA--C-[N] |==|  0.29241
USER: genes 8 Torsion [C]-N--CA-[CB] |==|  0.52402
USER: genes 9 Torsion [N]-CA--C-[O] |==|  0.79263
USER: genes 10 Torsion [N]-CA--CB-[CG] |==|  0.67804
USER: genes 11 Torsion [CA]-CB--CG-[CD1] |==|  0.37996
USER: genes 12 Torsion [CE1]-CZ--OH-[HH] |==|  0.31077
USER: genes 13 Torsion [C]-CA--CB-[OG] |==|  0.34340
USER: genes 14 Torsion [CA]-CB--OG-[HG] |==|  0.89881
USER: genes 15 Torsion [C]-CA--N-[C] |==|  0.63443
USER: genes 16 Torsion [N]-C--CA-[N] |==|  0.11764
USER: genes 17 Torsion [C]-CA--CB-[CG1] |==|  0.53019
USER: genes 18 Torsion [C]-CA--N-[C] |==|  0.13333
USER: genes 19 Torsion [N]-C--CA-[N] |==|  0.95958
USER: genes 20 Torsion [C]-CA--CB-[CG] |==|  0.86794
USER: genes 21 Torsion [CA]-CB--CG-[CD] |==|  0.82381
USER: genes 22 Torsion [CB]-CG--CD-[OE1] |==|  0.79171
USER: genes 23 Torsion [C]-CA--N-[C] |==|  0.61162
USER: genes 24 Torsion [N]-C--CA-[N] |==|  0.23676
USER: genes 25 Torsion [C]-CA--CB-[CG] |==|  0.27399
USER: genes 26 Torsion [CA]-CB--CG-[CD] |==|  0.79882
USER: genes 27 Torsion [CB]-CG--CD-[OE1] |==|  0.69390
ROOT
ATOM      1  CA  SER T 970      36.895  35.646 -12.422  1.00 53.81 LIG 0.20  C 
ENDROOT
BRANCH 1 2
ATOM      2  C   SER T 970      36.368  36.897 -11.729  1.00 54.98 LIG 0.24  C 
ATOM      3  N   GLU T 971      35.141  37.268 -12.069  1.00 36.24 LIG-0.35  N 
ATOM      4 H    GLU T 971      34.647  36.889 -12.662  1.00 36.24 LIG 0.16  HD
ATOM      5 O    SER T 970      37.028  37.499 -10.866  1.00 50.73 LIG-0.27  OA
BRANCH 3 6
ATOM      6  CA  GLU T 971      34.566  38.409 -11.396  1.00 34.69 LIG 0.18  C 
BRANCH 6 7
ATOM      7  CB  GLU T 971      34.072  39.456 -12.390  1.00 35.28 LIG 0.04  C 
BRANCH 7 8
ATOM      8  CG  GLU T 971      34.674  39.291 -13.783  1.00 38.63 LIG 0.12  C 
BRANCH 8 9
ATOM      9  CD  GLU T 971      33.904  38.287 -14.640  1.00 44.02 LIG 0.17  C 
ATOM     10 OE1  GLU T 971      34.487  37.252 -15.037  1.00 46.94 LIG-0.65  OA
ATOM     11 OE2  GLU T 971      32.712  38.533 -14.917  1.00 38.45 LIG-0.65  OA
ENDBRANCH 8 9
ENDBRANCH 7 8
ENDBRANCH 6 7
BRANCH 6 12
ATOM     12  C   GLU T 971      33.423  37.957 -10.519  1.00 38.38 LIG 0.24  C 
ATOM     13  N   TYR T 972      33.699  37.944  -9.230  1.00 34.07 LIG-0.34  N 
ATOM     14 H    TYR T 972      34.480  38.097  -8.905  1.00 34.07 LIG 0.16  HD
ATOM     15 O    GLU T 971      32.323  37.644 -10.998  1.00 36.91 LIG-0.27  OA
BRANCH 13 16
ATOM     16  CA  TYR T 972      32.687  37.663  -8.240  1.00 35.97 LIG 0.19  C 
BRANCH 16 17
ATOM     17  C   TYR T 972      31.453  38.534  -8.503  1.00 45.43 LIG 0.20  C 
ATOM     18 OXT  TYR T 972      30.459  38.012  -9.010  1.00 40.76 LIG-0.65  OA
ATOM     19 O    TYR T 972      31.413  39.751  -8.245  1.00 41.72 LIG-0.65  OA
ENDBRANCH 16 17
BRANCH 16 20
ATOM     20  CB  TYR T 972      33.225  37.920  -6.836  1.00 33.99 LIG 0.07  C 
BRANCH 20 21
ATOM     21  CG  TYR T 972      33.273  36.659  -6.038  1.00 33.93 LIG-0.06  A 
ATOM     22  CD1 TYR T 972      34.371  36.360  -5.245  1.00 33.64 LIG 0.01  A 
ATOM     23  CE1 TYR T 972      34.407  35.201  -4.497  1.00 37.50 LIG 0.04  A 
ATOM     24  CZ  TYR T 972      33.333  34.350  -4.531  1.00 37.64 LIG 0.07  A 
ATOM     25  CE2 TYR T 972      32.223  34.637  -5.289  1.00 36.30 LIG 0.04  A 
ATOM     26  CD2 TYR T 972      32.196  35.781  -6.039  1.00 38.70 LIG 0.01  A 
BRANCH 24 27
ATOM     27 OH   TYR T 972      33.367  33.203  -3.795  1.00 40.25 LIG-0.36  OA
ATOM     28 HH   TYR T 972      32.805  33.252  -3.173  1.00 40.25 LIG 0.22  HD
ENDBRANCH 24 27
ENDBRANCH 20 21
ENDBRANCH 16 20
ENDBRANCH 13 16
ENDBRANCH 6 12
ENDBRANCH 3 6
ENDBRANCH 1 2
BRANCH 1 29
ATOM     29  CB  SER T 970      36.373  34.424 -11.657  1.00 55.16 LIG 0.20  C 
BRANCH 29 30
ATOM     30 OG   SER T 970      35.655  33.561 -12.519  1.00 59.72 LIG-0.40  OA
ATOM     31 HG   SER T 970      35.225  34.017 -13.078  1.00 59.72 LIG 0.21  HD
ENDBRANCH 29 30
ENDBRANCH 1 29
BRANCH 1 32
ATOM     32  N   SER T 970      38.353  35.561 -12.574  1.00 52.51 LIG-0.34  N 
ATOM     33  C   VAL T 969      38.920  35.247 -13.736  1.00 50.69 LIG 0.24  C 
ATOM     34 O    VAL T 969      38.308  35.279 -14.805  1.00 50.98 LIG-0.27  OA
ATOM     35 H    SER T 970      38.795  35.730 -11.855  1.00 52.51 LIG 0.16  HD
BRANCH 33 36
ATOM     36  CA  VAL T 969      40.421  34.904 -13.698  1.00 48.28 LIG 0.18  C 
BRANCH 36 37
ATOM     37  CB  VAL T 969      40.868  34.210 -14.994  1.00 45.61 LIG 0.01  C 
ATOM     38  CG1 VAL T 969      42.275  33.629 -14.863  1.00 51.33 LIG 0.01  C 
ATOM     39  CG2 VAL T 969      39.872  33.113 -15.371  1.00 51.13 LIG 0.01  C 
ENDBRANCH 36 37
BRANCH 36 40
ATOM     40  N   VAL T 969      40.685  34.063 -12.546  1.00 42.62 LIG-0.35  N 
ATOM     41  C   GLU T 968      39.922  33.012 -12.296  1.00 39.23 LIG 0.24  C 
ATOM     42 O    GLU T 968      38.915  32.749 -12.944  1.00 41.64 LIG-0.27  OA
ATOM     43 H    VAL T 969      41.356  34.305 -12.065  1.00 42.62 LIG 0.16  HD
BRANCH 41 44
ATOM     44  CA  GLU T 968      40.375  32.080 -11.192  1.00 43.46 LIG 0.18  C 
BRANCH 44 45
ATOM     45  CB  GLU T 968      39.436  32.303 -10.020  1.00 39.65 LIG 0.04  C 
BRANCH 45 46
ATOM     46  CG  GLU T 968      39.153  33.693  -9.613  1.00 48.42 LIG 0.12  C 
BRANCH 46 47
ATOM     47  CD  GLU T 968      40.438  34.336  -9.139  1.00 46.07 LIG 0.17  C 
ATOM     48 OE1  GLU T 968      40.872  34.003  -8.007  1.00 37.62 LIG-0.65  OA
ATOM     49 OE2  GLU T 968      41.040  35.111  -9.922  1.00 42.01 LIG-0.65  OA
ENDBRANCH 46 47
ENDBRANCH 45 46
ENDBRANCH 44 45
BRANCH 44 50
ATOM     50  N   GLU T 968      41.766  32.324 -10.817  1.00 42.28 LIG-0.35  N 
ATOM     51  C   GLU T 967      42.606  31.325 -10.547  1.00 44.22 LIG 0.26  C 
ATOM     52 O    GLU T 967      42.255  30.157 -10.465  1.00 45.73 LIG-0.27  OA
ATOM     53 H    GLU T 968      41.984  33.156 -10.788  1.00 42.28 LIG 0.16  HD
BRANCH 51 54
ATOM     54  CA  GLU T 967      44.068  31.691 -10.323  1.00 63.10 LIG 0.40  C 
ATOM     55  N   GLU T 967      44.286  32.079  -8.933  1.00 61.06 LIG 0.61  N 
BRANCH 54 56
ATOM     56  CB  GLU T 967      44.962  30.510 -10.699  1.00 76.10 LIG 0.06  C 
BRANCH 56 57
ATOM     57  CG  GLU T 967      45.565  30.622 -12.083  1.00 93.75 LIG 0.12  C 
BRANCH 57 58
ATOM     58  CD  GLU T 967      44.537  30.398 -13.174  1.00103.86 LIG 0.17  C 
ATOM     59 OE1  GLU T 967      44.611  29.354 -13.856  1.00104.00 LIG-0.65  OA
ATOM     60 OE2  GLU T 967      43.650  31.263 -13.342  1.00109.28 LIG-0.65  OA
ENDBRANCH 57 58
ENDBRANCH 56 57
ENDBRANCH 54 56
ENDBRANCH 51 54
ENDBRANCH 44 50
ENDBRANCH 41 44
ENDBRANCH 36 40
ENDBRANCH 33 36
ENDBRANCH 1 32
TORSDOF 26
ENDMDL
MODEL 26
USER: ADFR SOLUTION from run 50
USER: SCORE 18.808342 LL:  -4.594 LR: -15.731 RR:   0.000 FEB:  -7.976
USER: RMSD 8.723672
USER: SEED 49
USER: STATUS no improvement in best in 6 clusters for 5 generations
USER: GENES 28
USER: genes 0 Translation |==|  0.64686 0.38986 0.27797
USER: genes 1 Rotation |==|  0.31127 0.90173 0.72361 0.55471
USER: genes 2 Torsion [N]-CA--C-[N] |==|  0.15556
USER: genes 3 Torsion [C]-N--CA-[CB] |==|  0.21081
USER: genes 4 Torsion [N]-CA--CB-[CG] |==|  0.70735
USER: genes 5 Torsion [CA]-CB--CG-[CD] |==|  0.38119
USER: genes 6 Torsion [CB]-CG--CD-[OE1] |==|  0.37748
USER: genes 7 Torsion [N]-CA--C-[N] |==|  0.48409
USER: genes 8 Torsion [C]-N--CA-[CB] |==|  0.20193
USER: genes 9 Torsion [N]-CA--C-[O] |==|  0.19132
USER: genes 10 Torsion [N]-CA--CB-[CG] |==|  0.68756
USER: genes 11 Torsion [CA]-CB--CG-[CD1] |==|  0.50325
USER: genes 12 Torsion [CE1]-CZ--OH-[HH] |==|  0.67437
USER: genes 13 Torsion [C]-CA--CB-[OG] |==|  0.46224
USER: genes 14 Torsion [CA]-CB--OG-[HG] |==|  0.81437
USER: genes 15 Torsion [C]-CA--N-[C] |==|  0.76720
USER: genes 16 Torsion [N]-C--CA-[N] |==|  0.42277
USER: genes 17 Torsion [C]-CA--CB-[CG1] |==|  0.59457
USER: genes 18 Torsion [C]-CA--N-[C] |==|  0.73231
USER: genes 19 Torsion [N]-C--CA-[N] |==|  0.39090
USER: genes 20 Torsion [C]-CA--CB-[CG] |==|  0.85050
USER: genes 21 Torsion [CA]-CB--CG-[CD] |==|  0.50870
USER: genes 22 Torsion [CB]-CG--CD-[OE1] |==|  0.95332
USER: genes 23 Torsion [C]-CA--N-[C] |==|  0.73045
USER: genes 24 Torsion [N]-C--CA-[N] |==|  0.83505
USER: genes 25 Torsion [C]-CA--CB-[CG] |==|  0.66937
USER: genes 26 Torsion [CA]-CB--CG-[CD] |==|  0.18474
USER: genes 27 Torsion [CB]-CG--CD-[OE1] |==|  0.68266
ROOT
ATOM      1  CA  SER T 970      36.421  35.862 -13.701  1.00 53.81 LIG 0.20  C 
ENDROOT
BRANCH 1 2
ATOM      2  C   SER T 970      37.358  34.660 -13.712  1.00 54.98 LIG 0.24  C 
ATOM      3  N   GLU T 971      37.978  34.404 -12.568  1.00 36.24 LIG-0.35  N 
ATOM      4 H    GLU T 971      37.922  34.872 -11.849  1.00 36.24 LIG 0.16  HD
ATOM      5 O    SER T 970      37.493  33.941 -14.716  1.00 50.73 LIG-0.27  OA
BRANCH 3 6
ATOM      6  CA  GLU T 971      38.828  33.238 -12.504  1.00 34.69 LIG 0.18  C 
BRANCH 6 7
ATOM      7  CB  GLU T 971      40.155  33.472 -13.220  1.00 35.28 LIG 0.04  C 
BRANCH 7 8
ATOM      8  CG  GLU T 971      40.242  32.759 -14.568  1.00 38.63 LIG 0.12  C 
BRANCH 8 9
ATOM      9  CD  GLU T 971      40.861  33.636 -15.656  1.00 44.02 LIG 0.17  C 
ATOM     10 OE1  GLU T 971      41.715  33.138 -16.425  1.00 46.94 LIG-0.65  OA
ATOM     11 OE2  GLU T 971      40.493  34.825 -15.742  1.00 38.45 LIG-0.65  OA
ENDBRANCH 8 9
ENDBRANCH 7 8
ENDBRANCH 6 7
BRANCH 6 12
ATOM     12  C   GLU T 971      39.083  32.875 -11.061  1.00 38.38 LIG 0.24  C 
ATOM     13  N   TYR T 972      39.752  31.753 -10.892  1.00 34.07 LIG-0.34  N 
ATOM     14 H    TYR T 972      39.963  31.219 -11.533  1.00 34.07 LIG 0.16  HD
ATOM     15 O    GLU T 971      38.695  33.600 -10.131  1.00 36.91 LIG-0.27  OA
BRANCH 13 16
ATOM     16  CA  TYR T 972      40.194  31.320  -9.588  1.00 35.97 LIG 0.19  C 
BRANCH 16 17
ATOM     17  C   TYR T 972      41.232  30.202  -9.740  1.00 45.43 LIG 0.20  C 
ATOM     18 OXT  TYR T 972      40.933  29.065  -9.371  1.00 40.76 LIG-0.65  OA
ATOM     19 O    TYR T 972      42.371  30.392 -10.203  1.00 41.72 LIG-0.65  OA
ENDBRANCH 16 17
BRANCH 16 20
ATOM     20  CB  TYR T 972      39.013  30.834  -8.755  1.00 33.99 LIG 0.07  C 
BRANCH 20 21
ATOM     21  CG  TYR T 972      38.753  31.748  -7.603  1.00 33.93 LIG-0.06  A 
ATOM     22  CD1 TYR T 972      37.736  31.482  -6.698  1.00 33.64 LIG 0.01  A 
ATOM     23  CE1 TYR T 972      37.508  32.320  -5.625  1.00 37.50 LIG 0.04  A 
ATOM     24  CZ  TYR T 972      38.312  33.417  -5.452  1.00 37.64 LIG 0.07  A 
ATOM     25  CE2 TYR T 972      39.341  33.688  -6.320  1.00 36.30 LIG 0.04  A 
ATOM     26  CD2 TYR T 972      39.556  32.861  -7.389  1.00 38.70 LIG 0.01  A 
BRANCH 24 27
ATOM     27 OH   TYR T 972      38.086  34.248  -4.395  1.00 40.25 LIG-0.36  OA
ATOM     28 HH   TYR T 972      37.879  35.011  -4.678  1.00 40.25 LIG 0.22  HD
ENDBRANCH 24 27
ENDBRANCH 20 21
ENDBRANCH 16 20
ENDBRANCH 13 16
ENDBRANCH 6 12
ENDBRANCH 3 6
ENDBRANCH 1 2
BRANCH 1 29
ATOM     29  CB  SER T 970      35.803  35.995 -15.097  1.00 55.16 LIG 0.20  C 
BRANCH 29 30
ATOM     30 OG   SER T 970      34.702  36.885 -15.077  1.00 59.72 LIG-0.40  OA
ATOM     31 HG   SER T 970      34.080  36.551 -14.623  1.00 59.72 LIG 0.21  HD
ENDBRANCH 29 30
ENDBRANCH 1 29
BRANCH 1 32
ATOM     32  N   SER T 970      37.018  37.139 -13.290  1.00 52.51 LIG-0.34  N 
ATOM     33  C   VAL T 969      37.144  37.475 -12.008  1.00 50.69 LIG 0.24  C 
ATOM     34 O    VAL T 969      37.034  36.658 -11.093  1.00 50.98 LIG-0.27  OA
ATOM     35 H    SER T 970      37.273  37.638 -13.943  1.00 52.51 LIG 0.16  HD
BRANCH 33 36
ATOM     36  CA  VAL T 969      37.506  38.943 -11.715  1.00 48.28 LIG 0.18  C 
BRANCH 36 37
ATOM     37  CB  VAL T 969      39.026  39.165 -11.773  1.00 45.61 LIG 0.01  C 
ATOM     38  CG1 VAL T 969      39.478  40.215 -10.760  1.00 51.33 LIG 0.01  C 
ATOM     39  CG2 VAL T 969      39.757  37.843 -11.533  1.00 51.13 LIG 0.01  C 
ENDBRANCH 36 37
BRANCH 36 40
ATOM     40  N   VAL T 969      36.982  39.310 -10.413  1.00 42.62 LIG-0.35  N 
ATOM     41  C   GLU T 968      35.819  39.932 -10.312  1.00 39.23 LIG 0.24  C 
ATOM     42 O    GLU T 968      35.180  40.314 -11.286  1.00 41.64 LIG-0.27  OA
ATOM     43 H    VAL T 969      37.479  39.093  -9.746  1.00 42.62 LIG 0.16  HD
BRANCH 41 44
ATOM     44  CA  GLU T 968      35.252  40.109  -8.919  1.00 43.46 LIG 0.18  C 
BRANCH 44 45
ATOM     45  CB  GLU T 968      34.256  38.982  -8.708  1.00 39.65 LIG 0.04  C 
BRANCH 45 46
ATOM     46  CG  GLU T 968      33.184  38.808  -9.707  1.00 48.42 LIG 0.12  C 
BRANCH 46 47
ATOM     47  CD  GLU T 968      32.272  37.687  -9.258  1.00 46.07 LIG 0.17  C 
ATOM     48 OE1  GLU T 968      32.703  36.905  -8.373  1.00 37.62 LIG-0.65  OA
ATOM     49 OE2  GLU T 968      31.113  37.635  -9.737  1.00 42.01 LIG-0.65  OA
ENDBRANCH 46 47
ENDBRANCH 45 46
ENDBRANCH 44 45
BRANCH 44 50
ATOM     50  N   GLU T 968      34.622  41.417  -8.756  1.00 42.28 LIG-0.35  N 
ATOM     51  C   GLU T 967      35.268  42.443  -8.201  1.00 44.22 LIG 0.26  C 
ATOM     52 O    GLU T 967      36.368  42.338  -7.678  1.00 45.73 LIG-0.27  OA
ATOM     53 H    GLU T 968      33.814  41.460  -9.045  1.00 42.28 LIG 0.16  HD
BRANCH 51 54
ATOM     54  CA  GLU T 967      34.571  43.797  -8.227  1.00 63.10 LIG 0.40  C 
ATOM     55  N   GLU T 967      34.303  44.201  -9.603  1.00 61.06 LIG 0.61  N 
BRANCH 54 56
ATOM     56  CB  GLU T 967      33.272  43.727  -7.424  1.00 76.10 LIG 0.06  C 
BRANCH 56 57
ATOM     57  CG  GLU T 967      32.035  44.018  -8.245  1.00 93.75 LIG 0.12  C 
BRANCH 57 58
ATOM     58  CD  GLU T 967      31.779  42.951  -9.291  1.00103.86 LIG 0.17  C 
ATOM     59 OE1  GLU T 967      31.867  43.264 -10.496  1.00104.00 LIG-0.65  OA
ATOM     60 OE2  GLU T 967      31.498  41.796  -8.903  1.00109.28 LIG-0.65  OA
ENDBRANCH 57 58
ENDBRANCH 56 57
ENDBRANCH 54 56
ENDBRANCH 51 54
ENDBRANCH 44 50
ENDBRANCH 41 44
ENDBRANCH 36 40
ENDBRANCH 33 36
ENDBRANCH 1 32
TORSDOF 26
ENDMDL
MODEL 27
USER: ADFR SOLUTION from run 9
USER: SCORE 19.303660 LL:  -4.626 LR: -15.698 RR:   0.000 FEB:  -7.942
USER: RMSD 4.623319
USER: SEED 657476
USER: STATUS no improvement in best in 7 clusters for 5 generations
USER: GENES 28
USER: genes 0 Translation |==|  0.55660 0.50327 0.36728
USER: genes 1 Rotation |==|  0.18547 0.71849 0.81255 0.57516
USER: genes 2 Torsion [N]-CA--C-[N] |==|  0.33932
USER: genes 3 Torsion [C]-N--CA-[CB] |==|  0.85513
USER: genes 4 Torsion [N]-CA--CB-[CG] |==|  0.79536
USER: genes 5 Torsion [CA]-CB--CG-[CD] |==|  0.24915
USER: genes 6 Torsion [CB]-CG--CD-[OE1] |==|  0.19057
USER: genes 7 Torsion [N]-CA--C-[N] |==|  0.39431
USER: genes 8 Torsion [C]-N--CA-[CB] |==|  0.47447
USER: genes 9 Torsion [N]-CA--C-[O] |==|  0.89483
USER: genes 10 Torsion [N]-CA--CB-[CG] |==|  0.86996
USER: genes 11 Torsion [CA]-CB--CG-[CD1] |==|  0.78842
USER: genes 12 Torsion [CE1]-CZ--OH-[HH] |==|  0.20456
USER: genes 13 Torsion [C]-CA--CB-[OG] |==|  0.24217
USER: genes 14 Torsion [CA]-CB--OG-[HG] |==|  0.85642
USER: genes 15 Torsion [C]-CA--N-[C] |==|  0.75303
USER: genes 16 Torsion [N]-C--CA-[N] |==|  0.37102
USER: genes 17 Torsion [C]-CA--CB-[CG1] |==|  0.79106
USER: genes 18 Torsion [C]-CA--N-[C] |==|  0.63175
USER: genes 19 Torsion [N]-C--CA-[N] |==|  0.61234
USER: genes 20 Torsion [C]-CA--CB-[CG] |==|  0.29598
USER: genes 21 Torsion [CA]-CB--CG-[CD] |==|  0.52502
USER: genes 22 Torsion [CB]-CG--CD-[OE1] |==|  0.28246
USER: genes 23 Torsion [C]-CA--N-[C] |==|  0.16586
USER: genes 24 Torsion [N]-C--CA-[N] |==|  0.03926
USER: genes 25 Torsion [C]-CA--CB-[CG] |==|  0.42619
USER: genes 26 Torsion [CA]-CB--CG-[CD] |==|  0.13556
USER: genes 27 Torsion [CB]-CG--CD-[OE1] |==|  0.80526
ROOT
ATOM      1  CA  SER T 970      33.849  38.074 -11.959  1.00 53.81 LIG 0.20  C 
ENDROOT
BRANCH 1 2
ATOM      2  C   SER T 970      35.351  37.869 -12.113  1.00 54.98 LIG 0.24  C 
ATOM      3  N   GLU T 971      35.764  36.609 -12.104  1.00 36.24 LIG-0.35  N 
ATOM      4 H    GLU T 971      35.266  35.918 -11.985  1.00 36.24 LIG 0.16  HD
ATOM      5 O    SER T 970      36.131  38.821 -12.284  1.00 50.73 LIG-0.27  OA
BRANCH 3 6
ATOM      6  CA  GLU T 971      37.169  36.353 -12.312  1.00 34.69 LIG 0.18  C 
BRANCH 6 7
ATOM      7  CB  GLU T 971      37.685  37.045 -13.571  1.00 35.28 LIG 0.04  C 
BRANCH 7 8
ATOM      8  CG  GLU T 971      37.221  36.369 -14.859  1.00 38.63 LIG 0.12  C 
BRANCH 8 9
ATOM      9  CD  GLU T 971      35.892  36.925 -15.368  1.00 44.02 LIG 0.17  C 
ATOM     10 OE1  GLU T 971      35.851  38.096 -15.809  1.00 46.94 LIG-0.65  OA
ATOM     11 OE2  GLU T 971      34.885  36.189 -15.327  1.00 38.45 LIG-0.65  OA
ENDBRANCH 8 9
ENDBRANCH 7 8
ENDBRANCH 6 7
BRANCH 6 12
ATOM     12  C   GLU T 971      37.953  36.826 -11.112  1.00 38.38 LIG 0.24  C 
ATOM     13  N   TYR T 972      38.963  36.047 -10.780  1.00 34.07 LIG-0.34  N 
ATOM     14 H    TYR T 972      39.127  35.290 -11.152  1.00 34.07 LIG 0.16  HD
ATOM     15 O    GLU T 971      37.658  37.873 -10.515  1.00 36.91 LIG-0.27  OA
BRANCH 13 16
ATOM     16  CA  TYR T 972      39.895  36.413  -9.740  1.00 35.97 LIG 0.19  C 
BRANCH 16 17
ATOM     17  C   TYR T 972      40.719  37.626 -10.189  1.00 45.43 LIG 0.20  C 
ATOM     18 OXT  TYR T 972      40.988  38.496  -9.360  1.00 40.76 LIG-0.65  OA
ATOM     19 O    TYR T 972      41.114  37.782 -11.358  1.00 41.72 LIG-0.65  OA
ENDBRANCH 16 17
BRANCH 16 20
ATOM     20  CB  TYR T 972      40.816  35.243  -9.410  1.00 33.99 LIG 0.07  C 
BRANCH 20 21
ATOM     21  CG  TYR T 972      40.042  33.977  -9.246  1.00 33.93 LIG-0.06  A 
ATOM     22  CD1 TYR T 972      39.308  33.735  -8.093  1.00 33.64 LIG 0.01  A 
ATOM     23  CE1 TYR T 972      38.580  32.571  -7.951  1.00 37.50 LIG 0.04  A 
ATOM     24  CZ  TYR T 972      38.576  31.656  -8.972  1.00 37.64 LIG 0.07  A 
ATOM     25  CE2 TYR T 972      39.275  31.884 -10.132  1.00 36.30 LIG 0.04  A 
ATOM     26  CD2 TYR T 972      40.005  33.034 -10.266  1.00 38.70 LIG 0.01  A 
BRANCH 24 27
ATOM     27 OH   TYR T 972      37.861  30.504  -8.832  1.00 40.25 LIG-0.36  OA
ATOM     28 HH   TYR T 972      37.041  30.673  -8.903  1.00 40.25 LIG 0.22  HD
ENDBRANCH 24 27
ENDBRANCH 20 21
ENDBRANCH 16 20
ENDBRANCH 13 16
ENDBRANCH 6 12
ENDBRANCH 3 6
ENDBRANCH 1 2
BRANCH 1 29
ATOM     29  CB  SER T 970      33.314  38.663 -13.270  1.00 55.16 LIG 0.20  C 
BRANCH 29 30
ATOM     30 OG   SER T 970      32.985  37.635 -14.185  1.00 59.72 LIG-0.40  OA
ATOM     31 HG   SER T 970      33.638  37.112 -14.266  1.00 59.72 LIG 0.21  HD
ENDBRANCH 29 30
ENDBRANCH 1 29
BRANCH 1 32
ATOM     32  N   SER T 970      33.426  38.903 -10.823  1.00 52.51 LIG-0.34  N 
ATOM     33  C   VAL T 969      33.185  38.379  -9.624  1.00 50.69 LIG 0.24  C 
ATOM     34 O    VAL T 969      33.555  37.248  -9.306  1.00 50.98 LIG-0.27  OA
ATOM     35 H    SER T 970      33.350  39.740 -11.005  1.00 52.51 LIG 0.16  HD
BRANCH 33 36
ATOM     36  CA  VAL T 969      32.472  39.289  -8.607  1.00 48.28 LIG 0.18  C 
BRANCH 36 37
ATOM     37  CB  VAL T 969      33.454  39.830  -7.556  1.00 45.61 LIG 0.01  C 
ATOM     38  CG1 VAL T 969      33.830  38.758  -6.535  1.00 51.33 LIG 0.01  C 
ATOM     39  CG2 VAL T 969      34.707  40.375  -8.243  1.00 51.13 LIG 0.01  C 
ENDBRANCH 36 37
BRANCH 36 40
ATOM     40  N   VAL T 969      31.399  38.545  -7.974  1.00 42.62 LIG-0.35  N 
ATOM     41  C   GLU T 968      30.194  39.076  -7.860  1.00 39.23 LIG 0.24  C 
ATOM     42 O    GLU T 968      29.940  40.232  -8.181  1.00 41.64 LIG-0.27  OA
ATOM     43 H    VAL T 969      31.616  37.761  -7.694  1.00 42.62 LIG 0.16  HD
BRANCH 41 44
ATOM     44  CA  GLU T 968      29.087  38.170  -7.364  1.00 43.46 LIG 0.18  C 
BRANCH 44 45
ATOM     45  CB  GLU T 968      29.581  36.744  -7.538  1.00 39.65 LIG 0.04  C 
BRANCH 45 46
ATOM     46  CG  GLU T 968      29.977  35.995  -6.330  1.00 48.42 LIG 0.12  C 
BRANCH 46 47
ATOM     47  CD  GLU T 968      30.637  34.700  -6.750  1.00 46.07 LIG 0.17  C 
ATOM     48 OE1  GLU T 968      31.892  34.645  -6.704  1.00 37.62 LIG-0.65  OA
ATOM     49 OE2  GLU T 968      29.903  33.729  -7.054  1.00 42.01 LIG-0.65  OA
ENDBRANCH 46 47
ENDBRANCH 45 46
ENDBRANCH 44 45
BRANCH 44 50
ATOM     50  N   GLU T 968      27.839  38.396  -8.090  1.00 42.28 LIG-0.35  N 
ATOM     51  C   GLU T 967      27.755  38.231  -9.410  1.00 44.22 LIG 0.26  C 
ATOM     52 O    GLU T 967      28.725  38.010 -10.121  1.00 45.73 LIG-0.27  OA
ATOM     53 H    GLU T 968      27.180  38.640  -7.594  1.00 42.28 LIG 0.16  HD
BRANCH 51 54
ATOM     54  CA  GLU T 967      26.370  38.340 -10.035  1.00 63.10 LIG 0.40  C 
ATOM     55  N   GLU T 967      25.434  38.937  -9.089  1.00 61.06 LIG 0.61  N 
BRANCH 54 56
ATOM     56  CB  GLU T 967      26.443  39.170 -11.317  1.00 76.10 LIG 0.06  C 
BRANCH 56 57
ATOM     57  CG  GLU T 967      25.359  38.834 -12.318  1.00 93.75 LIG 0.12  C 
BRANCH 57 58
ATOM     58  CD  GLU T 967      23.984  38.799 -11.683  1.00103.86 LIG 0.17  C 
ATOM     59 OE1  GLU T 967      23.714  37.867 -10.897  1.00104.00 LIG-0.65  OA
ATOM     60 OE2  GLU T 967      23.176  39.711 -11.964  1.00109.28 LIG-0.65  OA
ENDBRANCH 57 58
ENDBRANCH 56 57
ENDBRANCH 54 56
ENDBRANCH 51 54
ENDBRANCH 44 50
ENDBRANCH 41 44
ENDBRANCH 36 40
ENDBRANCH 33 36
ENDBRANCH 1 32
TORSDOF 26
ENDMDL
MODEL 28
USER: ADFR SOLUTION from run 162
USER: SCORE 17.584695 LL:  -4.029 LR: -15.664 RR:   0.000 FEB:  -7.908
USER: RMSD 11.444492
USER: SEED 161
USER: STATUS no improvement in best in 17 clusters for 5 generations
USER: GENES 28
USER: genes 0 Translation |==|  0.66908 0.38233 0.34850
USER: genes 1 Rotation |==|  0.45220 0.79058 0.10649 0.59180
USER: genes 2 Torsion [N]-CA--C-[N] |==|  0.45895
USER: genes 3 Torsion [C]-N--CA-[CB] |==|  0.33952
USER: genes 4 Torsion [N]-CA--CB-[CG] |==|  0.95606
USER: genes 5 Torsion [CA]-CB--CG-[CD] |==|  0.23957
USER: genes 6 Torsion [CB]-CG--CD-[OE1] |==|  0.66487
USER: genes 7 Torsion [N]-CA--C-[N] |==|  0.29005
USER: genes 8 Torsion [C]-N--CA-[CB] |==|  0.52295
USER: genes 9 Torsion [N]-CA--C-[O] |==|  0.79346
USER: genes 10 Torsion [N]-CA--CB-[CG] |==|  0.67561
USER: genes 11 Torsion [CA]-CB--CG-[CD1] |==|  0.38989
USER: genes 12 Torsion [CE1]-CZ--OH-[HH] |==|  0.26442
USER: genes 13 Torsion [C]-CA--CB-[OG] |==|  0.36278
USER: genes 14 Torsion [CA]-CB--OG-[HG] |==|  0.81941
USER: genes 15 Torsion [C]-CA--N-[C] |==|  0.60075
USER: genes 16 Torsion [N]-C--CA-[N] |==|  0.09601
USER: genes 17 Torsion [C]-CA--CB-[CG1] |==|  0.55683
USER: genes 18 Torsion [C]-CA--N-[C] |==|  0.13768
USER: genes 19 Torsion [N]-C--CA-[N] |==|  0.11140
USER: genes 20 Torsion [C]-CA--CB-[CG] |==|  0.43331
USER: genes 21 Torsion [CA]-CB--CG-[CD] |==|  0.79303
USER: genes 22 Torsion [CB]-CG--CD-[OE1] |==|  0.11987
USER: genes 23 Torsion [C]-CA--N-[C] |==|  0.14088
USER: genes 24 Torsion [N]-C--CA-[N] |==|  0.92614
USER: genes 25 Torsion [C]-CA--CB-[CG] |==|  0.38127
USER: genes 26 Torsion [CA]-CB--CG-[CD] |==|  0.07003
USER: genes 27 Torsion [CB]-CG--CD-[OE1] |==|  0.13910
ROOT
ATOM      1  CA  SER T 970      37.055  35.716 -12.325  1.00 53.81 LIG 0.20  C 
ENDROOT
BRANCH 1 2
ATOM      2  C   SER T 970      36.493  36.971 -11.669  1.00 54.98 LIG 0.24  C 
ATOM      3  N   GLU T 971      35.239  37.271 -11.981  1.00 36.24 LIG-0.35  N 
ATOM      4 H    GLU T 971      34.744  36.843 -12.538  1.00 36.24 LIG 0.16  HD
ATOM      5 O    SER T 970      37.153  37.641 -10.858  1.00 50.73 LIG-0.27  OA
BRANCH 3 6
ATOM      6  CA  GLU T 971      34.635  38.414 -11.338  1.00 34.69 LIG 0.18  C 
BRANCH 6 7
ATOM      7  CB  GLU T 971      34.149  39.439 -12.359  1.00 35.28 LIG 0.04  C 
BRANCH 7 8
ATOM      8  CG  GLU T 971      34.737  39.223 -13.751  1.00 38.63 LIG 0.12  C 
BRANCH 8 9
ATOM      9  CD  GLU T 971      33.929  38.228 -14.583  1.00 44.02 LIG 0.17  C 
ATOM     10 OE1  GLU T 971      34.490  37.192 -15.007  1.00 46.94 LIG-0.65  OA
ATOM     11 OE2  GLU T 971      32.729  38.484 -14.814  1.00 38.45 LIG-0.65  OA
ENDBRANCH 8 9
ENDBRANCH 7 8
ENDBRANCH 6 7
BRANCH 6 12
ATOM     12  C   GLU T 971      33.479  37.960 -10.479  1.00 38.38 LIG 0.24  C 
ATOM     13  N   TYR T 972      33.733  37.953  -9.186  1.00 34.07 LIG-0.34  N 
ATOM     14 H    TYR T 972      34.507  38.112  -8.848  1.00 34.07 LIG 0.16  HD
ATOM     15 O    GLU T 971      32.388  37.639 -10.976  1.00 36.91 LIG-0.27  OA
BRANCH 13 16
ATOM     16  CA  TYR T 972      32.705  37.671  -8.212  1.00 35.97 LIG 0.19  C 
BRANCH 16 17
ATOM     17  C   TYR T 972      31.474  38.541  -8.495  1.00 45.43 LIG 0.20  C 
ATOM     18 OXT  TYR T 972      30.487  38.018  -9.012  1.00 40.76 LIG-0.65  OA
ATOM     19 O    TYR T 972      31.432  39.759  -8.241  1.00 41.72 LIG-0.65  OA
ENDBRANCH 16 17
BRANCH 16 20
ATOM     20  CB  TYR T 972      33.220  37.927  -6.800  1.00 33.99 LIG 0.07  C 
BRANCH 20 21
ATOM     21  CG  TYR T 972      33.236  36.670  -5.995  1.00 33.93 LIG-0.06  A 
ATOM     22  CD1 TYR T 972      34.281  36.394  -5.125  1.00 33.64 LIG 0.01  A 
ATOM     23  CE1 TYR T 972      34.286  35.238  -4.372  1.00 37.50 LIG 0.04  A 
ATOM     24  CZ  TYR T 972      33.233  34.366  -4.479  1.00 37.64 LIG 0.07  A 
ATOM     25  CE2 TYR T 972      32.175  34.629  -5.315  1.00 36.30 LIG 0.04  A 
ATOM     26  CD2 TYR T 972      32.179  35.770  -6.069  1.00 38.70 LIG 0.01  A 
BRANCH 24 27
ATOM     27 OH   TYR T 972      33.237  33.221  -3.738  1.00 40.25 LIG-0.36  OA
ATOM     28 HH   TYR T 972      32.803  33.345  -3.030  1.00 40.25 LIG 0.22  HD
ENDBRANCH 24 27
ENDBRANCH 20 21
ENDBRANCH 16 20
ENDBRANCH 13 16
ENDBRANCH 6 12
ENDBRANCH 3 6
ENDBRANCH 1 2
BRANCH 1 29
ATOM     29  CB  SER T 970      36.365  34.501 -11.693  1.00 55.16 LIG 0.20  C 
BRANCH 29 30
ATOM     30 OG   SER T 970      35.879  33.623 -12.692  1.00 59.72 LIG-0.40  OA
ATOM     31 HG   SER T 970      35.275  34.006 -13.132  1.00 59.72 LIG 0.21  HD
ENDBRANCH 29 30
ENDBRANCH 1 29
BRANCH 1 32
ATOM     32  N   SER T 970      38.513  35.555 -12.265  1.00 52.51 LIG-0.34  N 
ATOM     33  C   VAL T 969      39.202  35.021 -13.270  1.00 50.69 LIG 0.24  C 
ATOM     34 O    VAL T 969      38.732  34.883 -14.400  1.00 50.98 LIG-0.27  OA
ATOM     35 H    SER T 970      38.870  35.834 -11.533  1.00 52.51 LIG 0.16  HD
BRANCH 33 36
ATOM     36  CA  VAL T 969      40.664  34.639 -12.974  1.00 48.28 LIG 0.18  C 
BRANCH 36 37
ATOM     37  CB  VAL T 969      41.169  33.564 -13.949  1.00 45.61 LIG 0.01  C 
ATOM     38  CG1 VAL T 969      42.384  32.825 -13.390  1.00 51.33 LIG 0.01  C 
ATOM     39  CG2 VAL T 969      40.045  32.577 -14.268  1.00 51.13 LIG 0.01  C 
ENDBRANCH 36 37
BRANCH 36 40
ATOM     40  N   VAL T 969      40.765  34.178 -11.601  1.00 42.62 LIG-0.35  N 
ATOM     41  C   GLU T 968      39.927  33.266 -11.140  1.00 39.23 LIG 0.24  C 
ATOM     42 O    GLU T 968      38.979  32.840 -11.791  1.00 41.64 LIG-0.27  OA
ATOM     43 H    VAL T 969      41.395  34.540 -11.141  1.00 42.62 LIG 0.16  HD
BRANCH 41 44
ATOM     44  CA  GLU T 968      40.215  32.699  -9.765  1.00 43.46 LIG 0.18  C 
BRANCH 44 45
ATOM     45  CB  GLU T 968      38.929  32.051  -9.283  1.00 39.65 LIG 0.04  C 
BRANCH 45 46
ATOM     46  CG  GLU T 968      39.029  30.983  -8.269  1.00 48.42 LIG 0.12  C 
BRANCH 46 47
ATOM     47  CD  GLU T 968      39.542  29.723  -8.931  1.00 46.07 LIG 0.17  C 
ATOM     48 OE1  GLU T 968      40.492  29.840  -9.746  1.00 37.62 LIG-0.65  OA
ATOM     49 OE2  GLU T 968      39.045  28.624  -8.584  1.00 42.01 LIG-0.65  OA
ENDBRANCH 46 47
ENDBRANCH 45 46
ENDBRANCH 44 45
BRANCH 44 50
ATOM     50  N   GLU T 968      40.672  33.734  -8.841  1.00 42.28 LIG-0.35  N 
ATOM     51  C   GLU T 967      40.003  34.876  -8.679  1.00 44.22 LIG 0.26  C 
ATOM     52 O    GLU T 967      39.048  35.197  -9.372  1.00 45.73 LIG-0.27  OA
ATOM     53 H    GLU T 968      41.397  33.539  -8.421  1.00 42.28 LIG 0.16  HD
BRANCH 51 54
ATOM     54  CA  GLU T 967      40.484  35.810  -7.576  1.00 63.10 LIG 0.40  C 
ATOM     55  N   GLU T 967      41.154  35.049  -6.526  1.00 61.06 LIG 0.61  N 
BRANCH 54 56
ATOM     56  CB  GLU T 967      41.422  36.864  -8.160  1.00 76.10 LIG 0.06  C 
BRANCH 56 57
ATOM     57  CG  GLU T 967      41.176  38.259  -7.626  1.00 93.75 LIG 0.12  C 
BRANCH 57 58
ATOM     58  CD  GLU T 967      40.529  38.241  -6.256  1.00103.86 LIG 0.17  C 
ATOM     59 OE1  GLU T 967      41.038  37.526  -5.367  1.00104.00 LIG-0.65  OA
ATOM     60 OE2  GLU T 967      39.517  38.950  -6.067  1.00109.28 LIG-0.65  OA
ENDBRANCH 57 58
ENDBRANCH 56 57
ENDBRANCH 54 56
ENDBRANCH 51 54
ENDBRANCH 44 50
ENDBRANCH 41 44
ENDBRANCH 36 40
ENDBRANCH 33 36
ENDBRANCH 1 32
TORSDOF 26
ENDMDL
MODEL 29
USER: ADFR SOLUTION from run 125
USER: SCORE 19.691987 LL:  -5.552 LR: -15.633 RR:   0.000 FEB:  -7.877
USER: RMSD 5.633273
USER: SEED 124
USER: STATUS no improvement in best in 6 clusters for 5 generations
USER: GENES 28
USER: genes 0 Translation |==|  0.66776 0.39617 0.36792
USER: genes 1 Rotation |==|  0.69625 0.34402 0.37790 0.91503
USER: genes 2 Torsion [N]-CA--C-[N] |==|  0.11363
USER: genes 3 Torsion [C]-N--CA-[CB] |==|  0.48371
USER: genes 4 Torsion [N]-CA--CB-[CG] |==|  0.89671
USER: genes 5 Torsion [CA]-CB--CG-[CD] |==|  0.83620
USER: genes 6 Torsion [CB]-CG--CD-[OE1] |==|  0.25927
USER: genes 7 Torsion [N]-CA--C-[N] |==|  0.40356
USER: genes 8 Torsion [C]-N--CA-[CB] |==|  0.34024
USER: genes 9 Torsion [N]-CA--C-[O] |==|  0.03559
USER: genes 10 Torsion [N]-CA--CB-[CG] |==|  0.85688
USER: genes 11 Torsion [CA]-CB--CG-[CD1] |==|  0.82048
USER: genes 12 Torsion [CE1]-CZ--OH-[HH] |==|  0.16159
USER: genes 13 Torsion [C]-CA--CB-[OG] |==|  0.78289
USER: genes 14 Torsion [CA]-CB--OG-[HG] |==|  0.90230
USER: genes 15 Torsion [C]-CA--N-[C] |==|  0.65647
USER: genes 16 Torsion [N]-C--CA-[N] |==|  0.41202
USER: genes 17 Torsion [C]-CA--CB-[CG1] |==|  0.84728
USER: genes 18 Torsion [C]-CA--N-[C] |==|  0.67303
USER: genes 19 Torsion [N]-C--CA-[N] |==|  0.33891
USER: genes 20 Torsion [C]-CA--CB-[CG] |==|  0.70004
USER: genes 21 Torsion [CA]-CB--CG-[CD] |==|  0.33532
USER: genes 22 Torsion [CB]-CG--CD-[OE1] |==|  0.78980
USER: genes 23 Torsion [C]-CA--N-[C] |==|  0.85703
USER: genes 24 Torsion [N]-C--CA-[N] |==|  0.51895
USER: genes 25 Torsion [C]-CA--CB-[CG] |==|  0.89770
USER: genes 26 Torsion [CA]-CB--CG-[CD] |==|  0.85264
USER: genes 27 Torsion [CB]-CG--CD-[OE1] |==|  0.39565
ROOT
ATOM      1  CA  SER T 970      37.017  35.985 -11.947  1.00 53.81 LIG 0.20  C 
ENDROOT
BRANCH 1 2
ATOM      2  C   SER T 970      37.615  35.959 -13.348  1.00 54.98 LIG 0.24  C 
ATOM      3  N   GLU T 971      37.445  37.061 -14.066  1.00 36.24 LIG-0.35  N 
ATOM      4 H    GLU T 971      37.004  37.758 -13.822  1.00 36.24 LIG 0.16  HD
ATOM      5 O    SER T 970      38.261  34.985 -13.770  1.00 50.73 LIG-0.27  OA
BRANCH 3 6
ATOM      6  CA  GLU T 971      38.047  37.116 -15.377  1.00 34.69 LIG 0.18  C 
BRANCH 6 7
ATOM      7  CB  GLU T 971      37.642  38.381 -16.128  1.00 35.28 LIG 0.04  C 
BRANCH 7 8
ATOM      8  CG  GLU T 971      36.193  38.792 -15.871  1.00 38.63 LIG 0.12  C 
BRANCH 8 9
ATOM      9  CD  GLU T 971      35.195  37.706 -16.272  1.00 44.02 LIG 0.17  C 
ATOM     10 OE1  GLU T 971      34.808  36.887 -15.407  1.00 46.94 LIG-0.65  OA
ATOM     11 OE2  GLU T 971      34.798  37.672 -17.454  1.00 38.45 LIG-0.65  OA
ENDBRANCH 8 9
ENDBRANCH 7 8
ENDBRANCH 6 7
BRANCH 6 12
ATOM     12  C   GLU T 971      39.550  37.057 -15.249  1.00 38.38 LIG 0.24  C 
ATOM     13  N   TYR T 972      40.154  36.407 -16.223  1.00 34.07 LIG-0.34  N 
ATOM     14 H    TYR T 972      39.740  35.979 -16.843  1.00 34.07 LIG 0.16  HD
ATOM     15 O    GLU T 971      40.142  37.597 -14.301  1.00 36.91 LIG-0.27  OA
BRANCH 13 16
ATOM     16  CA  TYR T 972      41.594  36.363 -16.328  1.00 35.97 LIG 0.19  C 
BRANCH 16 17
ATOM     17  C   TYR T 972      42.038  37.071 -17.614  1.00 45.43 LIG 0.20  C 
ATOM     18 OXT  TYR T 972      43.206  36.944 -17.985  1.00 40.76 LIG-0.65  OA
ATOM     19 O    TYR T 972      41.278  37.785 -18.293  1.00 41.72 LIG-0.65  OA
ENDBRANCH 16 17
BRANCH 16 20
ATOM     20  CB  TYR T 972      42.088  34.920 -16.323  1.00 33.99 LIG 0.07  C 
BRANCH 20 21
ATOM     21  CG  TYR T 972      41.526  34.163 -15.165  1.00 33.93 LIG-0.06  A 
ATOM     22  CD1 TYR T 972      41.850  34.510 -13.862  1.00 33.64 LIG 0.01  A 
ATOM     23  CE1 TYR T 972      41.318  33.818 -12.793  1.00 37.50 LIG 0.04  A 
ATOM     24  CZ  TYR T 972      40.446  32.787 -13.032  1.00 37.64 LIG 0.07  A 
ATOM     25  CE2 TYR T 972      40.091  32.440 -14.313  1.00 36.30 LIG 0.04  A 
ATOM     26  CD2 TYR T 972      40.630  33.121 -15.371  1.00 38.70 LIG 0.01  A 
BRANCH 24 27
ATOM     27 OH   TYR T 972      39.921  32.100 -11.979  1.00 40.25 LIG-0.36  OA
ATOM     28 HH   TYR T 972      39.511  32.632 -11.474  1.00 40.25 LIG 0.22  HD
ENDBRANCH 24 27
ENDBRANCH 20 21
ENDBRANCH 16 20
ENDBRANCH 13 16
ENDBRANCH 6 12
ENDBRANCH 3 6
ENDBRANCH 1 2
BRANCH 1 29
ATOM     29  CB  SER T 970      36.973  34.545 -11.423  1.00 55.16 LIG 0.20  C 
BRANCH 29 30
ATOM     30 OG   SER T 970      35.883  33.839 -11.986  1.00 59.72 LIG-0.40  OA
ATOM     31 HG   SER T 970      35.232  34.361 -12.086  1.00 59.72 LIG 0.21  HD
ENDBRANCH 29 30
ENDBRANCH 1 29
BRANCH 1 32
ATOM     32  N   SER T 970      35.693  36.608 -11.823  1.00 52.51 LIG-0.34  N 
ATOM     33  C   VAL T 969      35.469  37.622 -10.991  1.00 50.69 LIG 0.24  C 
ATOM     34 O    VAL T 969      36.379  38.280 -10.485  1.00 50.98 LIG-0.27  OA
ATOM     35 H    SER T 970      35.090  36.261 -12.330  1.00 52.51 LIG 0.16  HD
BRANCH 33 36
ATOM     36  CA  VAL T 969      33.996  37.989 -10.736  1.00 48.28 LIG 0.18  C 
BRANCH 36 37
ATOM     37  CB  VAL T 969      33.492  39.019 -11.759  1.00 45.61 LIG 0.01  C 
ATOM     38  CG1 VAL T 969      34.378  40.263 -11.785  1.00 51.33 LIG 0.01  C 
ATOM     39  CG2 VAL T 969      33.421  38.385 -13.148  1.00 51.13 LIG 0.01  C 
ENDBRANCH 36 37
BRANCH 36 40
ATOM     40  N   VAL T 969      33.861  38.498  -9.383  1.00 42.62 LIG-0.35  N 
ATOM     41  C   GLU T 968      33.103  37.864  -8.504  1.00 39.23 LIG 0.24  C 
ATOM     42 O    GLU T 968      32.410  36.896  -8.795  1.00 41.64 LIG-0.27  OA
ATOM     43 H    VAL T 969      34.302  39.218  -9.220  1.00 42.62 LIG 0.16  HD
BRANCH 41 44
ATOM     44  CA  GLU T 968      33.165  38.346  -7.070  1.00 43.46 LIG 0.18  C 
BRANCH 44 45
ATOM     45  CB  GLU T 968      33.735  37.201  -6.250  1.00 39.65 LIG 0.04  C 
BRANCH 45 46
ATOM     46  CG  GLU T 968      32.823  36.471  -5.349  1.00 48.42 LIG 0.12  C 
BRANCH 46 47
ATOM     47  CD  GLU T 968      32.802  35.012  -5.749  1.00 46.07 LIG 0.17  C 
ATOM     48 OE1  GLU T 968      32.152  34.700  -6.779  1.00 37.62 LIG-0.65  OA
ATOM     49 OE2  GLU T 968      33.488  34.202  -5.079  1.00 42.01 LIG-0.65  OA
ENDBRANCH 46 47
ENDBRANCH 45 46
ENDBRANCH 44 45
BRANCH 44 50
ATOM     50  N   GLU T 968      31.850  38.750  -6.580  1.00 42.28 LIG-0.35  N 
ATOM     51  C   GLU T 967      31.082  39.608  -7.253  1.00 44.22 LIG 0.26  C 
ATOM     52 O    GLU T 967      31.464  40.211  -8.246  1.00 45.73 LIG-0.27  OA
ATOM     53 H    GLU T 968      31.623  38.391  -5.832  1.00 42.28 LIG 0.16  HD
BRANCH 51 54
ATOM     54  CA  GLU T 967      29.670  39.833  -6.729  1.00 63.10 LIG 0.40  C 
ATOM     55  N   GLU T 967      28.912  40.665  -7.659  1.00 61.06 LIG 0.61  N 
BRANCH 54 56
ATOM     56  CB  GLU T 967      28.973  38.489  -6.519  1.00 76.10 LIG 0.06  C 
BRANCH 56 57
ATOM     57  CG  GLU T 967      29.323  37.454  -7.566  1.00 93.75 LIG 0.12  C 
BRANCH 57 58
ATOM     58  CD  GLU T 967      29.100  37.967  -8.974  1.00103.86 LIG 0.17  C 
ATOM     59 OE1  GLU T 967      29.910  37.635  -9.865  1.00104.00 LIG-0.65  OA
ATOM     60 OE2  GLU T 967      28.107  38.695  -9.190  1.00109.28 LIG-0.65  OA
ENDBRANCH 57 58
ENDBRANCH 56 57
ENDBRANCH 54 56
ENDBRANCH 51 54
ENDBRANCH 44 50
ENDBRANCH 41 44
ENDBRANCH 36 40
ENDBRANCH 33 36
ENDBRANCH 1 32
TORSDOF 26
ENDMDL
MODEL 30
USER: ADFR SOLUTION from run 164
USER: SCORE 18.137815 LL:  -4.832 LR: -15.603 RR:   0.000 FEB:  -7.848
USER: RMSD 12.792491
USER: SEED 163
USER: STATUS no improvement in best in 7 clusters for 5 generations
USER: GENES 28
USER: genes 0 Translation |==|  0.63441 0.49121 0.32198
USER: genes 1 Rotation |==|  0.21699 0.12402 0.66814 0.51643
USER: genes 2 Torsion [N]-CA--C-[N] |==|  0.73093
USER: genes 3 Torsion [C]-N--CA-[CB] |==|  0.22923
USER: genes 4 Torsion [N]-CA--CB-[CG] |==|  0.00314
USER: genes 5 Torsion [CA]-CB--CG-[CD] |==|  0.36385
USER: genes 6 Torsion [CB]-CG--CD-[OE1] |==|  0.02399
USER: genes 7 Torsion [N]-CA--C-[N] |==|  0.44256
USER: genes 8 Torsion [C]-N--CA-[CB] |==|  0.50022
USER: genes 9 Torsion [N]-CA--C-[O] |==|  0.78398
USER: genes 10 Torsion [N]-CA--CB-[CG] |==|  0.89370
USER: genes 11 Torsion [CA]-CB--CG-[CD1] |==|  0.74990
USER: genes 12 Torsion [CE1]-CZ--OH-[HH] |==|  0.31352
USER: genes 13 Torsion [C]-CA--CB-[OG] |==|  0.61875
USER: genes 14 Torsion [CA]-CB--OG-[HG] |==|  0.17337
USER: genes 15 Torsion [C]-CA--N-[C] |==|  0.76513
USER: genes 16 Torsion [N]-C--CA-[N] |==|  0.43358
USER: genes 17 Torsion [C]-CA--CB-[CG1] |==|  0.80583
USER: genes 18 Torsion [C]-CA--N-[C] |==|  0.75556
USER: genes 19 Torsion [N]-C--CA-[N] |==|  0.04261
USER: genes 20 Torsion [C]-CA--CB-[CG] |==|  0.54451
USER: genes 21 Torsion [CA]-CB--CG-[CD] |==|  0.90583
USER: genes 22 Torsion [CB]-CG--CD-[OE1] |==|  0.82992
USER: genes 23 Torsion [C]-CA--N-[C] |==|  0.16686
USER: genes 24 Torsion [N]-C--CA-[N] |==|  0.78540
USER: genes 25 Torsion [C]-CA--CB-[CG] |==|  0.30839
USER: genes 26 Torsion [CA]-CB--CG-[CD] |==|  0.05349
USER: genes 27 Torsion [CB]-CG--CD-[OE1] |==|  0.14293
ROOT
ATOM      1  CA  SER T 970      36.067  37.839 -12.842  1.00 53.81 LIG 0.20  C 
ENDROOT
BRANCH 1 2
ATOM      2  C   SER T 970      35.687  38.192 -11.409  1.00 54.98 LIG 0.24  C 
ATOM      3  N   GLU T 971      34.387  38.212 -11.148  1.00 36.24 LIG-0.35  N 
ATOM      4 H    GLU T 971      33.757  38.080 -11.718  1.00 36.24 LIG 0.16  HD
ATOM      5 O    SER T 970      36.543  38.401 -10.534  1.00 50.73 LIG-0.27  OA
BRANCH 3 6
ATOM      6  CA  GLU T 971      33.972  38.477  -9.791  1.00 34.69 LIG 0.18  C 
BRANCH 6 7
ATOM      7  CB  GLU T 971      33.952  39.974  -9.493  1.00 35.28 LIG 0.04  C 
BRANCH 7 8
ATOM      8  CG  GLU T 971      34.345  40.829 -10.696  1.00 38.63 LIG 0.12  C 
BRANCH 8 9
ATOM      9  CD  GLU T 971      33.361  41.970 -10.952  1.00 44.02 LIG 0.17  C 
ATOM     10 OE1  GLU T 971      32.466  42.202 -10.108  1.00 46.94 LIG-0.65  OA
ATOM     11 OE2  GLU T 971      33.483  42.636 -12.000  1.00 38.45 LIG-0.65  OA
ENDBRANCH 8 9
ENDBRANCH 7 8
ENDBRANCH 6 7
BRANCH 6 12
ATOM     12  C   GLU T 971      32.601  37.892  -9.556  1.00 38.38 LIG 0.24  C 
ATOM     13  N   TYR T 972      32.305  37.691  -8.287  1.00 34.07 LIG-0.34  N 
ATOM     14 H    TYR T 972      32.862  37.803  -7.641  1.00 34.07 LIG 0.16  HD
ATOM     15 O    GLU T 971      31.831  37.643 -10.497  1.00 36.91 LIG-0.27  OA
BRANCH 13 16
ATOM     16  CA  TYR T 972      30.991  37.259  -7.873  1.00 35.97 LIG 0.19  C 
BRANCH 16 17
ATOM     17  C   TYR T 972      29.942  38.271  -8.348  1.00 45.43 LIG 0.20  C 
ATOM     18 OXT  TYR T 972      29.277  38.005  -9.350  1.00 40.76 LIG-0.65  OA
ATOM     19 O    TYR T 972      29.742  39.359  -7.779  1.00 41.72 LIG-0.65  OA
ENDBRANCH 16 17
BRANCH 16 20
ATOM     20  CB  TYR T 972      30.930  37.110  -6.356  1.00 33.99 LIG 0.07  C 
BRANCH 20 21
ATOM     21  CG  TYR T 972      32.203  36.543  -5.819  1.00 33.93 LIG-0.06  A 
ATOM     22  CD1 TYR T 972      32.373  35.172  -5.688  1.00 33.64 LIG 0.01  A 
ATOM     23  CE1 TYR T 972      33.556  34.650  -5.206  1.00 37.50 LIG 0.04  A 
ATOM     24  CZ  TYR T 972      34.575  35.504  -4.869  1.00 37.64 LIG 0.07  A 
ATOM     25  CE2 TYR T 972      34.439  36.863  -5.013  1.00 36.30 LIG 0.04  A 
ATOM     26  CD2 TYR T 972      33.261  37.378  -5.481  1.00 38.70 LIG 0.01  A 
BRANCH 24 27
ATOM     27 OH   TYR T 972      35.743  34.991  -4.389  1.00 40.25 LIG-0.36  OA
ATOM     28 HH   TYR T 972      36.358  35.127  -4.945  1.00 40.25 LIG 0.22  HD
ENDBRANCH 24 27
ENDBRANCH 20 21
ENDBRANCH 16 20
ENDBRANCH 13 16
ENDBRANCH 6 12
ENDBRANCH 3 6
ENDBRANCH 1 2
BRANCH 1 29
ATOM     29  CB  SER T 970      34.907  38.251 -13.756  1.00 55.16 LIG 0.20  C 
BRANCH 29 30
ATOM     30 OG   SER T 970      34.651  37.251 -14.725  1.00 59.72 LIG-0.40  OA
ATOM     31 HG   SER T 970      34.418  36.541 -14.341  1.00 59.72 LIG 0.21  HD
ENDBRANCH 29 30
ENDBRANCH 1 29
BRANCH 1 32
ATOM     32  N   SER T 970      36.426  36.436 -13.085  1.00 52.51 LIG-0.34  N 
ATOM     33  C   VAL T 969      37.658  35.980 -12.870  1.00 50.69 LIG 0.24  C 
ATOM     34 O    VAL T 969      38.491  36.601 -12.209  1.00 50.98 LIG-0.27  OA
ATOM     35 H    SER T 970      35.778  35.949 -13.373  1.00 52.51 LIG 0.16  HD
BRANCH 33 36
ATOM     36  CA  VAL T 969      37.982  34.584 -13.435  1.00 48.28 LIG 0.18  C 
BRANCH 36 37
ATOM     37  CB  VAL T 969      37.470  33.473 -12.505  1.00 45.61 LIG 0.01  C 
ATOM     38  CG1 VAL T 969      38.274  33.412 -11.208  1.00 51.33 LIG 0.01  C 
ATOM     39  CG2 VAL T 969      35.986  33.686 -12.203  1.00 51.13 LIG 0.01  C 
ENDBRANCH 36 37
BRANCH 36 40
ATOM     40  N   VAL T 969      39.416  34.473 -13.629  1.00 42.62 LIG-0.35  N 
ATOM     41  C   GLU T 968      39.968  34.861 -14.767  1.00 39.23 LIG 0.24  C 
ATOM     42 O    GLU T 968      39.313  35.235 -15.733  1.00 41.64 LIG-0.27  OA
ATOM     43 H    VAL T 969      39.849  34.144 -12.963  1.00 42.62 LIG 0.16  HD
BRANCH 41 44
ATOM     44  CA  GLU T 968      41.481  34.892 -14.821  1.00 43.46 LIG 0.18  C 
BRANCH 44 45
ATOM     45  CB  GLU T 968      41.880  34.309 -16.165  1.00 39.65 LIG 0.04  C 
BRANCH 45 46
ATOM     46  CG  GLU T 968      43.282  33.885 -16.349  1.00 48.42 LIG 0.12  C 
BRANCH 46 47
ATOM     47  CD  GLU T 968      44.182  34.810 -15.559  1.00 46.07 LIG 0.17  C 
ATOM     48 OE1  GLU T 968      44.175  36.029 -15.864  1.00 37.62 LIG-0.65  OA
ATOM     49 OE2  GLU T 968      44.832  34.329 -14.599  1.00 42.01 LIG-0.65  OA
ENDBRANCH 46 47
ENDBRANCH 45 46
ENDBRANCH 44 45
BRANCH 44 50
ATOM     50  N   GLU T 968      42.075  34.145 -13.716  1.00 42.28 LIG-0.35  N 
ATOM     51  C   GLU T 967      41.842  32.844 -13.542  1.00 44.22 LIG 0.26  C 
ATOM     52 O    GLU T 967      41.026  32.216 -14.202  1.00 45.73 LIG-0.27  OA
ATOM     53 H    GLU T 968      42.579  34.614 -13.200  1.00 42.28 LIG 0.16  HD
BRANCH 51 54
ATOM     54  CA  GLU T 967      42.638  32.136 -12.454  1.00 63.10 LIG 0.40  C 
ATOM     55  N   GLU T 967      43.998  31.870 -12.914  1.00 61.06 LIG 0.61  N 
BRANCH 54 56
ATOM     56  CB  GLU T 967      42.656  32.988 -11.186  1.00 76.10 LIG 0.06  C 
BRANCH 56 57
ATOM     57  CG  GLU T 967      41.858  32.395 -10.045  1.00 93.75 LIG 0.12  C 
BRANCH 57 58
ATOM     58  CD  GLU T 967      41.611  30.911 -10.230  1.00103.86 LIG 0.17  C 
ATOM     59 OE1  GLU T 967      42.587  30.171 -10.475  1.00104.00 LIG-0.65  OA
ATOM     60 OE2  GLU T 967      40.441  30.486 -10.121  1.00109.28 LIG-0.65  OA
ENDBRANCH 57 58
ENDBRANCH 56 57
ENDBRANCH 54 56
ENDBRANCH 51 54
ENDBRANCH 44 50
ENDBRANCH 41 44
ENDBRANCH 36 40
ENDBRANCH 33 36
ENDBRANCH 1 32
TORSDOF 26
ENDMDL
MODEL 31
USER: ADFR SOLUTION from run 153
USER: SCORE 18.239340 LL:  -4.817 LR: -15.588 RR:   0.000 FEB:  -7.833
USER: RMSD 11.389652
USER: SEED 152
USER: STATUS no improvement in best in 26 clusters for 5 generations
USER: GENES 28
USER: genes 0 Translation |==|  0.58562 0.50548 0.36568
USER: genes 1 Rotation |==|  0.74511 0.90481 0.35346 0.56762
USER: genes 2 Torsion [N]-CA--C-[N] |==|  0.19858
USER: genes 3 Torsion [C]-N--CA-[CB] |==|  0.81665
USER: genes 4 Torsion [N]-CA--CB-[CG] |==|  0.86354
USER: genes 5 Torsion [CA]-CB--CG-[CD] |==|  0.35701
USER: genes 6 Torsion [CB]-CG--CD-[OE1] |==|  0.22121
USER: genes 7 Torsion [N]-CA--C-[N] |==|  0.67346
USER: genes 8 Torsion [C]-N--CA-[CB] |==|  0.26530
USER: genes 9 Torsion [N]-CA--C-[O] |==|  0.66214
USER: genes 10 Torsion [N]-CA--CB-[CG] |==|  0.78129
USER: genes 11 Torsion [CA]-CB--CG-[CD1] |==|  0.38237
USER: genes 12 Torsion [CE1]-CZ--OH-[HH] |==|  0.04425
USER: genes 13 Torsion [C]-CA--CB-[OG] |==|  0.56561
USER: genes 14 Torsion [CA]-CB--OG-[HG] |==|  0.13468
USER: genes 15 Torsion [C]-CA--N-[C] |==|  0.76900
USER: genes 16 Torsion [N]-C--CA-[N] |==|  0.23416
USER: genes 17 Torsion [C]-CA--CB-[CG1] |==|  0.38696
USER: genes 18 Torsion [C]-CA--N-[C] |==|  0.65102
USER: genes 19 Torsion [N]-C--CA-[N] |==|  0.89853
USER: genes 20 Torsion [C]-CA--CB-[CG] |==|  0.22000
USER: genes 21 Torsion [CA]-CB--CG-[CD] |==|  0.66319
USER: genes 22 Torsion [CB]-CG--CD-[OE1] |==|  0.71732
USER: genes 23 Torsion [C]-CA--N-[C] |==|  0.85129
USER: genes 24 Torsion [N]-C--CA-[N] |==|  0.16433
USER: genes 25 Torsion [C]-CA--CB-[CG] |==|  0.68202
USER: genes 26 Torsion [CA]-CB--CG-[CD] |==|  0.21637
USER: genes 27 Torsion [CB]-CG--CD-[OE1] |==|  0.59950
ROOT
ATOM      1  CA  SER T 970      34.676  38.117 -11.990  1.00 53.81 LIG 0.20  C 
ENDROOT
BRANCH 1 2
ATOM      2  C   SER T 970      33.853  38.405 -10.740  1.00 54.98 LIG 0.24  C 
ATOM      3  N   GLU T 971      34.546  38.746  -9.662  1.00 36.24 LIG-0.35  N 
ATOM      4 H    GLU T 971      35.403  38.783  -9.606  1.00 36.24 LIG 0.16  HD
ATOM      5 O    SER T 970      32.611  38.367 -10.747  1.00 50.73 LIG-0.27  OA
BRANCH 3 6
ATOM      6  CA  GLU T 971      33.813  39.093  -8.467  1.00 34.69 LIG 0.18  C 
BRANCH 6 7
ATOM      7  CB  GLU T 971      33.005  40.374  -8.657  1.00 35.28 LIG 0.04  C 
BRANCH 7 8
ATOM      8  CG  GLU T 971      33.824  41.516  -9.254  1.00 38.63 LIG 0.12  C 
BRANCH 8 9
ATOM      9  CD  GLU T 971      33.150  42.148 -10.471  1.00 44.02 LIG 0.17  C 
ATOM     10 OE1  GLU T 971      32.225  42.974 -10.295  1.00 46.94 LIG-0.65  OA
ATOM     11 OE2  GLU T 971      33.547  41.819 -11.608  1.00 38.45 LIG-0.65  OA
ENDBRANCH 8 9
ENDBRANCH 7 8
ENDBRANCH 6 7
BRANCH 6 12
ATOM     12  C   GLU T 971      32.891  37.959  -8.090  1.00 38.38 LIG 0.24  C 
ATOM     13  N   TYR T 972      31.611  38.268  -8.112  1.00 34.07 LIG-0.34  N 
ATOM     14 H    TYR T 972      31.312  39.063  -8.248  1.00 34.07 LIG 0.16  HD
ATOM     15 O    GLU T 971      33.330  36.835  -7.801  1.00 36.91 LIG-0.27  OA
BRANCH 13 16
ATOM     16  CA  TYR T 972      30.585  37.274  -7.905  1.00 35.97 LIG 0.19  C 
BRANCH 16 17
ATOM     17  C   TYR T 972      29.387  37.570  -8.815  1.00 45.43 LIG 0.20  C 
ATOM     18 OXT  TYR T 972      29.572  37.635 -10.031  1.00 40.76 LIG-0.65  OA
ATOM     19 O    TYR T 972      28.238  37.767  -8.382  1.00 41.72 LIG-0.65  OA
ENDBRANCH 16 17
BRANCH 16 20
ATOM     20  CB  TYR T 972      30.145  37.254  -6.444  1.00 33.99 LIG 0.07  C 
BRANCH 20 21
ATOM     21  CG  TYR T 972      31.126  36.514  -5.596  1.00 33.93 LIG-0.06  A 
ATOM     22  CD1 TYR T 972      31.500  36.999  -4.351  1.00 33.64 LIG 0.01  A 
ATOM     23  CE1 TYR T 972      32.395  36.306  -3.563  1.00 37.50 LIG 0.04  A 
ATOM     24  CZ  TYR T 972      32.903  35.116  -4.016  1.00 37.64 LIG 0.07  A 
ATOM     25  CE2 TYR T 972      32.530  34.603  -5.234  1.00 36.30 LIG 0.04  A 
ATOM     26  CD2 TYR T 972      31.651  35.299  -6.019  1.00 38.70 LIG 0.01  A 
BRANCH 24 27
ATOM     27 OH   TYR T 972      33.790  34.431  -3.241  1.00 40.25 LIG-0.36  OA
ATOM     28 HH   TYR T 972      33.762  34.727  -2.455  1.00 40.25 LIG 0.22  HD
ENDBRANCH 24 27
ENDBRANCH 20 21
ENDBRANCH 16 20
ENDBRANCH 13 16
ENDBRANCH 6 12
ENDBRANCH 3 6
ENDBRANCH 1 2
BRANCH 1 29
ATOM     29  CB  SER T 970      33.728  38.130 -13.195  1.00 55.16 LIG 0.20  C 
BRANCH 29 30
ATOM     30 OG   SER T 970      34.263  37.370 -14.264  1.00 59.72 LIG-0.40  OA
ATOM     31 HG   SER T 970      34.520  36.624 -13.976  1.00 59.72 LIG 0.21  HD
ENDBRANCH 29 30
ENDBRANCH 1 29
BRANCH 1 32
ATOM     32  N   SER T 970      35.456  36.873 -11.975  1.00 52.51 LIG-0.34  N 
ATOM     33  C   VAL T 969      36.653  36.802 -11.398  1.00 50.69 LIG 0.24  C 
ATOM     34 O    VAL T 969      37.065  37.659 -10.615  1.00 50.98 LIG-0.27  OA
ATOM     35 H    SER T 970      35.072  36.210 -12.367  1.00 52.51 LIG 0.16  HD
BRANCH 33 36
ATOM     36  CA  VAL T 969      37.489  35.545 -11.701  1.00 48.28 LIG 0.18  C 
BRANCH 36 37
ATOM     37  CB  VAL T 969      38.466  35.235 -10.557  1.00 45.61 LIG 0.01  C 
ATOM     38  CG1 VAL T 969      38.540  33.735 -10.273  1.00 51.33 LIG 0.01  C 
ATOM     39  CG2 VAL T 969      39.854  35.782 -10.892  1.00 51.13 LIG 0.01  C 
ENDBRANCH 36 37
BRANCH 36 40
ATOM     40  N   VAL T 969      38.202  35.739 -12.950  1.00 42.62 LIG-0.35  N 
ATOM     41  C   GLU T 968      38.084  34.860 -13.931  1.00 39.23 LIG 0.24  C 
ATOM     42 O    GLU T 968      37.464  33.809 -13.814  1.00 41.64 LIG-0.27  OA
ATOM     43 H    VAL T 969      38.686  36.449 -12.985  1.00 42.62 LIG 0.16  HD
BRANCH 41 44
ATOM     44  CA  GLU T 968      38.703  35.229 -15.263  1.00 43.46 LIG 0.18  C 
BRANCH 44 45
ATOM     45  CB  GLU T 968      40.162  34.813 -15.195  1.00 39.65 LIG 0.04  C 
BRANCH 45 46
ATOM     46  CG  GLU T 968      40.487  33.388 -15.398  1.00 48.42 LIG 0.12  C 
BRANCH 46 47
ATOM     47  CD  GLU T 968      41.204  32.869 -14.172  1.00 46.07 LIG 0.17  C 
ATOM     48 OE1  GLU T 968      42.454  32.746 -14.236  1.00 37.62 LIG-0.65  OA
ATOM     49 OE2  GLU T 968      40.530  32.656 -13.134  1.00 42.01 LIG-0.65  OA
ENDBRANCH 46 47
ENDBRANCH 45 46
ENDBRANCH 44 45
BRANCH 44 50
ATOM     50  N   GLU T 968      38.565  36.656 -15.544  1.00 42.28 LIG-0.35  N 
ATOM     51  C   GLU T 967      37.382  37.268 -15.508  1.00 44.22 LIG 0.26  C 
ATOM     52 O    GLU T 967      36.323  36.673 -15.367  1.00 45.73 LIG-0.27  OA
ATOM     53 H    GLU T 968      39.305  37.053 -15.732  1.00 42.28 LIG 0.16  HD
BRANCH 51 54
ATOM     54  CA  GLU T 967      37.381  38.784 -15.661  1.00 63.10 LIG 0.40  C 
ATOM     55  N   GLU T 967      37.982  39.163 -16.936  1.00 61.06 LIG 0.61  N 
BRANCH 54 56
ATOM     56  CB  GLU T 967      35.951  39.315 -15.561  1.00 76.10 LIG 0.06  C 
BRANCH 56 57
ATOM     57  CG  GLU T 967      35.443  39.934 -16.845  1.00 93.75 LIG 0.12  C 
BRANCH 57 58
ATOM     58  CD  GLU T 967      35.027  38.888 -17.860  1.00103.86 LIG 0.17  C 
ATOM     59 OE1  GLU T 967      35.236  39.115 -19.070  1.00104.00 LIG-0.65  OA
ATOM     60 OE2  GLU T 967      34.498  37.835 -17.443  1.00109.28 LIG-0.65  OA
ENDBRANCH 57 58
ENDBRANCH 56 57
ENDBRANCH 54 56
ENDBRANCH 51 54
ENDBRANCH 44 50
ENDBRANCH 41 44
ENDBRANCH 36 40
ENDBRANCH 33 36
ENDBRANCH 1 32
TORSDOF 26
ENDMDL
MODEL 32
USER: ADFR SOLUTION from run 86
USER: SCORE 19.902310 LL:  -5.807 LR: -15.500 RR:   0.000 FEB:  -7.744
USER: RMSD 5.621810
USER: SEED 85
USER: STATUS no improvement in best in 10 clusters for 5 generations
USER: GENES 28
USER: genes 0 Translation |==|  0.66361 0.39013 0.38406
USER: genes 1 Rotation |==|  0.77592 0.32078 0.36877 0.85288
USER: genes 2 Torsion [N]-CA--C-[N] |==|  0.80577
USER: genes 3 Torsion [C]-N--CA-[CB] |==|  0.79884
USER: genes 4 Torsion [N]-CA--CB-[CG] |==|  0.92795
USER: genes 5 Torsion [CA]-CB--CG-[CD] |==|  0.83295
USER: genes 6 Torsion [CB]-CG--CD-[OE1] |==|  0.26063
USER: genes 7 Torsion [N]-CA--C-[N] |==|  0.13333
USER: genes 8 Torsion [C]-N--CA-[CB] |==|  0.26923
USER: genes 9 Torsion [N]-CA--C-[O] |==|  0.98526
USER: genes 10 Torsion [N]-CA--CB-[CG] |==|  0.23879
USER: genes 11 Torsion [CA]-CB--CG-[CD1] |==|  0.80113
USER: genes 12 Torsion [CE1]-CZ--OH-[HH] |==|  0.72280
USER: genes 13 Torsion [C]-CA--CB-[OG] |==|  0.78645
USER: genes 14 Torsion [CA]-CB--OG-[HG] |==|  0.97870
USER: genes 15 Torsion [C]-CA--N-[C] |==|  0.74357
USER: genes 16 Torsion [N]-C--CA-[N] |==|  0.38826
USER: genes 17 Torsion [C]-CA--CB-[CG1] |==|  0.85110
USER: genes 18 Torsion [C]-CA--N-[C] |==|  0.68037
USER: genes 19 Torsion [N]-C--CA-[N] |==|  0.35016
USER: genes 20 Torsion [C]-CA--CB-[CG] |==|  0.68167
USER: genes 21 Torsion [CA]-CB--CG-[CD] |==|  0.18781
USER: genes 22 Torsion [CB]-CG--CD-[OE1] |==|  0.17007
USER: genes 23 Torsion [C]-CA--N-[C] |==|  0.84151
USER: genes 24 Torsion [N]-C--CA-[N] |==|  0.49905
USER: genes 25 Torsion [C]-CA--CB-[CG] |==|  0.92111
USER: genes 26 Torsion [CA]-CB--CG-[CD] |==|  0.83084
USER: genes 27 Torsion [CB]-CG--CD-[OE1] |==|  0.43397
ROOT
ATOM      1  CA  SER T 970      36.899  35.868 -11.632  1.00 53.81 LIG 0.20  C 
ENDROOT
BRANCH 1 2
ATOM      2  C   SER T 970      37.789  36.280 -12.798  1.00 54.98 LIG 0.24  C 
ATOM      3  N   GLU T 971      37.407  35.849 -13.993  1.00 36.24 LIG-0.35  N 
ATOM      4 H    GLU T 971      36.734  35.337 -14.152  1.00 36.24 LIG 0.16  HD
ATOM      5 O    SER T 970      38.779  37.014 -12.643  1.00 50.73 LIG-0.27  OA
BRANCH 3 6
ATOM      6  CA  GLU T 971      38.177  36.264 -15.142  1.00 34.69 LIG 0.18  C 
BRANCH 6 7
ATOM      7  CB  GLU T 971      37.943  37.735 -15.471  1.00 35.28 LIG 0.04  C 
BRANCH 7 8
ATOM      8  CG  GLU T 971      36.585  38.247 -14.996  1.00 38.63 LIG 0.12  C 
BRANCH 8 9
ATOM      9  CD  GLU T 971      35.418  37.489 -15.627  1.00 44.02 LIG 0.17  C 
ATOM     10 OE1  GLU T 971      34.925  36.513 -15.017  1.00 46.94 LIG-0.65  OA
ATOM     11 OE2  GLU T 971      34.993  37.870 -16.737  1.00 38.45 LIG-0.65  OA
ENDBRANCH 8 9
ENDBRANCH 7 8
ENDBRANCH 6 7
BRANCH 6 12
ATOM     12  C   GLU T 971      39.645  36.026 -14.882  1.00 38.38 LIG 0.24  C 
ATOM     13  N   TYR T 972      39.926  34.830 -14.405  1.00 34.07 LIG-0.34  N 
ATOM     14 H    TYR T 972      39.331  34.252 -14.179  1.00 34.07 LIG 0.16  HD
ATOM     15 O    GLU T 971      40.496  36.897 -15.120  1.00 36.91 LIG-0.27  OA
BRANCH 13 16
ATOM     16  CA  TYR T 972      41.287  34.386 -14.220  1.00 35.97 LIG 0.19  C 
BRANCH 16 17
ATOM     17  C   TYR T 972      41.403  32.906 -14.602  1.00 45.43 LIG 0.20  C 
ATOM     18 OXT  TYR T 972      42.520  32.386 -14.619  1.00 40.76 LIG-0.65  OA
ATOM     19 O    TYR T 972      40.422  32.206 -14.913  1.00 41.72 LIG-0.65  OA
ENDBRANCH 16 17
BRANCH 16 20
ATOM     20  CB  TYR T 972      41.727  34.594 -12.774  1.00 33.99 LIG 0.07  C 
BRANCH 20 21
ATOM     21  CG  TYR T 972      41.336  33.433 -11.920  1.00 33.93 LIG-0.06  A 
ATOM     22  CD1 TYR T 972      40.009  33.212 -11.583  1.00 33.64 LIG 0.01  A 
ATOM     23  CE1 TYR T 972      39.648  32.130 -10.806  1.00 37.50 LIG 0.04  A 
ATOM     24  CZ  TYR T 972      40.619  31.260 -10.381  1.00 37.64 LIG 0.07  A 
ATOM     25  CE2 TYR T 972      41.936  31.444 -10.722  1.00 36.30 LIG 0.04  A 
ATOM     26  CD2 TYR T 972      42.292  32.524 -11.482  1.00 38.70 LIG 0.01  A 
BRANCH 24 27
ATOM     27 OH   TYR T 972      40.265  30.192  -9.611  1.00 40.25 LIG-0.36  OA
ATOM     28 HH   TYR T 972      40.425  30.363  -8.804  1.00 40.25 LIG 0.22  HD
ENDBRANCH 24 27
ENDBRANCH 20 21
ENDBRANCH 16 20
ENDBRANCH 13 16
ENDBRANCH 6 12
ENDBRANCH 3 6
ENDBRANCH 1 2
BRANCH 1 29
ATOM     29  CB  SER T 970      36.757  34.341 -11.661  1.00 55.16 LIG 0.20  C 
BRANCH 29 30
ATOM     30 OG   SER T 970      35.846  33.941 -12.668  1.00 59.72 LIG-0.40  OA
ATOM     31 HG   SER T 970      35.472  34.619 -12.994  1.00 59.72 LIG 0.21  HD
ENDBRANCH 29 30
ENDBRANCH 1 29
BRANCH 1 32
ATOM     32  N   SER T 970      35.573  36.497 -11.580  1.00 52.51 LIG-0.34  N 
ATOM     33  C   VAL T 969      35.355  37.617 -10.895  1.00 50.69 LIG 0.24  C 
ATOM     34 O    VAL T 969      36.268  38.342 -10.498  1.00 50.98 LIG-0.27  OA
ATOM     35 H    SER T 970      34.966  36.080 -12.024  1.00 52.51 LIG 0.16  HD
BRANCH 33 36
ATOM     36  CA  VAL T 969      33.883  38.011 -10.674  1.00 48.28 LIG 0.18  C 
BRANCH 36 37
ATOM     37  CB  VAL T 969      33.423  39.052 -11.707  1.00 45.61 LIG 0.01  C 
ATOM     38  CG1 VAL T 969      34.352  40.264 -11.733  1.00 51.33 LIG 0.01  C 
ATOM     39  CG2 VAL T 969      33.341  38.413 -13.093  1.00 51.13 LIG 0.01  C 
ENDBRANCH 36 37
BRANCH 36 40
ATOM     40  N   VAL T 969      33.725  38.520  -9.324  1.00 42.62 LIG-0.35  N 
ATOM     41  C   GLU T 968      32.975  37.871  -8.449  1.00 39.23 LIG 0.24  C 
ATOM     42 O    GLU T 968      32.308  36.885  -8.743  1.00 41.64 LIG-0.27  OA
ATOM     43 H    VAL T 969      34.147  39.251  -9.160  1.00 42.62 LIG 0.16  HD
BRANCH 41 44
ATOM     44  CA  GLU T 968      33.014  38.358  -7.016  1.00 43.46 LIG 0.18  C 
BRANCH 44 45
ATOM     45  CB  GLU T 968      33.699  37.271  -6.205  1.00 39.65 LIG 0.04  C 
BRANCH 45 46
ATOM     46  CG  GLU T 968      32.904  36.562  -5.184  1.00 48.42 LIG 0.12  C 
BRANCH 46 47
ATOM     47  CD  GLU T 968      31.846  35.730  -5.876  1.00 46.07 LIG 0.17  C 
ATOM     48 OE1  GLU T 968      32.236  34.827  -6.659  1.00 37.62 LIG-0.65  OA
ATOM     49 OE2  GLU T 968      30.643  35.934  -5.582  1.00 42.01 LIG-0.65  OA
ENDBRANCH 46 47
ENDBRANCH 45 46
ENDBRANCH 44 45
BRANCH 44 50
ATOM     50  N   GLU T 968      31.675  38.641  -6.506  1.00 42.28 LIG-0.35  N 
ATOM     51  C   GLU T 967      30.864  39.510  -7.110  1.00 44.22 LIG 0.26  C 
ATOM     52 O    GLU T 967      31.215  40.219  -8.042  1.00 45.73 LIG-0.27  OA
ATOM     53 H    GLU T 968      31.466  38.205  -5.795  1.00 42.28 LIG 0.16  HD
BRANCH 51 54
ATOM     54  CA  GLU T 967      29.437  39.607  -6.584  1.00 63.10 LIG 0.40  C 
ATOM     55  N   GLU T 967      28.685  40.601  -7.342  1.00 61.06 LIG 0.61  N 
BRANCH 54 56
ATOM     56  CB  GLU T 967      28.759  38.240  -6.666  1.00 76.10 LIG 0.06  C 
BRANCH 56 57
ATOM     57  CG  GLU T 967      29.294  37.363  -7.778  1.00 93.75 LIG 0.12  C 
BRANCH 57 58
ATOM     58  CD  GLU T 967      29.094  37.988  -9.145  1.00103.86 LIG 0.17  C 
ATOM     59 OE1  GLU T 967      29.847  37.635 -10.076  1.00104.00 LIG-0.65  OA
ATOM     60 OE2  GLU T 967      28.177  38.825  -9.286  1.00109.28 LIG-0.65  OA
ENDBRANCH 57 58
ENDBRANCH 56 57
ENDBRANCH 54 56
ENDBRANCH 51 54
ENDBRANCH 44 50
ENDBRANCH 41 44
ENDBRANCH 36 40
ENDBRANCH 33 36
ENDBRANCH 1 32
TORSDOF 26
ENDMDL
MODEL 33
USER: ADFR SOLUTION from run 87
USER: SCORE 17.654761 LL:  -4.533 LR: -15.500 RR:   0.000 FEB:  -7.744
USER: RMSD 4.998877
USER: SEED 86
USER: STATUS no improvement in best in 14 clusters for 5 generations
USER: GENES 28
USER: genes 0 Translation |==|  0.50009 0.51290 0.53599
USER: genes 1 Rotation |==|  0.63671 0.43764 0.56836 0.97196
USER: genes 2 Torsion [N]-CA--C-[N] |==|  0.53155
USER: genes 3 Torsion [C]-N--CA-[CB] |==|  0.26886
USER: genes 4 Torsion [N]-CA--CB-[CG] |==|  0.74994
USER: genes 5 Torsion [CA]-CB--CG-[CD] |==|  0.79455
USER: genes 6 Torsion [CB]-CG--CD-[OE1] |==|  0.50755
USER: genes 7 Torsion [N]-CA--C-[N] |==|  0.39163
USER: genes 8 Torsion [C]-N--CA-[CB] |==|  0.47150
USER: genes 9 Torsion [N]-CA--C-[O] |==|  0.92583
USER: genes 10 Torsion [N]-CA--CB-[CG] |==|  0.48931
USER: genes 11 Torsion [CA]-CB--CG-[CD1] |==|  0.68367
USER: genes 12 Torsion [CE1]-CZ--OH-[HH] |==|  0.20073
USER: genes 13 Torsion [C]-CA--CB-[OG] |==|  0.74684
USER: genes 14 Torsion [CA]-CB--OG-[HG] |==|  0.37000
USER: genes 15 Torsion [C]-CA--N-[C] |==|  0.66946
USER: genes 16 Torsion [N]-C--CA-[N] |==|  0.64035
USER: genes 17 Torsion [C]-CA--CB-[CG1] |==|  0.21002
USER: genes 18 Torsion [C]-CA--N-[C] |==|  0.16314
USER: genes 19 Torsion [N]-C--CA-[N] |==|  0.21490
USER: genes 20 Torsion [C]-CA--CB-[CG] |==|  0.51483
USER: genes 21 Torsion [CA]-CB--CG-[CD] |==|  0.87383
USER: genes 22 Torsion [CB]-CG--CD-[OE1] |==|  0.88508
USER: genes 23 Torsion [C]-CA--N-[C] |==|  0.77203
USER: genes 24 Torsion [N]-C--CA-[N] |==|  0.34677
USER: genes 25 Torsion [C]-CA--CB-[CG] |==|  0.10774
USER: genes 26 Torsion [CA]-CB--CG-[CD] |==|  0.19728
USER: genes 27 Torsion [CB]-CG--CD-[OE1] |==|  0.37271
ROOT
ATOM      1  CA  SER T 970      32.239  38.262  -8.669  1.00 53.81 LIG 0.20  C 
ENDROOT
BRANCH 1 2
ATOM      2  C   SER T 970      32.730  38.015 -10.091  1.00 54.98 LIG 0.24  C 
ATOM      3  N   GLU T 971      34.031  38.179 -10.285  1.00 36.24 LIG-0.35  N 
ATOM      4 H    GLU T 971      34.599  38.441  -9.695  1.00 36.24 LIG 0.16  HD
ATOM      5 O    SER T 970      31.966  37.639 -10.995  1.00 50.73 LIG-0.27  OA
BRANCH 3 6
ATOM      6  CA  GLU T 971      34.562  37.895 -11.598  1.00 34.69 LIG 0.18  C 
BRANCH 6 7
ATOM      7  CB  GLU T 971      34.697  39.165 -12.434  1.00 35.28 LIG 0.04  C 
BRANCH 7 8
ATOM      8  CG  GLU T 971      33.445  39.480 -13.250  1.00 38.63 LIG 0.12  C 
BRANCH 8 9
ATOM      9  CD  GLU T 971      33.279  38.552 -14.453  1.00 44.02 LIG 0.17  C 
ATOM     10 OE1  GLU T 971      32.319  38.736 -15.236  1.00 46.94 LIG-0.65  OA
ATOM     11 OE2  GLU T 971      34.110  37.635 -14.615  1.00 38.45 LIG-0.65  OA
ENDBRANCH 8 9
ENDBRANCH 7 8
ENDBRANCH 6 7
BRANCH 6 12
ATOM     12  C   GLU T 971      35.908  37.224 -11.467  1.00 38.38 LIG 0.24  C 
ATOM     13  N   TYR T 972      36.122  36.260 -12.339  1.00 34.07 LIG-0.34  N 
ATOM     14 H    TYR T 972      35.529  35.971 -12.890  1.00 34.07 LIG 0.16  HD
ATOM     15 O    GLU T 971      36.730  37.581 -10.609  1.00 36.91 LIG-0.27  OA
BRANCH 13 16
ATOM     16  CA  TYR T 972      37.402  35.600 -12.442  1.00 35.97 LIG 0.19  C 
BRANCH 16 17
ATOM     17  C   TYR T 972      38.444  36.578 -12.997  1.00 45.43 LIG 0.20  C 
ATOM     18 OXT  TYR T 972      39.627  36.417 -12.692  1.00 40.76 LIG-0.65  OA
ATOM     19 O    TYR T 972      38.149  37.540 -13.729  1.00 41.72 LIG-0.65  OA
ENDBRANCH 16 17
BRANCH 16 20
ATOM     20  CB  TYR T 972      37.300  34.371 -13.341  1.00 33.99 LIG 0.07  C 
BRANCH 20 21
ATOM     21  CG  TYR T 972      38.636  33.731 -13.531  1.00 33.93 LIG-0.06  A 
ATOM     22  CD1 TYR T 972      39.247  33.714 -14.776  1.00 33.64 LIG 0.01  A 
ATOM     23  CE1 TYR T 972      40.488  33.136 -14.946  1.00 37.50 LIG 0.04  A 
ATOM     24  CZ  TYR T 972      41.124  32.587 -13.862  1.00 37.64 LIG 0.07  A 
ATOM     25  CE2 TYR T 972      40.550  32.614 -12.614  1.00 36.30 LIG 0.04  A 
ATOM     26  CD2 TYR T 972      39.314  33.178 -12.452  1.00 38.70 LIG 0.01  A 
BRANCH 24 27
ATOM     27 OH   TYR T 972      42.349  32.012 -14.028  1.00 40.25 LIG-0.36  OA
ATOM     28 HH   TYR T 972      42.924  32.610 -14.156  1.00 40.25 LIG 0.22  HD
ENDBRANCH 24 27
ENDBRANCH 20 21
ENDBRANCH 16 20
ENDBRANCH 13 16
ENDBRANCH 6 12
ENDBRANCH 3 6
ENDBRANCH 1 2
BRANCH 1 29
ATOM     29  CB  SER T 970      33.213  37.576  -7.705  1.00 55.16 LIG 0.20  C 
BRANCH 29 30
ATOM     30 OG   SER T 970      32.796  36.252  -7.426  1.00 59.72 LIG-0.40  OA
ATOM     31 HG   SER T 970      33.452  35.731  -7.495  1.00 59.72 LIG 0.21  HD
ENDBRANCH 29 30
ENDBRANCH 1 29
BRANCH 1 32
ATOM     32  N   SER T 970      30.863  37.838  -8.382  1.00 52.51 LIG-0.34  N 
ATOM     33  C   VAL T 969      29.928  38.704  -7.997  1.00 50.69 LIG 0.24  C 
ATOM     34 O    VAL T 969      30.060  39.922  -8.119  1.00 50.98 LIG-0.27  OA
ATOM     35 H    SER T 970      30.723  36.995  -8.483  1.00 52.51 LIG 0.16  HD
BRANCH 33 36
ATOM     36  CA  VAL T 969      28.621  38.104  -7.446  1.00 48.28 LIG 0.18  C 
BRANCH 36 37
ATOM     37  CB  VAL T 969      28.594  36.576  -7.611  1.00 45.61 LIG 0.01  C 
ATOM     38  CG1 VAL T 969      29.491  35.885  -6.585  1.00 51.33 LIG 0.01  C 
ATOM     39  CG2 VAL T 969      27.159  36.062  -7.496  1.00 51.13 LIG 0.01  C 
ENDBRANCH 36 37
BRANCH 36 40
ATOM     40  N   VAL T 969      27.494  38.715  -8.127  1.00 42.62 LIG-0.35  N 
ATOM     41  C   GLU T 968      27.382  38.629  -9.442  1.00 39.23 LIG 0.24  C 
ATOM     42 O    GLU T 968      28.246  38.131 -10.155  1.00 41.64 LIG-0.27  OA
ATOM     43 H    VAL T 969      26.935  39.119  -7.614  1.00 42.62 LIG 0.16  HD
BRANCH 41 44
ATOM     44  CA  GLU T 968      26.088  39.123 -10.055  1.00 43.46 LIG 0.18  C 
BRANCH 44 45
ATOM     45  CB  GLU T 968      25.993  38.496 -11.435  1.00 39.65 LIG 0.04  C 
BRANCH 45 46
ATOM     46  CG  GLU T 968      24.876  38.906 -12.308  1.00 48.42 LIG 0.12  C 
BRANCH 46 47
ATOM     47  CD  GLU T 968      23.597  38.910 -11.500  1.00 46.07 LIG 0.17  C 
ATOM     48 OE1  GLU T 968      23.415  37.962 -10.694  1.00 37.62 LIG-0.65  OA
ATOM     49 OE2  GLU T 968      22.820  39.888 -11.621  1.00 42.01 LIG-0.65  OA
ENDBRANCH 46 47
ENDBRANCH 45 46
ENDBRANCH 44 45
BRANCH 44 50
ATOM     50  N   GLU T 968      26.048  40.581 -10.127  1.00 42.28 LIG-0.35  N 
ATOM     51  C   GLU T 967      25.702  41.327  -9.077  1.00 44.22 LIG 0.26  C 
ATOM     52 O    GLU T 967      25.274  40.856  -8.033  1.00 45.73 LIG-0.27  OA
ATOM     53 H    GLU T 968      26.265  40.905 -10.894  1.00 42.28 LIG 0.16  HD
BRANCH 51 54
ATOM     54  CA  GLU T 967      25.849  42.836  -9.221  1.00 63.10 LIG 0.40  C 
ATOM     55  N   GLU T 967      24.581  43.498  -8.932  1.00 61.06 LIG 0.61  N 
BRANCH 54 56
ATOM     56  CB  GLU T 967      26.946  43.343  -8.285  1.00 76.10 LIG 0.06  C 
BRANCH 56 57
ATOM     57  CG  GLU T 967      28.140  42.417  -8.193  1.00 93.75 LIG 0.12  C 
BRANCH 57 58
ATOM     58  CD  GLU T 967      28.963  42.417  -9.465  1.00103.86 LIG 0.17  C 
ATOM     59 OE1  GLU T 967      30.205  42.504  -9.371  1.00104.00 LIG-0.65  OA
ATOM     60 OE2  GLU T 967      28.365  42.321 -10.559  1.00109.28 LIG-0.65  OA
ENDBRANCH 57 58
ENDBRANCH 56 57
ENDBRANCH 54 56
ENDBRANCH 51 54
ENDBRANCH 44 50
ENDBRANCH 41 44
ENDBRANCH 36 40
ENDBRANCH 33 36
ENDBRANCH 1 32
TORSDOF 26
ENDMDL
MODEL 34
USER: ADFR SOLUTION from run 51
USER: SCORE 18.249681 LL:  -5.709 LR: -15.480 RR:   0.000 FEB:  -7.724
USER: RMSD 10.952942
USER: SEED 50
USER: STATUS searching
USER: GENES 28
USER: genes 0 Translation |==|  0.57269 0.50499 0.41447
USER: genes 1 Rotation |==|  0.75179 0.92678 0.49378 0.56652
USER: genes 2 Torsion [N]-CA--C-[N] |==|  0.20488
USER: genes 3 Torsion [C]-N--CA-[CB] |==|  0.42165
USER: genes 4 Torsion [N]-CA--CB-[CG] |==|  0.51041
USER: genes 5 Torsion [CA]-CB--CG-[CD] |==|  0.20514
USER: genes 6 Torsion [CB]-CG--CD-[OE1] |==|  0.55580
USER: genes 7 Torsion [N]-CA--C-[N] |==|  0.95127
USER: genes 8 Torsion [C]-N--CA-[CB] |==|  0.35907
USER: genes 9 Torsion [N]-CA--C-[O] |==|  0.34920
USER: genes 10 Torsion [N]-CA--CB-[CG] |==|  0.97243
USER: genes 11 Torsion [CA]-CB--CG-[CD1] |==|  0.27507
USER: genes 12 Torsion [CE1]-CZ--OH-[HH] |==|  0.86193
USER: genes 13 Torsion [C]-CA--CB-[OG] |==|  0.67355
USER: genes 14 Torsion [CA]-CB--OG-[HG] |==|  0.04854
USER: genes 15 Torsion [C]-CA--N-[C] |==|  0.64612
USER: genes 16 Torsion [N]-C--CA-[N] |==|  0.66966
USER: genes 17 Torsion [C]-CA--CB-[CG1] |==|  0.38802
USER: genes 18 Torsion [C]-CA--N-[C] |==|  0.55735
USER: genes 19 Torsion [N]-C--CA-[N] |==|  0.11400
USER: genes 20 Torsion [C]-CA--CB-[CG] |==|  0.54612
USER: genes 21 Torsion [CA]-CB--CG-[CD] |==|  0.33849
USER: genes 22 Torsion [CB]-CG--CD-[OE1] |==|  0.30820
USER: genes 23 Torsion [C]-CA--N-[C] |==|  0.16029
USER: genes 24 Torsion [N]-C--CA-[N] |==|  0.65317
USER: genes 25 Torsion [C]-CA--CB-[CG] |==|  0.43009
USER: genes 26 Torsion [CA]-CB--CG-[CD] |==|  0.12842
USER: genes 27 Torsion [CB]-CG--CD-[OE1] |==|  0.63765
ROOT
ATOM      1  CA  SER T 970      34.308  38.107 -11.039  1.00 53.81 LIG 0.20  C 
ENDROOT
BRANCH 1 2
ATOM      2  C   SER T 970      33.181  37.739 -10.081  1.00 54.98 LIG 0.24  C 
ATOM      3  N   GLU T 971      33.532  37.587  -8.812  1.00 36.24 LIG-0.35  N 
ATOM      4 H    GLU T 971      34.332  37.643  -8.501  1.00 36.24 LIG 0.16  HD
ATOM      5 O    SER T 970      32.003  37.635 -10.460  1.00 50.73 LIG-0.27  OA
BRANCH 3 6
ATOM      6  CA  GLU T 971      32.494  37.301  -7.850  1.00 34.69 LIG 0.18  C 
BRANCH 6 7
ATOM      7  CB  GLU T 971      33.032  36.502  -6.666  1.00 35.28 LIG 0.04  C 
BRANCH 7 8
ATOM      8  CG  GLU T 971      31.945  36.101  -5.671  1.00 38.63 LIG 0.12  C 
BRANCH 8 9
ATOM      9  CD  GLU T 971      31.055  34.975  -6.195  1.00 44.02 LIG 0.17  C 
ATOM     10 OE1  GLU T 971      29.925  34.804  -5.682  1.00 46.94 LIG-0.65  OA
ATOM     11 OE2  GLU T 971      31.486  34.259  -7.121  1.00 38.45 LIG-0.65  OA
ENDBRANCH 8 9
ENDBRANCH 7 8
ENDBRANCH 6 7
BRANCH 6 12
ATOM     12  C   GLU T 971      31.886  38.593  -7.360  1.00 38.38 LIG 0.24  C 
ATOM     13  N   TYR T 972      32.621  39.662  -7.594  1.00 34.07 LIG-0.34  N 
ATOM     14 H    TYR T 972      33.415  39.636  -7.923  1.00 34.07 LIG 0.16  HD
ATOM     15 O    GLU T 971      30.780  38.619  -6.800  1.00 36.91 LIG-0.27  OA
BRANCH 13 16
ATOM     16  CA  TYR T 972      32.137  40.993  -7.310  1.00 35.97 LIG 0.19  C 
BRANCH 16 17
ATOM     17  C   TYR T 972      31.851  41.729  -8.625  1.00 45.43 LIG 0.20  C 
ATOM     18 OXT  TYR T 972      32.753  41.821  -9.458  1.00 40.76 LIG-0.65  OA
ATOM     19 O    TYR T 972      30.753  42.255  -8.883  1.00 41.72 LIG-0.65  OA
ENDBRANCH 16 17
BRANCH 16 20
ATOM     20  CB  TYR T 972      33.157  41.768  -6.483  1.00 33.99 LIG 0.07  C 
BRANCH 20 21
ATOM     21  CG  TYR T 972      34.250  40.874  -5.997  1.00 33.93 LIG-0.06  A 
ATOM     22  CD1 TYR T 972      35.470  40.819  -6.655  1.00 33.64 LIG 0.01  A 
ATOM     23  CE1 TYR T 972      36.483  40.003  -6.196  1.00 37.50 LIG 0.04  A 
ATOM     24  CZ  TYR T 972      36.278  39.253  -5.066  1.00 37.64 LIG 0.07  A 
ATOM     25  CE2 TYR T 972      35.087  39.309  -4.384  1.00 36.30 LIG 0.04  A 
ATOM     26  CD2 TYR T 972      34.080  40.111  -4.849  1.00 38.70 LIG 0.01  A 
BRANCH 24 27
ATOM     27 OH   TYR T 972      37.276  38.443  -4.612  1.00 40.25 LIG-0.36  OA
ATOM     28 HH   TYR T 972      37.567  37.975  -5.246  1.00 40.25 LIG 0.22  HD
ENDBRANCH 24 27
ENDBRANCH 20 21
ENDBRANCH 16 20
ENDBRANCH 13 16
ENDBRANCH 6 12
ENDBRANCH 3 6
ENDBRANCH 1 2
BRANCH 1 29
ATOM     29  CB  SER T 970      33.677  38.670 -12.318  1.00 55.16 LIG 0.20  C 
BRANCH 29 30
ATOM     30 OG   SER T 970      33.992  37.857 -13.433  1.00 59.72 LIG-0.40  OA
ATOM     31 HG   SER T 970      34.255  37.105 -13.167  1.00 59.72 LIG 0.21  HD
ENDBRANCH 29 30
ENDBRANCH 1 29
BRANCH 1 32
ATOM     32  N   SER T 970      35.248  37.030 -11.372  1.00 52.51 LIG-0.34  N 
ATOM     33  C   VAL T 969      36.563  37.180 -11.238  1.00 50.69 LIG 0.24  C 
ATOM     34 O    VAL T 969      37.065  38.096 -10.584  1.00 50.98 LIG-0.27  OA
ATOM     35 H    SER T 970      34.874  36.309 -11.656  1.00 52.51 LIG 0.16  HD
BRANCH 33 36
ATOM     36  CA  VAL T 969      37.448  36.102 -11.890  1.00 48.28 LIG 0.18  C 
BRANCH 36 37
ATOM     37  CB  VAL T 969      36.602  35.080 -12.665  1.00 45.61 LIG 0.01  C 
ATOM     38  CG1 VAL T 969      37.266  34.689 -13.985  1.00 51.33 LIG 0.01  C 
ATOM     39  CG2 VAL T 969      36.360  33.840 -11.804  1.00 51.13 LIG 0.01  C 
ENDBRANCH 36 37
BRANCH 36 40
ATOM     40  N   VAL T 969      38.233  35.446 -10.861  1.00 42.62 LIG-0.35  N 
ATOM     41  C   GLU T 968      39.337  34.790 -11.178  1.00 39.23 LIG 0.24  C 
ATOM     42 O    GLU T 968      39.700  34.617 -12.336  1.00 41.64 LIG-0.27  OA
ATOM     43 H    VAL T 969      37.922  35.522 -10.062  1.00 42.62 LIG 0.16  HD
BRANCH 41 44
ATOM     44  CA  GLU T 968      40.198  34.299 -10.034  1.00 43.46 LIG 0.18  C 
BRANCH 44 45
ATOM     45  CB  GLU T 968      41.131  33.249 -10.610  1.00 39.65 LIG 0.04  C 
BRANCH 45 46
ATOM     46  CG  GLU T 968      41.818  32.340  -9.671  1.00 48.42 LIG 0.12  C 
BRANCH 46 47
ATOM     47  CD  GLU T 968      41.456  30.912 -10.018  1.00 46.07 LIG 0.17  C 
ATOM     48 OE1  GLU T 968      42.361  30.183 -10.496  1.00 37.62 LIG-0.65  OA
ATOM     49 OE2  GLU T 968      40.299  30.509  -9.746  1.00 42.01 LIG-0.65  OA
ENDBRANCH 46 47
ENDBRANCH 45 46
ENDBRANCH 44 45
BRANCH 44 50
ATOM     50  N   GLU T 968      39.390  33.757  -8.945  1.00 42.28 LIG-0.35  N 
ATOM     51  C   GLU T 967      38.537  32.750  -9.137  1.00 44.22 LIG 0.26  C 
ATOM     52 O    GLU T 967      38.274  32.297 -10.241  1.00 45.73 LIG-0.27  OA
ATOM     53 H    GLU T 968      39.514  34.141  -8.185  1.00 42.28 LIG 0.16  HD
BRANCH 51 54
ATOM     54  CA  GLU T 967      37.867  32.164  -7.901  1.00 63.10 LIG 0.40  C 
ATOM     55  N   GLU T 967      38.102  30.725  -7.833  1.00 61.06 LIG 0.61  N 
BRANCH 54 56
ATOM     56  CB  GLU T 967      38.397  32.856  -6.646  1.00 76.10 LIG 0.06  C 
BRANCH 56 57
ATOM     57  CG  GLU T 967      37.434  32.815  -5.478  1.00 93.75 LIG 0.12  C 
BRANCH 57 58
ATOM     58  CD  GLU T 967      36.844  31.434  -5.272  1.00103.86 LIG 0.17  C 
ATOM     59 OE1  GLU T 967      35.606  31.328  -5.150  1.00104.00 LIG-0.65  OA
ATOM     60 OE2  GLU T 967      37.621  30.455  -5.241  1.00109.28 LIG-0.65  OA
ENDBRANCH 57 58
ENDBRANCH 56 57
ENDBRANCH 54 56
ENDBRANCH 51 54
ENDBRANCH 44 50
ENDBRANCH 41 44
ENDBRANCH 36 40
ENDBRANCH 33 36
ENDBRANCH 1 32
TORSDOF 26
ENDMDL
MODEL 35
USER: ADFR SOLUTION from run 51
USER: SCORE 18.931201 LL:  -5.921 LR: -15.465 RR:   0.000 FEB:  -7.710
USER: RMSD 10.563581
USER: SEED 50
USER: STATUS searching
USER: GENES 28
USER: genes 0 Translation |==|  0.57495 0.51290 0.36911
USER: genes 1 Rotation |==|  0.73645 0.92536 0.39913 0.55462
USER: genes 2 Torsion [N]-CA--C-[N] |==|  0.21229
USER: genes 3 Torsion [C]-N--CA-[CB] |==|  0.39677
USER: genes 4 Torsion [N]-CA--CB-[CG] |==|  0.59953
USER: genes 5 Torsion [CA]-CB--CG-[CD] |==|  0.17737
USER: genes 6 Torsion [CB]-CG--CD-[OE1] |==|  0.35733
USER: genes 7 Torsion [N]-CA--C-[N] |==|  0.95559
USER: genes 8 Torsion [C]-N--CA-[CB] |==|  0.47206
USER: genes 9 Torsion [N]-CA--C-[O] |==|  0.17744
USER: genes 10 Torsion [N]-CA--CB-[CG] |==|  0.07608
USER: genes 11 Torsion [CA]-CB--CG-[CD1] |==|  0.72391
USER: genes 12 Torsion [CE1]-CZ--OH-[HH] |==|  0.09339
USER: genes 13 Torsion [C]-CA--CB-[OG] |==|  0.60800
USER: genes 14 Torsion [CA]-CB--OG-[HG] |==|  0.08339
USER: genes 15 Torsion [C]-CA--N-[C] |==|  0.76756
USER: genes 16 Torsion [N]-C--CA-[N] |==|  0.59853
USER: genes 17 Torsion [C]-CA--CB-[CG1] |==|  0.38604
USER: genes 18 Torsion [C]-CA--N-[C] |==|  0.56173
USER: genes 19 Torsion [N]-C--CA-[N] |==|  0.12481
USER: genes 20 Torsion [C]-CA--CB-[CG] |==|  0.58675
USER: genes 21 Torsion [CA]-CB--CG-[CD] |==|  0.33951
USER: genes 22 Torsion [CB]-CG--CD-[OE1] |==|  0.25181
USER: genes 23 Torsion [C]-CA--N-[C] |==|  0.15556
USER: genes 24 Torsion [N]-C--CA-[N] |==|  0.65087
USER: genes 25 Torsion [C]-CA--CB-[CG] |==|  0.43025
USER: genes 26 Torsion [CA]-CB--CG-[CD] |==|  0.12830
USER: genes 27 Torsion [CB]-CG--CD-[OE1] |==|  0.64511
ROOT
ATOM      1  CA  SER T 970      34.372  38.262 -11.923  1.00 53.81 LIG 0.20  C 
ENDROOT
BRANCH 1 2
ATOM      2  C   SER T 970      33.506  38.240 -10.670  1.00 54.98 LIG 0.24  C 
ATOM      3  N   GLU T 971      34.131  38.520  -9.534  1.00 36.24 LIG-0.35  N 
ATOM      4 H    GLU T 971      34.973  38.673  -9.448  1.00 36.24 LIG 0.16  HD
ATOM      5 O    SER T 970      32.284  38.023 -10.718  1.00 50.73 LIG-0.27  OA
BRANCH 3 6
ATOM      6  CA  GLU T 971      33.346  38.578  -8.324  1.00 34.69 LIG 0.18  C 
BRANCH 6 7
ATOM      7  CB  GLU T 971      34.111  38.010  -7.132  1.00 35.28 LIG 0.04  C 
BRANCH 7 8
ATOM      8  CG  GLU T 971      33.216  37.257  -6.150  1.00 38.63 LIG 0.12  C 
BRANCH 8 9
ATOM      9  CD  GLU T 971      32.579  36.014  -6.770  1.00 44.02 LIG 0.17  C 
ATOM     10 OE1  GLU T 971      32.680  34.917  -6.175  1.00 46.94 LIG-0.65  OA
ATOM     11 OE2  GLU T 971      31.976  36.134  -7.856  1.00 38.45 LIG-0.65  OA
ENDBRANCH 8 9
ENDBRANCH 7 8
ENDBRANCH 6 7
BRANCH 6 12
ATOM     12  C   GLU T 971      32.951  40.008  -8.043  1.00 38.38 LIG 0.24  C 
ATOM     13  N   TYR T 972      33.644  40.905  -8.716  1.00 34.07 LIG-0.34  N 
ATOM     14 H    TYR T 972      34.319  40.715  -9.214  1.00 34.07 LIG 0.16  HD
ATOM     15 O    GLU T 971      32.038  40.286  -7.251  1.00 36.91 LIG-0.27  OA
BRANCH 13 16
ATOM     16  CA  TYR T 972      33.316  42.310  -8.668  1.00 35.97 LIG 0.19  C 
BRANCH 16 17
ATOM     17  C   TYR T 972      31.974  42.550  -9.371  1.00 45.43 LIG 0.20  C 
ATOM     18 OXT  TYR T 972      31.954  43.261 -10.377  1.00 40.76 LIG-0.65  OA
ATOM     19 O    TYR T 972      30.899  42.075  -8.962  1.00 41.72 LIG-0.65  OA
ENDBRANCH 16 17
BRANCH 16 20
ATOM     20  CB  TYR T 972      34.413  43.140  -9.327  1.00 33.99 LIG 0.07  C 
BRANCH 20 21
ATOM     21  CG  TYR T 972      35.135  42.349 -10.368  1.00 33.93 LIG-0.06  A 
ATOM     22  CD1 TYR T 972      36.358  41.756 -10.091  1.00 33.64 LIG 0.01  A 
ATOM     23  CE1 TYR T 972      37.016  41.013 -11.050  1.00 37.50 LIG 0.04  A 
ATOM     24  CZ  TYR T 972      36.438  40.851 -12.282  1.00 37.64 LIG 0.07  A 
ATOM     25  CE2 TYR T 972      35.216  41.407 -12.572  1.00 36.30 LIG 0.04  A 
ATOM     26  CD2 TYR T 972      34.572  42.153 -11.623  1.00 38.70 LIG 0.01  A 
BRANCH 24 27
ATOM     27 OH   TYR T 972      37.087  40.120 -13.232  1.00 40.25 LIG-0.36  OA
ATOM     28 HH   TYR T 972      37.515  39.498 -12.863  1.00 40.25 LIG 0.22  HD
ENDBRANCH 24 27
ENDBRANCH 20 21
ENDBRANCH 16 20
ENDBRANCH 13 16
ENDBRANCH 6 12
ENDBRANCH 3 6
ENDBRANCH 1 2
BRANCH 1 29
ATOM     29  CB  SER T 970      33.449  38.435 -13.135  1.00 55.16 LIG 0.20  C 
BRANCH 29 30
ATOM     30 OG   SER T 970      33.892  37.644 -14.222  1.00 59.72 LIG-0.40  OA
ATOM     31 HG   SER T 970      34.279  36.958 -13.930  1.00 59.72 LIG 0.21  HD
ENDBRANCH 29 30
ENDBRANCH 1 29
BRANCH 1 32
ATOM     32  N   SER T 970      35.248  37.100 -12.119  1.00 52.51 LIG-0.34  N 
ATOM     33  C   VAL T 969      36.441  37.014 -11.534  1.00 50.69 LIG 0.24  C 
ATOM     34 O    VAL T 969      36.775  37.738 -10.596  1.00 50.98 LIG-0.27  OA
ATOM     35 H    SER T 970      34.924  36.494 -12.637  1.00 52.51 LIG 0.16  HD
BRANCH 33 36
ATOM     36  CA  VAL T 969      37.378  35.903 -12.045  1.00 48.28 LIG 0.18  C 
BRANCH 36 37
ATOM     37  CB  VAL T 969      36.588  34.781 -12.738  1.00 45.61 LIG 0.01  C 
ATOM     38  CG1 VAL T 969      37.299  34.292 -13.999  1.00 51.33 LIG 0.01  C 
ATOM     39  CG2 VAL T 969      36.366  33.621 -11.767  1.00 51.13 LIG 0.01  C 
ENDBRANCH 36 37
BRANCH 36 40
ATOM     40  N   VAL T 969      38.145  35.380 -10.929  1.00 42.62 LIG-0.35  N 
ATOM     41  C   GLU T 968      39.292  34.758 -11.141  1.00 39.23 LIG 0.24  C 
ATOM     42 O    GLU T 968      39.717  34.505 -12.263  1.00 41.64 LIG-0.27  OA
ATOM     43 H    VAL T 969      37.794  35.508 -10.155  1.00 42.62 LIG 0.16  HD
BRANCH 41 44
ATOM     44  CA  GLU T 968      40.122  34.413  -9.923  1.00 43.46 LIG 0.18  C 
BRANCH 44 45
ATOM     45  CB  GLU T 968      41.193  33.440 -10.386  1.00 39.65 LIG 0.04  C 
BRANCH 45 46
ATOM     46  CG  GLU T 968      41.672  32.426  -9.427  1.00 48.42 LIG 0.12  C 
BRANCH 46 47
ATOM     47  CD  GLU T 968      41.449  31.050 -10.015  1.00 46.07 LIG 0.17  C 
ATOM     48 OE1  GLU T 968      42.380  30.552 -10.697  1.00 37.62 LIG-0.65  OA
ATOM     49 OE2  GLU T 968      40.383  30.449  -9.736  1.00 42.01 LIG-0.65  OA
ENDBRANCH 46 47
ENDBRANCH 45 46
ENDBRANCH 44 45
BRANCH 44 50
ATOM     50  N   GLU T 968      39.304  33.839  -8.858  1.00 42.28 LIG-0.35  N 
ATOM     51  C   GLU T 967      38.547  32.760  -9.058  1.00 44.22 LIG 0.26  C 
ATOM     52 O    GLU T 967      38.379  32.254 -10.157  1.00 45.73 LIG-0.27  OA
ATOM     53 H    GLU T 968      39.356  34.255  -8.107  1.00 42.28 LIG 0.16  HD
BRANCH 51 54
ATOM     54  CA  GLU T 967      37.861  32.159  -7.837  1.00 63.10 LIG 0.40  C 
ATOM     55  N   GLU T 967      38.191  30.742  -7.719  1.00 61.06 LIG 0.61  N 
BRANCH 54 56
ATOM     56  CB  GLU T 967      38.282  32.917  -6.579  1.00 76.10 LIG 0.06  C 
BRANCH 56 57
ATOM     57  CG  GLU T 967      37.271  32.836  -5.455  1.00 93.75 LIG 0.12  C 
BRANCH 57 58
ATOM     58  CD  GLU T 967      36.770  31.422  -5.238  1.00103.86 LIG 0.17  C 
ATOM     59 OE1  GLU T 967      35.537  31.224  -5.220  1.00104.00 LIG-0.65  OA
ATOM     60 OE2  GLU T 967      37.612  30.509  -5.095  1.00109.28 LIG-0.65  OA
ENDBRANCH 57 58
ENDBRANCH 56 57
ENDBRANCH 54 56
ENDBRANCH 51 54
ENDBRANCH 44 50
ENDBRANCH 41 44
ENDBRANCH 36 40
ENDBRANCH 33 36
ENDBRANCH 1 32
TORSDOF 26
ENDMDL
MODEL 36
USER: ADFR SOLUTION from run 192
USER: SCORE 19.345057 LL:  -6.164 LR: -15.427 RR:   0.000 FEB:  -7.671
USER: RMSD 7.743088
USER: SEED 191
USER: STATUS no improvement in best in 11 clusters for 5 generations
USER: GENES 28
USER: genes 0 Translation |==|  0.66620 0.34665 0.41341
USER: genes 1 Rotation |==|  0.77801 0.18495 0.41855 0.75849
USER: genes 2 Torsion [N]-CA--C-[N] |==|  0.50509
USER: genes 3 Torsion [C]-N--CA-[CB] |==|  0.45023
USER: genes 4 Torsion [N]-CA--CB-[CG] |==|  0.22850
USER: genes 5 Torsion [CA]-CB--CG-[CD] |==|  0.77525
USER: genes 6 Torsion [CB]-CG--CD-[OE1] |==|  0.50351
USER: genes 7 Torsion [N]-CA--C-[N] |==|  0.35563
USER: genes 8 Torsion [C]-N--CA-[CB] |==|  0.31962
USER: genes 9 Torsion [N]-CA--C-[O] |==|  0.62025
USER: genes 10 Torsion [N]-CA--CB-[CG] |==|  0.89638
USER: genes 11 Torsion [CA]-CB--CG-[CD1] |==|  0.35452
USER: genes 12 Torsion [CE1]-CZ--OH-[HH] |==|  0.56271
USER: genes 13 Torsion [C]-CA--CB-[OG] |==|  0.69064
USER: genes 14 Torsion [CA]-CB--OG-[HG] |==|  0.85460
USER: genes 15 Torsion [C]-CA--N-[C] |==|  0.76736
USER: genes 16 Torsion [N]-C--CA-[N] |==|  0.41307
USER: genes 17 Torsion [C]-CA--CB-[CG1] |==|  0.41793
USER: genes 18 Torsion [C]-CA--N-[C] |==|  0.82222
USER: genes 19 Torsion [N]-C--CA-[N] |==|  0.58746
USER: genes 20 Torsion [C]-CA--CB-[CG] |==|  0.41172
USER: genes 21 Torsion [CA]-CB--CG-[CD] |==|  0.84848
USER: genes 22 Torsion [CB]-CG--CD-[OE1] |==|  0.22223
USER: genes 23 Torsion [C]-CA--N-[C] |==|  0.68064
USER: genes 24 Torsion [N]-C--CA-[N] |==|  0.56544
USER: genes 25 Torsion [C]-CA--CB-[CG] |==|  0.70190
USER: genes 26 Torsion [CA]-CB--CG-[CD] |==|  0.19156
USER: genes 27 Torsion [CB]-CG--CD-[OE1] |==|  0.03151
ROOT
ATOM      1  CA  SER T 970      36.973  35.020 -11.059  1.00 53.81 LIG 0.20  C 
ENDROOT
BRANCH 1 2
ATOM      2  C   SER T 970      38.447  35.112 -11.433  1.00 54.98 LIG 0.24  C 
ATOM      3  N   GLU T 971      39.248  34.243 -10.831  1.00 36.24 LIG-0.35  N 
ATOM      4 H    GLU T 971      39.011  33.670 -10.235  1.00 36.24 LIG 0.16  HD
ATOM      5 O    SER T 970      38.862  35.917 -12.282  1.00 50.73 LIG-0.27  OA
BRANCH 3 6
ATOM      6  CA  GLU T 971      40.645  34.242 -11.195  1.00 34.69 LIG 0.18  C 
BRANCH 6 7
ATOM      7  CB  GLU T 971      41.497  33.532 -10.147  1.00 35.28 LIG 0.04  C 
BRANCH 7 8
ATOM      8  CG  GLU T 971      41.500  32.013 -10.306  1.00 38.63 LIG 0.12  C 
BRANCH 8 9
ATOM      9  CD  GLU T 971      40.258  31.357  -9.704  1.00 44.02 LIG 0.17  C 
ATOM     10 OE1  GLU T 971      40.148  30.110  -9.746  1.00 46.94 LIG-0.65  OA
ATOM     11 OE2  GLU T 971      39.390  32.090  -9.188  1.00 38.45 LIG-0.65  OA
ENDBRANCH 8 9
ENDBRANCH 7 8
ENDBRANCH 6 7
BRANCH 6 12
ATOM     12  C   GLU T 971      40.819  33.569 -12.536  1.00 38.38 LIG 0.24  C 
ATOM     13  N   TYR T 972      41.498  34.277 -13.415  1.00 34.07 LIG-0.34  N 
ATOM     14 H    TYR T 972      41.758  35.086 -13.282  1.00 34.07 LIG 0.16  HD
ATOM     15 O    GLU T 971      40.361  32.438 -12.759  1.00 36.91 LIG-0.27  OA
BRANCH 13 16
ATOM     16  CA  TYR T 972      41.869  33.737 -14.702  1.00 35.97 LIG 0.19  C 
BRANCH 16 17
ATOM     17  C   TYR T 972      43.391  33.818 -14.875  1.00 45.43 LIG 0.20  C 
ATOM     18 OXT  TYR T 972      44.110  33.521 -13.921  1.00 40.76 LIG-0.65  OA
ATOM     19 O    TYR T 972      43.935  34.187 -15.932  1.00 41.72 LIG-0.65  OA
ENDBRANCH 16 17
BRANCH 16 20
ATOM     20  CB  TYR T 972      41.170  34.497 -15.824  1.00 33.99 LIG 0.07  C 
BRANCH 20 21
ATOM     21  CG  TYR T 972      39.779  34.877 -15.433  1.00 33.93 LIG-0.06  A 
ATOM     22  CD1 TYR T 972      39.342  36.189 -15.542  1.00 33.64 LIG 0.01  A 
ATOM     23  CE1 TYR T 972      38.052  36.534 -15.194  1.00 37.50 LIG 0.04  A 
ATOM     24  CZ  TYR T 972      37.195  35.559 -14.752  1.00 37.64 LIG 0.07  A 
ATOM     25  CE2 TYR T 972      37.598  34.249 -14.658  1.00 36.30 LIG 0.04  A 
ATOM     26  CD2 TYR T 972      38.881  33.912 -14.993  1.00 38.70 LIG 0.01  A 
BRANCH 24 27
ATOM     27 OH   TYR T 972      35.921  35.898 -14.404  1.00 40.25 LIG-0.36  OA
ATOM     28 HH   TYR T 972      35.610  35.320 -13.881  1.00 40.25 LIG 0.22  HD
ENDBRANCH 24 27
ENDBRANCH 20 21
ENDBRANCH 16 20
ENDBRANCH 13 16
ENDBRANCH 6 12
ENDBRANCH 3 6
ENDBRANCH 1 2
BRANCH 1 29
ATOM     29  CB  SER T 970      36.514  33.575 -11.291  1.00 55.16 LIG 0.20  C 
BRANCH 29 30
ATOM     30 OG   SER T 970      35.609  33.503 -12.377  1.00 59.72 LIG-0.40  OA
ATOM     31 HG   SER T 970      34.988  34.056 -12.261  1.00 59.72 LIG 0.21  HD
ENDBRANCH 29 30
ENDBRANCH 1 29
BRANCH 1 32
ATOM     32  N   SER T 970      36.074  35.951 -11.753  1.00 52.51 LIG-0.34  N 
ATOM     33  C   VAL T 969      35.899  37.202 -11.333  1.00 50.69 LIG 0.24  C 
ATOM     34 O    VAL T 969      36.659  37.745 -10.530  1.00 50.98 LIG-0.27  OA
ATOM     35 H    SER T 970      35.681  35.617 -12.442  1.00 52.51 LIG 0.16  HD
BRANCH 33 36
ATOM     36  CA  VAL T 969      34.725  37.978 -11.956  1.00 48.28 LIG 0.18  C 
BRANCH 36 37
ATOM     37  CB  VAL T 969      35.155  38.705 -13.240  1.00 45.61 LIG 0.01  C 
ATOM     38  CG1 VAL T 969      33.992  38.847 -14.221  1.00 51.33 LIG 0.01  C 
ATOM     39  CG2 VAL T 969      35.733  40.078 -12.895  1.00 51.13 LIG 0.01  C 
ENDBRANCH 36 37
BRANCH 36 40
ATOM     40  N   VAL T 969      34.207  38.919 -10.981  1.00 42.62 LIG-0.35  N 
ATOM     41  C   GLU T 968      33.657  38.484  -9.859  1.00 39.23 LIG 0.24  C 
ATOM     42 O    GLU T 968      33.466  37.296  -9.627  1.00 41.64 LIG-0.27  OA
ATOM     43 H    VAL T 969      34.289  39.748 -11.195  1.00 42.62 LIG 0.16  HD
BRANCH 41 44
ATOM     44  CA  GLU T 968      33.316  39.523  -8.812  1.00 43.46 LIG 0.18  C 
BRANCH 44 45
ATOM     45  CB  GLU T 968      34.267  40.688  -9.029  1.00 39.65 LIG 0.04  C 
BRANCH 45 46
ATOM     46  CG  GLU T 968      33.783  42.046  -8.713  1.00 48.42 LIG 0.12  C 
BRANCH 46 47
ATOM     47  CD  GLU T 968      32.498  42.298  -9.471  1.00 46.07 LIG 0.17  C 
ATOM     48 OE1  GLU T 968      31.438  41.817  -8.996  1.00 37.62 LIG-0.65  OA
ATOM     49 OE2  GLU T 968      32.542  43.030 -10.490  1.00 42.01 LIG-0.65  OA
ENDBRANCH 46 47
ENDBRANCH 45 46
ENDBRANCH 44 45
BRANCH 44 50
ATOM     50  N   GLU T 968      33.432  38.984  -7.460  1.00 42.28 LIG-0.35  N 
ATOM     51  C   GLU T 967      32.372  38.857  -6.661  1.00 44.22 LIG 0.26  C 
ATOM     52 O    GLU T 967      31.265  39.294  -6.942  1.00 45.73 LIG-0.27  OA
ATOM     53 H    GLU T 968      34.232  38.761  -7.234  1.00 42.28 LIG 0.16  HD
BRANCH 51 54
ATOM     54  CA  GLU T 967      32.585  38.137  -5.336  1.00 63.10 LIG 0.40  C 
ATOM     55  N   GLU T 967      31.323  37.591  -4.848  1.00 61.06 LIG 0.61  N 
BRANCH 54 56
ATOM     56  CB  GLU T 967      33.622  37.028  -5.508  1.00 76.10 LIG 0.06  C 
BRANCH 56 57
ATOM     57  CG  GLU T 967      33.029  35.635  -5.486  1.00 93.75 LIG 0.12  C 
BRANCH 57 58
ATOM     58  CD  GLU T 967      32.182  35.354  -6.711  1.00103.86 LIG 0.17  C 
ATOM     59 OE1  GLU T 967      32.233  36.156  -7.667  1.00104.00 LIG-0.65  OA
ATOM     60 OE2  GLU T 967      31.473  34.325  -6.719  1.00109.28 LIG-0.65  OA
ENDBRANCH 57 58
ENDBRANCH 56 57
ENDBRANCH 54 56
ENDBRANCH 51 54
ENDBRANCH 44 50
ENDBRANCH 41 44
ENDBRANCH 36 40
ENDBRANCH 33 36
ENDBRANCH 1 32
TORSDOF 26
ENDMDL
MODEL 37
USER: ADFR SOLUTION from run 74
USER: SCORE 18.652534 LL:  -4.910 LR: -15.418 RR:   0.000 FEB:  -7.663
USER: RMSD 8.115552
USER: SEED 73
USER: STATUS no improvement in best in 13 clusters for 5 generations
USER: GENES 28
USER: genes 0 Translation |==|  0.67191 0.40438 0.36801
USER: genes 1 Rotation |==|  0.81539 0.34630 0.36005 0.82760
USER: genes 2 Torsion [N]-CA--C-[N] |==|  0.86261
USER: genes 3 Torsion [C]-N--CA-[CB] |==|  0.24767
USER: genes 4 Torsion [N]-CA--CB-[CG] |==|  0.76719
USER: genes 5 Torsion [CA]-CB--CG-[CD] |==|  0.64358
USER: genes 6 Torsion [CB]-CG--CD-[OE1] |==|  0.07224
USER: genes 7 Torsion [N]-CA--C-[N] |==|  0.95243
USER: genes 8 Torsion [C]-N--CA-[CB] |==|  0.87321
USER: genes 9 Torsion [N]-CA--C-[O] |==|  0.70343
USER: genes 10 Torsion [N]-CA--CB-[CG] |==|  0.63180
USER: genes 11 Torsion [CA]-CB--CG-[CD1] |==|  0.94380
USER: genes 12 Torsion [CE1]-CZ--OH-[HH] |==|  0.38746
USER: genes 13 Torsion [C]-CA--CB-[OG] |==|  0.63231
USER: genes 14 Torsion [CA]-CB--OG-[HG] |==|  0.13442
USER: genes 15 Torsion [C]-CA--N-[C] |==|  0.76029
USER: genes 16 Torsion [N]-C--CA-[N] |==|  0.40853
USER: genes 17 Torsion [C]-CA--CB-[CG1] |==|  0.88012
USER: genes 18 Torsion [C]-CA--N-[C] |==|  0.65698
USER: genes 19 Torsion [N]-C--CA-[N] |==|  0.14456
USER: genes 20 Torsion [C]-CA--CB-[CG] |==|  0.30034
USER: genes 21 Torsion [CA]-CB--CG-[CD] |==|  0.68674
USER: genes 22 Torsion [CB]-CG--CD-[OE1] |==|  0.60677
USER: genes 23 Torsion [C]-CA--N-[C] |==|  0.71877
USER: genes 24 Torsion [N]-C--CA-[N] |==|  0.34897
USER: genes 25 Torsion [C]-CA--CB-[CG] |==|  0.17554
USER: genes 26 Torsion [CA]-CB--CG-[CD] |==|  0.15385
USER: genes 27 Torsion [CB]-CG--CD-[OE1] |==|  0.29950
ROOT
ATOM      1  CA  SER T 970      37.135  36.145 -11.945  1.00 53.81 LIG 0.20  C 
ENDROOT
BRANCH 1 2
ATOM      2  C   SER T 970      37.975  36.843 -13.008  1.00 54.98 LIG 0.24  C 
ATOM      3  N   GLU T 971      37.391  37.006 -14.187  1.00 36.24 LIG-0.35  N 
ATOM      4 H    GLU T 971      36.608  36.723 -14.404  1.00 36.24 LIG 0.16  HD
ATOM      5 O    SER T 970      39.115  37.274 -12.767  1.00 50.73 LIG-0.27  OA
BRANCH 3 6
ATOM      6  CA  GLU T 971      38.117  37.719 -15.211  1.00 34.69 LIG 0.18  C 
BRANCH 6 7
ATOM      7  CB  GLU T 971      38.981  36.777 -16.045  1.00 35.28 LIG 0.04  C 
BRANCH 7 8
ATOM      8  CG  GLU T 971      40.335  36.480 -15.403  1.00 38.63 LIG 0.12  C 
BRANCH 8 9
ATOM      9  CD  GLU T 971      41.502  36.721 -16.359  1.00 44.02 LIG 0.17  C 
ATOM     10 OE1  GLU T 971      41.365  37.543 -17.294  1.00 46.94 LIG-0.65  OA
ATOM     11 OE2  GLU T 971      42.561  36.086 -16.176  1.00 38.45 LIG-0.65  OA
ENDBRANCH 8 9
ENDBRANCH 7 8
ENDBRANCH 6 7
BRANCH 6 12
ATOM     12  C   GLU T 971      37.145  38.448 -16.108  1.00 38.38 LIG 0.24  C 
ATOM     13  N   TYR T 972      35.900  38.023 -16.019  1.00 34.07 LIG-0.34  N 
ATOM     14 H    TYR T 972      35.659  37.339 -15.558  1.00 34.07 LIG 0.16  HD
ATOM     15 O    GLU T 971      37.512  39.375 -16.845  1.00 36.91 LIG-0.27  OA
BRANCH 13 16
ATOM     16  CA  TYR T 972      34.820  38.689 -16.707  1.00 35.97 LIG 0.19  C 
BRANCH 16 17
ATOM     17  C   TYR T 972      34.861  38.334 -18.198  1.00 45.43 LIG 0.20  C 
ATOM     18 OXT  TYR T 972      34.531  37.198 -18.544  1.00 40.76 LIG-0.65  OA
ATOM     19 O    TYR T 972      35.230  39.134 -19.077  1.00 41.72 LIG-0.65  OA
ENDBRANCH 16 17
BRANCH 16 20
ATOM     20  CB  TYR T 972      34.917  40.200 -16.522  1.00 33.99 LIG 0.07  C 
BRANCH 20 21
ATOM     21  CG  TYR T 972      33.598  40.781 -16.134  1.00 33.93 LIG-0.06  A 
ATOM     22  CD1 TYR T 972      32.417  40.095 -16.380  1.00 33.64 LIG 0.01  A 
ATOM     23  CE1 TYR T 972      31.200  40.627 -16.006  1.00 37.50 LIG 0.04  A 
ATOM     24  CZ  TYR T 972      31.169  41.842 -15.372  1.00 37.64 LIG 0.07  A 
ATOM     25  CE2 TYR T 972      32.325  42.530 -15.096  1.00 36.30 LIG 0.04  A 
ATOM     26  CD2 TYR T 972      33.530  42.004 -15.478  1.00 38.70 LIG 0.01  A 
BRANCH 24 27
ATOM     27 OH   TYR T 972      29.967  42.372 -15.005  1.00 40.25 LIG-0.36  OA
ATOM     28 HH   TYR T 972      30.036  42.724 -14.246  1.00 40.25 LIG 0.22  HD
ENDBRANCH 24 27
ENDBRANCH 20 21
ENDBRANCH 16 20
ENDBRANCH 13 16
ENDBRANCH 6 12
ENDBRANCH 3 6
ENDBRANCH 1 2
BRANCH 1 29
ATOM     29  CB  SER T 970      37.085  34.651 -12.286  1.00 55.16 LIG 0.20  C 
BRANCH 29 30
ATOM     30 OG   SER T 970      35.757  34.165 -12.216  1.00 59.72 LIG-0.40  OA
ATOM     31 HG   SER T 970      35.246  34.681 -12.638  1.00 59.72 LIG 0.21  HD
ENDBRANCH 29 30
ENDBRANCH 1 29
BRANCH 1 32
ATOM     32  N   SER T 970      35.776  36.666 -11.755  1.00 52.51 LIG-0.34  N 
ATOM     33  C   VAL T 969      35.523  37.686 -10.938  1.00 50.69 LIG 0.24  C 
ATOM     34 O    VAL T 969      36.406  38.430 -10.510  1.00 50.98 LIG-0.27  OA
ATOM     35 H    SER T 970      35.173  36.257 -12.212  1.00 52.51 LIG 0.16  HD
BRANCH 33 36
ATOM     36  CA  VAL T 969      34.043  37.945 -10.600  1.00 48.28 LIG 0.18  C 
BRANCH 36 37
ATOM     37  CB  VAL T 969      33.405  38.922 -11.599  1.00 45.61 LIG 0.01  C 
ATOM     38  CG1 VAL T 969      34.333  40.097 -11.906  1.00 51.33 LIG 0.01  C 
ATOM     39  CG2 VAL T 969      33.033  38.186 -12.887  1.00 51.13 LIG 0.01  C 
ENDBRANCH 36 37
BRANCH 36 40
ATOM     40  N   VAL T 969      33.948  38.458  -9.246  1.00 42.62 LIG-0.35  N 
ATOM     41  C   GLU T 968      33.199  37.840  -8.348  1.00 39.23 LIG 0.24  C 
ATOM     42 O    GLU T 968      32.481  36.884  -8.622  1.00 41.64 LIG-0.27  OA
ATOM     43 H    VAL T 969      34.406  39.169  -9.094  1.00 42.62 LIG 0.16  HD
BRANCH 41 44
ATOM     44  CA  GLU T 968      33.302  38.322  -6.917  1.00 43.46 LIG 0.18  C 
BRANCH 44 45
ATOM     45  CB  GLU T 968      32.250  37.565  -6.126  1.00 39.65 LIG 0.04  C 
BRANCH 45 46
ATOM     46  CG  GLU T 968      32.705  36.522  -5.186  1.00 48.42 LIG 0.12  C 
BRANCH 46 47
ATOM     47  CD  GLU T 968      32.253  35.171  -5.697  1.00 46.07 LIG 0.17  C 
ATOM     48 OE1  GLU T 968      31.862  34.329  -4.849  1.00 37.62 LIG-0.65  OA
ATOM     49 OE2  GLU T 968      32.224  34.984  -6.938  1.00 42.01 LIG-0.65  OA
ENDBRANCH 46 47
ENDBRANCH 45 46
ENDBRANCH 44 45
BRANCH 44 50
ATOM     50  N   GLU T 968      33.109  39.766  -6.819  1.00 42.28 LIG-0.35  N 
ATOM     51  C   GLU T 967      34.137  40.605  -6.685  1.00 44.22 LIG 0.26  C 
ATOM     52 O    GLU T 967      35.287  40.231  -6.505  1.00 45.73 LIG-0.27  OA
ATOM     53 H    GLU T 968      32.287  40.018  -6.856  1.00 42.28 LIG 0.16  HD
BRANCH 51 54
ATOM     54  CA  GLU T 967      33.829  42.095  -6.753  1.00 63.10 LIG 0.40  C 
ATOM     55  N   GLU T 967      34.341  42.772  -5.565  1.00 61.06 LIG 0.61  N 
BRANCH 54 56
ATOM     56  CB  GLU T 967      34.439  42.694  -8.019  1.00 76.10 LIG 0.06  C 
BRANCH 56 57
ATOM     57  CG  GLU T 967      33.862  42.126  -9.298  1.00 93.75 LIG 0.12  C 
BRANCH 57 58
ATOM     58  CD  GLU T 967      32.354  42.263  -9.355  1.00103.86 LIG 0.17  C 
ATOM     59 OE1  GLU T 967      31.860  43.100 -10.139  1.00104.00 LIG-0.65  OA
ATOM     60 OE2  GLU T 967      31.662  41.524  -8.621  1.00109.28 LIG-0.65  OA
ENDBRANCH 57 58
ENDBRANCH 56 57
ENDBRANCH 54 56
ENDBRANCH 51 54
ENDBRANCH 44 50
ENDBRANCH 41 44
ENDBRANCH 36 40
ENDBRANCH 33 36
ENDBRANCH 1 32
TORSDOF 26
ENDMDL
MODEL 38
USER: ADFR SOLUTION from run 127
USER: SCORE 20.119687 LL:  -5.417 LR: -15.413 RR:   0.000 FEB:  -7.657
USER: RMSD 6.932096
USER: SEED 126
USER: STATUS no improvement in best in 5 clusters for 5 generations
USER: GENES 28
USER: genes 0 Translation |==|  0.66183 0.40929 0.38408
USER: genes 1 Rotation |==|  0.75702 0.31160 0.39226 0.86991
USER: genes 2 Torsion [N]-CA--C-[N] |==|  0.78868
USER: genes 3 Torsion [C]-N--CA-[CB] |==|  0.84623
USER: genes 4 Torsion [N]-CA--CB-[CG] |==|  0.90696
USER: genes 5 Torsion [CA]-CB--CG-[CD] |==|  0.85729
USER: genes 6 Torsion [CB]-CG--CD-[OE1] |==|  0.24352
USER: genes 7 Torsion [N]-CA--C-[N] |==|  0.35025
USER: genes 8 Torsion [C]-N--CA-[CB] |==|  0.27512
USER: genes 9 Torsion [N]-CA--C-[O] |==|  0.63624
USER: genes 10 Torsion [N]-CA--CB-[CG] |==|  0.84831
USER: genes 11 Torsion [CA]-CB--CG-[CD1] |==|  0.24152
USER: genes 12 Torsion [CE1]-CZ--OH-[HH] |==|  0.66720
USER: genes 13 Torsion [C]-CA--CB-[OG] |==|  0.79906
USER: genes 14 Torsion [CA]-CB--OG-[HG] |==|  0.97186
USER: genes 15 Torsion [C]-CA--N-[C] |==|  0.68291
USER: genes 16 Torsion [N]-C--CA-[N] |==|  0.45034
USER: genes 17 Torsion [C]-CA--CB-[CG1] |==|  0.86248
USER: genes 18 Torsion [C]-CA--N-[C] |==|  0.77088
USER: genes 19 Torsion [N]-C--CA-[N] |==|  0.94005
USER: genes 20 Torsion [C]-CA--CB-[CG] |==|  0.08869
USER: genes 21 Torsion [CA]-CB--CG-[CD] |==|  0.71611
USER: genes 22 Torsion [CB]-CG--CD-[OE1] |==|  0.81823
USER: genes 23 Torsion [C]-CA--N-[C] |==|  0.80752
USER: genes 24 Torsion [N]-C--CA-[N] |==|  0.66753
USER: genes 25 Torsion [C]-CA--CB-[CG] |==|  0.70484
USER: genes 26 Torsion [CA]-CB--CG-[CD] |==|  0.32705
USER: genes 27 Torsion [CB]-CG--CD-[OE1] |==|  0.42026
ROOT
ATOM      1  CA  SER T 970      36.848  36.241 -11.631  1.00 53.81 LIG 0.20  C 
ENDROOT
BRANCH 1 2
ATOM      2  C   SER T 970      37.764  36.529 -12.815  1.00 54.98 LIG 0.24  C 
ATOM      3  N   GLU T 971      37.518  35.832 -13.915  1.00 36.24 LIG-0.35  N 
ATOM      4 H    GLU T 971      36.920  35.219 -14.000  1.00 36.24 LIG 0.16  HD
ATOM      5 O    SER T 970      38.652  37.396 -12.764  1.00 50.73 LIG-0.27  OA
BRANCH 3 6
ATOM      6  CA  GLU T 971      38.314  36.110 -15.087  1.00 34.69 LIG 0.18  C 
BRANCH 6 7
ATOM      7  CB  GLU T 971      38.252  37.587 -15.469  1.00 35.28 LIG 0.04  C 
BRANCH 7 8
ATOM      8  CG  GLU T 971      36.900  38.229 -15.162  1.00 38.63 LIG 0.12  C 
BRANCH 8 9
ATOM      9  CD  GLU T 971      35.729  37.433 -15.735  1.00 44.02 LIG 0.17  C 
ATOM     10 OE1  GLU T 971      35.228  36.510 -15.052  1.00 46.94 LIG-0.65  OA
ATOM     11 OE2  GLU T 971      35.308  37.730 -16.872  1.00 38.45 LIG-0.65  OA
ENDBRANCH 8 9
ENDBRANCH 7 8
ENDBRANCH 6 7
BRANCH 6 12
ATOM     12  C   GLU T 971      39.747  35.707 -14.835  1.00 38.38 LIG 0.24  C 
ATOM     13  N   TYR T 972      40.247  34.886 -15.736  1.00 34.07 LIG-0.34  N 
ATOM     14 H    TYR T 972      39.788  34.536 -16.374  1.00 34.07 LIG 0.16  HD
ATOM     15 O    GLU T 971      40.381  36.140 -13.860  1.00 36.91 LIG-0.27  OA
BRANCH 13 16
ATOM     16  CA  TYR T 972      41.638  34.501 -15.723  1.00 35.97 LIG 0.19  C 
BRANCH 16 17
ATOM     17  C   TYR T 972      42.180  34.478 -17.158  1.00 45.43 LIG 0.20  C 
ATOM     18 OXT  TYR T 972      41.954  35.441 -17.890  1.00 40.76 LIG-0.65  OA
ATOM     19 O    TYR T 972      42.824  33.520 -17.624  1.00 41.72 LIG-0.65  OA
ENDBRANCH 16 17
BRANCH 16 20
ATOM     20  CB  TYR T 972      41.810  33.132 -15.073  1.00 33.99 LIG 0.07  C 
BRANCH 20 21
ATOM     21  CG  TYR T 972      41.202  33.104 -13.709  1.00 33.93 LIG-0.06  A 
ATOM     22  CD1 TYR T 972      39.860  32.800 -13.533  1.00 33.64 LIG 0.01  A 
ATOM     23  CE1 TYR T 972      39.305  32.759 -12.271  1.00 37.50 LIG 0.04  A 
ATOM     24  CZ  TYR T 972      40.100  33.009 -11.182  1.00 37.64 LIG 0.07  A 
ATOM     25  CE2 TYR T 972      41.437  33.289 -11.329  1.00 36.30 LIG 0.04  A 
ATOM     26  CD2 TYR T 972      41.982  33.339 -12.583  1.00 38.70 LIG 0.01  A 
BRANCH 24 27
ATOM     27 OH   TYR T 972      39.553  32.974  -9.934  1.00 40.25 LIG-0.36  OA
ATOM     28 HH   TYR T 972      39.643  33.724  -9.567  1.00 40.25 LIG 0.22  HD
ENDBRANCH 24 27
ENDBRANCH 20 21
ENDBRANCH 16 20
ENDBRANCH 13 16
ENDBRANCH 6 12
ENDBRANCH 3 6
ENDBRANCH 1 2
BRANCH 1 29
ATOM     29  CB  SER T 970      36.760  34.720 -11.459  1.00 55.16 LIG 0.20  C 
BRANCH 29 30
ATOM     30 OG   SER T 970      35.984  34.142 -12.492  1.00 59.72 LIG-0.40  OA
ATOM     31 HG   SER T 970      35.601  34.749 -12.929  1.00 59.72 LIG 0.21  HD
ENDBRANCH 29 30
ENDBRANCH 1 29
BRANCH 1 32
ATOM     32  N   SER T 970      35.501  36.819 -11.705  1.00 52.51 LIG-0.34  N 
ATOM     33  C   VAL T 969      35.094  37.763 -10.859  1.00 50.69 LIG 0.24  C 
ATOM     34 O    VAL T 969      35.875  38.404 -10.153  1.00 50.98 LIG-0.27  OA
ATOM     35 H    SER T 970      35.010  36.497 -12.334  1.00 52.51 LIG 0.16  HD
BRANCH 33 36
ATOM     36  CA  VAL T 969      33.586  38.073 -10.848  1.00 48.28 LIG 0.18  C 
BRANCH 36 37
ATOM     37  CB  VAL T 969      33.176  38.895 -12.079  1.00 45.61 LIG 0.01  C 
ATOM     38  CG1 VAL T 969      34.093  40.102 -12.278  1.00 51.33 LIG 0.01  C 
ATOM     39  CG2 VAL T 969      33.182  38.010 -13.326  1.00 51.13 LIG 0.01  C 
ENDBRANCH 36 37
BRANCH 36 40
ATOM     40  N   VAL T 969      33.256  38.779  -9.624  1.00 42.62 LIG-0.35  N 
ATOM     41  C   GLU T 968      33.047  38.110  -8.502  1.00 39.23 LIG 0.24  C 
ATOM     42 O    GLU T 968      33.022  36.885  -8.450  1.00 41.64 LIG-0.27  OA
ATOM     43 H    VAL T 969      33.211  39.634  -9.698  1.00 42.62 LIG 0.16  HD
BRANCH 41 44
ATOM     44  CA  GLU T 968      32.898  38.923  -7.234  1.00 43.46 LIG 0.18  C 
BRANCH 44 45
ATOM     45  CB  GLU T 968      31.409  39.013  -6.947  1.00 39.65 LIG 0.04  C 
BRANCH 45 46
ATOM     46  CG  GLU T 968      30.556  37.876  -7.346  1.00 48.42 LIG 0.12  C 
BRANCH 46 47
ATOM     47  CD  GLU T 968      29.825  38.236  -8.621  1.00 46.07 LIG 0.17  C 
ATOM     48 OE1  GLU T 968      28.986  39.170  -8.567  1.00 37.62 LIG-0.65  OA
ATOM     49 OE2  GLU T 968      30.140  37.635  -9.677  1.00 42.01 LIG-0.65  OA
ENDBRANCH 46 47
ENDBRANCH 45 46
ENDBRANCH 44 45
BRANCH 44 50
ATOM     50  N   GLU T 968      33.497  40.248  -7.370  1.00 42.28 LIG-0.35  N 
ATOM     51  C   GLU T 967      34.817  40.417  -7.457  1.00 44.22 LIG 0.26  C 
ATOM     52 O    GLU T 967      35.619  39.508  -7.302  1.00 45.73 LIG-0.27  OA
ATOM     53 H    GLU T 968      32.929  40.894  -7.387  1.00 42.28 LIG 0.16  HD
BRANCH 51 54
ATOM     54  CA  GLU T 967      35.317  41.824  -7.755  1.00 63.10 LIG 0.40  C 
ATOM     55  N   GLU T 967      36.076  41.838  -9.002  1.00 61.06 LIG 0.61  N 
BRANCH 54 56
ATOM     56  CB  GLU T 967      34.136  42.790  -7.832  1.00 76.10 LIG 0.06  C 
BRANCH 56 57
ATOM     57  CG  GLU T 967      33.802  43.229  -9.241  1.00 93.75 LIG 0.12  C 
BRANCH 57 58
ATOM     58  CD  GLU T 967      32.410  42.802  -9.659  1.00103.86 LIG 0.17  C 
ATOM     59 OE1  GLU T 967      31.799  43.498 -10.496  1.00104.00 LIG-0.65  OA
ATOM     60 OE2  GLU T 967      31.932  41.762  -9.155  1.00109.28 LIG-0.65  OA
ENDBRANCH 57 58
ENDBRANCH 56 57
ENDBRANCH 54 56
ENDBRANCH 51 54
ENDBRANCH 44 50
ENDBRANCH 41 44
ENDBRANCH 36 40
ENDBRANCH 33 36
ENDBRANCH 1 32
TORSDOF 26
ENDMDL
MODEL 39
USER: ADFR SOLUTION from run 191
USER: SCORE 19.859391 LL:  -4.858 LR: -15.389 RR:   0.000 FEB:  -7.634
USER: RMSD 8.188769
USER: SEED 190
USER: STATUS searching
USER: GENES 28
USER: genes 0 Translation |==|  0.68155 0.36133 0.31924
USER: genes 1 Rotation |==|  0.59563 0.25066 0.43005 0.91688
USER: genes 2 Torsion [N]-CA--C-[N] |==|  0.44332
USER: genes 3 Torsion [C]-N--CA-[CB] |==|  0.17774
USER: genes 4 Torsion [N]-CA--CB-[CG] |==|  0.52773
USER: genes 5 Torsion [CA]-CB--CG-[CD] |==|  0.59318
USER: genes 6 Torsion [CB]-CG--CD-[OE1] |==|  0.01978
USER: genes 7 Torsion [N]-CA--C-[N] |==|  0.09712
USER: genes 8 Torsion [C]-N--CA-[CB] |==|  0.46807
USER: genes 9 Torsion [N]-CA--C-[O] |==|  0.65999
USER: genes 10 Torsion [N]-CA--CB-[CG] |==|  0.13061
USER: genes 11 Torsion [CA]-CB--CG-[CD1] |==|  0.25683
USER: genes 12 Torsion [CE1]-CZ--OH-[HH] |==|  0.33653
USER: genes 13 Torsion [C]-CA--CB-[OG] |==|  0.68431
USER: genes 14 Torsion [CA]-CB--OG-[HG] |==|  0.85389
USER: genes 15 Torsion [C]-CA--N-[C] |==|  0.66910
USER: genes 16 Torsion [N]-C--CA-[N] |==|  0.35496
USER: genes 17 Torsion [C]-CA--CB-[CG1] |==|  0.17177
USER: genes 18 Torsion [C]-CA--N-[C] |==|  0.85164
USER: genes 19 Torsion [N]-C--CA-[N] |==|  0.47251
USER: genes 20 Torsion [C]-CA--CB-[CG] |==|  0.42034
USER: genes 21 Torsion [CA]-CB--CG-[CD] |==|  0.07329
USER: genes 22 Torsion [CB]-CG--CD-[OE1] |==|  0.70952
USER: genes 23 Torsion [C]-CA--N-[C] |==|  0.78263
USER: genes 24 Torsion [N]-C--CA-[N] |==|  0.05102
USER: genes 25 Torsion [C]-CA--CB-[CG] |==|  0.29018
USER: genes 26 Torsion [CA]-CB--CG-[CD] |==|  0.12284
USER: genes 27 Torsion [CB]-CG--CD-[OE1] |==|  0.02902
ROOT
ATOM      1  CA  SER T 970      37.410  35.306 -12.896  1.00 53.81 LIG 0.20  C 
ENDROOT
BRANCH 1 2
ATOM      2  C   SER T 970      38.332  34.589 -13.874  1.00 54.98 LIG 0.24  C 
ATOM      3  N   GLU T 971      39.575  34.392 -13.454  1.00 36.24 LIG-0.35  N 
ATOM      4 H    GLU T 971      39.902  34.662 -12.706  1.00 36.24 LIG 0.16  HD
ATOM      5 O    SER T 970      37.930  34.174 -14.974  1.00 50.73 LIG-0.27  OA
BRANCH 3 6
ATOM      6  CA  GLU T 971      40.474  33.660 -14.315  1.00 34.69 LIG 0.18  C 
BRANCH 6 7
ATOM      7  CB  GLU T 971      40.728  34.404 -15.623  1.00 35.28 LIG 0.04  C 
BRANCH 7 8
ATOM      8  CG  GLU T 971      41.473  33.562 -16.656  1.00 38.63 LIG 0.12  C 
BRANCH 8 9
ATOM      9  CD  GLU T 971      42.409  34.397 -17.530  1.00 44.02 LIG 0.17  C 
ATOM     10 OE1  GLU T 971      42.585  35.605 -17.251  1.00 46.94 LIG-0.65  OA
ATOM     11 OE2  GLU T 971      42.969  33.844 -18.498  1.00 38.45 LIG-0.65  OA
ENDBRANCH 8 9
ENDBRANCH 7 8
ENDBRANCH 6 7
BRANCH 6 12
ATOM     12  C   GLU T 971      41.781  33.424 -13.599  1.00 38.38 LIG 0.24  C 
ATOM     13  N   TYR T 972      41.662  33.220 -12.302  1.00 34.07 LIG-0.34  N 
ATOM     14 H    TYR T 972      40.922  33.292 -11.871  1.00 34.07 LIG 0.16  HD
ATOM     15 O    GLU T 971      42.862  33.413 -14.208  1.00 36.91 LIG-0.27  OA
BRANCH 13 16
ATOM     16  CA  TYR T 972      42.793  32.852 -11.484  1.00 35.97 LIG 0.19  C 
BRANCH 16 17
ATOM     17  C   TYR T 972      43.232  31.422 -11.824  1.00 45.43 LIG 0.20  C 
ATOM     18 OXT  TYR T 972      43.526  31.157 -12.990  1.00 40.76 LIG-0.65  OA
ATOM     19 O    TYR T 972      43.286  30.510 -10.979  1.00 41.72 LIG-0.65  OA
ENDBRANCH 16 17
BRANCH 16 20
ATOM     20  CB  TYR T 972      42.441  32.957 -10.004  1.00 33.99 LIG 0.07  C 
BRANCH 20 21
ATOM     21  CG  TYR T 972      41.128  32.308  -9.715  1.00 33.93 LIG-0.06  A 
ATOM     22  CD1 TYR T 972      41.061  30.979  -9.322  1.00 33.64 LIG 0.01  A 
ATOM     23  CE1 TYR T 972      39.848  30.386  -9.041  1.00 37.50 LIG 0.04  A 
ATOM     24  CZ  TYR T 972      38.701  31.131  -9.138  1.00 37.64 LIG 0.07  A 
ATOM     25  CE2 TYR T 972      38.744  32.455  -9.501  1.00 36.30 LIG 0.04  A 
ATOM     26  CD2 TYR T 972      39.948  33.037  -9.790  1.00 38.70 LIG 0.01  A 
BRANCH 24 27
ATOM     27 OH   TYR T 972      37.500  30.547  -8.864  1.00 40.25 LIG-0.36  OA
ATOM     28 HH   TYR T 972      37.125  30.959  -8.237  1.00 40.25 LIG 0.22  HD
ENDBRANCH 24 27
ENDBRANCH 20 21
ENDBRANCH 16 20
ENDBRANCH 13 16
ENDBRANCH 6 12
ENDBRANCH 3 6
ENDBRANCH 1 2
BRANCH 1 29
ATOM     29  CB  SER T 970      36.997  34.303 -11.812  1.00 55.16 LIG 0.20  C 
BRANCH 29 30
ATOM     30 OG   SER T 970      35.611  34.025 -11.887  1.00 59.72 LIG-0.40  OA
ATOM     31 HG   SER T 970      35.180  34.746 -11.879  1.00 59.72 LIG 0.21  HD
ENDBRANCH 29 30
ENDBRANCH 1 29
BRANCH 1 32
ATOM     32  N   SER T 970      36.220  35.938 -13.478  1.00 52.51 LIG-0.34  N 
ATOM     33  C   VAL T 969      36.007  37.248 -13.390  1.00 50.69 LIG 0.24  C 
ATOM     34 O    VAL T 969      36.891  38.046 -13.074  1.00 50.98 LIG-0.27  OA
ATOM     35 H    SER T 970      35.686  35.391 -13.873  1.00 52.51 LIG 0.16  HD
BRANCH 33 36
ATOM     36  CA  VAL T 969      34.600  37.743 -13.774  1.00 48.28 LIG 0.18  C 
BRANCH 36 37
ATOM     37  CB  VAL T 969      34.626  38.527 -15.096  1.00 45.61 LIG 0.01  C 
ATOM     38  CG1 VAL T 969      35.096  37.653 -16.257  1.00 51.33 LIG 0.01  C 
ATOM     39  CG2 VAL T 969      33.240  39.103 -15.389  1.00 51.13 LIG 0.01  C 
ENDBRANCH 36 37
BRANCH 36 40
ATOM     40  N   VAL T 969      34.076  38.564 -12.699  1.00 42.62 LIG-0.35  N 
ATOM     41  C   GLU T 968      34.039  38.100 -11.461  1.00 39.23 LIG 0.24  C 
ATOM     42 O    GLU T 968      34.343  36.948 -11.171  1.00 41.64 LIG-0.27  OA
ATOM     43 H    VAL T 969      33.804  39.345 -12.936  1.00 42.62 LIG 0.16  HD
BRANCH 41 44
ATOM     44  CA  GLU T 968      33.660  39.079 -10.370  1.00 43.46 LIG 0.18  C 
BRANCH 44 45
ATOM     45  CB  GLU T 968      34.796  40.082 -10.270  1.00 39.65 LIG 0.04  C 
BRANCH 45 46
ATOM     46  CG  GLU T 968      34.478  41.448  -9.812  1.00 48.42 LIG 0.12  C 
BRANCH 46 47
ATOM     47  CD  GLU T 968      33.242  41.398  -8.941  1.00 46.07 LIG 0.17  C 
ATOM     48 OE1  GLU T 968      32.161  41.804  -9.439  1.00 37.62 LIG-0.65  OA
ATOM     49 OE2  GLU T 968      33.341  40.891  -7.796  1.00 42.01 LIG-0.65  OA
ENDBRANCH 46 47
ENDBRANCH 45 46
ENDBRANCH 44 45
BRANCH 44 50
ATOM     50  N   GLU T 968      33.429  38.404  -9.096  1.00 42.28 LIG-0.35  N 
ATOM     51  C   GLU T 967      32.295  37.751  -8.842  1.00 44.22 LIG 0.26  C 
ATOM     52 O    GLU T 967      31.327  37.775  -9.588  1.00 45.73 LIG-0.27  OA
ATOM     53 H    GLU T 968      34.081  38.467  -8.538  1.00 42.28 LIG 0.16  HD
BRANCH 51 54
ATOM     54  CA  GLU T 967      32.229  36.953  -7.546  1.00 63.10 LIG 0.40  C 
ATOM     55  N   GLU T 967      33.267  37.402  -6.623  1.00 61.06 LIG 0.61  N 
BRANCH 54 56
ATOM     56  CB  GLU T 967      30.846  37.101  -6.914  1.00 76.10 LIG 0.06  C 
BRANCH 56 57
ATOM     57  CG  GLU T 967      29.968  35.880  -7.085  1.00 93.75 LIG 0.12  C 
BRANCH 57 58
ATOM     58  CD  GLU T 967      30.718  34.593  -6.812  1.00103.86 LIG 0.17  C 
ATOM     59 OE1  GLU T 967      31.856  34.663  -6.303  1.00104.00 LIG-0.65  OA
ATOM     60 OE2  GLU T 967      30.164  33.510  -7.100  1.00109.28 LIG-0.65  OA
ENDBRANCH 57 58
ENDBRANCH 56 57
ENDBRANCH 54 56
ENDBRANCH 51 54
ENDBRANCH 44 50
ENDBRANCH 41 44
ENDBRANCH 36 40
ENDBRANCH 33 36
ENDBRANCH 1 32
TORSDOF 26
ENDMDL
MODEL 40
USER: ADFR SOLUTION from run 42
USER: SCORE 18.591537 LL:  -5.678 LR: -15.391 RR:   0.000 FEB:  -7.635
USER: RMSD 12.698064
USER: SEED 41
USER: STATUS no improvement in best in 4 clusters for 5 generations
USER: GENES 28
USER: genes 0 Translation |==|  0.67342 0.36999 0.24200
USER: genes 1 Rotation |==|  0.46389 0.70262 0.05433 0.59496
USER: genes 2 Torsion [N]-CA--C-[N] |==|  0.52548
USER: genes 3 Torsion [C]-N--CA-[CB] |==|  0.43508
USER: genes 4 Torsion [N]-CA--CB-[CG] |==|  0.62605
USER: genes 5 Torsion [CA]-CB--CG-[CD] |==|  0.64786
USER: genes 6 Torsion [CB]-CG--CD-[OE1] |==|  0.81038
USER: genes 7 Torsion [N]-CA--C-[N] |==|  0.94834
USER: genes 8 Torsion [C]-N--CA-[CB] |==|  0.86240
USER: genes 9 Torsion [N]-CA--C-[O] |==|  0.56022
USER: genes 10 Torsion [N]-CA--CB-[CG] |==|  0.86174
USER: genes 11 Torsion [CA]-CB--CG-[CD1] |==|  0.38058
USER: genes 12 Torsion [CE1]-CZ--OH-[HH] |==|  0.27573
USER: genes 13 Torsion [C]-CA--CB-[OG] |==|  0.85252
USER: genes 14 Torsion [CA]-CB--OG-[HG] |==|  0.31481
USER: genes 15 Torsion [C]-CA--N-[C] |==|  0.76093
USER: genes 16 Torsion [N]-C--CA-[N] |==|  0.01737
USER: genes 17 Torsion [C]-CA--CB-[CG1] |==|  0.18832
USER: genes 18 Torsion [C]-CA--N-[C] |==|  0.20449
USER: genes 19 Torsion [N]-C--CA-[N] |==|  0.87215
USER: genes 20 Torsion [C]-CA--CB-[CG] |==|  0.37323
USER: genes 21 Torsion [CA]-CB--CG-[CD] |==|  0.13962
USER: genes 22 Torsion [CB]-CG--CD-[OE1] |==|  0.70014
USER: genes 23 Torsion [C]-CA--N-[C] |==|  0.64179
USER: genes 24 Torsion [N]-C--CA-[N] |==|  0.22268
USER: genes 25 Torsion [C]-CA--CB-[CG] |==|  0.27803
USER: genes 26 Torsion [CA]-CB--CG-[CD] |==|  0.83516
USER: genes 27 Torsion [CB]-CG--CD-[OE1] |==|  0.20388
ROOT
ATOM      1  CA  SER T 970      37.179  35.475 -14.402  1.00 53.81 LIG 0.20  C 
ENDROOT
BRANCH 1 2
ATOM      2  C   SER T 970      36.600  36.884 -14.349  1.00 54.98 LIG 0.24  C 
ATOM      3  N   GLU T 971      35.279  36.967 -14.439  1.00 36.24 LIG-0.35  N 
ATOM      4 H    GLU T 971      34.741  36.307 -14.557  1.00 36.24 LIG 0.16  HD
ATOM      5 O    SER T 970      37.318  37.884 -14.185  1.00 50.73 LIG-0.27  OA
BRANCH 3 6
ATOM      6  CA  GLU T 971      34.673  38.272 -14.329  1.00 34.69 LIG 0.18  C 
BRANCH 6 7
ATOM      7  CB  GLU T 971      33.301  38.310 -14.996  1.00 35.28 LIG 0.04  C 
BRANCH 7 8
ATOM      8  CG  GLU T 971      33.093  39.545 -15.870  1.00 38.63 LIG 0.12  C 
BRANCH 8 9
ATOM      9  CD  GLU T 971      31.820  40.311 -15.512  1.00 44.02 LIG 0.17  C 
ATOM     10 OE1  GLU T 971      30.708  39.785 -15.746  1.00 46.94 LIG-0.65  OA
ATOM     11 OE2  GLU T 971      31.932  41.441 -14.996  1.00 38.45 LIG-0.65  OA
ENDBRANCH 8 9
ENDBRANCH 7 8
ENDBRANCH 6 7
BRANCH 6 12
ATOM     12  C   GLU T 971      34.544  38.651 -12.874  1.00 38.38 LIG 0.24  C 
ATOM     13  N   TYR T 972      34.623  37.635 -12.038  1.00 34.07 LIG-0.34  N 
ATOM     14 H    TYR T 972      34.664  36.813 -12.285  1.00 34.07 LIG 0.16  HD
ATOM     15 O    GLU T 971      34.390  39.831 -12.521  1.00 36.91 LIG-0.27  OA
BRANCH 13 16
ATOM     16  CA  TYR T 972      34.649  37.828 -10.608  1.00 35.97 LIG 0.19  C 
BRANCH 16 17
ATOM     17  C   TYR T 972      33.260  38.255 -10.120  1.00 45.43 LIG 0.20  C 
ATOM     18 OXT  TYR T 972      32.284  38.010 -10.830  1.00 40.76 LIG-0.65  OA
ATOM     19 O    TYR T 972      33.072  38.855  -9.046  1.00 41.72 LIG-0.65  OA
ENDBRANCH 16 17
BRANCH 16 20
ATOM     20  CB  TYR T 972      35.688  38.879 -10.227  1.00 33.99 LIG 0.07  C 
BRANCH 20 21
ATOM     21  CG  TYR T 972      37.004  38.593 -10.871  1.00 33.93 LIG-0.06  A 
ATOM     22  CD1 TYR T 972      37.753  39.612 -11.442  1.00 33.64 LIG 0.01  A 
ATOM     23  CE1 TYR T 972      38.977  39.348 -12.023  1.00 37.50 LIG 0.04  A 
ATOM     24  CZ  TYR T 972      39.456  38.063 -12.017  1.00 37.64 LIG 0.07  A 
ATOM     25  CE2 TYR T 972      38.744  37.042 -11.436  1.00 36.30 LIG 0.04  A 
ATOM     26  CD2 TYR T 972      37.526  37.306 -10.871  1.00 38.70 LIG 0.01  A 
BRANCH 24 27
ATOM     27 OH   TYR T 972      40.663  37.799 -12.593  1.00 40.25 LIG-0.36  OA
ATOM     28 HH   TYR T 972      41.255  37.758 -11.998  1.00 40.25 LIG 0.22  HD
ENDBRANCH 24 27
ENDBRANCH 20 21
ENDBRANCH 16 20
ENDBRANCH 13 16
ENDBRANCH 6 12
ENDBRANCH 3 6
ENDBRANCH 1 2
BRANCH 1 29
ATOM     29  CB  SER T 970      36.361  34.591 -13.452  1.00 55.16 LIG 0.20  C 
BRANCH 29 30
ATOM     30 OG   SER T 970      36.297  35.166 -12.161  1.00 59.72 LIG-0.40  OA
ATOM     31 HG   SER T 970      35.506  35.395 -11.994  1.00 59.72 LIG 0.21  HD
ENDBRANCH 29 30
ENDBRANCH 1 29
BRANCH 1 32
ATOM     32  N   SER T 970      38.609  35.355 -14.096  1.00 52.51 LIG-0.34  N 
ATOM     33  C   VAL T 969      39.543  35.516 -15.031  1.00 50.69 LIG 0.24  C 
ATOM     34 O    VAL T 969      39.308  36.036 -16.122  1.00 50.98 LIG-0.27  OA
ATOM     35 H    SER T 970      38.782  35.175 -13.273  1.00 52.51 LIG 0.16  HD
BRANCH 33 36
ATOM     36  CA  VAL T 969      40.972  35.080 -14.658  1.00 48.28 LIG 0.18  C 
BRANCH 36 37
ATOM     37  CB  VAL T 969      41.566  34.145 -15.723  1.00 45.61 LIG 0.01  C 
ATOM     38  CG1 VAL T 969      41.815  34.881 -17.039  1.00 51.33 LIG 0.01  C 
ATOM     39  CG2 VAL T 969      42.863  33.522 -15.208  1.00 51.13 LIG 0.01  C 
ENDBRANCH 36 37
BRANCH 36 40
ATOM     40  N   VAL T 969      40.946  34.431 -13.360  1.00 42.62 LIG-0.35  N 
ATOM     41  C   GLU T 968      40.448  33.213 -13.232  1.00 39.23 LIG 0.24  C 
ATOM     42 O    GLU T 968      39.903  32.614 -14.153  1.00 41.64 LIG-0.27  OA
ATOM     43 H    VAL T 969      41.271  34.896 -12.714  1.00 42.62 LIG 0.16  HD
BRANCH 41 44
ATOM     44  CA  GLU T 968      40.630  32.533 -11.891  1.00 43.46 LIG 0.18  C 
BRANCH 44 45
ATOM     45  CB  GLU T 968      39.630  33.168 -10.941  1.00 39.65 LIG 0.04  C 
BRANCH 45 46
ATOM     46  CG  GLU T 968      38.835  32.277 -10.074  1.00 48.42 LIG 0.12  C 
BRANCH 46 47
ATOM     47  CD  GLU T 968      39.767  31.315  -9.372  1.00 46.07 LIG 0.17  C 
ATOM     48 OE1  GLU T 968      39.753  30.114  -9.744  1.00 37.62 LIG-0.65  OA
ATOM     49 OE2  GLU T 968      40.553  31.773  -8.507  1.00 42.01 LIG-0.65  OA
ENDBRANCH 46 47
ENDBRANCH 45 46
ENDBRANCH 44 45
BRANCH 44 50
ATOM     50  N   GLU T 968      41.998  32.671 -11.399  1.00 42.28 LIG-0.35  N 
ATOM     51  C   GLU T 967      42.707  31.619 -10.988  1.00 44.22 LIG 0.26  C 
ATOM     52 O    GLU T 967      42.234  30.498 -10.871  1.00 45.73 LIG-0.27  OA
ATOM     53 H    GLU T 968      42.296  33.478 -11.399  1.00 42.28 LIG 0.16  HD
BRANCH 51 54
ATOM     54  CA  GLU T 967      44.172  31.860 -10.647  1.00 63.10 LIG 0.40  C 
ATOM     55  N   GLU T 967      44.291  32.434  -9.310  1.00 61.06 LIG 0.61  N 
BRANCH 54 56
ATOM     56  CB  GLU T 967      44.950  30.549 -10.741  1.00 76.10 LIG 0.06  C 
BRANCH 56 57
ATOM     57  CG  GLU T 967      45.728  30.396 -12.030  1.00 93.75 LIG 0.12  C 
BRANCH 57 58
ATOM     58  CD  GLU T 967      44.830  30.447 -13.250  1.00103.86 LIG 0.17  C 
ATOM     59 OE1  GLU T 967      44.352  31.549 -13.592  1.00104.00 LIG-0.65  OA
ATOM     60 OE2  GLU T 967      44.611  29.385 -13.871  1.00109.28 LIG-0.65  OA
ENDBRANCH 57 58
ENDBRANCH 56 57
ENDBRANCH 54 56
ENDBRANCH 51 54
ENDBRANCH 44 50
ENDBRANCH 41 44
ENDBRANCH 36 40
ENDBRANCH 33 36
ENDBRANCH 1 32
TORSDOF 26
ENDMDL
MODEL 41
USER: ADFR SOLUTION from run 190
USER: SCORE 18.827666 LL:  -5.519 LR: -15.369 RR:   0.000 FEB:  -7.613
USER: RMSD 10.861142
USER: SEED 189
USER: STATUS searching
USER: GENES 28
USER: genes 0 Translation |==|  0.22493 0.58385 0.31094
USER: genes 1 Rotation |==|  0.20363 0.81336 0.47195 0.75136
USER: genes 2 Torsion [N]-CA--C-[N] |==|  0.05522
USER: genes 3 Torsion [C]-N--CA-[CB] |==|  0.83887
USER: genes 4 Torsion [N]-CA--CB-[CG] |==|  0.60928
USER: genes 5 Torsion [CA]-CB--CG-[CD] |==|  0.43394
USER: genes 6 Torsion [CB]-CG--CD-[OE1] |==|  0.35453
USER: genes 7 Torsion [N]-CA--C-[N] |==|  0.15622
USER: genes 8 Torsion [C]-N--CA-[CB] |==|  0.88091
USER: genes 9 Torsion [N]-CA--C-[O] |==|  0.95054
USER: genes 10 Torsion [N]-CA--CB-[CG] |==|  0.42809
USER: genes 11 Torsion [CA]-CB--CG-[CD1] |==|  0.18859
USER: genes 12 Torsion [CE1]-CZ--OH-[HH] |==|  0.51815
USER: genes 13 Torsion [C]-CA--CB-[OG] |==|  0.52243
USER: genes 14 Torsion [CA]-CB--OG-[HG] |==|  0.37016
USER: genes 15 Torsion [C]-CA--N-[C] |==|  0.72245
USER: genes 16 Torsion [N]-C--CA-[N] |==|  0.99997
USER: genes 17 Torsion [C]-CA--CB-[CG1] |==|  0.54163
USER: genes 18 Torsion [C]-CA--N-[C] |==|  0.75928
USER: genes 19 Torsion [N]-C--CA-[N] |==|  0.53355
USER: genes 20 Torsion [C]-CA--CB-[CG] |==|  0.26002
USER: genes 21 Torsion [CA]-CB--CG-[CD] |==|  0.44069
USER: genes 22 Torsion [CB]-CG--CD-[OE1] |==|  0.68072
USER: genes 23 Torsion [C]-CA--N-[C] |==|  0.17685
USER: genes 24 Torsion [N]-C--CA-[N] |==|  0.65130
USER: genes 25 Torsion [C]-CA--CB-[CG] |==|  0.65473
USER: genes 26 Torsion [CA]-CB--CG-[CD] |==|  0.19835
USER: genes 27 Torsion [CB]-CG--CD-[OE1] |==|  0.64824
ROOT
ATOM      1  CA  SER T 970      24.396  39.645 -13.058  1.00 53.81 LIG 0.20  C 
ENDROOT
BRANCH 1 2
ATOM      2  C   SER T 970      24.337  38.782 -11.803  1.00 54.98 LIG 0.24  C 
ATOM      3  N   GLU T 971      23.928  39.397 -10.702  1.00 36.24 LIG-0.35  N 
ATOM      4 H    GLU T 971      23.734  40.232 -10.634  1.00 36.24 LIG 0.16  HD
ATOM      5 O    SER T 970      24.607  37.570 -11.824  1.00 50.73 LIG-0.27  OA
BRANCH 3 6
ATOM      6  CA  GLU T 971      23.790  38.612  -9.498  1.00 34.69 LIG 0.18  C 
BRANCH 6 7
ATOM      7  CB  GLU T 971      22.817  37.453  -9.693  1.00 35.28 LIG 0.04  C 
BRANCH 7 8
ATOM      8  CG  GLU T 971      21.924  37.209  -8.479  1.00 38.63 LIG 0.12  C 
BRANCH 8 9
ATOM      9  CD  GLU T 971      20.622  36.497  -8.841  1.00 44.02 LIG 0.17  C 
ATOM     10 OE1  GLU T 971      20.300  35.460  -8.216  1.00 46.94 LIG-0.65  OA
ATOM     11 OE2  GLU T 971      19.918  36.974  -9.755  1.00 38.45 LIG-0.65  OA
ENDBRANCH 8 9
ENDBRANCH 7 8
ENDBRANCH 6 7
BRANCH 6 12
ATOM     12  C   GLU T 971      25.140  38.082  -9.081  1.00 38.38 LIG 0.24  C 
ATOM     13  N   TYR T 972      26.059  39.010  -8.904  1.00 34.07 LIG-0.34  N 
ATOM     14 H    TYR T 972      25.940  39.842  -9.084  1.00 34.07 LIG 0.16  HD
ATOM     15 O    GLU T 971      25.337  36.868  -8.912  1.00 36.91 LIG-0.27  OA
BRANCH 13 16
ATOM     16  CA  TYR T 972      27.367  38.695  -8.382  1.00 35.97 LIG 0.19  C 
BRANCH 16 17
ATOM     17  C   TYR T 972      28.236  38.095  -9.495  1.00 45.43 LIG 0.20  C 
ATOM     18 OXT  TYR T 972      29.459  38.090  -9.351  1.00 40.76 LIG-0.65  OA
ATOM     19 O    TYR T 972      27.763  37.630 -10.548  1.00 41.72 LIG-0.65  OA
ENDBRANCH 16 17
BRANCH 16 20
ATOM     20  CB  TYR T 972      27.258  37.719  -7.215  1.00 33.99 LIG 0.07  C 
BRANCH 20 21
ATOM     21  CG  TYR T 972      28.508  36.915  -7.066  1.00 33.93 LIG-0.06  A 
ATOM     22  CD1 TYR T 972      29.695  37.513  -6.666  1.00 33.64 LIG 0.01  A 
ATOM     23  CE1 TYR T 972      30.845  36.766  -6.514  1.00 37.50 LIG 0.04  A 
ATOM     24  CZ  TYR T 972      30.801  35.415  -6.748  1.00 37.64 LIG 0.07  A 
ATOM     25  CE2 TYR T 972      29.632  34.797  -7.121  1.00 36.30 LIG 0.04  A 
ATOM     26  CD2 TYR T 972      28.496  35.543  -7.282  1.00 38.70 LIG 0.01  A 
BRANCH 24 27
ATOM     27 OH   TYR T 972      31.937  34.676  -6.602  1.00 40.25 LIG-0.36  OA
ATOM     28 HH   TYR T 972      31.794  33.890  -6.859  1.00 40.25 LIG 0.22  HD
ENDBRANCH 24 27
ENDBRANCH 20 21
ENDBRANCH 16 20
ENDBRANCH 13 16
ENDBRANCH 6 12
ENDBRANCH 3 6
ENDBRANCH 1 2
BRANCH 1 29
ATOM     29  CB  SER T 970      25.607  39.196 -13.885  1.00 55.16 LIG 0.20  C 
BRANCH 29 30
ATOM     30 OG   SER T 970      25.828  40.077 -14.971  1.00 59.72 LIG-0.40  OA
ATOM     31 HG   SER T 970      26.644  40.275 -15.009  1.00 59.72 LIG 0.21  HD
ENDBRANCH 29 30
ENDBRANCH 1 29
BRANCH 1 32
ATOM     32  N   SER T 970      24.445  41.096 -12.839  1.00 52.51 LIG-0.34  N 
ATOM     33  C   VAL T 969      23.361  41.859 -12.952  1.00 50.69 LIG 0.24  C 
ATOM     34 O    VAL T 969      22.220  41.396 -12.970  1.00 50.98 LIG-0.27  OA
ATOM     35 H    SER T 970      25.225  41.398 -12.636  1.00 52.51 LIG 0.16  HD
BRANCH 33 36
ATOM     36  CA  VAL T 969      23.593  43.381 -12.991  1.00 48.28 LIG 0.18  C 
BRANCH 36 37
ATOM     37  CB  VAL T 969      23.012  44.002 -14.271  1.00 45.61 LIG 0.01  C 
ATOM     38  CG1 VAL T 969      23.545  45.416 -14.500  1.00 51.33 LIG 0.01  C 
ATOM     39  CG2 VAL T 969      23.326  43.112 -15.474  1.00 51.13 LIG 0.01  C 
ENDBRANCH 36 37
BRANCH 36 40
ATOM     40  N   VAL T 969      25.016  43.647 -12.890  1.00 42.62 LIG-0.35  N 
ATOM     41  C   GLU T 968      25.595  43.746 -11.705  1.00 39.23 LIG 0.24  C 
ATOM     42 O    GLU T 968      24.968  43.721 -10.652  1.00 41.64 LIG-0.27  OA
ATOM     43 H    VAL T 969      25.425  43.730 -13.642  1.00 42.62 LIG 0.16  HD
BRANCH 41 44
ATOM     44  CA  GLU T 968      27.107  43.832 -11.683  1.00 43.46 LIG 0.18  C 
BRANCH 44 45
ATOM     45  CB  GLU T 968      27.618  42.759 -12.628  1.00 39.65 LIG 0.04  C 
BRANCH 45 46
ATOM     46  CG  GLU T 968      27.894  43.142 -14.027  1.00 48.42 LIG 0.12  C 
BRANCH 46 47
ATOM     47  CD  GLU T 968      28.852  42.137 -14.630  1.00 46.07 LIG 0.17  C 
ATOM     48 OE1  GLU T 968      29.993  42.547 -14.960  1.00 37.62 LIG-0.65  OA
ATOM     49 OE2  GLU T 968      28.487  40.938 -14.704  1.00 42.01 LIG-0.65  OA
ENDBRANCH 46 47
ENDBRANCH 45 46
ENDBRANCH 44 45
BRANCH 44 50
ATOM     50  N   GLU T 968      27.637  43.653 -10.334  1.00 42.28 LIG-0.35  N 
ATOM     51  C   GLU T 967      27.484  42.510  -9.665  1.00 44.22 LIG 0.26  C 
ATOM     52 O    GLU T 967      26.790  41.587 -10.066  1.00 45.73 LIG-0.27  OA
ATOM     53 H    GLU T 968      28.048  44.341 -10.020  1.00 42.28 LIG 0.16  HD
BRANCH 51 54
ATOM     54  CA  GLU T 967      28.214  42.383  -8.334  1.00 63.10 LIG 0.40  C 
ATOM     55  N   GLU T 967      29.044  41.183  -8.324  1.00 61.06 LIG 0.61  N 
BRANCH 54 56
ATOM     56  CB  GLU T 967      29.065  43.628  -8.087  1.00 76.10 LIG 0.06  C 
BRANCH 56 57
ATOM     57  CG  GLU T 967      30.527  43.325  -7.841  1.00 93.75 LIG 0.12  C 
BRANCH 57 58
ATOM     58  CD  GLU T 967      31.236  42.868  -9.099  1.00103.86 LIG 0.17  C 
ATOM     59 OE1  GLU T 967      31.868  41.791  -9.069  1.00104.00 LIG-0.65  OA
ATOM     60 OE2  GLU T 967      31.152  43.583 -10.121  1.00109.28 LIG-0.65  OA
ENDBRANCH 57 58
ENDBRANCH 56 57
ENDBRANCH 54 56
ENDBRANCH 51 54
ENDBRANCH 44 50
ENDBRANCH 41 44
ENDBRANCH 36 40
ENDBRANCH 33 36
ENDBRANCH 1 32
TORSDOF 26
ENDMDL
MODEL 42
USER: ADFR SOLUTION from run 87
USER: SCORE 19.236656 LL:  -5.324 LR: -15.362 RR:   0.000 FEB:  -7.606
USER: RMSD 4.219574
USER: SEED 86
USER: STATUS no improvement in best in 14 clusters for 5 generations
USER: GENES 28
USER: genes 0 Translation |==|  0.50006 0.54261 0.56960
USER: genes 1 Rotation |==|  0.60485 0.39274 0.43231 0.97214
USER: genes 2 Torsion [N]-CA--C-[N] |==|  0.41233
USER: genes 3 Torsion [C]-N--CA-[CB] |==|  0.28008
USER: genes 4 Torsion [N]-CA--CB-[CG] |==|  0.12677
USER: genes 5 Torsion [CA]-CB--CG-[CD] |==|  0.70719
USER: genes 6 Torsion [CB]-CG--CD-[OE1] |==|  0.69133
USER: genes 7 Torsion [N]-CA--C-[N] |==|  0.37577
USER: genes 8 Torsion [C]-N--CA-[CB] |==|  0.48694
USER: genes 9 Torsion [N]-CA--C-[O] |==|  0.88281
USER: genes 10 Torsion [N]-CA--CB-[CG] |==|  0.43770
USER: genes 11 Torsion [CA]-CB--CG-[CD1] |==|  0.73622
USER: genes 12 Torsion [CE1]-CZ--OH-[HH] |==|  0.15920
USER: genes 13 Torsion [C]-CA--CB-[OG] |==|  0.95200
USER: genes 14 Torsion [CA]-CB--OG-[HG] |==|  0.58856
USER: genes 15 Torsion [C]-CA--N-[C] |==|  0.71796
USER: genes 16 Torsion [N]-C--CA-[N] |==|  0.88122
USER: genes 17 Torsion [C]-CA--CB-[CG1] |==|  0.77880
USER: genes 18 Torsion [C]-CA--N-[C] |==|  0.79205
USER: genes 19 Torsion [N]-C--CA-[N] |==|  0.00431
USER: genes 20 Torsion [C]-CA--CB-[CG] |==|  0.43463
USER: genes 21 Torsion [CA]-CB--CG-[CD] |==|  0.32511
USER: genes 22 Torsion [CB]-CG--CD-[OE1] |==|  0.81135
USER: genes 23 Torsion [C]-CA--N-[C] |==|  0.74898
USER: genes 24 Torsion [N]-C--CA-[N] |==|  0.35040
USER: genes 25 Torsion [C]-CA--CB-[CG] |==|  0.88298
USER: genes 26 Torsion [CA]-CB--CG-[CD] |==|  0.75400
USER: genes 27 Torsion [CB]-CG--CD-[OE1] |==|  0.10477
ROOT
ATOM      1  CA  SER T 970      32.238  38.841  -8.014  1.00 53.81 LIG 0.20  C 
ENDROOT
BRANCH 1 2
ATOM      2  C   SER T 970      32.550  38.310  -9.408  1.00 54.98 LIG 0.24  C 
ATOM      3  N   GLU T 971      33.780  38.538  -9.847  1.00 36.24 LIG-0.35  N 
ATOM      4 H    GLU T 971      34.389  38.982  -9.432  1.00 36.24 LIG 0.16  HD
ATOM      5 O    SER T 970      31.719  37.664 -10.067  1.00 50.73 LIG-0.27  OA
BRANCH 3 6
ATOM      6  CA  GLU T 971      34.151  38.001 -11.135  1.00 34.69 LIG 0.18  C 
BRANCH 6 7
ATOM      7  CB  GLU T 971      34.102  39.069 -12.224  1.00 35.28 LIG 0.04  C 
BRANCH 7 8
ATOM      8  CG  GLU T 971      34.760  40.382 -11.804  1.00 38.63 LIG 0.12  C 
BRANCH 8 9
ATOM      9  CD  GLU T 971      33.740  41.476 -11.491  1.00 44.02 LIG 0.17  C 
ATOM     10 OE1  GLU T 971      33.650  42.462 -12.258  1.00 46.94 LIG-0.65  OA
ATOM     11 OE2  GLU T 971      33.027  41.350 -10.474  1.00 38.45 LIG-0.65  OA
ENDBRANCH 8 9
ENDBRANCH 7 8
ENDBRANCH 6 7
BRANCH 6 12
ATOM     12  C   GLU T 971      35.539  37.413 -11.059  1.00 38.38 LIG 0.24  C 
ATOM     13  N   TYR T 972      35.664  36.235 -11.637  1.00 34.07 LIG-0.34  N 
ATOM     14 H    TYR T 972      35.005  35.789 -11.963  1.00 34.07 LIG 0.16  HD
ATOM     15 O    GLU T 971      36.470  38.017 -10.504  1.00 36.91 LIG-0.27  OA
BRANCH 13 16
ATOM     16  CA  TYR T 972      36.947  35.587 -11.771  1.00 35.97 LIG 0.19  C 
BRANCH 16 17
ATOM     17  C   TYR T 972      37.865  36.439 -12.655  1.00 45.43 LIG 0.20  C 
ATOM     18 OXT  TYR T 972      39.038  36.594 -12.312  1.00 40.76 LIG-0.65  OA
ATOM     19 O    TYR T 972      37.477  36.999 -13.697  1.00 41.72 LIG-0.65  OA
ENDBRANCH 16 17
BRANCH 16 20
ATOM     20  CB  TYR T 972      36.783  34.194 -12.370  1.00 33.99 LIG 0.07  C 
BRANCH 20 21
ATOM     21  CG  TYR T 972      38.051  33.729 -13.008  1.00 33.93 LIG-0.06  A 
ATOM     22  CD1 TYR T 972      38.269  33.901 -14.367  1.00 33.64 LIG 0.01  A 
ATOM     23  CE1 TYR T 972      39.448  33.485 -14.951  1.00 37.50 LIG 0.04  A 
ATOM     24  CZ  TYR T 972      40.416  32.911 -14.168  1.00 37.64 LIG 0.07  A 
ATOM     25  CE2 TYR T 972      40.233  32.752 -12.816  1.00 36.30 LIG 0.04  A 
ATOM     26  CD2 TYR T 972      39.058  33.155 -12.242  1.00 38.70 LIG 0.01  A 
BRANCH 24 27
ATOM     27 OH   TYR T 972      41.580  32.496 -14.743  1.00 40.25 LIG-0.36  OA
ATOM     28 HH   TYR T 972      41.946  33.143 -15.133  1.00 40.25 LIG 0.22  HD
ENDBRANCH 24 27
ENDBRANCH 20 21
ENDBRANCH 16 20
ENDBRANCH 13 16
ENDBRANCH 6 12
ENDBRANCH 3 6
ENDBRANCH 1 2
BRANCH 1 29
ATOM     29  CB  SER T 970      32.641  37.767  -6.996  1.00 55.16 LIG 0.20  C 
BRANCH 29 30
ATOM     30 OG   SER T 970      32.793  36.509  -7.627  1.00 59.72 LIG-0.40  OA
ATOM     31 HG   SER T 970      32.582  35.899  -7.090  1.00 59.72 LIG 0.21  HD
ENDBRANCH 29 30
ENDBRANCH 1 29
BRANCH 1 32
ATOM     32  N   SER T 970      30.850  39.260  -7.781  1.00 52.51 LIG-0.34  N 
ATOM     33  C   VAL T 969      30.494  40.543  -7.791  1.00 50.69 LIG 0.24  C 
ATOM     34 O    VAL T 969      31.212  41.429  -8.257  1.00 50.98 LIG-0.27  OA
ATOM     35 H    SER T 970      30.303  38.612  -7.641  1.00 52.51 LIG 0.16  HD
BRANCH 33 36
ATOM     36  CA  VAL T 969      29.090  40.870  -7.248  1.00 48.28 LIG 0.18  C 
BRANCH 36 37
ATOM     37  CB  VAL T 969      29.079  40.902  -5.712  1.00 45.61 LIG 0.01  C 
ATOM     38  CG1 VAL T 969      29.017  39.494  -5.122  1.00 51.33 LIG 0.01  C 
ATOM     39  CG2 VAL T 969      30.313  41.642  -5.195  1.00 51.13 LIG 0.01  C 
ENDBRANCH 36 37
BRANCH 36 40
ATOM     40  N   VAL T 969      28.147  39.889  -7.750  1.00 42.62 LIG-0.35  N 
ATOM     41  C   GLU T 968      27.740  39.934  -9.008  1.00 39.23 LIG 0.24  C 
ATOM     42 O    GLU T 968      28.048  40.839  -9.776  1.00 41.64 LIG-0.27  OA
ATOM     43 H    VAL T 969      27.891  39.303  -7.175  1.00 42.62 LIG 0.16  HD
BRANCH 41 44
ATOM     44  CA  GLU T 968      26.910  38.770  -9.505  1.00 43.46 LIG 0.18  C 
BRANCH 44 45
ATOM     45  CB  GLU T 968      25.608  39.354 -10.024  1.00 39.65 LIG 0.04  C 
BRANCH 45 46
ATOM     46  CG  GLU T 968      24.847  38.576 -11.021  1.00 48.42 LIG 0.12  C 
BRANCH 46 47
ATOM     47  CD  GLU T 968      23.505  38.202 -10.431  1.00 46.07 LIG 0.17  C 
ATOM     48 OE1  GLU T 968      23.496  37.383  -9.478  1.00 37.62 LIG-0.65  OA
ATOM     49 OE2  GLU T 968      22.480  38.777 -10.872  1.00 42.01 LIG-0.65  OA
ENDBRANCH 46 47
ENDBRANCH 45 46
ENDBRANCH 44 45
BRANCH 44 50
ATOM     50  N   GLU T 968      26.672  37.788  -8.450  1.00 42.28 LIG-0.35  N 
ATOM     51  C   GLU T 967      27.500  36.764  -8.244  1.00 44.22 LIG 0.26  C 
ATOM     52 O    GLU T 967      28.432  36.496  -8.988  1.00 45.73 LIG-0.27  OA
ATOM     53 H    GLU T 968      25.963  37.932  -7.985  1.00 42.28 LIG 0.16  HD
BRANCH 51 54
ATOM     54  CA  GLU T 967      27.239  35.897  -7.019  1.00 63.10 LIG 0.40  C 
ATOM     55  N   GLU T 967      27.129  34.494  -7.406  1.00 61.06 LIG 0.61  N 
BRANCH 54 56
ATOM     56  CB  GLU T 967      28.362  36.087  -6.000  1.00 76.10 LIG 0.06  C 
BRANCH 56 57
ATOM     57  CG  GLU T 967      29.742  36.134  -6.619  1.00 93.75 LIG 0.12  C 
BRANCH 57 58
ATOM     58  CD  GLU T 967      30.359  34.756  -6.746  1.00103.86 LIG 0.17  C 
ATOM     59 OE1  GLU T 967      29.619  33.798  -7.052  1.00104.00 LIG-0.65  OA
ATOM     60 OE2  GLU T 967      31.588  34.635  -6.548  1.00109.28 LIG-0.65  OA
ENDBRANCH 57 58
ENDBRANCH 56 57
ENDBRANCH 54 56
ENDBRANCH 51 54
ENDBRANCH 44 50
ENDBRANCH 41 44
ENDBRANCH 36 40
ENDBRANCH 33 36
ENDBRANCH 1 32
TORSDOF 26
ENDMDL
MODEL 43
USER: ADFR SOLUTION from run 153
USER: SCORE 18.726013 LL:  -4.772 LR: -15.334 RR:   0.000 FEB:  -7.579
USER: RMSD 12.228876
USER: SEED 152
USER: STATUS no improvement in best in 26 clusters for 5 generations
USER: GENES 28
USER: genes 0 Translation |==|  0.57585 0.50556 0.43291
USER: genes 1 Rotation |==|  0.22461 0.08790 0.56534 0.50774
USER: genes 2 Torsion [N]-CA--C-[N] |==|  0.28907
USER: genes 3 Torsion [C]-N--CA-[CB] |==|  0.84213
USER: genes 4 Torsion [N]-CA--CB-[CG] |==|  0.80169
USER: genes 5 Torsion [CA]-CB--CG-[CD] |==|  0.29304
USER: genes 6 Torsion [CB]-CG--CD-[OE1] |==|  0.29432
USER: genes 7 Torsion [N]-CA--C-[N] |==|  0.31667
USER: genes 8 Torsion [C]-N--CA-[CB] |==|  0.45916
USER: genes 9 Torsion [N]-CA--C-[O] |==|  0.32123
USER: genes 10 Torsion [N]-CA--CB-[CG] |==|  0.58339
USER: genes 11 Torsion [CA]-CB--CG-[CD1] |==|  0.23733
USER: genes 12 Torsion [CE1]-CZ--OH-[HH] |==|  0.02366
USER: genes 13 Torsion [C]-CA--CB-[OG] |==|  0.64004
USER: genes 14 Torsion [CA]-CB--OG-[HG] |==|  0.17844
USER: genes 15 Torsion [C]-CA--N-[C] |==|  0.65797
USER: genes 16 Torsion [N]-C--CA-[N] |==|  0.49605
USER: genes 17 Torsion [C]-CA--CB-[CG1] |==|  0.39579
USER: genes 18 Torsion [C]-CA--N-[C] |==|  0.57658
USER: genes 19 Torsion [N]-C--CA-[N] |==|  0.26033
USER: genes 20 Torsion [C]-CA--CB-[CG] |==|  0.52792
USER: genes 21 Torsion [CA]-CB--CG-[CD] |==|  0.22813
USER: genes 22 Torsion [CB]-CG--CD-[OE1] |==|  0.19113
USER: genes 23 Torsion [C]-CA--N-[C] |==|  0.79968
USER: genes 24 Torsion [N]-C--CA-[N] |==|  0.15107
USER: genes 25 Torsion [C]-CA--CB-[CG] |==|  0.28227
USER: genes 26 Torsion [CA]-CB--CG-[CD] |==|  0.14072
USER: genes 27 Torsion [CB]-CG--CD-[OE1] |==|  0.57389
ROOT
ATOM      1  CA  SER T 970      34.398  38.118 -10.679  1.00 53.81 LIG 0.20  C 
ENDROOT
BRANCH 1 2
ATOM      2  C   SER T 970      33.652  37.935  -9.363  1.00 54.98 LIG 0.24  C 
ATOM      3  N   GLU T 971      34.286  38.361  -8.279  1.00 36.24 LIG-0.35  N 
ATOM      4 H    GLU T 971      35.080  38.691  -8.257  1.00 36.24 LIG 0.16  HD
ATOM      5 O    SER T 970      32.504  37.462  -9.317  1.00 50.73 LIG-0.27  OA
BRANCH 3 6
ATOM      6  CA  GLU T 971      33.599  38.272  -7.012  1.00 34.69 LIG 0.18  C 
BRANCH 6 7
ATOM      7  CB  GLU T 971      32.268  39.017  -7.043  1.00 35.28 LIG 0.04  C 
BRANCH 7 8
ATOM      8  CG  GLU T 971      32.432  40.535  -7.071  1.00 38.63 LIG 0.12  C 
BRANCH 8 9
ATOM      9  CD  GLU T 971      32.136  41.132  -8.446  1.00 44.02 LIG 0.17  C 
ATOM     10 OE1  GLU T 971      31.066  41.759  -8.620  1.00 46.94 LIG-0.65  OA
ATOM     11 OE2  GLU T 971      32.976  40.973  -9.356  1.00 38.45 LIG-0.65  OA
ENDBRANCH 8 9
ENDBRANCH 7 8
ENDBRANCH 6 7
BRANCH 6 12
ATOM     12  C   GLU T 971      33.365  36.822  -6.663  1.00 38.38 LIG 0.24  C 
ATOM     13  N   TYR T 972      34.025  36.404  -5.602  1.00 34.07 LIG-0.34  N 
ATOM     14 H    TYR T 972      34.605  36.878  -5.181  1.00 34.07 LIG 0.16  HD
ATOM     15 O    GLU T 971      32.598  36.110  -7.330  1.00 36.91 LIG-0.27  OA
BRANCH 13 16
ATOM     16  CA  TYR T 972      33.821  35.085  -5.051  1.00 35.97 LIG 0.19  C 
BRANCH 16 17
ATOM     17  C   TYR T 972      32.464  35.028  -4.339  1.00 45.43 LIG 0.20  C 
ATOM     18 OXT  TYR T 972      32.295  35.721  -3.335  1.00 40.76 LIG-0.65  OA
ATOM     19 O    TYR T 972      31.529  34.299  -4.718  1.00 41.72 LIG-0.65  OA
ENDBRANCH 16 17
BRANCH 16 20
ATOM     20  CB  TYR T 972      34.942  34.731  -4.079  1.00 33.99 LIG 0.07  C 
BRANCH 20 21
ATOM     21  CG  TYR T 972      35.190  33.259  -4.057  1.00 33.93 LIG-0.06  A 
ATOM     22  CD1 TYR T 972      36.035  32.665  -4.983  1.00 33.64 LIG 0.01  A 
ATOM     23  CE1 TYR T 972      36.275  31.306  -4.951  1.00 37.50 LIG 0.04  A 
ATOM     24  CZ  TYR T 972      35.679  30.546  -3.978  1.00 37.64 LIG 0.07  A 
ATOM     25  CE2 TYR T 972      34.859  31.114  -3.035  1.00 36.30 LIG 0.04  A 
ATOM     26  CD2 TYR T 972      34.614  32.460  -3.077  1.00 38.70 LIG 0.01  A 
BRANCH 24 27
ATOM     27 OH   TYR T 972      35.912  29.203  -3.946  1.00 40.25 LIG-0.36  OA
ATOM     28 HH   TYR T 972      36.517  29.010  -4.496  1.00 40.25 LIG 0.22  HD
ENDBRANCH 24 27
ENDBRANCH 20 21
ENDBRANCH 16 20
ENDBRANCH 13 16
ENDBRANCH 6 12
ENDBRANCH 3 6
ENDBRANCH 1 2
BRANCH 1 29
ATOM     29  CB  SER T 970      33.432  38.752 -11.687  1.00 55.16 LIG 0.20  C 
BRANCH 29 30
ATOM     30 OG   SER T 970      33.424  38.025 -12.902  1.00 59.72 LIG-0.40  OA
ATOM     31 HG   SER T 970      33.125  37.252 -12.763  1.00 59.72 LIG 0.21  HD
ENDBRANCH 29 30
ENDBRANCH 1 29
BRANCH 1 32
ATOM     32  N   SER T 970      35.001  36.908 -11.251  1.00 52.51 LIG-0.34  N 
ATOM     33  C   VAL T 969      36.301  36.833 -11.524  1.00 50.69 LIG 0.24  C 
ATOM     34 O    VAL T 969      37.121  37.635 -11.076  1.00 50.98 LIG-0.27  OA
ATOM     35 H    SER T 970      34.444  36.267 -11.390  1.00 52.51 LIG 0.16  HD
BRANCH 33 36
ATOM     36  CA  VAL T 969      36.756  35.639 -12.383  1.00 48.28 LIG 0.18  C 
BRANCH 36 37
ATOM     37  CB  VAL T 969      36.396  34.302 -11.716  1.00 45.61 LIG 0.01  C 
ATOM     38  CG1 VAL T 969      35.961  33.261 -12.746  1.00 51.33 LIG 0.01  C 
ATOM     39  CG2 VAL T 969      37.585  33.786 -10.905  1.00 51.13 LIG 0.01  C 
ENDBRANCH 36 37
BRANCH 36 40
ATOM     40  N   VAL T 969      38.186  35.734 -12.608  1.00 42.62 LIG-0.35  N 
ATOM     41  C   GLU T 968      38.728  35.206 -13.693  1.00 39.23 LIG 0.24  C 
ATOM     42 O    GLU T 968      38.091  34.539 -14.501  1.00 41.64 LIG-0.27  OA
ATOM     43 H    VAL T 969      38.624  36.147 -11.995  1.00 42.62 LIG 0.16  HD
BRANCH 41 44
ATOM     44  CA  GLU T 968      40.189  35.511 -13.950  1.00 43.46 LIG 0.18  C 
BRANCH 44 45
ATOM     45  CB  GLU T 968      40.349  35.637 -15.455  1.00 39.65 LIG 0.04  C 
BRANCH 45 46
ATOM     46  CG  GLU T 968      41.717  35.710 -16.004  1.00 48.42 LIG 0.12  C 
BRANCH 46 47
ATOM     47  CD  GLU T 968      42.274  34.308 -16.120  1.00 46.07 LIG 0.17  C 
ATOM     48 OE1  GLU T 968      41.763  33.548 -16.980  1.00 37.62 LIG-0.65  OA
ATOM     49 OE2  GLU T 968      43.259  33.999 -15.406  1.00 42.01 LIG-0.65  OA
ENDBRANCH 46 47
ENDBRANCH 45 46
ENDBRANCH 44 45
BRANCH 44 50
ATOM     50  N   GLU T 968      41.060  34.474 -13.405  1.00 42.28 LIG-0.35  N 
ATOM     51  C   GLU T 967      41.253  34.338 -12.093  1.00 44.22 LIG 0.26  C 
ATOM     52 O    GLU T 967      40.829  35.133 -11.267  1.00 45.73 LIG-0.27  OA
ATOM     53 H    GLU T 968      41.428  33.972 -13.998  1.00 42.28 LIG 0.16  HD
BRANCH 51 54
ATOM     54  CA  GLU T 967      42.053  33.126 -11.632  1.00 63.10 LIG 0.40  C 
ATOM     55  N   GLU T 967      43.343  33.083 -12.314  1.00 61.06 LIG 0.61  N 
BRANCH 54 56
ATOM     56  CB  GLU T 967      42.246  33.176 -10.117  1.00 76.10 LIG 0.06  C 
BRANCH 56 57
ATOM     57  CG  GLU T 967      41.313  32.260  -9.356  1.00 93.75 LIG 0.12  C 
BRANCH 57 58
ATOM     58  CD  GLU T 967      41.329  30.846  -9.902  1.00103.86 LIG 0.17  C 
ATOM     59 OE1  GLU T 967      40.313  30.137  -9.748  1.00104.00 LIG-0.65  OA
ATOM     60 OE2  GLU T 967      42.356  30.450 -10.493  1.00109.28 LIG-0.65  OA
ENDBRANCH 57 58
ENDBRANCH 56 57
ENDBRANCH 54 56
ENDBRANCH 51 54
ENDBRANCH 44 50
ENDBRANCH 41 44
ENDBRANCH 36 40
ENDBRANCH 33 36
ENDBRANCH 1 32
TORSDOF 26
ENDMDL
MODEL 44
USER: ADFR SOLUTION from run 31
USER: SCORE 20.260038 LL:  -5.986 LR: -15.333 RR:   0.000 FEB:  -7.577
USER: RMSD 9.204023
USER: SEED 30
USER: STATUS no improvement in best in 4 clusters for 5 generations
USER: GENES 28
USER: genes 0 Translation |==|  0.66832 0.36211 0.30091
USER: genes 1 Rotation |==|  0.51773 0.21586 0.43144 0.90528
USER: genes 2 Torsion [N]-CA--C-[N] |==|  0.42970
USER: genes 3 Torsion [C]-N--CA-[CB] |==|  0.19444
USER: genes 4 Torsion [N]-CA--CB-[CG] |==|  0.16970
USER: genes 5 Torsion [CA]-CB--CG-[CD] |==|  0.77645
USER: genes 6 Torsion [CB]-CG--CD-[OE1] |==|  0.76291
USER: genes 7 Torsion [N]-CA--C-[N] |==|  0.12609
USER: genes 8 Torsion [C]-N--CA-[CB] |==|  0.35975
USER: genes 9 Torsion [N]-CA--C-[O] |==|  0.88080
USER: genes 10 Torsion [N]-CA--CB-[CG] |==|  0.96046
USER: genes 11 Torsion [CA]-CB--CG-[CD1] |==|  0.24909
USER: genes 12 Torsion [CE1]-CZ--OH-[HH] |==|  0.58692
USER: genes 13 Torsion [C]-CA--CB-[OG] |==|  0.49403
USER: genes 14 Torsion [CA]-CB--OG-[HG] |==|  0.26219
USER: genes 15 Torsion [C]-CA--N-[C] |==|  0.77876
USER: genes 16 Torsion [N]-C--CA-[N] |==|  0.22476
USER: genes 17 Torsion [C]-CA--CB-[CG1] |==|  0.45080
USER: genes 18 Torsion [C]-CA--N-[C] |==|  0.61176
USER: genes 19 Torsion [N]-C--CA-[N] |==|  0.88484
USER: genes 20 Torsion [C]-CA--CB-[CG] |==|  0.12122
USER: genes 21 Torsion [CA]-CB--CG-[CD] |==|  0.20343
USER: genes 22 Torsion [CB]-CG--CD-[OE1] |==|  0.73710
USER: genes 23 Torsion [C]-CA--N-[C] |==|  0.82329
USER: genes 24 Torsion [N]-C--CA-[N] |==|  0.82360
USER: genes 25 Torsion [C]-CA--CB-[CG] |==|  0.23215
USER: genes 26 Torsion [CA]-CB--CG-[CD] |==|  0.99394
USER: genes 27 Torsion [CB]-CG--CD-[OE1] |==|  0.73585
ROOT
ATOM      1  CA  SER T 970      37.033  35.321 -13.253  1.00 53.81 LIG 0.20  C 
ENDROOT
BRANCH 1 2
ATOM      2  C   SER T 970      37.865  34.216 -13.893  1.00 54.98 LIG 0.24  C 
ATOM      3  N   GLU T 971      39.057  34.007 -13.352  1.00 36.24 LIG-0.35  N 
ATOM      4 H    GLU T 971      39.403  34.458 -12.707  1.00 36.24 LIG 0.16  HD
ATOM      5 O    SER T 970      37.432  33.526 -14.831  1.00 50.73 LIG-0.27  OA
BRANCH 3 6
ATOM      6  CA  GLU T 971      39.861  32.928 -13.877  1.00 34.69 LIG 0.18  C 
BRANCH 6 7
ATOM      7  CB  GLU T 971      40.370  33.241 -15.281  1.00 35.28 LIG 0.04  C 
BRANCH 7 8
ATOM      8  CG  GLU T 971      41.260  34.481 -15.333  1.00 38.63 LIG 0.12  C 
BRANCH 8 9
ATOM      9  CD  GLU T 971      40.456  35.781 -15.352  1.00 44.02 LIG 0.17  C 
ATOM     10 OE1  GLU T 971      40.039  36.222 -16.447  1.00 46.94 LIG-0.65  OA
ATOM     11 OE2  GLU T 971      40.242  36.363 -14.269  1.00 38.45 LIG-0.65  OA
ENDBRANCH 8 9
ENDBRANCH 7 8
ENDBRANCH 6 7
BRANCH 6 12
ATOM     12  C   GLU T 971      41.029  32.671 -12.955  1.00 38.38 LIG 0.24  C 
ATOM     13  N   TYR T 972      40.714  32.632 -11.676  1.00 34.07 LIG-0.34  N 
ATOM     14 H    TYR T 972      39.932  32.815 -11.369  1.00 34.07 LIG 0.16  HD
ATOM     15 O    GLU T 971      42.176  32.501 -13.394  1.00 36.91 LIG-0.27  OA
BRANCH 13 16
ATOM     16  CA  TYR T 972      41.680  32.271 -10.666  1.00 35.97 LIG 0.19  C 
BRANCH 16 17
ATOM     17  C   TYR T 972      41.345  30.883 -10.105  1.00 45.43 LIG 0.20  C 
ATOM     18 OXT  TYR T 972      42.261  30.077  -9.938  1.00 40.76 LIG-0.65  OA
ATOM     19 O    TYR T 972      40.186  30.526  -9.826  1.00 41.72 LIG-0.65  OA
ENDBRANCH 16 17
BRANCH 16 20
ATOM     20  CB  TYR T 972      41.696  33.304  -9.544  1.00 33.99 LIG 0.07  C 
BRANCH 20 21
ATOM     21  CG  TYR T 972      40.982  34.551  -9.950  1.00 33.93 LIG-0.06  A 
ATOM     22  CD1 TYR T 972      39.621  34.697  -9.726  1.00 33.64 LIG 0.01  A 
ATOM     23  CE1 TYR T 972      38.966  35.857 -10.088  1.00 37.50 LIG 0.04  A 
ATOM     24  CZ  TYR T 972      39.681  36.876 -10.661  1.00 37.64 LIG 0.07  A 
ATOM     25  CE2 TYR T 972      41.033  36.765 -10.871  1.00 36.30 LIG 0.04  A 
ATOM     26  CD2 TYR T 972      41.677  35.609 -10.522  1.00 38.70 LIG 0.01  A 
BRANCH 24 27
ATOM     27 OH   TYR T 972      39.035  38.022 -11.023  1.00 40.25 LIG-0.36  OA
ATOM     28 HH   TYR T 972      39.414  38.357 -11.693  1.00 40.25 LIG 0.22  HD
ENDBRANCH 24 27
ENDBRANCH 20 21
ENDBRANCH 16 20
ENDBRANCH 13 16
ENDBRANCH 6 12
ENDBRANCH 3 6
ENDBRANCH 1 2
BRANCH 1 29
ATOM     29  CB  SER T 970      36.358  34.743 -12.004  1.00 55.16 LIG 0.20  C 
BRANCH 29 30
ATOM     30 OG   SER T 970      35.606  35.738 -11.333  1.00 59.72 LIG-0.40  OA
ATOM     31 HG   SER T 970      34.807  35.705 -11.589  1.00 59.72 LIG 0.21  HD
ENDBRANCH 29 30
ENDBRANCH 1 29
BRANCH 1 32
ATOM     32  N   SER T 970      36.032  35.957 -14.119  1.00 52.51 LIG-0.34  N 
ATOM     33  C   VAL T 969      36.364  36.892 -15.006  1.00 50.69 LIG 0.24  C 
ATOM     34 O    VAL T 969      37.527  37.091 -15.358  1.00 50.98 LIG-0.27  OA
ATOM     35 H    SER T 970      35.229  35.672 -14.000  1.00 52.51 LIG 0.16  HD
BRANCH 33 36
ATOM     36  CA  VAL T 969      35.203  37.683 -15.637  1.00 48.28 LIG 0.18  C 
BRANCH 36 37
ATOM     37  CB  VAL T 969      35.607  38.280 -16.994  1.00 45.61 LIG 0.01  C 
ATOM     38  CG1 VAL T 969      34.383  38.680 -17.817  1.00 51.33 LIG 0.01  C 
ATOM     39  CG2 VAL T 969      36.525  39.484 -16.784  1.00 51.13 LIG 0.01  C 
ENDBRANCH 36 37
BRANCH 36 40
ATOM     40  N   VAL T 969      34.786  38.727 -14.719  1.00 42.62 LIG-0.35  N 
ATOM     41  C   GLU T 968      33.502  39.000 -14.557  1.00 39.23 LIG 0.24  C 
ATOM     42 O    GLU T 968      32.618  38.475 -15.225  1.00 41.64 LIG-0.27  OA
ATOM     43 H    VAL T 969      35.427  39.130 -14.311  1.00 42.62 LIG 0.16  HD
BRANCH 41 44
ATOM     44  CA  GLU T 968      33.139  39.964 -13.447  1.00 43.46 LIG 0.18  C 
BRANCH 44 45
ATOM     45  CB  GLU T 968      33.385  41.362 -13.987  1.00 39.65 LIG 0.04  C 
BRANCH 45 46
ATOM     46  CG  GLU T 968      32.933  41.666 -15.359  1.00 48.42 LIG 0.12  C 
BRANCH 46 47
ATOM     47  CD  GLU T 968      31.425  41.783 -15.364  1.00 46.07 LIG 0.17  C 
ATOM     48 OE1  GLU T 968      30.762  40.759 -15.667  1.00 37.62 LIG-0.65  OA
ATOM     49 OE2  GLU T 968      30.912  42.869 -14.999  1.00 42.01 LIG-0.65  OA
ENDBRANCH 46 47
ENDBRANCH 45 46
ENDBRANCH 44 45
BRANCH 44 50
ATOM     50  N   GLU T 968      33.920  39.713 -12.238  1.00 42.28 LIG-0.35  N 
ATOM     51  C   GLU T 967      33.819  38.568 -11.563  1.00 44.22 LIG 0.26  C 
ATOM     52 O    GLU T 967      32.988  37.709 -11.820  1.00 45.73 LIG-0.27  OA
ATOM     53 H    GLU T 968      34.439  40.360 -12.010  1.00 42.28 LIG 0.16  HD
BRANCH 51 54
ATOM     54  CA  GLU T 967      34.794  38.354 -10.412  1.00 63.10 LIG 0.40  C 
ATOM     55  N   GLU T 967      36.164  38.303 -10.913  1.00 61.06 LIG 0.61  N 
BRANCH 54 56
ATOM     56  CB  GLU T 967      34.638  39.474  -9.384  1.00 76.10 LIG 0.06  C 
BRANCH 56 57
ATOM     57  CG  GLU T 967      33.516  39.239  -8.396  1.00 93.75 LIG 0.12  C 
BRANCH 57 58
ATOM     58  CD  GLU T 967      32.759  37.958  -8.685  1.00103.86 LIG 0.17  C 
ATOM     59 OE1  GLU T 967      31.717  38.023  -9.371  1.00104.00 LIG-0.65  OA
ATOM     60 OE2  GLU T 967      33.213  36.885  -8.233  1.00109.28 LIG-0.65  OA
ENDBRANCH 57 58
ENDBRANCH 56 57
ENDBRANCH 54 56
ENDBRANCH 51 54
ENDBRANCH 44 50
ENDBRANCH 41 44
ENDBRANCH 36 40
ENDBRANCH 33 36
ENDBRANCH 1 32
TORSDOF 26
ENDMDL
MODEL 45
USER: ADFR SOLUTION from run 191
USER: SCORE 20.453545 LL:  -5.610 LR: -15.309 RR:   0.000 FEB:  -7.553
USER: RMSD 7.998555
USER: SEED 190
USER: STATUS searching
USER: GENES 28
USER: genes 0 Translation |==|  0.67862 0.38202 0.31630
USER: genes 1 Rotation |==|  0.49984 0.27870 0.44247 0.94465
USER: genes 2 Torsion [N]-CA--C-[N] |==|  0.48886
USER: genes 3 Torsion [C]-N--CA-[CB] |==|  0.17222
USER: genes 4 Torsion [N]-CA--CB-[CG] |==|  0.19657
USER: genes 5 Torsion [CA]-CB--CG-[CD] |==|  0.35808
USER: genes 6 Torsion [CB]-CG--CD-[OE1] |==|  0.15938
USER: genes 7 Torsion [N]-CA--C-[N] |==|  0.10556
USER: genes 8 Torsion [C]-N--CA-[CB] |==|  0.35478
USER: genes 9 Torsion [N]-CA--C-[O] |==|  0.90572
USER: genes 10 Torsion [N]-CA--CB-[CG] |==|  0.01147
USER: genes 11 Torsion [CA]-CB--CG-[CD1] |==|  0.25286
USER: genes 12 Torsion [CE1]-CZ--OH-[HH] |==|  0.56590
USER: genes 13 Torsion [C]-CA--CB-[OG] |==|  0.72420
USER: genes 14 Torsion [CA]-CB--OG-[HG] |==|  0.85590
USER: genes 15 Torsion [C]-CA--N-[C] |==|  0.60677
USER: genes 16 Torsion [N]-C--CA-[N] |==|  0.34566
USER: genes 17 Torsion [C]-CA--CB-[CG1] |==|  0.16729
USER: genes 18 Torsion [C]-CA--N-[C] |==|  0.84982
USER: genes 19 Torsion [N]-C--CA-[N] |==|  0.47545
USER: genes 20 Torsion [C]-CA--CB-[CG] |==|  0.42998
USER: genes 21 Torsion [CA]-CB--CG-[CD] |==|  0.08011
USER: genes 22 Torsion [CB]-CG--CD-[OE1] |==|  0.70607
USER: genes 23 Torsion [C]-CA--N-[C] |==|  0.78062
USER: genes 24 Torsion [N]-C--CA-[N] |==|  0.03899
USER: genes 25 Torsion [C]-CA--CB-[CG] |==|  0.29102
USER: genes 26 Torsion [CA]-CB--CG-[CD] |==|  0.12439
USER: genes 27 Torsion [CB]-CG--CD-[OE1] |==|  0.02954
ROOT
ATOM      1  CA  SER T 970      37.327  35.709 -12.953  1.00 53.81 LIG 0.20  C 
ENDROOT
BRANCH 1 2
ATOM      2  C   SER T 970      37.967  34.584 -13.757  1.00 54.98 LIG 0.24  C 
ATOM      3  N   GLU T 971      39.124  34.132 -13.292  1.00 36.24 LIG-0.35  N 
ATOM      4 H    GLU T 971      39.547  34.441 -12.610  1.00 36.24 LIG 0.16  HD
ATOM      5 O    SER T 970      37.415  34.091 -14.754  1.00 50.73 LIG-0.27  OA
BRANCH 3 6
ATOM      6  CA  GLU T 971      39.743  33.022 -13.977  1.00 34.69 LIG 0.18  C 
BRANCH 6 7
ATOM      7  CB  GLU T 971      40.089  33.377 -15.420  1.00 35.28 LIG 0.04  C 
BRANCH 7 8
ATOM      8  CG  GLU T 971      41.247  34.366 -15.533  1.00 38.63 LIG 0.12  C 
BRANCH 8 9
ATOM      9  CD  GLU T 971      42.335  33.890 -16.495  1.00 44.02 LIG 0.17  C 
ATOM     10 OE1  GLU T 971      42.028  33.633 -17.681  1.00 46.94 LIG-0.65  OA
ATOM     11 OE2  GLU T 971      43.499  33.771 -16.062  1.00 38.45 LIG-0.65  OA
ENDBRANCH 8 9
ENDBRANCH 7 8
ENDBRANCH 6 7
BRANCH 6 12
ATOM     12  C   GLU T 971      40.993  32.605 -13.240  1.00 38.38 LIG 0.24  C 
ATOM     13  N   TYR T 972      40.894  32.661 -11.927  1.00 34.07 LIG-0.34  N 
ATOM     14 H    TYR T 972      40.214  32.981 -11.510  1.00 34.07 LIG 0.16  HD
ATOM     15 O    GLU T 971      42.009  32.231 -13.845  1.00 36.91 LIG-0.27  OA
BRANCH 13 16
ATOM     16  CA  TYR T 972      41.946  32.177 -11.065  1.00 35.97 LIG 0.19  C 
BRANCH 16 17
ATOM     17  C   TYR T 972      41.477  30.909 -10.341  1.00 45.43 LIG 0.20  C 
ATOM     18 OXT  TYR T 972      42.300  30.021 -10.114  1.00 40.76 LIG-0.65  OA
ATOM     19 O    TYR T 972      40.298  30.726  -9.988  1.00 41.72 LIG-0.65  OA
ENDBRANCH 16 17
BRANCH 16 20
ATOM     20  CB  TYR T 972      42.343  33.246 -10.052  1.00 33.99 LIG 0.07  C 
BRANCH 20 21
ATOM     21  CG  TYR T 972      41.470  34.451 -10.169  1.00 33.93 LIG-0.06  A 
ATOM     22  CD1 TYR T 972      40.309  34.565  -9.418  1.00 33.64 LIG 0.01  A 
ATOM     23  CE1 TYR T 972      39.511  35.687  -9.517  1.00 37.50 LIG 0.04  A 
ATOM     24  CZ  TYR T 972      39.887  36.702 -10.359  1.00 37.64 LIG 0.07  A 
ATOM     25  CE2 TYR T 972      41.044  36.622 -11.095  1.00 36.30 LIG 0.04  A 
ATOM     26  CD2 TYR T 972      41.827  35.504 -11.003  1.00 38.70 LIG 0.01  A 
BRANCH 24 27
ATOM     27 OH   TYR T 972      39.098  37.809 -10.462  1.00 40.25 LIG-0.36  OA
ATOM     28 HH   TYR T 972      39.237  38.184 -11.200  1.00 40.25 LIG 0.22  HD
ENDBRANCH 24 27
ENDBRANCH 20 21
ENDBRANCH 16 20
ENDBRANCH 13 16
ENDBRANCH 6 12
ENDBRANCH 3 6
ENDBRANCH 1 2
BRANCH 1 29
ATOM     29  CB  SER T 970      37.073  35.193 -11.532  1.00 55.16 LIG 0.20  C 
BRANCH 29 30
ATOM     30 OG   SER T 970      35.723  34.798 -11.375  1.00 59.72 LIG-0.40  OA
ATOM     31 HG   SER T 970      35.217  35.420 -11.624  1.00 59.72 LIG 0.21  HD
ENDBRANCH 29 30
ENDBRANCH 1 29
BRANCH 1 32
ATOM     32  N   SER T 970      36.093  36.277 -13.511  1.00 52.51 LIG-0.34  N 
ATOM     33  C   VAL T 969      35.831  37.580 -13.453  1.00 50.69 LIG 0.24  C 
ATOM     34 O    VAL T 969      36.693  38.420 -13.190  1.00 50.98 LIG-0.27  OA
ATOM     35 H    SER T 970      35.568  35.698 -13.871  1.00 52.51 LIG 0.16  HD
BRANCH 33 36
ATOM     36  CA  VAL T 969      34.393  38.009 -13.801  1.00 48.28 LIG 0.18  C 
BRANCH 36 37
ATOM     37  CB  VAL T 969      34.353  38.825 -15.102  1.00 45.61 LIG 0.01  C 
ATOM     38  CG1 VAL T 969      34.886  38.019 -16.286  1.00 51.33 LIG 0.01  C 
ATOM     39  CG2 VAL T 969      32.926  39.299 -15.379  1.00 51.13 LIG 0.01  C 
ENDBRANCH 36 37
BRANCH 36 40
ATOM     40  N   VAL T 969      33.846  38.774 -12.696  1.00 42.62 LIG-0.35  N 
ATOM     41  C   GLU T 968      33.844  38.273 -11.472  1.00 39.23 LIG 0.24  C 
ATOM     42 O    GLU T 968      34.202  37.128 -11.219  1.00 41.64 LIG-0.27  OA
ATOM     43 H    VAL T 969      33.537  39.548 -12.907  1.00 42.62 LIG 0.16  HD
BRANCH 41 44
ATOM     44  CA  GLU T 968      33.434  39.202 -10.349  1.00 43.46 LIG 0.18  C 
BRANCH 44 45
ATOM     45  CB  GLU T 968      34.512  40.267 -10.249  1.00 39.65 LIG 0.04  C 
BRANCH 45 46
ATOM     46  CG  GLU T 968      34.144  41.576  -9.677  1.00 48.42 LIG 0.12  C 
BRANCH 46 47
ATOM     47  CD  GLU T 968      33.013  41.380  -8.691  1.00 46.07 LIG 0.17  C 
ATOM     48 OE1  GLU T 968      31.863  41.747  -9.043  1.00 37.62 LIG-0.65  OA
ATOM     49 OE2  GLU T 968      33.263  40.800  -7.606  1.00 42.01 LIG-0.65  OA
ENDBRANCH 46 47
ENDBRANCH 45 46
ENDBRANCH 44 45
BRANCH 44 50
ATOM     50  N   GLU T 968      33.273  38.484  -9.087  1.00 42.28 LIG-0.35  N 
ATOM     51  C   GLU T 967      32.178  37.772  -8.819  1.00 44.22 LIG 0.26  C 
ATOM     52 O    GLU T 967      31.189  37.769  -9.537  1.00 45.73 LIG-0.27  OA
ATOM     53 H    GLU T 968      33.937  38.564  -8.546  1.00 42.28 LIG 0.16  HD
BRANCH 51 54
ATOM     54  CA  GLU T 967      32.188  36.939  -7.544  1.00 63.10 LIG 0.40  C 
ATOM     55  N   GLU T 967      33.294  37.346  -6.683  1.00 61.06 LIG 0.61  N 
BRANCH 54 56
ATOM     56  CB  GLU T 967      30.854  37.091  -6.814  1.00 76.10 LIG 0.06  C 
BRANCH 56 57
ATOM     57  CG  GLU T 967      29.948  35.886  -6.950  1.00 93.75 LIG 0.12  C 
BRANCH 57 58
ATOM     58  CD  GLU T 967      30.694  34.583  -6.746  1.00103.86 LIG 0.17  C 
ATOM     59 OE1  GLU T 967      31.861  34.628  -6.304  1.00104.00 LIG-0.65  OA
ATOM     60 OE2  GLU T 967      30.107  33.514  -7.020  1.00109.28 LIG-0.65  OA
ENDBRANCH 57 58
ENDBRANCH 56 57
ENDBRANCH 54 56
ENDBRANCH 51 54
ENDBRANCH 44 50
ENDBRANCH 41 44
ENDBRANCH 36 40
ENDBRANCH 33 36
ENDBRANCH 1 32
TORSDOF 26
ENDMDL
MODEL 46
USER: ADFR SOLUTION from run 30
USER: SCORE 18.469665 LL:  -5.126 LR: -15.310 RR:   0.000 FEB:  -7.554
USER: RMSD 6.649922
USER: SEED 29
USER: STATUS no improvement in best in 10 clusters for 5 generations
USER: GENES 28
USER: genes 0 Translation |==|  0.65874 0.38603 0.39315
USER: genes 1 Rotation |==|  0.77648 0.30514 0.35733 0.83946
USER: genes 2 Torsion [N]-CA--C-[N] |==|  0.80364
USER: genes 3 Torsion [C]-N--CA-[CB] |==|  0.80000
USER: genes 4 Torsion [N]-CA--CB-[CG] |==|  0.76208
USER: genes 5 Torsion [CA]-CB--CG-[CD] |==|  0.18179
USER: genes 6 Torsion [CB]-CG--CD-[OE1] |==|  0.80910
USER: genes 7 Torsion [N]-CA--C-[N] |==|  0.15780
USER: genes 8 Torsion [C]-N--CA-[CB] |==|  0.42742
USER: genes 9 Torsion [N]-CA--C-[O] |==|  0.94350
USER: genes 10 Torsion [N]-CA--CB-[CG] |==|  0.84451
USER: genes 11 Torsion [CA]-CB--CG-[CD1] |==|  0.90131
USER: genes 12 Torsion [CE1]-CZ--OH-[HH] |==|  0.73002
USER: genes 13 Torsion [C]-CA--CB-[OG] |==|  0.81986
USER: genes 14 Torsion [CA]-CB--OG-[HG] |==|  0.94410
USER: genes 15 Torsion [C]-CA--N-[C] |==|  0.76970
USER: genes 16 Torsion [N]-C--CA-[N] |==|  0.41517
USER: genes 17 Torsion [C]-CA--CB-[CG1] |==|  0.87527
USER: genes 18 Torsion [C]-CA--N-[C] |==|  0.59797
USER: genes 19 Torsion [N]-C--CA-[N] |==|  0.78046
USER: genes 20 Torsion [C]-CA--CB-[CG] |==|  0.28501
USER: genes 21 Torsion [CA]-CB--CG-[CD] |==|  0.82382
USER: genes 22 Torsion [CB]-CG--CD-[OE1] |==|  0.24413
USER: genes 23 Torsion [C]-CA--N-[C] |==|  0.71715
USER: genes 24 Torsion [N]-C--CA-[N] |==|  0.42120
USER: genes 25 Torsion [C]-CA--CB-[CG] |==|  0.82609
USER: genes 26 Torsion [CA]-CB--CG-[CD] |==|  0.30321
USER: genes 27 Torsion [CB]-CG--CD-[OE1] |==|  0.93909
ROOT
ATOM      1  CA  SER T 970      36.760  35.788 -11.455  1.00 53.81 LIG 0.20  C 
ENDROOT
BRANCH 1 2
ATOM      2  C   SER T 970      37.726  36.162 -12.573  1.00 54.98 LIG 0.24  C 
ATOM      3  N   GLU T 971      37.367  35.784 -13.792  1.00 36.24 LIG-0.35  N 
ATOM      4 H    GLU T 971      36.667  35.324 -13.991  1.00 36.24 LIG 0.16  HD
ATOM      5 O    SER T 970      38.757  36.820 -12.359  1.00 50.73 LIG-0.27  OA
BRANCH 3 6
ATOM      6  CA  GLU T 971      38.212  36.168 -14.898  1.00 34.69 LIG 0.18  C 
BRANCH 6 7
ATOM      7  CB  GLU T 971      38.103  37.661 -15.194  1.00 35.28 LIG 0.04  C 
BRANCH 7 8
ATOM      8  CG  GLU T 971      36.939  38.005 -16.122  1.00 38.63 LIG 0.12  C 
BRANCH 8 9
ATOM      9  CD  GLU T 971      35.579  37.715 -15.490  1.00 44.02 LIG 0.17  C 
ATOM     10 OE1  GLU T 971      35.242  36.526 -15.289  1.00 46.94 LIG-0.65  OA
ATOM     11 OE2  GLU T 971      34.844  38.679 -15.193  1.00 38.45 LIG-0.65  OA
ENDBRANCH 8 9
ENDBRANCH 7 8
ENDBRANCH 6 7
BRANCH 6 12
ATOM     12  C   GLU T 971      39.646  35.812 -14.588  1.00 38.38 LIG 0.24  C 
ATOM     13  N   TYR T 972      39.843  34.539 -14.311  1.00 34.07 LIG-0.34  N 
ATOM     14 H    TYR T 972      39.210  33.963 -14.230  1.00 34.07 LIG 0.16  HD
ATOM     15 O    GLU T 971      40.546  36.666 -14.613  1.00 36.91 LIG-0.27  OA
BRANCH 13 16
ATOM     16  CA  TYR T 972      41.168  34.000 -14.117  1.00 35.97 LIG 0.19  C 
BRANCH 16 17
ATOM     17  C   TYR T 972      41.782  33.643 -15.476  1.00 45.43 LIG 0.20  C 
ATOM     18 OXT  TYR T 972      43.007  33.552 -15.564  1.00 40.76 LIG-0.65  OA
ATOM     19 O    TYR T 972      41.101  33.458 -16.501  1.00 41.72 LIG-0.65  OA
ENDBRANCH 16 17
BRANCH 16 20
ATOM     20  CB  TYR T 972      41.119  32.767 -13.220  1.00 33.99 LIG 0.07  C 
BRANCH 20 21
ATOM     21  CG  TYR T 972      40.466  33.077 -11.913  1.00 33.93 LIG-0.06  A 
ATOM     22  CD1 TYR T 972      40.639  34.313 -11.307  1.00 33.64 LIG 0.01  A 
ATOM     23  CE1 TYR T 972      40.022  34.602 -10.107  1.00 37.50 LIG 0.04  A 
ATOM     24  CZ  TYR T 972      39.218  33.658  -9.523  1.00 37.64 LIG 0.07  A 
ATOM     25  CE2 TYR T 972      39.012  32.436 -10.117  1.00 36.30 LIG 0.04  A 
ATOM     26  CD2 TYR T 972      39.634  32.148 -11.301  1.00 38.70 LIG 0.01  A 
BRANCH 24 27
ATOM     27 OH   TYR T 972      38.610  33.940  -8.336  1.00 40.25 LIG-0.36  OA
ATOM     28 HH   TYR T 972      39.063  33.619  -7.706  1.00 40.25 LIG 0.22  HD
ENDBRANCH 24 27
ENDBRANCH 20 21
ENDBRANCH 16 20
ENDBRANCH 13 16
ENDBRANCH 6 12
ENDBRANCH 3 6
ENDBRANCH 1 2
BRANCH 1 29
ATOM     29  CB  SER T 970      36.498  34.279 -11.539  1.00 55.16 LIG 0.20  C 
BRANCH 29 30
ATOM     30 OG   SER T 970      35.830  33.952 -12.743  1.00 59.72 LIG-0.40  OA
ATOM     31 HG   SER T 970      35.460  34.639 -13.054  1.00 59.72 LIG 0.21  HD
ENDBRANCH 29 30
ENDBRANCH 1 29
BRANCH 1 32
ATOM     32  N   SER T 970      35.488  36.520 -11.432  1.00 52.51 LIG-0.34  N 
ATOM     33  C   VAL T 969      35.381  37.723 -10.873  1.00 50.69 LIG 0.24  C 
ATOM     34 O    VAL T 969      36.360  38.416 -10.594  1.00 50.98 LIG-0.27  OA
ATOM     35 H    SER T 970      34.833  36.104 -11.805  1.00 52.51 LIG 0.16  HD
BRANCH 33 36
ATOM     36  CA  VAL T 969      33.952  38.253 -10.651  1.00 48.28 LIG 0.18  C 
BRANCH 36 37
ATOM     37  CB  VAL T 969      33.437  39.006 -11.888  1.00 45.61 LIG 0.01  C 
ATOM     38  CG1 VAL T 969      34.495  39.958 -12.445  1.00 51.33 LIG 0.01  C 
ATOM     39  CG2 VAL T 969      32.997  38.011 -12.962  1.00 51.13 LIG 0.01  C 
ENDBRANCH 36 37
BRANCH 36 40
ATOM     40  N   VAL T 969      33.941  39.113  -9.483  1.00 42.62 LIG-0.35  N 
ATOM     41  C   GLU T 968      32.890  39.137  -8.680  1.00 39.23 LIG 0.24  C 
ATOM     42 O    GLU T 968      31.853  38.529  -8.921  1.00 41.64 LIG-0.27  OA
ATOM     43 H    VAL T 969      34.652  39.583  -9.371  1.00 42.62 LIG 0.16  HD
BRANCH 41 44
ATOM     44  CA  GLU T 968      33.031  39.910  -7.386  1.00 43.46 LIG 0.18  C 
BRANCH 44 45
ATOM     45  CB  GLU T 968      33.743  41.207  -7.729  1.00 39.65 LIG 0.04  C 
BRANCH 45 46
ATOM     46  CG  GLU T 968      32.935  42.438  -7.825  1.00 48.42 LIG 0.12  C 
BRANCH 46 47
ATOM     47  CD  GLU T 968      31.947  42.289  -8.962  1.00 46.07 LIG 0.17  C 
ATOM     48 OE1  GLU T 968      30.837  41.760  -8.702  1.00 37.62 LIG-0.65  OA
ATOM     49 OE2  GLU T 968      32.256  42.761 -10.083  1.00 42.01 LIG-0.65  OA
ENDBRANCH 46 47
ENDBRANCH 45 46
ENDBRANCH 44 45
BRANCH 44 50
ATOM     50  N   GLU T 968      33.763  39.147  -6.379  1.00 42.28 LIG-0.35  N 
ATOM     51  C   GLU T 967      33.140  38.521  -5.381  1.00 44.22 LIG 0.26  C 
ATOM     52 O    GLU T 967      31.944  38.640  -5.159  1.00 45.73 LIG-0.27  OA
ATOM     53 H    GLU T 968      34.616  39.141  -6.490  1.00 42.28 LIG 0.16  HD
BRANCH 51 54
ATOM     54  CA  GLU T 967      33.988  37.627  -4.486  1.00 63.10 LIG 0.40  C 
ATOM     55  N   GLU T 967      33.413  37.561  -3.146  1.00 61.06 LIG 0.61  N 
BRANCH 54 56
ATOM     56  CB  GLU T 967      34.094  36.230  -5.096  1.00 76.10 LIG 0.06  C 
BRANCH 56 57
ATOM     57  CG  GLU T 967      32.764  35.518  -5.215  1.00 93.75 LIG 0.12  C 
BRANCH 57 58
ATOM     58  CD  GLU T 967      32.306  35.400  -6.655  1.00103.86 LIG 0.17  C 
ATOM     59 OE1  GLU T 967      32.771  36.197  -7.496  1.00104.00 LIG-0.65  OA
ATOM     60 OE2  GLU T 967      31.486  34.502  -6.945  1.00109.28 LIG-0.65  OA
ENDBRANCH 57 58
ENDBRANCH 56 57
ENDBRANCH 54 56
ENDBRANCH 51 54
ENDBRANCH 44 50
ENDBRANCH 41 44
ENDBRANCH 36 40
ENDBRANCH 33 36
ENDBRANCH 1 32
TORSDOF 26
ENDMDL
MODEL 47
USER: ADFR SOLUTION from run 130
USER: SCORE 19.680634 LL:  -5.371 LR: -15.314 RR:   0.000 FEB:  -7.558
USER: RMSD 7.497937
USER: SEED 129
USER: STATUS no improvement in best in 3 clusters for 5 generations
USER: GENES 28
USER: genes 0 Translation |==|  0.66682 0.40459 0.36893
USER: genes 1 Rotation |==|  0.85004 0.31972 0.36238 0.77574
USER: genes 2 Torsion [N]-CA--C-[N] |==|  0.87789
USER: genes 3 Torsion [C]-N--CA-[CB] |==|  0.16637
USER: genes 4 Torsion [N]-CA--CB-[CG] |==|  0.16180
USER: genes 5 Torsion [CA]-CB--CG-[CD] |==|  0.70868
USER: genes 6 Torsion [CB]-CG--CD-[OE1] |==|  0.85873
USER: genes 7 Torsion [N]-CA--C-[N] |==|  0.12950
USER: genes 8 Torsion [C]-N--CA-[CB] |==|  0.27510
USER: genes 9 Torsion [N]-CA--C-[O] |==|  0.45287
USER: genes 10 Torsion [N]-CA--CB-[CG] |==|  0.29825
USER: genes 11 Torsion [CA]-CB--CG-[CD1] |==|  0.79425
USER: genes 12 Torsion [CE1]-CZ--OH-[HH] |==|  0.61766
USER: genes 13 Torsion [C]-CA--CB-[OG] |==|  0.52067
USER: genes 14 Torsion [CA]-CB--OG-[HG] |==|  0.10631
USER: genes 15 Torsion [C]-CA--N-[C] |==|  0.75873
USER: genes 16 Torsion [N]-C--CA-[N] |==|  0.38481
USER: genes 17 Torsion [C]-CA--CB-[CG1] |==|  0.78748
USER: genes 18 Torsion [C]-CA--N-[C] |==|  0.56764
USER: genes 19 Torsion [N]-C--CA-[N] |==|  0.20244
USER: genes 20 Torsion [C]-CA--CB-[CG] |==|  0.38997
USER: genes 21 Torsion [CA]-CB--CG-[CD] |==|  0.78668
USER: genes 22 Torsion [CB]-CG--CD-[OE1] |==|  0.20734
USER: genes 23 Torsion [C]-CA--N-[C] |==|  0.79444
USER: genes 24 Torsion [N]-C--CA-[N] |==|  0.66281
USER: genes 25 Torsion [C]-CA--CB-[CG] |==|  0.69594
USER: genes 26 Torsion [CA]-CB--CG-[CD] |==|  0.19850
USER: genes 27 Torsion [CB]-CG--CD-[OE1] |==|  0.35230
ROOT
ATOM      1  CA  SER T 970      36.990  36.150 -11.927  1.00 53.81 LIG 0.20  C 
ENDROOT
BRANCH 1 2
ATOM      2  C   SER T 970      38.051  36.947 -12.676  1.00 54.98 LIG 0.24  C 
ATOM      3  N   GLU T 971      37.667  37.469 -13.833  1.00 36.24 LIG-0.35  N 
ATOM      4 H    GLU T 971      36.896  37.366 -14.201  1.00 36.24 LIG 0.16  HD
ATOM      5 O    SER T 970      39.186  37.135 -12.208  1.00 50.73 LIG-0.27  OA
BRANCH 3 6
ATOM      6  CA  GLU T 971      38.611  38.289 -14.554  1.00 34.69 LIG 0.18  C 
BRANCH 6 7
ATOM      7  CB  GLU T 971      39.875  37.510 -14.908  1.00 35.28 LIG 0.04  C 
BRANCH 7 8
ATOM      8  CG  GLU T 971      39.596  36.267 -15.750  1.00 38.63 LIG 0.12  C 
BRANCH 8 9
ATOM      9  CD  GLU T 971      39.705  34.974 -14.942  1.00 44.02 LIG 0.17  C 
ATOM     10 OE1  GLU T 971      40.730  34.772 -14.251  1.00 46.94 LIG-0.65  OA
ATOM     11 OE2  GLU T 971      38.763  34.157 -14.999  1.00 38.45 LIG-0.65  OA
ENDBRANCH 8 9
ENDBRANCH 7 8
ENDBRANCH 6 7
BRANCH 6 12
ATOM     12  C   GLU T 971      37.967  38.816 -15.814  1.00 38.38 LIG 0.24  C 
ATOM     13  N   TYR T 972      36.760  39.314 -15.640  1.00 34.07 LIG-0.34  N 
ATOM     14 H    TYR T 972      36.328  39.278 -14.897  1.00 34.07 LIG 0.16  HD
ATOM     15 O    GLU T 971      38.555  38.782 -16.906  1.00 36.91 LIG-0.27  OA
BRANCH 13 16
ATOM     16  CA  TYR T 972      36.050  39.977 -16.709  1.00 35.97 LIG 0.19  C 
BRANCH 16 17
ATOM     17  C   TYR T 972      35.328  41.214 -16.159  1.00 45.43 LIG 0.20  C 
ATOM     18 OXT  TYR T 972      35.145  41.299 -14.945  1.00 40.76 LIG-0.65  OA
ATOM     19 O    TYR T 972      34.902  42.129 -16.887  1.00 41.72 LIG-0.65  OA
ENDBRANCH 16 17
BRANCH 16 20
ATOM     20  CB  TYR T 972      35.048  39.026 -17.357  1.00 33.99 LIG 0.07  C 
BRANCH 20 21
ATOM     21  CG  TYR T 972      33.647  39.386 -16.986  1.00 33.93 LIG-0.06  A 
ATOM     22  CD1 TYR T 972      33.155  39.116 -15.717  1.00 33.64 LIG 0.01  A 
ATOM     23  CE1 TYR T 972      31.865  39.462 -15.371  1.00 37.50 LIG 0.04  A 
ATOM     24  CZ  TYR T 972      31.073  40.095 -16.294  1.00 37.64 LIG 0.07  A 
ATOM     25  CE2 TYR T 972      31.545  40.395 -17.548  1.00 36.30 LIG 0.04  A 
ATOM     26  CD2 TYR T 972      32.821  40.039 -17.892  1.00 38.70 LIG 0.01  A 
BRANCH 24 27
ATOM     27 OH   TYR T 972      29.797  40.435 -15.956  1.00 40.25 LIG-0.36  OA
ATOM     28 HH   TYR T 972      29.282  40.260 -16.595  1.00 40.25 LIG 0.22  HD
ENDBRANCH 24 27
ENDBRANCH 20 21
ENDBRANCH 16 20
ENDBRANCH 13 16
ENDBRANCH 6 12
ENDBRANCH 3 6
ENDBRANCH 1 2
BRANCH 1 29
ATOM     29  CB  SER T 970      36.915  34.753 -12.555  1.00 55.16 LIG 0.20  C 
BRANCH 29 30
ATOM     30 OG   SER T 970      35.832  34.018 -12.017  1.00 59.72 LIG-0.40  OA
ATOM     31 HG   SER T 970      35.176  34.529 -11.901  1.00 59.72 LIG 0.21  HD
ENDBRANCH 29 30
ENDBRANCH 1 29
BRANCH 1 32
ATOM     32  N   SER T 970      35.652  36.751 -11.873  1.00 52.51 LIG-0.34  N 
ATOM     33  C   VAL T 969      35.310  37.617 -10.922  1.00 50.69 LIG 0.24  C 
ATOM     34 O    VAL T 969      36.140  38.180 -10.206  1.00 50.98 LIG-0.27  OA
ATOM     35 H    SER T 970      35.123  36.494 -12.500  1.00 52.51 LIG 0.16  HD
BRANCH 33 36
ATOM     36  CA  VAL T 969      33.811  37.946 -10.798  1.00 48.28 LIG 0.18  C 
BRANCH 36 37
ATOM     37  CB  VAL T 969      33.470  39.270 -11.501  1.00 45.61 LIG 0.01  C 
ATOM     38  CG1 VAL T 969      33.910  40.475 -10.671  1.00 51.33 LIG 0.01  C 
ATOM     39  CG2 VAL T 969      34.118  39.310 -12.885  1.00 51.13 LIG 0.01  C 
ENDBRANCH 36 37
BRANCH 36 40
ATOM     40  N   VAL T 969      33.451  38.001  -9.394  1.00 42.62 LIG-0.35  N 
ATOM     41  C   GLU T 968      32.202  37.788  -9.015  1.00 39.23 LIG 0.24  C 
ATOM     42 O    GLU T 968      31.281  37.635  -9.809  1.00 41.64 LIG-0.27  OA
ATOM     43 H    VAL T 969      34.101  38.178  -8.859  1.00 42.62 LIG 0.16  HD
BRANCH 41 44
ATOM     44  CA  GLU T 968      31.945  37.672  -7.527  1.00 43.46 LIG 0.18  C 
BRANCH 44 45
ATOM     45  CB  GLU T 968      30.559  37.071  -7.371  1.00 39.65 LIG 0.04  C 
BRANCH 45 46
ATOM     46  CG  GLU T 968      30.353  36.073  -6.303  1.00 48.42 LIG 0.12  C 
BRANCH 46 47
ATOM     47  CD  GLU T 968      30.940  34.751  -6.746  1.00 46.07 LIG 0.17  C 
ATOM     48 OE1  GLU T 968      32.192  34.638  -6.735  1.00 37.62 LIG-0.65  OA
ATOM     49 OE2  GLU T 968      30.153  33.817  -7.033  1.00 42.01 LIG-0.65  OA
ENDBRANCH 46 47
ENDBRANCH 45 46
ENDBRANCH 44 45
BRANCH 44 50
ATOM     50  N   GLU T 968      32.043  38.969  -6.861  1.00 42.28 LIG-0.35  N 
ATOM     51  C   GLU T 967      33.219  39.559  -6.644  1.00 44.22 LIG 0.26  C 
ATOM     52 O    GLU T 967      34.292  39.015  -6.862  1.00 45.73 LIG-0.27  OA
ATOM     53 H    GLU T 968      31.287  39.306  -6.628  1.00 42.28 LIG 0.16  HD
BRANCH 51 54
ATOM     54  CA  GLU T 967      33.190  40.976  -6.086  1.00 63.10 LIG 0.40  C 
ATOM     55  N   GLU T 967      33.880  41.890  -6.991  1.00 61.06 LIG 0.61  N 
BRANCH 54 56
ATOM     56  CB  GLU T 967      31.744  41.420  -5.872  1.00 76.10 LIG 0.06  C 
BRANCH 56 57
ATOM     57  CG  GLU T 967      31.285  42.483  -6.846  1.00 93.75 LIG 0.12  C 
BRANCH 57 58
ATOM     58  CD  GLU T 967      31.098  41.933  -8.246  1.00103.86 LIG 0.17  C 
ATOM     59 OE1  GLU T 967      30.005  42.123  -8.820  1.00104.00 LIG-0.65  OA
ATOM     60 OE2  GLU T 967      32.050  41.319  -8.775  1.00109.28 LIG-0.65  OA
ENDBRANCH 57 58
ENDBRANCH 56 57
ENDBRANCH 54 56
ENDBRANCH 51 54
ENDBRANCH 44 50
ENDBRANCH 41 44
ENDBRANCH 36 40
ENDBRANCH 33 36
ENDBRANCH 1 32
TORSDOF 26
ENDMDL
MODEL 48
USER: ADFR SOLUTION from run 180
USER: SCORE 18.320980 LL:  -5.620 LR: -15.287 RR:   0.000 FEB:  -7.531
USER: RMSD 10.408132
USER: SEED 179
USER: STATUS searching
USER: GENES 28
USER: genes 0 Translation |==|  0.25536 0.50753 0.34380
USER: genes 1 Rotation |==|  0.70295 0.52092 0.09669 0.71381
USER: genes 2 Torsion [N]-CA--C-[N] |==|  0.00130
USER: genes 3 Torsion [C]-N--CA-[CB] |==|  0.37762
USER: genes 4 Torsion [N]-CA--CB-[CG] |==|  0.72494
USER: genes 5 Torsion [CA]-CB--CG-[CD] |==|  0.23336
USER: genes 6 Torsion [CB]-CG--CD-[OE1] |==|  0.99279
USER: genes 7 Torsion [N]-CA--C-[N] |==|  0.60295
USER: genes 8 Torsion [C]-N--CA-[CB] |==|  0.81376
USER: genes 9 Torsion [N]-CA--C-[O] |==|  0.12976
USER: genes 10 Torsion [N]-CA--CB-[CG] |==|  0.94303
USER: genes 11 Torsion [CA]-CB--CG-[CD1] |==|  0.33301
USER: genes 12 Torsion [CE1]-CZ--OH-[HH] |==|  0.43391
USER: genes 13 Torsion [C]-CA--CB-[OG] |==|  0.30845
USER: genes 14 Torsion [CA]-CB--OG-[HG] |==|  0.96436
USER: genes 15 Torsion [C]-CA--N-[C] |==|  0.77303
USER: genes 16 Torsion [N]-C--CA-[N] |==|  0.12428
USER: genes 17 Torsion [C]-CA--CB-[CG1] |==|  0.47740
USER: genes 18 Torsion [C]-CA--N-[C] |==|  0.71401
USER: genes 19 Torsion [N]-C--CA-[N] |==|  0.19097
USER: genes 20 Torsion [C]-CA--CB-[CG] |==|  0.16467
USER: genes 21 Torsion [CA]-CB--CG-[CD] |==|  0.26500
USER: genes 22 Torsion [CB]-CG--CD-[OE1] |==|  0.56067
USER: genes 23 Torsion [C]-CA--N-[C] |==|  0.73338
USER: genes 24 Torsion [N]-C--CA-[N] |==|  0.38091
USER: genes 25 Torsion [C]-CA--CB-[CG] |==|  0.85832
USER: genes 26 Torsion [CA]-CB--CG-[CD] |==|  0.76307
USER: genes 27 Torsion [CB]-CG--CD-[OE1] |==|  0.54122
ROOT
ATOM      1  CA  SER T 970      25.264  38.157 -12.417  1.00 53.81 LIG 0.20  C 
ENDROOT
BRANCH 1 2
ATOM      2  C   SER T 970      25.202  39.296 -13.428  1.00 54.98 LIG 0.24  C 
ATOM      3  N   GLU T 971      25.288  40.518 -12.922  1.00 36.24 LIG-0.35  N 
ATOM      4 H    GLU T 971      25.339  40.715 -12.086  1.00 36.24 LIG 0.16  HD
ATOM      5 O    SER T 970      25.124  39.087 -14.650  1.00 50.73 LIG-0.27  OA
BRANCH 3 6
ATOM      6  CA  GLU T 971      25.300  41.633 -13.840  1.00 34.69 LIG 0.18  C 
BRANCH 6 7
ATOM      7  CB  GLU T 971      24.391  42.762 -13.362  1.00 35.28 LIG 0.04  C 
BRANCH 7 8
ATOM      8  CG  GLU T 971      23.026  42.763 -14.048  1.00 38.63 LIG 0.12  C 
BRANCH 8 9
ATOM      9  CD  GLU T 971      22.034  41.810 -13.382  1.00 44.02 LIG 0.17  C 
ATOM     10 OE1  GLU T 971      22.417  41.110 -12.416  1.00 46.94 LIG-0.65  OA
ATOM     11 OE2  GLU T 971      20.868  41.761 -13.825  1.00 38.45 LIG-0.65  OA
ENDBRANCH 8 9
ENDBRANCH 7 8
ENDBRANCH 6 7
BRANCH 6 12
ATOM     12  C   GLU T 971      26.711  42.146 -13.997  1.00 38.38 LIG 0.24  C 
ATOM     13  N   TYR T 972      26.805  43.455 -14.112  1.00 34.07 LIG-0.34  N 
ATOM     14 H    TYR T 972      26.127  43.980 -14.175  1.00 34.07 LIG 0.16  HD
ATOM     15 O    GLU T 971      27.685  41.376 -14.000  1.00 36.91 LIG-0.27  OA
BRANCH 13 16
ATOM     16  CA  TYR T 972      28.083  44.126 -14.141  1.00 35.97 LIG 0.19  C 
BRANCH 16 17
ATOM     17  C   TYR T 972      28.955  43.525 -15.250  1.00 45.43 LIG 0.20  C 
ATOM     18 OXT  TYR T 972      30.130  43.255 -14.996  1.00 40.76 LIG-0.65  OA
ATOM     19 O    TYR T 972      28.537  43.313 -16.402  1.00 41.72 LIG-0.65  OA
ENDBRANCH 16 17
BRANCH 16 20
ATOM     20  CB  TYR T 972      28.784  44.002 -12.792  1.00 33.99 LIG 0.07  C 
BRANCH 20 21
ATOM     21  CG  TYR T 972      27.810  43.684 -11.706  1.00 33.93 LIG-0.06  A 
ATOM     22  CD1 TYR T 972      27.931  42.521 -10.959  1.00 33.64 LIG 0.01  A 
ATOM     23  CE1 TYR T 972      27.039  42.236  -9.946  1.00 37.50 LIG 0.04  A 
ATOM     24  CZ  TYR T 972      26.035  43.128  -9.670  1.00 37.64 LIG 0.07  A 
ATOM     25  CE2 TYR T 972      25.909  44.298 -10.379  1.00 36.30 LIG 0.04  A 
ATOM     26  CD2 TYR T 972      26.788  44.571 -11.391  1.00 38.70 LIG 0.01  A 
BRANCH 24 27
ATOM     27 OH   TYR T 972      25.150  42.847  -8.672  1.00 40.25 LIG-0.36  OA
ATOM     28 HH   TYR T 972      24.813  43.562  -8.387  1.00 40.25 LIG 0.22  HD
ENDBRANCH 24 27
ENDBRANCH 20 21
ENDBRANCH 16 20
ENDBRANCH 13 16
ENDBRANCH 6 12
ENDBRANCH 3 6
ENDBRANCH 1 2
BRANCH 1 29
ATOM     29  CB  SER T 970      24.012  37.291 -12.601  1.00 55.16 LIG 0.20  C 
BRANCH 29 30
ATOM     30 OG   SER T 970      24.352  36.024 -13.134  1.00 59.72 LIG-0.40  OA
ATOM     31 HG   SER T 970      25.144  36.040 -13.413  1.00 59.72 LIG 0.21  HD
ENDBRANCH 29 30
ENDBRANCH 1 29
BRANCH 1 32
ATOM     32  N   SER T 970      25.400  38.552 -11.010  1.00 52.51 LIG-0.34  N 
ATOM     33  C   VAL T 969      26.580  38.870 -10.482  1.00 50.69 LIG 0.24  C 
ATOM     34 O    VAL T 969      27.570  39.123 -11.170  1.00 50.98 LIG-0.27  OA
ATOM     35 H    SER T 970      24.661  38.558 -10.570  1.00 52.51 LIG 0.16  HD
BRANCH 33 36
ATOM     36  CA  VAL T 969      26.639  38.978  -8.947  1.00 48.28 LIG 0.18  C 
BRANCH 36 37
ATOM     37  CB  VAL T 969      28.091  39.035  -8.446  1.00 45.61 LIG 0.01  C 
ATOM     38  CG1 VAL T 969      28.157  39.343  -6.951  1.00 51.33 LIG 0.01  C 
ATOM     39  CG2 VAL T 969      28.802  37.717  -8.751  1.00 51.13 LIG 0.01  C 
ENDBRANCH 36 37
BRANCH 36 40
ATOM     40  N   VAL T 969      25.938  37.849  -8.364  1.00 42.62 LIG-0.35  N 
ATOM     41  C   GLU T 968      24.722  38.002  -7.867  1.00 39.23 LIG 0.24  C 
ATOM     42 O    GLU T 968      24.169  39.093  -7.778  1.00 41.64 LIG-0.27  OA
ATOM     43 H    VAL T 969      26.372  37.107  -8.374  1.00 42.62 LIG 0.16  HD
BRANCH 41 44
ATOM     44  CA  GLU T 968      23.985  36.746  -7.454  1.00 43.46 LIG 0.18  C 
BRANCH 44 45
ATOM     45  CB  GLU T 968      22.548  37.155  -7.180  1.00 39.65 LIG 0.04  C 
BRANCH 45 46
ATOM     46  CG  GLU T 968      21.781  37.772  -8.279  1.00 48.42 LIG 0.12  C 
BRANCH 46 47
ATOM     47  CD  GLU T 968      20.973  36.700  -8.976  1.00 46.07 LIG 0.17  C 
ATOM     48 OE1  GLU T 968      20.599  36.927 -10.155  1.00 37.62 LIG-0.65  OA
ATOM     49 OE2  GLU T 968      20.778  35.616  -8.374  1.00 42.01 LIG-0.65  OA
ENDBRANCH 46 47
ENDBRANCH 45 46
ENDBRANCH 44 45
BRANCH 44 50
ATOM     50  N   GLU T 968      24.596  36.123  -6.283  1.00 42.28 LIG-0.35  N 
ATOM     51  C   GLU T 967      25.474  35.126  -6.396  1.00 44.22 LIG 0.26  C 
ATOM     52 O    GLU T 967      25.733  34.578  -7.458  1.00 45.73 LIG-0.27  OA
ATOM     53 H    GLU T 968      24.341  36.453  -5.531  1.00 42.28 LIG 0.16  HD
BRANCH 51 54
ATOM     54  CA  GLU T 967      26.164  34.662  -5.119  1.00 63.10 LIG 0.40  C 
ATOM     55  N   GLU T 967      26.220  33.204  -5.076  1.00 61.06 LIG 0.61  N 
BRANCH 54 56
ATOM     56  CB  GLU T 967      27.569  35.258  -5.042  1.00 76.10 LIG 0.06  C 
BRANCH 56 57
ATOM     57  CG  GLU T 967      28.388  35.043  -6.297  1.00 93.75 LIG 0.12  C 
BRANCH 57 58
ATOM     58  CD  GLU T 967      29.092  33.701  -6.297  1.00103.86 LIG 0.17  C 
ATOM     59 OE1  GLU T 967      30.011  33.510  -7.121  1.00104.00 LIG-0.65  OA
ATOM     60 OE2  GLU T 967      28.730  32.840  -5.465  1.00109.28 LIG-0.65  OA
ENDBRANCH 57 58
ENDBRANCH 56 57
ENDBRANCH 54 56
ENDBRANCH 51 54
ENDBRANCH 44 50
ENDBRANCH 41 44
ENDBRANCH 36 40
ENDBRANCH 33 36
ENDBRANCH 1 32
TORSDOF 26
ENDMDL
MODEL 49
USER: ADFR SOLUTION from run 154
USER: SCORE 17.859382 LL:  -5.328 LR: -15.282 RR:   0.000 FEB:  -7.526
USER: RMSD 8.235583
USER: SEED 153
USER: STATUS no improvement in best in 4 clusters for 5 generations
USER: GENES 28
USER: genes 0 Translation |==|  0.66322 0.31825 0.40347
USER: genes 1 Rotation |==|  0.20528 0.89846 0.56487 0.51249
USER: genes 2 Torsion [N]-CA--C-[N] |==|  0.44369
USER: genes 3 Torsion [C]-N--CA-[CB] |==|  0.43904
USER: genes 4 Torsion [N]-CA--CB-[CG] |==|  0.76030
USER: genes 5 Torsion [CA]-CB--CG-[CD] |==|  0.47482
USER: genes 6 Torsion [CB]-CG--CD-[OE1] |==|  0.67912
USER: genes 7 Torsion [N]-CA--C-[N] |==|  0.21397
USER: genes 8 Torsion [C]-N--CA-[CB] |==|  0.46260
USER: genes 9 Torsion [N]-CA--C-[O] |==|  0.22209
USER: genes 10 Torsion [N]-CA--CB-[CG] |==|  0.86548
USER: genes 11 Torsion [CA]-CB--CG-[CD1] |==|  0.31552
USER: genes 12 Torsion [CE1]-CZ--OH-[HH] |==|  0.69803
USER: genes 13 Torsion [C]-CA--CB-[OG] |==|  0.58587
USER: genes 14 Torsion [CA]-CB--OG-[HG] |==|  0.82971
USER: genes 15 Torsion [C]-CA--N-[C] |==|  0.63284
USER: genes 16 Torsion [N]-C--CA-[N] |==|  0.52746
USER: genes 17 Torsion [C]-CA--CB-[CG1] |==|  0.21865
USER: genes 18 Torsion [C]-CA--N-[C] |==|  0.18187
USER: genes 19 Torsion [N]-C--CA-[N] |==|  0.37927
USER: genes 20 Torsion [C]-CA--CB-[CG] |==|  0.57508
USER: genes 21 Torsion [CA]-CB--CG-[CD] |==|  0.86299
USER: genes 22 Torsion [CB]-CG--CD-[OE1] |==|  0.26020
USER: genes 23 Torsion [C]-CA--N-[C] |==|  0.85867
USER: genes 24 Torsion [N]-C--CA-[N] |==|  0.05799
USER: genes 25 Torsion [C]-CA--CB-[CG] |==|  0.36870
USER: genes 26 Torsion [CA]-CB--CG-[CD] |==|  0.83601
USER: genes 27 Torsion [CB]-CG--CD-[OE1] |==|  0.10340
ROOT
ATOM      1  CA  SER T 970      36.888  34.466 -11.253  1.00 53.81 LIG 0.20  C 
ENDROOT
BRANCH 1 2
ATOM      2  C   SER T 970      38.012  33.948 -10.364  1.00 54.98 LIG 0.24  C 
ATOM      3  N   GLU T 971      37.746  32.837  -9.691  1.00 36.24 LIG-0.35  N 
ATOM      4 H    GLU T 971      36.996  32.417  -9.689  1.00 36.24 LIG 0.16  HD
ATOM      5 O    SER T 970      39.120  34.506 -10.312  1.00 50.73 LIG-0.27  OA
BRANCH 3 6
ATOM      6  CA  GLU T 971      38.798  32.266  -8.882  1.00 34.69 LIG 0.18  C 
BRANCH 6 7
ATOM      7  CB  GLU T 971      38.236  31.361  -7.789  1.00 35.28 LIG 0.04  C 
BRANCH 7 8
ATOM      8  CG  GLU T 971      37.858  32.120  -6.519  1.00 38.63 LIG 0.12  C 
BRANCH 8 9
ATOM      9  CD  GLU T 971      37.096  31.250  -5.520  1.00 44.02 LIG 0.17  C 
ATOM     10 OE1  GLU T 971      35.910  31.539  -5.241  1.00 46.94 LIG-0.65  OA
ATOM     11 OE2  GLU T 971      37.686  30.275  -5.011  1.00 38.45 LIG-0.65  OA
ENDBRANCH 8 9
ENDBRANCH 7 8
ENDBRANCH 6 7
BRANCH 6 12
ATOM     12  C   GLU T 971      39.742  31.481  -9.760  1.00 38.38 LIG 0.24  C 
ATOM     13  N   TYR T 972      40.582  32.222 -10.455  1.00 34.07 LIG-0.34  N 
ATOM     14 H    TYR T 972      40.555  33.081 -10.481  1.00 34.07 LIG 0.16  HD
ATOM     15 O    GLU T 971      39.717  30.241  -9.793  1.00 36.91 LIG-0.27  OA
BRANCH 13 16
ATOM     16  CA  TYR T 972      41.637  31.635 -11.246  1.00 35.97 LIG 0.19  C 
BRANCH 16 17
ATOM     17  C   TYR T 972      42.722  31.071 -10.321  1.00 45.43 LIG 0.20  C 
ATOM     18 OXT  TYR T 972      43.752  31.725 -10.151  1.00 40.76 LIG-0.65  OA
ATOM     19 O    TYR T 972      42.620  29.972  -9.746  1.00 41.72 LIG-0.65  OA
ENDBRANCH 16 17
BRANCH 16 20
ATOM     20  CB  TYR T 972      42.237  32.670 -12.193  1.00 33.99 LIG 0.07  C 
BRANCH 20 21
ATOM     21  CG  TYR T 972      41.168  33.407 -12.931  1.00 33.93 LIG-0.06  A 
ATOM     22  CD1 TYR T 972      40.957  34.761 -12.714  1.00 33.64 LIG 0.01  A 
ATOM     23  CE1 TYR T 972      39.980  35.444 -13.409  1.00 37.50 LIG 0.04  A 
ATOM     24  CZ  TYR T 972      39.224  34.770 -14.334  1.00 37.64 LIG 0.07  A 
ATOM     25  CE2 TYR T 972      39.431  33.436 -14.584  1.00 36.30 LIG 0.04  A 
ATOM     26  CD2 TYR T 972      40.393  32.760 -13.885  1.00 38.70 LIG 0.01  A 
BRANCH 24 27
ATOM     27 OH   TYR T 972      38.256  35.442 -15.020  1.00 40.25 LIG-0.36  OA
ATOM     28 HH   TYR T 972      37.500  35.192 -14.752  1.00 40.25 LIG 0.22  HD
ENDBRANCH 24 27
ENDBRANCH 20 21
ENDBRANCH 16 20
ENDBRANCH 13 16
ENDBRANCH 6 12
ENDBRANCH 3 6
ENDBRANCH 1 2
BRANCH 1 29
ATOM     29  CB  SER T 970      36.835  33.588 -12.510  1.00 55.16 LIG 0.20  C 
BRANCH 29 30
ATOM     30 OG   SER T 970      36.388  34.335 -13.626  1.00 59.72 LIG-0.40  OA
ATOM     31 HG   SER T 970      35.611  34.620 -13.480  1.00 59.72 LIG 0.21  HD
ENDBRANCH 29 30
ENDBRANCH 1 29
BRANCH 1 32
ATOM     32  N   SER T 970      36.967  35.883 -11.631  1.00 52.51 LIG-0.34  N 
ATOM     33  C   VAL T 969      35.918  36.695 -11.529  1.00 50.69 LIG 0.24  C 
ATOM     34 O    VAL T 969      34.916  36.409 -10.871  1.00 50.98 LIG-0.27  OA
ATOM     35 H    SER T 970      37.739  36.130 -11.918  1.00 52.51 LIG 0.16  HD
BRANCH 33 36
ATOM     36  CA  VAL T 969      36.039  38.064 -12.224  1.00 48.28 LIG 0.18  C 
BRANCH 36 37
ATOM     37  CB  VAL T 969      37.377  38.742 -11.892  1.00 45.61 LIG 0.01  C 
ATOM     38  CG1 VAL T 969      38.522  38.159 -12.719  1.00 51.33 LIG 0.01  C 
ATOM     39  CG2 VAL T 969      37.270  40.251 -12.119  1.00 51.13 LIG 0.01  C 
ENDBRANCH 36 37
BRANCH 36 40
ATOM     40  N   VAL T 969      34.924  38.901 -11.821  1.00 42.62 LIG-0.35  N 
ATOM     41  C   GLU T 968      34.802  39.292 -10.564  1.00 39.23 LIG 0.24  C 
ATOM     42 O    GLU T 968      35.544  38.903  -9.668  1.00 41.64 LIG-0.27  OA
ATOM     43 H    VAL T 969      34.376  39.106 -12.452  1.00 42.62 LIG 0.16  HD
BRANCH 41 44
ATOM     44  CA  GLU T 968      33.726  40.314 -10.263  1.00 43.46 LIG 0.18  C 
BRANCH 44 45
ATOM     45  CB  GLU T 968      34.425  41.657 -10.134  1.00 39.65 LIG 0.04  C 
BRANCH 45 46
ATOM     46  CG  GLU T 968      33.797  42.687  -9.284  1.00 48.42 LIG 0.12  C 
BRANCH 46 47
ATOM     47  CD  GLU T 968      32.337  42.812  -9.662  1.00 46.07 LIG 0.17  C 
ATOM     48 OE1  GLU T 968      31.506  42.133  -9.008  1.00 37.62 LIG-0.65  OA
ATOM     49 OE2  GLU T 968      32.023  43.635 -10.556  1.00 42.01 LIG-0.65  OA
ENDBRANCH 46 47
ENDBRANCH 45 46
ENDBRANCH 44 45
BRANCH 44 50
ATOM     50  N   GLU T 968      32.987  39.978  -9.049  1.00 42.28 LIG-0.35  N 
ATOM     51  C   GLU T 967      32.460  38.767  -8.860  1.00 44.22 LIG 0.26  C 
ATOM     52 O    GLU T 967      32.442  37.903  -9.724  1.00 45.73 LIG-0.27  OA
ATOM     53 H    GLU T 968      32.926  40.621  -8.481  1.00 42.28 LIG 0.16  HD
BRANCH 51 54
ATOM     54  CA  GLU T 967      31.851  38.482  -7.493  1.00 63.10 LIG 0.40  C 
ATOM     55  N   GLU T 967      31.523  39.732  -6.815  1.00 61.06 LIG 0.61  N 
BRANCH 54 56
ATOM     56  CB  GLU T 967      30.605  37.612  -7.652  1.00 76.10 LIG 0.06  C 
BRANCH 56 57
ATOM     57  CG  GLU T 967      30.561  36.436  -6.700  1.00 93.75 LIG 0.12  C 
BRANCH 57 58
ATOM     58  CD  GLU T 967      31.754  35.517  -6.871  1.00103.86 LIG 0.17  C 
ATOM     59 OE1  GLU T 967      32.867  36.026  -7.121  1.00104.00 LIG-0.65  OA
ATOM     60 OE2  GLU T 967      31.578  34.286  -6.746  1.00109.28 LIG-0.65  OA
ENDBRANCH 57 58
ENDBRANCH 56 57
ENDBRANCH 54 56
ENDBRANCH 51 54
ENDBRANCH 44 50
ENDBRANCH 41 44
ENDBRANCH 36 40
ENDBRANCH 33 36
ENDBRANCH 1 32
TORSDOF 26
ENDMDL
MODEL 50
USER: ADFR SOLUTION from run 50
USER: SCORE 18.774795 LL:  -5.383 LR: -15.269 RR:   0.000 FEB:  -7.513
USER: RMSD 9.575111
USER: SEED 49
USER: STATUS no improvement in best in 6 clusters for 5 generations
USER: GENES 28
USER: genes 0 Translation |==|  0.64481 0.38878 0.28363
USER: genes 1 Rotation |==|  0.30735 0.88560 0.73383 0.59758
USER: genes 2 Torsion [N]-CA--C-[N] |==|  0.11810
USER: genes 3 Torsion [C]-N--CA-[CB] |==|  0.22164
USER: genes 4 Torsion [N]-CA--CB-[CG] |==|  0.72025
USER: genes 5 Torsion [CA]-CB--CG-[CD] |==|  0.37709
USER: genes 6 Torsion [CB]-CG--CD-[OE1] |==|  0.34676
USER: genes 7 Torsion [N]-CA--C-[N] |==|  0.50808
USER: genes 8 Torsion [C]-N--CA-[CB] |==|  0.18061
USER: genes 9 Torsion [N]-CA--C-[O] |==|  0.18385
USER: genes 10 Torsion [N]-CA--CB-[CG] |==|  0.69064
USER: genes 11 Torsion [CA]-CB--CG-[CD1] |==|  0.50423
USER: genes 12 Torsion [CE1]-CZ--OH-[HH] |==|  0.66167
USER: genes 13 Torsion [C]-CA--CB-[OG] |==|  0.43401
USER: genes 14 Torsion [CA]-CB--OG-[HG] |==|  0.84836
USER: genes 15 Torsion [C]-CA--N-[C] |==|  0.13333
USER: genes 16 Torsion [N]-C--CA-[N] |==|  0.94071
USER: genes 17 Torsion [C]-CA--CB-[CG1] |==|  0.83955
USER: genes 18 Torsion [C]-CA--N-[C] |==|  0.82514
USER: genes 19 Torsion [N]-C--CA-[N] |==|  0.55534
USER: genes 20 Torsion [C]-CA--CB-[CG] |==|  0.80103
USER: genes 21 Torsion [CA]-CB--CG-[CD] |==|  0.64625
USER: genes 22 Torsion [CB]-CG--CD-[OE1] |==|  0.29332
USER: genes 23 Torsion [C]-CA--N-[C] |==|  0.80256
USER: genes 24 Torsion [N]-C--CA-[N] |==|  0.51517
USER: genes 25 Torsion [C]-CA--CB-[CG] |==|  0.52720
USER: genes 26 Torsion [CA]-CB--CG-[CD] |==|  0.85271
USER: genes 27 Torsion [CB]-CG--CD-[OE1] |==|  0.68607
ROOT
ATOM      1  CA  SER T 970      36.363  35.841 -13.590  1.00 53.81 LIG 0.20  C 
ENDROOT
BRANCH 1 2
ATOM      2  C   SER T 970      37.260  34.610 -13.629  1.00 54.98 LIG 0.24  C 
ATOM      3  N   GLU T 971      37.930  34.352 -12.514  1.00 36.24 LIG-0.35  N 
ATOM      4 H    GLU T 971      37.925  34.833 -11.801  1.00 36.24 LIG 0.16  HD
ATOM      5 O    SER T 970      37.321  33.871 -14.625  1.00 50.73 LIG-0.27  OA
BRANCH 3 6
ATOM      6  CA  GLU T 971      38.745  33.161 -12.472  1.00 34.69 LIG 0.18  C 
BRANCH 6 7
ATOM      7  CB  GLU T 971      40.082  33.372 -13.178  1.00 35.28 LIG 0.04  C 
BRANCH 7 8
ATOM      8  CG  GLU T 971      40.115  32.784 -14.587  1.00 38.63 LIG 0.12  C 
BRANCH 8 9
ATOM      9  CD  GLU T 971      40.754  33.730 -15.603  1.00 44.02 LIG 0.17  C 
ATOM     10 OE1  GLU T 971      41.719  33.324 -16.289  1.00 46.94 LIG-0.65  OA
ATOM     11 OE2  GLU T 971      40.290  34.883 -15.714  1.00 38.45 LIG-0.65  OA
ENDBRANCH 8 9
ENDBRANCH 7 8
ENDBRANCH 6 7
BRANCH 6 12
ATOM     12  C   GLU T 971      38.983  32.759 -11.037  1.00 38.38 LIG 0.24  C 
ATOM     13  N   TYR T 972      39.770  31.712 -10.888  1.00 34.07 LIG-0.34  N 
ATOM     14 H    TYR T 972      40.066  31.238 -11.542  1.00 34.07 LIG 0.16  HD
ATOM     15 O    GLU T 971      38.478  33.388 -10.094  1.00 36.91 LIG-0.27  OA
BRANCH 13 16
ATOM     16  CA  TYR T 972      40.207  31.269  -9.586  1.00 35.97 LIG 0.19  C 
BRANCH 16 17
ATOM     17  C   TYR T 972      41.239  30.145  -9.743  1.00 45.43 LIG 0.20  C 
ATOM     18 OXT  TYR T 972      40.951  29.019  -9.336  1.00 40.76 LIG-0.65  OA
ATOM     19 O    TYR T 972      42.362  30.321 -10.248  1.00 41.72 LIG-0.65  OA
ENDBRANCH 16 17
BRANCH 16 20
ATOM     20  CB  TYR T 972      39.021  30.785  -8.758  1.00 33.99 LIG 0.07  C 
BRANCH 20 21
ATOM     21  CG  TYR T 972      38.749  31.708  -7.616  1.00 33.93 LIG-0.06  A 
ATOM     22  CD1 TYR T 972      37.730  31.441  -6.713  1.00 33.64 LIG 0.01  A 
ATOM     23  CE1 TYR T 972      37.490  32.288  -5.649  1.00 37.50 LIG 0.04  A 
ATOM     24  CZ  TYR T 972      38.284  33.393  -5.483  1.00 37.64 LIG 0.07  A 
ATOM     25  CE2 TYR T 972      39.314  33.665  -6.350  1.00 36.30 LIG 0.04  A 
ATOM     26  CD2 TYR T 972      39.541  32.830  -7.410  1.00 38.70 LIG 0.01  A 
BRANCH 24 27
ATOM     27 OH   TYR T 972      38.046  34.233  -4.436  1.00 40.25 LIG-0.36  OA
ATOM     28 HH   TYR T 972      37.895  35.006  -4.725  1.00 40.25 LIG 0.22  HD
ENDBRANCH 24 27
ENDBRANCH 20 21
ENDBRANCH 16 20
ENDBRANCH 13 16
ENDBRANCH 6 12
ENDBRANCH 3 6
ENDBRANCH 1 2
BRANCH 1 29
ATOM     29  CB  SER T 970      35.947  36.170 -15.029  1.00 55.16 LIG 0.20  C 
BRANCH 29 30
ATOM     30 OG   SER T 970      34.740  36.909 -15.046  1.00 59.72 LIG-0.40  OA
ATOM     31 HG   SER T 970      34.149  36.491 -14.620  1.00 59.72 LIG 0.21  HD
ENDBRANCH 29 30
ENDBRANCH 1 29
BRANCH 1 32
ATOM     32  N   SER T 970      36.931  37.031 -12.945  1.00 52.51 LIG-0.34  N 
ATOM     33  C   VAL T 969      38.154  37.470 -13.235  1.00 50.69 LIG 0.24  C 
ATOM     34 O    VAL T 969      38.776  37.097 -14.231  1.00 50.98 LIG-0.27  OA
ATOM     35 H    SER T 970      36.409  37.409 -12.375  1.00 52.51 LIG 0.16  HD
BRANCH 33 36
ATOM     36  CA  VAL T 969      38.744  38.535 -12.292  1.00 48.28 LIG 0.18  C 
BRANCH 36 37
ATOM     37  CB  VAL T 969      39.743  37.914 -11.303  1.00 45.61 LIG 0.01  C 
ATOM     38  CG1 VAL T 969      39.094  36.809 -10.470  1.00 51.33 LIG 0.01  C 
ATOM     39  CG2 VAL T 969      40.957  37.371 -12.057  1.00 51.13 LIG 0.01  C 
ENDBRANCH 36 37
BRANCH 36 40
ATOM     40  N   VAL T 969      37.661  39.194 -11.585  1.00 42.62 LIG-0.35  N 
ATOM     41  C   GLU T 968      36.755  39.891 -12.250  1.00 39.23 LIG 0.24  C 
ATOM     42 O    GLU T 968      36.827  40.100 -13.456  1.00 41.64 LIG-0.27  OA
ATOM     43 H    VAL T 969      37.668  39.091 -10.731  1.00 42.62 LIG 0.16  HD
BRANCH 41 44
ATOM     44  CA  GLU T 968      35.556  40.385 -11.467  1.00 43.46 LIG 0.18  C 
BRANCH 44 45
ATOM     45  CB  GLU T 968      35.191  39.283 -10.489  1.00 39.65 LIG 0.04  C 
BRANCH 45 46
ATOM     46  CG  GLU T 968      34.578  38.052 -11.026  1.00 48.42 LIG 0.12  C 
BRANCH 46 47
ATOM     47  CD  GLU T 968      33.296  37.773 -10.273  1.00 46.07 LIG 0.17  C 
ATOM     48 OE1  GLU T 968      32.211  38.005 -10.864  1.00 37.62 LIG-0.65  OA
ATOM     49 OE2  GLU T 968      33.378  37.260  -9.130  1.00 42.01 LIG-0.65  OA
ENDBRANCH 46 47
ENDBRANCH 45 46
ENDBRANCH 44 45
BRANCH 44 50
ATOM     50  N   GLU T 968      34.437  40.713 -12.346  1.00 42.28 LIG-0.35  N 
ATOM     51  C   GLU T 967      34.460  41.780 -13.144  1.00 44.22 LIG 0.26  C 
ATOM     52 O    GLU T 967      35.344  42.623 -13.110  1.00 45.73 LIG-0.27  OA
ATOM     53 H    GLU T 968      33.777  40.163 -12.300  1.00 42.28 LIG 0.16  HD
BRANCH 51 54
ATOM     54  CA  GLU T 967      33.308  41.934 -14.129  1.00 63.10 LIG 0.40  C 
ATOM     55  N   GLU T 967      33.545  43.072 -15.011  1.00 61.06 LIG 0.61  N 
BRANCH 54 56
ATOM     56  CB  GLU T 967      33.143  40.649 -14.940  1.00 76.10 LIG 0.06  C 
BRANCH 56 57
ATOM     57  CG  GLU T 967      32.183  40.784 -16.102  1.00 93.75 LIG 0.12  C 
BRANCH 57 58
ATOM     58  CD  GLU T 967      30.837  41.331 -15.670  1.00103.86 LIG 0.17  C 
ATOM     59 OE1  GLU T 967      29.839  40.583 -15.742  1.00104.00 LIG-0.65  OA
ATOM     60 OE2  GLU T 967      30.781  42.507 -15.250  1.00109.28 LIG-0.65  OA
ENDBRANCH 57 58
ENDBRANCH 56 57
ENDBRANCH 54 56
ENDBRANCH 51 54
ENDBRANCH 44 50
ENDBRANCH 41 44
ENDBRANCH 36 40
ENDBRANCH 33 36
ENDBRANCH 1 32
TORSDOF 26
ENDMDL
MODEL 51
USER: ADFR SOLUTION from run 153
USER: SCORE 18.003978 LL:  -4.274 LR: -15.263 RR:   0.000 FEB:  -7.507
USER: RMSD 11.457987
USER: SEED 152
USER: STATUS no improvement in best in 26 clusters for 5 generations
USER: GENES 28
USER: genes 0 Translation |==|  0.57246 0.51406 0.37481
USER: genes 1 Rotation |==|  0.69804 0.93766 0.37154 0.55230
USER: genes 2 Torsion [N]-CA--C-[N] |==|  0.19351
USER: genes 3 Torsion [C]-N--CA-[CB] |==|  0.85775
USER: genes 4 Torsion [N]-CA--CB-[CG] |==|  0.75663
USER: genes 5 Torsion [CA]-CB--CG-[CD] |==|  0.37111
USER: genes 6 Torsion [CB]-CG--CD-[OE1] |==|  0.22546
USER: genes 7 Torsion [N]-CA--C-[N] |==|  0.35030
USER: genes 8 Torsion [C]-N--CA-[CB] |==|  0.54505
USER: genes 9 Torsion [N]-CA--C-[O] |==|  0.30686
USER: genes 10 Torsion [N]-CA--CB-[CG] |==|  0.58671
USER: genes 11 Torsion [CA]-CB--CG-[CD1] |==|  0.06049
USER: genes 12 Torsion [CE1]-CZ--OH-[HH] |==|  0.03294
USER: genes 13 Torsion [C]-CA--CB-[OG] |==|  0.57095
USER: genes 14 Torsion [CA]-CB--OG-[HG] |==|  0.14918
USER: genes 15 Torsion [C]-CA--N-[C] |==|  0.78869
USER: genes 16 Torsion [N]-C--CA-[N] |==|  0.57222
USER: genes 17 Torsion [C]-CA--CB-[CG1] |==|  0.38746
USER: genes 18 Torsion [C]-CA--N-[C] |==|  0.73498
USER: genes 19 Torsion [N]-C--CA-[N] |==|  0.16915
USER: genes 20 Torsion [C]-CA--CB-[CG] |==|  0.33617
USER: genes 21 Torsion [CA]-CB--CG-[CD] |==|  0.04799
USER: genes 22 Torsion [CB]-CG--CD-[OE1] |==|  0.68478
USER: genes 23 Torsion [C]-CA--N-[C] |==|  0.79115
USER: genes 24 Torsion [N]-C--CA-[N] |==|  0.22095
USER: genes 25 Torsion [C]-CA--CB-[CG] |==|  0.43445
USER: genes 26 Torsion [CA]-CB--CG-[CD] |==|  0.07234
USER: genes 27 Torsion [CB]-CG--CD-[OE1] |==|  0.69565
ROOT
ATOM      1  CA  SER T 970      34.301  38.284 -11.812  1.00 53.81 LIG 0.20  C 
ENDROOT
BRANCH 1 2
ATOM      2  C   SER T 970      33.562  38.275 -10.479  1.00 54.98 LIG 0.24  C 
ATOM      3  N   GLU T 971      34.282  38.619  -9.421  1.00 36.24 LIG-0.35  N 
ATOM      4 H    GLU T 971      35.122  38.807  -9.422  1.00 36.24 LIG 0.16  HD
ATOM      5 O    SER T 970      32.351  38.010 -10.400  1.00 50.73 LIG-0.27  OA
BRANCH 3 6
ATOM      6  CA  GLU T 971      33.617  38.691  -8.141  1.00 34.69 LIG 0.18  C 
BRANCH 6 7
ATOM      7  CB  GLU T 971      32.355  39.546  -8.214  1.00 35.28 LIG 0.04  C 
BRANCH 7 8
ATOM      8  CG  GLU T 971      32.621  41.030  -7.971  1.00 38.63 LIG 0.12  C 
BRANCH 8 9
ATOM      9  CD  GLU T 971      31.927  41.927  -8.995  1.00 44.02 LIG 0.17  C 
ATOM     10 OE1  GLU T 971      30.714  42.200  -8.841  1.00 46.94 LIG-0.65  OA
ATOM     11 OE2  GLU T 971      32.595  42.358  -9.957  1.00 38.45 LIG-0.65  OA
ENDBRANCH 8 9
ENDBRANCH 7 8
ENDBRANCH 6 7
BRANCH 6 12
ATOM     12  C   GLU T 971      33.265  37.300  -7.674  1.00 38.38 LIG 0.24  C 
ATOM     13  N   TYR T 972      33.708  37.003  -6.469  1.00 34.07 LIG-0.34  N 
ATOM     14 H    TYR T 972      34.222  37.515  -6.007  1.00 34.07 LIG 0.16  HD
ATOM     15 O    GLU T 971      32.601  36.526  -8.381  1.00 36.91 LIG-0.27  OA
BRANCH 13 16
ATOM     16  CA  TYR T 972      33.355  35.766  -5.813  1.00 35.97 LIG 0.19  C 
BRANCH 16 17
ATOM     17  C   TYR T 972      31.868  35.467  -6.042  1.00 45.43 LIG 0.20  C 
ATOM     18 OXT  TYR T 972      31.031  36.170  -5.475  1.00 40.76 LIG-0.65  OA
ATOM     19 O    TYR T 972      31.467  34.533  -6.760  1.00 41.72 LIG-0.65  OA
ENDBRANCH 16 17
BRANCH 16 20
ATOM     20  CB  TYR T 972      33.653  35.846  -4.319  1.00 33.99 LIG 0.07  C 
BRANCH 20 21
ATOM     21  CG  TYR T 972      34.026  34.508  -3.772  1.00 33.93 LIG-0.06  A 
ATOM     22  CD1 TYR T 972      34.503  33.506  -4.604  1.00 33.64 LIG 0.01  A 
ATOM     23  CE1 TYR T 972      34.862  32.275  -4.093  1.00 37.50 LIG 0.04  A 
ATOM     24  CZ  TYR T 972      34.756  32.055  -2.744  1.00 37.64 LIG 0.07  A 
ATOM     25  CE2 TYR T 972      34.309  33.040  -1.896  1.00 36.30 LIG 0.04  A 
ATOM     26  CD2 TYR T 972      33.944  34.255  -2.408  1.00 38.70 LIG 0.01  A 
BRANCH 24 27
ATOM     27 OH   TYR T 972      35.106  30.839  -2.237  1.00 40.25 LIG-0.36  OA
ATOM     28 HH   TYR T 972      35.510  30.396  -2.825  1.00 40.25 LIG 0.22  HD
ENDBRANCH 24 27
ENDBRANCH 20 21
ENDBRANCH 16 20
ENDBRANCH 13 16
ENDBRANCH 6 12
ENDBRANCH 3 6
ENDBRANCH 1 2
BRANCH 1 29
ATOM     29  CB  SER T 970      33.258  38.207 -12.933  1.00 55.16 LIG 0.20  C 
BRANCH 29 30
ATOM     30 OG   SER T 970      33.818  37.639 -14.103  1.00 59.72 LIG-0.40  OA
ATOM     31 HG   SER T 970      34.169  36.899 -13.914  1.00 59.72 LIG 0.21  HD
ENDBRANCH 29 30
ENDBRANCH 1 29
BRANCH 1 32
ATOM     32  N   SER T 970      35.314  37.237 -11.993  1.00 52.51 LIG-0.34  N 
ATOM     33  C   VAL T 969      36.506  37.305 -11.404  1.00 50.69 LIG 0.24  C 
ATOM     34 O    VAL T 969      36.744  38.074 -10.472  1.00 50.98 LIG-0.27  OA
ATOM     35 H    SER T 970      35.069  36.591 -12.505  1.00 52.51 LIG 0.16  HD
BRANCH 33 36
ATOM     36  CA  VAL T 969      37.574  36.312 -11.899  1.00 48.28 LIG 0.18  C 
BRANCH 36 37
ATOM     37  CB  VAL T 969      36.938  34.995 -12.368  1.00 45.61 LIG 0.01  C 
ATOM     38  CG1 VAL T 969      37.607  34.470 -13.637  1.00 51.33 LIG 0.01  C 
ATOM     39  CG2 VAL T 969      37.016  33.950 -11.254  1.00 51.13 LIG 0.01  C 
ENDBRANCH 36 37
BRANCH 36 40
ATOM     40  N   VAL T 969      38.529  36.073 -10.833  1.00 42.62 LIG-0.35  N 
ATOM     41  C   GLU T 968      39.657  36.762 -10.778  1.00 39.23 LIG 0.24  C 
ATOM     42 O    GLU T 968      40.000  37.551 -11.652  1.00 41.64 LIG-0.27  OA
ATOM     43 H    VAL T 969      38.300  35.466 -10.268  1.00 42.62 LIG 0.16  HD
BRANCH 41 44
ATOM     44  CA  GLU T 968      40.507  36.592  -9.537  1.00 43.46 LIG 0.18  C 
BRANCH 44 45
ATOM     45  CB  GLU T 968      41.690  37.532  -9.687  1.00 39.65 LIG 0.04  C 
BRANCH 45 46
ATOM     46  CG  GLU T 968      41.889  38.567  -8.654  1.00 48.42 LIG 0.12  C 
BRANCH 46 47
ATOM     47  CD  GLU T 968      41.090  38.193  -7.425  1.00 46.07 LIG 0.17  C 
ATOM     48 OE1  GLU T 968      40.124  38.934  -7.111  1.00 37.62 LIG-0.65  OA
ATOM     49 OE2  GLU T 968      41.384  37.131  -6.824  1.00 42.01 LIG-0.65  OA
ENDBRANCH 46 47
ENDBRANCH 45 46
ENDBRANCH 44 45
BRANCH 44 50
ATOM     50  N   GLU T 968      40.943  35.208  -9.368  1.00 42.28 LIG-0.35  N 
ATOM     51  C   GLU T 967      40.112  34.257  -8.942  1.00 44.22 LIG 0.26  C 
ATOM     52 O    GLU T 967      38.980  34.487  -8.541  1.00 45.73 LIG-0.27  OA
ATOM     53 H    GLU T 968      41.768  35.069  -9.566  1.00 42.28 LIG 0.16  HD
BRANCH 51 54
ATOM     54  CA  GLU T 967      40.631  32.825  -8.956  1.00 63.10 LIG 0.40  C 
ATOM     55  N   GLU T 967      41.486  32.585  -7.797  1.00 61.06 LIG 0.61  N 
BRANCH 54 56
ATOM     56  CB  GLU T 967      39.457  31.847  -8.970  1.00 76.10 LIG 0.06  C 
BRANCH 56 57
ATOM     57  CG  GLU T 967      39.806  30.489  -9.539  1.00 93.75 LIG 0.12  C 
BRANCH 57 58
ATOM     58  CD  GLU T 967      41.278  30.165  -9.386  1.00103.86 LIG 0.17  C 
ATOM     59 OE1  GLU T 967      41.995  30.148 -10.408  1.00104.00 LIG-0.65  OA
ATOM     60 OE2  GLU T 967      41.720  29.938  -8.238  1.00109.28 LIG-0.65  OA
ENDBRANCH 57 58
ENDBRANCH 56 57
ENDBRANCH 54 56
ENDBRANCH 51 54
ENDBRANCH 44 50
ENDBRANCH 41 44
ENDBRANCH 36 40
ENDBRANCH 33 36
ENDBRANCH 1 32
TORSDOF 26
ENDMDL
MODEL 52
USER: ADFR SOLUTION from run 51
USER: SCORE 18.290703 LL:  -5.705 LR: -15.212 RR:   0.000 FEB:  -7.456
USER: RMSD 10.974973
USER: SEED 50
USER: STATUS searching
USER: GENES 28
USER: genes 0 Translation |==|  0.56892 0.49973 0.43690
USER: genes 1 Rotation |==|  0.80443 0.89522 0.53161 0.51116
USER: genes 2 Torsion [N]-CA--C-[N] |==|  0.24559
USER: genes 3 Torsion [C]-N--CA-[CB] |==|  0.45051
USER: genes 4 Torsion [N]-CA--CB-[CG] |==|  0.53630
USER: genes 5 Torsion [CA]-CB--CG-[CD] |==|  0.16739
USER: genes 6 Torsion [CB]-CG--CD-[OE1] |==|  0.53770
USER: genes 7 Torsion [N]-CA--C-[N] |==|  0.93333
USER: genes 8 Torsion [C]-N--CA-[CB] |==|  0.37282
USER: genes 9 Torsion [N]-CA--C-[O] |==|  0.36412
USER: genes 10 Torsion [N]-CA--CB-[CG] |==|  0.99799
USER: genes 11 Torsion [CA]-CB--CG-[CD1] |==|  0.26803
USER: genes 12 Torsion [CE1]-CZ--OH-[HH] |==|  0.78370
USER: genes 13 Torsion [C]-CA--CB-[OG] |==|  0.68561
USER: genes 14 Torsion [CA]-CB--OG-[HG] |==|  0.04002
USER: genes 15 Torsion [C]-CA--N-[C] |==|  0.61382
USER: genes 16 Torsion [N]-C--CA-[N] |==|  0.30778
USER: genes 17 Torsion [C]-CA--CB-[CG1] |==|  0.21895
USER: genes 18 Torsion [C]-CA--N-[C] |==|  0.76294
USER: genes 19 Torsion [N]-C--CA-[N] |==|  0.60241
USER: genes 20 Torsion [C]-CA--CB-[CG] |==|  0.44328
USER: genes 21 Torsion [CA]-CB--CG-[CD] |==|  0.17111
USER: genes 22 Torsion [CB]-CG--CD-[OE1] |==|  0.13895
USER: genes 23 Torsion [C]-CA--N-[C] |==|  0.15350
USER: genes 24 Torsion [N]-C--CA-[N] |==|  0.81831
USER: genes 25 Torsion [C]-CA--CB-[CG] |==|  0.43392
USER: genes 26 Torsion [CA]-CB--CG-[CD] |==|  0.79911
USER: genes 27 Torsion [CB]-CG--CD-[OE1] |==|  0.73029
ROOT
ATOM      1  CA  SER T 970      34.200  38.005 -10.602  1.00 53.81 LIG 0.20  C 
ENDROOT
BRANCH 1 2
ATOM      2  C   SER T 970      33.080  37.633  -9.638  1.00 54.98 LIG 0.24  C 
ATOM      3  N   GLU T 971      33.457  37.357  -8.397  1.00 36.24 LIG-0.35  N 
ATOM      4 H    GLU T 971      34.267  37.336  -8.110  1.00 36.24 LIG 0.16  HD
ATOM      5 O    SER T 970      31.887  37.637  -9.983  1.00 50.73 LIG-0.27  OA
BRANCH 3 6
ATOM      6  CA  GLU T 971      32.430  37.061  -7.426  1.00 34.69 LIG 0.18  C 
BRANCH 6 7
ATOM      7  CB  GLU T 971      33.004  36.353  -6.201  1.00 35.28 LIG 0.04  C 
BRANCH 7 8
ATOM      8  CG  GLU T 971      31.930  35.744  -5.303  1.00 38.63 LIG 0.12  C 
BRANCH 8 9
ATOM      9  CD  GLU T 971      31.083  34.698  -6.027  1.00 44.02 LIG 0.17  C 
ATOM     10 OE1  GLU T 971      30.016  34.308  -5.500  1.00 46.94 LIG-0.65  OA
ATOM     11 OE2  GLU T 971      31.486  34.264  -7.125  1.00 38.45 LIG-0.65  OA
ENDBRANCH 8 9
ENDBRANCH 7 8
ENDBRANCH 6 7
BRANCH 6 12
ATOM     12  C   GLU T 971      31.749  38.341  -7.003  1.00 38.38 LIG 0.24  C 
ATOM     13  N   TYR T 972      32.480  39.425  -7.164  1.00 34.07 LIG-0.34  N 
ATOM     14 H    TYR T 972      33.304  39.416  -7.412  1.00 34.07 LIG 0.16  HD
ATOM     15 O    GLU T 971      30.591  38.343  -6.557  1.00 36.91 LIG-0.27  OA
BRANCH 13 16
ATOM     16  CA  TYR T 972      31.943  40.745  -6.934  1.00 35.97 LIG 0.19  C 
BRANCH 16 17
ATOM     17  C   TYR T 972      31.659  41.428  -8.277  1.00 45.43 LIG 0.20  C 
ATOM     18 OXT  TYR T 972      32.544  41.438  -9.133  1.00 40.76 LIG-0.65  OA
ATOM     19 O    TYR T 972      30.579  41.989  -8.538  1.00 41.72 LIG-0.65  OA
ENDBRANCH 16 17
BRANCH 16 20
ATOM     20  CB  TYR T 972      32.915  41.584  -6.111  1.00 33.99 LIG 0.07  C 
BRANCH 20 21
ATOM     21  CG  TYR T 972      34.138  40.802  -5.761  1.00 33.93 LIG-0.06  A 
ATOM     22  CD1 TYR T 972      35.292  40.907  -6.523  1.00 33.64 LIG 0.01  A 
ATOM     23  CE1 TYR T 972      36.426  40.195  -6.189  1.00 37.50 LIG 0.04  A 
ATOM     24  CZ  TYR T 972      36.407  39.390  -5.079  1.00 37.64 LIG 0.07  A 
ATOM     25  CE2 TYR T 972      35.284  39.289  -4.295  1.00 36.30 LIG 0.04  A 
ATOM     26  CD2 TYR T 972      34.158  39.987  -4.636  1.00 38.70 LIG 0.01  A 
BRANCH 24 27
ATOM     27 OH   TYR T 972      37.525  38.683  -4.748  1.00 40.25 LIG-0.36  OA
ATOM     28 HH   TYR T 972      37.588  38.010  -5.246  1.00 40.25 LIG 0.22  HD
ENDBRANCH 24 27
ENDBRANCH 20 21
ENDBRANCH 16 20
ENDBRANCH 13 16
ENDBRANCH 6 12
ENDBRANCH 3 6
ENDBRANCH 1 2
BRANCH 1 29
ATOM     29  CB  SER T 970      33.642  39.015 -11.611  1.00 55.16 LIG 0.20  C 
BRANCH 29 30
ATOM     30 OG   SER T 970      33.596  38.454 -12.910  1.00 59.72 LIG-0.40  OA
ATOM     31 HG   SER T 970      33.693  37.621 -12.859  1.00 59.72 LIG 0.21  HD
ENDBRANCH 29 30
ENDBRANCH 1 29
BRANCH 1 32
ATOM     32  N   SER T 970      34.839  36.887 -11.308  1.00 52.51 LIG-0.34  N 
ATOM     33  C   VAL T 969      36.155  36.837 -11.496  1.00 50.69 LIG 0.24  C 
ATOM     34 O    VAL T 969      36.944  37.550 -10.874  1.00 50.98 LIG-0.27  OA
ATOM     35 H    SER T 970      34.292  36.282 -11.581  1.00 52.51 LIG 0.16  HD
BRANCH 33 36
ATOM     36  CA  VAL T 969      36.667  35.781 -12.494  1.00 48.28 LIG 0.18  C 
BRANCH 36 37
ATOM     37  CB  VAL T 969      37.748  34.892 -11.860  1.00 45.61 LIG 0.01  C 
ATOM     38  CG1 VAL T 969      37.137  33.821 -10.958  1.00 51.33 LIG 0.01  C 
ATOM     39  CG2 VAL T 969      38.601  34.246 -12.953  1.00 51.13 LIG 0.01  C 
ENDBRANCH 36 37
BRANCH 36 40
ATOM     40  N   VAL T 969      37.178  36.452 -13.674  1.00 42.62 LIG-0.35  N 
ATOM     41  C   GLU T 968      36.360  36.792 -14.656  1.00 39.23 LIG 0.24  C 
ATOM     42 O    GLU T 968      35.173  36.483 -14.674  1.00 41.64 LIG-0.27  OA
ATOM     43 H    VAL T 969      38.025  36.598 -13.671  1.00 42.62 LIG 0.16  HD
BRANCH 41 44
ATOM     44  CA  GLU T 968      36.933  37.654 -15.761  1.00 43.46 LIG 0.18  C 
BRANCH 44 45
ATOM     45  CB  GLU T 968      38.163  38.335 -15.188  1.00 39.65 LIG 0.04  C 
BRANCH 45 46
ATOM     46  CG  GLU T 968      39.169  38.860 -16.132  1.00 48.42 LIG 0.12  C 
BRANCH 46 47
ATOM     47  CD  GLU T 968      38.525  39.924 -16.994  1.00 46.07 LIG 0.17  C 
ATOM     48 OE1  GLU T 968      37.880  40.833 -16.412  1.00 37.62 LIG-0.65  OA
ATOM     49 OE2  GLU T 968      38.723  39.886 -18.233  1.00 42.01 LIG-0.65  OA
ENDBRANCH 46 47
ENDBRANCH 45 46
ENDBRANCH 44 45
BRANCH 44 50
ATOM     50  N   GLU T 968      35.958  38.629 -16.244  1.00 42.28 LIG-0.35  N 
ATOM     51  C   GLU T 967      35.355  39.487 -15.421  1.00 44.22 LIG 0.26  C 
ATOM     52 O    GLU T 967      35.468  39.440 -14.205  1.00 45.73 LIG-0.27  OA
ATOM     53 H    GLU T 968      35.815  38.597 -17.092  1.00 42.28 LIG 0.16  HD
BRANCH 51 54
ATOM     54  CA  GLU T 967      34.480  40.559 -16.057  1.00 63.10 LIG 0.40  C 
ATOM     55  N   GLU T 967      35.295  41.469 -16.856  1.00 61.06 LIG 0.61  N 
BRANCH 54 56
ATOM     56  CB  GLU T 967      33.401  39.905 -16.919  1.00 76.10 LIG 0.06  C 
BRANCH 56 57
ATOM     57  CG  GLU T 967      32.179  40.774 -17.124  1.00 93.75 LIG 0.12  C 
BRANCH 57 58
ATOM     58  CD  GLU T 967      31.338  40.884 -15.868  1.00103.86 LIG 0.17  C 
ATOM     59 OE1  GLU T 967      30.348  40.132 -15.746  1.00104.00 LIG-0.65  OA
ATOM     60 OE2  GLU T 967      31.674  41.717 -14.999  1.00109.28 LIG-0.65  OA
ENDBRANCH 57 58
ENDBRANCH 56 57
ENDBRANCH 54 56
ENDBRANCH 51 54
ENDBRANCH 44 50
ENDBRANCH 41 44
ENDBRANCH 36 40
ENDBRANCH 33 36
ENDBRANCH 1 32
TORSDOF 26
ENDMDL
MODEL 53
USER: ADFR SOLUTION from run 87
USER: SCORE 17.969388 LL:  -4.262 LR: -15.213 RR:   0.000 FEB:  -7.457
USER: RMSD 3.929542
USER: SEED 86
USER: STATUS no improvement in best in 14 clusters for 5 generations
USER: GENES 28
USER: genes 0 Translation |==|  0.50125 0.54157 0.56391
USER: genes 1 Rotation |==|  0.59723 0.39951 0.44993 0.97743
USER: genes 2 Torsion [N]-CA--C-[N] |==|  0.43368
USER: genes 3 Torsion [C]-N--CA-[CB] |==|  0.25982
USER: genes 4 Torsion [N]-CA--CB-[CG] |==|  0.13644
USER: genes 5 Torsion [CA]-CB--CG-[CD] |==|  0.71412
USER: genes 6 Torsion [CB]-CG--CD-[OE1] |==|  0.71129
USER: genes 7 Torsion [N]-CA--C-[N] |==|  0.39233
USER: genes 8 Torsion [C]-N--CA-[CB] |==|  0.46434
USER: genes 9 Torsion [N]-CA--C-[O] |==|  0.88407
USER: genes 10 Torsion [N]-CA--CB-[CG] |==|  0.43785
USER: genes 11 Torsion [CA]-CB--CG-[CD1] |==|  0.74266
USER: genes 12 Torsion [CE1]-CZ--OH-[HH] |==|  0.15523
USER: genes 13 Torsion [C]-CA--CB-[OG] |==|  0.92452
USER: genes 14 Torsion [CA]-CB--OG-[HG] |==|  0.58069
USER: genes 15 Torsion [C]-CA--N-[C] |==|  0.70769
USER: genes 16 Torsion [N]-C--CA-[N] |==|  0.85556
USER: genes 17 Torsion [C]-CA--CB-[CG1] |==|  0.78377
USER: genes 18 Torsion [C]-CA--N-[C] |==|  0.79853
USER: genes 19 Torsion [N]-C--CA-[N] |==|  0.11861
USER: genes 20 Torsion [C]-CA--CB-[CG] |==|  0.41205
USER: genes 21 Torsion [CA]-CB--CG-[CD] |==|  0.46625
USER: genes 22 Torsion [CB]-CG--CD-[OE1] |==|  0.92230
USER: genes 23 Torsion [C]-CA--N-[C] |==|  0.16584
USER: genes 24 Torsion [N]-C--CA-[N] |==|  0.54092
USER: genes 25 Torsion [C]-CA--CB-[CG] |==|  0.84382
USER: genes 26 Torsion [CA]-CB--CG-[CD] |==|  0.77520
USER: genes 27 Torsion [CB]-CG--CD-[OE1] |==|  0.76061
ROOT
ATOM      1  CA  SER T 970      32.272  38.821  -8.125  1.00 53.81 LIG 0.20  C 
ENDROOT
BRANCH 1 2
ATOM      2  C   SER T 970      32.595  38.250  -9.500  1.00 54.98 LIG 0.24  C 
ATOM      3  N   GLU T 971      33.847  38.404  -9.907  1.00 36.24 LIG-0.35  N 
ATOM      4 H    GLU T 971      34.467  38.823  -9.481  1.00 36.24 LIG 0.16  HD
ATOM      5 O    SER T 970      31.750  37.637 -10.174  1.00 50.73 LIG-0.27  OA
BRANCH 3 6
ATOM      6  CA  GLU T 971      34.226  37.826 -11.175  1.00 34.69 LIG 0.18  C 
BRANCH 6 7
ATOM      7  CB  GLU T 971      34.092  38.834 -12.313  1.00 35.28 LIG 0.04  C 
BRANCH 7 8
ATOM      8  CG  GLU T 971      34.753  40.176 -12.005  1.00 38.63 LIG 0.12  C 
BRANCH 8 9
ATOM      9  CD  GLU T 971      33.740  41.256 -11.628  1.00 44.02 LIG 0.17  C 
ATOM     10 OE1  GLU T 971      33.447  42.136 -12.469  1.00 46.94 LIG-0.65  OA
ATOM     11 OE2  GLU T 971      33.235  41.225 -10.487  1.00 38.45 LIG-0.65  OA
ENDBRANCH 8 9
ENDBRANCH 7 8
ENDBRANCH 6 7
BRANCH 6 12
ATOM     12  C   GLU T 971      35.648  37.325 -11.100  1.00 38.38 LIG 0.24  C 
ATOM     13  N   TYR T 972      35.858  36.187 -11.730  1.00 34.07 LIG-0.34  N 
ATOM     14 H    TYR T 972      35.235  35.716 -12.089  1.00 34.07 LIG 0.16  HD
ATOM     15 O    GLU T 971      36.529  37.960 -10.499  1.00 36.91 LIG-0.27  OA
BRANCH 13 16
ATOM     16  CA  TYR T 972      37.182  35.629 -11.870  1.00 35.97 LIG 0.19  C 
BRANCH 16 17
ATOM     17  C   TYR T 972      37.995  36.473 -12.859  1.00 45.43 LIG 0.20  C 
ATOM     18 OXT  TYR T 972      39.166  36.738 -12.586  1.00 40.76 LIG-0.65  OA
ATOM     19 O    TYR T 972      37.520  36.921 -13.919  1.00 41.72 LIG-0.65  OA
ENDBRANCH 16 17
BRANCH 16 20
ATOM     20  CB  TYR T 972      37.107  34.183 -12.348  1.00 33.99 LIG 0.07  C 
BRANCH 20 21
ATOM     21  CG  TYR T 972      38.382  33.765 -13.002  1.00 33.93 LIG-0.06  A 
ATOM     22  CD1 TYR T 972      38.552  33.885 -14.374  1.00 33.64 LIG 0.01  A 
ATOM     23  CE1 TYR T 972      39.737  33.512 -14.974  1.00 37.50 LIG 0.04  A 
ATOM     24  CZ  TYR T 972      40.759  33.034 -14.195  1.00 37.64 LIG 0.07  A 
ATOM     25  CE2 TYR T 972      40.624  32.929 -12.833  1.00 36.30 LIG 0.04  A 
ATOM     26  CD2 TYR T 972      39.443  33.289 -12.242  1.00 38.70 LIG 0.01  A 
BRANCH 24 27
ATOM     27 OH   TYR T 972      41.930  32.662 -14.787  1.00 40.25 LIG-0.36  OA
ATOM     28 HH   TYR T 972      42.235  33.305 -15.233  1.00 40.25 LIG 0.22  HD
ENDBRANCH 24 27
ENDBRANCH 20 21
ENDBRANCH 16 20
ENDBRANCH 13 16
ENDBRANCH 6 12
ENDBRANCH 3 6
ENDBRANCH 1 2
BRANCH 1 29
ATOM     29  CB  SER T 970      32.766  37.824  -7.070  1.00 55.16 LIG 0.20  C 
BRANCH 29 30
ATOM     30 OG   SER T 970      32.777  36.507  -7.589  1.00 59.72 LIG-0.40  OA
ATOM     31 HG   SER T 970      32.655  35.959  -6.965  1.00 59.72 LIG 0.21  HD
ENDBRANCH 29 30
ENDBRANCH 1 29
BRANCH 1 32
ATOM     32  N   SER T 970      30.863  39.155  -7.882  1.00 52.51 LIG-0.34  N 
ATOM     33  C   VAL T 969      30.433  40.414  -7.869  1.00 50.69 LIG 0.24  C 
ATOM     34 O    VAL T 969      31.096  41.348  -8.321  1.00 50.98 LIG-0.27  OA
ATOM     35 H    SER T 970      30.354  38.473  -7.751  1.00 52.51 LIG 0.16  HD
BRANCH 33 36
ATOM     36  CA  VAL T 969      29.014  40.651  -7.317  1.00 48.28 LIG 0.18  C 
BRANCH 36 37
ATOM     37  CB  VAL T 969      28.963  40.430  -5.798  1.00 45.61 LIG 0.01  C 
ATOM     38  CG1 VAL T 969      28.933  38.943  -5.447  1.00 51.33 LIG 0.01  C 
ATOM     39  CG2 VAL T 969      30.157  41.111  -5.129  1.00 51.13 LIG 0.01  C 
ENDBRANCH 36 37
BRANCH 36 40
ATOM     40  N   VAL T 969      28.087  39.766  -7.998  1.00 42.62 LIG-0.35  N 
ATOM     41  C   GLU T 968      27.750  39.992  -9.257  1.00 39.23 LIG 0.24  C 
ATOM     42 O    GLU T 968      28.109  40.987  -9.876  1.00 41.64 LIG-0.27  OA
ATOM     43 H    VAL T 969      27.793  39.112  -7.523  1.00 42.62 LIG 0.16  HD
BRANCH 41 44
ATOM     44  CA  GLU T 968      26.933  38.924  -9.952  1.00 43.46 LIG 0.18  C 
BRANCH 44 45
ATOM     45  CB  GLU T 968      26.359  39.561 -11.205  1.00 39.65 LIG 0.04  C 
BRANCH 45 46
ATOM     46  CG  GLU T 968      26.151  38.703 -12.388  1.00 48.42 LIG 0.12  C 
BRANCH 46 47
ATOM     47  CD  GLU T 968      25.309  39.453 -13.397  1.00 46.07 LIG 0.17  C 
ATOM     48 OE1  GLU T 968      24.510  40.319 -12.959  1.00 37.62 LIG-0.65  OA
ATOM     49 OE2  GLU T 968      25.499  39.225 -14.616  1.00 42.01 LIG-0.65  OA
ENDBRANCH 46 47
ENDBRANCH 45 46
ENDBRANCH 44 45
BRANCH 44 50
ATOM     50  N   GLU T 968      25.879  38.402  -9.087  1.00 42.28 LIG-0.35  N 
ATOM     51  C   GLU T 967      24.926  39.190  -8.587  1.00 44.22 LIG 0.26  C 
ATOM     52 O    GLU T 967      24.934  40.407  -8.704  1.00 45.73 LIG-0.27  OA
ATOM     53 H    GLU T 968      25.930  37.557  -8.934  1.00 42.28 LIG 0.16  HD
BRANCH 51 54
ATOM     54  CA  GLU T 967      23.792  38.512  -7.829  1.00 63.10 LIG 0.40  C 
ATOM     55  N   GLU T 967      22.677  39.437  -7.653  1.00 61.06 LIG 0.61  N 
BRANCH 54 56
ATOM     56  CB  GLU T 967      23.340  37.261  -8.582  1.00 76.10 LIG 0.06  C 
BRANCH 56 57
ATOM     57  CG  GLU T 967      22.921  37.531 -10.011  1.00 93.75 LIG 0.12  C 
BRANCH 57 58
ATOM     58  CD  GLU T 967      21.506  38.064 -10.100  1.00103.86 LIG 0.17  C 
ATOM     59 OE1  GLU T 967      20.563  37.246 -10.145  1.00104.00 LIG-0.65  OA
ATOM     60 OE2  GLU T 967      21.338  39.302 -10.117  1.00109.28 LIG-0.65  OA
ENDBRANCH 57 58
ENDBRANCH 56 57
ENDBRANCH 54 56
ENDBRANCH 51 54
ENDBRANCH 44 50
ENDBRANCH 41 44
ENDBRANCH 36 40
ENDBRANCH 33 36
ENDBRANCH 1 32
TORSDOF 26
ENDMDL
