MODEL 1
USER: ADFR SOLUTION from run 193
USER: SCORE 18.952100 LL:  -4.336 LR: -17.665 RR:   0.000 FEB: -11.997
USER: RMSD 11.916671
USER: SEED 192
USER: STATUS 1 or 2 clusters left
USER: GENES 21
USER: genes 0 Translation |==|  0.43954 0.34604 0.43953
USER: genes 1 Rotation |==|  0.49641 0.31302 0.96065 0.55317
USER: genes 2 Torsion [N]-CA--C-[N] |==|  0.44034
USER: genes 3 Torsion [C]-N--CA-[CB] |==|  0.33537
USER: genes 4 Torsion [N]-CA--C-[N] |==|  0.33954
USER: genes 5 Torsion [C]-N--CA-[CB] |==|  0.21667
USER: genes 6 Torsion [N]-CA--C-[N] |==|  0.70076
USER: genes 7 Torsion [C]-N--CA-[CB] |==|  0.23487
USER: genes 8 Torsion [N]-CA--C-[OXT] |==|  0.35381
USER: genes 9 Torsion [N]-CA--CB-[CG] |==|  0.75138
USER: genes 10 Torsion [CA]-CB--CG-[CD2] |==|  0.38161
USER: genes 11 Torsion [C]-CA--CB-[CG] |==|  0.64197
USER: genes 12 Torsion [CA]-CB--CG-[OD2] |==|  0.69625
USER: genes 13 Torsion [C]-CA--N-[C] |==|  0.72195
USER: genes 14 Torsion [N]-C--CA-[N] |==|  0.25180
USER: genes 15 Torsion [C]-CA--CB-[CG] |==|  0.25296
USER: genes 16 Torsion [CA]-CB--CG-[CD2] |==|  0.74030
USER: genes 17 Torsion [C]-CA--N-[C] |==|  0.74455
USER: genes 18 Torsion [N]-C--CA-[N] |==|  0.81896
USER: genes 19 Torsion [C]-CA--CB-[CG] |==|  0.77803
USER: genes 20 Torsion [CA]-CB--CG-[OD2] |==|  0.47487
ROOT
ATOM      1  CA  ASP C 155     -11.600   6.762 -25.552  1.00 34.31 LIG 0.19  C 
ENDROOT
BRANCH 1 2
ATOM      2  C   ASP C 155     -11.913   7.765 -24.454  1.00 33.42 LIG 0.24  C 
ATOM      3 O    ASP C 155     -13.076   8.114 -24.227  1.00 32.60 LIG-0.27  OA
ATOM      4  N   ALA C 156     -10.865   8.199 -23.760  1.00 30.74 LIG-0.35  N 
ATOM      5 H    ALA C 156     -10.066   7.900 -23.869  1.00 30.74 LIG 0.16  HD
BRANCH 4 6
ATOM      6  CA  ALA C 156     -10.978   9.229 -22.743  1.00 30.13 LIG 0.17  C 
ATOM      7  CB  ALA C 156     -10.508   8.697 -21.398  1.00 30.23 LIG 0.04  C 
BRANCH 6 8
ATOM      8  C   ALA C 156     -10.140  10.422 -23.171  1.00 29.70 LIG 0.24  C 
ATOM      9  N   HIS C 157     -10.799  11.571 -23.282  1.00 30.21 LIG-0.35  N 
ATOM     10 H    HIS C 157     -11.630  11.664 -23.081  1.00 30.21 LIG 0.16  HD
ATOM     11 O    ALA C 156      -8.928  10.296 -23.400  1.00 27.33 LIG-0.27  OA
BRANCH 9 12
ATOM     12  CA  HIS C 157     -10.163  12.794 -23.762  1.00 31.06 LIG 0.18  C 
BRANCH 12 13
ATOM     13  C   HIS C 157     -10.969  13.993 -23.296  1.00 30.33 LIG 0.24  C 
ATOM     14  N   ALA C 158     -11.669  14.631 -24.230  1.00 29.79 LIG-0.34  N 
ATOM     15 H    ALA C 158     -11.715  14.379 -25.051  1.00 29.79 LIG 0.16  HD
ATOM     16 O    HIS C 157     -10.936  14.349 -22.113  1.00 30.67 LIG-0.27  OA
BRANCH 14 17
ATOM     17  CA  ALA C 158     -12.434  15.843 -23.927  1.00 31.13 LIG 0.18  C 
ATOM     18  CB  ALA C 158     -11.542  17.077 -23.995  1.00 30.84 LIG 0.04  C 
BRANCH 17 19
ATOM     19  C   ALA C 158     -13.621  16.000 -24.865  1.00 31.87 LIG 0.20  C 
ATOM     20 OXT  ALA C 158     -14.758  16.174 -24.419  1.00 33.04 LIG-0.65  OA
ATOM     21 O    ALA C 158     -13.456  15.952 -26.087  1.00 31.17 LIG-0.65  OA
ENDBRANCH 17 19
ENDBRANCH 14 17
ENDBRANCH 12 13
BRANCH 12 22
ATOM     22  CB  HIS C 157     -10.030  12.760 -25.288  1.00 32.09 LIG 0.10  C 
BRANCH 22 23
ATOM     23  CG  HIS C 157      -8.748  12.141 -25.755  1.00 35.38 LIG 0.06  A 
ATOM     24 ND1  HIS C 157      -7.541  12.365 -25.123  1.00 36.48 LIG-0.24  NA
ATOM     25  CE1 HIS C 157      -6.595  11.668 -25.730  1.00 37.27 LIG 0.23  A 
ATOM     26 NE2  HIS C 157      -7.147  10.992 -26.725  1.00 37.33 LIG-0.25  NA
ATOM     27  CD2 HIS C 157      -8.492  11.266 -26.760  1.00 35.91 LIG 0.14  A 
ENDBRANCH 22 23
ENDBRANCH 12 22
ENDBRANCH 9 12
ENDBRANCH 6 8
ENDBRANCH 4 6
ENDBRANCH 1 2
BRANCH 1 28
ATOM     28  CB  ASP C 155     -11.084   7.496 -26.776  1.00 35.23 LIG 0.15  C 
BRANCH 28 29
ATOM     29  CG  ASP C 155     -11.815   7.108 -28.048  1.00 35.97 LIG 0.17  C 
ATOM     30 OD2  ASP C 155     -11.181   6.433 -28.876  1.00 39.40 LIG-0.65  OA
ATOM     31 OD1  ASP C 155     -13.000   7.458 -28.242  1.00 38.01 LIG-0.65  OA
ENDBRANCH 28 29
ENDBRANCH 1 28
BRANCH 1 32
ATOM     32  N   ASP C 155     -12.787   6.003 -25.882  1.00 36.13 LIG-0.34  N 
ATOM     33 H    ASP C 155     -13.337   6.413 -26.401  1.00 36.13 LIG 0.16  HD
ATOM     34  C   HIS C 154     -12.991   4.782 -25.411  1.00 38.66 LIG 0.24  C 
ATOM     35 O    HIS C 154     -12.177   4.194 -24.704  1.00 35.33 LIG-0.27  OA
BRANCH 34 36
ATOM     36  CA  HIS C 154     -14.290   4.108 -25.821  1.00 42.51 LIG 0.18  C 
BRANCH 36 37
ATOM     37  CB  HIS C 154     -14.772   3.160 -24.723  1.00 45.16 LIG 0.10  C 
BRANCH 37 38
ATOM     38  CG  HIS C 154     -15.693   3.808 -23.736  1.00 48.44 LIG 0.06  A 
ATOM     39 ND1  HIS C 154     -17.052   3.917 -23.945  1.00 50.51 LIG-0.24  NA
ATOM     40  CE1 HIS C 154     -17.606   4.543 -22.922  1.00 51.05 LIG 0.23  A 
ATOM     41 NE2  HIS C 154     -16.655   4.846 -22.057  1.00 50.26 LIG-0.25  NA
ATOM     42  CD2 HIS C 154     -15.449   4.400 -22.543  1.00 50.26 LIG 0.14  A 
ENDBRANCH 37 38
ENDBRANCH 36 37
BRANCH 36 43
ATOM     43  N   HIS C 154     -14.014   3.375 -27.041  1.00 45.99 LIG-0.34  N 
ATOM     44  C   ASP C 153     -14.194   3.906 -28.245  1.00 51.00 LIG 0.26  C 
ATOM     45 O    ASP C 153     -14.780   4.974 -28.439  1.00 50.83 LIG-0.27  OA
ATOM     46 H    HIS C 154     -13.728   2.574 -26.912  1.00 45.99 LIG 0.16  HD
BRANCH 44 47
ATOM     47  CA  ASP C 153     -13.623   3.105 -29.410  1.00 53.77 LIG 0.41  C 
ATOM     48  N   ASP C 153     -12.126   3.017 -29.366  1.00 52.50 LIG 0.61  N 
BRANCH 47 49
ATOM     49  CB  ASP C 153     -14.274   1.716 -29.416  1.00 54.86 LIG 0.16  C 
BRANCH 49 50
ATOM     50  CG  ASP C 153     -13.651   0.777 -28.405  1.00 56.45 LIG 0.17  C 
ATOM     51 OD2  ASP C 153     -14.208  -0.328 -28.194  1.00 58.24 LIG-0.65  OA
ATOM     52 OD1  ASP C 153     -12.609   1.147 -27.828  1.00 54.42 LIG-0.65  OA
ENDBRANCH 49 50
ENDBRANCH 47 49
ENDBRANCH 44 47
ENDBRANCH 36 43
ENDBRANCH 34 36
ENDBRANCH 1 32
TORSDOF 19
ENDMDL
MODEL 2
USER: ADFR SOLUTION from run 8
USER: SCORE 17.333542 LL:  -3.614 LR: -17.497 RR:   0.000 FEB: -11.829
USER: RMSD 2.711563
USER: SEED 680280
USER: STATUS no improvement in best in 12 clusters for 5 generations
USER: GENES 21
USER: genes 0 Translation |==|  0.47726 0.56269 0.54105
USER: genes 1 Rotation |==|  0.53331 0.47882 0.51504 0.99821
USER: genes 2 Torsion [N]-CA--C-[N] |==|  0.41975
USER: genes 3 Torsion [C]-N--CA-[CB] |==|  0.24507
USER: genes 4 Torsion [N]-CA--C-[N] |==|  0.41141
USER: genes 5 Torsion [C]-N--CA-[CB] |==|  0.40596
USER: genes 6 Torsion [N]-CA--C-[N] |==|  0.34274
USER: genes 7 Torsion [C]-N--CA-[CB] |==|  0.47111
USER: genes 8 Torsion [N]-CA--C-[OXT] |==|  0.94852
USER: genes 9 Torsion [N]-CA--CB-[CG] |==|  0.39396
USER: genes 10 Torsion [CA]-CB--CG-[CD2] |==|  0.73981
USER: genes 11 Torsion [C]-CA--CB-[CG] |==|  0.43714
USER: genes 12 Torsion [CA]-CB--CG-[OD2] |==|  0.34044
USER: genes 13 Torsion [C]-CA--N-[C] |==|  0.59129
USER: genes 14 Torsion [N]-C--CA-[N] |==|  0.58149
USER: genes 15 Torsion [C]-CA--CB-[CG] |==|  0.52055
USER: genes 16 Torsion [CA]-CB--CG-[CD2] |==|  0.97817
USER: genes 17 Torsion [C]-CA--N-[C] |==|  0.74808
USER: genes 18 Torsion [N]-C--CA-[N] |==|  0.37283
USER: genes 19 Torsion [C]-CA--CB-[CG] |==|  0.51349
USER: genes 20 Torsion [CA]-CB--CG-[OD2] |==|  0.14756
ROOT
ATOM      1  CA  ASP C 155     -10.892  12.612 -23.648  1.00 34.31 LIG 0.19  C 
ENDROOT
BRANCH 1 2
ATOM      2  C   ASP C 155     -10.233  11.243 -23.651  1.00 33.42 LIG 0.24  C 
ATOM      3 O    ASP C 155      -9.003  11.130 -23.672  1.00 32.60 LIG-0.27  OA
ATOM      4  N   ALA C 156     -11.066  10.207 -23.599  1.00 30.74 LIG-0.35  N 
ATOM      5 H    ALA C 156     -11.918  10.286 -23.509  1.00 30.74 LIG 0.16  HD
BRANCH 4 6
ATOM      6  CA  ALA C 156     -10.606   8.833 -23.690  1.00 30.13 LIG 0.17  C 
ATOM      7  CB  ALA C 156     -10.252   8.301 -22.310  1.00 30.23 LIG 0.04  C 
BRANCH 6 8
ATOM      8  C   ALA C 156     -11.706   7.998 -24.322  1.00 29.70 LIG 0.24  C 
ATOM      9  N   HIS C 157     -11.293   6.972 -25.060  1.00 30.21 LIG-0.35  N 
ATOM     10 H    HIS C 157     -10.466   6.751 -25.144  1.00 30.21 LIG 0.16  HD
ATOM     11 O    ALA C 156     -12.900   8.285 -24.146  1.00 27.33 LIG-0.27  OA
BRANCH 9 12
ATOM     12  CA  HIS C 157     -12.215   6.120 -25.803  1.00 31.06 LIG 0.18  C 
BRANCH 12 13
ATOM     13  C   HIS C 157     -12.633   4.953 -24.928  1.00 30.33 LIG 0.24  C 
ATOM     14  N   ALA C 158     -13.940   4.803 -24.731  1.00 29.79 LIG-0.34  N 
ATOM     15 H    ALA C 158     -14.541   5.297 -25.098  1.00 29.79 LIG 0.16  HD
ATOM     16 O    HIS C 157     -11.783   4.216 -24.418  1.00 30.67 LIG-0.27  OA
BRANCH 14 17
ATOM     17  CA  ALA C 158     -14.473   3.760 -23.852  1.00 31.13 LIG 0.18  C 
ATOM     18  CB  ALA C 158     -15.962   3.969 -23.604  1.00 30.84 LIG 0.04  C 
BRANCH 17 19
ATOM     19  C   ALA C 158     -14.225   2.372 -24.421  1.00 31.87 LIG 0.20  C 
ATOM     20 OXT  ALA C 158     -13.959   2.218 -25.616  1.00 33.04 LIG-0.65  OA
ATOM     21 O    ALA C 158     -14.291   1.381 -23.688  1.00 31.17 LIG-0.65  OA
ENDBRANCH 17 19
ENDBRANCH 14 17
ENDBRANCH 12 13
BRANCH 12 22
ATOM     22  CB  HIS C 157     -11.567   5.646 -27.108  1.00 32.09 LIG 0.10  C 
BRANCH 22 23
ATOM     23  CG  HIS C 157     -11.908   4.229 -27.455  1.00 35.38 LIG 0.06  A 
ATOM     24 ND1  HIS C 157     -13.014   3.895 -28.210  1.00 36.48 LIG-0.24  NA
ATOM     25  CE1 HIS C 157     -13.044   2.585 -28.384  1.00 37.27 LIG 0.23  A 
ATOM     26 NE2  HIS C 157     -11.992   2.058 -27.779  1.00 37.33 LIG-0.25  NA
ATOM     27  CD2 HIS C 157     -11.263   3.065 -27.194  1.00 35.91 LIG 0.14  A 
ENDBRANCH 22 23
ENDBRANCH 12 22
ENDBRANCH 9 12
ENDBRANCH 6 8
ENDBRANCH 4 6
ENDBRANCH 1 2
BRANCH 1 28
ATOM     28  CB  ASP C 155     -11.227  13.014 -25.073  1.00 35.23 LIG 0.15  C 
BRANCH 28 29
ATOM     29  CG  ASP C 155     -12.333  14.051 -25.148  1.00 35.97 LIG 0.17  C 
ATOM     30 OD2  ASP C 155     -12.065  15.116 -25.728  1.00 39.40 LIG-0.65  OA
ATOM     31 OD1  ASP C 155     -13.457  13.831 -24.646  1.00 38.01 LIG-0.65  OA
ENDBRANCH 28 29
ENDBRANCH 1 28
BRANCH 1 32
ATOM     32  N   ASP C 155     -10.008  13.585 -23.043  1.00 36.13 LIG-0.34  N 
ATOM     33 H    ASP C 155      -9.172  13.435 -23.177  1.00 36.13 LIG 0.16  HD
ATOM     34  C   HIS C 154     -10.469  14.612 -22.346  1.00 38.66 LIG 0.24  C 
ATOM     35 O    HIS C 154     -11.667  14.835 -22.199  1.00 35.33 LIG-0.27  OA
BRANCH 34 36
ATOM     36  CA  HIS C 154      -9.429  15.545 -21.748  1.00 42.51 LIG 0.18  C 
BRANCH 36 37
ATOM     37  CB  HIS C 154      -8.146  14.780 -21.421  1.00 45.16 LIG 0.10  C 
BRANCH 37 38
ATOM     38  CG  HIS C 154      -7.140  15.595 -20.669  1.00 48.44 LIG 0.06  A 
ATOM     39 ND1  HIS C 154      -5.998  15.047 -20.120  1.00 50.51 LIG-0.24  NA
ATOM     40  CE1 HIS C 154      -5.309  15.993 -19.506  1.00 51.05 LIG 0.23  A 
ATOM     41 NE2  HIS C 154      -5.963  17.133 -19.635  1.00 50.26 LIG-0.25  NA
ATOM     42  CD2 HIS C 154      -7.112  16.912 -20.356  1.00 50.26 LIG 0.14  A 
ENDBRANCH 37 38
ENDBRANCH 36 37
BRANCH 36 43
ATOM     43  N   HIS C 154     -10.010  16.103 -20.544  1.00 45.99 LIG-0.34  N 
ATOM     44  C   ASP C 153     -10.704  17.235 -20.548  1.00 51.00 LIG 0.26  C 
ATOM     45 O    ASP C 153     -10.754  18.001 -21.513  1.00 50.83 LIG-0.27  OA
ATOM     46 H    HIS C 154      -9.864  15.637 -19.835  1.00 45.99 LIG 0.16  HD
BRANCH 44 47
ATOM     47  CA  ASP C 153     -11.457  17.551 -19.260  1.00 53.77 LIG 0.41  C 
ATOM     48  N   ASP C 153     -11.277  18.977 -18.827  1.00 52.50 LIG 0.61  N 
BRANCH 47 49
ATOM     49  CB  ASP C 153     -12.937  17.201 -19.458  1.00 54.86 LIG 0.16  C 
BRANCH 49 50
ATOM     50  CG  ASP C 153     -13.791  17.589 -18.271  1.00 56.45 LIG 0.17  C 
ATOM     51 OD2  ASP C 153     -13.731  18.772 -17.853  1.00 58.24 LIG-0.65  OA
ATOM     52 OD1  ASP C 153     -14.518  16.713 -17.761  1.00 54.42 LIG-0.65  OA
ENDBRANCH 49 50
ENDBRANCH 47 49
ENDBRANCH 44 47
ENDBRANCH 36 43
ENDBRANCH 34 36
ENDBRANCH 1 32
TORSDOF 19
ENDMDL
MODEL 3
USER: ADFR SOLUTION from run 57
USER: SCORE 17.748376 LL:  -4.024 LR: -17.247 RR:   0.000 FEB: -11.579
USER: RMSD 4.203954
USER: SEED 56
USER: STATUS 1 or 2 clusters left
USER: GENES 21
USER: genes 0 Translation |==|  0.46345 0.55710 0.53835
USER: genes 1 Rotation |==|  0.46931 0.56083 0.50258 0.99533
USER: genes 2 Torsion [N]-CA--C-[N] |==|  0.43332
USER: genes 3 Torsion [C]-N--CA-[CB] |==|  0.32361
USER: genes 4 Torsion [N]-CA--C-[N] |==|  0.34336
USER: genes 5 Torsion [C]-N--CA-[CB] |==|  0.44258
USER: genes 6 Torsion [N]-CA--C-[N] |==|  0.32083
USER: genes 7 Torsion [C]-N--CA-[CB] |==|  0.47561
USER: genes 8 Torsion [N]-CA--C-[OXT] |==|  0.96036
USER: genes 9 Torsion [N]-CA--CB-[CG] |==|  0.87117
USER: genes 10 Torsion [CA]-CB--CG-[CD2] |==|  0.45484
USER: genes 11 Torsion [C]-CA--CB-[CG] |==|  0.48177
USER: genes 12 Torsion [CA]-CB--CG-[OD2] |==|  0.80032
USER: genes 13 Torsion [C]-CA--N-[C] |==|  0.68393
USER: genes 14 Torsion [N]-C--CA-[N] |==|  0.93313
USER: genes 15 Torsion [C]-CA--CB-[CG] |==|  0.06751
USER: genes 16 Torsion [CA]-CB--CG-[CD2] |==|  0.19793
USER: genes 17 Torsion [C]-CA--N-[C] |==|  0.73334
USER: genes 18 Torsion [N]-C--CA-[N] |==|  0.44476
USER: genes 19 Torsion [C]-CA--CB-[CG] |==|  0.29580
USER: genes 20 Torsion [CA]-CB--CG-[OD2] |==|  0.85948
ROOT
ATOM      1  CA  ASP C 155     -11.151  12.461 -23.699  1.00 34.31 LIG 0.19  C 
ENDROOT
BRANCH 1 2
ATOM      2  C   ASP C 155     -10.521  11.086 -23.546  1.00 33.42 LIG 0.24  C 
ATOM      3 O    ASP C 155      -9.335  10.897 -23.834  1.00 32.60 LIG-0.27  OA
ATOM      4  N   ALA C 156     -11.322  10.141 -23.062  1.00 30.74 LIG-0.35  N 
ATOM      5 H    ALA C 156     -12.125  10.290 -22.793  1.00 30.74 LIG 0.16  HD
BRANCH 4 6
ATOM      6  CA  ALA C 156     -10.906   8.755 -22.944  1.00 30.13 LIG 0.17  C 
ATOM      7  CB  ALA C 156     -10.887   8.331 -21.484  1.00 30.23 LIG 0.04  C 
BRANCH 6 8
ATOM      8  C   ALA C 156     -11.871   7.894 -23.741  1.00 29.70 LIG 0.24  C 
ATOM      9  N   HIS C 157     -11.316   7.131 -24.678  1.00 30.21 LIG-0.35  N 
ATOM     10 H    HIS C 157     -10.468   7.076 -24.804  1.00 30.21 LIG 0.16  HD
ATOM     11 O    ALA C 156     -13.090   7.929 -23.512  1.00 27.33 LIG-0.27  OA
BRANCH 9 12
ATOM     12  CA  HIS C 157     -12.108   6.307 -25.586  1.00 31.06 LIG 0.18  C 
BRANCH 12 13
ATOM     13  C   HIS C 157     -12.570   5.060 -24.855  1.00 30.33 LIG 0.24  C 
ATOM     14  N   ALA C 158     -13.883   4.930 -24.684  1.00 29.79 LIG-0.34  N 
ATOM     15 H    ALA C 158     -14.464   5.483 -24.995  1.00 29.79 LIG 0.16  HD
ATOM     16 O    HIS C 157     -11.748   4.241 -24.430  1.00 30.67 LIG-0.27  OA
BRANCH 14 17
ATOM     17  CA  ALA C 158     -14.457   3.809 -23.936  1.00 31.13 LIG 0.18  C 
ATOM     18  CB  ALA C 158     -15.949   4.017 -23.709  1.00 30.84 LIG 0.04  C 
BRANCH 17 19
ATOM     19  C   ALA C 158     -14.212   2.485 -24.642  1.00 31.87 LIG 0.20  C 
ATOM     20 OXT  ALA C 158     -13.838   2.457 -25.818  1.00 33.04 LIG-0.65  OA
ATOM     21 O    ALA C 158     -14.391   1.422 -24.043  1.00 31.17 LIG-0.65  OA
ENDBRANCH 17 19
ENDBRANCH 14 17
ENDBRANCH 12 13
BRANCH 12 22
ATOM     22  CB  HIS C 157     -11.292   5.961 -26.836  1.00 32.09 LIG 0.10  C 
BRANCH 22 23
ATOM     23  CG  HIS C 157     -10.582   7.141 -27.423  1.00 35.38 LIG 0.06  A 
ATOM     24 ND1  HIS C 157     -10.869   8.440 -27.054  1.00 36.48 LIG-0.24  NA
ATOM     25  CE1 HIS C 157     -10.068   9.266 -27.706  1.00 37.27 LIG 0.23  A 
ATOM     26 NE2  HIS C 157      -9.265   8.550 -28.476  1.00 37.33 LIG-0.25  NA
ATOM     27  CD2 HIS C 157      -9.562   7.218 -28.314  1.00 35.91 LIG 0.14  A 
ENDBRANCH 22 23
ENDBRANCH 12 22
ENDBRANCH 9 12
ENDBRANCH 6 8
ENDBRANCH 4 6
ENDBRANCH 1 2
BRANCH 1 28
ATOM     28  CB  ASP C 155     -11.926  12.520 -25.002  1.00 35.23 LIG 0.15  C 
BRANCH 28 29
ATOM     29  CG  ASP C 155     -12.719  13.805 -25.160  1.00 35.97 LIG 0.17  C 
ATOM     30 OD2  ASP C 155     -13.723  13.936 -24.442  1.00 39.40 LIG-0.65  OA
ATOM     31 OD1  ASP C 155     -12.367  14.681 -25.980  1.00 38.01 LIG-0.65  OA
ENDBRANCH 28 29
ENDBRANCH 1 28
BRANCH 1 32
ATOM     32  N   ASP C 155     -10.124  13.481 -23.675  1.00 36.13 LIG-0.34  N 
ATOM     33 H    ASP C 155      -9.587  13.457 -24.347  1.00 36.13 LIG 0.16  HD
ATOM     34  C   HIS C 154     -10.038  14.365 -22.694  1.00 38.66 LIG 0.24  C 
ATOM     35 O    HIS C 154     -10.839  14.411 -21.764  1.00 35.33 LIG-0.27  OA
BRANCH 34 36
ATOM     36  CA  HIS C 154      -8.899  15.367 -22.785  1.00 42.51 LIG 0.18  C 
BRANCH 36 37
ATOM     37  CB  HIS C 154      -9.383  16.675 -23.411  1.00 45.16 LIG 0.10  C 
BRANCH 37 38
ATOM     38  CG  HIS C 154     -10.855  16.904 -23.254  1.00 48.44 LIG 0.06  A 
ATOM     39 ND1  HIS C 154     -11.736  16.842 -24.314  1.00 50.51 LIG-0.24  NA
ATOM     40  CE1 HIS C 154     -12.959  17.099 -23.886  1.00 51.05 LIG 0.23  A 
ATOM     41 NE2  HIS C 154     -12.903  17.328 -22.586  1.00 50.26 LIG-0.25  NA
ATOM     42  CD2 HIS C 154     -11.599  17.214 -22.167  1.00 50.26 LIG 0.14  A 
ENDBRANCH 37 38
ENDBRANCH 36 37
BRANCH 36 43
ATOM     43  N   HIS C 154      -7.872  14.759 -23.607  1.00 45.99 LIG-0.34  N 
ATOM     44  C   ASP C 153      -6.836  14.111 -23.086  1.00 51.00 LIG 0.26  C 
ATOM     45 O    ASP C 153      -6.552  14.131 -21.887  1.00 50.83 LIG-0.27  OA
ATOM     46 H    HIS C 154      -7.996  14.857 -24.453  1.00 45.99 LIG 0.16  HD
BRANCH 44 47
ATOM     47  CA  ASP C 153      -5.990  13.319 -24.077  1.00 53.77 LIG 0.41  C 
ATOM     48  N   ASP C 153      -4.619  13.018 -23.547  1.00 52.50 LIG 0.61  N 
BRANCH 47 49
ATOM     49  CB  ASP C 153      -6.746  12.038 -24.455  1.00 54.86 LIG 0.16  C 
BRANCH 49 50
ATOM     50  CG  ASP C 153      -7.320  12.092 -25.854  1.00 56.45 LIG 0.17  C 
ATOM     51 OD2  ASP C 153      -8.005  13.092 -26.180  1.00 58.24 LIG-0.65  OA
ATOM     52 OD1  ASP C 153      -7.084  11.136 -26.620  1.00 54.42 LIG-0.65  OA
ENDBRANCH 49 50
ENDBRANCH 47 49
ENDBRANCH 44 47
ENDBRANCH 36 43
ENDBRANCH 34 36
ENDBRANCH 1 32
TORSDOF 19
ENDMDL
MODEL 4
USER: ADFR SOLUTION from run 171
USER: SCORE 18.249642 LL:  -3.846 LR: -17.208 RR:   0.000 FEB: -11.540
USER: RMSD 5.874397
USER: SEED 170
USER: STATUS no improvement in best in 6 clusters for 5 generations
USER: GENES 21
USER: genes 0 Translation |==|  0.45582 0.42540 0.56283
USER: genes 1 Rotation |==|  0.62065 0.94504 0.59830 0.66651
USER: genes 2 Torsion [N]-CA--C-[N] |==|  0.22252
USER: genes 3 Torsion [C]-N--CA-[CB] |==|  0.49445
USER: genes 4 Torsion [N]-CA--C-[N] |==|  0.35799
USER: genes 5 Torsion [C]-N--CA-[CB] |==|  0.42858
USER: genes 6 Torsion [N]-CA--C-[N] |==|  0.82572
USER: genes 7 Torsion [C]-N--CA-[CB] |==|  0.83912
USER: genes 8 Torsion [N]-CA--C-[OXT] |==|  0.29132
USER: genes 9 Torsion [N]-CA--CB-[CG] |==|  0.74965
USER: genes 10 Torsion [CA]-CB--CG-[CD2] |==|  0.99503
USER: genes 11 Torsion [C]-CA--CB-[CG] |==|  0.39778
USER: genes 12 Torsion [CA]-CB--CG-[OD2] |==|  0.89386
USER: genes 13 Torsion [C]-CA--N-[C] |==|  0.64540
USER: genes 14 Torsion [N]-C--CA-[N] |==|  0.38958
USER: genes 15 Torsion [C]-CA--CB-[CG] |==|  0.88310
USER: genes 16 Torsion [CA]-CB--CG-[CD2] |==|  0.28695
USER: genes 17 Torsion [C]-CA--N-[C] |==|  0.65217
USER: genes 18 Torsion [N]-C--CA-[N] |==|  0.09673
USER: genes 19 Torsion [C]-CA--CB-[CG] |==|  0.64392
USER: genes 20 Torsion [CA]-CB--CG-[OD2] |==|  0.17204
ROOT
ATOM      1  CA  ASP C 155     -11.294   8.905 -23.240  1.00 34.31 LIG 0.19  C 
ENDROOT
BRANCH 1 2
ATOM      2  C   ASP C 155     -12.007   8.128 -24.334  1.00 33.42 LIG 0.24  C 
ATOM      3 O    ASP C 155     -13.161   7.717 -24.172  1.00 32.60 LIG-0.27  OA
ATOM      4  N   ALA C 156     -11.316   7.959 -25.458  1.00 30.74 LIG-0.35  N 
ATOM      5 H    ALA C 156     -10.543   8.308 -25.597  1.00 30.74 LIG 0.16  HD
BRANCH 4 6
ATOM      6  CA  ALA C 156     -11.812   7.160 -26.564  1.00 30.13 LIG 0.17  C 
ATOM      7  CB  ALA C 156     -10.828   7.192 -27.723  1.00 30.23 LIG 0.04  C 
BRANCH 6 8
ATOM      8  C   ALA C 156     -12.018   5.736 -26.074  1.00 29.70 LIG 0.24  C 
ATOM      9  N   HIS C 157     -13.211   5.210 -26.335  1.00 30.21 LIG-0.35  N 
ATOM     10 H    HIS C 157     -13.818   5.613 -26.792  1.00 30.21 LIG 0.16  HD
ATOM     11 O    ALA C 156     -11.117   5.137 -25.469  1.00 27.33 LIG-0.27  OA
BRANCH 9 12
ATOM     12  CA  HIS C 157     -13.602   3.886 -25.862  1.00 31.06 LIG 0.18  C 
BRANCH 12 13
ATOM     13  C   HIS C 157     -13.057   2.835 -26.812  1.00 30.33 LIG 0.24  C 
ATOM     14  N   ALA C 158     -13.510   2.878 -28.062  1.00 29.79 LIG-0.34  N 
ATOM     15 H    ALA C 158     -14.051   3.479 -28.355  1.00 29.79 LIG 0.16  HD
ATOM     16 O    HIS C 157     -12.256   1.983 -26.411  1.00 30.67 LIG-0.27  OA
BRANCH 14 17
ATOM     17  CA  ALA C 158     -13.118   1.881 -29.059  1.00 31.13 LIG 0.18  C 
ATOM     18  CB  ALA C 158     -11.604   1.852 -29.229  1.00 30.84 LIG 0.04  C 
BRANCH 17 19
ATOM     19  C   ALA C 158     -13.632   0.497 -28.696  1.00 31.87 LIG 0.20  C 
ATOM     20 OXT  ALA C 158     -14.593   0.004 -29.292  1.00 33.04 LIG-0.65  OA
ATOM     21 O    ALA C 158     -13.091  -0.147 -27.793  1.00 31.17 LIG-0.65  OA
ENDBRANCH 17 19
ENDBRANCH 14 17
ENDBRANCH 12 13
BRANCH 12 22
ATOM     22  CB  HIS C 157     -15.126   3.796 -25.734  1.00 32.09 LIG 0.10  C 
BRANCH 22 23
ATOM     23  CG  HIS C 157     -15.629   4.198 -24.381  1.00 35.38 LIG 0.06  A 
ATOM     24 ND1  HIS C 157     -16.968   4.170 -24.047  1.00 36.48 LIG-0.24  NA
ATOM     25  CE1 HIS C 157     -17.111   4.543 -22.787  1.00 37.27 LIG 0.23  A 
ATOM     26 NE2  HIS C 157     -15.913   4.802 -22.288  1.00 37.33 LIG-0.25  NA
ATOM     27  CD2 HIS C 157     -14.968   4.591 -23.263  1.00 35.91 LIG 0.14  A 
ENDBRANCH 22 23
ENDBRANCH 12 22
ENDBRANCH 9 12
ENDBRANCH 6 8
ENDBRANCH 4 6
ENDBRANCH 1 2
BRANCH 1 28
ATOM     28  CB  ASP C 155     -11.921   8.578 -21.897  1.00 35.23 LIG 0.15  C 
BRANCH 28 29
ATOM     29  CG  ASP C 155     -10.905   8.510 -20.772  1.00 35.97 LIG 0.17  C 
ATOM     30 OD2  ASP C 155      -9.803   8.004 -21.041  1.00 39.40 LIG-0.65  OA
ATOM     31 OD1  ASP C 155     -11.177   8.947 -19.632  1.00 38.01 LIG-0.65  OA
ENDBRANCH 28 29
ENDBRANCH 1 28
BRANCH 1 32
ATOM     32  N   ASP C 155     -11.381  10.325 -23.505  1.00 36.13 LIG-0.34  N 
ATOM     33 H    ASP C 155     -12.181  10.611 -23.645  1.00 36.13 LIG 0.16  HD
ATOM     34  C   HIS C 154     -10.308  11.101 -23.526  1.00 38.66 LIG 0.24  C 
ATOM     35 O    HIS C 154      -9.179  10.685 -23.283  1.00 35.33 LIG-0.27  OA
BRANCH 34 36
ATOM     36  CA  HIS C 154     -10.542  12.570 -23.838  1.00 42.51 LIG 0.18  C 
BRANCH 36 37
ATOM     37  CB  HIS C 154     -10.230  12.863 -25.306  1.00 45.16 LIG 0.10  C 
BRANCH 37 38
ATOM     38  CG  HIS C 154      -8.988  12.186 -25.799  1.00 48.44 LIG 0.06  A 
ATOM     39 ND1  HIS C 154      -7.722  12.651 -25.513  1.00 50.51 LIG-0.24  NA
ATOM     40  CE1 HIS C 154      -6.826  11.869 -26.089  1.00 51.05 LIG 0.23  A 
ATOM     41 NE2  HIS C 154      -7.466  10.915 -26.740  1.00 50.26 LIG-0.25  NA
ATOM     42  CD2 HIS C 154      -8.819  11.091 -26.577  1.00 50.26 LIG 0.14  A 
ENDBRANCH 37 38
ENDBRANCH 36 37
BRANCH 36 43
ATOM     43  N   HIS C 154      -9.664  13.327 -22.969  1.00 45.99 LIG-0.34  N 
ATOM     44  C   ASP C 153     -10.113  14.280 -22.161  1.00 51.00 LIG 0.26  C 
ATOM     45 O    ASP C 153     -11.258  14.735 -22.213  1.00 50.83 LIG-0.27  OA
ATOM     46 H    HIS C 154      -8.835  13.103 -23.026  1.00 45.99 LIG 0.16  HD
BRANCH 44 47
ATOM     47  CA  ASP C 153      -9.110  14.802 -21.137  1.00 53.77 LIG 0.41  C 
ATOM     48  N   ASP C 153      -7.708  14.829 -21.671  1.00 52.50 LIG 0.61  N 
BRANCH 47 49
ATOM     49  CB  ASP C 153      -9.566  16.190 -20.667  1.00 54.86 LIG 0.16  C 
BRANCH 49 50
ATOM     50  CG  ASP C 153      -8.470  17.228 -20.773  1.00 56.45 LIG 0.17  C 
ATOM     51 OD2  ASP C 153      -8.003  17.490 -21.908  1.00 58.24 LIG-0.65  OA
ATOM     52 OD1  ASP C 153      -8.082  17.778 -19.723  1.00 54.42 LIG-0.65  OA
ENDBRANCH 49 50
ENDBRANCH 47 49
ENDBRANCH 44 47
ENDBRANCH 36 43
ENDBRANCH 34 36
ENDBRANCH 1 32
TORSDOF 19
ENDMDL
MODEL 5
USER: ADFR SOLUTION from run 8
USER: SCORE 18.033214 LL:  -4.255 LR: -17.197 RR:   0.000 FEB: -11.529
USER: RMSD 4.401599
USER: SEED 680280
USER: STATUS no improvement in best in 12 clusters for 5 generations
USER: GENES 21
USER: genes 0 Translation |==|  0.47196 0.55699 0.54482
USER: genes 1 Rotation |==|  0.47634 0.55060 0.49970 0.99687
USER: genes 2 Torsion [N]-CA--C-[N] |==|  0.45515
USER: genes 3 Torsion [C]-N--CA-[CB] |==|  0.28630
USER: genes 4 Torsion [N]-CA--C-[N] |==|  0.36911
USER: genes 5 Torsion [C]-N--CA-[CB] |==|  0.43304
USER: genes 6 Torsion [N]-CA--C-[N] |==|  0.33042
USER: genes 7 Torsion [C]-N--CA-[CB] |==|  0.48191
USER: genes 8 Torsion [N]-CA--C-[OXT] |==|  0.92984
USER: genes 9 Torsion [N]-CA--CB-[CG] |==|  0.40364
USER: genes 10 Torsion [CA]-CB--CG-[CD2] |==|  0.73436
USER: genes 11 Torsion [C]-CA--CB-[CG] |==|  0.50641
USER: genes 12 Torsion [CA]-CB--CG-[OD2] |==|  0.24917
USER: genes 13 Torsion [C]-CA--N-[C] |==|  0.70884
USER: genes 14 Torsion [N]-C--CA-[N] |==|  0.96082
USER: genes 15 Torsion [C]-CA--CB-[CG] |==|  0.16845
USER: genes 16 Torsion [CA]-CB--CG-[CD2] |==|  0.24858
USER: genes 17 Torsion [C]-CA--N-[C] |==|  0.75679
USER: genes 18 Torsion [N]-C--CA-[N] |==|  0.50059
USER: genes 19 Torsion [C]-CA--CB-[CG] |==|  0.65711
USER: genes 20 Torsion [CA]-CB--CG-[OD2] |==|  0.35131
ROOT
ATOM      1  CA  ASP C 155     -10.992  12.458 -23.578  1.00 34.31 LIG 0.19  C 
ENDROOT
BRANCH 1 2
ATOM      2  C   ASP C 155     -10.385  11.072 -23.436  1.00 33.42 LIG 0.24  C 
ATOM      3 O    ASP C 155      -9.166  10.900 -23.538  1.00 32.60 LIG-0.27  OA
ATOM      4  N   ALA C 156     -11.247  10.095 -23.171  1.00 30.74 LIG-0.35  N 
ATOM      5 H    ALA C 156     -12.084  10.226 -23.027  1.00 30.74 LIG 0.16  HD
BRANCH 4 6
ATOM      6  CA  ALA C 156     -10.846   8.701 -23.101  1.00 30.13 LIG 0.17  C 
ATOM      7  CB  ALA C 156     -10.748   8.252 -21.651  1.00 30.23 LIG 0.04  C 
BRANCH 6 8
ATOM      8  C   ALA C 156     -11.868   7.867 -23.854  1.00 29.70 LIG 0.24  C 
ATOM      9  N   HIS C 157     -11.365   6.973 -24.700  1.00 30.21 LIG-0.35  N 
ATOM     10 H    HIS C 157     -10.522   6.827 -24.790  1.00 30.21 LIG 0.16  HD
ATOM     11 O    ALA C 156     -13.083   8.039 -23.673  1.00 27.33 LIG-0.27  OA
BRANCH 9 12
ATOM     12  CA  HIS C 157     -12.207   6.150 -25.561  1.00 31.06 LIG 0.18  C 
BRANCH 12 13
ATOM     13  C   HIS C 157     -12.742   4.976 -24.762  1.00 30.33 LIG 0.24  C 
ATOM     14  N   ALA C 158     -14.064   4.896 -24.645  1.00 29.79 LIG-0.34  N 
ATOM     15 H    ALA C 158     -14.613   5.440 -25.023  1.00 29.79 LIG 0.16  HD
ATOM     16 O    HIS C 157     -11.966   4.168 -24.239  1.00 30.67 LIG-0.27  OA
BRANCH 14 17
ATOM     17  CA  ALA C 158     -14.706   3.852 -23.844  1.00 31.13 LIG 0.18  C 
ATOM     18  CB  ALA C 158     -16.209   4.088 -23.751  1.00 30.84 LIG 0.04  C 
BRANCH 17 19
ATOM     19  C   ALA C 158     -14.426   2.467 -24.406  1.00 31.87 LIG 0.20  C 
ATOM     20 OXT  ALA C 158     -14.159   2.314 -25.601  1.00 33.04 LIG-0.65  OA
ATOM     21 O    ALA C 158     -14.467   1.479 -23.668  1.00 31.17 LIG-0.65  OA
ENDBRANCH 17 19
ENDBRANCH 14 17
ENDBRANCH 12 13
BRANCH 12 22
ATOM     22  CB  HIS C 157     -11.418   5.687 -26.790  1.00 32.09 LIG 0.10  C 
BRANCH 22 23
ATOM     23  CG  HIS C 157     -11.798   4.313 -27.251  1.00 35.38 LIG 0.06  A 
ATOM     24 ND1  HIS C 157     -12.835   4.085 -28.132  1.00 36.48 LIG-0.24  NA
ATOM     25  CE1 HIS C 157     -12.918   2.790 -28.384  1.00 37.27 LIG 0.23  A 
ATOM     26 NE2  HIS C 157     -11.964   2.171 -27.707  1.00 37.33 LIG-0.25  NA
ATOM     27  CD2 HIS C 157     -11.247   3.100 -26.994  1.00 35.91 LIG 0.14  A 
ENDBRANCH 22 23
ENDBRANCH 12 22
ENDBRANCH 9 12
ENDBRANCH 6 8
ENDBRANCH 4 6
ENDBRANCH 1 2
BRANCH 1 28
ATOM     28  CB  ASP C 155     -11.710  12.562 -24.910  1.00 35.23 LIG 0.15  C 
BRANCH 28 29
ATOM     29  CG  ASP C 155     -12.301  13.938 -25.157  1.00 35.97 LIG 0.17  C 
ATOM     30 OD2  ASP C 155     -11.572  14.767 -25.727  1.00 39.40 LIG-0.65  OA
ATOM     31 OD1  ASP C 155     -13.467  14.213 -24.797  1.00 38.01 LIG-0.65  OA
ENDBRANCH 28 29
ENDBRANCH 1 28
BRANCH 1 32
ATOM     32  N   ASP C 155      -9.955  13.464 -23.483  1.00 36.13 LIG-0.34  N 
ATOM     33 H    ASP C 155      -9.464  13.532 -24.187  1.00 36.13 LIG 0.16  HD
ATOM     34  C   HIS C 154      -9.793  14.204 -22.397  1.00 38.66 LIG 0.24  C 
ATOM     35 O    HIS C 154     -10.530  14.122 -21.418  1.00 35.33 LIG-0.27  OA
BRANCH 34 36
ATOM     36  CA  HIS C 154      -8.653  15.207 -22.427  1.00 42.51 LIG 0.18  C 
BRANCH 36 37
ATOM     37  CB  HIS C 154      -9.192  16.629 -22.588  1.00 45.16 LIG 0.10  C 
BRANCH 37 38
ATOM     38  CG  HIS C 154     -10.098  17.054 -21.473  1.00 48.44 LIG 0.06  A 
ATOM     39 ND1  HIS C 154     -11.466  16.883 -21.519  1.00 50.51 LIG-0.24  NA
ATOM     40  CE1 HIS C 154     -12.005  17.363 -20.412  1.00 51.05 LIG 0.23  A 
ATOM     41 NE2  HIS C 154     -11.037  17.840 -19.652  1.00 50.26 LIG-0.25  NA
ATOM     42  CD2 HIS C 154      -9.834  17.662 -20.292  1.00 50.26 LIG 0.14  A 
ENDBRANCH 37 38
ENDBRANCH 36 37
BRANCH 36 43
ATOM     43  N   HIS C 154      -7.811  14.851 -23.552  1.00 45.99 LIG-0.34  N 
ATOM     44  C   ASP C 153      -6.822  13.971 -23.450  1.00 51.00 LIG 0.26  C 
ATOM     45 O    ASP C 153      -6.410  13.531 -22.374  1.00 50.83 LIG-0.27  OA
ATOM     46 H    HIS C 154      -8.011  15.260 -24.283  1.00 45.99 LIG 0.16  HD
BRANCH 44 47
ATOM     47  CA  ASP C 153      -6.202  13.521 -24.768  1.00 53.77 LIG 0.41  C 
ATOM     48  N   ASP C 153      -5.097  12.525 -24.570  1.00 52.50 LIG 0.61  N 
BRANCH 47 49
ATOM     49  CB  ASP C 153      -7.312  12.966 -25.669  1.00 54.86 LIG 0.16  C 
BRANCH 49 50
ATOM     50  CG  ASP C 153      -7.043  11.546 -26.117  1.00 56.45 LIG 0.17  C 
ATOM     51 OD2  ASP C 153      -7.928  10.678 -25.915  1.00 58.24 LIG-0.65  OA
ATOM     52 OD1  ASP C 153      -5.951  11.303 -26.668  1.00 54.42 LIG-0.65  OA
ENDBRANCH 49 50
ENDBRANCH 47 49
ENDBRANCH 44 47
ENDBRANCH 36 43
ENDBRANCH 34 36
ENDBRANCH 1 32
TORSDOF 19
ENDMDL
MODEL 6
USER: ADFR SOLUTION from run 171
USER: SCORE 17.997261 LL:  -3.838 LR: -17.148 RR:   0.000 FEB: -11.480
USER: RMSD 6.510156
USER: SEED 170
USER: STATUS no improvement in best in 6 clusters for 5 generations
USER: GENES 21
USER: genes 0 Translation |==|  0.46273 0.41470 0.58250
USER: genes 1 Rotation |==|  0.65333 0.93069 0.59453 0.67905
USER: genes 2 Torsion [N]-CA--C-[N] |==|  0.21127
USER: genes 3 Torsion [C]-N--CA-[CB] |==|  0.47947
USER: genes 4 Torsion [N]-CA--C-[N] |==|  0.34475
USER: genes 5 Torsion [C]-N--CA-[CB] |==|  0.45118
USER: genes 6 Torsion [N]-CA--C-[N] |==|  0.80965
USER: genes 7 Torsion [C]-N--CA-[CB] |==|  0.83605
USER: genes 8 Torsion [N]-CA--C-[OXT] |==|  0.29895
USER: genes 9 Torsion [N]-CA--CB-[CG] |==|  0.75514
USER: genes 10 Torsion [CA]-CB--CG-[CD2] |==|  0.97027
USER: genes 11 Torsion [C]-CA--CB-[CG] |==|  0.56529
USER: genes 12 Torsion [CA]-CB--CG-[OD2] |==|  0.19682
USER: genes 13 Torsion [C]-CA--N-[C] |==|  0.75152
USER: genes 14 Torsion [N]-C--CA-[N] |==|  0.53724
USER: genes 15 Torsion [C]-CA--CB-[CG] |==|  0.41819
USER: genes 16 Torsion [CA]-CB--CG-[CD2] |==|  0.39738
USER: genes 17 Torsion [C]-CA--N-[C] |==|  0.77425
USER: genes 18 Torsion [N]-C--CA-[N] |==|  0.66023
USER: genes 19 Torsion [C]-CA--CB-[CG] |==|  0.79797
USER: genes 20 Torsion [CA]-CB--CG-[OD2] |==|  0.36766
ROOT
ATOM      1  CA  ASP C 155     -11.165   8.616 -22.871  1.00 34.31 LIG 0.19  C 
ENDROOT
BRANCH 1 2
ATOM      2  C   ASP C 155     -11.941   7.980 -24.012  1.00 33.42 LIG 0.24  C 
ATOM      3 O    ASP C 155     -13.129   7.669 -23.875  1.00 32.60 LIG-0.27  OA
ATOM      4  N   ALA C 156     -11.264   7.820 -25.145  1.00 30.74 LIG-0.35  N 
ATOM      5 H    ALA C 156     -10.461   8.104 -25.263  1.00 30.74 LIG 0.16  HD
BRANCH 4 6
ATOM      6  CA  ALA C 156     -11.827   7.142 -26.299  1.00 30.13 LIG 0.17  C 
ATOM      7  CB  ALA C 156     -10.897   7.272 -27.495  1.00 30.23 LIG 0.04  C 
BRANCH 6 8
ATOM      8  C   ALA C 156     -12.043   5.682 -25.942  1.00 29.70 LIG 0.24  C 
ATOM      9  N   HIS C 157     -13.283   5.231 -26.103  1.00 30.21 LIG-0.35  N 
ATOM     10 H    HIS C 157     -13.921   5.704 -26.434  1.00 30.21 LIG 0.16  HD
ATOM     11 O    ALA C 156     -11.105   4.986 -25.524  1.00 27.33 LIG-0.27  OA
BRANCH 9 12
ATOM     12  CA  HIS C 157     -13.679   3.877 -25.729  1.00 31.06 LIG 0.18  C 
BRANCH 12 13
ATOM     13  C   HIS C 157     -13.130   2.896 -26.749  1.00 30.33 LIG 0.24  C 
ATOM     14  N   ALA C 158     -13.664   2.951 -27.966  1.00 29.79 LIG-0.34  N 
ATOM     15 H    ALA C 158     -14.259   3.526 -28.203  1.00 29.79 LIG 0.16  HD
ATOM     16 O    HIS C 157     -12.254   2.085 -26.430  1.00 30.67 LIG-0.27  OA
BRANCH 14 17
ATOM     17  CA  ALA C 158     -13.274   2.015 -29.022  1.00 31.13 LIG 0.18  C 
ATOM     18  CB  ALA C 158     -11.780   2.110 -29.305  1.00 30.84 LIG 0.04  C 
BRANCH 17 19
ATOM     19  C   ALA C 158     -13.652   0.586 -28.667  1.00 31.87 LIG 0.20  C 
ATOM     20 OXT  ALA C 158     -14.585   0.018 -29.243  1.00 33.04 LIG-0.65  OA
ATOM     21 O    ALA C 158     -13.028  -0.021 -27.793  1.00 31.17 LIG-0.65  OA
ENDBRANCH 17 19
ENDBRANCH 14 17
ENDBRANCH 12 13
BRANCH 12 22
ATOM     22  CB  HIS C 157     -15.203   3.782 -25.615  1.00 32.09 LIG 0.10  C 
BRANCH 22 23
ATOM     23  CG  HIS C 157     -15.716   4.132 -24.252  1.00 35.38 LIG 0.06  A 
ATOM     24 ND1  HIS C 157     -17.062   4.265 -23.975  1.00 36.48 LIG-0.24  NA
ATOM     25  CE1 HIS C 157     -17.218   4.544 -22.692  1.00 37.27 LIG 0.23  A 
ATOM     26 NE2  HIS C 157     -16.023   4.587 -22.124  1.00 37.33 LIG-0.25  NA
ATOM     27  CD2 HIS C 157     -15.067   4.329 -23.077  1.00 35.91 LIG 0.14  A 
ENDBRANCH 22 23
ENDBRANCH 12 22
ENDBRANCH 9 12
ENDBRANCH 6 8
ENDBRANCH 4 6
ENDBRANCH 1 2
BRANCH 1 28
ATOM     28  CB  ASP C 155     -11.881   8.348 -21.560  1.00 35.23 LIG 0.15  C 
BRANCH 28 29
ATOM     29  CG  ASP C 155     -11.542   9.363 -20.484  1.00 35.97 LIG 0.17  C 
ATOM     30 OD2  ASP C 155     -11.996  10.510 -20.632  1.00 39.40 LIG-0.65  OA
ATOM     31 OD1  ASP C 155     -10.838   9.048 -19.500  1.00 38.01 LIG-0.65  OA
ENDBRANCH 28 29
ENDBRANCH 1 28
BRANCH 1 32
ATOM     32  N   ASP C 155     -11.036  10.041 -23.094  1.00 36.13 LIG-0.34  N 
ATOM     33 H    ASP C 155     -11.672  10.510 -22.753  1.00 36.13 LIG 0.16  HD
ATOM     34  C   HIS C 154     -10.020  10.556 -23.768  1.00 38.66 LIG 0.24  C 
ATOM     35 O    HIS C 154      -9.099   9.874 -24.211  1.00 35.33 LIG-0.27  OA
BRANCH 34 36
ATOM     36  CA  HIS C 154     -10.021  12.065 -23.945  1.00 42.51 LIG 0.18  C 
BRANCH 36 37
ATOM     37  CB  HIS C 154     -11.402  12.553 -24.384  1.00 45.16 LIG 0.10  C 
BRANCH 37 38
ATOM     38  CG  HIS C 154     -11.716  13.944 -23.929  1.00 48.44 LIG 0.06  A 
ATOM     39 ND1  HIS C 154     -11.340  14.427 -22.692  1.00 50.51 LIG-0.24  NA
ATOM     40  CE1 HIS C 154     -11.763  15.671 -22.559  1.00 51.05 LIG 0.23  A 
ATOM     41 NE2  HIS C 154     -12.401  16.013 -23.663  1.00 50.26 LIG-0.25  NA
ATOM     42  CD2 HIS C 154     -12.388  14.951 -24.535  1.00 50.26 LIG 0.14  A 
ENDBRANCH 37 38
ENDBRANCH 36 37
BRANCH 36 43
ATOM     43  N   HIS C 154      -9.028  12.368 -24.957  1.00 45.99 LIG-0.34  N 
ATOM     44  C   ASP C 153      -7.732  12.444 -24.680  1.00 51.00 LIG 0.26  C 
ATOM     45 O    ASP C 153      -7.279  12.458 -23.533  1.00 50.83 LIG-0.27  OA
ATOM     46 H    HIS C 154      -9.355  12.493 -25.743  1.00 45.99 LIG 0.16  HD
BRANCH 44 47
ATOM     47  CA  ASP C 153      -6.804  12.519 -25.888  1.00 53.77 LIG 0.41  C 
ATOM     48  N   ASP C 153      -5.797  11.407 -25.906  1.00 52.50 LIG 0.61  N 
BRANCH 47 49
ATOM     49  CB  ASP C 153      -7.658  12.532 -27.163  1.00 54.86 LIG 0.16  C 
BRANCH 49 50
ATOM     50  CG  ASP C 153      -8.278  11.185 -27.462  1.00 56.45 LIG 0.17  C 
ATOM     51 OD2  ASP C 153      -9.500  11.140 -27.747  1.00 58.24 LIG-0.65  OA
ATOM     52 OD1  ASP C 153      -7.543  10.178 -27.411  1.00 54.42 LIG-0.65  OA
ENDBRANCH 49 50
ENDBRANCH 47 49
ENDBRANCH 44 47
ENDBRANCH 36 43
ENDBRANCH 34 36
ENDBRANCH 1 32
TORSDOF 19
ENDMDL
MODEL 7
USER: ADFR SOLUTION from run 127
USER: SCORE 18.582192 LL:  -4.297 LR: -16.992 RR:   0.000 FEB: -11.324
USER: RMSD 3.840528
USER: SEED 126
USER: STATUS no improvement in best in 7 clusters for 5 generations
USER: GENES 21
USER: genes 0 Translation |==|  0.46199 0.54768 0.51981
USER: genes 1 Rotation |==|  0.53923 0.55288 0.45586 0.99368
USER: genes 2 Torsion [N]-CA--C-[N] |==|  0.21264
USER: genes 3 Torsion [C]-N--CA-[CB] |==|  0.51417
USER: genes 4 Torsion [N]-CA--C-[N] |==|  0.37818
USER: genes 5 Torsion [C]-N--CA-[CB] |==|  0.39873
USER: genes 6 Torsion [N]-CA--C-[N] |==|  0.35387
USER: genes 7 Torsion [C]-N--CA-[CB] |==|  0.48686
USER: genes 8 Torsion [N]-CA--C-[OXT] |==|  0.94205
USER: genes 9 Torsion [N]-CA--CB-[CG] |==|  0.86286
USER: genes 10 Torsion [CA]-CB--CG-[CD2] |==|  0.86391
USER: genes 11 Torsion [C]-CA--CB-[CG] |==|  0.47347
USER: genes 12 Torsion [CA]-CB--CG-[OD2] |==|  0.23958
USER: genes 13 Torsion [C]-CA--N-[C] |==|  0.63565
USER: genes 14 Torsion [N]-C--CA-[N] |==|  0.03983
USER: genes 15 Torsion [C]-CA--CB-[CG] |==|  0.35111
USER: genes 16 Torsion [CA]-CB--CG-[CD2] |==|  0.97949
USER: genes 17 Torsion [C]-CA--N-[C] |==|  0.69767
USER: genes 18 Torsion [N]-C--CA-[N] |==|  0.52577
USER: genes 19 Torsion [C]-CA--CB-[CG] |==|  0.70501
USER: genes 20 Torsion [CA]-CB--CG-[OD2] |==|  0.70712
ROOT
ATOM      1  CA  ASP C 155     -11.179  12.206 -24.047  1.00 34.31 LIG 0.19  C 
ENDROOT
BRANCH 1 2
ATOM      2  C   ASP C 155     -10.861  10.733 -24.241  1.00 33.42 LIG 0.24  C 
ATOM      3 O    ASP C 155     -10.795  10.242 -25.373  1.00 32.60 LIG-0.27  OA
ATOM      4  N   ALA C 156     -10.637  10.045 -23.125  1.00 30.74 LIG-0.35  N 
ATOM      5 H    ALA C 156     -10.610  10.402 -22.344  1.00 30.74 LIG 0.16  HD
BRANCH 4 6
ATOM      6  CA  ALA C 156     -10.416   8.610 -23.128  1.00 30.13 LIG 0.17  C 
ATOM      7  CB  ALA C 156     -10.314   8.088 -21.703  1.00 30.23 LIG 0.04  C 
BRANCH 6 8
ATOM      8  C   ALA C 156     -11.568   7.946 -23.862  1.00 29.70 LIG 0.24  C 
ATOM      9  N   HIS C 157     -11.224   6.987 -24.716  1.00 30.21 LIG-0.35  N 
ATOM     10 H    HIS C 157     -10.416   6.712 -24.821  1.00 30.21 LIG 0.16  HD
ATOM     11 O    ALA C 156     -12.738   8.304 -23.661  1.00 27.33 LIG-0.27  OA
BRANCH 9 12
ATOM     12  CA  HIS C 157     -12.199   6.306 -25.562  1.00 31.06 LIG 0.18  C 
BRANCH 12 13
ATOM     13  C   HIS C 157     -12.673   5.045 -24.863  1.00 30.33 LIG 0.24  C 
ATOM     14  N   ALA C 158     -13.989   4.897 -24.742  1.00 29.79 LIG-0.34  N 
ATOM     15 H    ALA C 158     -14.566   5.447 -25.067  1.00 29.79 LIG 0.16  HD
ATOM     16 O    HIS C 157     -11.857   4.230 -24.418  1.00 30.67 LIG-0.27  OA
BRANCH 14 17
ATOM     17  CA  ALA C 158     -14.576   3.761 -24.028  1.00 31.13 LIG 0.18  C 
ATOM     18  CB  ALA C 158     -16.091   3.900 -23.940  1.00 30.84 LIG 0.04  C 
BRANCH 17 19
ATOM     19  C   ALA C 158     -14.207   2.440 -24.685  1.00 31.87 LIG 0.20  C 
ATOM     20 OXT  ALA C 158     -13.840   2.403 -25.863  1.00 33.04 LIG-0.65  OA
ATOM     21 O    ALA C 158     -14.275   1.389 -24.043  1.00 31.17 LIG-0.65  OA
ENDBRANCH 17 19
ENDBRANCH 14 17
ENDBRANCH 12 13
BRANCH 12 22
ATOM     22  CB  HIS C 157     -11.590   5.998 -26.933  1.00 32.09 LIG 0.10  C 
BRANCH 22 23
ATOM     23  CG  HIS C 157     -10.920   7.182 -27.560  1.00 35.38 LIG 0.06  A 
ATOM     24 ND1  HIS C 157      -9.671   7.108 -28.144  1.00 36.48 LIG-0.24  NA
ATOM     25  CE1 HIS C 157      -9.350   8.290 -28.641  1.00 37.27 LIG 0.23  A 
ATOM     26 NE2  HIS C 157     -10.350   9.126 -28.411  1.00 37.33 LIG-0.25  NA
ATOM     27  CD2 HIS C 157     -11.346   8.458 -27.741  1.00 35.91 LIG 0.14  A 
ENDBRANCH 22 23
ENDBRANCH 12 22
ENDBRANCH 9 12
ENDBRANCH 6 8
ENDBRANCH 4 6
ENDBRANCH 1 2
BRANCH 1 28
ATOM     28  CB  ASP C 155     -11.834  12.753 -25.301  1.00 35.23 LIG 0.15  C 
BRANCH 28 29
ATOM     29  CG  ASP C 155     -12.392  14.152 -25.115  1.00 35.97 LIG 0.17  C 
ATOM     30 OD2  ASP C 155     -11.608  15.097 -25.296  1.00 39.40 LIG-0.65  OA
ATOM     31 OD1  ASP C 155     -13.588  14.330 -24.793  1.00 38.01 LIG-0.65  OA
ENDBRANCH 28 29
ENDBRANCH 1 28
BRANCH 1 32
ATOM     32  N   ASP C 155      -9.965  12.939 -23.751  1.00 36.13 LIG-0.34  N 
ATOM     33 H    ASP C 155      -9.313  12.774 -24.287  1.00 36.13 LIG 0.16  HD
ATOM     34  C   HIS C 154      -9.888  13.785 -22.736  1.00 38.66 LIG 0.24  C 
ATOM     35 O    HIS C 154     -10.841  14.040 -22.005  1.00 35.33 LIG-0.27  OA
BRANCH 34 36
ATOM     36  CA  HIS C 154      -8.548  14.470 -22.528  1.00 42.51 LIG 0.18  C 
BRANCH 36 37
ATOM     37  CB  HIS C 154      -8.743  15.965 -22.272  1.00 45.16 LIG 0.10  C 
BRANCH 37 38
ATOM     38  CG  HIS C 154      -8.081  16.449 -21.018  1.00 48.44 LIG 0.06  A 
ATOM     39 ND1  HIS C 154      -7.989  17.786 -20.693  1.00 50.51 LIG-0.24  NA
ATOM     40  CE1 HIS C 154      -7.346  17.916 -19.546  1.00 51.05 LIG 0.23  A 
ATOM     41 NE2  HIS C 154      -7.016  16.711 -19.117  1.00 50.26 LIG-0.25  NA
ATOM     42  CD2 HIS C 154      -7.462  15.776 -20.020  1.00 50.26 LIG 0.14  A 
ENDBRANCH 37 38
ENDBRANCH 36 37
BRANCH 36 43
ATOM     43  N   HIS C 154      -7.777  14.257 -23.736  1.00 45.99 LIG-0.34  N 
ATOM     44  C   ASP C 153      -6.728  13.442 -23.776  1.00 51.00 LIG 0.26  C 
ATOM     45 O    ASP C 153      -6.205  12.955 -22.771  1.00 50.83 LIG-0.27  OA
ATOM     46 H    HIS C 154      -8.059  14.702 -24.416  1.00 45.99 LIG 0.16  HD
BRANCH 44 47
ATOM     47  CA  ASP C 153      -6.186  13.134 -25.167  1.00 53.77 LIG 0.41  C 
ATOM     48  N   ASP C 153      -5.155  12.044 -25.151  1.00 52.50 LIG 0.61  N 
BRANCH 47 49
ATOM     49  CB  ASP C 153      -7.364  12.788 -26.087  1.00 54.86 LIG 0.16  C 
BRANCH 49 50
ATOM     50  CG  ASP C 153      -7.444  11.309 -26.399  1.00 56.45 LIG 0.17  C 
ATOM     51 OD2  ASP C 153      -7.091  10.919 -27.539  1.00 58.24 LIG-0.65  OA
ATOM     52 OD1  ASP C 153      -7.857  10.544 -25.505  1.00 54.42 LIG-0.65  OA
ENDBRANCH 49 50
ENDBRANCH 47 49
ENDBRANCH 44 47
ENDBRANCH 36 43
ENDBRANCH 34 36
ENDBRANCH 1 32
TORSDOF 19
ENDMDL
MODEL 8
USER: ADFR SOLUTION from run 8
USER: SCORE 17.594772 LL:  -3.948 LR: -16.989 RR:   0.000 FEB: -11.322
USER: RMSD 2.517847
USER: SEED 680280
USER: STATUS no improvement in best in 12 clusters for 5 generations
USER: GENES 21
USER: genes 0 Translation |==|  0.46295 0.57000 0.52042
USER: genes 1 Rotation |==|  0.50826 0.49172 0.51873 0.99951
USER: genes 2 Torsion [N]-CA--C-[N] |==|  0.37992
USER: genes 3 Torsion [C]-N--CA-[CB] |==|  0.31012
USER: genes 4 Torsion [N]-CA--C-[N] |==|  0.36144
USER: genes 5 Torsion [C]-N--CA-[CB] |==|  0.42568
USER: genes 6 Torsion [N]-CA--C-[N] |==|  0.33034
USER: genes 7 Torsion [C]-N--CA-[CB] |==|  0.45557
USER: genes 8 Torsion [N]-CA--C-[OXT] |==|  0.97523
USER: genes 9 Torsion [N]-CA--CB-[CG] |==|  0.89181
USER: genes 10 Torsion [CA]-CB--CG-[CD2] |==|  0.86567
USER: genes 11 Torsion [C]-CA--CB-[CG] |==|  0.46085
USER: genes 12 Torsion [CA]-CB--CG-[OD2] |==|  0.38940
USER: genes 13 Torsion [C]-CA--N-[C] |==|  0.76344
USER: genes 14 Torsion [N]-C--CA-[N] |==|  0.41408
USER: genes 15 Torsion [C]-CA--CB-[CG] |==|  0.19864
USER: genes 16 Torsion [CA]-CB--CG-[CD2] |==|  0.06942
USER: genes 17 Torsion [C]-CA--N-[C] |==|  0.77981
USER: genes 18 Torsion [N]-C--CA-[N] |==|  0.32820
USER: genes 19 Torsion [C]-CA--CB-[CG] |==|  0.54110
USER: genes 20 Torsion [CA]-CB--CG-[OD2] |==|  0.15508
ROOT
ATOM      1  CA  ASP C 155     -11.161  12.809 -24.035  1.00 34.31 LIG 0.19  C 
ENDROOT
BRANCH 1 2
ATOM      2  C   ASP C 155     -10.480  11.454 -23.930  1.00 33.42 LIG 0.24  C 
ATOM      3 O    ASP C 155      -9.297  11.311 -24.256  1.00 32.60 LIG-0.27  OA
ATOM      4  N   ALA C 156     -11.234  10.472 -23.443  1.00 30.74 LIG-0.35  N 
ATOM      5 H    ALA C 156     -12.033  10.589 -23.148  1.00 30.74 LIG 0.16  HD
BRANCH 4 6
ATOM      6  CA  ALA C 156     -10.769   9.099 -23.367  1.00 30.13 LIG 0.17  C 
ATOM      7  CB  ALA C 156     -10.578   8.685 -21.917  1.00 30.23 LIG 0.04  C 
BRANCH 6 8
ATOM      8  C   ALA C 156     -11.791   8.206 -24.050  1.00 29.70 LIG 0.24  C 
ATOM      9  N   HIS C 157     -11.298   7.356 -24.946  1.00 30.21 LIG-0.35  N 
ATOM     10 H    HIS C 157     -10.458   7.267 -25.104  1.00 30.21 LIG 0.16  HD
ATOM     11 O    ALA C 156     -12.996   8.295 -23.773  1.00 27.33 LIG-0.27  OA
BRANCH 9 12
ATOM     12  CA  HIS C 157     -12.150   6.487 -25.751  1.00 31.06 LIG 0.18  C 
BRANCH 12 13
ATOM     13  C   HIS C 157     -12.488   5.241 -24.954  1.00 30.33 LIG 0.24  C 
ATOM     14  N   ALA C 158     -13.778   5.033 -24.703  1.00 29.79 LIG-0.34  N 
ATOM     15 H    ALA C 158     -14.411   5.536 -24.998  1.00 29.79 LIG 0.16  HD
ATOM     16 O    HIS C 157     -11.591   4.493 -24.550  1.00 30.67 LIG-0.27  OA
BRANCH 14 17
ATOM     17  CA  ALA C 158     -14.233   3.906 -23.886  1.00 31.13 LIG 0.18  C 
ATOM     18  CB  ALA C 158     -15.673   4.114 -23.432  1.00 30.84 LIG 0.04  C 
BRANCH 17 19
ATOM     19  C   ALA C 158     -14.103   2.588 -24.633  1.00 31.87 LIG 0.20  C 
ATOM     20 OXT  ALA C 158     -13.816   2.569 -25.833  1.00 33.04 LIG-0.65  OA
ATOM     21 O    ALA C 158     -14.289   1.521 -24.043  1.00 31.17 LIG-0.65  OA
ENDBRANCH 17 19
ENDBRANCH 14 17
ENDBRANCH 12 13
BRANCH 12 22
ATOM     22  CB  HIS C 157     -11.459   6.142 -27.074  1.00 32.09 LIG 0.10  C 
BRANCH 22 23
ATOM     23  CG  HIS C 157     -10.707   7.295 -27.665  1.00 35.38 LIG 0.06  A 
ATOM     24 ND1  HIS C 157      -9.430   7.169 -28.171  1.00 36.48 LIG-0.24  NA
ATOM     25  CE1 HIS C 157      -9.034   8.335 -28.653  1.00 37.27 LIG 0.23  A 
ATOM     26 NE2  HIS C 157     -10.013   9.210 -28.488  1.00 37.33 LIG-0.25  NA
ATOM     27  CD2 HIS C 157     -11.072   8.585 -27.877  1.00 35.91 LIG 0.14  A 
ENDBRANCH 22 23
ENDBRANCH 12 22
ENDBRANCH 9 12
ENDBRANCH 6 8
ENDBRANCH 4 6
ENDBRANCH 1 2
BRANCH 1 28
ATOM     28  CB  ASP C 155     -11.568  13.060 -25.475  1.00 35.23 LIG 0.15  C 
BRANCH 28 29
ATOM     29  CG  ASP C 155     -12.544  14.214 -25.620  1.00 35.97 LIG 0.17  C 
ATOM     30 OD2  ASP C 155     -12.378  14.969 -26.591  1.00 39.40 LIG-0.65  OA
ATOM     31 OD1  ASP C 155     -13.466  14.385 -24.793  1.00 38.01 LIG-0.65  OA
ENDBRANCH 28 29
ENDBRANCH 1 28
BRANCH 1 32
ATOM     32  N   ASP C 155     -10.265  13.849 -23.576  1.00 36.13 LIG-0.34  N 
ATOM     33 H    ASP C 155      -9.815  14.231 -24.202  1.00 36.13 LIG 0.16  HD
ATOM     34  C   HIS C 154     -10.161  14.169 -22.295  1.00 38.66 LIG 0.24  C 
ATOM     35 O    HIS C 154     -10.841  13.643 -21.418  1.00 35.33 LIG-0.27  OA
BRANCH 34 36
ATOM     36  CA  HIS C 154      -9.167  15.266 -21.950  1.00 42.51 LIG 0.18  C 
BRANCH 36 37
ATOM     37  CB  HIS C 154      -7.792  14.668 -21.651  1.00 45.16 LIG 0.10  C 
BRANCH 37 38
ATOM     38  CG  HIS C 154      -7.092  14.141 -22.866  1.00 48.44 LIG 0.06  A 
ATOM     39 ND1  HIS C 154      -6.116  13.169 -22.799  1.00 50.51 LIG-0.24  NA
ATOM     40  CE1 HIS C 154      -5.668  12.913 -24.016  1.00 51.05 LIG 0.23  A 
ATOM     41 NE2  HIS C 154      -6.317  13.685 -24.868  1.00 50.26 LIG-0.25  NA
ATOM     42  CD2 HIS C 154      -7.212  14.464 -24.175  1.00 50.26 LIG 0.14  A 
ENDBRANCH 37 38
ENDBRANCH 36 37
BRANCH 36 43
ATOM     43  N   HIS C 154      -9.689  15.952 -20.785  1.00 45.99 LIG-0.34  N 
ATOM     44  C   ASP C 153     -10.654  16.861 -20.868  1.00 51.00 LIG 0.26  C 
ATOM     45 O    ASP C 153     -11.052  17.337 -21.934  1.00 50.83 LIG-0.27  OA
ATOM     46 H    HIS C 154      -9.318  15.718 -20.045  1.00 45.99 LIG 0.16  HD
BRANCH 44 47
ATOM     47  CA  ASP C 153     -11.261  17.300 -19.541  1.00 53.77 LIG 0.41  C 
ATOM     48  N   ASP C 153     -11.059  18.763 -19.275  1.00 52.50 LIG 0.61  N 
BRANCH 47 49
ATOM     49  CB  ASP C 153     -12.747  16.921 -19.531  1.00 54.86 LIG 0.16  C 
BRANCH 49 50
ATOM     50  CG  ASP C 153     -13.519  17.618 -18.431  1.00 56.45 LIG 0.17  C 
ATOM     51 OD2  ASP C 153     -13.484  18.872 -18.379  1.00 58.24 LIG-0.65  OA
ATOM     52 OD1  ASP C 153     -14.155  16.910 -17.625  1.00 54.42 LIG-0.65  OA
ENDBRANCH 49 50
ENDBRANCH 47 49
ENDBRANCH 44 47
ENDBRANCH 36 43
ENDBRANCH 34 36
ENDBRANCH 1 32
TORSDOF 19
ENDMDL
MODEL 9
USER: ADFR SOLUTION from run 144
USER: SCORE 18.272759 LL:  -4.474 LR: -16.798 RR:   0.000 FEB: -11.130
USER: RMSD 3.134158
USER: SEED 143
USER: STATUS no improvement in best in 5 clusters for 5 generations
USER: GENES 21
USER: genes 0 Translation |==|  0.45135 0.54723 0.47094
USER: genes 1 Rotation |==|  0.45948 0.41537 0.52936 0.99024
USER: genes 2 Torsion [N]-CA--C-[N] |==|  0.35873
USER: genes 3 Torsion [C]-N--CA-[CB] |==|  0.31346
USER: genes 4 Torsion [N]-CA--C-[N] |==|  0.29217
USER: genes 5 Torsion [C]-N--CA-[CB] |==|  0.49188
USER: genes 6 Torsion [N]-CA--C-[N] |==|  0.34667
USER: genes 7 Torsion [C]-N--CA-[CB] |==|  0.44229
USER: genes 8 Torsion [N]-CA--C-[OXT] |==|  0.94217
USER: genes 9 Torsion [N]-CA--CB-[CG] |==|  0.41526
USER: genes 10 Torsion [CA]-CB--CG-[CD2] |==|  0.77002
USER: genes 11 Torsion [C]-CA--CB-[CG] |==|  0.55036
USER: genes 12 Torsion [CA]-CB--CG-[OD2] |==|  0.89570
USER: genes 13 Torsion [C]-CA--N-[C] |==|  0.82792
USER: genes 14 Torsion [N]-C--CA-[N] |==|  0.17847
USER: genes 15 Torsion [C]-CA--CB-[CG] |==|  0.67183
USER: genes 16 Torsion [CA]-CB--CG-[CD2] |==|  0.71360
USER: genes 17 Torsion [C]-CA--N-[C] |==|  0.78285
USER: genes 18 Torsion [N]-C--CA-[N] |==|  0.57623
USER: genes 19 Torsion [C]-CA--CB-[CG] |==|  0.73008
USER: genes 20 Torsion [CA]-CB--CG-[OD2] |==|  0.82167
ROOT
ATOM      1  CA  ASP C 155     -11.378  12.194 -24.963  1.00 34.31 LIG 0.19  C 
ENDROOT
BRANCH 1 2
ATOM      2  C   ASP C 155     -10.756  10.925 -24.405  1.00 33.42 LIG 0.24  C 
ATOM      3 O    ASP C 155      -9.535  10.744 -24.449  1.00 32.60 LIG-0.27  OA
ATOM      4  N   ALA C 156     -11.609  10.065 -23.854  1.00 30.74 LIG-0.35  N 
ATOM      5 H    ALA C 156     -12.448  10.225 -23.756  1.00 30.74 LIG 0.16  HD
BRANCH 4 6
ATOM      6  CA  ALA C 156     -11.192   8.765 -23.361  1.00 30.13 LIG 0.17  C 
ATOM      7  CB  ALA C 156     -11.325   8.705 -21.847  1.00 30.23 LIG 0.04  C 
BRANCH 6 8
ATOM      8  C   ALA C 156     -12.056   7.702 -24.018  1.00 29.70 LIG 0.24  C 
ATOM      9  N   HIS C 157     -11.462   6.995 -24.975  1.00 30.21 LIG-0.35  N 
ATOM     10 H    HIS C 157     -10.633   7.083 -25.185  1.00 30.21 LIG 0.16  HD
ATOM     11 O    ALA C 156     -13.233   7.536 -23.667  1.00 27.33 LIG-0.27  OA
BRANCH 9 12
ATOM     12  CA  HIS C 157     -12.172   5.993 -25.762  1.00 31.06 LIG 0.18  C 
BRANCH 12 13
ATOM     13  C   HIS C 157     -12.716   4.921 -24.835  1.00 30.33 LIG 0.24  C 
ATOM     14  N   ALA C 158     -14.024   4.687 -24.908  1.00 29.79 LIG-0.34  N 
ATOM     15 H    ALA C 158     -14.550   5.075 -25.467  1.00 29.79 LIG 0.16  HD
ATOM     16 O    HIS C 157     -11.966   4.334 -24.048  1.00 30.67 LIG-0.27  OA
BRANCH 14 17
ATOM     17  CA  ALA C 158     -14.686   3.729 -24.021  1.00 31.13 LIG 0.18  C 
ATOM     18  CB  ALA C 158     -16.183   4.008 -23.944  1.00 30.84 LIG 0.04  C 
BRANCH 17 19
ATOM     19  C   ALA C 158     -14.441   2.296 -24.467  1.00 31.87 LIG 0.20  C 
ATOM     20 OXT  ALA C 158     -14.104   2.045 -25.627  1.00 33.04 LIG-0.65  OA
ATOM     21 O    ALA C 158     -14.582   1.366 -23.668  1.00 31.17 LIG-0.65  OA
ENDBRANCH 17 19
ENDBRANCH 14 17
ENDBRANCH 12 13
BRANCH 12 22
ATOM     22  CB  HIS C 157     -11.246   5.401 -26.829  1.00 32.09 LIG 0.10  C 
BRANCH 22 23
ATOM     23  CG  HIS C 157     -11.569   3.978 -27.168  1.00 35.38 LIG 0.06  A 
ATOM     24 ND1  HIS C 157     -12.292   3.626 -28.290  1.00 36.48 LIG-0.24  NA
ATOM     25  CE1 HIS C 157     -12.394   2.310 -28.349  1.00 37.27 LIG 0.23  A 
ATOM     26 NE2  HIS C 157     -11.754   1.794 -27.312  1.00 37.33 LIG-0.25  NA
ATOM     27  CD2 HIS C 157     -11.226   2.815 -26.561  1.00 35.91 LIG 0.14  A 
ENDBRANCH 22 23
ENDBRANCH 12 22
ENDBRANCH 9 12
ENDBRANCH 6 8
ENDBRANCH 4 6
ENDBRANCH 1 2
BRANCH 1 28
ATOM     28  CB  ASP C 155     -11.318  12.163 -26.479  1.00 35.23 LIG 0.15  C 
BRANCH 28 29
ATOM     29  CG  ASP C 155     -11.502  13.533 -27.105  1.00 35.97 LIG 0.17  C 
ATOM     30 OD2  ASP C 155     -12.319  14.293 -26.562  1.00 39.40 LIG-0.65  OA
ATOM     31 OD1  ASP C 155     -10.854  13.868 -28.122  1.00 38.01 LIG-0.65  OA
ENDBRANCH 28 29
ENDBRANCH 1 28
BRANCH 1 32
ATOM     32  N   ASP C 155     -10.677  13.354 -24.454  1.00 36.13 LIG-0.34  N 
ATOM     33 H    ASP C 155     -10.298  13.832 -25.060  1.00 36.13 LIG 0.16  HD
ATOM     34  C   HIS C 154     -10.634  13.635 -23.161  1.00 38.66 LIG 0.24  C 
ATOM     35 O    HIS C 154     -11.216  12.965 -22.312  1.00 35.33 LIG-0.27  OA
BRANCH 34 36
ATOM     36  CA  HIS C 154      -9.845  14.871 -22.763  1.00 42.51 LIG 0.18  C 
BRANCH 36 37
ATOM     37  CB  HIS C 154      -9.790  15.007 -21.242  1.00 45.16 LIG 0.10  C 
BRANCH 37 38
ATOM     38  CG  HIS C 154     -10.435  16.257 -20.729  1.00 48.44 LIG 0.06  A 
ATOM     39 ND1  HIS C 154     -11.804  16.414 -20.657  1.00 50.51 LIG-0.24  NA
ATOM     40  CE1 HIS C 154     -12.084  17.615 -20.184  1.00 51.05 LIG 0.23  A 
ATOM     41 NE2  HIS C 154     -10.947  18.244 -19.947  1.00 50.26 LIG-0.25  NA
ATOM     42  CD2 HIS C 154      -9.901  17.418 -20.281  1.00 50.26 LIG 0.14  A 
ENDBRANCH 37 38
ENDBRANCH 36 37
BRANCH 36 43
ATOM     43  N   HIS C 154     -10.525  16.009 -23.351  1.00 45.99 LIG-0.34  N 
ATOM     44  C   ASP C 153     -10.403  16.324 -24.635  1.00 51.00 LIG 0.26  C 
ATOM     45 O    ASP C 153      -9.569  15.813 -25.386  1.00 50.83 LIG-0.27  OA
ATOM     46 H    HIS C 154     -11.010  16.453 -22.796  1.00 45.99 LIG 0.16  HD
BRANCH 44 47
ATOM     47  CA  ASP C 153     -11.371  17.384 -25.148  1.00 53.77 LIG 0.41  C 
ATOM     48  N   ASP C 153     -11.654  17.240 -26.615  1.00 52.50 LIG 0.61  N 
BRANCH 47 49
ATOM     49  CB  ASP C 153     -12.657  17.320 -24.313  1.00 54.86 LIG 0.16  C 
BRANCH 49 50
ATOM     50  CG  ASP C 153     -13.745  16.508 -24.981  1.00 56.45 LIG 0.17  C 
ATOM     51 OD2  ASP C 153     -14.217  16.921 -26.069  1.00 58.24 LIG-0.65  OA
ATOM     52 OD1  ASP C 153     -14.123  15.461 -24.418  1.00 54.42 LIG-0.65  OA
ENDBRANCH 49 50
ENDBRANCH 47 49
ENDBRANCH 44 47
ENDBRANCH 36 43
ENDBRANCH 34 36
ENDBRANCH 1 32
TORSDOF 19
ENDMDL
MODEL 10
USER: ADFR SOLUTION from run 171
USER: SCORE 17.636435 LL:  -3.887 LR: -16.774 RR:   0.000 FEB: -11.106
USER: RMSD 6.279150
USER: SEED 170
USER: STATUS no improvement in best in 6 clusters for 5 generations
USER: GENES 21
USER: genes 0 Translation |==|  0.46188 0.42491 0.56632
USER: genes 1 Rotation |==|  0.64310 0.93528 0.57549 0.68535
USER: genes 2 Torsion [N]-CA--C-[N] |==|  0.20361
USER: genes 3 Torsion [C]-N--CA-[CB] |==|  0.48958
USER: genes 4 Torsion [N]-CA--C-[N] |==|  0.37558
USER: genes 5 Torsion [C]-N--CA-[CB] |==|  0.41655
USER: genes 6 Torsion [N]-CA--C-[N] |==|  0.82613
USER: genes 7 Torsion [C]-N--CA-[CB] |==|  0.82778
USER: genes 8 Torsion [N]-CA--C-[OXT] |==|  0.79874
USER: genes 9 Torsion [N]-CA--CB-[CG] |==|  0.74993
USER: genes 10 Torsion [CA]-CB--CG-[CD2] |==|  0.99787
USER: genes 11 Torsion [C]-CA--CB-[CG] |==|  0.37311
USER: genes 12 Torsion [CA]-CB--CG-[OD2] |==|  0.92864
USER: genes 13 Torsion [C]-CA--N-[C] |==|  0.74499
USER: genes 14 Torsion [N]-C--CA-[N] |==|  0.63436
USER: genes 15 Torsion [C]-CA--CB-[CG] |==|  0.37245
USER: genes 16 Torsion [CA]-CB--CG-[CD2] |==|  0.32576
USER: genes 17 Torsion [C]-CA--N-[C] |==|  0.17032
USER: genes 18 Torsion [N]-C--CA-[N] |==|  0.47091
USER: genes 19 Torsion [C]-CA--CB-[CG] |==|  0.81764
USER: genes 20 Torsion [CA]-CB--CG-[OD2] |==|  0.35744
ROOT
ATOM      1  CA  ASP C 155     -11.181   8.892 -23.175  1.00 34.31 LIG 0.19  C 
ENDROOT
BRANCH 1 2
ATOM      2  C   ASP C 155     -11.952   8.147 -24.252  1.00 33.42 LIG 0.24  C 
ATOM      3 O    ASP C 155     -13.121   7.795 -24.066  1.00 32.60 LIG-0.27  OA
ATOM      4  N   ALA C 156     -11.292   7.941 -25.388  1.00 30.74 LIG-0.35  N 
ATOM      5 H    ALA C 156     -10.505   8.250 -25.543  1.00 30.74 LIG 0.16  HD
BRANCH 4 6
ATOM      6  CA  ALA C 156     -11.848   7.163 -26.481  1.00 30.13 LIG 0.17  C 
ATOM      7  CB  ALA C 156     -10.906   7.179 -27.674  1.00 30.23 LIG 0.04  C 
BRANCH 6 8
ATOM      8  C   ALA C 156     -12.075   5.742 -25.994  1.00 29.70 LIG 0.24  C 
ATOM      9  N   HIS C 157     -13.243   5.203 -26.329  1.00 30.21 LIG-0.35  N 
ATOM     10 H    HIS C 157     -13.821   5.596 -26.830  1.00 30.21 LIG 0.16  HD
ATOM     11 O    ALA C 156     -11.211   5.156 -25.324  1.00 27.33 LIG-0.27  OA
BRANCH 9 12
ATOM     12  CA  HIS C 157     -13.654   3.879 -25.873  1.00 31.06 LIG 0.18  C 
BRANCH 12 13
ATOM     13  C   HIS C 157     -13.125   2.832 -26.836  1.00 30.33 LIG 0.24  C 
ATOM     14  N   ALA C 158     -13.577   2.899 -28.085  1.00 29.79 LIG-0.34  N 
ATOM     15 H    ALA C 158     -14.107   3.513 -28.372  1.00 29.79 LIG 0.16  HD
ATOM     16 O    HIS C 157     -12.339   1.962 -26.446  1.00 30.67 LIG-0.27  OA
BRANCH 14 17
ATOM     17  CA  ALA C 158     -13.200   1.909 -29.096  1.00 31.13 LIG 0.18  C 
ATOM     18  CB  ALA C 158     -11.695   1.927 -29.338  1.00 30.84 LIG 0.04  C 
BRANCH 17 19
ATOM     19  C   ALA C 158     -13.651   0.511 -28.702  1.00 31.87 LIG 0.20  C 
ATOM     20 OXT  ALA C 158     -13.085  -0.102 -27.793  1.00 33.04 LIG-0.65  OA
ATOM     21 O    ALA C 158     -14.592  -0.026 -29.293  1.00 31.17 LIG-0.65  OA
ENDBRANCH 17 19
ENDBRANCH 14 17
ENDBRANCH 12 13
BRANCH 12 22
ATOM     22  CB  HIS C 157     -15.179   3.811 -25.744  1.00 32.09 LIG 0.10  C 
BRANCH 22 23
ATOM     23  CG  HIS C 157     -15.675   4.207 -24.387  1.00 35.38 LIG 0.06  A 
ATOM     24 ND1  HIS C 157     -17.011   4.175 -24.045  1.00 36.48 LIG-0.24  NA
ATOM     25  CE1 HIS C 157     -17.148   4.542 -22.783  1.00 37.27 LIG 0.23  A 
ATOM     26 NE2  HIS C 157     -15.948   4.801 -22.290  1.00 37.33 LIG-0.25  NA
ATOM     27  CD2 HIS C 157     -15.008   4.595 -23.271  1.00 35.91 LIG 0.14  A 
ENDBRANCH 22 23
ENDBRANCH 12 22
ENDBRANCH 9 12
ENDBRANCH 6 8
ENDBRANCH 4 6
ENDBRANCH 1 2
BRANCH 1 28
ATOM     28  CB  ASP C 155     -11.894   8.738 -21.844  1.00 35.23 LIG 0.15  C 
BRANCH 28 29
ATOM     29  CG  ASP C 155     -10.952   8.395 -20.705  1.00 35.97 LIG 0.17  C 
ATOM     30 OD2  ASP C 155      -9.896   7.815 -21.006  1.00 39.40 LIG-0.65  OA
ATOM     31 OD1  ASP C 155     -11.237   8.687 -19.523  1.00 38.01 LIG-0.65  OA
ENDBRANCH 28 29
ENDBRANCH 1 28
BRANCH 1 32
ATOM     32  N   ASP C 155     -11.065  10.291 -23.527  1.00 36.13 LIG-0.34  N 
ATOM     33 H    ASP C 155     -11.720  10.779 -23.257  1.00 36.13 LIG 0.16  HD
ATOM     34  C   HIS C 154     -10.030  10.759 -24.207  1.00 38.66 LIG 0.24  C 
ATOM     35 O    HIS C 154      -9.082  10.056 -24.547  1.00 35.33 LIG-0.27  OA
BRANCH 34 36
ATOM     36  CA  HIS C 154     -10.047  12.244 -24.526  1.00 42.51 LIG 0.18  C 
BRANCH 36 37
ATOM     37  CB  HIS C 154     -11.420  12.844 -24.222  1.00 45.16 LIG 0.10  C 
BRANCH 37 38
ATOM     38  CG  HIS C 154     -11.354  14.136 -23.468  1.00 48.44 LIG 0.06  A 
ATOM     39 ND1  HIS C 154     -10.840  14.229 -22.192  1.00 50.51 LIG-0.24  NA
ATOM     40  CE1 HIS C 154     -10.924  15.480 -21.774  1.00 51.05 LIG 0.23  A 
ATOM     41 NE2  HIS C 154     -11.476  16.201 -22.733  1.00 50.26 LIG-0.25  NA
ATOM     42  CD2 HIS C 154     -11.756  15.385 -23.803  1.00 50.26 LIG 0.14  A 
ENDBRANCH 37 38
ENDBRANCH 36 37
BRANCH 36 43
ATOM     43  N   HIS C 154      -9.737  12.373 -25.936  1.00 45.99 LIG-0.34  N 
ATOM     44  C   ASP C 153     -10.502  11.842 -26.883  1.00 51.00 LIG 0.26  C 
ATOM     45 O    ASP C 153     -11.416  11.047 -26.655  1.00 50.83 LIG-0.27  OA
ATOM     46 H    HIS C 154      -9.019  12.819 -26.099  1.00 45.99 LIG 0.16  HD
BRANCH 44 47
ATOM     47  CA  ASP C 153     -10.183  12.278 -28.309  1.00 53.77 LIG 0.41  C 
ATOM     48  N   ASP C 153     -10.910  11.459 -29.335  1.00 52.50 LIG 0.61  N 
BRANCH 47 49
ATOM     49  CB  ASP C 153     -10.499  13.773 -28.448  1.00 54.86 LIG 0.16  C 
BRANCH 49 50
ATOM     50  CG  ASP C 153     -11.975  14.072 -28.304  1.00 56.45 LIG 0.17  C 
ATOM     51 OD2  ASP C 153     -12.328  14.962 -27.492  1.00 58.24 LIG-0.65  OA
ATOM     52 OD1  ASP C 153     -12.775  13.416 -29.001  1.00 54.42 LIG-0.65  OA
ENDBRANCH 49 50
ENDBRANCH 47 49
ENDBRANCH 44 47
ENDBRANCH 36 43
ENDBRANCH 34 36
ENDBRANCH 1 32
TORSDOF 19
ENDMDL
MODEL 11
USER: ADFR SOLUTION from run 49
USER: SCORE 17.250750 LL:  -4.423 LR: -16.705 RR:   0.000 FEB: -11.037
USER: RMSD 5.262755
USER: SEED 48
USER: STATUS 1 or 2 clusters left
USER: GENES 21
USER: genes 0 Translation |==|  0.49665 0.54446 0.46778
USER: genes 1 Rotation |==|  0.33518 0.82561 0.38962 0.82347
USER: genes 2 Torsion [N]-CA--C-[N] |==|  0.64220
USER: genes 3 Torsion [C]-N--CA-[CB] |==|  0.35620
USER: genes 4 Torsion [N]-CA--C-[N] |==|  0.28767
USER: genes 5 Torsion [C]-N--CA-[CB] |==|  0.44645
USER: genes 6 Torsion [N]-CA--C-[N] |==|  0.32120
USER: genes 7 Torsion [C]-N--CA-[CB] |==|  0.46235
USER: genes 8 Torsion [N]-CA--C-[OXT] |==|  0.47855
USER: genes 9 Torsion [N]-CA--CB-[CG] |==|  0.44883
USER: genes 10 Torsion [CA]-CB--CG-[CD2] |==|  0.22016
USER: genes 11 Torsion [C]-CA--CB-[CG] |==|  0.36152
USER: genes 12 Torsion [CA]-CB--CG-[OD2] |==|  0.33384
USER: genes 13 Torsion [C]-CA--N-[C] |==|  0.14313
USER: genes 14 Torsion [N]-C--CA-[N] |==|  0.88401
USER: genes 15 Torsion [C]-CA--CB-[CG] |==|  0.86171
USER: genes 16 Torsion [CA]-CB--CG-[CD2] |==|  0.76656
USER: genes 17 Torsion [C]-CA--N-[C] |==|  0.80712
USER: genes 18 Torsion [N]-C--CA-[N] |==|  0.32967
USER: genes 19 Torsion [C]-CA--CB-[CG] |==|  0.62254
USER: genes 20 Torsion [CA]-CB--CG-[OD2] |==|  0.36706
ROOT
ATOM      1  CA  ASP C 155     -10.529  12.119 -25.022  1.00 34.31 LIG 0.19  C 
ENDROOT
BRANCH 1 2
ATOM      2  C   ASP C 155     -10.168  10.764 -24.437  1.00 33.42 LIG 0.24  C 
ATOM      3 O    ASP C 155      -9.043  10.281 -24.602  1.00 32.60 LIG-0.27  OA
ATOM      4  N   ALA C 156     -11.127  10.174 -23.729  1.00 30.74 LIG-0.35  N 
ATOM      5 H    ALA C 156     -11.883  10.542 -23.553  1.00 30.74 LIG 0.16  HD
BRANCH 4 6
ATOM      6  CA  ALA C 156     -10.979   8.836 -23.184  1.00 30.13 LIG 0.17  C 
ATOM      7  CB  ALA C 156     -11.306   8.831 -21.699  1.00 30.23 LIG 0.04  C 
BRANCH 6 8
ATOM      8  C   ALA C 156     -11.908   7.902 -23.941  1.00 29.70 LIG 0.24  C 
ATOM      9  N   HIS C 157     -11.320   7.115 -24.838  1.00 30.21 LIG-0.35  N 
ATOM     10 H    HIS C 157     -10.469   7.086 -24.958  1.00 30.21 LIG 0.16  HD
ATOM     11 O    ALA C 156     -13.128   7.904 -23.719  1.00 27.33 LIG-0.27  OA
BRANCH 9 12
ATOM     12  CA  HIS C 157     -12.076   6.220 -25.708  1.00 31.06 LIG 0.18  C 
BRANCH 12 13
ATOM     13  C   HIS C 157     -12.526   5.010 -24.910  1.00 30.33 LIG 0.24  C 
ATOM     14  N   ALA C 158     -13.839   4.861 -24.758  1.00 29.79 LIG-0.34  N 
ATOM     15 H    ALA C 158     -14.426   5.380 -25.114  1.00 29.79 LIG 0.16  HD
ATOM     16 O    HIS C 157     -11.696   4.239 -24.418  1.00 30.67 LIG-0.27  OA
BRANCH 14 17
ATOM     17  CA  ALA C 158     -14.404   3.776 -23.953  1.00 31.13 LIG 0.18  C 
ATOM     18  CB  ALA C 158     -15.881   4.023 -23.671  1.00 30.84 LIG 0.04  C 
BRANCH 17 19
ATOM     19  C   ALA C 158     -14.217   2.426 -24.629  1.00 31.87 LIG 0.20  C 
ATOM     20 OXT  ALA C 158     -14.501   1.380 -24.038  1.00 33.04 LIG-0.65  OA
ATOM     21 O    ALA C 158     -13.774   2.365 -25.778  1.00 31.17 LIG-0.65  OA
ENDBRANCH 17 19
ENDBRANCH 14 17
ENDBRANCH 12 13
BRANCH 12 22
ATOM     22  CB  HIS C 157     -11.228   5.816 -26.919  1.00 32.09 LIG 0.10  C 
BRANCH 22 23
ATOM     23  CG  HIS C 157     -11.738   4.591 -27.613  1.00 35.38 LIG 0.06  A 
ATOM     24 ND1  HIS C 157     -11.216   3.334 -27.384  1.00 36.48 LIG-0.24  NA
ATOM     25  CE1 HIS C 157     -11.879   2.447 -28.105  1.00 37.27 LIG 0.23  A 
ATOM     26 NE2  HIS C 157     -12.820   3.081 -28.786  1.00 37.33 LIG-0.25  NA
ATOM     27  CD2 HIS C 157     -12.757   4.422 -28.493  1.00 35.91 LIG 0.14  A 
ENDBRANCH 22 23
ENDBRANCH 12 22
ENDBRANCH 9 12
ENDBRANCH 6 8
ENDBRANCH 4 6
ENDBRANCH 1 2
BRANCH 1 28
ATOM     28  CB  ASP C 155     -12.003  12.393 -24.791  1.00 35.23 LIG 0.15  C 
BRANCH 28 29
ATOM     29  CG  ASP C 155     -12.262  13.760 -24.184  1.00 35.97 LIG 0.17  C 
ATOM     30 OD2  ASP C 155     -12.972  14.540 -24.840  1.00 39.40 LIG-0.65  OA
ATOM     31 OD1  ASP C 155     -11.776  14.075 -23.075  1.00 38.01 LIG-0.65  OA
ENDBRANCH 28 29
ENDBRANCH 1 28
BRANCH 1 32
ATOM     32  N   ASP C 155     -10.226  12.143 -26.438  1.00 36.13 LIG-0.34  N 
ATOM     33 H    ASP C 155      -9.748  12.814 -26.686  1.00 36.13 LIG 0.16  HD
ATOM     34  C   HIS C 154     -10.660  11.203 -27.263  1.00 38.66 LIG 0.24  C 
ATOM     35 O    HIS C 154     -11.308  10.231 -26.886  1.00 35.33 LIG-0.27  OA
BRANCH 34 36
ATOM     36  CA  HIS C 154     -10.286  11.364 -28.727  1.00 42.51 LIG 0.18  C 
BRANCH 36 37
ATOM     37  CB  HIS C 154      -8.841  10.926 -28.963  1.00 45.16 LIG 0.10  C 
BRANCH 37 38
ATOM     38  CG  HIS C 154      -7.867  11.536 -28.003  1.00 48.44 LIG 0.06  A 
ATOM     39 ND1  HIS C 154      -7.462  10.901 -26.848  1.00 50.51 LIG-0.24  NA
ATOM     40  CE1 HIS C 154      -6.616  11.678 -26.193  1.00 51.05 LIG 0.23  A 
ATOM     41 NE2  HIS C 154      -6.460  12.794 -26.881  1.00 50.26 LIG-0.25  NA
ATOM     42  CD2 HIS C 154      -7.232  12.732 -28.016  1.00 50.26 LIG 0.14  A 
ENDBRANCH 37 38
ENDBRANCH 36 37
BRANCH 36 43
ATOM     43  N   HIS C 154     -10.452  12.767 -29.050  1.00 45.99 LIG-0.34  N 
ATOM     44  C   ASP C 153     -11.646  13.346 -29.112  1.00 51.00 LIG 0.26  C 
ATOM     45 O    ASP C 153     -12.708  12.721 -29.096  1.00 50.83 LIG-0.27  OA
ATOM     46 H    HIS C 154      -9.713  13.184 -29.195  1.00 45.99 LIG 0.16  HD
BRANCH 44 47
ATOM     47  CA  ASP C 153     -11.635  14.868 -29.211  1.00 53.77 LIG 0.41  C 
ATOM     48  N   ASP C 153     -12.271  15.364 -30.477  1.00 52.50 LIG 0.61  N 
BRANCH 47 49
ATOM     49  CB  ASP C 153     -12.321  15.445 -27.967  1.00 54.86 LIG 0.16  C 
BRANCH 49 50
ATOM     50  CG  ASP C 153     -13.279  16.569 -28.299  1.00 56.45 LIG 0.17  C 
ATOM     51 OD2  ASP C 153     -14.428  16.543 -27.794  1.00 58.24 LIG-0.65  OA
ATOM     52 OD1  ASP C 153     -12.879  17.472 -29.061  1.00 54.42 LIG-0.65  OA
ENDBRANCH 49 50
ENDBRANCH 47 49
ENDBRANCH 44 47
ENDBRANCH 36 43
ENDBRANCH 34 36
ENDBRANCH 1 32
TORSDOF 19
ENDMDL
MODEL 12
USER: ADFR SOLUTION from run 198
USER: SCORE 18.312923 LL:  -3.786 LR: -16.683 RR:   0.000 FEB: -11.016
USER: RMSD 11.597444
USER: SEED 197
USER: STATUS no improvement in best in 4 clusters for 5 generations
USER: GENES 21
USER: genes 0 Translation |==|  0.48072 0.44396 0.56330
USER: genes 1 Rotation |==|  0.05796 0.56962 0.72000 0.53686
USER: genes 2 Torsion [N]-CA--C-[N] |==|  0.35717
USER: genes 3 Torsion [C]-N--CA-[CB] |==|  0.24974
USER: genes 4 Torsion [N]-CA--C-[N] |==|  0.65381
USER: genes 5 Torsion [C]-N--CA-[CB] |==|  0.18889
USER: genes 6 Torsion [N]-CA--C-[N] |==|  0.90617
USER: genes 7 Torsion [C]-N--CA-[CB] |==|  0.41189
USER: genes 8 Torsion [N]-CA--C-[OXT] |==|  0.24879
USER: genes 9 Torsion [N]-CA--CB-[CG] |==|  0.60925
USER: genes 10 Torsion [CA]-CB--CG-[CD2] |==|  0.49937
USER: genes 11 Torsion [C]-CA--CB-[CG] |==|  0.32440
USER: genes 12 Torsion [CA]-CB--CG-[OD2] |==|  0.86306
USER: genes 13 Torsion [C]-CA--N-[C] |==|  0.65868
USER: genes 14 Torsion [N]-C--CA-[N] |==|  0.43607
USER: genes 15 Torsion [C]-CA--CB-[CG] |==|  0.18477
USER: genes 16 Torsion [CA]-CB--CG-[CD2] |==|  0.27400
USER: genes 17 Torsion [C]-CA--N-[C] |==|  0.78378
USER: genes 18 Torsion [N]-C--CA-[N] |==|  0.14455
USER: genes 19 Torsion [C]-CA--CB-[CG] |==|  0.74695
USER: genes 20 Torsion [CA]-CB--CG-[OD2] |==|  0.53712
ROOT
ATOM      1  CA  ASP C 155     -10.827   9.406 -23.231  1.00 34.31 LIG 0.19  C 
ENDROOT
BRANCH 1 2
ATOM      2  C   ASP C 155     -10.158  10.662 -23.762  1.00 33.42 LIG 0.24  C 
ATOM      3 O    ASP C 155      -9.067  10.604 -24.341  1.00 32.60 LIG-0.27  OA
ATOM      4  N   ALA C 156     -10.838  11.791 -23.585  1.00 30.74 LIG-0.35  N 
ATOM      5 H    ALA C 156     -11.628  11.822 -23.249  1.00 30.74 LIG 0.16  HD
BRANCH 4 6
ATOM      6  CA  ALA C 156     -10.298  13.090 -23.946  1.00 30.13 LIG 0.17  C 
ATOM      7  CB  ALA C 156     -10.658  13.431 -25.384  1.00 30.23 LIG 0.04  C 
BRANCH 6 8
ATOM      8  C   ALA C 156     -10.860  14.128 -22.991  1.00 29.70 LIG 0.24  C 
ATOM      9  N   HIS C 157     -11.483  15.154 -23.564  1.00 30.21 LIG-0.35  N 
ATOM     10 H    HIS C 157     -11.613  15.216 -24.412  1.00 30.21 LIG 0.16  HD
ATOM     11 O    ALA C 156     -10.724  14.001 -21.765  1.00 27.33 LIG-0.27  OA
BRANCH 9 12
ATOM     12  CA  HIS C 157     -12.008  16.278 -22.797  1.00 31.06 LIG 0.18  C 
BRANCH 12 13
ATOM     13  C   HIS C 157     -12.888  17.129 -23.694  1.00 30.33 LIG 0.24  C 
ATOM     14  N   ALA C 158     -12.526  17.207 -24.972  1.00 29.79 LIG-0.34  N 
ATOM     15 H    ALA C 158     -11.860  16.779 -25.308  1.00 29.79 LIG 0.16  HD
ATOM     16 O    HIS C 157     -13.866  17.725 -23.230  1.00 30.67 LIG-0.27  OA
BRANCH 14 17
ATOM     17  CA  ALA C 158     -13.248  18.048 -25.928  1.00 31.13 LIG 0.18  C 
ATOM     18  CB  ALA C 158     -12.303  18.586 -26.997  1.00 30.84 LIG 0.04  C 
BRANCH 17 19
ATOM     19  C   ALA C 158     -14.398  17.294 -26.576  1.00 31.87 LIG 0.20  C 
ATOM     20 OXT  ALA C 158     -15.522  17.299 -26.065  1.00 33.04 LIG-0.65  OA
ATOM     21 O    ALA C 158     -14.216  16.664 -27.621  1.00 31.17 LIG-0.65  OA
ENDBRANCH 17 19
ENDBRANCH 14 17
ENDBRANCH 12 13
BRANCH 12 22
ATOM     22  CB  HIS C 157     -10.859  17.093 -22.194  1.00 32.09 LIG 0.10  C 
BRANCH 22 23
ATOM     23  CG  HIS C 157     -11.141  17.574 -20.805  1.00 35.38 LIG 0.06  A 
ATOM     24 ND1  HIS C 157     -12.302  17.256 -20.129  1.00 36.48 LIG-0.24  NA
ATOM     25  CE1 HIS C 157     -12.263  17.786 -18.919  1.00 37.27 LIG 0.23  A 
ATOM     26 NE2  HIS C 157     -11.114  18.429 -18.781  1.00 37.33 LIG-0.25  NA
ATOM     27  CD2 HIS C 157     -10.393  18.308 -19.943  1.00 35.91 LIG 0.14  A 
ENDBRANCH 22 23
ENDBRANCH 12 22
ENDBRANCH 9 12
ENDBRANCH 6 8
ENDBRANCH 4 6
ENDBRANCH 1 2
BRANCH 1 28
ATOM     28  CB  ASP C 155     -10.065   8.899 -22.021  1.00 35.23 LIG 0.15  C 
BRANCH 28 29
ATOM     29  CG  ASP C 155     -10.894   8.922 -20.749  1.00 35.97 LIG 0.17  C 
ATOM     30 OD2  ASP C 155     -11.494   9.978 -20.490  1.00 39.40 LIG-0.65  OA
ATOM     31 OD1  ASP C 155     -10.959   7.919 -20.006  1.00 38.01 LIG-0.65  OA
ENDBRANCH 28 29
ENDBRANCH 1 28
BRANCH 1 32
ATOM     32  N   ASP C 155     -10.867   8.392 -24.264  1.00 36.13 LIG-0.34  N 
ATOM     33 H    ASP C 155     -10.096   8.184 -24.584  1.00 36.13 LIG 0.16  HD
ATOM     34  C   HIS C 154     -12.004   7.845 -24.666  1.00 38.66 LIG 0.24  C 
ATOM     35 O    HIS C 154     -13.091   8.124 -24.169  1.00 35.33 LIG-0.27  OA
BRANCH 34 36
ATOM     36  CA  HIS C 154     -11.901   6.809 -25.772  1.00 42.51 LIG 0.18  C 
BRANCH 36 37
ATOM     37  CB  HIS C 154     -11.832   7.488 -27.140  1.00 45.16 LIG 0.10  C 
BRANCH 37 38
ATOM     38  CG  HIS C 154     -10.579   8.281 -27.351  1.00 48.44 LIG 0.06  A 
ATOM     39 ND1  HIS C 154     -10.424   9.568 -26.881  1.00 50.51 LIG-0.24  NA
ATOM     40  CE1 HIS C 154      -9.232  10.021 -27.226  1.00 51.05 LIG 0.23  A 
ATOM     41 NE2  HIS C 154      -8.609   9.075 -27.905  1.00 50.26 LIG-0.25  NA
ATOM     42  CD2 HIS C 154      -9.430   7.977 -27.999  1.00 50.26 LIG 0.14  A 
ENDBRANCH 37 38
ENDBRANCH 36 37
BRANCH 36 43
ATOM     43  N   HIS C 154     -13.084   5.976 -25.676  1.00 45.99 LIG-0.34  N 
ATOM     44  C   ASP C 153     -13.208   5.020 -24.763  1.00 51.00 LIG 0.26  C 
ATOM     45 O    ASP C 153     -12.277   4.629 -24.055  1.00 50.83 LIG-0.27  OA
ATOM     46 H    HIS C 154     -13.689   6.158 -26.260  1.00 45.99 LIG 0.16  HD
BRANCH 44 47
ATOM     47  CA  ASP C 153     -14.599   4.411 -24.632  1.00 53.77 LIG 0.41  C 
ATOM     48  N   ASP C 153     -15.149   3.949 -25.950  1.00 52.50 LIG 0.61  N 
BRANCH 47 49
ATOM     49  CB  ASP C 153     -14.541   3.269 -23.609  1.00 54.86 LIG 0.16  C 
BRANCH 49 50
ATOM     50  CG  ASP C 153     -14.247   1.930 -24.248  1.00 56.45 LIG 0.17  C 
ATOM     51 OD2  ASP C 153     -14.423   0.890 -23.566  1.00 58.24 LIG-0.65  OA
ATOM     52 OD1  ASP C 153     -13.841   1.921 -25.428  1.00 54.42 LIG-0.65  OA
ENDBRANCH 49 50
ENDBRANCH 47 49
ENDBRANCH 44 47
ENDBRANCH 36 43
ENDBRANCH 34 36
ENDBRANCH 1 32
TORSDOF 19
ENDMDL
MODEL 13
USER: ADFR SOLUTION from run 36
USER: SCORE 17.222310 LL:  -3.903 LR: -16.519 RR:   0.000 FEB: -10.851
USER: RMSD 13.486535
USER: SEED 35
USER: STATUS 1 or 2 clusters left
USER: GENES 21
USER: genes 0 Translation |==|  0.33151 0.25259 0.43438
USER: genes 1 Rotation |==|  0.12991 0.59961 0.73248 0.72151
USER: genes 2 Torsion [N]-CA--C-[N] |==|  0.07005
USER: genes 3 Torsion [C]-N--CA-[CB] |==|  0.45657
USER: genes 4 Torsion [N]-CA--C-[N] |==|  0.47847
USER: genes 5 Torsion [C]-N--CA-[CB] |==|  0.30000
USER: genes 6 Torsion [N]-CA--C-[N] |==|  0.40752
USER: genes 7 Torsion [C]-N--CA-[CB] |==|  0.16396
USER: genes 8 Torsion [N]-CA--C-[OXT] |==|  0.14985
USER: genes 9 Torsion [N]-CA--CB-[CG] |==|  0.67627
USER: genes 10 Torsion [CA]-CB--CG-[CD2] |==|  0.84647
USER: genes 11 Torsion [C]-CA--CB-[CG] |==|  0.35094
USER: genes 12 Torsion [CA]-CB--CG-[OD2] |==|  0.97163
USER: genes 13 Torsion [C]-CA--N-[C] |==|  0.55679
USER: genes 14 Torsion [N]-C--CA-[N] |==|  0.15753
USER: genes 15 Torsion [C]-CA--CB-[CG] |==|  0.64956
USER: genes 16 Torsion [CA]-CB--CG-[CD2] |==|  0.35366
USER: genes 17 Torsion [C]-CA--N-[C] |==|  0.77308
USER: genes 18 Torsion [N]-C--CA-[N] |==|  0.63873
USER: genes 19 Torsion [C]-CA--CB-[CG] |==|  0.80599
USER: genes 20 Torsion [CA]-CB--CG-[OD2] |==|  0.42732
ROOT
ATOM      1  CA  ASP C 155     -13.625   4.239 -25.648  1.00 34.31 LIG 0.19  C 
ENDROOT
BRANCH 1 2
ATOM      2  C   ASP C 155     -12.420   5.155 -25.516  1.00 33.42 LIG 0.24  C 
ATOM      3 O    ASP C 155     -11.610   5.009 -24.594  1.00 32.60 LIG-0.27  OA
ATOM      4  N   ALA C 156     -12.297   6.079 -26.464  1.00 30.74 LIG-0.35  N 
ATOM      5 H    ALA C 156     -12.819   6.133 -27.146  1.00 30.74 LIG 0.16  HD
BRANCH 4 6
ATOM      6  CA  ALA C 156     -11.258   7.092 -26.433  1.00 30.13 LIG 0.17  C 
ATOM      7  CB  ALA C 156     -11.119   7.750 -27.797  1.00 30.23 LIG 0.04  C 
BRANCH 6 8
ATOM      8  C   ALA C 156     -11.620   8.120 -25.375  1.00 29.70 LIG 0.24  C 
ATOM      9  N   HIS C 157     -10.683   9.027 -25.116  1.00 30.21 LIG-0.35  N 
ATOM     10 H    HIS C 157      -9.938   9.076 -25.543  1.00 30.21 LIG 0.16  HD
ATOM     11 O    ALA C 156     -12.721   8.083 -24.805  1.00 27.33 LIG-0.27  OA
BRANCH 9 12
ATOM     12  CA  HIS C 157     -10.836  10.034 -24.070  1.00 31.06 LIG 0.18  C 
BRANCH 12 13
ATOM     13  C   HIS C 157     -10.545  11.406 -24.651  1.00 30.33 LIG 0.24  C 
ATOM     14  N   ALA C 158     -11.242  12.420 -24.144  1.00 29.79 LIG-0.34  N 
ATOM     15 H    ALA C 158     -11.802  12.340 -23.496  1.00 29.79 LIG 0.16  HD
ATOM     16 O    HIS C 157      -9.721  11.539 -25.562  1.00 30.67 LIG-0.27  OA
BRANCH 14 17
ATOM     17  CA  ALA C 158     -11.108  13.783 -24.663  1.00 31.13 LIG 0.18  C 
ATOM     18  CB  ALA C 158     -11.462  13.836 -26.144  1.00 30.84 LIG 0.04  C 
BRANCH 17 19
ATOM     19  C   ALA C 158     -11.969  14.763 -23.881  1.00 31.87 LIG 0.20  C 
ATOM     20 OXT  ALA C 158     -11.875  14.844 -22.653  1.00 33.04 LIG-0.65  OA
ATOM     21 O    ALA C 158     -12.776  15.486 -24.471  1.00 31.17 LIG-0.65  OA
ENDBRANCH 17 19
ENDBRANCH 14 17
ENDBRANCH 12 13
BRANCH 12 22
ATOM     22  CB  HIS C 157      -9.918   9.714 -22.886  1.00 32.09 LIG 0.10  C 
BRANCH 22 23
ATOM     23  CG  HIS C 157     -10.665   9.421 -21.622  1.00 35.38 LIG 0.06  A 
ATOM     24 ND1  HIS C 157     -10.447   8.280 -20.877  1.00 36.48 LIG-0.24  NA
ATOM     25  CE1 HIS C 157     -11.220   8.304 -19.804  1.00 37.27 LIG 0.23  A 
ATOM     26 NE2  HIS C 157     -11.923   9.424 -19.821  1.00 37.33 LIG-0.25  NA
ATOM     27  CD2 HIS C 157     -11.593  10.143 -20.945  1.00 35.91 LIG 0.14  A 
ENDBRANCH 22 23
ENDBRANCH 12 22
ENDBRANCH 9 12
ENDBRANCH 6 8
ENDBRANCH 4 6
ENDBRANCH 1 2
BRANCH 1 28
ATOM     28  CB  ASP C 155     -13.271   2.858 -25.130  1.00 35.23 LIG 0.15  C 
BRANCH 28 29
ATOM     29  CG  ASP C 155     -14.240   2.357 -24.074  1.00 35.97 LIG 0.17  C 
ATOM     30 OD2  ASP C 155     -15.057   3.178 -23.628  1.00 39.40 LIG-0.65  OA
ATOM     31 OD1  ASP C 155     -14.205   1.170 -23.680  1.00 38.01 LIG-0.65  OA
ENDBRANCH 28 29
ENDBRANCH 1 28
BRANCH 1 32
ATOM     32  N   ASP C 155     -14.042   4.167 -27.033  1.00 36.13 LIG-0.34  N 
ATOM     33 H    ASP C 155     -13.433   4.394 -27.598  1.00 36.13 LIG 0.16  HD
ATOM     34  C   HIS C 154     -15.260   3.782 -27.379  1.00 38.66 LIG 0.24  C 
ATOM     35 O    HIS C 154     -16.104   3.422 -26.563  1.00 35.33 LIG-0.27  OA
BRANCH 34 36
ATOM     36  CA  HIS C 154     -15.569   3.773 -28.867  1.00 42.51 LIG 0.18  C 
BRANCH 36 37
ATOM     37  CB  HIS C 154     -16.980   3.240 -29.119  1.00 45.16 LIG 0.10  C 
BRANCH 37 38
ATOM     38  CG  HIS C 154     -17.024   2.102 -30.092  1.00 48.44 LIG 0.06  A 
ATOM     39 ND1  HIS C 154     -16.469   2.178 -31.352  1.00 50.51 LIG-0.24  NA
ATOM     40  CE1 HIS C 154     -16.671   1.039 -31.990  1.00 51.05 LIG 0.23  A 
ATOM     41 NE2  HIS C 154     -17.339   0.228 -31.190  1.00 50.26 LIG-0.25  NA
ATOM     42  CD2 HIS C 154     -17.574   0.869 -29.998  1.00 50.26 LIG 0.14  A 
ENDBRANCH 37 38
ENDBRANCH 36 37
BRANCH 36 43
ATOM     43  N   HIS C 154     -14.582   2.916 -29.494  1.00 45.99 LIG-0.34  N 
ATOM     44  C   ASP C 153     -13.363   3.344 -29.801  1.00 51.00 LIG 0.26  C 
ATOM     45 O    ASP C 153     -13.026   4.530 -29.763  1.00 50.83 LIG-0.27  OA
ATOM     46 H    HIS C 154     -14.858   2.116 -29.646  1.00 45.99 LIG 0.16  HD
BRANCH 44 47
ATOM     47  CA  ASP C 153     -12.372   2.263 -30.217  1.00 53.77 LIG 0.41  C 
ATOM     48  N   ASP C 153     -11.072   2.360 -29.473  1.00 52.50 LIG 0.61  N 
BRANCH 47 49
ATOM     49  CB  ASP C 153     -13.033   0.891 -30.028  1.00 54.86 LIG 0.16  C 
BRANCH 49 50
ATOM     50  CG  ASP C 153     -13.225   0.534 -28.570  1.00 56.45 LIG 0.17  C 
ATOM     51 OD2  ASP C 153     -14.150  -0.259 -28.266  1.00 58.24 LIG-0.65  OA
ATOM     52 OD1  ASP C 153     -12.452   1.046 -27.735  1.00 54.42 LIG-0.65  OA
ENDBRANCH 49 50
ENDBRANCH 47 49
ENDBRANCH 44 47
ENDBRANCH 36 43
ENDBRANCH 34 36
ENDBRANCH 1 32
TORSDOF 19
ENDMDL
MODEL 14
USER: ADFR SOLUTION from run 127
USER: SCORE 16.852127 LL:  -4.187 LR: -16.361 RR:   0.000 FEB: -10.693
USER: RMSD 1.367151
USER: SEED 126
USER: STATUS no improvement in best in 7 clusters for 5 generations
USER: GENES 21
USER: genes 0 Translation |==|  0.47018 0.55885 0.54368
USER: genes 1 Rotation |==|  0.49439 0.53793 0.50214 0.99852
USER: genes 2 Torsion [N]-CA--C-[N] |==|  0.40267
USER: genes 3 Torsion [C]-N--CA-[CB] |==|  0.33037
USER: genes 4 Torsion [N]-CA--C-[N] |==|  0.35659
USER: genes 5 Torsion [C]-N--CA-[CB] |==|  0.42589
USER: genes 6 Torsion [N]-CA--C-[N] |==|  0.32894
USER: genes 7 Torsion [C]-N--CA-[CB] |==|  0.48447
USER: genes 8 Torsion [N]-CA--C-[OXT] |==|  0.96536
USER: genes 9 Torsion [N]-CA--CB-[CG] |==|  0.87244
USER: genes 10 Torsion [CA]-CB--CG-[CD2] |==|  0.91953
USER: genes 11 Torsion [C]-CA--CB-[CG] |==|  0.49069
USER: genes 12 Torsion [CA]-CB--CG-[OD2] |==|  0.24548
USER: genes 13 Torsion [C]-CA--N-[C] |==|  0.68960
USER: genes 14 Torsion [N]-C--CA-[N] |==|  0.25748
USER: genes 15 Torsion [C]-CA--CB-[CG] |==|  0.38518
USER: genes 16 Torsion [CA]-CB--CG-[CD2] |==|  0.38028
USER: genes 17 Torsion [C]-CA--N-[C] |==|  0.78887
USER: genes 18 Torsion [N]-C--CA-[N] |==|  0.59724
USER: genes 19 Torsion [C]-CA--CB-[CG] |==|  0.67920
USER: genes 20 Torsion [CA]-CB--CG-[OD2] |==|  0.32686
ROOT
ATOM      1  CA  ASP C 155     -11.025  12.508 -23.599  1.00 34.31 LIG 0.19  C 
ENDROOT
BRANCH 1 2
ATOM      2  C   ASP C 155     -10.417  11.117 -23.528  1.00 33.42 LIG 0.24  C 
ATOM      3 O    ASP C 155      -9.263  10.908 -23.918  1.00 32.60 LIG-0.27  OA
ATOM      4  N   ALA C 156     -11.197  10.179 -22.999  1.00 30.74 LIG-0.35  N 
ATOM      5 H    ALA C 156     -11.971  10.339 -22.661  1.00 30.74 LIG 0.16  HD
BRANCH 4 6
ATOM      6  CA  ALA C 156     -10.806   8.781 -22.946  1.00 30.13 LIG 0.17  C 
ATOM      7  CB  ALA C 156     -10.733   8.307 -21.503  1.00 30.23 LIG 0.04  C 
BRANCH 6 8
ATOM      8  C   ALA C 156     -11.821   7.967 -23.728  1.00 29.70 LIG 0.24  C 
ATOM      9  N   HIS C 157     -11.313   7.151 -24.647  1.00 30.21 LIG-0.35  N 
ATOM     10 H    HIS C 157     -10.470   7.040 -24.770  1.00 30.21 LIG 0.16  HD
ATOM     11 O    ALA C 156     -13.036   8.084 -23.505  1.00 27.33 LIG-0.27  OA
BRANCH 9 12
ATOM     12  CA  HIS C 157     -12.153   6.361 -25.542  1.00 31.06 LIG 0.18  C 
BRANCH 12 13
ATOM     13  C   HIS C 157     -12.574   5.086 -24.835  1.00 30.33 LIG 0.24  C 
ATOM     14  N   ALA C 158     -13.881   4.918 -24.651  1.00 29.79 LIG-0.34  N 
ATOM     15 H    ALA C 158     -14.480   5.463 -24.942  1.00 29.79 LIG 0.16  HD
ATOM     16 O    HIS C 157     -11.726   4.278 -24.439  1.00 30.67 LIG-0.27  OA
BRANCH 14 17
ATOM     17  CA  ALA C 158     -14.416   3.766 -23.923  1.00 31.13 LIG 0.18  C 
ATOM     18  CB  ALA C 158     -15.924   3.893 -23.742  1.00 30.84 LIG 0.04  C 
BRANCH 17 19
ATOM     19  C   ALA C 158     -14.080   2.459 -24.623  1.00 31.87 LIG 0.20  C 
ATOM     20 OXT  ALA C 158     -13.637   2.456 -25.775  1.00 33.04 LIG-0.65  OA
ATOM     21 O    ALA C 158     -14.250   1.384 -24.043  1.00 31.17 LIG-0.65  OA
ENDBRANCH 17 19
ENDBRANCH 14 17
ENDBRANCH 12 13
BRANCH 12 22
ATOM     22  CB  HIS C 157     -11.407   6.064 -26.847  1.00 32.09 LIG 0.10  C 
BRANCH 22 23
ATOM     23  CG  HIS C 157     -10.722   7.266 -27.420  1.00 35.38 LIG 0.06  A 
ATOM     24 ND1  HIS C 157      -9.611   7.171 -28.235  1.00 36.48 LIG-0.24  NA
ATOM     25  CE1 HIS C 157      -9.244   8.383 -28.616  1.00 37.27 LIG 0.23  A 
ATOM     26 NE2  HIS C 157     -10.082   9.260 -28.087  1.00 37.33 LIG-0.25  NA
ATOM     27  CD2 HIS C 157     -11.018   8.588 -27.339  1.00 35.91 LIG 0.14  A 
ENDBRANCH 22 23
ENDBRANCH 12 22
ENDBRANCH 9 12
ENDBRANCH 6 8
ENDBRANCH 4 6
ENDBRANCH 1 2
BRANCH 1 28
ATOM     28  CB  ASP C 155     -11.676  12.707 -24.955  1.00 35.23 LIG 0.15  C 
BRANCH 28 29
ATOM     29  CG  ASP C 155     -12.381  14.045 -25.081  1.00 35.97 LIG 0.17  C 
ATOM     30 OD2  ASP C 155     -11.698  15.003 -25.480  1.00 39.40 LIG-0.65  OA
ATOM     31 OD1  ASP C 155     -13.592  14.165 -24.793  1.00 38.01 LIG-0.65  OA
ENDBRANCH 28 29
ENDBRANCH 1 28
BRANCH 1 32
ATOM     32  N   ASP C 155     -10.001  13.507 -23.379  1.00 36.13 LIG-0.34  N 
ATOM     33 H    ASP C 155      -9.420  13.563 -24.011  1.00 36.13 LIG 0.16  HD
ATOM     34  C   HIS C 154      -9.980  14.261 -22.291  1.00 38.66 LIG 0.24  C 
ATOM     35 O    HIS C 154     -10.841  14.198 -21.418  1.00 35.33 LIG-0.27  OA
BRANCH 34 36
ATOM     36  CA  HIS C 154      -8.836  15.255 -22.180  1.00 42.51 LIG 0.18  C 
BRANCH 36 37
ATOM     37  CB  HIS C 154      -8.427  15.442 -20.718  1.00 45.16 LIG 0.10  C 
BRANCH 37 38
ATOM     38  CG  HIS C 154      -6.945  15.510 -20.517  1.00 48.44 LIG 0.06  A 
ATOM     39 ND1  HIS C 154      -6.067  14.646 -21.139  1.00 50.51 LIG-0.24  NA
ATOM     40  CE1 HIS C 154      -4.832  14.930 -20.765  1.00 51.05 LIG 0.23  A 
ATOM     41 NE2  HIS C 154      -4.877  15.945 -19.921  1.00 50.26 LIG-0.25  NA
ATOM     42  CD2 HIS C 154      -6.186  16.326 -19.747  1.00 50.26 LIG 0.14  A 
ENDBRANCH 37 38
ENDBRANCH 36 37
BRANCH 36 43
ATOM     43  N   HIS C 154      -9.312  16.505 -22.738  1.00 45.99 LIG-0.34  N 
ATOM     44  C   ASP C 153      -9.427  16.700 -24.047  1.00 51.00 LIG 0.26  C 
ATOM     45 O    ASP C 153      -8.968  15.931 -24.894  1.00 50.83 LIG-0.27  OA
ATOM     46 H    HIS C 154      -9.511  17.100 -22.149  1.00 45.99 LIG 0.16  HD
BRANCH 44 47
ATOM     47  CA  ASP C 153     -10.175  17.963 -24.461  1.00 53.77 LIG 0.41  C 
ATOM     48  N   ASP C 153     -10.983  17.767 -25.710  1.00 52.50 LIG 0.61  N 
BRANCH 47 49
ATOM     49  CB  ASP C 153     -11.049  18.423 -23.287  1.00 54.86 LIG 0.16  C 
BRANCH 49 50
ATOM     50  CG  ASP C 153     -12.527  18.357 -23.601  1.00 56.45 LIG 0.17  C 
ATOM     51 OD2  ASP C 153     -13.249  17.590 -22.918  1.00 58.24 LIG-0.65  OA
ATOM     52 OD1  ASP C 153     -12.962  19.072 -24.526  1.00 54.42 LIG-0.65  OA
ENDBRANCH 49 50
ENDBRANCH 47 49
ENDBRANCH 44 47
ENDBRANCH 36 43
ENDBRANCH 34 36
ENDBRANCH 1 32
TORSDOF 19
ENDMDL
MODEL 15
USER: ADFR SOLUTION from run 171
USER: SCORE 17.475449 LL:  -3.873 LR: -16.330 RR:   0.000 FEB: -10.663
USER: RMSD 5.912832
USER: SEED 170
USER: STATUS no improvement in best in 6 clusters for 5 generations
USER: GENES 21
USER: genes 0 Translation |==|  0.45634 0.42241 0.56426
USER: genes 1 Rotation |==|  0.60899 0.95151 0.62002 0.64093
USER: genes 2 Torsion [N]-CA--C-[N] |==|  0.25028
USER: genes 3 Torsion [C]-N--CA-[CB] |==|  0.49181
USER: genes 4 Torsion [N]-CA--C-[N] |==|  0.35927
USER: genes 5 Torsion [C]-N--CA-[CB] |==|  0.42498
USER: genes 6 Torsion [N]-CA--C-[N] |==|  0.82513
USER: genes 7 Torsion [C]-N--CA-[CB] |==|  0.82869
USER: genes 8 Torsion [N]-CA--C-[OXT] |==|  0.79802
USER: genes 9 Torsion [N]-CA--CB-[CG] |==|  0.75063
USER: genes 10 Torsion [CA]-CB--CG-[CD2] |==|  0.99802
USER: genes 11 Torsion [C]-CA--CB-[CG] |==|  0.43789
USER: genes 12 Torsion [CA]-CB--CG-[OD2] |==|  0.91472
USER: genes 13 Torsion [C]-CA--N-[C] |==|  0.67787
USER: genes 14 Torsion [N]-C--CA-[N] |==|  0.42449
USER: genes 15 Torsion [C]-CA--CB-[CG] |==|  0.48695
USER: genes 16 Torsion [CA]-CB--CG-[CD2] |==|  0.40263
USER: genes 17 Torsion [C]-CA--N-[C] |==|  0.66594
USER: genes 18 Torsion [N]-C--CA-[N] |==|  0.96637
USER: genes 19 Torsion [C]-CA--CB-[CG] |==|  0.84536
USER: genes 20 Torsion [CA]-CB--CG-[OD2] |==|  0.37945
ROOT
ATOM      1  CA  ASP C 155     -11.285   8.824 -23.213  1.00 34.31 LIG 0.19  C 
ENDROOT
BRANCH 1 2
ATOM      2  C   ASP C 155     -11.999   8.068 -24.320  1.00 33.42 LIG 0.24  C 
ATOM      3 O    ASP C 155     -13.168   7.691 -24.180  1.00 32.60 LIG-0.27  OA
ATOM      4  N   ALA C 156     -11.293   7.878 -25.431  1.00 30.74 LIG-0.35  N 
ATOM      5 H    ALA C 156     -10.508   8.204 -25.556  1.00 30.74 LIG 0.16  HD
BRANCH 4 6
ATOM      6  CA  ALA C 156     -11.792   7.093 -26.546  1.00 30.13 LIG 0.17  C 
ATOM      7  CB  ALA C 156     -10.798   7.115 -27.696  1.00 30.23 LIG 0.04  C 
BRANCH 6 8
ATOM      8  C   ALA C 156     -12.027   5.671 -26.066  1.00 29.70 LIG 0.24  C 
ATOM      9  N   HIS C 157     -13.223   5.162 -26.348  1.00 30.21 LIG-0.35  N 
ATOM     10 H    HIS C 157     -13.816   5.575 -26.814  1.00 30.21 LIG 0.16  HD
ATOM     11 O    ALA C 156     -11.144   5.056 -25.448  1.00 27.33 LIG-0.27  OA
BRANCH 9 12
ATOM     12  CA  HIS C 157     -13.640   3.842 -25.888  1.00 31.06 LIG 0.18  C 
BRANCH 12 13
ATOM     13  C   HIS C 157     -13.121   2.790 -26.851  1.00 30.33 LIG 0.24  C 
ATOM     14  N   ALA C 158     -13.581   2.853 -28.097  1.00 29.79 LIG-0.34  N 
ATOM     15 H    ALA C 158     -14.112   3.467 -28.382  1.00 29.79 LIG 0.16  HD
ATOM     16 O    HIS C 157     -12.334   1.919 -26.463  1.00 30.67 LIG-0.27  OA
BRANCH 14 17
ATOM     17  CA  ALA C 158     -13.214   1.857 -29.106  1.00 31.13 LIG 0.18  C 
ATOM     18  CB  ALA C 158     -11.710   1.866 -29.353  1.00 30.84 LIG 0.04  C 
BRANCH 17 19
ATOM     19  C   ALA C 158     -13.673   0.464 -28.707  1.00 31.87 LIG 0.20  C 
ATOM     20 OXT  ALA C 158     -13.104  -0.152 -27.802  1.00 33.04 LIG-0.65  OA
ATOM     21 O    ALA C 158     -14.622  -0.067 -29.291  1.00 31.17 LIG-0.65  OA
ENDBRANCH 17 19
ENDBRANCH 14 17
ENDBRANCH 12 13
BRANCH 12 22
ATOM     22  CB  HIS C 157     -15.165   3.784 -25.755  1.00 32.09 LIG 0.10  C 
BRANCH 22 23
ATOM     23  CG  HIS C 157     -15.655   4.191 -24.399  1.00 35.38 LIG 0.06  A 
ATOM     24 ND1  HIS C 157     -16.991   4.168 -24.053  1.00 36.48 LIG-0.24  NA
ATOM     25  CE1 HIS C 157     -17.122   4.544 -22.793  1.00 37.27 LIG 0.23  A 
ATOM     26 NE2  HIS C 157     -15.919   4.800 -22.305  1.00 37.33 LIG-0.25  NA
ATOM     27  CD2 HIS C 157     -14.984   4.582 -23.287  1.00 35.91 LIG 0.14  A 
ENDBRANCH 22 23
ENDBRANCH 12 22
ENDBRANCH 9 12
ENDBRANCH 6 8
ENDBRANCH 4 6
ENDBRANCH 1 2
BRANCH 1 28
ATOM     28  CB  ASP C 155     -11.778   8.333 -21.865  1.00 35.23 LIG 0.15  C 
BRANCH 28 29
ATOM     29  CG  ASP C 155     -10.793   8.603 -20.742  1.00 35.97 LIG 0.17  C 
ATOM     30 OD2  ASP C 155      -9.588   8.608 -21.041  1.00 39.40 LIG-0.65  OA
ATOM     31 OD1  ASP C 155     -11.190   8.809 -19.573  1.00 38.01 LIG-0.65  OA
ENDBRANCH 28 29
ENDBRANCH 1 28
BRANCH 1 32
ATOM     32  N   ASP C 155     -11.524  10.245 -23.351  1.00 36.13 LIG-0.34  N 
ATOM     33 H    ASP C 155     -12.347  10.476 -23.255  1.00 36.13 LIG 0.16  HD
ATOM     34  C   HIS C 154     -10.544  11.099 -23.604  1.00 38.66 LIG 0.24  C 
ATOM     35 O    HIS C 154      -9.368  10.758 -23.697  1.00 35.33 LIG-0.27  OA
BRANCH 34 36
ATOM     36  CA  HIS C 154     -10.939  12.559 -23.745  1.00 42.51 LIG 0.18  C 
BRANCH 36 37
ATOM     37  CB  HIS C 154     -11.352  12.868 -25.184  1.00 45.16 LIG 0.10  C 
BRANCH 37 38
ATOM     38  CG  HIS C 154     -11.861  14.263 -25.374  1.00 48.44 LIG 0.06  A 
ATOM     39 ND1  HIS C 154     -12.615  14.917 -24.422  1.00 50.51 LIG-0.24  NA
ATOM     40  CE1 HIS C 154     -12.935  16.120 -24.865  1.00 51.05 LIG 0.23  A 
ATOM     41 NE2  HIS C 154     -12.418  16.269 -26.070  1.00 50.26 LIG-0.25  NA
ATOM     42  CD2 HIS C 154     -11.743  15.122 -26.414  1.00 50.26 LIG 0.14  A 
ENDBRANCH 37 38
ENDBRANCH 36 37
BRANCH 36 43
ATOM     43  N   HIS C 154      -9.781  13.345 -23.368  1.00 45.99 LIG-0.34  N 
ATOM     44  C   ASP C 153      -9.807  14.212 -22.362  1.00 51.00 LIG 0.26  C 
ATOM     45 O    ASP C 153     -10.842  14.566 -21.793  1.00 50.83 LIG-0.27  OA
ATOM     46 H    HIS C 154      -9.085  13.198 -23.852  1.00 45.99 LIG 0.16  HD
BRANCH 44 47
ATOM     47  CA  ASP C 153      -8.452  14.765 -21.935  1.00 53.77 LIG 0.41  C 
ATOM     48  N   ASP C 153      -7.307  14.009 -22.542  1.00 52.50 LIG 0.61  N 
BRANCH 47 49
ATOM     49  CB  ASP C 153      -8.398  16.257 -22.288  1.00 54.86 LIG 0.16  C 
BRANCH 49 50
ATOM     50  CG  ASP C 153      -8.673  16.519 -23.753  1.00 56.45 LIG 0.17  C 
ATOM     51 OD2  ASP C 153      -9.432  17.472 -24.057  1.00 58.24 LIG-0.65  OA
ATOM     52 OD1  ASP C 153      -8.131  15.772 -24.593  1.00 54.42 LIG-0.65  OA
ENDBRANCH 49 50
ENDBRANCH 47 49
ENDBRANCH 44 47
ENDBRANCH 36 43
ENDBRANCH 34 36
ENDBRANCH 1 32
TORSDOF 19
ENDMDL
MODEL 16
USER: ADFR SOLUTION from run 25
USER: SCORE 16.908405 LL:  -3.504 LR: -16.231 RR:   0.000 FEB: -10.563
USER: RMSD 11.911349
USER: SEED 24
USER: STATUS no improvement in best in 7 clusters for 5 generations
USER: GENES 21
USER: genes 0 Translation |==|  0.47937 0.44133 0.58763
USER: genes 1 Rotation |==|  0.04769 0.58772 0.68788 0.54922
USER: genes 2 Torsion [N]-CA--C-[N] |==|  0.32544
USER: genes 3 Torsion [C]-N--CA-[CB] |==|  0.24378
USER: genes 4 Torsion [N]-CA--C-[N] |==|  0.42201
USER: genes 5 Torsion [C]-N--CA-[CB] |==|  0.48889
USER: genes 6 Torsion [N]-CA--C-[N] |==|  0.89487
USER: genes 7 Torsion [C]-N--CA-[CB] |==|  0.45601
USER: genes 8 Torsion [N]-CA--C-[OXT] |==|  0.00196
USER: genes 9 Torsion [N]-CA--CB-[CG] |==|  0.82411
USER: genes 10 Torsion [CA]-CB--CG-[CD2] |==|  0.07155
USER: genes 11 Torsion [C]-CA--CB-[CG] |==|  0.30599
USER: genes 12 Torsion [CA]-CB--CG-[OD2] |==|  0.41238
USER: genes 13 Torsion [C]-CA--N-[C] |==|  0.63292
USER: genes 14 Torsion [N]-C--CA-[N] |==|  0.46198
USER: genes 15 Torsion [C]-CA--CB-[CG] |==|  0.60493
USER: genes 16 Torsion [CA]-CB--CG-[CD2] |==|  0.75091
USER: genes 17 Torsion [C]-CA--N-[C] |==|  0.74930
USER: genes 18 Torsion [N]-C--CA-[N] |==|  0.17397
USER: genes 19 Torsion [C]-CA--CB-[CG] |==|  0.79173
USER: genes 20 Torsion [CA]-CB--CG-[OD2] |==|  0.98595
ROOT
ATOM      1  CA  ASP C 155     -10.853   9.335 -22.775  1.00 34.31 LIG 0.19  C 
ENDROOT
BRANCH 1 2
ATOM      2  C   ASP C 155     -10.008  10.519 -23.216  1.00 33.42 LIG 0.24  C 
ATOM      3 O    ASP C 155      -8.801  10.387 -23.444  1.00 32.60 LIG-0.27  OA
ATOM      4  N   ALA C 156     -10.665  11.666 -23.361  1.00 30.74 LIG-0.35  N 
ATOM      5 H    ALA C 156     -11.517  11.741 -23.275  1.00 30.74 LIG 0.16  HD
BRANCH 4 6
ATOM      6  CA  ALA C 156      -9.992  12.912 -23.683  1.00 30.13 LIG 0.17  C 
ATOM      7  CB  ALA C 156      -9.862  13.069 -25.190  1.00 30.23 LIG 0.04  C 
BRANCH 6 8
ATOM      8  C   ALA C 156     -10.792  14.059 -23.090  1.00 29.70 LIG 0.24  C 
ATOM      9  N   HIS C 157     -10.089  15.143 -22.775  1.00 30.21 LIG-0.35  N 
ATOM     10 H    HIS C 157      -9.249  15.227 -22.936  1.00 30.21 LIG 0.16  HD
ATOM     11 O    ALA C 156     -12.016  13.955 -22.918  1.00 27.33 LIG-0.27  OA
BRANCH 9 12
ATOM     12  CA  HIS C 157     -10.689  16.301 -22.120  1.00 31.06 LIG 0.18  C 
BRANCH 12 13
ATOM     13  C   HIS C 157     -11.776  16.872 -23.012  1.00 30.33 LIG 0.24  C 
ATOM     14  N   ALA C 158     -11.532  16.862 -24.320  1.00 29.79 LIG-0.34  N 
ATOM     15 H    ALA C 158     -10.826  16.520 -24.673  1.00 29.79 LIG 0.16  HD
ATOM     16 O    HIS C 157     -12.810  17.338 -22.520  1.00 30.67 LIG-0.27  OA
BRANCH 14 17
ATOM     17  CA  ALA C 158     -12.467  17.445 -25.284  1.00 31.13 LIG 0.18  C 
ATOM     18  CB  ALA C 158     -11.793  17.652 -26.635  1.00 30.84 LIG 0.04  C 
BRANCH 17 19
ATOM     19  C   ALA C 158     -13.710  16.584 -25.444  1.00 31.87 LIG 0.20  C 
ATOM     20 OXT  ALA C 158     -13.845  15.543 -24.795  1.00 33.04 LIG-0.65  OA
ATOM     21 O    ALA C 158     -14.598  16.919 -26.233  1.00 31.17 LIG-0.65  OA
ENDBRANCH 17 19
ENDBRANCH 14 17
ENDBRANCH 12 13
BRANCH 12 22
ATOM     22  CB  HIS C 157      -9.615  17.345 -21.798  1.00 32.09 LIG 0.10  C 
BRANCH 22 23
ATOM     23  CG  HIS C 157      -8.588  16.853 -20.825  1.00 35.38 LIG 0.06  A 
ATOM     24 ND1  HIS C 157      -7.909  17.698 -19.970  1.00 36.48 LIG-0.24  NA
ATOM     25  CE1 HIS C 157      -7.096  16.988 -19.208  1.00 37.27 LIG 0.23  A 
ATOM     26 NE2  HIS C 157      -7.230  15.711 -19.530  1.00 37.33 LIG-0.25  NA
ATOM     27  CD2 HIS C 157      -8.160  15.599 -20.535  1.00 35.91 LIG 0.14  A 
ENDBRANCH 22 23
ENDBRANCH 12 22
ENDBRANCH 9 12
ENDBRANCH 6 8
ENDBRANCH 4 6
ENDBRANCH 1 2
BRANCH 1 28
ATOM     28  CB  ASP C 155     -10.306   8.781 -21.472  1.00 35.23 LIG 0.15  C 
BRANCH 28 29
ATOM     29  CG  ASP C 155     -11.222   9.039 -20.290  1.00 35.97 LIG 0.17  C 
ATOM     30 OD2  ASP C 155     -11.222   8.190 -19.384  1.00 39.40 LIG-0.65  OA
ATOM     31 OD1  ASP C 155     -11.940  10.063 -20.243  1.00 38.01 LIG-0.65  OA
ENDBRANCH 28 29
ENDBRANCH 1 28
BRANCH 1 32
ATOM     32  N   ASP C 155     -10.846   8.313 -23.801  1.00 36.13 LIG-0.34  N 
ATOM     33 H    ASP C 155     -10.064   8.122 -24.105  1.00 36.13 LIG 0.16  HD
ATOM     34  C   HIS C 154     -11.961   7.735 -24.221  1.00 38.66 LIG 0.24  C 
ATOM     35 O    HIS C 154     -13.064   7.989 -23.747  1.00 35.33 LIG-0.27  OA
BRANCH 34 36
ATOM     36  CA  HIS C 154     -11.810   6.693 -25.317  1.00 42.51 LIG 0.18  C 
BRANCH 36 37
ATOM     37  CB  HIS C 154     -11.501   7.364 -26.656  1.00 45.16 LIG 0.10  C 
BRANCH 37 38
ATOM     38  CG  HIS C 154     -12.171   6.705 -27.822  1.00 48.44 LIG 0.06  A 
ATOM     39 ND1  HIS C 154     -13.431   7.062 -28.256  1.00 50.51 LIG-0.24  NA
ATOM     40  CE1 HIS C 154     -13.771   6.308 -29.287  1.00 51.05 LIG 0.23  A 
ATOM     41 NE2  HIS C 154     -12.778   5.474 -29.535  1.00 50.26 LIG-0.25  NA
ATOM     42  CD2 HIS C 154     -11.766   5.699 -28.633  1.00 50.26 LIG 0.14  A 
ENDBRANCH 37 38
ENDBRANCH 36 37
BRANCH 36 43
ATOM     43  N   HIS C 154     -13.066   5.974 -25.386  1.00 45.99 LIG-0.34  N 
ATOM     44  C   ASP C 153     -13.299   4.880 -24.669  1.00 51.00 LIG 0.26  C 
ATOM     45 O    ASP C 153     -12.425   4.276 -24.043  1.00 50.83 LIG-0.27  OA
ATOM     46 H    HIS C 154     -13.639   6.318 -25.928  1.00 45.99 LIG 0.16  HD
BRANCH 44 47
ATOM     47  CA  ASP C 153     -14.744   4.392 -24.663  1.00 53.77 LIG 0.41  C 
ATOM     48  N   ASP C 153     -15.221   3.996 -26.030  1.00 52.50 LIG 0.61  N 
BRANCH 47 49
ATOM     49  CB  ASP C 153     -14.867   3.236 -23.662  1.00 54.86 LIG 0.16  C 
BRANCH 49 50
ATOM     50  CG  ASP C 153     -14.269   1.948 -24.184  1.00 56.45 LIG 0.17  C 
ATOM     51 OD2  ASP C 153     -13.842   1.922 -25.364  1.00 58.24 LIG-0.65  OA
ATOM     52 OD1  ASP C 153     -14.227   0.967 -23.414  1.00 54.42 LIG-0.65  OA
ENDBRANCH 49 50
ENDBRANCH 47 49
ENDBRANCH 44 47
ENDBRANCH 36 43
ENDBRANCH 34 36
ENDBRANCH 1 32
TORSDOF 19
ENDMDL
MODEL 17
USER: ADFR SOLUTION from run 16
USER: SCORE 16.448317 LL:  -3.829 LR: -16.143 RR:   0.000 FEB: -10.475
USER: RMSD 2.043482
USER: SEED 827729
USER: STATUS no improvement in best in 9 clusters for 5 generations
USER: GENES 21
USER: genes 0 Translation |==|  0.47926 0.55830 0.54959
USER: genes 1 Rotation |==|  0.48830 0.51126 0.49665 0.99972
USER: genes 2 Torsion [N]-CA--C-[N] |==|  0.44112
USER: genes 3 Torsion [C]-N--CA-[CB] |==|  0.27689
USER: genes 4 Torsion [N]-CA--C-[N] |==|  0.36243
USER: genes 5 Torsion [C]-N--CA-[CB] |==|  0.41947
USER: genes 6 Torsion [N]-CA--C-[N] |==|  0.32992
USER: genes 7 Torsion [C]-N--CA-[CB] |==|  0.47502
USER: genes 8 Torsion [N]-CA--C-[OXT] |==|  0.96787
USER: genes 9 Torsion [N]-CA--CB-[CG] |==|  0.85348
USER: genes 10 Torsion [CA]-CB--CG-[CD2] |==|  0.86457
USER: genes 11 Torsion [C]-CA--CB-[CG] |==|  0.45353
USER: genes 12 Torsion [CA]-CB--CG-[OD2] |==|  0.78275
USER: genes 13 Torsion [C]-CA--N-[C] |==|  0.64129
USER: genes 14 Torsion [N]-C--CA-[N] |==|  0.49444
USER: genes 15 Torsion [C]-CA--CB-[CG] |==|  0.56462
USER: genes 16 Torsion [CA]-CB--CG-[CD2] |==|  0.19611
USER: genes 17 Torsion [C]-CA--N-[C] |==|  0.77315
USER: genes 18 Torsion [N]-C--CA-[N] |==|  0.89959
USER: genes 19 Torsion [C]-CA--CB-[CG] |==|  0.68779
USER: genes 20 Torsion [CA]-CB--CG-[OD2] |==|  0.63529
ROOT
ATOM      1  CA  ASP C 155     -10.855  12.493 -23.488  1.00 34.31 LIG 0.19  C 
ENDROOT
BRANCH 1 2
ATOM      2  C   ASP C 155     -10.286  11.095 -23.319  1.00 33.42 LIG 0.24  C 
ATOM      3 O    ASP C 155      -9.066  10.900 -23.328  1.00 32.60 LIG-0.27  OA
ATOM      4  N   ALA C 156     -11.184  10.131 -23.134  1.00 30.74 LIG-0.35  N 
ATOM      5 H    ALA C 156     -12.027  10.276 -23.053  1.00 30.74 LIG 0.16  HD
BRANCH 4 6
ATOM      6  CA  ALA C 156     -10.814   8.729 -23.051  1.00 30.13 LIG 0.17  C 
ATOM      7  CB  ALA C 156     -10.756   8.282 -21.599  1.00 30.23 LIG 0.04  C 
BRANCH 6 8
ATOM      8  C   ALA C 156     -11.839   7.915 -23.823  1.00 29.70 LIG 0.24  C 
ATOM      9  N   HIS C 157     -11.338   7.043 -24.692  1.00 30.21 LIG-0.35  N 
ATOM     10 H    HIS C 157     -10.495   6.898 -24.788  1.00 30.21 LIG 0.16  HD
ATOM     11 O    ALA C 156     -13.053   8.083 -23.636  1.00 27.33 LIG-0.27  OA
BRANCH 9 12
ATOM     12  CA  HIS C 157     -12.182   6.242 -25.573  1.00 31.06 LIG 0.18  C 
BRANCH 12 13
ATOM     13  C   HIS C 157     -12.618   4.986 -24.841  1.00 30.33 LIG 0.24  C 
ATOM     14  N   ALA C 158     -13.927   4.831 -24.663  1.00 29.79 LIG-0.34  N 
ATOM     15 H    ALA C 158     -14.520   5.373 -24.971  1.00 29.79 LIG 0.16  HD
ATOM     16 O    HIS C 157     -11.778   4.182 -24.420  1.00 30.67 LIG-0.27  OA
BRANCH 14 17
ATOM     17  CA  ALA C 158     -14.476   3.699 -23.913  1.00 31.13 LIG 0.18  C 
ATOM     18  CB  ALA C 158     -15.970   3.881 -23.675  1.00 30.84 LIG 0.04  C 
BRANCH 17 19
ATOM     19  C   ALA C 158     -14.214   2.381 -24.624  1.00 31.87 LIG 0.20  C 
ATOM     20 OXT  ALA C 158     -13.801   2.362 -25.787  1.00 33.04 LIG-0.65  OA
ATOM     21 O    ALA C 158     -14.418   1.312 -24.042  1.00 31.17 LIG-0.65  OA
ENDBRANCH 17 19
ENDBRANCH 14 17
ENDBRANCH 12 13
BRANCH 12 22
ATOM     22  CB  HIS C 157     -11.436   5.911 -26.869  1.00 32.09 LIG 0.10  C 
BRANCH 22 23
ATOM     23  CG  HIS C 157     -10.875   7.121 -27.551  1.00 35.38 LIG 0.06  A 
ATOM     24 ND1  HIS C 157      -9.587   7.165 -28.047  1.00 36.48 LIG-0.24  NA
ATOM     25  CE1 HIS C 157      -9.380   8.337 -28.622  1.00 37.27 LIG 0.23  A 
ATOM     26 NE2  HIS C 157     -10.490   9.051 -28.527  1.00 37.33 LIG-0.25  NA
ATOM     27  CD2 HIS C 157     -11.441   8.312 -27.866  1.00 35.91 LIG 0.14  A 
ENDBRANCH 22 23
ENDBRANCH 12 22
ENDBRANCH 9 12
ENDBRANCH 6 8
ENDBRANCH 4 6
ENDBRANCH 1 2
BRANCH 1 28
ATOM     28  CB  ASP C 155     -11.353  12.668 -24.911  1.00 35.23 LIG 0.15  C 
BRANCH 28 29
ATOM     29  CG  ASP C 155     -12.287  13.854 -25.068  1.00 35.97 LIG 0.17  C 
ATOM     30 OD2  ASP C 155     -13.458  13.701 -24.686  1.00 39.40 LIG-0.65  OA
ATOM     31 OD1  ASP C 155     -11.882  14.930 -25.561  1.00 38.01 LIG-0.65  OA
ENDBRANCH 28 29
ENDBRANCH 1 28
BRANCH 1 32
ATOM     32  N   ASP C 155      -9.840  13.480 -23.184  1.00 36.13 LIG-0.34  N 
ATOM     33 H    ASP C 155      -9.094  13.359 -23.596  1.00 36.13 LIG 0.16  HD
ATOM     34  C   HIS C 154     -10.062  14.476 -22.341  1.00 38.66 LIG 0.24  C 
ATOM     35 O    HIS C 154     -11.145  14.658 -21.793  1.00 35.33 LIG-0.27  OA
BRANCH 34 36
ATOM     36  CA  HIS C 154      -8.902  15.427 -22.098  1.00 42.51 LIG 0.18  C 
BRANCH 36 37
ATOM     37  CB  HIS C 154      -7.715  14.682 -21.486  1.00 45.16 LIG 0.10  C 
BRANCH 37 38
ATOM     38  CG  HIS C 154      -6.781  15.571 -20.724  1.00 48.44 LIG 0.06  A 
ATOM     39 ND1  HIS C 154      -5.506  15.862 -21.164  1.00 50.51 LIG-0.24  NA
ATOM     40  CE1 HIS C 154      -4.909  16.652 -20.288  1.00 51.05 LIG 0.23  A 
ATOM     41 NE2  HIS C 154      -5.750  16.880 -19.296  1.00 50.26 LIG-0.25  NA
ATOM     42  CD2 HIS C 154      -6.926  16.215 -19.543  1.00 50.26 LIG 0.14  A 
ENDBRANCH 37 38
ENDBRANCH 36 37
BRANCH 36 43
ATOM     43  N   HIS C 154      -9.383  16.451 -21.191  1.00 45.99 LIG-0.34  N 
ATOM     44  C   ASP C 153     -10.088  17.496 -21.609  1.00 51.00 LIG 0.26  C 
ATOM     45 O    ASP C 153     -10.230  17.792 -22.798  1.00 50.83 LIG-0.27  OA
ATOM     46 H    HIS C 154      -9.171  16.318 -20.368  1.00 45.99 LIG 0.16  HD
BRANCH 44 47
ATOM     47  CA  ASP C 153     -10.729  18.338 -20.512  1.00 53.77 LIG 0.41  C 
ATOM     48  N   ASP C 153     -11.208  17.508 -19.358  1.00 52.50 LIG 0.61  N 
BRANCH 47 49
ATOM     49  CB  ASP C 153      -9.725  19.408 -20.064  1.00 54.86 LIG 0.16  C 
BRANCH 49 50
ATOM     50  CG  ASP C 153      -9.234  19.189 -18.649  1.00 56.45 LIG 0.17  C 
ATOM     51 OD2  ASP C 153      -9.245  20.161 -17.855  1.00 58.24 LIG-0.65  OA
ATOM     52 OD1  ASP C 153      -8.840  18.047 -18.337  1.00 54.42 LIG-0.65  OA
ENDBRANCH 49 50
ENDBRANCH 47 49
ENDBRANCH 44 47
ENDBRANCH 36 43
ENDBRANCH 34 36
ENDBRANCH 1 32
TORSDOF 19
ENDMDL
MODEL 18
USER: ADFR SOLUTION from run 170
USER: SCORE 18.547335 LL:  -4.385 LR: -16.110 RR:   0.000 FEB: -10.443
USER: RMSD 7.313802
USER: SEED 169
USER: STATUS no improvement in best in 2 clusters for 5 generations
USER: GENES 21
USER: genes 0 Translation |==|  0.50882 0.53677 0.45681
USER: genes 1 Rotation |==|  0.32460 0.83591 0.29631 0.75477
USER: genes 2 Torsion [N]-CA--C-[N] |==|  0.88444
USER: genes 3 Torsion [C]-N--CA-[CB] |==|  0.15442
USER: genes 4 Torsion [N]-CA--C-[N] |==|  0.23287
USER: genes 5 Torsion [C]-N--CA-[CB] |==|  0.49444
USER: genes 6 Torsion [N]-CA--C-[N] |==|  0.33342
USER: genes 7 Torsion [C]-N--CA-[CB] |==|  0.47142
USER: genes 8 Torsion [N]-CA--C-[OXT] |==|  0.94695
USER: genes 9 Torsion [N]-CA--CB-[CG] |==|  0.40849
USER: genes 10 Torsion [CA]-CB--CG-[CD2] |==|  0.74592
USER: genes 11 Torsion [C]-CA--CB-[CG] |==|  0.25301
USER: genes 12 Torsion [CA]-CB--CG-[OD2] |==|  0.32071
USER: genes 13 Torsion [C]-CA--N-[C] |==|  0.80682
USER: genes 14 Torsion [N]-C--CA-[N] |==|  0.35264
USER: genes 15 Torsion [C]-CA--CB-[CG] |==|  0.31362
USER: genes 16 Torsion [CA]-CB--CG-[CD2] |==|  0.39074
USER: genes 17 Torsion [C]-CA--N-[C] |==|  0.80501
USER: genes 18 Torsion [N]-C--CA-[N] |==|  0.16559
USER: genes 19 Torsion [C]-CA--CB-[CG] |==|  0.66570
USER: genes 20 Torsion [CA]-CB--CG-[OD2] |==|  0.81387
ROOT
ATOM      1  CA  ASP C 155     -10.301  11.912 -25.228  1.00 34.31 LIG 0.19  C 
ENDROOT
BRANCH 1 2
ATOM      2  C   ASP C 155     -10.232  10.782 -24.214  1.00 33.42 LIG 0.24  C 
ATOM      3 O    ASP C 155      -9.594  10.910 -23.164  1.00 32.60 LIG-0.27  OA
ATOM      4  N   ALA C 156     -10.921   9.689 -24.529  1.00 30.74 LIG-0.35  N 
ATOM      5 H    ALA C 156     -11.425   9.628 -25.223  1.00 30.74 LIG 0.16  HD
BRANCH 4 6
ATOM      6  CA  ALA C 156     -10.885   8.486 -23.717  1.00 30.13 LIG 0.17  C 
ATOM      7  CB  ALA C 156     -11.277   8.803 -22.283  1.00 30.23 LIG 0.04  C 
BRANCH 6 8
ATOM      8  C   ALA C 156     -11.837   7.468 -24.322  1.00 29.70 LIG 0.24  C 
ATOM      9  N   HIS C 157     -11.338   6.741 -25.317  1.00 30.21 LIG-0.35  N 
ATOM     10 H    HIS C 157     -10.521   6.793 -25.581  1.00 30.21 LIG 0.16  HD
ATOM     11 O    ALA C 156     -12.996   7.354 -23.897  1.00 27.33 LIG-0.27  OA
BRANCH 9 12
ATOM     12  CA  HIS C 157     -12.143   5.778 -26.062  1.00 31.06 LIG 0.18  C 
BRANCH 12 13
ATOM     13  C   HIS C 157     -12.694   4.739 -25.103  1.00 30.33 LIG 0.24  C 
ATOM     14  N   ALA C 158     -14.019   4.645 -25.033  1.00 29.79 LIG-0.34  N 
ATOM     15 H    ALA C 158     -14.559   5.104 -25.522  1.00 29.79 LIG 0.16  HD
ATOM     16 O    HIS C 157     -11.930   4.052 -24.417  1.00 30.67 LIG-0.27  OA
BRANCH 14 17
ATOM     17  CA  ALA C 158     -14.680   3.733 -24.098  1.00 31.13 LIG 0.18  C 
ATOM     18  CB  ALA C 158     -16.179   4.004 -24.045  1.00 30.84 LIG 0.04  C 
BRANCH 17 19
ATOM     19  C   ALA C 158     -14.422   2.279 -24.462  1.00 31.87 LIG 0.20  C 
ATOM     20 OXT  ALA C 158     -14.045   1.970 -25.596  1.00 33.04 LIG-0.65  OA
ATOM     21 O    ALA C 158     -14.591   1.391 -23.623  1.00 31.17 LIG-0.65  OA
ENDBRANCH 17 19
ENDBRANCH 14 17
ENDBRANCH 12 13
BRANCH 12 22
ATOM     22  CB  HIS C 157     -11.309   5.135 -27.174  1.00 32.09 LIG 0.10  C 
BRANCH 22 23
ATOM     23  CG  HIS C 157     -11.688   3.713 -27.449  1.00 35.38 LIG 0.06  A 
ATOM     24 ND1  HIS C 157     -12.631   3.364 -28.395  1.00 36.48 LIG-0.24  NA
ATOM     25  CE1 HIS C 157     -12.735   2.047 -28.443  1.00 37.27 LIG 0.23  A 
ATOM     26 NE2  HIS C 157     -11.886   1.528 -27.571  1.00 37.33 LIG-0.25  NA
ATOM     27  CD2 HIS C 157     -11.216   2.547 -26.939  1.00 35.91 LIG 0.14  A 
ENDBRANCH 22 23
ENDBRANCH 12 22
ENDBRANCH 9 12
ENDBRANCH 6 8
ENDBRANCH 4 6
ENDBRANCH 1 2
BRANCH 1 28
ATOM     28  CB  ASP C 155     -11.603  12.671 -25.053  1.00 35.23 LIG 0.15  C 
BRANCH 28 29
ATOM     29  CG  ASP C 155     -11.481  13.839 -24.092  1.00 35.97 LIG 0.17  C 
ATOM     30 OD2  ASP C 155     -11.648  14.975 -24.565  1.00 39.40 LIG-0.65  OA
ATOM     31 OD1  ASP C 155     -11.223  13.653 -22.882  1.00 38.01 LIG-0.65  OA
ENDBRANCH 28 29
ENDBRANCH 1 28
BRANCH 1 32
ATOM     32  N   ASP C 155     -10.204  11.378 -26.570  1.00 36.13 LIG-0.34  N 
ATOM     33 H    ASP C 155     -10.931  11.433 -27.026  1.00 36.13 LIG 0.16  HD
ATOM     34  C   HIS C 154      -9.081  10.853 -27.036  1.00 38.66 LIG 0.24  C 
ATOM     35 O    HIS C 154      -8.040  10.820 -26.386  1.00 35.33 LIG-0.27  OA
BRANCH 34 36
ATOM     36  CA  HIS C 154      -9.126  10.311 -28.455  1.00 42.51 LIG 0.18  C 
BRANCH 36 37
ATOM     37  CB  HIS C 154      -8.971   8.790 -28.454  1.00 45.16 LIG 0.10  C 
BRANCH 37 38
ATOM     38  CG  HIS C 154     -10.203   8.063 -28.898  1.00 48.44 LIG 0.06  A 
ATOM     39 ND1  HIS C 154     -11.472   8.449 -28.519  1.00 50.51 LIG-0.24  NA
ATOM     40  CE1 HIS C 154     -12.357   7.620 -29.044  1.00 51.05 LIG 0.23  A 
ATOM     41 NE2  HIS C 154     -11.708   6.710 -29.747  1.00 50.26 LIG-0.25  NA
ATOM     42  CD2 HIS C 154     -10.359   6.963 -29.671  1.00 50.26 LIG 0.14  A 
ENDBRANCH 37 38
ENDBRANCH 36 37
BRANCH 36 43
ATOM     43  N   HIS C 154      -8.034  10.934 -29.176  1.00 45.99 LIG-0.34  N 
ATOM     44  C   ASP C 153      -8.038  12.223 -29.498  1.00 51.00 LIG 0.26  C 
ATOM     45 O    ASP C 153      -9.029  12.949 -29.391  1.00 50.83 LIG-0.27  OA
ATOM     46 H    HIS C 154      -7.391  10.396 -29.372  1.00 45.99 LIG 0.16  HD
BRANCH 44 47
ATOM     47  CA  ASP C 153      -6.717  12.774 -30.024  1.00 53.77 LIG 0.41  C 
ATOM     48  N   ASP C 153      -6.256  12.068 -31.265  1.00 52.50 LIG 0.61  N 
BRANCH 47 49
ATOM     49  CB  ASP C 153      -6.872  14.283 -30.254  1.00 54.86 LIG 0.16  C 
BRANCH 49 50
ATOM     50  CG  ASP C 153      -6.625  14.681 -31.692  1.00 56.45 LIG 0.17  C 
ATOM     51 OD2  ASP C 153      -5.465  14.559 -32.155  1.00 58.24 LIG-0.65  OA
ATOM     52 OD1  ASP C 153      -7.591  15.114 -32.354  1.00 54.42 LIG-0.65  OA
ENDBRANCH 49 50
ENDBRANCH 47 49
ENDBRANCH 44 47
ENDBRANCH 36 43
ENDBRANCH 34 36
ENDBRANCH 1 32
TORSDOF 19
ENDMDL
MODEL 19
USER: ADFR SOLUTION from run 50
USER: SCORE 17.432389 LL:  -4.875 LR: -16.036 RR:   0.000 FEB: -10.368
USER: RMSD 2.289075
USER: SEED 49
USER: STATUS no improvement in best in 7 clusters for 5 generations
USER: GENES 21
USER: genes 0 Translation |==|  0.45700 0.55297 0.47831
USER: genes 1 Rotation |==|  0.47172 0.42969 0.51879 0.99387
USER: genes 2 Torsion [N]-CA--C-[N] |==|  0.33985
USER: genes 3 Torsion [C]-N--CA-[CB] |==|  0.34427
USER: genes 4 Torsion [N]-CA--C-[N] |==|  0.29507
USER: genes 5 Torsion [C]-N--CA-[CB] |==|  0.46301
USER: genes 6 Torsion [N]-CA--C-[N] |==|  0.29558
USER: genes 7 Torsion [C]-N--CA-[CB] |==|  0.45718
USER: genes 8 Torsion [N]-CA--C-[OXT] |==|  0.99793
USER: genes 9 Torsion [N]-CA--CB-[CG] |==|  0.87318
USER: genes 10 Torsion [CA]-CB--CG-[CD2] |==|  0.43203
USER: genes 11 Torsion [C]-CA--CB-[CG] |==|  0.49540
USER: genes 12 Torsion [CA]-CB--CG-[OD2] |==|  0.99495
USER: genes 13 Torsion [C]-CA--N-[C] |==|  0.80780
USER: genes 14 Torsion [N]-C--CA-[N] |==|  0.17621
USER: genes 15 Torsion [C]-CA--CB-[CG] |==|  0.71454
USER: genes 16 Torsion [CA]-CB--CG-[CD2] |==|  0.69361
USER: genes 17 Torsion [C]-CA--N-[C] |==|  0.78333
USER: genes 18 Torsion [N]-C--CA-[N] |==|  0.66524
USER: genes 19 Torsion [C]-CA--CB-[CG] |==|  0.67897
USER: genes 20 Torsion [CA]-CB--CG-[OD2] |==|  0.34319
ROOT
ATOM      1  CA  ASP C 155     -11.272  12.349 -24.825  1.00 34.31 LIG 0.19  C 
ENDROOT
BRANCH 1 2
ATOM      2  C   ASP C 155     -10.671  11.030 -24.371  1.00 33.42 LIG 0.24  C 
ATOM      3 O    ASP C 155      -9.490  10.755 -24.608  1.00 32.60 LIG-0.27  OA
ATOM      4  N   ALA C 156     -11.490  10.232 -23.690  1.00 30.74 LIG-0.35  N 
ATOM      5 H    ALA C 156     -12.288  10.455 -23.462  1.00 30.74 LIG 0.16  HD
BRANCH 4 6
ATOM      6  CA  ALA C 156     -11.104   8.898 -23.268  1.00 30.13 LIG 0.17  C 
ATOM      7  CB  ALA C 156     -11.263   8.752 -21.763  1.00 30.23 LIG 0.04  C 
BRANCH 6 8
ATOM      8  C   ALA C 156     -11.973   7.891 -24.001  1.00 29.70 LIG 0.24  C 
ATOM      9  N   HIS C 157     -11.369   7.215 -24.974  1.00 30.21 LIG-0.35  N 
ATOM     10 H    HIS C 157     -10.533   7.291 -25.156  1.00 30.21 LIG 0.16  HD
ATOM     11 O    ALA C 156     -13.165   7.739 -23.692  1.00 27.33 LIG-0.27  OA
BRANCH 9 12
ATOM     12  CA  HIS C 157     -12.081   6.271 -25.829  1.00 31.06 LIG 0.18  C 
BRANCH 12 13
ATOM     13  C   HIS C 157     -12.456   5.045 -25.017  1.00 30.33 LIG 0.24  C 
ATOM     14  N   ALA C 158     -13.740   4.924 -24.690  1.00 29.79 LIG-0.34  N 
ATOM     15 H    ALA C 158     -14.353   5.472 -24.945  1.00 29.79 LIG 0.16  HD
ATOM     16 O    HIS C 157     -11.590   4.234 -24.670  1.00 30.67 LIG-0.27  OA
BRANCH 14 17
ATOM     17  CA  ALA C 158     -14.223   3.826 -23.851  1.00 31.13 LIG 0.18  C 
ATOM     18  CB  ALA C 158     -15.621   4.123 -23.322  1.00 30.84 LIG 0.04  C 
BRANCH 17 19
ATOM     19  C   ALA C 158     -14.216   2.505 -24.605  1.00 31.87 LIG 0.20  C 
ATOM     20 OXT  ALA C 158     -13.848   2.452 -25.781  1.00 33.04 LIG-0.65  OA
ATOM     21 O    ALA C 158     -14.583   1.470 -24.043  1.00 31.17 LIG-0.65  OA
ENDBRANCH 17 19
ENDBRANCH 14 17
ENDBRANCH 12 13
BRANCH 12 22
ATOM     22  CB  HIS C 157     -11.223   5.904 -27.044  1.00 32.09 LIG 0.10  C 
BRANCH 22 23
ATOM     23  CG  HIS C 157     -10.584   7.092 -27.696  1.00 35.38 LIG 0.06  A 
ATOM     24 ND1  HIS C 157     -11.069   8.375 -27.542  1.00 36.48 LIG-0.24  NA
ATOM     25  CE1 HIS C 157     -10.291   9.218 -28.199  1.00 37.27 LIG 0.23  A 
ATOM     26 NE2  HIS C 157      -9.312   8.530 -28.764  1.00 37.33 LIG-0.25  NA
ATOM     27  CD2 HIS C 157      -9.469   7.199 -28.461  1.00 35.91 LIG 0.14  A 
ENDBRANCH 22 23
ENDBRANCH 12 22
ENDBRANCH 9 12
ENDBRANCH 6 8
ENDBRANCH 4 6
ENDBRANCH 1 2
BRANCH 1 28
ATOM     28  CB  ASP C 155     -11.300  12.397 -26.341  1.00 35.23 LIG 0.15  C 
BRANCH 28 29
ATOM     29  CG  ASP C 155     -11.925  13.671 -26.880  1.00 35.97 LIG 0.17  C 
ATOM     30 OD2  ASP C 155     -12.358  14.481 -26.044  1.00 39.40 LIG-0.65  OA
ATOM     31 OD1  ASP C 155     -11.996  13.883 -28.111  1.00 38.01 LIG-0.65  OA
ENDBRANCH 28 29
ENDBRANCH 1 28
BRANCH 1 32
ATOM     32  N   ASP C 155     -10.497  13.453 -24.298  1.00 36.13 LIG-0.34  N 
ATOM     33 H    ASP C 155     -10.055  13.890 -24.893  1.00 36.13 LIG 0.16  HD
ATOM     34  C   HIS C 154     -10.483  13.747 -23.007  1.00 38.66 LIG 0.24  C 
ATOM     35 O    HIS C 154     -11.153  13.138 -22.177  1.00 35.33 LIG-0.27  OA
BRANCH 34 36
ATOM     36  CA  HIS C 154      -9.610  14.918 -22.590  1.00 42.51 LIG 0.18  C 
BRANCH 36 37
ATOM     37  CB  HIS C 154      -9.620  15.080 -21.070  1.00 45.16 LIG 0.10  C 
BRANCH 37 38
ATOM     38  CG  HIS C 154     -10.492  16.202 -20.595  1.00 48.44 LIG 0.06  A 
ATOM     39 ND1  HIS C 154     -11.867  16.170 -20.694  1.00 50.51 LIG-0.24  NA
ATOM     40  CE1 HIS C 154     -12.369  17.294 -20.213  1.00 51.05 LIG 0.23  A 
ATOM     41 NE2  HIS C 154     -11.368  18.054 -19.807  1.00 50.26 LIG-0.25  NA
ATOM     42  CD2 HIS C 154     -10.183  17.397 -20.037  1.00 50.26 LIG 0.14  A 
ENDBRANCH 37 38
ENDBRANCH 36 37
BRANCH 36 43
ATOM     43  N   HIS C 154     -10.156  16.097 -23.232  1.00 45.99 LIG-0.34  N 
ATOM     44  C   ASP C 153      -9.943  16.371 -24.514  1.00 51.00 LIG 0.26  C 
ATOM     45 O    ASP C 153      -9.123  15.772 -25.213  1.00 50.83 LIG-0.27  OA
ATOM     46 H    HIS C 154     -10.625  16.595 -22.710  1.00 45.99 LIG 0.16  HD
BRANCH 44 47
ATOM     47  CA  ASP C 153     -10.787  17.501 -25.095  1.00 53.77 LIG 0.41  C 
ATOM     48  N   ASP C 153     -11.635  17.048 -26.247  1.00 52.50 LIG 0.61  N 
BRANCH 47 49
ATOM     49  CB  ASP C 153     -11.636  18.108 -23.970  1.00 54.86 LIG 0.16  C 
BRANCH 49 50
ATOM     50  CG  ASP C 153     -13.120  17.909 -24.188  1.00 56.45 LIG 0.17  C 
ATOM     51 OD2  ASP C 153     -13.783  17.329 -23.293  1.00 58.24 LIG-0.65  OA
ATOM     52 OD1  ASP C 153     -13.617  18.333 -25.251  1.00 54.42 LIG-0.65  OA
ENDBRANCH 49 50
ENDBRANCH 47 49
ENDBRANCH 44 47
ENDBRANCH 36 43
ENDBRANCH 34 36
ENDBRANCH 1 32
TORSDOF 19
ENDMDL
MODEL 20
USER: ADFR SOLUTION from run 22
USER: SCORE 16.419449 LL:  -3.538 LR: -16.016 RR:   0.000 FEB: -10.348
USER: RMSD 5.648995
USER: SEED 21
USER: STATUS no improvement in best in 5 clusters for 5 generations
USER: GENES 21
USER: genes 0 Translation |==|  0.49501 0.44217 0.54301
USER: genes 1 Rotation |==|  0.40385 0.02165 0.39081 0.50351
USER: genes 2 Torsion [N]-CA--C-[N] |==|  0.34838
USER: genes 3 Torsion [C]-N--CA-[CB] |==|  0.41134
USER: genes 4 Torsion [N]-CA--C-[N] |==|  0.60886
USER: genes 5 Torsion [C]-N--CA-[CB] |==|  0.14059
USER: genes 6 Torsion [N]-CA--C-[N] |==|  0.90349
USER: genes 7 Torsion [C]-N--CA-[CB] |==|  0.84712
USER: genes 8 Torsion [N]-CA--C-[OXT] |==|  0.90024
USER: genes 9 Torsion [N]-CA--CB-[CG] |==|  0.12787
USER: genes 10 Torsion [CA]-CB--CG-[CD2] |==|  0.56331
USER: genes 11 Torsion [C]-CA--CB-[CG] |==|  0.79080
USER: genes 12 Torsion [CA]-CB--CG-[OD2] |==|  0.36659
USER: genes 13 Torsion [C]-CA--N-[C] |==|  0.60558
USER: genes 14 Torsion [N]-C--CA-[N] |==|  0.43917
USER: genes 15 Torsion [C]-CA--CB-[CG] |==|  0.53357
USER: genes 16 Torsion [CA]-CB--CG-[CD2] |==|  0.20340
USER: genes 17 Torsion [C]-CA--N-[C] |==|  0.64917
USER: genes 18 Torsion [N]-C--CA-[N] |==|  0.31490
USER: genes 19 Torsion [C]-CA--CB-[CG] |==|  0.60126
USER: genes 20 Torsion [CA]-CB--CG-[OD2] |==|  0.67833
ROOT
ATOM      1  CA  ASP C 155     -10.560   9.358 -23.612  1.00 34.31 LIG 0.19  C 
ENDROOT
BRANCH 1 2
ATOM      2  C   ASP C 155     -11.607   8.463 -24.253  1.00 33.42 LIG 0.24  C 
ATOM      3 O    ASP C 155     -12.746   8.381 -23.781  1.00 32.60 LIG-0.27  OA
ATOM      4  N   ALA C 156     -11.215   7.819 -25.349  1.00 30.74 LIG-0.35  N 
ATOM      5 H    ALA C 156     -10.448   7.934 -25.718  1.00 30.74 LIG 0.16  HD
BRANCH 4 6
ATOM      6  CA  ALA C 156     -12.060   6.853 -26.028  1.00 30.13 LIG 0.17  C 
ATOM      7  CB  ALA C 156     -11.787   6.870 -27.523  1.00 30.23 LIG 0.04  C 
BRANCH 6 8
ATOM      8  C   ALA C 156     -11.783   5.478 -25.446  1.00 29.70 LIG 0.24  C 
ATOM      9  N   HIS C 157     -11.764   4.479 -26.324  1.00 30.21 LIG-0.35  N 
ATOM     10 H    HIS C 157     -11.849   4.591 -27.172  1.00 30.21 LIG 0.16  HD
ATOM     11 O    ALA C 156     -11.597   5.330 -24.228  1.00 27.33 LIG-0.27  OA
BRANCH 9 12
ATOM     12  CA  HIS C 157     -11.594   3.087 -25.921  1.00 31.06 LIG 0.18  C 
BRANCH 12 13
ATOM     13  C   HIS C 157     -11.772   2.191 -27.133  1.00 30.33 LIG 0.24  C 
ATOM     14  N   ALA C 158     -12.668   2.588 -28.033  1.00 29.79 LIG-0.34  N 
ATOM     15 H    ALA C 158     -13.107   3.326 -27.979  1.00 29.79 LIG 0.16  HD
ATOM     16 O    HIS C 157     -11.126   1.143 -27.239  1.00 30.67 LIG-0.27  OA
BRANCH 14 17
ATOM     17  CA  ALA C 158     -12.987   1.782 -29.212  1.00 31.13 LIG 0.18  C 
ATOM     18  CB  ALA C 158     -11.726   1.462 -30.006  1.00 30.84 LIG 0.04  C 
BRANCH 17 19
ATOM     19  C   ALA C 158     -13.708   0.498 -28.831  1.00 31.87 LIG 0.20  C 
ATOM     20 OXT  ALA C 158     -13.419  -0.103 -27.793  1.00 33.04 LIG-0.65  OA
ATOM     21 O    ALA C 158     -14.590   0.043 -29.564  1.00 31.17 LIG-0.65  OA
ENDBRANCH 17 19
ENDBRANCH 14 17
ENDBRANCH 12 13
BRANCH 12 22
ATOM     22  CB  HIS C 157     -12.581   2.732 -24.805  1.00 32.09 LIG 0.10  C 
BRANCH 22 23
ATOM     23  CG  HIS C 157     -13.974   3.209 -25.076  1.00 35.38 LIG 0.06  A 
ATOM     24 ND1  HIS C 157     -14.454   3.417 -26.354  1.00 36.48 LIG-0.24  NA
ATOM     25  CE1 HIS C 157     -15.717   3.801 -26.289  1.00 37.27 LIG 0.23  A 
ATOM     26 NE2  HIS C 157     -16.078   3.840 -25.017  1.00 37.33 LIG-0.25  NA
ATOM     27  CD2 HIS C 157     -15.009   3.469 -24.238  1.00 35.91 LIG 0.14  A 
ENDBRANCH 22 23
ENDBRANCH 12 22
ENDBRANCH 9 12
ENDBRANCH 6 8
ENDBRANCH 4 6
ENDBRANCH 1 2
BRANCH 1 28
ATOM     28  CB  ASP C 155     -10.169   8.790 -22.259  1.00 35.23 LIG 0.15  C 
BRANCH 28 29
ATOM     29  CG  ASP C 155     -11.223   9.027 -21.193  1.00 35.97 LIG 0.17  C 
ATOM     30 OD2  ASP C 155     -11.547   8.050 -20.499  1.00 39.40 LIG-0.65  OA
ATOM     31 OD1  ASP C 155     -11.734  10.157 -21.032  1.00 38.01 LIG-0.65  OA
ENDBRANCH 28 29
ENDBRANCH 1 28
BRANCH 1 32
ATOM     32  N   ASP C 155     -11.080  10.701 -23.464  1.00 36.13 LIG-0.34  N 
ATOM     33 H    ASP C 155     -11.911  10.736 -23.246  1.00 36.13 LIG 0.16  HD
ATOM     34  C   HIS C 154     -10.322  11.770 -23.655  1.00 38.66 LIG 0.24  C 
ATOM     35 O    HIS C 154      -9.127  11.701 -23.925  1.00 35.33 LIG-0.27  OA
BRANCH 34 36
ATOM     36  CA  HIS C 154     -11.002  13.118 -23.487  1.00 42.51 LIG 0.18  C 
BRANCH 36 37
ATOM     37  CB  HIS C 154     -11.765  13.496 -24.757  1.00 45.16 LIG 0.10  C 
BRANCH 37 38
ATOM     38  CG  HIS C 154     -12.219  14.923 -24.779  1.00 48.44 LIG 0.06  A 
ATOM     39 ND1  HIS C 154     -13.541  15.287 -24.629  1.00 50.51 LIG-0.24  NA
ATOM     40  CE1 HIS C 154     -13.647  16.602 -24.706  1.00 51.05 LIG 0.23  A 
ATOM     41 NE2  HIS C 154     -12.442  17.104 -24.902  1.00 50.26 LIG-0.25  NA
ATOM     42  CD2 HIS C 154     -11.531  16.076 -24.954  1.00 50.26 LIG 0.14  A 
ENDBRANCH 37 38
ENDBRANCH 36 37
BRANCH 36 43
ATOM     43  N   HIS C 154      -9.956  14.084 -23.216  1.00 45.99 LIG-0.34  N 
ATOM     44  C   ASP C 153      -9.985  14.886 -22.157  1.00 51.00 LIG 0.26  C 
ATOM     45 O    ASP C 153     -10.973  15.019 -21.431  1.00 50.83 LIG-0.27  OA
ATOM     46 H    HIS C 154      -9.322  14.088 -23.798  1.00 45.99 LIG 0.16  HD
BRANCH 44 47
ATOM     47  CA  ASP C 153      -8.700  15.657 -21.879  1.00 53.77 LIG 0.41  C 
ATOM     48  N   ASP C 153      -8.867  17.136 -22.071  1.00 52.50 LIG 0.61  N 
BRANCH 47 49
ATOM     49  CB  ASP C 153      -8.221  15.319 -20.461  1.00 54.86 LIG 0.16  C 
BRANCH 49 50
ATOM     50  CG  ASP C 153      -7.603  16.507 -19.757  1.00 56.45 LIG 0.17  C 
ATOM     51 OD2  ASP C 153      -6.387  16.454 -19.452  1.00 58.24 LIG-0.65  OA
ATOM     52 OD1  ASP C 153      -8.335  17.487 -19.512  1.00 54.42 LIG-0.65  OA
ENDBRANCH 49 50
ENDBRANCH 47 49
ENDBRANCH 44 47
ENDBRANCH 36 43
ENDBRANCH 34 36
ENDBRANCH 1 32
TORSDOF 19
ENDMDL
MODEL 21
USER: ADFR SOLUTION from run 158
USER: SCORE 18.368789 LL:  -4.059 LR: -16.009 RR:   0.000 FEB: -10.342
USER: RMSD 13.199578
USER: SEED 157
USER: STATUS no improvement in best in 3 clusters for 5 generations
USER: GENES 21
USER: genes 0 Translation |==|  0.34865 0.23230 0.43434
USER: genes 1 Rotation |==|  0.03994 0.58017 0.62907 0.62354
USER: genes 2 Torsion [N]-CA--C-[N] |==|  0.09482
USER: genes 3 Torsion [C]-N--CA-[CB] |==|  0.47778
USER: genes 4 Torsion [N]-CA--C-[N] |==|  0.39943
USER: genes 5 Torsion [C]-N--CA-[CB] |==|  0.19401
USER: genes 6 Torsion [N]-CA--C-[N] |==|  0.50811
USER: genes 7 Torsion [C]-N--CA-[CB] |==|  0.15835
USER: genes 8 Torsion [N]-CA--C-[OXT] |==|  0.43514
USER: genes 9 Torsion [N]-CA--CB-[CG] |==|  0.21206
USER: genes 10 Torsion [CA]-CB--CG-[CD2] |==|  0.86029
USER: genes 11 Torsion [C]-CA--CB-[CG] |==|  0.41317
USER: genes 12 Torsion [CA]-CB--CG-[OD2] |==|  0.87167
USER: genes 13 Torsion [C]-CA--N-[C] |==|  0.17430
USER: genes 14 Torsion [N]-C--CA-[N] |==|  0.03220
USER: genes 15 Torsion [C]-CA--CB-[CG] |==|  0.48264
USER: genes 16 Torsion [CA]-CB--CG-[CD2] |==|  0.19137
USER: genes 17 Torsion [C]-CA--N-[C] |==|  0.72393
USER: genes 18 Torsion [N]-C--CA-[N] |==|  0.50506
USER: genes 19 Torsion [C]-CA--CB-[CG] |==|  0.73865
USER: genes 20 Torsion [CA]-CB--CG-[OD2] |==|  0.82904
ROOT
ATOM      1  CA  ASP C 155     -13.304   3.691 -25.649  1.00 34.31 LIG 0.19  C 
ENDROOT
BRANCH 1 2
ATOM      2  C   ASP C 155     -12.291   4.819 -25.548  1.00 33.42 LIG 0.24  C 
ATOM      3 O    ASP C 155     -11.841   5.172 -24.453  1.00 32.60 LIG-0.27  OA
ATOM      4  N   ALA C 156     -11.918   5.358 -26.706  1.00 30.74 LIG-0.35  N 
ATOM      5 H    ALA C 156     -12.175   5.063 -27.471  1.00 30.74 LIG 0.16  HD
BRANCH 4 6
ATOM      6  CA  ALA C 156     -11.033   6.506 -26.780  1.00 30.13 LIG 0.17  C 
ATOM      7  CB  ALA C 156     -10.631   6.772 -28.222  1.00 30.23 LIG 0.04  C 
BRANCH 6 8
ATOM      8  C   ALA C 156     -11.753   7.708 -26.192  1.00 29.70 LIG 0.24  C 
ATOM      9  N   HIS C 157     -10.989   8.554 -25.508  1.00 30.21 LIG-0.35  N 
ATOM     10 H    HIS C 157     -10.136   8.470 -25.435  1.00 30.21 LIG 0.16  HD
ATOM     11 O    ALA C 156     -12.974   7.856 -26.353  1.00 27.33 LIG-0.27  OA
BRANCH 9 12
ATOM     12  CA  HIS C 157     -11.535   9.713 -24.810  1.00 31.06 LIG 0.18  C 
BRANCH 12 13
ATOM     13  C   HIS C 157     -10.399  10.635 -24.407  1.00 30.33 LIG 0.24  C 
ATOM     14  N   ALA C 158     -10.736  11.714 -23.705  1.00 29.79 LIG-0.34  N 
ATOM     15 H    ALA C 158     -11.537  11.884 -23.444  1.00 29.79 LIG 0.16  HD
ATOM     16 O    HIS C 157      -9.238  10.386 -24.750  1.00 30.67 LIG-0.27  OA
BRANCH 14 17
ATOM     17  CA  ALA C 158      -9.746  12.719 -23.314  1.00 31.13 LIG 0.18  C 
ATOM     18  CB  ALA C 158      -9.029  13.278 -24.536  1.00 30.84 LIG 0.04  C 
BRANCH 17 19
ATOM     19  C   ALA C 158     -10.384  13.847 -22.517  1.00 31.87 LIG 0.20  C 
ATOM     20 OXT  ALA C 158      -9.708  14.539 -21.751  1.00 33.04 LIG-0.65  OA
ATOM     21 O    ALA C 158     -11.591  14.079 -22.629  1.00 31.17 LIG-0.65  OA
ENDBRANCH 17 19
ENDBRANCH 14 17
ENDBRANCH 12 13
BRANCH 12 22
ATOM     22  CB  HIS C 157     -12.357   9.265 -23.597  1.00 32.09 LIG 0.10  C 
BRANCH 22 23
ATOM     23  CG  HIS C 157     -11.512   8.838 -22.437  1.00 35.38 LIG 0.06  A 
ATOM     24 ND1  HIS C 157     -11.742   9.275 -21.148  1.00 36.48 LIG-0.24  NA
ATOM     25  CE1 HIS C 157     -10.867   8.713 -20.332  1.00 37.27 LIG 0.23  A 
ATOM     26 NE2  HIS C 157     -10.083   7.919 -21.044  1.00 37.33 LIG-0.25  NA
ATOM     27  CD2 HIS C 157     -10.468   7.975 -22.361  1.00 35.91 LIG 0.14  A 
ENDBRANCH 22 23
ENDBRANCH 12 22
ENDBRANCH 9 12
ENDBRANCH 6 8
ENDBRANCH 4 6
ENDBRANCH 1 2
BRANCH 1 28
ATOM     28  CB  ASP C 155     -13.192   2.799 -24.427  1.00 35.23 LIG 0.15  C 
BRANCH 28 29
ATOM     29  CG  ASP C 155     -14.515   2.169 -24.032  1.00 35.97 LIG 0.17  C 
ATOM     30 OD2  ASP C 155     -15.506   2.918 -24.002  1.00 39.40 LIG-0.65  OA
ATOM     31 OD1  ASP C 155     -14.591   0.952 -23.752  1.00 38.01 LIG-0.65  OA
ENDBRANCH 28 29
ENDBRANCH 1 28
BRANCH 1 32
ATOM     32  N   ASP C 155     -13.072   2.925 -26.856  1.00 36.13 LIG-0.34  N 
ATOM     33 H    ASP C 155     -13.724   2.943 -27.417  1.00 36.13 LIG 0.16  HD
ATOM     34  C   HIS C 154     -11.945   2.260 -27.058  1.00 38.66 LIG 0.24  C 
ATOM     35 O    HIS C 154     -11.008   2.279 -26.265  1.00 35.33 LIG-0.27  OA
BRANCH 34 36
ATOM     36  CA  HIS C 154     -11.844   1.481 -28.358  1.00 42.51 LIG 0.18  C 
BRANCH 36 37
ATOM     37  CB  HIS C 154     -10.513   1.768 -29.053  1.00 45.16 LIG 0.10  C 
BRANCH 37 38
ATOM     38  CG  HIS C 154     -10.278   0.922 -30.267  1.00 48.44 LIG 0.06  A 
ATOM     39 ND1  HIS C 154      -9.295  -0.044 -30.323  1.00 50.51 LIG-0.24  NA
ATOM     40  CE1 HIS C 154      -9.309  -0.617 -31.514  1.00 51.05 LIG 0.23  A 
ATOM     41 NE2  HIS C 154     -10.265  -0.056 -32.232  1.00 50.26 LIG-0.25  NA
ATOM     42  CD2 HIS C 154     -10.885   0.911 -31.477  1.00 50.26 LIG 0.14  A 
ENDBRANCH 37 38
ENDBRANCH 36 37
BRANCH 36 43
ATOM     43  N   HIS C 154     -12.953   1.907 -29.188  1.00 45.99 LIG-0.34  N 
ATOM     44  C   ASP C 153     -14.072   1.199 -29.296  1.00 51.00 LIG 0.26  C 
ATOM     45 O    ASP C 153     -14.196   0.049 -28.869  1.00 50.83 LIG-0.27  OA
ATOM     46 H    HIS C 154     -12.820   2.651 -29.599  1.00 45.99 LIG 0.16  HD
BRANCH 44 47
ATOM     47  CA  ASP C 153     -15.230   1.900 -29.998  1.00 53.77 LIG 0.41  C 
ATOM     48  N   ASP C 153     -16.469   1.056 -30.043  1.00 52.50 LIG 0.61  N 
BRANCH 47 49
ATOM     49  CB  ASP C 153     -15.483   3.245 -29.304  1.00 54.86 LIG 0.16  C 
BRANCH 49 50
ATOM     50  CG  ASP C 153     -16.553   3.156 -28.238  1.00 56.45 LIG 0.17  C 
ATOM     51 OD2  ASP C 153     -17.714   2.824 -28.582  1.00 58.24 LIG-0.65  OA
ATOM     52 OD1  ASP C 153     -16.230   3.419 -27.061  1.00 54.42 LIG-0.65  OA
ENDBRANCH 49 50
ENDBRANCH 47 49
ENDBRANCH 44 47
ENDBRANCH 36 43
ENDBRANCH 34 36
ENDBRANCH 1 32
TORSDOF 19
ENDMDL
MODEL 22
USER: ADFR SOLUTION from run 61
USER: SCORE 17.848364 LL:  -4.148 LR: -15.999 RR:   0.000 FEB: -10.331
USER: RMSD 5.949994
USER: SEED 60
USER: STATUS no improvement in best in 9 clusters for 5 generations
USER: GENES 21
USER: genes 0 Translation |==|  0.48519 0.53467 0.49494
USER: genes 1 Rotation |==|  0.43280 0.72758 0.29830 0.89116
USER: genes 2 Torsion [N]-CA--C-[N] |==|  0.14491
USER: genes 3 Torsion [C]-N--CA-[CB] |==|  0.78014
USER: genes 4 Torsion [N]-CA--C-[N] |==|  0.24435
USER: genes 5 Torsion [C]-N--CA-[CB] |==|  0.44645
USER: genes 6 Torsion [N]-CA--C-[N] |==|  0.32607
USER: genes 7 Torsion [C]-N--CA-[CB] |==|  0.49913
USER: genes 8 Torsion [N]-CA--C-[OXT] |==|  0.41631
USER: genes 9 Torsion [N]-CA--CB-[CG] |==|  0.43402
USER: genes 10 Torsion [CA]-CB--CG-[CD2] |==|  0.19377
USER: genes 11 Torsion [C]-CA--CB-[CG] |==|  0.29773
USER: genes 12 Torsion [CA]-CB--CG-[OD2] |==|  0.49222
USER: genes 13 Torsion [C]-CA--N-[C] |==|  0.73095
USER: genes 14 Torsion [N]-C--CA-[N] |==|  0.02376
USER: genes 15 Torsion [C]-CA--CB-[CG] |==|  0.33764
USER: genes 16 Torsion [CA]-CB--CG-[CD2] |==|  0.56969
USER: genes 17 Torsion [C]-CA--N-[C] |==|  0.75000
USER: genes 18 Torsion [N]-C--CA-[N] |==|  0.41366
USER: genes 19 Torsion [C]-CA--CB-[CG] |==|  0.78444
USER: genes 20 Torsion [CA]-CB--CG-[OD2] |==|  0.30661
ROOT
ATOM      1  CA  ASP C 155     -10.744  11.855 -24.513  1.00 34.31 LIG 0.19  C 
ENDROOT
BRANCH 1 2
ATOM      2  C   ASP C 155     -11.197  10.504 -23.985  1.00 33.42 LIG 0.24  C 
ATOM      3 O    ASP C 155     -12.384  10.167 -24.042  1.00 32.60 LIG-0.27  OA
ATOM      4  N   ALA C 156     -10.233   9.728 -23.499  1.00 30.74 LIG-0.35  N 
ATOM      5 H    ALA C 156      -9.399   9.932 -23.527  1.00 30.74 LIG 0.16  HD
BRANCH 4 6
ATOM      6  CA  ALA C 156     -10.508   8.449 -22.869  1.00 30.13 LIG 0.17  C 
ATOM      7  CB  ALA C 156     -10.984   8.654 -21.440  1.00 30.23 LIG 0.04  C 
BRANCH 6 8
ATOM      8  C   ALA C 156     -11.563   7.725 -23.688  1.00 29.70 LIG 0.24  C 
ATOM      9  N   HIS C 157     -11.099   6.976 -24.684  1.00 30.21 LIG-0.35  N 
ATOM     10 H    HIS C 157     -10.261   6.856 -24.837  1.00 30.21 LIG 0.16  HD
ATOM     11 O    ALA C 156     -12.768   7.853 -23.424  1.00 27.33 LIG-0.27  OA
BRANCH 9 12
ATOM     12  CA  HIS C 157     -11.980   6.282 -25.617  1.00 31.06 LIG 0.18  C 
BRANCH 12 13
ATOM     13  C   HIS C 157     -12.562   5.056 -24.938  1.00 30.33 LIG 0.24  C 
ATOM     14  N   ALA C 158     -13.884   5.037 -24.789  1.00 29.79 LIG-0.34  N 
ATOM     15 H    ALA C 158     -14.409   5.650 -25.087  1.00 29.79 LIG 0.16  HD
ATOM     16 O    HIS C 157     -11.822   4.154 -24.532  1.00 30.67 LIG-0.27  OA
BRANCH 14 17
ATOM     17  CA  ALA C 158     -14.565   3.946 -24.089  1.00 31.13 LIG 0.18  C 
ATOM     18  CB  ALA C 158     -16.071   4.180 -24.058  1.00 30.84 LIG 0.04  C 
BRANCH 17 19
ATOM     19  C   ALA C 158     -14.256   2.599 -24.723  1.00 31.87 LIG 0.20  C 
ATOM     20 OXT  ALA C 158     -14.240   1.570 -24.041  1.00 33.04 LIG-0.65  OA
ATOM     21 O    ALA C 158     -14.014   2.523 -25.930  1.00 31.17 LIG-0.65  OA
ENDBRANCH 17 19
ENDBRANCH 14 17
ENDBRANCH 12 13
BRANCH 12 22
ATOM     22  CB  HIS C 157     -11.217   5.913 -26.894  1.00 32.09 LIG 0.10  C 
BRANCH 22 23
ATOM     23  CG  HIS C 157     -11.823   4.759 -27.630  1.00 35.38 LIG 0.06  A 
ATOM     24 ND1  HIS C 157     -11.244   3.506 -27.657  1.00 36.48 LIG-0.24  NA
ATOM     25  CE1 HIS C 157     -12.012   2.684 -28.350  1.00 37.27 LIG 0.23  A 
ATOM     26 NE2  HIS C 157     -13.074   3.354 -28.766  1.00 37.33 LIG-0.25  NA
ATOM     27  CD2 HIS C 157     -12.983   4.653 -28.326  1.00 35.91 LIG 0.14  A 
ENDBRANCH 22 23
ENDBRANCH 12 22
ENDBRANCH 9 12
ENDBRANCH 6 8
ENDBRANCH 4 6
ENDBRANCH 1 2
BRANCH 1 28
ATOM     28  CB  ASP C 155     -11.915  12.559 -25.173  1.00 35.23 LIG 0.15  C 
BRANCH 28 29
ATOM     29  CG  ASP C 155     -12.446  13.719 -24.350  1.00 35.97 LIG 0.17  C 
ATOM     30 OD2  ASP C 155     -13.371  14.381 -24.847  1.00 39.40 LIG-0.65  OA
ATOM     31 OD1  ASP C 155     -11.965  13.985 -23.226  1.00 38.01 LIG-0.65  OA
ENDBRANCH 28 29
ENDBRANCH 1 28
BRANCH 1 32
ATOM     32  N   ASP C 155      -9.662  11.678 -25.459  1.00 36.13 LIG-0.34  N 
ATOM     33 H    ASP C 155      -9.919  11.489 -26.258  1.00 36.13 LIG 0.16  HD
ATOM     34  C   HIS C 154      -8.393  11.802 -25.104  1.00 38.66 LIG 0.24  C 
ATOM     35 O    HIS C 154      -8.045  12.114 -23.968  1.00 35.33 LIG-0.27  OA
BRANCH 34 36
ATOM     36  CA  HIS C 154      -7.360  11.569 -26.194  1.00 42.51 LIG 0.18  C 
BRANCH 36 37
ATOM     37  CB  HIS C 154      -6.369  12.732 -26.251  1.00 45.16 LIG 0.10  C 
BRANCH 37 38
ATOM     38  CG  HIS C 154      -4.946  12.315 -26.044  1.00 48.44 LIG 0.06  A 
ATOM     39 ND1  HIS C 154      -4.500  11.034 -26.297  1.00 50.51 LIG-0.24  NA
ATOM     40  CE1 HIS C 154      -3.213  10.952 -26.011  1.00 51.05 LIG 0.23  A 
ATOM     41 NE2  HIS C 154      -2.808  12.133 -25.580  1.00 50.26 LIG-0.25  NA
ATOM     42  CD2 HIS C 154      -3.872  13.002 -25.588  1.00 50.26 LIG 0.14  A 
ENDBRANCH 37 38
ENDBRANCH 36 37
BRANCH 36 43
ATOM     43  N   HIS C 154      -8.087  11.458 -27.443  1.00 45.99 LIG-0.34  N 
ATOM     44  C   ASP C 153      -8.534  10.296 -27.904  1.00 51.00 LIG 0.26  C 
ATOM     45 O    ASP C 153      -8.213   9.204 -27.428  1.00 50.83 LIG-0.27  OA
ATOM     46 H    HIS C 154      -8.200  12.207 -27.851  1.00 45.99 LIG 0.16  HD
BRANCH 44 47
ATOM     47  CA  ASP C 153      -9.490  10.381 -29.089  1.00 53.77 LIG 0.41  C 
ATOM     48  N   ASP C 153      -9.380   9.193 -30.000  1.00 52.50 LIG 0.61  N 
BRANCH 47 49
ATOM     49  CB  ASP C 153     -10.918  10.557 -28.556  1.00 54.86 LIG 0.16  C 
BRANCH 49 50
ATOM     50  CG  ASP C 153     -11.512   9.263 -28.044  1.00 56.45 LIG 0.17  C 
ATOM     51 OD2  ASP C 153     -11.695   9.137 -26.808  1.00 58.24 LIG-0.65  OA
ATOM     52 OD1  ASP C 153     -11.794   8.378 -28.877  1.00 54.42 LIG-0.65  OA
ENDBRANCH 49 50
ENDBRANCH 47 49
ENDBRANCH 44 47
ENDBRANCH 36 43
ENDBRANCH 34 36
ENDBRANCH 1 32
TORSDOF 19
ENDMDL
MODEL 23
USER: ADFR SOLUTION from run 26
USER: SCORE 17.123366 LL:  -3.641 LR: -15.899 RR:   0.000 FEB: -10.231
USER: RMSD 6.478366
USER: SEED 25
USER: STATUS no improvement in best in 6 clusters for 5 generations
USER: GENES 21
USER: genes 0 Translation |==|  0.48483 0.53449 0.48587
USER: genes 1 Rotation |==|  0.42922 0.78816 0.29862 0.84842
USER: genes 2 Torsion [N]-CA--C-[N] |==|  0.17488
USER: genes 3 Torsion [C]-N--CA-[CB] |==|  0.79349
USER: genes 4 Torsion [N]-CA--C-[N] |==|  0.26445
USER: genes 5 Torsion [C]-N--CA-[CB] |==|  0.43221
USER: genes 6 Torsion [N]-CA--C-[N] |==|  0.33795
USER: genes 7 Torsion [C]-N--CA-[CB] |==|  0.49105
USER: genes 8 Torsion [N]-CA--C-[OXT] |==|  0.43208
USER: genes 9 Torsion [N]-CA--CB-[CG] |==|  0.46568
USER: genes 10 Torsion [CA]-CB--CG-[CD2] |==|  0.62780
USER: genes 11 Torsion [C]-CA--CB-[CG] |==|  0.31054
USER: genes 12 Torsion [CA]-CB--CG-[OD2] |==|  0.92890
USER: genes 13 Torsion [C]-CA--N-[C] |==|  0.75766
USER: genes 14 Torsion [N]-C--CA-[N] |==|  0.45523
USER: genes 15 Torsion [C]-CA--CB-[CG] |==|  0.17726
USER: genes 16 Torsion [CA]-CB--CG-[CD2] |==|  0.18235
USER: genes 17 Torsion [C]-CA--N-[C] |==|  0.83889
USER: genes 18 Torsion [N]-C--CA-[N] |==|  0.94972
USER: genes 19 Torsion [C]-CA--CB-[CG] |==|  0.29218
USER: genes 20 Torsion [CA]-CB--CG-[OD2] |==|  0.53532
ROOT
ATOM      1  CA  ASP C 155     -10.750  11.850 -24.683  1.00 34.31 LIG 0.19  C 
ENDROOT
BRANCH 1 2
ATOM      2  C   ASP C 155     -11.181  10.506 -24.120  1.00 33.42 LIG 0.24  C 
ATOM      3 O    ASP C 155     -12.376  10.200 -24.052  1.00 32.60 LIG-0.27  OA
ATOM      4  N   ALA C 156     -10.192   9.699 -23.747  1.00 30.74 LIG-0.35  N 
ATOM      5 H    ALA C 156      -9.360   9.882 -23.863  1.00 30.74 LIG 0.16  HD
BRANCH 4 6
ATOM      6  CA  ALA C 156     -10.432   8.421 -23.101  1.00 30.13 LIG 0.17  C 
ATOM      7  CB  ALA C 156     -10.863   8.630 -21.658  1.00 30.23 LIG 0.04  C 
BRANCH 6 8
ATOM      8  C   ALA C 156     -11.507   7.683 -23.881  1.00 29.70 LIG 0.24  C 
ATOM      9  N   HIS C 157     -11.062   6.818 -24.788  1.00 30.21 LIG-0.35  N 
ATOM     10 H    HIS C 157     -10.230   6.638 -24.904  1.00 30.21 LIG 0.16  HD
ATOM     11 O    ALA C 156     -12.709   7.901 -23.666  1.00 27.33 LIG-0.27  OA
BRANCH 9 12
ATOM     12  CA  HIS C 157     -11.959   6.089 -25.679  1.00 31.06 LIG 0.18  C 
BRANCH 12 13
ATOM     13  C   HIS C 157     -12.530   4.891 -24.942  1.00 30.33 LIG 0.24  C 
ATOM     14  N   ALA C 158     -13.855   4.834 -24.848  1.00 29.79 LIG-0.34  N 
ATOM     15 H    ALA C 158     -14.387   5.406 -25.209  1.00 29.79 LIG 0.16  HD
ATOM     16 O    HIS C 157     -11.779   4.045 -24.445  1.00 30.67 LIG-0.27  OA
BRANCH 14 17
ATOM     17  CA  ALA C 158     -14.531   3.769 -24.104  1.00 31.13 LIG 0.18  C 
ATOM     18  CB  ALA C 158     -16.039   3.990 -24.092  1.00 30.84 LIG 0.04  C 
BRANCH 17 19
ATOM     19  C   ALA C 158     -14.206   2.398 -24.676  1.00 31.87 LIG 0.20  C 
ATOM     20 OXT  ALA C 158     -14.286   1.387 -23.973  1.00 33.04 LIG-0.65  OA
ATOM     21 O    ALA C 158     -13.853   2.286 -25.853  1.00 31.17 LIG-0.65  OA
ENDBRANCH 17 19
ENDBRANCH 14 17
ENDBRANCH 12 13
BRANCH 12 22
ATOM     22  CB  HIS C 157     -11.217   5.669 -26.952  1.00 32.09 LIG 0.10  C 
BRANCH 22 23
ATOM     23  CG  HIS C 157     -11.975   4.674 -27.775  1.00 35.38 LIG 0.06  A 
ATOM     24 ND1  HIS C 157     -13.303   4.844 -28.112  1.00 36.48 LIG-0.24  NA
ATOM     25  CE1 HIS C 157     -13.695   3.832 -28.866  1.00 37.27 LIG 0.23  A 
ATOM     26 NE2  HIS C 157     -12.668   3.016 -29.041  1.00 37.33 LIG-0.25  NA
ATOM     27  CD2 HIS C 157     -11.579   3.522 -28.373  1.00 35.91 LIG 0.14  A 
ENDBRANCH 22 23
ENDBRANCH 12 22
ENDBRANCH 9 12
ENDBRANCH 6 8
ENDBRANCH 4 6
ENDBRANCH 1 2
BRANCH 1 28
ATOM     28  CB  ASP C 155     -11.977  12.699 -24.961  1.00 35.23 LIG 0.15  C 
BRANCH 28 29
ATOM     29  CG  ASP C 155     -12.088  13.898 -24.036  1.00 35.97 LIG 0.17  C 
ATOM     30 OD2  ASP C 155     -11.535  13.804 -22.929  1.00 39.40 LIG-0.65  OA
ATOM     31 OD1  ASP C 155     -12.710  14.925 -24.386  1.00 38.01 LIG-0.65  OA
ENDBRANCH 28 29
ENDBRANCH 1 28
BRANCH 1 32
ATOM     32  N   ASP C 155      -9.985  11.656 -25.897  1.00 36.13 LIG-0.34  N 
ATOM     33 H    ASP C 155     -10.454  11.680 -26.618  1.00 36.13 LIG 0.16  HD
ATOM     34  C   HIS C 154      -8.676  11.458 -25.875  1.00 38.66 LIG 0.24  C 
ATOM     35 O    HIS C 154      -8.016  11.467 -24.840  1.00 35.33 LIG-0.27  OA
BRANCH 34 36
ATOM     36  CA  HIS C 154      -8.002  11.247 -27.221  1.00 42.51 LIG 0.18  C 
BRANCH 36 37
ATOM     37  CB  HIS C 154      -8.283   9.840 -27.747  1.00 45.16 LIG 0.10  C 
BRANCH 37 38
ATOM     38  CG  HIS C 154      -9.732   9.585 -28.029  1.00 48.44 LIG 0.06  A 
ATOM     39 ND1  HIS C 154     -10.473   8.651 -27.334  1.00 50.51 LIG-0.24  NA
ATOM     40  CE1 HIS C 154     -11.707   8.632 -27.804  1.00 51.05 LIG 0.23  A 
ATOM     41 NE2  HIS C 154     -11.793   9.517 -28.781  1.00 50.26 LIG-0.25  NA
ATOM     42  CD2 HIS C 154     -10.571  10.125 -28.943  1.00 50.26 LIG 0.14  A 
ENDBRANCH 37 38
ENDBRANCH 36 37
BRANCH 36 43
ATOM     43  N   HIS C 154      -6.581  11.439 -27.011  1.00 45.99 LIG-0.34  N 
ATOM     44  C   ASP C 153      -6.080  12.569 -26.526  1.00 51.00 LIG 0.26  C 
ATOM     45 O    ASP C 153      -6.736  13.605 -26.395  1.00 50.83 LIG-0.27  OA
ATOM     46 H    HIS C 154      -6.100  10.759 -27.229  1.00 45.99 LIG 0.16  HD
BRANCH 44 47
ATOM     47  CA  ASP C 153      -4.608  12.520 -26.130  1.00 53.77 LIG 0.41  C 
ATOM     48  N   ASP C 153      -4.109  11.116 -25.954  1.00 52.50 LIG 0.61  N 
BRANCH 47 49
ATOM     49  CB  ASP C 153      -3.792  13.285 -27.181  1.00 54.86 LIG 0.16  C 
BRANCH 49 50
ATOM     50  CG  ASP C 153      -3.328  14.638 -26.685  1.00 56.45 LIG 0.17  C 
ATOM     51 OD2  ASP C 153      -2.866  15.454 -27.520  1.00 58.24 LIG-0.65  OA
ATOM     52 OD1  ASP C 153      -3.428  14.880 -25.465  1.00 54.42 LIG-0.65  OA
ENDBRANCH 49 50
ENDBRANCH 47 49
ENDBRANCH 44 47
ENDBRANCH 36 43
ENDBRANCH 34 36
ENDBRANCH 1 32
TORSDOF 19
ENDMDL
MODEL 24
USER: ADFR SOLUTION from run 93
USER: SCORE 17.210665 LL:  -4.232 LR: -15.891 RR:   0.000 FEB: -10.223
USER: RMSD 3.929181
USER: SEED 92
USER: STATUS no improvement in best in 4 clusters for 5 generations
USER: GENES 21
USER: genes 0 Translation |==|  0.52460 0.51542 0.45308
USER: genes 1 Rotation |==|  0.38235 0.07946 0.51493 0.74306
USER: genes 2 Torsion [N]-CA--C-[N] |==|  0.65749
USER: genes 3 Torsion [C]-N--CA-[CB] |==|  0.81667
USER: genes 4 Torsion [N]-CA--C-[N] |==|  0.17949
USER: genes 5 Torsion [C]-N--CA-[CB] |==|  0.43487
USER: genes 6 Torsion [N]-CA--C-[N] |==|  0.31486
USER: genes 7 Torsion [C]-N--CA-[CB] |==|  0.48852
USER: genes 8 Torsion [N]-CA--C-[OXT] |==|  0.45637
USER: genes 9 Torsion [N]-CA--CB-[CG] |==|  0.84652
USER: genes 10 Torsion [CA]-CB--CG-[CD2] |==|  0.44213
USER: genes 11 Torsion [C]-CA--CB-[CG] |==|  0.41540
USER: genes 12 Torsion [CA]-CB--CG-[OD2] |==|  0.78360
USER: genes 13 Torsion [C]-CA--N-[C] |==|  0.67593
USER: genes 14 Torsion [N]-C--CA-[N] |==|  0.51097
USER: genes 15 Torsion [C]-CA--CB-[CG] |==|  0.32183
USER: genes 16 Torsion [CA]-CB--CG-[CD2] |==|  0.28041
USER: genes 17 Torsion [C]-CA--N-[C] |==|  0.74018
USER: genes 18 Torsion [N]-C--CA-[N] |==|  0.84218
USER: genes 19 Torsion [C]-CA--CB-[CG] |==|  0.78488
USER: genes 20 Torsion [CA]-CB--CG-[OD2] |==|  0.33089
ROOT
ATOM      1  CA  ASP C 155     -10.005  11.335 -25.298  1.00 34.31 LIG 0.19  C 
ENDROOT
BRANCH 1 2
ATOM      2  C   ASP C 155     -10.868  10.365 -24.509  1.00 33.42 LIG 0.24  C 
ATOM      3 O    ASP C 155     -12.098  10.377 -24.618  1.00 32.60 LIG-0.27  OA
ATOM      4  N   ALA C 156     -10.205   9.507 -23.738  1.00 30.74 LIG-0.35  N 
ATOM      5 H    ALA C 156      -9.347   9.450 -23.719  1.00 30.74 LIG 0.16  HD
BRANCH 4 6
ATOM      6  CA  ALA C 156     -10.880   8.579 -22.848  1.00 30.13 LIG 0.17  C 
ATOM      7  CB  ALA C 156     -11.601   9.335 -21.744  1.00 30.23 LIG 0.04  C 
BRANCH 6 8
ATOM      8  C   ALA C 156     -11.861   7.756 -23.666  1.00 29.70 LIG 0.24  C 
ATOM      9  N   HIS C 157     -11.316   6.962 -24.582  1.00 30.21 LIG-0.35  N 
ATOM     10 H    HIS C 157     -10.467   6.869 -24.686  1.00 30.21 LIG 0.16  HD
ATOM     11 O    ALA C 156     -13.082   7.848 -23.470  1.00 27.33 LIG-0.27  OA
BRANCH 9 12
ATOM     12  CA  HIS C 157     -12.119   6.168 -25.507  1.00 31.06 LIG 0.18  C 
BRANCH 12 13
ATOM     13  C   HIS C 157     -12.600   4.914 -24.801  1.00 30.33 LIG 0.24  C 
ATOM     14  N   ALA C 158     -13.910   4.820 -24.593  1.00 29.79 LIG-0.34  N 
ATOM     15 H    ALA C 158     -14.482   5.401 -24.868  1.00 29.79 LIG 0.16  HD
ATOM     16 O    HIS C 157     -11.792   4.056 -24.427  1.00 30.67 LIG-0.27  OA
BRANCH 14 17
ATOM     17  CA  ALA C 158     -14.498   3.696 -23.863  1.00 31.13 LIG 0.18  C 
ATOM     18  CB  ALA C 158     -15.998   3.891 -23.683  1.00 30.84 LIG 0.04  C 
BRANCH 17 19
ATOM     19  C   ALA C 158     -14.220   2.373 -24.560  1.00 31.87 LIG 0.20  C 
ATOM     20 OXT  ALA C 158     -14.375   1.302 -23.966  1.00 33.04 LIG-0.65  OA
ATOM     21 O    ALA C 158     -13.830   2.360 -25.730  1.00 31.17 LIG-0.65  OA
ENDBRANCH 17 19
ENDBRANCH 14 17
ENDBRANCH 12 13
BRANCH 12 22
ATOM     22  CB  HIS C 157     -11.308   5.835 -26.763  1.00 32.09 LIG 0.10  C 
BRANCH 22 23
ATOM     23  CG  HIS C 157     -10.754   7.047 -27.447  1.00 35.38 LIG 0.06  A 
ATOM     24 ND1  HIS C 157     -11.237   8.318 -27.214  1.00 36.48 LIG-0.24  NA
ATOM     25  CE1 HIS C 157     -10.541   9.188 -27.925  1.00 37.27 LIG 0.23  A 
ATOM     26 NE2  HIS C 157      -9.615   8.528 -28.602  1.00 37.33 LIG-0.25  NA
ATOM     27  CD2 HIS C 157      -9.723   7.189 -28.318  1.00 35.91 LIG 0.14  A 
ENDBRANCH 22 23
ENDBRANCH 12 22
ENDBRANCH 9 12
ENDBRANCH 6 8
ENDBRANCH 4 6
ENDBRANCH 1 2
BRANCH 1 28
ATOM     28  CB  ASP C 155      -8.544  11.102 -24.961  1.00 35.23 LIG 0.15  C 
BRANCH 28 29
ATOM     29  CG  ASP C 155      -7.613  11.423 -26.116  1.00 35.97 LIG 0.17  C 
ATOM     30 OD2  ASP C 155      -7.534  10.580 -27.024  1.00 39.40 LIG-0.65  OA
ATOM     31 OD1  ASP C 155      -6.961  12.491 -26.140  1.00 38.01 LIG-0.65  OA
ENDBRANCH 28 29
ENDBRANCH 1 28
BRANCH 1 32
ATOM     32  N   ASP C 155     -10.383  12.698 -24.988  1.00 36.13 LIG-0.34  N 
ATOM     33 H    ASP C 155     -10.256  12.922 -24.167  1.00 36.13 LIG 0.16  HD
ATOM     34  C   HIS C 154     -10.882  13.513 -25.904  1.00 38.66 LIG 0.24  C 
ATOM     35 O    HIS C 154     -11.018  13.190 -27.081  1.00 35.33 LIG-0.27  OA
BRANCH 34 36
ATOM     36  CA  HIS C 154     -11.256  14.909 -25.437  1.00 42.51 LIG 0.18  C 
BRANCH 36 37
ATOM     37  CB  HIS C 154     -12.238  14.839 -24.268  1.00 45.16 LIG 0.10  C 
BRANCH 37 38
ATOM     38  CG  HIS C 154     -11.689  15.396 -22.991  1.00 48.44 LIG 0.06  A 
ATOM     39 ND1  HIS C 154     -10.842  14.682 -22.169  1.00 50.51 LIG-0.24  NA
ATOM     40  CE1 HIS C 154     -10.532  15.414 -21.114  1.00 51.05 LIG 0.23  A 
ATOM     41 NE2  HIS C 154     -11.150  16.576 -21.220  1.00 50.26 LIG-0.25  NA
ATOM     42  CD2 HIS C 154     -11.882  16.591 -22.383  1.00 50.26 LIG 0.14  A 
ENDBRANCH 37 38
ENDBRANCH 36 37
BRANCH 36 43
ATOM     43  N   HIS C 154     -11.860  15.582 -26.569  1.00 45.99 LIG-0.34  N 
ATOM     44  C   ASP C 153     -11.158  16.344 -27.401  1.00 51.00 LIG 0.26  C 
ATOM     45 O    ASP C 153      -9.997  16.701 -27.183  1.00 50.83 LIG-0.27  OA
ATOM     46 H    HIS C 154     -12.705  15.443 -26.650  1.00 45.99 LIG 0.16  HD
BRANCH 44 47
ATOM     47  CA  ASP C 153     -11.881  16.770 -28.673  1.00 53.77 LIG 0.41  C 
ATOM     48  N   ASP C 153     -12.379  15.599 -29.468  1.00 52.50 LIG 0.61  N 
BRANCH 47 49
ATOM     49  CB  ASP C 153     -13.021  17.725 -28.294  1.00 54.86 LIG 0.16  C 
BRANCH 49 50
ATOM     50  CG  ASP C 153     -14.224  17.000 -27.731  1.00 56.45 LIG 0.17  C 
ATOM     51 OD2  ASP C 153     -14.588  17.267 -26.559  1.00 58.24 LIG-0.65  OA
ATOM     52 OD1  ASP C 153     -14.800  16.169 -28.461  1.00 54.42 LIG-0.65  OA
ENDBRANCH 49 50
ENDBRANCH 47 49
ENDBRANCH 44 47
ENDBRANCH 36 43
ENDBRANCH 34 36
ENDBRANCH 1 32
TORSDOF 19
ENDMDL
MODEL 25
USER: ADFR SOLUTION from run 8
USER: SCORE 17.903254 LL:  -4.348 LR: -15.872 RR:   0.000 FEB: -10.204
USER: RMSD 5.213157
USER: SEED 680280
USER: STATUS no improvement in best in 12 clusters for 5 generations
USER: GENES 21
USER: genes 0 Translation |==|  0.51707 0.52882 0.50939
USER: genes 1 Rotation |==|  0.44038 0.72757 0.35665 0.91726
USER: genes 2 Torsion [N]-CA--C-[N] |==|  0.39742
USER: genes 3 Torsion [C]-N--CA-[CB] |==|  0.53091
USER: genes 4 Torsion [N]-CA--C-[N] |==|  0.29911
USER: genes 5 Torsion [C]-N--CA-[CB] |==|  0.39706
USER: genes 6 Torsion [N]-CA--C-[N] |==|  0.29662
USER: genes 7 Torsion [C]-N--CA-[CB] |==|  0.50510
USER: genes 8 Torsion [N]-CA--C-[OXT] |==|  0.91013
USER: genes 9 Torsion [N]-CA--CB-[CG] |==|  0.77811
USER: genes 10 Torsion [CA]-CB--CG-[CD2] |==|  0.96532
USER: genes 11 Torsion [C]-CA--CB-[CG] |==|  0.35675
USER: genes 12 Torsion [CA]-CB--CG-[OD2] |==|  0.93059
USER: genes 13 Torsion [C]-CA--N-[C] |==|  0.81216
USER: genes 14 Torsion [N]-C--CA-[N] |==|  0.99444
USER: genes 15 Torsion [C]-CA--CB-[CG] |==|  0.34603
USER: genes 16 Torsion [CA]-CB--CG-[CD2] |==|  0.56299
USER: genes 17 Torsion [C]-CA--N-[C] |==|  0.77657
USER: genes 18 Torsion [N]-C--CA-[N] |==|  0.42252
USER: genes 19 Torsion [C]-CA--CB-[CG] |==|  0.53808
USER: genes 20 Torsion [CA]-CB--CG-[OD2] |==|  0.45621
ROOT
ATOM      1  CA  ASP C 155     -10.146  11.697 -24.242  1.00 34.31 LIG 0.19  C 
ENDROOT
BRANCH 1 2
ATOM      2  C   ASP C 155     -10.311  10.220 -23.928  1.00 33.42 LIG 0.24  C 
ATOM      3 O    ASP C 155     -10.096   9.360 -24.789  1.00 32.60 LIG-0.27  OA
ATOM      4  N   ALA C 156     -10.665   9.937 -22.678  1.00 30.74 LIG-0.35  N 
ATOM      5 H    ALA C 156     -10.742  10.530 -22.060  1.00 30.74 LIG 0.16  HD
BRANCH 4 6
ATOM      6  CA  ALA C 156     -10.957   8.584 -22.239  1.00 30.13 LIG 0.17  C 
ATOM      7  CB  ALA C 156     -11.591   8.602 -20.857  1.00 30.23 LIG 0.04  C 
BRANCH 6 8
ATOM      8  C   ALA C 156     -11.891   7.942 -23.250  1.00 29.70 LIG 0.24  C 
ATOM      9  N   HIS C 157     -11.343   7.007 -24.021  1.00 30.21 LIG-0.35  N 
ATOM     10 H    HIS C 157     -10.532   6.736 -23.934  1.00 30.21 LIG 0.16  HD
ATOM     11 O    ALA C 156     -13.078   8.293 -23.329  1.00 27.33 LIG-0.27  OA
BRANCH 9 12
ATOM     12  CA  HIS C 157     -12.077   6.351 -25.097  1.00 31.06 LIG 0.18  C 
BRANCH 12 13
ATOM     13  C   HIS C 157     -12.685   5.062 -24.574  1.00 30.33 LIG 0.24  C 
ATOM     14  N   ALA C 158     -14.001   5.066 -24.382  1.00 29.79 LIG-0.34  N 
ATOM     15 H    ALA C 158     -14.512   5.732 -24.573  1.00 29.79 LIG 0.16  HD
ATOM     16 O    HIS C 157     -11.967   4.087 -24.324  1.00 30.67 LIG-0.27  OA
BRANCH 14 17
ATOM     17  CA  ALA C 158     -14.702   3.912 -23.817  1.00 31.13 LIG 0.18  C 
ATOM     18  CB  ALA C 158     -16.203   4.169 -23.749  1.00 30.84 LIG 0.04  C 
BRANCH 17 19
ATOM     19  C   ALA C 158     -14.422   2.646 -24.612  1.00 31.87 LIG 0.20  C 
ATOM     20 OXT  ALA C 158     -14.227   2.696 -25.829  1.00 33.04 LIG-0.65  OA
ATOM     21 O    ALA C 158     -14.390   1.552 -24.043  1.00 31.17 LIG-0.65  OA
ENDBRANCH 17 19
ENDBRANCH 14 17
ENDBRANCH 12 13
BRANCH 12 22
ATOM     22  CB  HIS C 157     -11.154   6.097 -26.293  1.00 32.09 LIG 0.10  C 
BRANCH 22 23
ATOM     23  CG  HIS C 157     -10.945   7.311 -27.145  1.00 35.38 LIG 0.06  A 
ATOM     24 ND1  HIS C 157     -10.005   7.358 -28.154  1.00 36.48 LIG-0.24  NA
ATOM     25  CE1 HIS C 157     -10.067   8.534 -28.756  1.00 37.27 LIG 0.23  A 
ATOM     26 NE2  HIS C 157     -11.022   9.247 -28.180  1.00 37.33 LIG-0.25  NA
ATOM     27  CD2 HIS C 157     -11.590   8.504 -27.174  1.00 35.91 LIG 0.14  A 
ENDBRANCH 22 23
ENDBRANCH 12 22
ENDBRANCH 9 12
ENDBRANCH 6 8
ENDBRANCH 4 6
ENDBRANCH 1 2
BRANCH 1 28
ATOM     28  CB  ASP C 155     -11.431  12.232 -24.847  1.00 35.23 LIG 0.15  C 
BRANCH 28 29
ATOM     29  CG  ASP C 155     -11.936  13.482 -24.149  1.00 35.97 LIG 0.17  C 
ATOM     30 OD2  ASP C 155     -11.590  13.643 -22.968  1.00 39.40 LIG-0.65  OA
ATOM     31 OD1  ASP C 155     -12.667  14.302 -24.748  1.00 38.01 LIG-0.65  OA
ENDBRANCH 28 29
ENDBRANCH 1 28
BRANCH 1 32
ATOM     32  N   ASP C 155      -9.039  11.888 -25.156  1.00 36.13 LIG-0.34  N 
ATOM     33 H    ASP C 155      -9.271  12.160 -25.939  1.00 36.13 LIG 0.16  HD
ATOM     34  C   HIS C 154      -7.786  11.657 -24.797  1.00 38.66 LIG 0.24  C 
ATOM     35 O    HIS C 154      -7.470  11.309 -23.662  1.00 35.33 LIG-0.27  OA
BRANCH 34 36
ATOM     36  CA  HIS C 154      -6.726  11.879 -25.862  1.00 42.51 LIG 0.18  C 
BRANCH 36 37
ATOM     37  CB  HIS C 154      -5.753  12.976 -25.431  1.00 45.16 LIG 0.10  C 
BRANCH 37 38
ATOM     38  CG  HIS C 154      -4.320  12.540 -25.436  1.00 48.44 LIG 0.06  A 
ATOM     39 ND1  HIS C 154      -3.870  11.466 -26.177  1.00 50.51 LIG-0.24  NA
ATOM     40  CE1 HIS C 154      -2.574  11.306 -25.976  1.00 51.05 LIG 0.23  A 
ATOM     41 NE2  HIS C 154      -2.168  12.235 -25.130  1.00 50.26 LIG-0.25  NA
ATOM     42  CD2 HIS C 154      -3.239  13.018 -24.775  1.00 50.26 LIG 0.14  A 
ENDBRANCH 37 38
ENDBRANCH 36 37
BRANCH 36 43
ATOM     43  N   HIS C 154      -7.424  12.264 -27.073  1.00 45.99 LIG-0.34  N 
ATOM     44  C   ASP C 153      -8.003  11.376 -27.872  1.00 51.00 LIG 0.26  C 
ATOM     45 O    ASP C 153      -7.841  10.158 -27.770  1.00 50.83 LIG-0.27  OA
ATOM     46 H    HIS C 154      -7.426  13.111 -27.222  1.00 45.99 LIG 0.16  HD
BRANCH 44 47
ATOM     47  CA  ASP C 153      -8.904  11.955 -28.958  1.00 53.77 LIG 0.41  C 
ATOM     48  N   ASP C 153      -8.982  11.073 -30.169  1.00 52.50 LIG 0.61  N 
BRANCH 47 49
ATOM     49  CB  ASP C 153     -10.291  12.217 -28.356  1.00 54.86 LIG 0.16  C 
BRANCH 49 50
ATOM     50  CG  ASP C 153     -11.343  12.477 -29.412  1.00 56.45 LIG 0.17  C 
ATOM     51 OD2  ASP C 153     -12.552  12.407 -29.081  1.00 58.24 LIG-0.65  OA
ATOM     52 OD1  ASP C 153     -10.958  12.751 -30.567  1.00 54.42 LIG-0.65  OA
ENDBRANCH 49 50
ENDBRANCH 47 49
ENDBRANCH 44 47
ENDBRANCH 36 43
ENDBRANCH 34 36
ENDBRANCH 1 32
TORSDOF 19
ENDMDL
MODEL 26
USER: ADFR SOLUTION from run 149
USER: SCORE 18.070324 LL:  -4.578 LR: -15.817 RR:   0.000 FEB: -10.149
USER: RMSD 4.506118
USER: SEED 148
USER: STATUS 1 or 2 clusters left
USER: GENES 21
USER: genes 0 Translation |==|  0.49969 0.54197 0.52031
USER: genes 1 Rotation |==|  0.45799 0.69856 0.39494 0.94472
USER: genes 2 Torsion [N]-CA--C-[N] |==|  0.35712
USER: genes 3 Torsion [C]-N--CA-[CB] |==|  0.53333
USER: genes 4 Torsion [N]-CA--C-[N] |==|  0.33481
USER: genes 5 Torsion [C]-N--CA-[CB] |==|  0.39746
USER: genes 6 Torsion [N]-CA--C-[N] |==|  0.28923
USER: genes 7 Torsion [C]-N--CA-[CB] |==|  0.44282
USER: genes 8 Torsion [N]-CA--C-[OXT] |==|  0.31406
USER: genes 9 Torsion [N]-CA--CB-[CG] |==|  0.77160
USER: genes 10 Torsion [CA]-CB--CG-[CD2] |==|  0.99394
USER: genes 11 Torsion [C]-CA--CB-[CG] |==|  0.38519
USER: genes 12 Torsion [CA]-CB--CG-[OD2] |==|  0.48641
USER: genes 13 Torsion [C]-CA--N-[C] |==|  0.85842
USER: genes 14 Torsion [N]-C--CA-[N] |==|  0.90984
USER: genes 15 Torsion [C]-CA--CB-[CG] |==|  0.01958
USER: genes 16 Torsion [CA]-CB--CG-[CD2] |==|  0.27484
USER: genes 17 Torsion [C]-CA--N-[C] |==|  0.81442
USER: genes 18 Torsion [N]-C--CA-[N] |==|  0.41832
USER: genes 19 Torsion [C]-CA--CB-[CG] |==|  0.47719
USER: genes 20 Torsion [CA]-CB--CG-[OD2] |==|  0.08946
ROOT
ATOM      1  CA  ASP C 155     -10.472  12.052 -24.037  1.00 34.31 LIG 0.19  C 
ENDROOT
BRANCH 1 2
ATOM      2  C   ASP C 155     -10.458  10.539 -23.898  1.00 33.42 LIG 0.24  C 
ATOM      3 O    ASP C 155     -10.255   9.813 -24.877  1.00 32.60 LIG-0.27  OA
ATOM      4  N   ALA C 156     -10.648  10.077 -22.665  1.00 30.74 LIG-0.35  N 
ATOM      5 H    ALA C 156     -10.715  10.583 -21.973  1.00 30.74 LIG 0.16  HD
BRANCH 4 6
ATOM      6  CA  ALA C 156     -10.759   8.659 -22.374  1.00 30.13 LIG 0.17  C 
ATOM      7  CB  ALA C 156     -11.261   8.448 -20.954  1.00 30.23 LIG 0.04  C 
BRANCH 6 8
ATOM      8  C   ALA C 156     -11.712   8.035 -23.379  1.00 29.70 LIG 0.24  C 
ATOM      9  N   HIS C 157     -11.198   7.064 -24.127  1.00 30.21 LIG-0.35  N 
ATOM     10 H    HIS C 157     -10.399   6.761 -24.029  1.00 30.21 LIG 0.16  HD
ATOM     11 O    ALA C 156     -12.883   8.433 -23.474  1.00 27.33 LIG-0.27  OA
BRANCH 9 12
ATOM     12  CA  HIS C 157     -11.952   6.417 -25.196  1.00 31.06 LIG 0.18  C 
BRANCH 12 13
ATOM     13  C   HIS C 157     -12.619   5.167 -24.651  1.00 30.33 LIG 0.24  C 
ATOM     14  N   ALA C 158     -13.926   5.250 -24.419  1.00 29.79 LIG-0.34  N 
ATOM     15 H    ALA C 158     -14.401   5.944 -24.596  1.00 29.79 LIG 0.16  HD
ATOM     16 O    HIS C 157     -11.953   4.151 -24.420  1.00 30.67 LIG-0.27  OA
BRANCH 14 17
ATOM     17  CA  ALA C 158     -14.676   4.139 -23.829  1.00 31.13 LIG 0.18  C 
ATOM     18  CB  ALA C 158     -15.979   4.634 -23.212  1.00 30.84 LIG 0.04  C 
BRANCH 17 19
ATOM     19  C   ALA C 158     -14.960   3.052 -24.853  1.00 31.87 LIG 0.20  C 
ATOM     20 OXT  ALA C 158     -14.438   1.938 -24.752  1.00 33.04 LIG-0.65  OA
ATOM     21 O    ALA C 158     -15.716   3.277 -25.802  1.00 31.17 LIG-0.65  OA
ENDBRANCH 17 19
ENDBRANCH 14 17
ENDBRANCH 12 13
BRANCH 12 22
ATOM     22  CB  HIS C 157     -11.031   6.097 -26.378  1.00 32.09 LIG 0.10  C 
BRANCH 22 23
ATOM     23  CG  HIS C 157     -10.809   7.268 -27.285  1.00 35.38 LIG 0.06  A 
ATOM     24 ND1  HIS C 157     -10.023   7.193 -28.418  1.00 36.48 LIG-0.24  NA
ATOM     25  CE1 HIS C 157     -10.036   8.361 -29.037  1.00 37.27 LIG 0.23  A 
ATOM     26 NE2  HIS C 157     -10.809   9.188 -28.353  1.00 37.33 LIG-0.25  NA
ATOM     27  CD2 HIS C 157     -11.309   8.529 -27.256  1.00 35.91 LIG 0.14  A 
ENDBRANCH 22 23
ENDBRANCH 12 22
ENDBRANCH 9 12
ENDBRANCH 6 8
ENDBRANCH 4 6
ENDBRANCH 1 2
BRANCH 1 28
ATOM     28  CB  ASP C 155     -11.724  12.481 -24.780  1.00 35.23 LIG 0.15  C 
BRANCH 28 29
ATOM     29  CG  ASP C 155     -12.367  13.722 -24.187  1.00 35.97 LIG 0.17  C 
ATOM     30 OD2  ASP C 155     -13.343  14.191 -24.793  1.00 39.40 LIG-0.65  OA
ATOM     31 OD1  ASP C 155     -11.923  14.237 -23.137  1.00 38.01 LIG-0.65  OA
ENDBRANCH 28 29
ENDBRANCH 1 28
BRANCH 1 32
ATOM     32  N   ASP C 155      -9.289  12.494 -24.745  1.00 36.13 LIG-0.34  N 
ATOM     33 H    ASP C 155      -9.449  13.019 -25.408  1.00 36.13 LIG 0.16  HD
ATOM     34  C   HIS C 154      -8.073  12.111 -24.386  1.00 38.66 LIG 0.24  C 
ATOM     35 O    HIS C 154      -7.860  11.395 -23.412  1.00 35.33 LIG-0.27  OA
BRANCH 34 36
ATOM     36  CA  HIS C 154      -6.923  12.633 -25.230  1.00 42.51 LIG 0.18  C 
BRANCH 36 37
ATOM     37  CB  HIS C 154      -6.443  13.987 -24.705  1.00 45.16 LIG 0.10  C 
BRANCH 37 38
ATOM     38  CG  HIS C 154      -7.087  14.389 -23.414  1.00 48.44 LIG 0.06  A 
ATOM     39 ND1  HIS C 154      -8.332  14.981 -23.356  1.00 50.51 LIG-0.24  NA
ATOM     40  CE1 HIS C 154      -8.637  15.238 -22.096  1.00 51.05 LIG 0.23  A 
ATOM     41 NE2  HIS C 154      -7.635  14.837 -21.336  1.00 50.26 LIG-0.25  NA
ATOM     42  CD2 HIS C 154      -6.652  14.304 -22.135  1.00 50.26 LIG 0.14  A 
ENDBRANCH 37 38
ENDBRANCH 36 37
BRANCH 36 43
ATOM     43  N   HIS C 154      -7.422  12.762 -26.585  1.00 45.99 LIG-0.34  N 
ATOM     44  C   ASP C 153      -7.769  11.709 -27.317  1.00 51.00 LIG 0.26  C 
ATOM     45 O    ASP C 153      -7.522  10.544 -26.996  1.00 50.83 LIG-0.27  OA
ATOM     46 H    HIS C 154      -7.472  13.573 -26.866  1.00 45.99 LIG 0.16  HD
BRANCH 44 47
ATOM     47  CA  ASP C 153      -8.507  12.023 -28.614  1.00 53.77 LIG 0.41  C 
ATOM     48  N   ASP C 153      -8.259  10.994 -29.678  1.00 52.50 LIG 0.61  N 
BRANCH 47 49
ATOM     49  CB  ASP C 153     -10.002  12.171 -28.304  1.00 54.86 LIG 0.16  C 
BRANCH 49 50
ATOM     50  CG  ASP C 153     -10.795  12.677 -29.490  1.00 56.45 LIG 0.17  C 
ATOM     51 OD2  ASP C 153     -10.416  12.356 -30.643  1.00 58.24 LIG-0.65  OA
ATOM     52 OD1  ASP C 153     -11.791  13.393 -29.264  1.00 54.42 LIG-0.65  OA
ENDBRANCH 49 50
ENDBRANCH 47 49
ENDBRANCH 44 47
ENDBRANCH 36 43
ENDBRANCH 34 36
ENDBRANCH 1 32
TORSDOF 19
ENDMDL
MODEL 27
USER: ADFR SOLUTION from run 171
USER: SCORE 17.664180 LL:  -4.293 LR: -15.782 RR:   0.000 FEB: -10.114
USER: RMSD 6.966878
USER: SEED 170
USER: STATUS no improvement in best in 6 clusters for 5 generations
USER: GENES 21
USER: genes 0 Translation |==|  0.45837 0.42278 0.56640
USER: genes 1 Rotation |==|  0.62705 0.94257 0.59023 0.67276
USER: genes 2 Torsion [N]-CA--C-[N] |==|  0.20594
USER: genes 3 Torsion [C]-N--CA-[CB] |==|  0.50051
USER: genes 4 Torsion [N]-CA--C-[N] |==|  0.35784
USER: genes 5 Torsion [C]-N--CA-[CB] |==|  0.43055
USER: genes 6 Torsion [N]-CA--C-[N] |==|  0.83079
USER: genes 7 Torsion [C]-N--CA-[CB] |==|  0.84124
USER: genes 8 Torsion [N]-CA--C-[OXT] |==|  0.30057
USER: genes 9 Torsion [N]-CA--CB-[CG] |==|  0.75482
USER: genes 10 Torsion [CA]-CB--CG-[CD2] |==|  0.99678
USER: genes 11 Torsion [C]-CA--CB-[CG] |==|  0.39403
USER: genes 12 Torsion [CA]-CB--CG-[OD2] |==|  0.93215
USER: genes 13 Torsion [C]-CA--N-[C] |==|  0.73986
USER: genes 14 Torsion [N]-C--CA-[N] |==|  0.46838
USER: genes 15 Torsion [C]-CA--CB-[CG] |==|  0.81919
USER: genes 16 Torsion [CA]-CB--CG-[CD2] |==|  0.20125
USER: genes 17 Torsion [C]-CA--N-[C] |==|  0.75630
USER: genes 18 Torsion [N]-C--CA-[N] |==|  0.65070
USER: genes 19 Torsion [C]-CA--CB-[CG] |==|  0.75077
USER: genes 20 Torsion [CA]-CB--CG-[OD2] |==|  0.30119
ROOT
ATOM      1  CA  ASP C 155     -11.247   8.834 -23.173  1.00 34.31 LIG 0.19  C 
ENDROOT
BRANCH 1 2
ATOM      2  C   ASP C 155     -11.977   8.060 -24.258  1.00 33.42 LIG 0.24  C 
ATOM      3 O    ASP C 155     -13.109   7.606 -24.061  1.00 32.60 LIG-0.27  OA
ATOM      4  N   ALA C 156     -11.327   7.943 -25.412  1.00 30.74 LIG-0.35  N 
ATOM      5 H    ALA C 156     -10.572   8.321 -25.573  1.00 30.74 LIG 0.16  HD
BRANCH 4 6
ATOM      6  CA  ALA C 156     -11.841   7.154 -26.518  1.00 30.13 LIG 0.17  C 
ATOM      7  CB  ALA C 156     -10.881   7.205 -27.696  1.00 30.23 LIG 0.04  C 
BRANCH 6 8
ATOM      8  C   ALA C 156     -12.031   5.724 -26.041  1.00 29.70 LIG 0.24  C 
ATOM      9  N   HIS C 157     -13.227   5.195 -26.284  1.00 30.21 LIG-0.35  N 
ATOM     10 H    HIS C 157     -13.845   5.600 -26.723  1.00 30.21 LIG 0.16  HD
ATOM     11 O    ALA C 156     -11.114   5.122 -25.462  1.00 27.33 LIG-0.27  OA
BRANCH 9 12
ATOM     12  CA  HIS C 157     -13.602   3.864 -25.819  1.00 31.06 LIG 0.18  C 
BRANCH 12 13
ATOM     13  C   HIS C 157     -13.056   2.826 -26.783  1.00 30.33 LIG 0.24  C 
ATOM     14  N   ALA C 158     -13.493   2.899 -28.037  1.00 29.79 LIG-0.34  N 
ATOM     15 H    ALA C 158     -14.023   3.513 -28.326  1.00 29.79 LIG 0.16  HD
ATOM     16 O    HIS C 157     -12.271   1.957 -26.390  1.00 30.67 LIG-0.27  OA
BRANCH 14 17
ATOM     17  CA  ALA C 158     -13.099   1.918 -29.050  1.00 31.13 LIG 0.18  C 
ATOM     18  CB  ALA C 158     -11.583   1.862 -29.188  1.00 30.84 LIG 0.04  C 
BRANCH 17 19
ATOM     19  C   ALA C 158     -13.650   0.537 -28.731  1.00 31.87 LIG 0.20  C 
ATOM     20 OXT  ALA C 158     -14.567   0.053 -29.399  1.00 33.04 LIG-0.65  OA
ATOM     21 O    ALA C 158     -13.182  -0.114 -27.793  1.00 31.17 LIG-0.65  OA
ENDBRANCH 17 19
ENDBRANCH 14 17
ENDBRANCH 12 13
BRANCH 12 22
ATOM     22  CB  HIS C 157     -15.124   3.760 -25.678  1.00 32.09 LIG 0.10  C 
BRANCH 22 23
ATOM     23  CG  HIS C 157     -15.622   4.188 -24.332  1.00 35.38 LIG 0.06  A 
ATOM     24 ND1  HIS C 157     -16.956   4.140 -23.982  1.00 36.48 LIG-0.24  NA
ATOM     25  CE1 HIS C 157     -17.095   4.545 -22.731  1.00 37.27 LIG 0.23  A 
ATOM     26 NE2  HIS C 157     -15.898   4.843 -22.253  1.00 37.33 LIG-0.25  NA
ATOM     27  CD2 HIS C 157     -14.959   4.625 -23.231  1.00 35.91 LIG 0.14  A 
ENDBRANCH 22 23
ENDBRANCH 12 22
ENDBRANCH 9 12
ENDBRANCH 6 8
ENDBRANCH 4 6
ENDBRANCH 1 2
BRANCH 1 28
ATOM     28  CB  ASP C 155     -11.903   8.566 -21.831  1.00 35.23 LIG 0.15  C 
BRANCH 28 29
ATOM     29  CG  ASP C 155     -10.901   8.452 -20.696  1.00 35.97 LIG 0.17  C 
ATOM     30 OD2  ASP C 155      -9.744   8.121 -21.001  1.00 39.40 LIG-0.65  OA
ATOM     31 OD1  ASP C 155     -11.238   8.683 -19.514  1.00 38.01 LIG-0.65  OA
ENDBRANCH 28 29
ENDBRANCH 1 28
BRANCH 1 32
ATOM     32  N   ASP C 155     -11.272  10.250 -23.474  1.00 36.13 LIG-0.34  N 
ATOM     33 H    ASP C 155     -11.974  10.659 -23.190  1.00 36.13 LIG 0.16  HD
ATOM     34  C   HIS C 154     -10.288  10.845 -24.131  1.00 38.66 LIG 0.24  C 
ATOM     35 O    HIS C 154      -9.274  10.254 -24.492  1.00 35.33 LIG-0.27  OA
BRANCH 34 36
ATOM     36  CA  HIS C 154     -10.455  12.331 -24.396  1.00 42.51 LIG 0.18  C 
BRANCH 36 37
ATOM     37  CB  HIS C 154     -11.539  12.571 -25.446  1.00 45.16 LIG 0.10  C 
BRANCH 37 38
ATOM     38  CG  HIS C 154     -11.192  12.030 -26.799  1.00 48.44 LIG 0.06  A 
ATOM     39 ND1  HIS C 154     -10.877  12.842 -27.868  1.00 50.51 LIG-0.24  NA
ATOM     40  CE1 HIS C 154     -10.631  12.095 -28.930  1.00 51.05 LIG 0.23  A 
ATOM     41 NE2  HIS C 154     -10.778  10.828 -28.589  1.00 50.26 LIG-0.25  NA
ATOM     42  CD2 HIS C 154     -11.130  10.759 -27.262  1.00 50.26 LIG 0.14  A 
ENDBRANCH 37 38
ENDBRANCH 36 37
BRANCH 36 43
ATOM     43  N   HIS C 154      -9.173  12.818 -24.868  1.00 45.99 LIG-0.34  N 
ATOM     44  C   ASP C 153      -8.224  13.238 -24.039  1.00 51.00 LIG 0.26  C 
ATOM     45 O    ASP C 153      -8.407  13.434 -22.836  1.00 50.83 LIG-0.27  OA
ATOM     46 H    HIS C 154      -9.088  12.809 -25.724  1.00 45.99 LIG 0.16  HD
BRANCH 44 47
ATOM     47  CA  ASP C 153      -6.857  13.476 -24.671  1.00 53.77 LIG 0.41  C 
ATOM     48  N   ASP C 153      -5.764  12.722 -23.972  1.00 52.50 LIG 0.61  N 
BRANCH 47 49
ATOM     49  CB  ASP C 153      -6.934  13.114 -26.160  1.00 54.86 LIG 0.16  C 
BRANCH 49 50
ATOM     50  CG  ASP C 153      -6.603  11.662 -26.424  1.00 56.45 LIG 0.17  C 
ATOM     51 OD2  ASP C 153      -7.533  10.887 -26.756  1.00 58.24 LIG-0.65  OA
ATOM     52 OD1  ASP C 153      -5.415  11.300 -26.298  1.00 54.42 LIG-0.65  OA
ENDBRANCH 49 50
ENDBRANCH 47 49
ENDBRANCH 44 47
ENDBRANCH 36 43
ENDBRANCH 34 36
ENDBRANCH 1 32
TORSDOF 19
ENDMDL
MODEL 28
USER: ADFR SOLUTION from run 195
USER: SCORE 17.299609 LL:  -3.758 LR: -15.743 RR:   0.000 FEB: -10.075
USER: RMSD 11.307783
USER: SEED 194
USER: STATUS no improvement in best in 2 clusters for 5 generations
USER: GENES 21
USER: genes 0 Translation |==|  0.46365 0.43322 0.54974
USER: genes 1 Rotation |==|  0.05037 0.56751 0.70671 0.52333
USER: genes 2 Torsion [N]-CA--C-[N] |==|  0.41111
USER: genes 3 Torsion [C]-N--CA-[CB] |==|  0.21063
USER: genes 4 Torsion [N]-CA--C-[N] |==|  0.65211
USER: genes 5 Torsion [C]-N--CA-[CB] |==|  0.18227
USER: genes 6 Torsion [N]-CA--C-[N] |==|  0.90678
USER: genes 7 Torsion [C]-N--CA-[CB] |==|  0.42269
USER: genes 8 Torsion [N]-CA--C-[OXT] |==|  0.72369
USER: genes 9 Torsion [N]-CA--CB-[CG] |==|  0.60173
USER: genes 10 Torsion [CA]-CB--CG-[CD2] |==|  0.48996
USER: genes 11 Torsion [C]-CA--CB-[CG] |==|  0.28758
USER: genes 12 Torsion [CA]-CB--CG-[OD2] |==|  0.89744
USER: genes 13 Torsion [C]-CA--N-[C] |==|  0.63239
USER: genes 14 Torsion [N]-C--CA-[N] |==|  0.93485
USER: genes 15 Torsion [C]-CA--CB-[CG] |==|  0.23404
USER: genes 16 Torsion [CA]-CB--CG-[CD2] |==|  0.98347
USER: genes 17 Torsion [C]-CA--N-[C] |==|  0.66451
USER: genes 18 Torsion [N]-C--CA-[N] |==|  0.47866
USER: genes 19 Torsion [C]-CA--CB-[CG] |==|  0.83823
USER: genes 20 Torsion [CA]-CB--CG-[OD2] |==|  0.39829
ROOT
ATOM      1  CA  ASP C 155     -11.148   9.116 -23.485  1.00 34.31 LIG 0.19  C 
ENDROOT
BRANCH 1 2
ATOM      2  C   ASP C 155     -10.488  10.364 -24.048  1.00 33.42 LIG 0.24  C 
ATOM      3 O    ASP C 155      -9.562  10.280 -24.862  1.00 32.60 LIG-0.27  OA
ATOM      4  N   ALA C 156     -10.996  11.518 -23.627  1.00 30.74 LIG-0.35  N 
ATOM      5 H    ALA C 156     -11.687  11.576 -23.119  1.00 30.74 LIG 0.16  HD
BRANCH 4 6
ATOM      6  CA  ALA C 156     -10.421  12.801 -23.993  1.00 30.13 LIG 0.17  C 
ATOM      7  CB  ALA C 156     -10.782  13.152 -25.427  1.00 30.23 LIG 0.04  C 
BRANCH 6 8
ATOM      8  C   ALA C 156     -10.946  13.855 -23.033  1.00 29.70 LIG 0.24  C 
ATOM      9  N   HIS C 157     -11.532  14.904 -23.602  1.00 30.21 LIG-0.35  N 
ATOM     10 H    HIS C 157     -11.660  14.975 -24.449  1.00 30.21 LIG 0.16  HD
ATOM     11 O    ALA C 156     -10.815  13.718 -21.807  1.00 27.33 LIG-0.27  OA
BRANCH 9 12
ATOM     12  CA  HIS C 157     -12.016  16.044 -22.830  1.00 31.06 LIG 0.18  C 
BRANCH 12 13
ATOM     13  C   HIS C 157     -12.816  16.959 -23.738  1.00 30.33 LIG 0.24  C 
ATOM     14  N   ALA C 158     -12.411  17.035 -25.003  1.00 29.79 LIG-0.34  N 
ATOM     15 H    ALA C 158     -11.762  16.573 -25.327  1.00 29.79 LIG 0.16  HD
ATOM     16 O    HIS C 157     -13.770  17.607 -23.293  1.00 30.67 LIG-0.27  OA
BRANCH 14 17
ATOM     17  CA  ALA C 158     -13.052  17.933 -25.966  1.00 31.13 LIG 0.18  C 
ATOM     18  CB  ALA C 158     -12.068  18.354 -27.052  1.00 30.84 LIG 0.04  C 
BRANCH 17 19
ATOM     19  C   ALA C 158     -14.282  17.294 -26.590  1.00 31.87 LIG 0.20  C 
ATOM     20 OXT  ALA C 158     -14.225  16.777 -27.709  1.00 33.04 LIG-0.65  OA
ATOM     21 O    ALA C 158     -15.355  17.291 -25.980  1.00 31.17 LIG-0.65  OA
ENDBRANCH 17 19
ENDBRANCH 14 17
ENDBRANCH 12 13
BRANCH 12 22
ATOM     22  CB  HIS C 157     -10.842  16.780 -22.176  1.00 32.09 LIG 0.10  C 
BRANCH 22 23
ATOM     23  CG  HIS C 157     -11.164  17.308 -20.812  1.00 35.38 LIG 0.06  A 
ATOM     24 ND1  HIS C 157     -12.404  17.151 -20.226  1.00 36.48 LIG-0.24  NA
ATOM     25  CE1 HIS C 157     -12.387  17.685 -19.017  1.00 37.27 LIG 0.23  A 
ATOM     26 NE2  HIS C 157     -11.178  18.173 -18.792  1.00 37.33 LIG-0.25  NA
ATOM     27  CD2 HIS C 157     -10.392  17.946 -19.896  1.00 35.91 LIG 0.14  A 
ENDBRANCH 22 23
ENDBRANCH 12 22
ENDBRANCH 9 12
ENDBRANCH 6 8
ENDBRANCH 4 6
ENDBRANCH 1 2
BRANCH 1 28
ATOM     28  CB  ASP C 155     -10.437   8.699 -22.211  1.00 35.23 LIG 0.15  C 
BRANCH 28 29
ATOM     29  CG  ASP C 155     -11.214   9.060 -20.957  1.00 35.97 LIG 0.17  C 
ATOM     30 OD2  ASP C 155     -11.834  10.136 -20.972  1.00 39.40 LIG-0.65  OA
ATOM     31 OD1  ASP C 155     -11.219   8.301 -19.963  1.00 38.01 LIG-0.65  OA
ENDBRANCH 28 29
ENDBRANCH 1 28
BRANCH 1 32
ATOM     32  N   ASP C 155     -11.100   8.048 -24.462  1.00 36.13 LIG-0.34  N 
ATOM     33 H    ASP C 155     -10.328   7.934 -24.824  1.00 36.13 LIG 0.16  HD
ATOM     34  C   HIS C 154     -12.167   7.321 -24.757  1.00 38.66 LIG 0.24  C 
ATOM     35 O    HIS C 154     -13.251   7.469 -24.200  1.00 35.33 LIG-0.27  OA
BRANCH 34 36
ATOM     36  CA  HIS C 154     -11.980   6.247 -25.816  1.00 42.51 LIG 0.18  C 
BRANCH 36 37
ATOM     37  CB  HIS C 154     -11.722   4.889 -25.163  1.00 45.16 LIG 0.10  C 
BRANCH 37 38
ATOM     38  CG  HIS C 154     -12.974   4.168 -24.768  1.00 48.44 LIG 0.06  A 
ATOM     39 ND1  HIS C 154     -12.970   2.872 -24.296  1.00 50.51 LIG-0.24  NA
ATOM     40  CE1 HIS C 154     -14.210   2.492 -24.043  1.00 51.05 LIG 0.23  A 
ATOM     41 NE2  HIS C 154     -15.018   3.494 -24.336  1.00 50.26 LIG-0.25  NA
ATOM     42  CD2 HIS C 154     -14.272   4.553 -24.793  1.00 50.26 LIG 0.14  A 
ENDBRANCH 37 38
ENDBRANCH 36 37
BRANCH 36 43
ATOM     43  N   HIS C 154     -10.845   6.647 -26.623  1.00 45.99 LIG-0.34  N 
ATOM     44  C   ASP C 153     -10.941   6.852 -27.932  1.00 51.00 LIG 0.26  C 
ATOM     45 O    ASP C 153     -11.930   6.541 -28.600  1.00 50.83 LIG-0.27  OA
ATOM     46 H    HIS C 154     -10.114   6.738 -26.180  1.00 45.99 LIG 0.16  HD
BRANCH 44 47
ATOM     47  CA  ASP C 153      -9.731   7.509 -28.586  1.00 53.77 LIG 0.41  C 
ATOM     48  N   ASP C 153      -9.835   7.540 -30.083  1.00 52.50 LIG 0.61  N 
BRANCH 47 49
ATOM     49  CB  ASP C 153      -9.559   8.916 -27.999  1.00 54.86 LIG 0.16  C 
BRANCH 49 50
ATOM     50  CG  ASP C 153     -10.781   9.784 -28.201  1.00 56.45 LIG 0.17  C 
ATOM     51 OD2  ASP C 153     -11.102  10.586 -27.290  1.00 58.24 LIG-0.65  OA
ATOM     52 OD1  ASP C 153     -11.416   9.662 -29.269  1.00 54.42 LIG-0.65  OA
ENDBRANCH 49 50
ENDBRANCH 47 49
ENDBRANCH 44 47
ENDBRANCH 36 43
ENDBRANCH 34 36
ENDBRANCH 1 32
TORSDOF 19
ENDMDL
MODEL 29
USER: ADFR SOLUTION from run 144
USER: SCORE 17.433893 LL:  -4.797 LR: -15.731 RR:   0.000 FEB: -10.064
USER: RMSD 3.802758
USER: SEED 143
USER: STATUS no improvement in best in 5 clusters for 5 generations
USER: GENES 21
USER: genes 0 Translation |==|  0.51203 0.54943 0.49965
USER: genes 1 Rotation |==|  0.43726 0.34523 0.48070 0.97089
USER: genes 2 Torsion [N]-CA--C-[N] |==|  0.35712
USER: genes 3 Torsion [C]-N--CA-[CB] |==|  0.31419
USER: genes 4 Torsion [N]-CA--C-[N] |==|  0.23523
USER: genes 5 Torsion [C]-N--CA-[CB] |==|  0.47222
USER: genes 6 Torsion [N]-CA--C-[N] |==|  0.27507
USER: genes 7 Torsion [C]-N--CA-[CB] |==|  0.40465
USER: genes 8 Torsion [N]-CA--C-[OXT] |==|  0.83694
USER: genes 9 Torsion [N]-CA--CB-[CG] |==|  0.85234
USER: genes 10 Torsion [CA]-CB--CG-[CD2] |==|  0.92853
USER: genes 11 Torsion [C]-CA--CB-[CG] |==|  0.80839
USER: genes 12 Torsion [CA]-CB--CG-[OD2] |==|  0.81261
USER: genes 13 Torsion [C]-CA--N-[C] |==|  0.76145
USER: genes 14 Torsion [N]-C--CA-[N] |==|  0.99710
USER: genes 15 Torsion [C]-CA--CB-[CG] |==|  0.26624
USER: genes 16 Torsion [CA]-CB--CG-[CD2] |==|  0.26021
USER: genes 17 Torsion [C]-CA--N-[C] |==|  0.69918
USER: genes 18 Torsion [N]-C--CA-[N] |==|  0.74760
USER: genes 19 Torsion [C]-CA--CB-[CG] |==|  0.17247
USER: genes 20 Torsion [CA]-CB--CG-[OD2] |==|  0.21536
ROOT
ATOM      1  CA  ASP C 155     -10.240  12.254 -24.425  1.00 34.31 LIG 0.19  C 
ENDROOT
BRANCH 1 2
ATOM      2  C   ASP C 155     -10.057  10.941 -23.682  1.00 33.42 LIG 0.24  C 
ATOM      3 O    ASP C 155      -8.932  10.548 -23.355  1.00 32.60 LIG-0.27  OA
ATOM      4  N   ALA C 156     -11.178  10.284 -23.396  1.00 30.74 LIG-0.35  N 
ATOM      5 H    ALA C 156     -11.964  10.593 -23.558  1.00 30.74 LIG 0.16  HD
BRANCH 4 6
ATOM      6  CA  ALA C 156     -11.175   8.971 -22.777  1.00 30.13 LIG 0.17  C 
ATOM      7  CB  ALA C 156     -11.758   9.046 -21.375  1.00 30.23 LIG 0.04  C 
BRANCH 6 8
ATOM      8  C   ALA C 156     -11.987   8.027 -23.647  1.00 29.70 LIG 0.24  C 
ATOM      9  N   HIS C 157     -11.325   7.469 -24.657  1.00 30.21 LIG-0.35  N 
ATOM     10 H    HIS C 157     -10.484   7.582 -24.794  1.00 30.21 LIG 0.16  HD
ATOM     11 O    ALA C 156     -13.185   7.817 -23.408  1.00 27.33 LIG-0.27  OA
BRANCH 9 12
ATOM     12  CA  HIS C 157     -11.976   6.604 -25.635  1.00 31.06 LIG 0.18  C 
BRANCH 12 13
ATOM     13  C   HIS C 157     -12.425   5.325 -24.952  1.00 30.33 LIG 0.24  C 
ATOM     14  N   ALA C 158     -13.706   5.265 -24.599  1.00 29.79 LIG-0.34  N 
ATOM     15 H    ALA C 158     -14.281   5.881 -24.772  1.00 29.79 LIG 0.16  HD
ATOM     16 O    HIS C 157     -11.617   4.419 -24.724  1.00 30.67 LIG-0.27  OA
BRANCH 14 17
ATOM     17  CA  ALA C 158     -14.253   4.117 -23.871  1.00 31.13 LIG 0.18  C 
ATOM     18  CB  ALA C 158     -15.341   4.560 -22.901  1.00 30.84 LIG 0.04  C 
BRANCH 17 19
ATOM     19  C   ALA C 158     -14.795   3.062 -24.822  1.00 31.87 LIG 0.20  C 
ATOM     20 OXT  ALA C 158     -15.689   3.337 -25.627  1.00 33.04 LIG-0.65  OA
ATOM     21 O    ALA C 158     -14.344   1.913 -24.794  1.00 31.17 LIG-0.65  OA
ENDBRANCH 17 19
ENDBRANCH 14 17
ENDBRANCH 12 13
BRANCH 12 22
ATOM     22  CB  HIS C 157     -11.028   6.317 -26.805  1.00 32.09 LIG 0.10  C 
BRANCH 22 23
ATOM     23  CG  HIS C 157     -10.466   7.559 -27.426  1.00 35.38 LIG 0.06  A 
ATOM     24 ND1  HIS C 157      -9.289   7.562 -28.147  1.00 36.48 LIG-0.24  NA
ATOM     25  CE1 HIS C 157      -9.059   8.782 -28.602  1.00 37.27 LIG 0.23  A 
ATOM     26 NE2  HIS C 157     -10.049   9.568 -28.211  1.00 37.33 LIG-0.25  NA
ATOM     27  CD2 HIS C 157     -10.944   8.827 -27.478  1.00 35.91 LIG 0.14  A 
ENDBRANCH 22 23
ENDBRANCH 12 22
ENDBRANCH 9 12
ENDBRANCH 6 8
ENDBRANCH 4 6
ENDBRANCH 1 2
BRANCH 1 28
ATOM     28  CB  ASP C 155      -9.735  12.105 -25.848  1.00 35.23 LIG 0.15  C 
BRANCH 28 29
ATOM     29  CG  ASP C 155      -8.227  11.952 -25.925  1.00 35.97 LIG 0.17  C 
ATOM     30 OD2  ASP C 155      -7.546  12.939 -25.602  1.00 39.40 LIG-0.65  OA
ATOM     31 OD1  ASP C 155      -7.707  10.878 -26.300  1.00 38.01 LIG-0.65  OA
ENDBRANCH 28 29
ENDBRANCH 1 28
BRANCH 1 32
ATOM     32  N   ASP C 155      -9.525  13.311 -23.742  1.00 36.13 LIG-0.34  N 
ATOM     33 H    ASP C 155      -8.731  13.453 -24.043  1.00 36.13 LIG 0.16  HD
ATOM     34  C   HIS C 154     -10.065  13.991 -22.742  1.00 38.66 LIG 0.24  C 
ATOM     35 O    HIS C 154     -11.214  13.804 -22.352  1.00 35.33 LIG-0.27  OA
BRANCH 34 36
ATOM     36  CA  HIS C 154      -9.194  15.059 -22.103  1.00 42.51 LIG 0.18  C 
BRANCH 36 37
ATOM     37  CB  HIS C 154      -9.845  16.436 -22.243  1.00 45.16 LIG 0.10  C 
BRANCH 37 38
ATOM     38  CG  HIS C 154     -10.637  16.847 -21.041  1.00 48.44 LIG 0.06  A 
ATOM     39 ND1  HIS C 154     -11.966  16.515 -20.875  1.00 50.51 LIG-0.24  NA
ATOM     40  CE1 HIS C 154     -12.407  17.022 -19.737  1.00 51.05 LIG 0.23  A 
ATOM     41 NE2  HIS C 154     -11.413  17.672 -19.160  1.00 50.26 LIG-0.25  NA
ATOM     42  CD2 HIS C 154     -10.296  17.581 -19.955  1.00 50.26 LIG 0.14  A 
ENDBRANCH 37 38
ENDBRANCH 36 37
BRANCH 36 43
ATOM     43  N   HIS C 154      -7.919  15.027 -22.791  1.00 45.99 LIG-0.34  N 
ATOM     44  C   ASP C 153      -6.815  14.557 -22.220  1.00 51.00 LIG 0.26  C 
ATOM     45 O    ASP C 153      -6.728  14.294 -21.019  1.00 50.83 LIG-0.27  OA
ATOM     46 H    HIS C 154      -7.945  15.336 -23.594  1.00 45.99 LIG 0.16  HD
BRANCH 44 47
ATOM     47  CA  ASP C 153      -5.625  14.358 -23.152  1.00 53.77 LIG 0.41  C 
ATOM     48  N   ASP C 153      -5.586  12.979 -23.744  1.00 52.50 LIG 0.61  N 
BRANCH 47 49
ATOM     49  CB  ASP C 153      -5.666  15.440 -24.239  1.00 54.86 LIG 0.16  C 
BRANCH 49 50
ATOM     50  CG  ASP C 153      -5.544  16.838 -23.673  1.00 56.45 LIG 0.17  C 
ATOM     51 OD2  ASP C 153      -4.408  17.245 -23.325  1.00 58.24 LIG-0.65  OA
ATOM     52 OD1  ASP C 153      -6.582  17.524 -23.579  1.00 54.42 LIG-0.65  OA
ENDBRANCH 49 50
ENDBRANCH 47 49
ENDBRANCH 44 47
ENDBRANCH 36 43
ENDBRANCH 34 36
ENDBRANCH 1 32
TORSDOF 19
ENDMDL
MODEL 30
USER: ADFR SOLUTION from run 131
USER: SCORE 18.806424 LL:  -4.224 LR: -15.701 RR:   0.000 FEB: -10.034
USER: RMSD 11.659700
USER: SEED 130
USER: STATUS 1 or 2 clusters left
USER: GENES 21
USER: genes 0 Translation |==|  0.38557 0.32224 0.44817
USER: genes 1 Rotation |==|  0.05386 0.51166 0.51178 0.72514
USER: genes 2 Torsion [N]-CA--C-[N] |==|  0.35943
USER: genes 3 Torsion [C]-N--CA-[CB] |==|  0.87988
USER: genes 4 Torsion [N]-CA--C-[N] |==|  0.38464
USER: genes 5 Torsion [C]-N--CA-[CB] |==|  0.13406
USER: genes 6 Torsion [N]-CA--C-[N] |==|  0.66667
USER: genes 7 Torsion [C]-N--CA-[CB] |==|  0.38216
USER: genes 8 Torsion [N]-CA--C-[OXT] |==|  0.44346
USER: genes 9 Torsion [N]-CA--CB-[CG] |==|  0.65457
USER: genes 10 Torsion [CA]-CB--CG-[CD2] |==|  0.18659
USER: genes 11 Torsion [C]-CA--CB-[CG] |==|  0.67236
USER: genes 12 Torsion [CA]-CB--CG-[OD2] |==|  0.24320
USER: genes 13 Torsion [C]-CA--N-[C] |==|  0.61511
USER: genes 14 Torsion [N]-C--CA-[N] |==|  0.34758
USER: genes 15 Torsion [C]-CA--CB-[CG] |==|  0.15165
USER: genes 16 Torsion [CA]-CB--CG-[CD2] |==|  0.29008
USER: genes 17 Torsion [C]-CA--N-[C] |==|  0.78842
USER: genes 18 Torsion [N]-C--CA-[N] |==|  0.37849
USER: genes 19 Torsion [C]-CA--CB-[CG] |==|  0.68001
USER: genes 20 Torsion [CA]-CB--CG-[OD2] |==|  0.67367
ROOT
ATOM      1  CA  ASP C 155     -12.612   6.119 -25.390  1.00 34.31 LIG 0.19  C 
ENDROOT
BRANCH 1 2
ATOM      2  C   ASP C 155     -11.947   7.042 -24.382  1.00 33.42 LIG 0.24  C 
ATOM      3 O    ASP C 155     -10.817   6.797 -23.946  1.00 32.60 LIG-0.27  OA
ATOM      4  N   ALA C 156     -12.650   8.118 -24.042  1.00 30.74 LIG-0.35  N 
ATOM      5 H    ALA C 156     -13.403   8.327 -24.400  1.00 30.74 LIG 0.16  HD
BRANCH 4 6
ATOM      6  CA  ALA C 156     -12.202   9.049 -23.021  1.00 30.13 LIG 0.17  C 
ATOM      7  CB  ALA C 156     -11.654   8.295 -21.820  1.00 30.23 LIG 0.04  C 
BRANCH 6 8
ATOM      8  C   ALA C 156     -11.136   9.948 -23.624  1.00 29.70 LIG 0.24  C 
ATOM      9  N   HIS C 157     -11.215  11.232 -23.290  1.00 30.21 LIG-0.35  N 
ATOM     10 H    HIS C 157     -11.792  11.543 -22.733  1.00 30.21 LIG 0.16  HD
ATOM     11 O    ALA C 156     -10.268   9.483 -24.378  1.00 27.33 LIG-0.27  OA
BRANCH 9 12
ATOM     12  CA  HIS C 157     -10.320  12.242 -23.846  1.00 31.06 LIG 0.18  C 
BRANCH 12 13
ATOM     13  C   HIS C 157     -10.805  13.620 -23.434  1.00 30.33 LIG 0.24  C 
ATOM     14  N   ALA C 158     -11.123  14.453 -24.422  1.00 29.79 LIG-0.34  N 
ATOM     15 H    ALA C 158     -11.106  14.238 -25.255  1.00 29.79 LIG 0.16  HD
ATOM     16 O    HIS C 157     -10.864  13.932 -22.240  1.00 30.67 LIG-0.27  OA
BRANCH 14 17
ATOM     17  CA  ALA C 158     -11.538  15.833 -24.164  1.00 31.13 LIG 0.18  C 
ATOM     18  CB  ALA C 158     -10.886  16.789 -25.156  1.00 30.84 LIG 0.04  C 
BRANCH 17 19
ATOM     19  C   ALA C 158     -13.051  15.978 -24.210  1.00 31.87 LIG 0.20  C 
ATOM     20 OXT  ALA C 158     -13.610  16.935 -23.668  1.00 33.04 LIG-0.65  OA
ATOM     21 O    ALA C 158     -13.736  15.132 -24.791  1.00 31.17 LIG-0.65  OA
ENDBRANCH 17 19
ENDBRANCH 14 17
ENDBRANCH 12 13
BRANCH 12 22
ATOM     22  CB  HIS C 157     -10.242  12.102 -25.370  1.00 32.09 LIG 0.10  C 
BRANCH 22 23
ATOM     23  CG  HIS C 157      -8.843  11.932 -25.876  1.00 35.38 LIG 0.06  A 
ATOM     24 ND1  HIS C 157      -8.187  12.912 -26.593  1.00 36.48 LIG-0.24  NA
ATOM     25  CE1 HIS C 157      -6.963  12.501 -26.877  1.00 37.27 LIG 0.23  A 
ATOM     26 NE2  HIS C 157      -6.797  11.294 -26.359  1.00 37.33 LIG-0.25  NA
ATOM     27  CD2 HIS C 157      -7.955  10.917 -25.724  1.00 35.91 LIG 0.14  A 
ENDBRANCH 22 23
ENDBRANCH 12 22
ENDBRANCH 9 12
ENDBRANCH 6 8
ENDBRANCH 4 6
ENDBRANCH 1 2
BRANCH 1 28
ATOM     28  CB  ASP C 155     -13.032   4.835 -24.700  1.00 35.23 LIG 0.15  C 
BRANCH 28 29
ATOM     29  CG  ASP C 155     -12.338   3.608 -25.263  1.00 35.97 LIG 0.17  C 
ATOM     30 OD2  ASP C 155     -11.240   3.308 -24.768  1.00 39.40 LIG-0.65  OA
ATOM     31 OD1  ASP C 155     -12.859   2.939 -26.183  1.00 38.01 LIG-0.65  OA
ENDBRANCH 28 29
ENDBRANCH 1 28
BRANCH 1 32
ATOM     32  N   ASP C 155     -11.698   5.833 -26.476  1.00 36.13 LIG-0.34  N 
ATOM     33 H    ASP C 155     -10.887   5.689 -26.227  1.00 36.13 LIG 0.16  HD
ATOM     34  C   HIS C 154     -12.098   5.802 -27.738  1.00 38.66 LIG 0.24  C 
ATOM     35 O    HIS C 154     -13.267   5.970 -28.072  1.00 35.33 LIG-0.27  OA
BRANCH 34 36
ATOM     36  CA  HIS C 154     -11.029   5.510 -28.778  1.00 42.51 LIG 0.18  C 
BRANCH 36 37
ATOM     37  CB  HIS C 154     -10.817   6.722 -29.685  1.00 45.16 LIG 0.10  C 
BRANCH 37 38
ATOM     38  CG  HIS C 154     -10.505   7.981 -28.936  1.00 48.44 LIG 0.06  A 
ATOM     39 ND1  HIS C 154     -11.468   8.713 -28.273  1.00 50.51 LIG-0.24  NA
ATOM     40  CE1 HIS C 154     -10.910   9.775 -27.719  1.00 51.05 LIG 0.23  A 
ATOM     41 NE2  HIS C 154      -9.620   9.760 -28.001  1.00 50.26 LIG-0.25  NA
ATOM     42  CD2 HIS C 154      -9.340   8.650 -28.762  1.00 50.26 LIG 0.14  A 
ENDBRANCH 37 38
ENDBRANCH 36 37
BRANCH 36 43
ATOM     43  N   HIS C 154     -11.495   4.374 -29.548  1.00 45.99 LIG-0.34  N 
ATOM     44  C   ASP C 153     -11.452   3.132 -29.080  1.00 51.00 LIG 0.26  C 
ATOM     45 O    ASP C 153     -10.849   2.811 -28.053  1.00 50.83 LIG-0.27  OA
ATOM     46 H    HIS C 154     -11.798   4.578 -30.327  1.00 45.99 LIG 0.16  HD
BRANCH 44 47
ATOM     47  CA  ASP C 153     -12.206   2.092 -29.901  1.00 53.77 LIG 0.41  C 
ATOM     48  N   ASP C 153     -11.424   0.822 -30.074  1.00 52.50 LIG 0.61  N 
BRANCH 47 49
ATOM     49  CB  ASP C 153     -13.566   1.835 -29.239  1.00 54.86 LIG 0.16  C 
BRANCH 49 50
ATOM     50  CG  ASP C 153     -13.701   0.421 -28.716  1.00 56.45 LIG 0.17  C 
ATOM     51 OD2  ASP C 153     -14.591  -0.315 -29.207  1.00 58.24 LIG-0.65  OA
ATOM     52 OD1  ASP C 153     -12.918   0.053 -27.817  1.00 54.42 LIG-0.65  OA
ENDBRANCH 49 50
ENDBRANCH 47 49
ENDBRANCH 44 47
ENDBRANCH 36 43
ENDBRANCH 34 36
ENDBRANCH 1 32
TORSDOF 19
ENDMDL
MODEL 31
USER: ADFR SOLUTION from run 8
USER: SCORE 17.347355 LL:  -4.011 LR: -15.680 RR:   0.000 FEB: -10.013
USER: RMSD 6.256560
USER: SEED 680280
USER: STATUS no improvement in best in 12 clusters for 5 generations
USER: GENES 21
USER: genes 0 Translation |==|  0.50353 0.53845 0.48769
USER: genes 1 Rotation |==|  0.43889 0.77054 0.38977 0.90115
USER: genes 2 Torsion [N]-CA--C-[N] |==|  0.37679
USER: genes 3 Torsion [C]-N--CA-[CB] |==|  0.54444
USER: genes 4 Torsion [N]-CA--C-[N] |==|  0.32462
USER: genes 5 Torsion [C]-N--CA-[CB] |==|  0.39765
USER: genes 6 Torsion [N]-CA--C-[N] |==|  0.33088
USER: genes 7 Torsion [C]-N--CA-[CB] |==|  0.49391
USER: genes 8 Torsion [N]-CA--C-[OXT] |==|  0.93146
USER: genes 9 Torsion [N]-CA--CB-[CG] |==|  0.83412
USER: genes 10 Torsion [CA]-CB--CG-[CD2] |==|  0.83384
USER: genes 11 Torsion [C]-CA--CB-[CG] |==|  0.38702
USER: genes 12 Torsion [CA]-CB--CG-[OD2] |==|  0.89790
USER: genes 13 Torsion [C]-CA--N-[C] |==|  0.85799
USER: genes 14 Torsion [N]-C--CA-[N] |==|  0.46698
USER: genes 15 Torsion [C]-CA--CB-[CG] |==|  0.45087
USER: genes 16 Torsion [CA]-CB--CG-[CD2] |==|  0.01008
USER: genes 17 Torsion [C]-CA--N-[C] |==|  0.79100
USER: genes 18 Torsion [N]-C--CA-[N] |==|  0.13004
USER: genes 19 Torsion [C]-CA--CB-[CG] |==|  0.72927
USER: genes 20 Torsion [CA]-CB--CG-[OD2] |==|  0.33109
ROOT
ATOM      1  CA  ASP C 155     -10.400  11.957 -24.649  1.00 34.31 LIG 0.19  C 
ENDROOT
BRANCH 1 2
ATOM      2  C   ASP C 155     -10.405  10.449 -24.464  1.00 33.42 LIG 0.24  C 
ATOM      3 O    ASP C 155     -10.443   9.690 -25.439  1.00 32.60 LIG-0.27  OA
ATOM      4  N   ALA C 156     -10.337  10.027 -23.205  1.00 30.74 LIG-0.35  N 
ATOM      5 H    ALA C 156     -10.237  10.553 -22.532  1.00 30.74 LIG 0.16  HD
BRANCH 4 6
ATOM      6  CA  ALA C 156     -10.429   8.622 -22.849  1.00 30.13 LIG 0.17  C 
ATOM      7  CB  ALA C 156     -10.715   8.471 -21.363  1.00 30.23 LIG 0.04  C 
BRANCH 6 8
ATOM      8  C   ALA C 156     -11.533   7.987 -23.676  1.00 29.70 LIG 0.24  C 
ATOM      9  N   HIS C 157     -11.142   7.031 -24.513  1.00 30.21 LIG-0.35  N 
ATOM     10 H    HIS C 157     -10.333   6.743 -24.560  1.00 30.21 LIG 0.16  HD
ATOM     11 O    ALA C 156     -12.709   8.364 -23.560  1.00 27.33 LIG-0.27  OA
BRANCH 9 12
ATOM     12  CA  HIS C 157     -12.061   6.376 -25.438  1.00 31.06 LIG 0.18  C 
BRANCH 12 13
ATOM     13  C   HIS C 157     -12.600   5.111 -24.796  1.00 30.33 LIG 0.24  C 
ATOM     14  N   ALA C 158     -13.917   5.056 -24.619  1.00 29.79 LIG-0.34  N 
ATOM     15 H    ALA C 158     -14.463   5.668 -24.880  1.00 29.79 LIG 0.16  HD
ATOM     16 O    HIS C 157     -11.831   4.210 -24.444  1.00 30.67 LIG-0.27  OA
BRANCH 14 17
ATOM     17  CA  ALA C 158     -14.559   3.923 -23.949  1.00 31.13 LIG 0.18  C 
ATOM     18  CB  ALA C 158     -16.062   4.142 -23.833  1.00 30.84 LIG 0.04  C 
BRANCH 17 19
ATOM     19  C   ALA C 158     -14.273   2.615 -24.670  1.00 31.87 LIG 0.20  C 
ATOM     20 OXT  ALA C 158     -13.991   2.606 -25.871  1.00 33.04 LIG-0.65  OA
ATOM     21 O    ALA C 158     -14.324   1.546 -24.056  1.00 31.17 LIG-0.65  OA
ENDBRANCH 17 19
ENDBRANCH 14 17
ENDBRANCH 12 13
BRANCH 12 22
ATOM     22  CB  HIS C 157     -11.357   6.081 -26.767  1.00 32.09 LIG 0.10  C 
BRANCH 22 23
ATOM     23  CG  HIS C 157     -10.840   7.311 -27.446  1.00 35.38 LIG 0.06  A 
ATOM     24 ND1  HIS C 157      -9.512   7.470 -27.788  1.00 36.48 LIG-0.24  NA
ATOM     25  CE1 HIS C 157      -9.354   8.630 -28.401  1.00 37.27 LIG 0.23  A 
ATOM     26 NE2  HIS C 157     -10.533   9.226 -28.479  1.00 37.33 LIG-0.25  NA
ATOM     27  CD2 HIS C 157     -11.479   8.421 -27.894  1.00 35.91 LIG 0.14  A 
ENDBRANCH 22 23
ENDBRANCH 12 22
ENDBRANCH 9 12
ENDBRANCH 6 8
ENDBRANCH 4 6
ENDBRANCH 1 2
BRANCH 1 28
ATOM     28  CB  ASP C 155     -11.809  12.436 -24.947  1.00 35.23 LIG 0.15  C 
BRANCH 28 29
ATOM     29  CG  ASP C 155     -12.156  13.730 -24.233  1.00 35.97 LIG 0.17  C 
ATOM     30 OD2  ASP C 155     -11.702  13.877 -23.087  1.00 39.40 LIG-0.65  OA
ATOM     31 OD1  ASP C 155     -12.867  14.598 -24.786  1.00 38.01 LIG-0.65  OA
ENDBRANCH 28 29
ENDBRANCH 1 28
BRANCH 1 32
ATOM     32  N   ASP C 155      -9.505  12.320 -25.728  1.00 36.13 LIG-0.34  N 
ATOM     33 H    ASP C 155      -9.856  12.837 -26.319  1.00 36.13 LIG 0.16  HD
ATOM     34  C   HIS C 154      -8.256  11.883 -25.779  1.00 38.66 LIG 0.24  C 
ATOM     35 O    HIS C 154      -7.758  11.180 -24.904  1.00 35.33 LIG-0.27  OA
BRANCH 34 36
ATOM     36  CA  HIS C 154      -7.434  12.325 -26.978  1.00 42.51 LIG 0.18  C 
BRANCH 36 37
ATOM     37  CB  HIS C 154      -7.911  11.617 -28.246  1.00 45.16 LIG 0.10  C 
BRANCH 37 38
ATOM     38  CG  HIS C 154      -7.458  12.283 -29.509  1.00 48.44 LIG 0.06  A 
ATOM     39 ND1  HIS C 154      -7.822  11.833 -30.761  1.00 50.51 LIG-0.24  NA
ATOM     40  CE1 HIS C 154      -7.267  12.600 -31.682  1.00 51.05 LIG 0.23  A 
ATOM     41 NE2  HIS C 154      -6.556  13.531 -31.073  1.00 50.26 LIG-0.25  NA
ATOM     42  CD2 HIS C 154      -6.656  13.355 -29.714  1.00 50.26 LIG 0.14  A 
ENDBRANCH 37 38
ENDBRANCH 36 37
BRANCH 36 43
ATOM     43  N   HIS C 154      -6.056  11.980 -26.690  1.00 45.99 LIG-0.34  N 
ATOM     44  C   ASP C 153      -5.313  12.676 -25.837  1.00 51.00 LIG 0.26  C 
ATOM     45 O    ASP C 153      -5.650  13.766 -25.370  1.00 50.83 LIG-0.27  OA
ATOM     46 H    HIS C 154      -5.769  11.291 -27.119  1.00 45.99 LIG 0.16  HD
BRANCH 44 47
ATOM     47  CA  ASP C 153      -3.980  12.041 -25.456  1.00 53.77 LIG 0.41  C 
ATOM     48  N   ASP C 153      -3.224  11.535 -26.650  1.00 52.50 LIG 0.61  N 
BRANCH 47 49
ATOM     49  CB  ASP C 153      -3.160  13.063 -24.657  1.00 54.86 LIG 0.16  C 
BRANCH 49 50
ATOM     50  CG  ASP C 153      -2.155  13.800 -25.514  1.00 56.45 LIG 0.17  C 
ATOM     51 OD2  ASP C 153      -2.254  15.048 -25.612  1.00 58.24 LIG-0.65  OA
ATOM     52 OD1  ASP C 153      -1.270  13.131 -26.085  1.00 54.42 LIG-0.65  OA
ENDBRANCH 49 50
ENDBRANCH 47 49
ENDBRANCH 44 47
ENDBRANCH 36 43
ENDBRANCH 34 36
ENDBRANCH 1 32
TORSDOF 19
ENDMDL
MODEL 32
USER: ADFR SOLUTION from run 88
USER: SCORE 17.698942 LL:  -4.503 LR: -15.678 RR:   0.000 FEB: -10.011
USER: RMSD 11.851339
USER: SEED 87
USER: STATUS no improvement in best in 2 clusters for 5 generations
USER: GENES 21
USER: genes 0 Translation |==|  0.44812 0.33790 0.44278
USER: genes 1 Rotation |==|  0.49838 0.30661 0.95567 0.57043
USER: genes 2 Torsion [N]-CA--C-[N] |==|  0.43277
USER: genes 3 Torsion [C]-N--CA-[CB] |==|  0.39144
USER: genes 4 Torsion [N]-CA--C-[N] |==|  0.29482
USER: genes 5 Torsion [C]-N--CA-[CB] |==|  0.85293
USER: genes 6 Torsion [N]-CA--C-[N] |==|  0.31168
USER: genes 7 Torsion [C]-N--CA-[CB] |==|  0.20702
USER: genes 8 Torsion [N]-CA--C-[OXT] |==|  0.03917
USER: genes 9 Torsion [N]-CA--CB-[CG] |==|  0.69350
USER: genes 10 Torsion [CA]-CB--CG-[CD2] |==|  0.48081
USER: genes 11 Torsion [C]-CA--CB-[CG] |==|  0.60257
USER: genes 12 Torsion [CA]-CB--CG-[OD2] |==|  0.30047
USER: genes 13 Torsion [C]-CA--N-[C] |==|  0.75101
USER: genes 14 Torsion [N]-C--CA-[N] |==|  0.22464
USER: genes 15 Torsion [C]-CA--CB-[CG] |==|  0.26473
USER: genes 16 Torsion [CA]-CB--CG-[CD2] |==|  0.75074
USER: genes 17 Torsion [C]-CA--N-[C] |==|  0.76925
USER: genes 18 Torsion [N]-C--CA-[N] |==|  0.79257
USER: genes 19 Torsion [C]-CA--CB-[CG] |==|  0.75900
USER: genes 20 Torsion [CA]-CB--CG-[OD2] |==|  0.00278
ROOT
ATOM      1  CA  ASP C 155     -11.439   6.542 -25.491  1.00 34.31 LIG 0.19  C 
ENDROOT
BRANCH 1 2
ATOM      2  C   ASP C 155     -11.656   7.526 -24.353  1.00 33.42 LIG 0.24  C 
ATOM      3 O    ASP C 155     -12.780   7.977 -24.111  1.00 32.60 LIG-0.27  OA
ATOM      4  N   ALA C 156     -10.572   7.827 -23.643  1.00 30.74 LIG-0.35  N 
ATOM      5 H    ALA C 156      -9.806   7.456 -23.765  1.00 30.74 LIG 0.16  HD
BRANCH 4 6
ATOM      6  CA  ALA C 156     -10.587   8.821 -22.585  1.00 30.13 LIG 0.17  C 
ATOM      7  CB  ALA C 156      -9.731   8.361 -21.415  1.00 30.23 LIG 0.04  C 
BRANCH 6 8
ATOM      8  C   ALA C 156     -10.067  10.132 -23.148  1.00 29.70 LIG 0.24  C 
ATOM      9  N   HIS C 157     -10.987  11.068 -23.358  1.00 30.21 LIG-0.35  N 
ATOM     10 H    HIS C 157     -11.816  10.976 -23.148  1.00 30.21 LIG 0.16  HD
ATOM     11 O    ALA C 156      -8.861  10.283 -23.392  1.00 27.33 LIG-0.27  OA
BRANCH 9 12
ATOM     12  CA  HIS C 157     -10.670  12.354 -23.972  1.00 31.06 LIG 0.18  C 
BRANCH 12 13
ATOM     13  C   HIS C 157     -10.346  12.141 -25.439  1.00 30.33 LIG 0.24  C 
ATOM     14  N   ALA C 158     -11.214  12.641 -26.313  1.00 29.79 LIG-0.34  N 
ATOM     15 H    ALA C 158     -11.908  13.100 -26.091  1.00 29.79 LIG 0.16  HD
ATOM     16 O    HIS C 157      -9.337  11.510 -25.773  1.00 30.67 LIG-0.27  OA
BRANCH 14 17
ATOM     17  CA  ALA C 158     -11.057  12.446 -27.756  1.00 31.13 LIG 0.18  C 
ATOM     18  CB  ALA C 158     -11.422  11.021 -28.153  1.00 30.84 LIG 0.04  C 
BRANCH 17 19
ATOM     19  C   ALA C 158     -11.891  13.442 -28.547  1.00 31.87 LIG 0.20  C 
ATOM     20 OXT  ALA C 158     -12.380  14.432 -27.997  1.00 33.04 LIG-0.65  OA
ATOM     21 O    ALA C 158     -12.090  13.263 -29.751  1.00 31.17 LIG-0.65  OA
ENDBRANCH 17 19
ENDBRANCH 14 17
ENDBRANCH 12 13
BRANCH 12 22
ATOM     22  CB  HIS C 157      -9.511  13.026 -23.228  1.00 32.09 LIG 0.10  C 
BRANCH 22 23
ATOM     23  CG  HIS C 157      -9.930  14.239 -22.457  1.00 35.38 LIG 0.06  A 
ATOM     24 ND1  HIS C 157     -11.217  14.738 -22.496  1.00 36.48 LIG-0.24  NA
ATOM     25  CE1 HIS C 157     -11.303  15.788 -21.697  1.00 37.27 LIG 0.23  A 
ATOM     26 NE2  HIS C 157     -10.122  15.982 -21.132  1.00 37.33 LIG-0.25  NA
ATOM     27  CD2 HIS C 157      -9.247  15.025 -21.587  1.00 35.91 LIG 0.14  A 
ENDBRANCH 22 23
ENDBRANCH 12 22
ENDBRANCH 9 12
ENDBRANCH 6 8
ENDBRANCH 4 6
ENDBRANCH 1 2
BRANCH 1 28
ATOM     28  CB  ASP C 155     -10.914   7.283 -26.707  1.00 35.23 LIG 0.15  C 
BRANCH 28 29
ATOM     29  CG  ASP C 155     -11.465   6.740 -28.013  1.00 35.97 LIG 0.17  C 
ATOM     30 OD2  ASP C 155     -12.294   7.446 -28.609  1.00 39.40 LIG-0.65  OA
ATOM     31 OD1  ASP C 155     -11.094   5.630 -28.456  1.00 38.01 LIG-0.65  OA
ENDBRANCH 28 29
ENDBRANCH 1 28
BRANCH 1 32
ATOM     32  N   ASP C 155     -12.681   5.869 -25.807  1.00 36.13 LIG-0.34  N 
ATOM     33 H    ASP C 155     -13.155   6.265 -26.406  1.00 36.13 LIG 0.16  HD
ATOM     34  C   HIS C 154     -13.038   4.742 -25.212  1.00 38.66 LIG 0.24  C 
ATOM     35 O    HIS C 154     -12.331   4.169 -24.388  1.00 35.33 LIG-0.27  OA
BRANCH 34 36
ATOM     36  CA  HIS C 154     -14.377   4.155 -25.624  1.00 42.51 LIG 0.18  C 
BRANCH 36 37
ATOM     37  CB  HIS C 154     -14.902   3.206 -24.547  1.00 45.16 LIG 0.10  C 
BRANCH 37 38
ATOM     38  CG  HIS C 154     -15.855   3.855 -23.590  1.00 48.44 LIG 0.06  A 
ATOM     39 ND1  HIS C 154     -17.216   3.904 -23.812  1.00 50.51 LIG-0.24  NA
ATOM     40  CE1 HIS C 154     -17.800   4.547 -22.817  1.00 51.05 LIG 0.23  A 
ATOM     41 NE2  HIS C 154     -16.867   4.919 -21.959  1.00 50.26 LIG-0.25  NA
ATOM     42  CD2 HIS C 154     -15.642   4.501 -22.419  1.00 50.26 LIG 0.14  A 
ENDBRANCH 37 38
ENDBRANCH 36 37
BRANCH 36 43
ATOM     43  N   HIS C 154     -14.157   3.441 -26.867  1.00 45.99 LIG-0.34  N 
ATOM     44  C   ASP C 153     -14.148   4.054 -28.045  1.00 51.00 LIG 0.26  C 
ATOM     45 O    ASP C 153     -14.510   5.221 -28.211  1.00 50.83 LIG-0.27  OA
ATOM     46 H    HIS C 154     -14.034   2.596 -26.769  1.00 45.99 LIG 0.16  HD
BRANCH 44 47
ATOM     47  CA  ASP C 153     -13.654   3.215 -29.219  1.00 53.77 LIG 0.41  C 
ATOM     48  N   ASP C 153     -12.165   3.034 -29.208  1.00 52.50 LIG 0.61  N 
BRANCH 47 49
ATOM     49  CB  ASP C 153     -14.390   1.868 -29.203  1.00 54.86 LIG 0.16  C 
BRANCH 49 50
ATOM     50  CG  ASP C 153     -13.706   0.842 -28.327  1.00 56.45 LIG 0.17  C 
ATOM     51 OD2  ASP C 153     -12.665   1.179 -27.712  1.00 58.24 LIG-0.65  OA
ATOM     52 OD1  ASP C 153     -14.211  -0.297 -28.257  1.00 54.42 LIG-0.65  OA
ENDBRANCH 49 50
ENDBRANCH 47 49
ENDBRANCH 44 47
ENDBRANCH 36 43
ENDBRANCH 34 36
ENDBRANCH 1 32
TORSDOF 19
ENDMDL
