MODEL 1
USER: ADFR SOLUTION from run 159
USER: SCORE 19.012783 LL:  -5.386 LR: -15.227 RR:   0.000 FEB:  -9.261
USER: RMSD 1.395527
USER: SEED 158
USER: STATUS no improvement in best in 10 clusters for 5 generations
USER: GENES 22
USER: genes 0 Translation |==|  0.59306 0.39597 0.50200
USER: genes 1 Rotation |==|  0.50301 0.48422 0.45636 0.99783
USER: genes 2 Torsion [C]-N--CA-[CB] |==|  0.27160
USER: genes 3 Torsion [N]-CA--CB-[CG] |==|  0.46194
USER: genes 4 Torsion [CA]-CB--CG-[OD1] |==|  0.24166
USER: genes 5 Torsion [N]-CA--C-[N] |==|  0.32182
USER: genes 6 Torsion [N]-CA--C-[O] |==|  0.46941
USER: genes 7 Torsion [C]-N--CA-[CB] |==|  0.39533
USER: genes 8 Torsion [N]-CA--CB-[CG] |==|  0.91799
USER: genes 9 Torsion [CA]-CB--CG-[CD1] |==|  0.78916
USER: genes 10 Torsion [N]-CA--C-[O] |==|  0.94534
USER: genes 11 Torsion [N]-C--CA-[N] |==|  0.31480
USER: genes 12 Torsion [C]-CA--N-[C] |==|  0.79603
USER: genes 13 Torsion [N]-C--CA-[N] |==|  0.34159
USER: genes 14 Torsion [C]-CA--CB-[CG2] |==|  0.69857
USER: genes 15 Torsion [C]-CA--N-[C] |==|  0.65601
USER: genes 16 Torsion [N]-C--CA-[N] |==|  0.41914
USER: genes 17 Torsion [C]-CA--CB-[CG] |==|  0.66600
USER: genes 18 Torsion [CA]-CB--CG-[CD] |==|  0.39551
USER: genes 19 Torsion [CB]-CG--CD-[OE1] |==|  0.08490
USER: genes 20 Torsion [C]-CA--CB-[CG] |==|  0.22362
USER: genes 21 Torsion [CA]-CB--CG-[OD1] |==|  0.94774
ROOT
ATOM      1  C   ASN C  17     -76.134-211.081  82.867  1.00 20.61 LIG 0.24  C 
ATOM      2 O    ASN C  17     -75.838-212.154  82.342  1.00 16.51 LIG-0.27  OA
ATOM      3  N   ASN C  18     -76.134-209.921  82.215  1.00 22.51 LIG-0.35  N 
ATOM      4 H    ASN C  18     -76.303-209.165  82.587  1.00 22.51 LIG 0.16  HD
ENDROOT
BRANCH 3 5
ATOM      5  CA  ASN C  18     -75.844-209.832  80.788  1.00 19.22 LIG 0.18  C 
BRANCH 5 6
ATOM      6  CB  ASN C  18     -77.148-209.772  79.987  1.00 16.89 LIG 0.14  C 
BRANCH 6 7
ATOM      7  CG  ASN C  18     -76.930-209.350  78.547  1.00 20.14 LIG 0.22  C 
ATOM      8  ND2 ASN C  18     -77.063-208.055  78.284  1.00 20.12 LIG-0.37  N 
ATOM      9 22HD ASN C  18     -77.252-207.504  78.918  1.00 20.12 LIG 0.16  HD
ATOM     10 21HD ASN C  18     -76.960-207.766  77.480  1.00 20.12 LIG 0.16  HD
ATOM     11 OD1  ASN C  18     -76.660-210.181  77.679  1.00 18.28 LIG-0.27  OA
ENDBRANCH 6 7
ENDBRANCH 5 6
BRANCH 5 12
ATOM     12  C   ASN C  18     -74.976-208.615  80.455  1.00 21.33 LIG 0.24  C 
ATOM     13  N   PRO C  19     -73.749-208.849  79.962  1.00 20.66 LIG-0.34  N 
ATOM     14  CD  PRO C  19     -73.058-210.146  79.845  1.00 23.11 LIG 0.13  C 
ATOM     15  CA  PRO C  19     -72.867-207.735  79.603  1.00 23.26 LIG 0.18  C 
ATOM     16  CG  PRO C  19     -71.684-209.773  79.337  1.00 22.87 LIG 0.02  C 
ATOM     17  CB  PRO C  19     -71.477-208.352  79.737  1.00 23.39 LIG 0.04  C 
ATOM     18 O    ASN C  18     -75.408-207.477  80.637  1.00 23.13 LIG-0.27  OA
BRANCH 15 19
ATOM     19  C   PRO C  19     -73.085-207.218  78.181  1.00 24.54 LIG 0.24  C 
ATOM     20  N   PHE C  20     -73.853-207.951  77.380  1.00 23.51 LIG-0.34  N 
ATOM     21 H    PHE C  20     -74.317-208.625  77.645  1.00 23.51 LIG 0.16  HD
ATOM     22 O    PRO C  19     -72.555-206.161  77.828  1.00 27.52 LIG-0.27  OA
BRANCH 20 23
ATOM     23  CA  PHE C  20     -73.969-207.659  75.952  1.00 27.49 LIG 0.19  C 
BRANCH 23 24
ATOM     24  CB  PHE C  20     -74.046-208.972  75.173  1.00 22.62 LIG 0.07  C 
BRANCH 24 25
ATOM     25  CG  PHE C  20     -73.318-210.096  75.845  1.00 18.80 LIG-0.06  A 
ATOM     26  CD1 PHE C  20     -71.938-210.155  75.801  1.00 16.53 LIG 0.01  A 
ATOM     27  CE1 PHE C  20     -71.254-211.170  76.430  1.00 18.06 LIG 0.00  A 
ATOM     28  CZ  PHE C  20     -71.948-212.146  77.125  1.00 17.30 LIG 0.00  A 
ATOM     29  CE2 PHE C  20     -73.323-212.097  77.185  1.00 18.45 LIG 0.00  A 
ATOM     30  CD2 PHE C  20     -74.004-211.071  76.551  1.00 20.64 LIG 0.01  A 
ENDBRANCH 24 25
ENDBRANCH 23 24
BRANCH 23 31
ATOM     31  C   PHE C  20     -75.168-206.771  75.629  1.00 41.21 LIG 0.20  C 
ATOM     32 OXT  PHE C  20     -75.236-206.146  74.571  1.00 46.78 LIG-0.65  OA
ATOM     33 O    PHE C  20     -76.110-206.667  76.421  1.00 43.65 LIG-0.65  OA
ENDBRANCH 23 31
ENDBRANCH 20 23
ENDBRANCH 15 19
ENDBRANCH 5 12
ENDBRANCH 3 5
BRANCH 1 34
ATOM     34  CA  ASN C  17     -76.545-211.030  84.332  1.00 16.90 LIG 0.18  C 
BRANCH 34 35
ATOM     35  N   ASN C  17     -77.805-211.742  84.483  1.00 20.58 LIG-0.35  N 
ATOM     36  C   VAL C  16     -78.947-211.218  84.050  1.00 27.16 LIG 0.24  C 
ATOM     37 O    VAL C  16     -79.047-210.046  83.687  1.00 29.43 LIG-0.27  OA
ATOM     38 H    ASN C  17     -77.740-212.510  84.866  1.00 20.58 LIG 0.16  HD
BRANCH 36 39
ATOM     39  CA  VAL C  16     -80.160-212.146  84.034  1.00 33.54 LIG 0.18  C 
BRANCH 39 40
ATOM     40  CB  VAL C  16     -80.609-212.380  82.572  1.00 32.44 LIG 0.01  C 
ATOM     41  CG2 VAL C  16     -81.925-211.652  82.297  1.00 34.10 LIG 0.01  C 
ATOM     42  CG1 VAL C  16     -80.719-213.878  82.255  1.00 32.37 LIG 0.01  C 
ENDBRANCH 39 40
BRANCH 39 43
ATOM     43  N   VAL C  16     -81.254-211.598  84.828  1.00 45.58 LIG-0.34  N 
ATOM     44  C   GLN C  15     -81.811-212.269  85.829  1.00 57.61 LIG 0.26  C 
ATOM     45 O    GLN C  15     -81.431-213.386  86.183  1.00 61.53 LIG-0.27  OA
ATOM     46 H    VAL C  16     -81.501-210.810  84.588  1.00 45.58 LIG 0.16  HD
BRANCH 44 47
ATOM     47  CA  GLN C  15     -82.965-211.567  86.539  1.00 63.44 LIG 0.40  C 
ATOM     48  N   GLN C  15     -83.903-212.541  87.086  1.00 62.08 LIG 0.61  N 
BRANCH 47 49
ATOM     49  CB  GLN C  15     -82.431-210.662  87.647  1.00 68.54 LIG 0.06  C 
BRANCH 49 50
ATOM     50  CG  GLN C  15     -82.948-211.022  89.036  1.00 72.89 LIG 0.10  C 
BRANCH 50 51
ATOM     51  CD  GLN C  15     -81.913-210.863  90.137  1.00 75.77 LIG 0.21  C 
ATOM     52 OE1  GLN C  15     -81.024-210.015  90.064  1.00 77.61 LIG-0.27  OA
ATOM     53  NE2 GLN C  15     -82.024-211.693  91.168  1.00 76.03 LIG-0.37  N 
ATOM     54 22HE GLN C  15     -81.463-211.650  91.817  1.00 76.03 LIG 0.16  HD
ATOM     55 21HE GLN C  15     -82.659-212.273  91.186  1.00 76.03 LIG 0.16  HD
ENDBRANCH 50 51
ENDBRANCH 49 50
ENDBRANCH 47 49
ENDBRANCH 44 47
ENDBRANCH 39 43
ENDBRANCH 36 39
ENDBRANCH 34 35
BRANCH 34 56
ATOM     56  CB  ASN C  17     -75.459-211.636  85.225  1.00 15.63 LIG 0.14  C 
BRANCH 56 57
ATOM     57  CG  ASN C  17     -74.323-210.670  85.503  1.00 17.63 LIG 0.22  C 
ATOM     58 OD1  ASN C  17     -74.139-209.683  84.786  1.00 24.00 LIG-0.27  OA
ATOM     59  ND2 ASN C  17     -73.542-210.957  86.538  1.00 16.48 LIG-0.37  N 
ATOM     60 21HD ASN C  17     -72.878-210.445  86.730  1.00 16.48 LIG 0.16  HD
ATOM     61 22HD ASN C  17     -73.700-211.654  87.015  1.00 16.48 LIG 0.16  HD
ENDBRANCH 56 57
ENDBRANCH 34 56
ENDBRANCH 1 34
TORSDOF 20
ENDMDL
MODEL 2
USER: ADFR SOLUTION from run 73
USER: SCORE 19.029330 LL:  -4.924 LR: -15.156 RR:   0.000 FEB:  -9.190
USER: RMSD 6.089352
USER: SEED 72
USER: STATUS no improvement in best in 5 clusters for 5 generations
USER: GENES 22
USER: genes 0 Translation |==|  0.60491 0.40954 0.46397
USER: genes 1 Rotation |==|  0.68090 0.40776 0.28540 0.90338
USER: genes 2 Torsion [C]-N--CA-[CB] |==|  0.86657
USER: genes 3 Torsion [N]-CA--CB-[CG] |==|  0.51573
USER: genes 4 Torsion [CA]-CB--CG-[OD1] |==|  0.71080
USER: genes 5 Torsion [N]-CA--C-[N] |==|  0.36751
USER: genes 6 Torsion [N]-CA--C-[O] |==|  0.76705
USER: genes 7 Torsion [C]-N--CA-[CB] |==|  0.39015
USER: genes 8 Torsion [N]-CA--CB-[CG] |==|  0.75119
USER: genes 9 Torsion [CA]-CB--CG-[CD1] |==|  0.35823
USER: genes 10 Torsion [N]-CA--C-[O] |==|  0.39807
USER: genes 11 Torsion [N]-C--CA-[N] |==|  0.95976
USER: genes 12 Torsion [C]-CA--N-[C] |==|  0.65728
USER: genes 13 Torsion [N]-C--CA-[N] |==|  0.82661
USER: genes 14 Torsion [C]-CA--CB-[CG2] |==|  0.42561
USER: genes 15 Torsion [C]-CA--N-[C] |==|  0.19457
USER: genes 16 Torsion [N]-C--CA-[N] |==|  0.46388
USER: genes 17 Torsion [C]-CA--CB-[CG] |==|  0.38698
USER: genes 18 Torsion [CA]-CB--CG-[CD] |==|  0.17627
USER: genes 19 Torsion [CB]-CG--CD-[OE1] |==|  0.90181
USER: genes 20 Torsion [C]-CA--CB-[CG] |==|  0.36409
USER: genes 21 Torsion [CA]-CB--CG-[OD1] |==|  0.60869
ROOT
ATOM      1  C   ASN C  17     -75.885-210.878  81.926  1.00 20.61 LIG 0.24  C 
ATOM      2 O    ASN C  17     -75.875-211.392  80.809  1.00 16.51 LIG-0.27  OA
ATOM      3  N   ASN C  18     -74.989-209.979  82.327  1.00 22.51 LIG-0.35  N 
ATOM      4 H    ASN C  18     -74.970-209.645  83.120  1.00 22.51 LIG 0.16  HD
ENDROOT
BRANCH 3 5
ATOM      5  CA  ASN C  18     -73.945-209.473  81.442  1.00 19.22 LIG 0.18  C 
BRANCH 5 6
ATOM      6  CB  ASN C  18     -73.250-210.637  80.728  1.00 16.89 LIG 0.14  C 
BRANCH 6 7
ATOM      7  CG  ASN C  18     -72.065-210.187  79.897  1.00 20.14 LIG 0.22  C 
ATOM      8  ND2 ASN C  18     -70.963-209.864  80.565  1.00 20.12 LIG-0.37  N 
ATOM      9 22HD ASN C  18     -70.946-209.927  81.422  1.00 20.12 LIG 0.16  HD
ATOM     10 21HD ASN C  18     -70.266-209.592  80.139  1.00 20.12 LIG 0.16  HD
ATOM     11 OD1  ASN C  18     -72.144-210.115  78.670  1.00 18.28 LIG-0.27  OA
ENDBRANCH 6 7
ENDBRANCH 5 6
BRANCH 5 12
ATOM     12  C   ASN C  18     -74.500-208.489  80.407  1.00 21.33 LIG 0.24  C 
ATOM     13  N   PRO C  19     -73.837-207.333  80.241  1.00 20.66 LIG-0.34  N 
ATOM     14  CD  PRO C  19     -72.721-206.810  81.049  1.00 23.11 LIG 0.13  C 
ATOM     15  CA  PRO C  19     -74.297-206.348  79.257  1.00 23.26 LIG 0.18  C 
ATOM     16  CG  PRO C  19     -72.474-205.436  80.470  1.00 22.87 LIG 0.02  C 
ATOM     17  CB  PRO C  19     -73.753-205.036  79.818  1.00 23.39 LIG 0.04  C 
ATOM     18 O    ASN C  18     -75.510-208.770  79.763  1.00 23.13 LIG-0.27  OA
BRANCH 15 19
ATOM     19  C   PRO C  19     -73.751-206.591  77.850  1.00 24.54 LIG 0.24  C 
ATOM     20  N   PHE C  20     -74.529-207.263  77.006  1.00 23.51 LIG-0.34  N 
ATOM     21 H    PHE C  20     -75.350-207.464  77.166  1.00 23.51 LIG 0.16  HD
ATOM     22 O    PRO C  19     -72.633-206.167  77.547  1.00 27.52 LIG-0.27  OA
BRANCH 20 23
ATOM     23  CA  PHE C  20     -74.035-207.721  75.708  1.00 27.49 LIG 0.19  C 
BRANCH 23 24
ATOM     24  CB  PHE C  20     -74.591-209.115  75.421  1.00 22.62 LIG 0.07  C 
BRANCH 24 25
ATOM     25  CG  PHE C  20     -73.713-210.214  75.936  1.00 18.80 LIG-0.06  A 
ATOM     26  CD1 PHE C  20     -74.247-211.219  76.720  1.00 16.53 LIG 0.01  A 
ATOM     27  CE1 PHE C  20     -73.458-212.246  77.186  1.00 18.06 LIG 0.00  A 
ATOM     28  CZ  PHE C  20     -72.112-212.286  76.863  1.00 17.30 LIG 0.00  A 
ATOM     29  CE2 PHE C  20     -71.566-211.296  76.076  1.00 18.45 LIG 0.00  A 
ATOM     30  CD2 PHE C  20     -72.367-210.267  75.610  1.00 20.64 LIG 0.01  A 
ENDBRANCH 24 25
ENDBRANCH 23 24
BRANCH 23 31
ATOM     31  C   PHE C  20     -74.380-206.759  74.574  1.00 41.21 LIG 0.20  C 
ATOM     32 OXT  PHE C  20     -75.447-206.146  74.556  1.00 46.78 LIG-0.65  OA
ATOM     33 O    PHE C  20     -73.588-206.563  73.648  1.00 43.65 LIG-0.65  OA
ENDBRANCH 23 31
ENDBRANCH 20 23
ENDBRANCH 15 19
ENDBRANCH 5 12
ENDBRANCH 3 5
BRANCH 1 34
ATOM     34  CA  ASN C  17     -76.969-211.242  82.931  1.00 16.90 LIG 0.18  C 
BRANCH 34 35
ATOM     35  N   ASN C  17     -76.564-210.757  84.242  1.00 20.58 LIG-0.35  N 
ATOM     36  C   VAL C  16     -76.465-211.582  85.279  1.00 27.16 LIG 0.24  C 
ATOM     37 O    VAL C  16     -76.889-212.737  85.255  1.00 29.43 LIG-0.27  OA
ATOM     38 H    ASN C  17     -76.401-209.913  84.278  1.00 20.58 LIG 0.16  HD
BRANCH 36 39
ATOM     39  CA  VAL C  16     -75.801-211.021  86.535  1.00 33.54 LIG 0.18  C 
BRANCH 39 40
ATOM     40  CB  VAL C  16     -76.608-209.802  87.042  1.00 32.44 LIG 0.01  C 
ATOM     41  CG2 VAL C  16     -76.421-209.631  88.550  1.00 34.10 LIG 0.01  C 
ATOM     42  CG1 VAL C  16     -78.093-209.923  86.671  1.00 32.37 LIG 0.01  C 
ENDBRANCH 39 40
BRANCH 39 43
ATOM     43  N   VAL C  16     -74.414-210.650  86.277  1.00 45.58 LIG-0.34  N 
ATOM     44  C   GLN C  15     -74.086-209.611  85.518  1.00 57.61 LIG 0.26  C 
ATOM     45 O    GLN C  15     -74.920-208.868  84.999  1.00 61.53 LIG-0.27  OA
ATOM     46 H    VAL C  16     -73.838-211.161  86.658  1.00 45.58 LIG 0.16  HD
BRANCH 44 47
ATOM     47  CA  GLN C  15     -72.590-209.377  85.322  1.00 63.44 LIG 0.40  C 
ATOM     48  N   GLN C  15     -72.354-208.422  84.246  1.00 62.08 LIG 0.61  N 
BRANCH 47 49
ATOM     49  CB  GLN C  15     -71.960-208.881  86.622  1.00 68.54 LIG 0.06  C 
BRANCH 49 50
ATOM     50  CG  GLN C  15     -70.595-209.495  86.915  1.00 72.89 LIG 0.10  C 
BRANCH 50 51
ATOM     51  CD  GLN C  15     -69.531-209.146  85.889  1.00 75.77 LIG 0.21  C 
ATOM     52 OE1  GLN C  15     -69.807-209.026  84.696  1.00 77.61 LIG-0.27  OA
ATOM     53  NE2 GLN C  15     -68.298-208.987  86.356  1.00 76.03 LIG-0.37  N 
ATOM     54 22HE GLN C  15     -67.656-208.793  85.818  1.00 76.03 LIG 0.16  HD
ATOM     55 21HE GLN C  15     -68.142-209.079  87.197  1.00 76.03 LIG 0.16  HD
ENDBRANCH 50 51
ENDBRANCH 49 50
ENDBRANCH 47 49
ENDBRANCH 44 47
ENDBRANCH 39 43
ENDBRANCH 36 39
ENDBRANCH 34 35
BRANCH 34 56
ATOM     56  CB  ASN C  17     -78.319-210.649  82.516  1.00 15.63 LIG 0.14  C 
BRANCH 56 57
ATOM     57  CG  ASN C  17     -79.442-211.667  82.552  1.00 17.63 LIG 0.22  C 
ATOM     58 OD1  ASN C  17     -80.316-211.679  81.682  1.00 24.00 LIG-0.27  OA
ATOM     59  ND2 ASN C  17     -79.434-212.521  83.568  1.00 16.48 LIG-0.37  N 
ATOM     60 21HD ASN C  17     -80.056-213.111  83.639  1.00 16.48 LIG 0.16  HD
ATOM     61 22HD ASN C  17     -78.808-212.483  84.157  1.00 16.48 LIG 0.16  HD
ENDBRANCH 56 57
ENDBRANCH 34 56
ENDBRANCH 1 34
TORSDOF 20
ENDMDL
MODEL 3
USER: ADFR SOLUTION from run 188
USER: SCORE 18.535819 LL:  -4.438 LR: -15.096 RR:   0.000 FEB:  -9.130
USER: RMSD 9.828865
USER: SEED 187
USER: STATUS no improvement in best in 6 clusters for 5 generations
USER: GENES 22
USER: genes 0 Translation |==|  0.63980 0.44132 0.38124
USER: genes 1 Rotation |==|  0.80558 0.87735 0.53204 0.61490
USER: genes 2 Torsion [C]-N--CA-[CB] |==|  0.83415
USER: genes 3 Torsion [N]-CA--CB-[CG] |==|  0.32346
USER: genes 4 Torsion [CA]-CB--CG-[OD1] |==|  0.77769
USER: genes 5 Torsion [N]-CA--C-[N] |==|  0.43583
USER: genes 6 Torsion [N]-CA--C-[O] |==|  0.00381
USER: genes 7 Torsion [C]-N--CA-[CB] |==|  0.15571
USER: genes 8 Torsion [N]-CA--CB-[CG] |==|  0.21925
USER: genes 9 Torsion [CA]-CB--CG-[CD1] |==|  0.23558
USER: genes 10 Torsion [N]-CA--C-[O] |==|  0.43816
USER: genes 11 Torsion [N]-C--CA-[N] |==|  0.64843
USER: genes 12 Torsion [C]-CA--N-[C] |==|  0.62381
USER: genes 13 Torsion [N]-C--CA-[N] |==|  0.89728
USER: genes 14 Torsion [C]-CA--CB-[CG2] |==|  0.98911
USER: genes 15 Torsion [C]-CA--N-[C] |==|  0.83218
USER: genes 16 Torsion [N]-C--CA-[N] |==|  0.55873
USER: genes 17 Torsion [C]-CA--CB-[CG] |==|  0.29027
USER: genes 18 Torsion [CA]-CB--CG-[CD] |==|  0.06876
USER: genes 19 Torsion [CB]-CG--CD-[OE1] |==|  0.80837
USER: genes 20 Torsion [C]-CA--CB-[CG] |==|  0.45180
USER: genes 21 Torsion [CA]-CB--CG-[OD1] |==|  0.35926
ROOT
ATOM      1  C   ASN C  17     -75.152-210.401  79.879  1.00 20.61 LIG 0.24  C 
ATOM      2 O    ASN C  17     -76.351-210.127  79.851  1.00 16.51 LIG-0.27  OA
ATOM      3  N   ASN C  18     -74.387-210.234  80.955  1.00 22.51 LIG-0.35  N 
ATOM      4 H    ASN C  18     -73.541-210.389  80.966  1.00 22.51 LIG 0.16  HD
ENDROOT
BRANCH 3 5
ATOM      5  CA  ASN C  18     -74.926-209.768  82.227  1.00 19.22 LIG 0.18  C 
BRANCH 5 6
ATOM      6  CB  ASN C  18     -75.564-208.386  82.055  1.00 16.89 LIG 0.14  C 
BRANCH 6 7
ATOM      7  CG  ASN C  18     -77.055-208.394  82.326  1.00 20.14 LIG 0.22  C 
ATOM      8  ND2 ASN C  18     -77.440-207.976  83.527  1.00 20.12 LIG-0.37  N 
ATOM      9 22HD ASN C  18     -76.854-207.710  84.098  1.00 20.12 LIG 0.16  HD
ATOM     10 21HD ASN C  18     -78.275-207.973  83.734  1.00 20.12 LIG 0.16  HD
ATOM     11 OD1  ASN C  18     -77.851-208.785  81.472  1.00 18.28 LIG-0.27  OA
ENDBRANCH 6 7
ENDBRANCH 5 6
BRANCH 5 12
ATOM     12  C   ASN C  18     -75.955-210.743  82.805  1.00 21.33 LIG 0.24  C 
ATOM     13  N   PRO C  19     -76.168-210.701  84.130  1.00 20.66 LIG-0.34  N 
ATOM     14  CD  PRO C  19     -75.414-209.936  85.140  1.00 23.11 LIG 0.13  C 
ATOM     15  CA  PRO C  19     -77.151-211.592  84.755  1.00 23.26 LIG 0.18  C 
ATOM     16  CG  PRO C  19     -76.027-210.373  86.450  1.00 22.87 LIG 0.02  C 
ATOM     17  CB  PRO C  19     -76.635-211.708  86.187  1.00 23.39 LIG 0.04  C 
ATOM     18 O    ASN C  18     -76.554-211.523  82.065  1.00 23.13 LIG-0.27  OA
BRANCH 15 19
ATOM     19  C   PRO C  19     -78.574-211.033  84.745  1.00 24.54 LIG 0.24  C 
ATOM     20  N   PHE C  20     -79.519-211.771  85.320  1.00 23.51 LIG-0.34  N 
ATOM     21 H    PHE C  20     -79.360-212.475  85.788  1.00 23.51 LIG 0.16  HD
ATOM     22 O    PRO C  19     -78.797-209.940  84.218  1.00 27.52 LIG-0.27  OA
BRANCH 20 23
ATOM     23  CA  PHE C  20     -80.936-211.431  85.198  1.00 27.49 LIG 0.19  C 
BRANCH 23 24
ATOM     24  CB  PHE C  20     -81.308-211.347  83.718  1.00 22.62 LIG 0.07  C 
BRANCH 24 25
ATOM     25  CG  PHE C  20     -81.518-212.690  83.088  1.00 18.80 LIG-0.06  A 
ATOM     26  CD1 PHE C  20     -82.745-213.318  83.183  1.00 16.53 LIG 0.01  A 
ATOM     27  CE1 PHE C  20     -82.959-214.542  82.594  1.00 18.06 LIG 0.00  A 
ATOM     28  CZ  PHE C  20     -81.940-215.159  81.888  1.00 17.30 LIG 0.00  A 
ATOM     29  CE2 PHE C  20     -80.713-214.543  81.777  1.00 18.45 LIG 0.00  A 
ATOM     30  CD2 PHE C  20     -80.506-213.309  82.372  1.00 20.64 LIG 0.01  A 
ENDBRANCH 24 25
ENDBRANCH 23 24
BRANCH 23 31
ATOM     31  C   PHE C  20     -81.843-212.421  85.926  1.00 41.21 LIG 0.20  C 
ATOM     32 OXT  PHE C  20     -81.464-213.561  86.193  1.00 46.78 LIG-0.65  OA
ATOM     33 O    PHE C  20     -82.981-212.096  86.276  1.00 43.65 LIG-0.65  OA
ENDBRANCH 23 31
ENDBRANCH 20 23
ENDBRANCH 15 19
ENDBRANCH 5 12
ENDBRANCH 3 5
BRANCH 1 34
ATOM     34  CA  ASN C  17     -74.468-210.982  78.649  1.00 16.90 LIG 0.18  C 
BRANCH 34 35
ATOM     35  N   ASN C  17     -74.714-210.094  77.522  1.00 20.58 LIG-0.35  N 
ATOM     36  C   VAL C  16     -75.063-210.574  76.333  1.00 27.16 LIG 0.24  C 
ATOM     37 O    VAL C  16     -75.007-211.771  76.055  1.00 29.43 LIG-0.27  OA
ATOM     38 H    ASN C  17     -74.615-209.257  77.696  1.00 20.58 LIG 0.16  HD
BRANCH 36 39
ATOM     39  CA  VAL C  16     -75.534-209.554  75.298  1.00 33.54 LIG 0.18  C 
BRANCH 39 40
ATOM     40  CB  VAL C  16     -74.307-208.969  74.558  1.00 32.44 LIG 0.01  C 
ATOM     41  CG2 VAL C  16     -73.012-209.520  75.157  1.00 34.10 LIG 0.01  C 
ATOM     42  CG1 VAL C  16     -74.324-207.434  74.575  1.00 32.37 LIG 0.01  C 
ENDBRANCH 39 40
BRANCH 39 43
ATOM     43  N   VAL C  16     -76.313-208.491  75.922  1.00 45.58 LIG-0.34  N 
ATOM     44  C   GLN C  15     -77.441-208.730  76.582  1.00 57.61 LIG 0.26  C 
ATOM     45 O    GLN C  15     -77.898-209.862  76.742  1.00 61.53 LIG-0.27  OA
ATOM     46 H    VAL C  16     -75.978-207.705  75.823  1.00 45.58 LIG 0.16  HD
BRANCH 44 47
ATOM     47  CA  GLN C  15     -78.152-207.504  77.148  1.00 63.44 LIG 0.40  C 
ATOM     48  N   GLN C  15     -79.052-207.884  78.232  1.00 62.08 LIG 0.61  N 
BRANCH 47 49
ATOM     49  CB  GLN C  15     -77.130-206.480  77.639  1.00 68.54 LIG 0.06  C 
BRANCH 49 50
ATOM     50  CG  GLN C  15     -76.966-205.283  76.709  1.00 72.89 LIG 0.10  C 
BRANCH 50 51
ATOM     51  CD  GLN C  15     -78.183-205.007  75.842  1.00 75.77 LIG 0.21  C 
ATOM     52 OE1  GLN C  15     -78.511-205.774  74.937  1.00 77.61 LIG-0.27  OA
ATOM     53  NE2 GLN C  15     -78.856-203.896  76.115  1.00 76.03 LIG-0.37  N 
ATOM     54 22HE GLN C  15     -79.550-203.689  75.653  1.00 76.03 LIG 0.16  HD
ATOM     55 21HE GLN C  15     -78.597-203.383  76.756  1.00 76.03 LIG 0.16  HD
ENDBRANCH 50 51
ENDBRANCH 49 50
ENDBRANCH 47 49
ENDBRANCH 44 47
ENDBRANCH 39 43
ENDBRANCH 36 39
ENDBRANCH 34 35
BRANCH 34 56
ATOM     56  CB  ASN C  17     -72.966-211.158  78.894  1.00 15.63 LIG 0.14  C 
BRANCH 56 57
ATOM     57  CG  ASN C  17     -72.317-212.098  77.895  1.00 17.63 LIG 0.22  C 
ATOM     58 OD1  ASN C  17     -71.298-211.768  77.284  1.00 24.00 LIG-0.27  OA
ATOM     59  ND2 ASN C  17     -72.912-213.270  77.712  1.00 16.48 LIG-0.37  N 
ATOM     60 21HD ASN C  17     -72.588-213.834  77.150  1.00 16.48 LIG 0.16  HD
ATOM     61 22HD ASN C  17     -73.622-213.466  78.157  1.00 16.48 LIG 0.16  HD
ENDBRANCH 56 57
ENDBRANCH 34 56
ENDBRANCH 1 34
TORSDOF 20
ENDMDL
MODEL 4
USER: ADFR SOLUTION from run 132
USER: SCORE 19.033909 LL:  -5.163 LR: -15.002 RR:   0.000 FEB:  -9.036
USER: RMSD 6.493537
USER: SEED 131
USER: STATUS no improvement in best in 4 clusters for 5 generations
USER: GENES 22
USER: genes 0 Translation |==|  0.61578 0.39610 0.47328
USER: genes 1 Rotation |==|  0.60316 0.43027 0.38540 0.97049
USER: genes 2 Torsion [C]-N--CA-[CB] |==|  0.83828
USER: genes 3 Torsion [N]-CA--CB-[CG] |==|  0.55532
USER: genes 4 Torsion [CA]-CB--CG-[OD1] |==|  0.86664
USER: genes 5 Torsion [N]-CA--C-[N] |==|  0.31678
USER: genes 6 Torsion [N]-CA--C-[O] |==|  0.42907
USER: genes 7 Torsion [C]-N--CA-[CB] |==|  0.82742
USER: genes 8 Torsion [N]-CA--CB-[CG] |==|  0.86394
USER: genes 9 Torsion [CA]-CB--CG-[CD1] |==|  0.27926
USER: genes 10 Torsion [N]-CA--C-[O] |==|  0.49213
USER: genes 11 Torsion [N]-C--CA-[N] |==|  0.89221
USER: genes 12 Torsion [C]-CA--N-[C] |==|  0.71554
USER: genes 13 Torsion [N]-C--CA-[N] |==|  0.82233
USER: genes 14 Torsion [C]-CA--CB-[CG2] |==|  0.45498
USER: genes 15 Torsion [C]-CA--N-[C] |==|  0.69432
USER: genes 16 Torsion [N]-C--CA-[N] |==|  0.90973
USER: genes 17 Torsion [C]-CA--CB-[CG] |==|  0.07881
USER: genes 18 Torsion [CA]-CB--CG-[CD] |==|  0.23836
USER: genes 19 Torsion [CB]-CG--CD-[OE1] |==|  0.27399
USER: genes 20 Torsion [C]-CA--CB-[CG] |==|  0.56801
USER: genes 21 Torsion [CA]-CB--CG-[OD1] |==|  0.32429
ROOT
ATOM      1  C   ASN C  17     -75.657-211.080  82.157  1.00 20.61 LIG 0.24  C 
ATOM      2 O    ASN C  17     -75.463-211.944  81.303  1.00 16.51 LIG-0.27  OA
ATOM      3  N   ASN C  18     -75.207-209.831  82.050  1.00 22.51 LIG-0.35  N 
ATOM      4 H    ASN C  18     -75.307-209.235  82.662  1.00 22.51 LIG 0.16  HD
ENDROOT
BRANCH 3 5
ATOM      5  CA  ASN C  18     -74.493-209.361  80.868  1.00 19.22 LIG 0.18  C 
BRANCH 5 6
ATOM      6  CB  ASN C  18     -73.244-210.215  80.631  1.00 16.89 LIG 0.14  C 
BRANCH 6 7
ATOM      7  CG  ASN C  18     -72.222-209.523  79.751  1.00 20.14 LIG 0.22  C 
ATOM      8  ND2 ASN C  18     -70.969-209.516  80.193  1.00 20.12 LIG-0.37  N 
ATOM      9 22HD ASN C  18     -70.773-209.902  80.936  1.00 20.12 LIG 0.16  HD
ATOM     10 21HD ASN C  18     -70.354-209.126  79.735  1.00 20.12 LIG 0.16  HD
ATOM     11 OD1  ASN C  18     -72.557-208.985  78.695  1.00 18.28 LIG-0.27  OA
ENDBRANCH 6 7
ENDBRANCH 5 6
BRANCH 5 12
ATOM     12  C   ASN C  18     -75.379-209.382  79.619  1.00 21.33 LIG 0.24  C 
ATOM     13  N   PRO C  19     -75.688-208.199  79.063  1.00 20.66 LIG-0.34  N 
ATOM     14  CD  PRO C  19     -75.413-206.853  79.597  1.00 23.11 LIG 0.13  C 
ATOM     15  CA  PRO C  19     -76.517-208.139  77.856  1.00 23.26 LIG 0.18  C 
ATOM     16  CG  PRO C  19     -76.090-205.931  78.609  1.00 22.87 LIG 0.02  C 
ATOM     17  CB  PRO C  19     -77.146-206.750  77.950  1.00 23.39 LIG 0.04  C 
ATOM     18 O    ASN C  18     -75.777-210.451  79.159  1.00 23.13 LIG-0.27  OA
BRANCH 15 19
ATOM     19  C   PRO C  19     -75.718-208.274  76.560  1.00 24.54 LIG 0.24  C 
ATOM     20  N   PHE C  20     -74.439-207.911  76.595  1.00 23.51 LIG-0.34  N 
ATOM     21 H    PHE C  20     -74.015-207.717  77.318  1.00 23.51 LIG 0.16  HD
ATOM     22 O    PRO C  19     -76.270-208.706  75.544  1.00 27.52 LIG-0.27  OA
BRANCH 20 23
ATOM     23  CA  PHE C  20     -73.637-207.812  75.377  1.00 27.49 LIG 0.19  C 
BRANCH 23 24
ATOM     24  CB  PHE C  20     -73.551-209.188  74.717  1.00 22.62 LIG 0.07  C 
BRANCH 24 25
ATOM     25  CG  PHE C  20     -73.168-210.275  75.674  1.00 18.80 LIG-0.06  A 
ATOM     26  CD1 PHE C  20     -74.134-211.112  76.198  1.00 16.53 LIG 0.01  A 
ATOM     27  CE1 PHE C  20     -73.796-212.127  77.063  1.00 18.06 LIG 0.00  A 
ATOM     28  CZ  PHE C  20     -72.471-212.325  77.414  1.00 17.30 LIG 0.00  A 
ATOM     29  CE2 PHE C  20     -71.494-211.504  76.894  1.00 18.45 LIG 0.00  A 
ATOM     30  CD2 PHE C  20     -71.843-210.486  76.023  1.00 20.64 LIG 0.01  A 
ENDBRANCH 24 25
ENDBRANCH 23 24
BRANCH 23 31
ATOM     31  C   PHE C  20     -74.182-206.777  74.396  1.00 41.21 LIG 0.20  C 
ATOM     32 OXT  PHE C  20     -75.214-206.151  74.633  1.00 46.78 LIG-0.65  OA
ATOM     33 O    PHE C  20     -73.591-206.534  73.340  1.00 43.65 LIG-0.65  OA
ENDBRANCH 23 31
ENDBRANCH 20 23
ENDBRANCH 15 19
ENDBRANCH 5 12
ENDBRANCH 3 5
BRANCH 1 34
ATOM     34  CA  ASN C  17     -76.462-211.400  83.408  1.00 16.90 LIG 0.18  C 
BRANCH 34 35
ATOM     35  N   ASN C  17     -75.855-210.712  84.537  1.00 20.58 LIG-0.35  N 
ATOM     36  C   VAL C  16     -75.091-211.362  85.409  1.00 27.16 LIG 0.24  C 
ATOM     37 O    VAL C  16     -75.012-212.590  85.439  1.00 29.43 LIG-0.27  OA
ATOM     38 H    ASN C  17     -76.033-209.871  84.582  1.00 20.58 LIG 0.16  HD
BRANCH 36 39
ATOM     39  CA  VAL C  16     -74.311-210.505  86.403  1.00 33.54 LIG 0.18  C 
BRANCH 39 40
ATOM     40  CB  VAL C  16     -75.299-209.642  87.224  1.00 32.44 LIG 0.01  C 
ATOM     41  CG2 VAL C  16     -74.611-209.088  88.472  1.00 34.10 LIG 0.01  C 
ATOM     42  CG1 VAL C  16     -76.564-210.434  87.585  1.00 32.37 LIG 0.01  C 
ENDBRANCH 39 40
BRANCH 39 43
ATOM     43  N   VAL C  16     -73.335-209.663  85.721  1.00 45.58 LIG-0.34  N 
ATOM     44  C   GLN C  15     -72.027-209.869  85.818  1.00 57.61 LIG 0.26  C 
ATOM     45 O    GLN C  15     -71.540-210.798  86.463  1.00 61.53 LIG-0.27  OA
ATOM     46 H    VAL C  16     -73.683-209.027  85.257  1.00 45.58 LIG 0.16  HD
BRANCH 44 47
ATOM     47  CA  GLN C  15     -71.140-208.878  85.068  1.00 63.44 LIG 0.40  C 
ATOM     48  N   GLN C  15     -71.799-208.412  83.854  1.00 62.08 LIG 0.61  N 
BRANCH 47 49
ATOM     49  CB  GLN C  15     -70.789-207.697  85.970  1.00 68.54 LIG 0.06  C 
BRANCH 49 50
ATOM     50  CG  GLN C  15     -70.764-208.046  87.455  1.00 72.89 LIG 0.10  C 
BRANCH 50 51
ATOM     51  CD  GLN C  15     -69.436-208.607  87.933  1.00 75.77 LIG 0.21  C 
ATOM     52 OE1  GLN C  15     -68.607-207.896  88.501  1.00 77.61 LIG-0.27  OA
ATOM     53  NE2 GLN C  15     -69.227-209.896  87.696  1.00 76.03 LIG-0.37  N 
ATOM     54 22HE GLN C  15     -68.490-210.265  87.942  1.00 76.03 LIG 0.16  HD
ATOM     55 21HE GLN C  15     -69.829-210.363  87.297  1.00 76.03 LIG 0.16  HD
ENDBRANCH 50 51
ENDBRANCH 49 50
ENDBRANCH 47 49
ENDBRANCH 44 47
ENDBRANCH 39 43
ENDBRANCH 36 39
ENDBRANCH 34 35
BRANCH 34 56
ATOM     56  CB  ASN C  17     -77.927-210.988  83.233  1.00 15.63 LIG 0.14  C 
BRANCH 56 57
ATOM     57  CG  ASN C  17     -78.622-210.723  84.555  1.00 17.63 LIG 0.22  C 
ATOM     58 OD1  ASN C  17     -79.055-209.601  84.831  1.00 24.00 LIG-0.27  OA
ATOM     59  ND2 ASN C  17     -78.721-211.751  85.389  1.00 16.48 LIG-0.37  N 
ATOM     60 21HD ASN C  17     -79.098-211.649  86.155  1.00 16.48 LIG 0.16  HD
ATOM     61 22HD ASN C  17     -78.408-212.519  85.162  1.00 16.48 LIG 0.16  HD
ENDBRANCH 56 57
ENDBRANCH 34 56
ENDBRANCH 1 34
TORSDOF 20
ENDMDL
MODEL 5
USER: ADFR SOLUTION from run 20
USER: SCORE 17.784647 LL:  -4.082 LR: -14.708 RR:   0.000 FEB:  -8.742
USER: RMSD 10.128264
USER: SEED 19
USER: STATUS no improvement in best in 4 clusters for 5 generations
USER: GENES 22
USER: genes 0 Translation |==|  0.77608 0.61521 0.45108
USER: genes 1 Rotation |==|  0.04113 0.63302 0.36489 0.55907
USER: genes 2 Torsion [C]-N--CA-[CB] |==|  0.20000
USER: genes 3 Torsion [N]-CA--CB-[CG] |==|  0.68073
USER: genes 4 Torsion [CA]-CB--CG-[OD1] |==|  0.09708
USER: genes 5 Torsion [N]-CA--C-[N] |==|  0.50136
USER: genes 6 Torsion [N]-CA--C-[O] |==|  0.14345
USER: genes 7 Torsion [C]-N--CA-[CB] |==|  0.42169
USER: genes 8 Torsion [N]-CA--CB-[CG] |==|  0.68808
USER: genes 9 Torsion [CA]-CB--CG-[CD1] |==|  0.09330
USER: genes 10 Torsion [N]-CA--C-[O] |==|  0.99795
USER: genes 11 Torsion [N]-C--CA-[N] |==|  0.96664
USER: genes 12 Torsion [C]-CA--N-[C] |==|  0.81255
USER: genes 13 Torsion [N]-C--CA-[N] |==|  0.00190
USER: genes 14 Torsion [C]-CA--CB-[CG2] |==|  0.82545
USER: genes 15 Torsion [C]-CA--N-[C] |==|  0.70898
USER: genes 16 Torsion [N]-C--CA-[N] |==|  0.70561
USER: genes 17 Torsion [C]-CA--CB-[CG] |==|  0.74954
USER: genes 18 Torsion [CA]-CB--CG-[CD] |==|  0.67145
USER: genes 19 Torsion [CB]-CG--CD-[OE1] |==|  0.26902
USER: genes 20 Torsion [C]-CA--CB-[CG] |==|  0.53291
USER: genes 21 Torsion [CA]-CB--CG-[OD1] |==|  0.23136
ROOT
ATOM      1  C   ASN C  17     -72.290-207.793  81.607  1.00 20.61 LIG 0.24  C 
ATOM      2 O    ASN C  17     -71.842-207.236  82.608  1.00 16.51 LIG-0.27  OA
ATOM      3  N   ASN C  18     -73.312-208.646  81.638  1.00 22.51 LIG-0.35  N 
ATOM      4 H    ASN C  18     -73.603-209.066  80.947  1.00 22.51 LIG 0.16  HD
ENDROOT
BRANCH 3 5
ATOM      5  CA  ASN C  18     -74.037-208.946  82.869  1.00 19.22 LIG 0.18  C 
BRANCH 5 6
ATOM      6  CB  ASN C  18     -74.900-207.748  83.277  1.00 16.89 LIG 0.14  C 
BRANCH 6 7
ATOM      7  CG  ASN C  18     -74.454-207.127  84.586  1.00 20.14 LIG 0.22  C 
ATOM      8  ND2 ASN C  18     -75.411-206.627  85.360  1.00 20.12 LIG-0.37  N 
ATOM      9 22HD ASN C  18     -76.234-206.676  85.112  1.00 20.12 LIG 0.16  HD
ATOM     10 21HD ASN C  18     -75.208-206.253  86.108  1.00 20.12 LIG 0.16  HD
ATOM     11 OD1  ASN C  18     -73.262-207.083  84.891  1.00 18.28 LIG-0.27  OA
ENDBRANCH 6 7
ENDBRANCH 5 6
BRANCH 5 12
ATOM     12  C   ASN C  18     -74.915-210.192  82.726  1.00 21.33 LIG 0.24  C 
ATOM     13  N   PRO C  19     -75.639-210.560  83.795  1.00 20.66 LIG-0.34  N 
ATOM     14  CD  PRO C  19     -75.578-210.006  85.159  1.00 23.11 LIG 0.13  C 
ATOM     15  CA  PRO C  19     -76.518-211.732  83.730  1.00 23.26 LIG 0.18  C 
ATOM     16  CG  PRO C  19     -76.522-210.885  85.946  1.00 22.87 LIG 0.02  C 
ATOM     17  CB  PRO C  19     -76.603-212.168  85.191  1.00 23.39 LIG 0.04  C 
ATOM     18 O    ASN C  18     -74.944-210.813  81.664  1.00 23.13 LIG-0.27  OA
BRANCH 15 19
ATOM     19  C   PRO C  19     -77.912-211.420  83.187  1.00 24.54 LIG 0.24  C 
ATOM     20  N   PHE C  20     -78.950-211.826  83.912  1.00 23.51 LIG-0.34  N 
ATOM     21 H    PHE C  20     -78.885-212.146  84.708  1.00 23.51 LIG 0.16  HD
ATOM     22 O    PRO C  19     -78.029-210.815  82.118  1.00 27.52 LIG-0.27  OA
BRANCH 20 23
ATOM     23  CA  PHE C  20     -80.317-211.758  83.397  1.00 27.49 LIG 0.19  C 
BRANCH 23 24
ATOM     24  CB  PHE C  20     -81.158-212.854  84.051  1.00 22.62 LIG 0.07  C 
BRANCH 24 25
ATOM     25  CG  PHE C  20     -81.584-213.919  83.088  1.00 18.80 LIG-0.06  A 
ATOM     26  CD1 PHE C  20     -80.757-214.280  82.041  1.00 16.53 LIG 0.01  A 
ATOM     27  CE1 PHE C  20     -81.125-215.269  81.159  1.00 18.06 LIG 0.00  A 
ATOM     28  CZ  PHE C  20     -82.335-215.924  81.318  1.00 17.30 LIG 0.00  A 
ATOM     29  CE2 PHE C  20     -83.167-215.582  82.361  1.00 18.45 LIG 0.00  A 
ATOM     30  CD2 PHE C  20     -82.789-214.586  83.245  1.00 20.64 LIG 0.01  A 
ENDBRANCH 24 25
ENDBRANCH 23 24
BRANCH 23 31
ATOM     31  C   PHE C  20     -80.958-210.388  83.611  1.00 41.21 LIG 0.20  C 
ATOM     32 OXT  PHE C  20     -82.107-210.153  83.238  1.00 46.78 LIG-0.65  OA
ATOM     33 O    PHE C  20     -80.340-209.482  84.178  1.00 43.65 LIG-0.65  OA
ENDBRANCH 23 31
ENDBRANCH 20 23
ENDBRANCH 15 19
ENDBRANCH 5 12
ENDBRANCH 3 5
BRANCH 1 34
ATOM     34  CA  ASN C  17     -71.691-207.510  80.236  1.00 16.90 LIG 0.18  C 
BRANCH 34 35
ATOM     35  N   ASN C  17     -72.219-208.484  79.293  1.00 20.58 LIG-0.35  N 
ATOM     36  C   VAL C  16     -71.901-209.771  79.383  1.00 27.16 LIG 0.24  C 
ATOM     37 O    VAL C  16     -71.008-210.186  80.121  1.00 29.43 LIG-0.27  OA
ATOM     38 H    ASN C  17     -72.739-208.155  78.691  1.00 20.58 LIG 0.16  HD
BRANCH 36 39
ATOM     39  CA  VAL C  16     -72.698-210.732  78.503  1.00 33.54 LIG 0.18  C 
BRANCH 39 40
ATOM     40  CB  VAL C  16     -71.725-211.531  77.604  1.00 32.44 LIG 0.01  C 
ATOM     41  CG2 VAL C  16     -70.976-210.589  76.661  1.00 34.10 LIG 0.01  C 
ATOM     42  CG1 VAL C  16     -72.459-212.634  76.829  1.00 32.37 LIG 0.01  C 
ENDBRANCH 39 40
BRANCH 39 43
ATOM     43  N   VAL C  16     -73.678-210.018  77.694  1.00 45.58 LIG-0.34  N 
ATOM     44  C   GLN C  15     -74.976-210.031  77.974  1.00 57.61 LIG 0.26  C 
ATOM     45 O    GLN C  15     -75.447-210.619  78.949  1.00 61.53 LIG-0.27  OA
ATOM     46 H    VAL C  16     -73.340-209.594  77.027  1.00 45.58 LIG 0.16  HD
BRANCH 44 47
ATOM     47  CA  GLN C  15     -75.872-209.258  77.010  1.00 63.44 LIG 0.40  C 
ATOM     48  N   GLN C  15     -76.330-208.013  77.617  1.00 62.08 LIG 0.61  N 
BRANCH 47 49
ATOM     49  CB  GLN C  15     -75.125-208.974  75.709  1.00 68.54 LIG 0.06  C 
BRANCH 49 50
ATOM     50  CG  GLN C  15     -74.361-207.654  75.716  1.00 72.89 LIG 0.10  C 
BRANCH 50 51
ATOM     51  CD  GLN C  15     -74.833-206.665  74.664  1.00 75.77 LIG 0.21  C 
ATOM     52 OE1  GLN C  15     -75.634-205.771  74.938  1.00 77.61 LIG-0.27  OA
ATOM     53  NE2 GLN C  15     -74.338-206.829  73.443  1.00 76.03 LIG-0.37  N 
ATOM     54 22HE GLN C  15     -74.574-206.300  72.808  1.00 76.03 LIG 0.16  HD
ATOM     55 21HE GLN C  15     -73.780-207.465  73.288  1.00 76.03 LIG 0.16  HD
ENDBRANCH 50 51
ENDBRANCH 49 50
ENDBRANCH 47 49
ENDBRANCH 44 47
ENDBRANCH 39 43
ENDBRANCH 36 39
ENDBRANCH 34 35
BRANCH 34 56
ATOM     56  CB  ASN C  17     -72.007-206.080  79.789  1.00 15.63 LIG 0.14  C 
BRANCH 56 57
ATOM     57  CG  ASN C  17     -71.685-205.840  78.326  1.00 17.63 LIG 0.22  C 
ATOM     58 OD1  ASN C  17     -72.484-206.153  77.440  1.00 24.00 LIG-0.27  OA
ATOM     59  ND2 ASN C  17     -70.504-205.295  78.062  1.00 16.48 LIG-0.37  N 
ATOM     60 21HD ASN C  17     -70.270-205.148  77.247  1.00 16.48 LIG 0.16  HD
ATOM     61 22HD ASN C  17     -69.971-205.089  78.705  1.00 16.48 LIG 0.16  HD
ENDBRANCH 56 57
ENDBRANCH 34 56
ENDBRANCH 1 34
TORSDOF 20
ENDMDL
MODEL 6
USER: ADFR SOLUTION from run 7
USER: SCORE 18.095089 LL:  -5.021 LR: -14.683 RR:   0.000 FEB:  -8.717
USER: RMSD 3.897936
USER: SEED 780283
USER: STATUS no improvement in best in 8 clusters for 5 generations
USER: GENES 22
USER: genes 0 Translation |==|  0.73733 0.57943 0.52087
USER: genes 1 Rotation |==|  0.44166 0.56287 0.83809 0.85824
USER: genes 2 Torsion [C]-N--CA-[CB] |==|  0.50030
USER: genes 3 Torsion [N]-CA--CB-[CG] |==|  0.76838
USER: genes 4 Torsion [CA]-CB--CG-[OD1] |==|  0.35686
USER: genes 5 Torsion [N]-CA--C-[N] |==|  0.32415
USER: genes 6 Torsion [N]-CA--C-[O] |==|  0.52099
USER: genes 7 Torsion [C]-N--CA-[CB] |==|  0.39994
USER: genes 8 Torsion [N]-CA--CB-[CG] |==|  0.88076
USER: genes 9 Torsion [CA]-CB--CG-[CD1] |==|  0.84527
USER: genes 10 Torsion [N]-CA--C-[O] |==|  0.83027
USER: genes 11 Torsion [N]-C--CA-[N] |==|  0.12222
USER: genes 12 Torsion [C]-CA--N-[C] |==|  0.65053
USER: genes 13 Torsion [N]-C--CA-[N] |==|  0.50742
USER: genes 14 Torsion [C]-CA--CB-[CG2] |==|  0.70576
USER: genes 15 Torsion [C]-CA--N-[C] |==|  0.79432
USER: genes 16 Torsion [N]-C--CA-[N] |==|  0.63305
USER: genes 17 Torsion [C]-CA--CB-[CG] |==|  0.50852
USER: genes 18 Torsion [CA]-CB--CG-[CD] |==|  0.88965
USER: genes 19 Torsion [CB]-CG--CD-[OE1] |==|  0.27373
USER: genes 20 Torsion [C]-CA--CB-[CG] |==|  0.78718
USER: genes 21 Torsion [CA]-CB--CG-[OD1] |==|  0.82765
ROOT
ATOM      1  C   ASN C  17     -73.104-208.330  83.335  1.00 20.61 LIG 0.24  C 
ATOM      2 O    ASN C  17     -72.080-208.151  82.677  1.00 16.51 LIG-0.27  OA
ATOM      3  N   ASN C  18     -74.261-208.714  82.800  1.00 22.51 LIG-0.35  N 
ATOM      4 H    ASN C  18     -74.988-208.803  83.250  1.00 22.51 LIG 0.16  HD
ENDROOT
BRANCH 3 5
ATOM      5  CA  ASN C  18     -74.396-209.023  81.380  1.00 19.22 LIG 0.18  C 
BRANCH 5 6
ATOM      6  CB  ASN C  18     -75.839-209.431  81.065  1.00 16.89 LIG 0.14  C 
BRANCH 6 7
ATOM      7  CG  ASN C  18     -76.108-210.894  81.359  1.00 20.14 LIG 0.22  C 
ATOM      8  ND2 ASN C  18     -75.271-211.771  80.815  1.00 20.12 LIG-0.37  N 
ATOM      9 22HD ASN C  18     -74.612-211.495  80.335  1.00 20.12 LIG 0.16  HD
ATOM     10 21HD ASN C  18     -75.388-212.613  80.942  1.00 20.12 LIG 0.16  HD
ATOM     11 OD1  ASN C  18     -77.067-211.234  82.053  1.00 18.28 LIG-0.27  OA
ENDBRANCH 6 7
ENDBRANCH 5 6
BRANCH 5 12
ATOM     12  C   ASN C  18     -73.988-207.842  80.496  1.00 21.33 LIG 0.24  C 
ATOM     13  N   PRO C  19     -72.931-208.015  79.686  1.00 20.66 LIG-0.34  N 
ATOM     14  CD  PRO C  19     -72.002-209.158  79.650  1.00 23.11 LIG 0.13  C 
ATOM     15  CA  PRO C  19     -72.491-206.936  78.797  1.00 23.26 LIG 0.18  C 
ATOM     16  CG  PRO C  19     -70.963-208.742  78.634  1.00 22.87 LIG 0.02  C 
ATOM     17  CB  PRO C  19     -71.011-207.253  78.592  1.00 23.39 LIG 0.04  C 
ATOM     18 O    ASN C  18     -74.620-206.786  80.540  1.00 23.13 LIG-0.27  OA
BRANCH 15 19
ATOM     19  C   PRO C  19     -73.221-206.916  77.454  1.00 24.54 LIG 0.24  C 
ATOM     20  N   PHE C  20     -74.248-207.749  77.309  1.00 23.51 LIG-0.34  N 
ATOM     21 H    PHE C  20     -74.590-208.206  77.953  1.00 23.51 LIG 0.16  HD
ATOM     22 O    PRO C  19     -72.845-206.146  76.566  1.00 27.52 LIG-0.27  OA
BRANCH 20 23
ATOM     23  CA  PHE C  20     -74.891-207.954  76.012  1.00 27.49 LIG 0.19  C 
BRANCH 23 24
ATOM     24  CB  PHE C  20     -75.317-209.417  75.887  1.00 22.62 LIG 0.07  C 
BRANCH 24 25
ATOM     25  CG  PHE C  20     -74.276-210.375  76.379  1.00 18.80 LIG-0.06  A 
ATOM     26  CD1 PHE C  20     -72.997-210.340  75.858  1.00 16.53 LIG 0.01  A 
ATOM     27  CE1 PHE C  20     -72.025-211.200  76.313  1.00 18.06 LIG 0.00  A 
ATOM     28  CZ  PHE C  20     -72.320-212.113  77.312  1.00 17.30 LIG 0.00  A 
ATOM     29  CE2 PHE C  20     -73.588-212.155  77.848  1.00 18.45 LIG 0.00  A 
ATOM     30  CD2 PHE C  20     -74.560-211.285  77.386  1.00 20.64 LIG 0.01  A 
ENDBRANCH 24 25
ENDBRANCH 23 24
BRANCH 23 31
ATOM     31  C   PHE C  20     -76.082-207.026  75.792  1.00 41.21 LIG 0.20  C 
ATOM     32 OXT  PHE C  20     -76.106-206.224  74.859  1.00 46.78 LIG-0.65  OA
ATOM     33 O    PHE C  20     -77.062-207.065  76.541  1.00 43.65 LIG-0.65  OA
ENDBRANCH 23 31
ENDBRANCH 20 23
ENDBRANCH 15 19
ENDBRANCH 5 12
ENDBRANCH 3 5
BRANCH 1 34
ATOM     34  CA  ASN C  17     -73.093-208.131  84.844  1.00 16.90 LIG 0.18  C 
BRANCH 34 35
ATOM     35  N   ASN C  17     -73.798-209.245  85.461  1.00 20.58 LIG-0.35  N 
ATOM     36  C   VAL C  16     -74.810-209.039  86.297  1.00 27.16 LIG 0.24  C 
ATOM     37 O    VAL C  16     -75.083-207.929  86.753  1.00 29.43 LIG-0.27  OA
ATOM     38 H    ASN C  17     -73.505-210.022  85.238  1.00 20.58 LIG 0.16  HD
BRANCH 36 39
ATOM     39  CA  VAL C  16     -75.630-210.266  86.690  1.00 33.54 LIG 0.18  C 
BRANCH 39 40
ATOM     40  CB  VAL C  16     -76.141-210.973  85.412  1.00 32.44 LIG 0.01  C 
ATOM     41  CG2 VAL C  16     -77.636-210.716  85.224  1.00 34.10 LIG 0.01  C 
ATOM     42  CG1 VAL C  16     -75.829-212.476  85.443  1.00 32.37 LIG 0.01  C 
ENDBRANCH 39 40
BRANCH 39 43
ATOM     43  N   VAL C  16     -76.744-209.902  87.557  1.00 45.58 LIG-0.34  N 
ATOM     44  C   GLN C  15     -76.574-209.570  88.832  1.00 57.61 LIG 0.26  C 
ATOM     45 O    GLN C  15     -75.467-209.517  89.370  1.00 61.53 LIG-0.27  OA
ATOM     46 H    VAL C  16     -77.511-209.922  87.170  1.00 45.58 LIG 0.16  HD
BRANCH 44 47
ATOM     47  CA  GLN C  15     -77.846-209.245  89.610  1.00 63.44 LIG 0.40  C 
ATOM     48  N   GLN C  15     -77.690-208.003  90.358  1.00 62.08 LIG 0.61  N 
BRANCH 47 49
ATOM     49  CB  GLN C  15     -79.036-209.148  88.658  1.00 68.54 LIG 0.06  C 
BRANCH 49 50
ATOM     50  CG  GLN C  15     -80.340-208.752  89.344  1.00 72.89 LIG 0.10  C 
BRANCH 50 51
ATOM     51  CD  GLN C  15     -80.541-209.402  90.703  1.00 75.77 LIG 0.21  C 
ATOM     52 OE1  GLN C  15     -80.281-208.801  91.745  1.00 77.61 LIG-0.27  OA
ATOM     53  NE2 GLN C  15     -81.004-210.646  90.693  1.00 76.03 LIG-0.37  N 
ATOM     54 22HE GLN C  15     -81.133-211.062  91.434  1.00 76.03 LIG 0.16  HD
ATOM     55 21HE GLN C  15     -81.175-211.035  89.945  1.00 76.03 LIG 0.16  HD
ENDBRANCH 50 51
ENDBRANCH 49 50
ENDBRANCH 47 49
ENDBRANCH 44 47
ENDBRANCH 39 43
ENDBRANCH 36 39
ENDBRANCH 34 35
BRANCH 34 56
ATOM     56  CB  ASN C  17     -71.658-208.027  85.370  1.00 15.63 LIG 0.14  C 
BRANCH 56 57
ATOM     57  CG  ASN C  17     -70.964-209.373  85.446  1.00 17.63 LIG 0.22  C 
ATOM     58 OD1  ASN C  17     -71.394-210.268  86.178  1.00 24.00 LIG-0.27  OA
ATOM     59  ND2 ASN C  17     -69.875-209.521  84.701  1.00 16.48 LIG-0.37  N 
ATOM     60 21HD ASN C  17     -69.440-210.263  84.718  1.00 16.48 LIG 0.16  HD
ATOM     61 22HD ASN C  17     -69.605-208.874  84.203  1.00 16.48 LIG 0.16  HD
ENDBRANCH 56 57
ENDBRANCH 34 56
ENDBRANCH 1 34
TORSDOF 20
ENDMDL
MODEL 7
USER: ADFR SOLUTION from run 6
USER: SCORE 18.639213 LL:  -5.318 LR: -14.679 RR:   0.000 FEB:  -8.713
USER: RMSD 10.167818
USER: SEED 817029
USER: STATUS no improvement in best in 6 clusters for 5 generations
USER: GENES 22
USER: genes 0 Translation |==|  0.76709 0.62966 0.44650
USER: genes 1 Rotation |==|  0.90235 0.73814 0.67719 0.50144
USER: genes 2 Torsion [C]-N--CA-[CB] |==|  0.76720
USER: genes 3 Torsion [N]-CA--CB-[CG] |==|  0.72298
USER: genes 4 Torsion [CA]-CB--CG-[OD1] |==|  0.63275
USER: genes 5 Torsion [N]-CA--C-[N] |==|  0.15631
USER: genes 6 Torsion [N]-CA--C-[O] |==|  0.82428
USER: genes 7 Torsion [C]-N--CA-[CB] |==|  0.32572
USER: genes 8 Torsion [N]-CA--CB-[CG] |==|  0.84807
USER: genes 9 Torsion [CA]-CB--CG-[CD1] |==|  0.41953
USER: genes 10 Torsion [N]-CA--C-[O] |==|  0.47423
USER: genes 11 Torsion [N]-C--CA-[N] |==|  0.21577
USER: genes 12 Torsion [C]-CA--N-[C] |==|  0.79995
USER: genes 13 Torsion [N]-C--CA-[N] |==|  0.99459
USER: genes 14 Torsion [C]-CA--CB-[CG2] |==|  0.79955
USER: genes 15 Torsion [C]-CA--N-[C] |==|  0.59026
USER: genes 16 Torsion [N]-C--CA-[N] |==|  0.58192
USER: genes 17 Torsion [C]-CA--CB-[CG] |==|  0.26868
USER: genes 18 Torsion [CA]-CB--CG-[CD] |==|  0.29374
USER: genes 19 Torsion [CB]-CG--CD-[OE1] |==|  0.11349
USER: genes 20 Torsion [C]-CA--CB-[CG] |==|  0.55968
USER: genes 21 Torsion [CA]-CB--CG-[OD1] |==|  0.21296
ROOT
ATOM      1  C   ASN C  17     -72.479-207.576  81.494  1.00 20.61 LIG 0.24  C 
ATOM      2 O    ASN C  17     -73.430-206.859  81.801  1.00 16.51 LIG-0.27  OA
ATOM      3  N   ASN C  18     -72.064-208.600  82.236  1.00 22.51 LIG-0.35  N 
ATOM      4 H    ASN C  18     -71.376-209.080  82.044  1.00 22.51 LIG 0.16  HD
ENDROOT
BRANCH 3 5
ATOM      5  CA  ASN C  18     -72.751-209.002  83.459  1.00 19.22 LIG 0.18  C 
BRANCH 5 6
ATOM      6  CB  ASN C  18     -72.273-208.148  84.637  1.00 16.89 LIG 0.14  C 
BRANCH 6 7
ATOM      7  CG  ASN C  18     -71.239-208.857  85.490  1.00 20.14 LIG 0.22  C 
ATOM      8  ND2 ASN C  18     -70.245-209.454  84.840  1.00 20.12 LIG-0.37  N 
ATOM      9 22HD ASN C  18     -70.208-209.415  83.981  1.00 20.12 LIG 0.16  HD
ATOM     10 21HD ASN C  18     -69.639-209.879  85.278  1.00 20.12 LIG 0.16  HD
ATOM     11 OD1  ASN C  18     -71.340-208.882  86.717  1.00 18.28 LIG-0.27  OA
ENDBRANCH 6 7
ENDBRANCH 5 6
BRANCH 5 12
ATOM     12  C   ASN C  18     -74.272-208.892  83.323  1.00 21.33 LIG 0.24  C 
ATOM     13  N   PRO C  19     -74.851-209.566  82.317  1.00 20.66 LIG-0.34  N 
ATOM     14  CD  PRO C  19     -74.187-210.283  81.213  1.00 23.11 LIG 0.13  C 
ATOM     15  CA  PRO C  19     -76.305-209.524  82.132  1.00 23.26 LIG 0.18  C 
ATOM     16  CG  PRO C  19     -75.334-210.735  80.339  1.00 22.87 LIG 0.02  C 
ATOM     17  CB  PRO C  19     -76.462-209.808  80.640  1.00 23.39 LIG 0.04  C 
ATOM     18 O    ASN C  18     -74.918-208.210  84.118  1.00 23.13 LIG-0.27  OA
BRANCH 15 19
ATOM     19  C   PRO C  19     -77.055-210.572  82.955  1.00 24.54 LIG 0.24  C 
ATOM     20  N   PHE C  20     -77.897-210.125  83.883  1.00 23.51 LIG-0.34  N 
ATOM     21 H    PHE C  20     -78.125-209.300  83.967  1.00 23.51 LIG 0.16  HD
ATOM     22 O    PRO C  19     -76.862-211.771  82.738  1.00 27.52 LIG-0.27  OA
BRANCH 20 23
ATOM     23  CA  PHE C  20     -78.515-211.027  84.853  1.00 27.49 LIG 0.19  C 
BRANCH 23 24
ATOM     24  CB  PHE C  20     -78.064-210.639  86.261  1.00 22.62 LIG 0.07  C 
BRANCH 24 25
ATOM     25  CG  PHE C  20     -76.574-210.595  86.409  1.00 18.80 LIG-0.06  A 
ATOM     26  CD1 PHE C  20     -75.991-209.741  87.325  1.00 16.53 LIG 0.01  A 
ATOM     27  CE1 PHE C  20     -74.626-209.703  87.486  1.00 18.06 LIG 0.00  A 
ATOM     28  CZ  PHE C  20     -73.815-210.533  86.730  1.00 17.30 LIG 0.00  A 
ATOM     29  CE2 PHE C  20     -74.381-211.396  85.817  1.00 18.45 LIG 0.00  A 
ATOM     30  CD2 PHE C  20     -75.757-211.429  85.662  1.00 20.64 LIG 0.01  A 
ENDBRANCH 24 25
ENDBRANCH 23 24
BRANCH 23 31
ATOM     31  C   PHE C  20     -80.039-211.038  84.760  1.00 41.21 LIG 0.20  C 
ATOM     32 OXT  PHE C  20     -80.643-210.234  84.051  1.00 46.78 LIG-0.65  OA
ATOM     33 O    PHE C  20     -80.705-211.866  85.387  1.00 43.65 LIG-0.65  OA
ENDBRANCH 23 31
ENDBRANCH 20 23
ENDBRANCH 15 19
ENDBRANCH 5 12
ENDBRANCH 3 5
BRANCH 1 34
ATOM     34  CA  ASN C  17     -71.718-207.332  80.198  1.00 16.90 LIG 0.18  C 
BRANCH 34 35
ATOM     35  N   ASN C  17     -72.162-208.305  79.212  1.00 20.58 LIG-0.35  N 
ATOM     36  C   VAL C  16     -71.819-209.586  79.307  1.00 27.16 LIG 0.24  C 
ATOM     37 O    VAL C  16     -70.964-209.989  80.095  1.00 29.43 LIG-0.27  OA
ATOM     38 H    ASN C  17     -72.651-207.981  78.583  1.00 20.58 LIG 0.16  HD
BRANCH 36 39
ATOM     39  CA  VAL C  16     -72.535-210.554  78.369  1.00 33.54 LIG 0.18  C 
BRANCH 39 40
ATOM     40  CB  VAL C  16     -71.492-211.270  77.477  1.00 32.44 LIG 0.01  C 
ATOM     41  CG2 VAL C  16     -70.929-210.303  76.435  1.00 34.10 LIG 0.01  C 
ATOM     42  CG1 VAL C  16     -72.089-212.521  76.816  1.00 32.37 LIG 0.01  C 
ENDBRANCH 39 40
BRANCH 39 43
ATOM     43  N   VAL C  16     -73.524-209.863  77.551  1.00 45.58 LIG-0.34  N 
ATOM     44  C   GLN C  15     -74.651-210.442  77.156  1.00 57.61 LIG 0.26  C 
ATOM     45 O    GLN C  15     -74.961-211.592  77.472  1.00 61.53 LIG-0.27  OA
ATOM     46 H    VAL C  16     -73.310-209.054  77.351  1.00 45.58 LIG 0.16  HD
BRANCH 44 47
ATOM     47  CA  GLN C  15     -75.566-209.591  76.279  1.00 63.44 LIG 0.40  C 
ATOM     48  N   GLN C  15     -76.962-209.969  76.469  1.00 62.08 LIG 0.61  N 
BRANCH 47 49
ATOM     49  CB  GLN C  15     -75.368-208.110  76.593  1.00 68.54 LIG 0.06  C 
BRANCH 49 50
ATOM     50  CG  GLN C  15     -74.408-207.404  75.641  1.00 72.89 LIG 0.10  C 
BRANCH 50 51
ATOM     51  CD  GLN C  15     -75.094-206.490  74.641  1.00 75.77 LIG 0.21  C 
ATOM     52 OE1  GLN C  15     -76.037-205.771  74.972  1.00 77.61 LIG-0.27  OA
ATOM     53  NE2 GLN C  15     -74.623-206.521  73.400  1.00 76.03 LIG-0.37  N 
ATOM     54 22HE GLN C  15     -74.977-206.026  72.793  1.00 76.03 LIG 0.16  HD
ATOM     55 21HE GLN C  15     -73.963-207.036  73.204  1.00 76.03 LIG 0.16  HD
ENDBRANCH 50 51
ENDBRANCH 49 50
ENDBRANCH 47 49
ENDBRANCH 44 47
ENDBRANCH 39 43
ENDBRANCH 36 39
ENDBRANCH 34 35
BRANCH 34 56
ATOM     56  CB  ASN C  17     -71.938-205.901  79.699  1.00 15.63 LIG 0.14  C 
BRANCH 56 57
ATOM     57  CG  ASN C  17     -71.662-205.749  78.215  1.00 17.63 LIG 0.22  C 
ATOM     58 OD1  ASN C  17     -72.472-206.146  77.375  1.00 24.00 LIG-0.27  OA
ATOM     59  ND2 ASN C  17     -70.506-205.187  77.883  1.00 16.48 LIG-0.37  N 
ATOM     60 21HD ASN C  17     -70.298-205.088  77.054  1.00 16.48 LIG 0.16  HD
ATOM     61 22HD ASN C  17     -69.964-204.923  78.496  1.00 16.48 LIG 0.16  HD
ENDBRANCH 56 57
ENDBRANCH 34 56
ENDBRANCH 1 34
TORSDOF 20
ENDMDL
MODEL 8
USER: ADFR SOLUTION from run 6
USER: SCORE 17.247857 LL:  -4.089 LR: -14.545 RR:   0.000 FEB:  -8.579
USER: RMSD 10.223945
USER: SEED 817029
USER: STATUS no improvement in best in 6 clusters for 5 generations
USER: GENES 22
USER: genes 0 Translation |==|  0.75078 0.62480 0.44254
USER: genes 1 Rotation |==|  0.90647 0.71479 0.69649 0.50618
USER: genes 2 Torsion [C]-N--CA-[CB] |==|  0.77877
USER: genes 3 Torsion [N]-CA--CB-[CG] |==|  0.79632
USER: genes 4 Torsion [CA]-CB--CG-[OD1] |==|  0.69600
USER: genes 5 Torsion [N]-CA--C-[N] |==|  0.15117
USER: genes 6 Torsion [N]-CA--C-[O] |==|  0.96029
USER: genes 7 Torsion [C]-N--CA-[CB] |==|  0.85509
USER: genes 8 Torsion [N]-CA--CB-[CG] |==|  0.62416
USER: genes 9 Torsion [CA]-CB--CG-[CD1] |==|  0.38754
USER: genes 10 Torsion [N]-CA--C-[O] |==|  0.47068
USER: genes 11 Torsion [N]-C--CA-[N] |==|  0.20202
USER: genes 12 Torsion [C]-CA--N-[C] |==|  0.78840
USER: genes 13 Torsion [N]-C--CA-[N] |==|  0.99537
USER: genes 14 Torsion [C]-CA--CB-[CG2] |==|  0.79742
USER: genes 15 Torsion [C]-CA--N-[C] |==|  0.57796
USER: genes 16 Torsion [N]-C--CA-[N] |==|  0.60109
USER: genes 17 Torsion [C]-CA--CB-[CG] |==|  0.25477
USER: genes 18 Torsion [CA]-CB--CG-[CD] |==|  0.30524
USER: genes 19 Torsion [CB]-CG--CD-[OE1] |==|  0.11181
USER: genes 20 Torsion [C]-CA--CB-[CG] |==|  0.56149
USER: genes 21 Torsion [CA]-CB--CG-[OD1] |==|  0.22214
ROOT
ATOM      1  C   ASN C  17     -72.822-207.649  81.396  1.00 20.61 LIG 0.24  C 
ATOM      2 O    ASN C  17     -73.725-206.865  81.683  1.00 16.51 LIG-0.27  OA
ATOM      3  N   ASN C  18     -72.549-208.744  82.103  1.00 22.51 LIG-0.35  N 
ATOM      4 H    ASN C  18     -71.895-209.274  81.927  1.00 22.51 LIG 0.16  HD
ENDROOT
BRANCH 3 5
ATOM      5  CA  ASN C  18     -73.350-209.144  83.255  1.00 19.22 LIG 0.18  C 
BRANCH 5 6
ATOM      6  CB  ASN C  18     -72.950-208.325  84.486  1.00 16.89 LIG 0.14  C 
BRANCH 6 7
ATOM      7  CG  ASN C  18     -71.606-208.741  85.052  1.00 20.14 LIG 0.22  C 
ATOM      8  ND2 ASN C  18     -70.539-208.447  84.318  1.00 20.12 LIG-0.37  N 
ATOM      9 22HD ASN C  18     -70.632-208.032  83.570  1.00 20.12 LIG 0.16  HD
ATOM     10 21HD ASN C  18     -69.754-208.672  84.590  1.00 20.12 LIG 0.16  HD
ATOM     11 OD1  ASN C  18     -71.530-209.334  86.128  1.00 18.28 LIG-0.27  OA
ENDBRANCH 6 7
ENDBRANCH 5 6
BRANCH 5 12
ATOM     12  C   ASN C  18     -74.850-208.984  82.992  1.00 21.33 LIG 0.24  C 
ATOM     13  N   PRO C  19     -75.353-209.593  81.906  1.00 20.66 LIG-0.34  N 
ATOM     14  CD  PRO C  19     -74.611-210.274  80.830  1.00 23.11 LIG 0.13  C 
ATOM     15  CA  PRO C  19     -76.783-209.500  81.597  1.00 23.26 LIG 0.18  C 
ATOM     16  CG  PRO C  19     -75.686-210.651  79.837  1.00 22.87 LIG 0.02  C 
ATOM     17  CB  PRO C  19     -76.813-209.708  80.084  1.00 23.39 LIG 0.04  C 
ATOM     18 O    ASN C  18     -75.547-208.323  83.761  1.00 23.13 LIG-0.27  OA
BRANCH 15 19
ATOM     19  C   PRO C  19     -77.628-210.565  82.296  1.00 24.54 LIG 0.24  C 
ATOM     20  N   PHE C  20     -78.946-210.382  82.309  1.00 23.51 LIG-0.34  N 
ATOM     21 H    PHE C  20     -79.350-209.772  81.857  1.00 23.51 LIG 0.16  HD
ATOM     22 O    PRO C  19     -77.076-211.539  82.815  1.00 27.52 LIG-0.27  OA
BRANCH 20 23
ATOM     23  CA  PHE C  20     -79.829-211.226  83.112  1.00 27.49 LIG 0.19  C 
BRANCH 23 24
ATOM     24  CB  PHE C  20     -79.541-212.695  82.802  1.00 22.62 LIG 0.07  C 
BRANCH 24 25
ATOM     25  CG  PHE C  20     -80.785-213.509  82.615  1.00 18.80 LIG-0.06  A 
ATOM     26  CD1 PHE C  20     -80.847-214.464  81.619  1.00 16.53 LIG 0.01  A 
ATOM     27  CE1 PHE C  20     -81.974-215.233  81.446  1.00 18.06 LIG 0.00  A 
ATOM     28  CZ  PHE C  20     -83.065-215.061  82.283  1.00 17.30 LIG 0.00  A 
ATOM     29  CE2 PHE C  20     -83.016-214.119  83.287  1.00 18.45 LIG 0.00  A 
ATOM     30  CD2 PHE C  20     -81.876-213.350  83.454  1.00 20.64 LIG 0.01  A 
ENDBRANCH 24 25
ENDBRANCH 23 24
BRANCH 23 31
ATOM     31  C   PHE C  20     -79.699-210.957  84.609  1.00 41.21 LIG 0.20  C 
ATOM     32 OXT  PHE C  20     -78.801-210.244  85.056  1.00 46.78 LIG-0.65  OA
ATOM     33 O    PHE C  20     -80.503-211.439  85.411  1.00 43.65 LIG-0.65  OA
ENDBRANCH 23 31
ENDBRANCH 20 23
ENDBRANCH 15 19
ENDBRANCH 5 12
ENDBRANCH 3 5
BRANCH 1 34
ATOM     34  CA  ASN C  17     -71.956-207.408  80.167  1.00 16.90 LIG 0.18  C 
BRANCH 34 35
ATOM     35  N   ASN C  17     -72.337-208.366  79.140  1.00 20.58 LIG-0.35  N 
ATOM     36  C   VAL C  16     -71.955-209.637  79.209  1.00 27.16 LIG 0.24  C 
ATOM     37 O    VAL C  16     -71.112-210.037  80.012  1.00 29.43 LIG-0.27  OA
ATOM     38 H    ASN C  17     -72.817-208.039  78.505  1.00 20.58 LIG 0.16  HD
BRANCH 36 39
ATOM     39  CA  VAL C  16     -72.610-210.600  78.221  1.00 33.54 LIG 0.18  C 
BRANCH 39 40
ATOM     40  CB  VAL C  16     -71.517-211.261  77.347  1.00 32.44 LIG 0.01  C 
ATOM     41  CG2 VAL C  16     -70.961-210.254  76.339  1.00 34.10 LIG 0.01  C 
ATOM     42  CG1 VAL C  16     -72.048-212.520  76.648  1.00 32.37 LIG 0.01  C 
ENDBRANCH 39 40
BRANCH 39 43
ATOM     43  N   VAL C  16     -73.591-209.915  77.388  1.00 45.58 LIG-0.34  N 
ATOM     44  C   GLN C  15     -74.642-210.538  76.869  1.00 57.61 LIG 0.26  C 
ATOM     45 O    GLN C  15     -74.885-211.728  77.072  1.00 61.53 LIG-0.27  OA
ATOM     46 H    VAL C  16     -73.426-209.079  77.267  1.00 45.58 LIG 0.16  HD
BRANCH 44 47
ATOM     47  CA  GLN C  15     -75.557-209.684  75.994  1.00 63.44 LIG 0.40  C 
ATOM     48  N   GLN C  15     -76.952-210.069  76.177  1.00 62.08 LIG 0.61  N 
BRANCH 47 49
ATOM     49  CB  GLN C  15     -75.365-208.204  76.319  1.00 68.54 LIG 0.06  C 
BRANCH 49 50
ATOM     50  CG  GLN C  15     -74.315-207.517  75.452  1.00 72.89 LIG 0.10  C 
BRANCH 50 51
ATOM     51  CD  GLN C  15     -74.892-206.523  74.459  1.00 75.77 LIG 0.21  C 
ATOM     52 OE1  GLN C  15     -75.817-205.772  74.768  1.00 77.61 LIG-0.27  OA
ATOM     53  NE2 GLN C  15     -74.345-206.521  73.250  1.00 76.03 LIG-0.37  N 
ATOM     54 22HE GLN C  15     -74.636-205.981  72.647  1.00 76.03 LIG 0.16  HD
ATOM     55 21HE GLN C  15     -73.700-207.060  73.069  1.00 76.03 LIG 0.16  HD
ENDBRANCH 50 51
ENDBRANCH 49 50
ENDBRANCH 47 49
ENDBRANCH 44 47
ENDBRANCH 39 43
ENDBRANCH 36 39
ENDBRANCH 34 35
BRANCH 34 56
ATOM     56  CB  ASN C  17     -72.110-205.970  79.665  1.00 15.63 LIG 0.14  C 
BRANCH 56 57
ATOM     57  CG  ASN C  17     -71.729-205.815  78.205  1.00 17.63 LIG 0.22  C 
ATOM     58 OD1  ASN C  17     -72.513-206.132  77.307  1.00 24.00 LIG-0.27  OA
ATOM     59  ND2 ASN C  17     -70.515-205.339  77.957  1.00 16.48 LIG-0.37  N 
ATOM     60 21HD ASN C  17     -70.248-205.242  77.146  1.00 16.48 LIG 0.16  HD
ATOM     61 22HD ASN C  17     -69.995-205.128  78.609  1.00 16.48 LIG 0.16  HD
ENDBRANCH 56 57
ENDBRANCH 34 56
ENDBRANCH 1 34
TORSDOF 20
ENDMDL
MODEL 9
USER: ADFR SOLUTION from run 95
USER: SCORE 18.587970 LL:  -5.641 LR: -14.295 RR:   0.000 FEB:  -8.329
USER: RMSD 2.562730
USER: SEED 94
USER: STATUS no improvement in best in 12 clusters for 5 generations
USER: GENES 22
USER: genes 0 Translation |==|  0.59600 0.39310 0.50176
USER: genes 1 Rotation |==|  0.49700 0.45969 0.43609 0.99425
USER: genes 2 Torsion [C]-N--CA-[CB] |==|  0.23188
USER: genes 3 Torsion [N]-CA--CB-[CG] |==|  0.10187
USER: genes 4 Torsion [CA]-CB--CG-[OD1] |==|  0.66538
USER: genes 5 Torsion [N]-CA--C-[N] |==|  0.33818
USER: genes 6 Torsion [N]-CA--C-[O] |==|  0.50407
USER: genes 7 Torsion [C]-N--CA-[CB] |==|  0.38930
USER: genes 8 Torsion [N]-CA--CB-[CG] |==|  0.91180
USER: genes 9 Torsion [CA]-CB--CG-[CD1] |==|  0.30124
USER: genes 10 Torsion [N]-CA--C-[O] |==|  0.93750
USER: genes 11 Torsion [N]-C--CA-[N] |==|  0.33849
USER: genes 12 Torsion [C]-CA--N-[C] |==|  0.78545
USER: genes 13 Torsion [N]-C--CA-[N] |==|  0.33903
USER: genes 14 Torsion [C]-CA--CB-[CG2] |==|  0.72401
USER: genes 15 Torsion [C]-CA--N-[C] |==|  0.69738
USER: genes 16 Torsion [N]-C--CA-[N] |==|  0.99601
USER: genes 17 Torsion [C]-CA--CB-[CG] |==|  0.94680
USER: genes 18 Torsion [CA]-CB--CG-[CD] |==|  0.80361
USER: genes 19 Torsion [CB]-CG--CD-[OE1] |==|  0.99543
USER: genes 20 Torsion [C]-CA--CB-[CG] |==|  0.19791
USER: genes 21 Torsion [CA]-CB--CG-[OD1] |==|  0.97351
ROOT
ATOM      1  C   ASN C  17     -76.072-211.125  82.862  1.00 20.61 LIG 0.24  C 
ATOM      2 O    ASN C  17     -75.820-212.235  82.395  1.00 16.51 LIG-0.27  OA
ATOM      3  N   ASN C  18     -75.913-209.991  82.182  1.00 22.51 LIG-0.35  N 
ATOM      4 H    ASN C  18     -76.052-209.211  82.517  1.00 22.51 LIG 0.16  HD
ENDROOT
BRANCH 3 5
ATOM      5  CA  ASN C  18     -75.483-209.974  80.788  1.00 19.22 LIG 0.18  C 
BRANCH 5 6
ATOM      6  CB  ASN C  18     -76.684-210.193  79.863  1.00 16.89 LIG 0.14  C 
BRANCH 6 7
ATOM      7  CG  ASN C  18     -77.944-209.523  80.376  1.00 20.14 LIG 0.22  C 
ATOM      8  ND2 ASN C  18     -77.884-208.208  80.555  1.00 20.12 LIG-0.37  N 
ATOM      9 22HD ASN C  18     -77.159-207.782  80.372  1.00 20.12 LIG 0.16  HD
ATOM     10 21HD ASN C  18     -78.569-207.783  80.855  1.00 20.12 LIG 0.16  HD
ATOM     11 OD1  ASN C  18     -78.955-210.182  80.622  1.00 18.28 LIG-0.27  OA
ENDBRANCH 6 7
ENDBRANCH 5 6
BRANCH 5 12
ATOM     12  C   ASN C  18     -74.780-208.664  80.422  1.00 21.33 LIG 0.24  C 
ATOM     13  N   PRO C  19     -73.522-208.749  79.959  1.00 20.66 LIG-0.34  N 
ATOM     14  CD  PRO C  19     -72.660-209.943  79.905  1.00 23.11 LIG 0.13  C 
ATOM     15  CA  PRO C  19     -72.790-207.540  79.571  1.00 23.26 LIG 0.18  C 
ATOM     16  CG  PRO C  19     -71.338-209.408  79.406  1.00 22.87 LIG 0.02  C 
ATOM     17  CB  PRO C  19     -71.332-207.958  79.752  1.00 23.39 LIG 0.04  C 
ATOM     18 O    ASN C  18     -75.365-207.589  80.551  1.00 23.13 LIG-0.27  OA
BRANCH 15 19
ATOM     19  C   PRO C  19     -73.044-207.110  78.126  1.00 24.54 LIG 0.24  C 
ATOM     20  N   PHE C  20     -73.899-207.842  77.417  1.00 23.51 LIG-0.34  N 
ATOM     21 H    PHE C  20     -74.394-208.461  77.751  1.00 23.51 LIG 0.16  HD
ATOM     22 O    PRO C  19     -72.463-206.121  77.671  1.00 27.52 LIG-0.27  OA
BRANCH 20 23
ATOM     23  CA  PHE C  20     -74.067-207.644  75.978  1.00 27.49 LIG 0.19  C 
BRANCH 23 24
ATOM     24  CB  PHE C  20     -74.217-209.003  75.296  1.00 22.62 LIG 0.07  C 
BRANCH 24 25
ATOM     25  CG  PHE C  20     -73.453-210.092  75.984  1.00 18.80 LIG-0.06  A 
ATOM     26  CD1 PHE C  20     -74.123-211.070  76.693  1.00 16.53 LIG 0.01  A 
ATOM     27  CE1 PHE C  20     -73.437-212.088  77.314  1.00 18.06 LIG 0.00  A 
ATOM     28  CZ  PHE C  20     -72.056-212.146  77.228  1.00 17.30 LIG 0.00  A 
ATOM     29  CE2 PHE C  20     -71.373-211.182  76.519  1.00 18.45 LIG 0.00  A 
ATOM     30  CD2 PHE C  20     -72.071-210.162  75.895  1.00 20.64 LIG 0.01  A 
ENDBRANCH 24 25
ENDBRANCH 23 24
BRANCH 23 31
ATOM     31  C   PHE C  20     -75.252-206.740  75.643  1.00 41.21 LIG 0.20  C 
ATOM     32 OXT  PHE C  20     -75.321-206.146  74.568  1.00 46.78 LIG-0.65  OA
ATOM     33 O    PHE C  20     -76.180-206.592  76.443  1.00 43.65 LIG-0.65  OA
ENDBRANCH 23 31
ENDBRANCH 20 23
ENDBRANCH 15 19
ENDBRANCH 5 12
ENDBRANCH 3 5
BRANCH 1 34
ATOM     34  CA  ASN C  17     -76.614-210.990  84.278  1.00 16.90 LIG 0.18  C 
BRANCH 34 35
ATOM     35  N   ASN C  17     -77.841-211.765  84.378  1.00 20.58 LIG-0.35  N 
ATOM     36  C   VAL C  16     -78.984-211.309  83.875  1.00 27.16 LIG 0.24  C 
ATOM     37 O    VAL C  16     -79.125-210.151  83.483  1.00 29.43 LIG-0.27  OA
ATOM     38 H    ASN C  17     -77.757-212.521  84.780  1.00 20.58 LIG 0.16  HD
BRANCH 36 39
ATOM     39  CA  VAL C  16     -80.145-212.300  83.816  1.00 33.54 LIG 0.18  C 
BRANCH 39 40
ATOM     40  CB  VAL C  16     -80.519-212.566  82.338  1.00 32.44 LIG 0.01  C 
ATOM     41  CG2 VAL C  16     -81.734-211.729  81.938  1.00 34.10 LIG 0.01  C 
ATOM     42  CG1 VAL C  16     -80.758-214.060  82.083  1.00 32.37 LIG 0.01  C 
ENDBRANCH 39 40
BRANCH 39 43
ATOM     43  N   VAL C  16     -81.299-211.806  84.558  1.00 45.58 LIG-0.34  N 
ATOM     44  C   GLN C  15     -81.686-212.341  85.710  1.00 57.61 LIG 0.26  C 
ATOM     45 O    GLN C  15     -81.088-213.271  86.252  1.00 61.53 LIG-0.27  OA
ATOM     46 H    VAL C  16     -81.700-211.144  84.183  1.00 45.58 LIG 0.16  HD
BRANCH 44 47
ATOM     47  CA  GLN C  15     -82.932-211.727  86.344  1.00 63.44 LIG 0.40  C 
ATOM     48  N   GLN C  15     -83.431-210.621  85.535  1.00 62.08 LIG 0.61  N 
BRANCH 47 49
ATOM     49  CB  GLN C  15     -84.014-212.791  86.517  1.00 68.54 LIG 0.06  C 
BRANCH 49 50
ATOM     50  CG  GLN C  15     -83.809-214.023  85.642  1.00 72.89 LIG 0.10  C 
BRANCH 50 51
ATOM     51  CD  GLN C  15     -84.047-213.773  84.162  1.00 75.77 LIG 0.21  C 
ATOM     52 OE1  GLN C  15     -84.405-212.670  83.749  1.00 77.61 LIG-0.27  OA
ATOM     53  NE2 GLN C  15     -83.855-214.809  83.356  1.00 76.03 LIG-0.37  N 
ATOM     54 22HE GLN C  15     -83.979-214.724  82.509  1.00 76.03 LIG 0.16  HD
ATOM     55 21HE GLN C  15     -83.605-215.565  83.680  1.00 76.03 LIG 0.16  HD
ENDBRANCH 50 51
ENDBRANCH 49 50
ENDBRANCH 47 49
ENDBRANCH 44 47
ENDBRANCH 39 43
ENDBRANCH 36 39
ENDBRANCH 34 35
BRANCH 34 56
ATOM     56  CB  ASN C  17     -75.579-211.461  85.304  1.00 15.63 LIG 0.14  C 
BRANCH 56 57
ATOM     57  CG  ASN C  17     -74.407-210.508  85.434  1.00 17.63 LIG 0.22  C 
ATOM     58 OD1  ASN C  17     -74.257-209.574  84.643  1.00 24.00 LIG-0.27  OA
ATOM     59  ND2 ASN C  17     -73.557-210.746  86.426  1.00 16.48 LIG-0.37  N 
ATOM     60 21HD ASN C  17     -72.871-210.239  86.536  1.00 16.48 LIG 0.16  HD
ATOM     61 22HD ASN C  17     -73.693-211.407  86.959  1.00 16.48 LIG 0.16  HD
ENDBRANCH 56 57
ENDBRANCH 34 56
ENDBRANCH 1 34
TORSDOF 20
ENDMDL
MODEL 10
USER: ADFR SOLUTION from run 177
USER: SCORE 18.717451 LL:  -5.263 LR: -14.285 RR:   0.000 FEB:  -8.319
USER: RMSD 5.385188
USER: SEED 176
USER: STATUS no improvement in best in 3 clusters for 5 generations
USER: GENES 22
USER: genes 0 Translation |==|  0.76409 0.62784 0.51263
USER: genes 1 Rotation |==|  0.45299 0.64005 0.87488 0.79604
USER: genes 2 Torsion [C]-N--CA-[CB] |==|  0.52228
USER: genes 3 Torsion [N]-CA--CB-[CG] |==|  0.65547
USER: genes 4 Torsion [CA]-CB--CG-[OD1] |==|  0.38839
USER: genes 5 Torsion [N]-CA--C-[N] |==|  0.30038
USER: genes 6 Torsion [N]-CA--C-[O] |==|  0.15877
USER: genes 7 Torsion [C]-N--CA-[CB] |==|  0.77683
USER: genes 8 Torsion [N]-CA--CB-[CG] |==|  0.94576
USER: genes 9 Torsion [CA]-CB--CG-[CD1] |==|  0.83417
USER: genes 10 Torsion [N]-CA--C-[O] |==|  0.20124
USER: genes 11 Torsion [N]-C--CA-[N] |==|  0.03391
USER: genes 12 Torsion [C]-CA--N-[C] |==|  0.67054
USER: genes 13 Torsion [N]-C--CA-[N] |==|  0.97287
USER: genes 14 Torsion [C]-CA--CB-[CG2] |==|  0.88081
USER: genes 15 Torsion [C]-CA--N-[C] |==|  0.79761
USER: genes 16 Torsion [N]-C--CA-[N] |==|  0.90313
USER: genes 17 Torsion [C]-CA--CB-[CG] |==|  0.09403
USER: genes 18 Torsion [CA]-CB--CG-[CD] |==|  0.19631
USER: genes 19 Torsion [CB]-CG--CD-[OE1] |==|  0.67539
USER: genes 20 Torsion [C]-CA--CB-[CG] |==|  0.79698
USER: genes 21 Torsion [CA]-CB--CG-[OD1] |==|  0.95912
ROOT
ATOM      1  C   ASN C  17     -72.542-207.603  83.131  1.00 20.61 LIG 0.24  C 
ATOM      2 O    ASN C  17     -71.816-207.373  82.165  1.00 16.51 LIG-0.27  OA
ATOM      3  N   ASN C  18     -73.663-208.317  83.051  1.00 22.51 LIG-0.35  N 
ATOM      4 H    ASN C  18     -74.193-208.448  83.716  1.00 22.51 LIG 0.16  HD
ENDROOT
BRANCH 3 5
ATOM      5  CA  ASN C  18     -74.096-208.948  81.809  1.00 19.22 LIG 0.18  C 
BRANCH 5 6
ATOM      6  CB  ASN C  18     -75.505-209.524  81.973  1.00 16.89 LIG 0.14  C 
BRANCH 6 7
ATOM      7  CG  ASN C  18     -75.572-211.004  81.648  1.00 20.14 LIG 0.22  C 
ATOM      8  ND2 ASN C  18     -74.877-211.409  80.591  1.00 20.12 LIG-0.37  N 
ATOM      9 22HD ASN C  18     -74.413-210.843  80.139  1.00 20.12 LIG 0.16  HD
ATOM     10 21HD ASN C  18     -74.891-212.237  80.359  1.00 20.12 LIG 0.16  HD
ATOM     11 OD1  ASN C  18     -76.253-211.771  82.330  1.00 18.28 LIG-0.27  OA
ENDBRANCH 6 7
ENDBRANCH 5 6
BRANCH 5 12
ATOM     12  C   ASN C  18     -74.072-207.969  80.631  1.00 21.33 LIG 0.24  C 
ATOM     13  N   PRO C  19     -73.111-208.139  79.708  1.00 20.66 LIG-0.34  N 
ATOM     14  CD  PRO C  19     -71.963-209.062  79.763  1.00 23.11 LIG 0.13  C 
ATOM     15  CA  PRO C  19     -73.034-207.253  78.543  1.00 23.26 LIG 0.18  C 
ATOM     16  CG  PRO C  19     -71.175-208.726  78.517  1.00 22.87 LIG 0.02  C 
ATOM     17  CB  PRO C  19     -71.557-207.331  78.161  1.00 23.39 LIG 0.04  C 
ATOM     18 O    ASN C  18     -74.911-207.073  80.552  1.00 23.13 LIG-0.27  OA
BRANCH 15 19
ATOM     19  C   PRO C  19     -73.910-207.704  77.375  1.00 24.54 LIG 0.24  C 
ATOM     20  N   PHE C  20     -73.304-207.916  76.209  1.00 23.51 LIG-0.34  N 
ATOM     21 H    PHE C  20     -72.450-207.925  76.106  1.00 23.51 LIG 0.16  HD
ATOM     22 O    PRO C  19     -75.123-207.855  77.543  1.00 27.52 LIG-0.27  OA
BRANCH 20 23
ATOM     23  CA  PHE C  20     -74.065-208.157  74.984  1.00 27.49 LIG 0.19  C 
BRANCH 23 24
ATOM     24  CB  PHE C  20     -74.516-209.617  74.949  1.00 22.62 LIG 0.07  C 
BRANCH 24 25
ATOM     25  CG  PHE C  20     -73.719-210.499  75.860  1.00 18.80 LIG-0.06  A 
ATOM     26  CD1 PHE C  20     -72.354-210.621  75.689  1.00 16.53 LIG 0.01  A 
ATOM     27  CE1 PHE C  20     -71.604-211.412  76.529  1.00 18.06 LIG 0.00  A 
ATOM     28  CZ  PHE C  20     -72.216-212.093  77.568  1.00 17.30 LIG 0.00  A 
ATOM     29  CE2 PHE C  20     -73.575-211.976  77.757  1.00 18.45 LIG 0.00  A 
ATOM     30  CD2 PHE C  20     -74.322-211.177  76.908  1.00 20.64 LIG 0.01  A 
ENDBRANCH 24 25
ENDBRANCH 23 24
BRANCH 23 31
ATOM     31  C   PHE C  20     -75.262-207.220  74.841  1.00 41.21 LIG 0.20  C 
ATOM     32 OXT  PHE C  20     -76.413-207.622  75.004  1.00 46.78 LIG-0.65  OA
ATOM     33 O    PHE C  20     -75.102-206.027  74.568  1.00 43.65 LIG-0.65  OA
ENDBRANCH 23 31
ENDBRANCH 20 23
ENDBRANCH 15 19
ENDBRANCH 5 12
ENDBRANCH 3 5
BRANCH 1 34
ATOM     34  CA  ASN C  17     -72.172-207.083  84.513  1.00 16.90 LIG 0.18  C 
BRANCH 34 35
ATOM     35  N   ASN C  17     -73.013-207.749  85.496  1.00 20.58 LIG-0.35  N 
ATOM     36  C   VAL C  16     -73.846-207.058  86.268  1.00 27.16 LIG 0.24  C 
ATOM     37 O    VAL C  16     -73.820-205.830  86.346  1.00 29.43 LIG-0.27  OA
ATOM     38 H    ASN C  17     -72.921-208.604  85.527  1.00 20.58 LIG 0.16  HD
BRANCH 36 39
ATOM     39  CA  VAL C  16     -74.851-207.870  87.083  1.00 33.54 LIG 0.18  C 
BRANCH 39 40
ATOM     40  CB  VAL C  16     -74.518-207.736  88.589  1.00 32.44 LIG 0.01  C 
ATOM     41  CG2 VAL C  16     -73.010-207.847  88.812  1.00 34.10 LIG 0.01  C 
ATOM     42  CG1 VAL C  16     -75.286-208.770  89.424  1.00 32.37 LIG 0.01  C 
ENDBRANCH 39 40
BRANCH 39 43
ATOM     43  N   VAL C  16     -74.849-209.271  86.678  1.00 45.58 LIG-0.34  N 
ATOM     44  C   GLN C  15     -75.375-209.679  85.529  1.00 57.61 LIG 0.26  C 
ATOM     45 O    GLN C  15     -75.875-208.909  84.708  1.00 61.53 LIG-0.27  OA
ATOM     46 H    VAL C  16     -74.481-209.800  87.247  1.00 45.58 LIG 0.16  HD
BRANCH 44 47
ATOM     47  CA  GLN C  15     -75.320-211.182  85.269  1.00 63.44 LIG 0.40  C 
ATOM     48  N   GLN C  15     -74.097-211.757  85.818  1.00 62.08 LIG 0.61  N 
BRANCH 47 49
ATOM     49  CB  GLN C  15     -76.546-211.866  85.870  1.00 68.54 LIG 0.06  C 
BRANCH 49 50
ATOM     50  CG  GLN C  15     -77.810-211.014  85.821  1.00 72.89 LIG 0.10  C 
BRANCH 50 51
ATOM     51  CD  GLN C  15     -78.378-210.836  84.424  1.00 75.77 LIG 0.21  C 
ATOM     52 OE1  GLN C  15     -78.445-209.726  83.896  1.00 77.61 LIG-0.27  OA
ATOM     53  NE2 GLN C  15     -78.797-211.940  83.818  1.00 76.03 LIG-0.37  N 
ATOM     54 22HE GLN C  15     -79.131-211.897  83.027  1.00 76.03 LIG 0.16  HD
ATOM     55 21HE GLN C  15     -78.734-212.699  84.217  1.00 76.03 LIG 0.16  HD
ENDBRANCH 50 51
ENDBRANCH 49 50
ENDBRANCH 47 49
ENDBRANCH 44 47
ENDBRANCH 39 43
ENDBRANCH 36 39
ENDBRANCH 34 35
BRANCH 34 56
ATOM     56  CB  ASN C  17     -70.688-207.321  84.805  1.00 15.63 LIG 0.14  C 
BRANCH 56 57
ATOM     57  CG  ASN C  17     -70.371-208.779  85.079  1.00 17.63 LIG 0.22  C 
ATOM     58 OD1  ASN C  17     -71.269-209.589  85.322  1.00 24.00 LIG-0.27  OA
ATOM     59  ND2 ASN C  17     -69.088-209.120  85.058  1.00 16.48 LIG-0.37  N 
ATOM     60 21HD ASN C  17     -68.857-209.932  85.217  1.00 16.48 LIG 0.16  HD
ATOM     61 22HD ASN C  17     -68.489-208.527  84.885  1.00 16.48 LIG 0.16  HD
ENDBRANCH 56 57
ENDBRANCH 34 56
ENDBRANCH 1 34
TORSDOF 20
ENDMDL
MODEL 11
USER: ADFR SOLUTION from run 157
USER: SCORE 17.764217 LL:  -4.747 LR: -14.203 RR:   0.000 FEB:  -8.237
USER: RMSD 4.796179
USER: SEED 156
USER: STATUS no improvement in best in 6 clusters for 5 generations
USER: GENES 22
USER: genes 0 Translation |==|  0.74746 0.56346 0.54711
USER: genes 1 Rotation |==|  0.43598 0.58224 0.81478 0.87424
USER: genes 2 Torsion [C]-N--CA-[CB] |==|  0.49607
USER: genes 3 Torsion [N]-CA--CB-[CG] |==|  0.71096
USER: genes 4 Torsion [CA]-CB--CG-[OD1] |==|  0.35989
USER: genes 5 Torsion [N]-CA--C-[N] |==|  0.35084
USER: genes 6 Torsion [N]-CA--C-[O] |==|  0.46833
USER: genes 7 Torsion [C]-N--CA-[CB] |==|  0.37159
USER: genes 8 Torsion [N]-CA--CB-[CG] |==|  0.89967
USER: genes 9 Torsion [CA]-CB--CG-[CD1] |==|  0.32774
USER: genes 10 Torsion [N]-CA--C-[O] |==|  0.95286
USER: genes 11 Torsion [N]-C--CA-[N] |==|  0.04109
USER: genes 12 Torsion [C]-CA--N-[C] |==|  0.20899
USER: genes 13 Torsion [N]-C--CA-[N] |==|  0.96777
USER: genes 14 Torsion [C]-CA--CB-[CG2] |==|  0.14193
USER: genes 15 Torsion [C]-CA--N-[C] |==|  0.77281
USER: genes 16 Torsion [N]-C--CA-[N] |==|  0.20901
USER: genes 17 Torsion [C]-CA--CB-[CG] |==|  0.74247
USER: genes 18 Torsion [CA]-CB--CG-[CD] |==|  0.75433
USER: genes 19 Torsion [CB]-CG--CD-[OE1] |==|  0.01273
USER: genes 20 Torsion [C]-CA--CB-[CG] |==|  0.16997
USER: genes 21 Torsion [CA]-CB--CG-[OD1] |==|  0.14264
ROOT
ATOM      1  C   ASN C  17     -72.891-208.569  83.984  1.00 20.61 LIG 0.24  C 
ATOM      2 O    ASN C  17     -71.870-208.559  83.298  1.00 16.51 LIG-0.27  OA
ATOM      3  N   ASN C  18     -74.098-208.853  83.499  1.00 22.51 LIG-0.35  N 
ATOM      4 H    ASN C  18     -74.819-208.824  83.967  1.00 22.51 LIG 0.16  HD
ENDROOT
BRANCH 3 5
ATOM      5  CA  ASN C  18     -74.304-209.245  82.109  1.00 19.22 LIG 0.18  C 
BRANCH 5 6
ATOM      6  CB  ASN C  18     -75.786-209.540  81.858  1.00 16.89 LIG 0.14  C 
BRANCH 6 7
ATOM      7  CG  ASN C  18     -76.079-211.025  81.775  1.00 20.14 LIG 0.22  C 
ATOM      8  ND2 ASN C  18     -75.323-211.731  80.941  1.00 20.12 LIG-0.37  N 
ATOM      9 22HD ASN C  18     -74.700-211.344  80.493  1.00 20.12 LIG 0.16  HD
ATOM     10 21HD ASN C  18     -75.458-212.576  80.850  1.00 20.12 LIG 0.16  HD
ATOM     11 OD1  ASN C  18     -76.984-211.530  82.441  1.00 18.28 LIG-0.27  OA
ENDBRANCH 6 7
ENDBRANCH 5 6
BRANCH 5 12
ATOM     12  C   ASN C  18     -73.819-208.169  81.133  1.00 21.33 LIG 0.24  C 
ATOM     13  N   PRO C  19     -72.950-208.547  80.181  1.00 20.66 LIG-0.34  N 
ATOM     14  CD  PRO C  19     -72.270-209.848  80.049  1.00 23.11 LIG 0.13  C 
ATOM     15  CA  PRO C  19     -72.454-207.578  79.200  1.00 23.26 LIG 0.18  C 
ATOM     16  CG  PRO C  19     -71.338-209.645  78.876  1.00 22.87 LIG 0.02  C 
ATOM     17  CB  PRO C  19     -71.110-208.175  78.790  1.00 23.39 LIG 0.04  C 
ATOM     18 O    ASN C  18     -74.226-207.012  81.233  1.00 23.13 LIG-0.27  OA
BRANCH 15 19
ATOM     19  C   PRO C  19     -73.363-207.426  77.980  1.00 24.54 LIG 0.24  C 
ATOM     20  N   PHE C  20     -74.335-208.322  77.832  1.00 23.51 LIG-0.34  N 
ATOM     21 H    PHE C  20     -74.549-208.901  78.431  1.00 23.51 LIG 0.16  HD
ATOM     22 O    PRO C  19     -73.173-206.498  77.189  1.00 27.52 LIG-0.27  OA
BRANCH 20 23
ATOM     23  CA  PHE C  20     -75.134-208.390  76.610  1.00 27.49 LIG 0.19  C 
BRANCH 23 24
ATOM     24  CB  PHE C  20     -75.248-209.848  76.163  1.00 22.62 LIG 0.07  C 
BRANCH 24 25
ATOM     25  CG  PHE C  20     -74.001-210.639  76.419  1.00 18.80 LIG-0.06  A 
ATOM     26  CD1 PHE C  20     -74.031-211.724  77.273  1.00 16.53 LIG 0.01  A 
ATOM     27  CE1 PHE C  20     -72.900-212.472  77.503  1.00 18.06 LIG 0.00  A 
ATOM     28  CZ  PHE C  20     -71.712-212.146  76.870  1.00 17.30 LIG 0.00  A 
ATOM     29  CE2 PHE C  20     -71.668-211.071  76.009  1.00 18.45 LIG 0.00  A 
ATOM     30  CD2 PHE C  20     -72.811-210.324  75.782  1.00 20.64 LIG 0.01  A 
ENDBRANCH 24 25
ENDBRANCH 23 24
BRANCH 23 31
ATOM     31  C   PHE C  20     -76.518-207.768  76.776  1.00 41.21 LIG 0.20  C 
ATOM     32 OXT  PHE C  20     -77.207-207.469  75.801  1.00 46.78 LIG-0.65  OA
ATOM     33 O    PHE C  20     -76.988-207.561  77.898  1.00 43.65 LIG-0.65  OA
ENDBRANCH 23 31
ENDBRANCH 20 23
ENDBRANCH 15 19
ENDBRANCH 5 12
ENDBRANCH 3 5
BRANCH 1 34
ATOM     34  CA  ASN C  17     -72.819-208.266  85.474  1.00 16.90 LIG 0.18  C 
BRANCH 34 35
ATOM     35  N   ASN C  17     -74.061-208.702  86.094  1.00 20.58 LIG-0.35  N 
ATOM     36  C   VAL C  16     -74.306-209.990  86.310  1.00 27.16 LIG 0.24  C 
ATOM     37 O    VAL C  16     -73.614-210.889  85.833  1.00 29.43 LIG-0.27  OA
ATOM     38 H    ASN C  17     -74.602-208.066  86.300  1.00 20.58 LIG 0.16  HD
BRANCH 36 39
ATOM     39  CA  VAL C  16     -75.517-210.317  87.181  1.00 33.54 LIG 0.18  C 
BRANCH 39 40
ATOM     40  CB  VAL C  16     -76.615-210.973  86.310  1.00 32.44 LIG 0.01  C 
ATOM     41  CG2 VAL C  16     -76.032-212.135  85.506  1.00 34.10 LIG 0.01  C 
ATOM     42  CG1 VAL C  16     -77.292-209.942  85.396  1.00 32.37 LIG 0.01  C 
ENDBRANCH 39 40
BRANCH 39 43
ATOM     43  N   VAL C  16     -76.029-209.122  87.842  1.00 45.58 LIG-0.34  N 
ATOM     44  C   GLN C  15     -75.492-208.641  88.957  1.00 57.61 LIG 0.26  C 
ATOM     45 O    GLN C  15     -74.509-209.146  89.501  1.00 61.53 LIG-0.27  OA
ATOM     46 H    VAL C  16     -76.703-208.764  87.446  1.00 45.58 LIG 0.16  HD
BRANCH 44 47
ATOM     47  CA  GLN C  15     -76.166-207.401  89.539  1.00 63.44 LIG 0.40  C 
ATOM     48  N   GLN C  15     -77.422-207.753  90.191  1.00 62.08 LIG 0.61  N 
BRANCH 47 49
ATOM     49  CB  GLN C  15     -75.230-206.706  90.526  1.00 68.54 LIG 0.06  C 
BRANCH 49 50
ATOM     50  CG  GLN C  15     -75.422-207.152  91.972  1.00 72.89 LIG 0.10  C 
BRANCH 50 51
ATOM     51  CD  GLN C  15     -76.467-206.350  92.728  1.00 75.77 LIG 0.21  C 
ATOM     52 OE1  GLN C  15     -77.142-205.487  92.167  1.00 77.61 LIG-0.27  OA
ATOM     53  NE2 GLN C  15     -76.600-206.633  94.018  1.00 76.03 LIG-0.37  N 
ATOM     54 22HE GLN C  15     -77.174-206.206  94.495  1.00 76.03 LIG 0.16  HD
ATOM     55 21HE GLN C  15     -76.112-207.243  94.377  1.00 76.03 LIG 0.16  HD
ENDBRANCH 50 51
ENDBRANCH 49 50
ENDBRANCH 47 49
ENDBRANCH 44 47
ENDBRANCH 39 43
ENDBRANCH 36 39
ENDBRANCH 34 35
BRANCH 34 56
ATOM     56  CB  ASN C  17     -71.611-208.957  86.113  1.00 15.63 LIG 0.14  C 
BRANCH 56 57
ATOM     57  CG  ASN C  17     -70.292-208.494  85.524  1.00 17.63 LIG 0.22  C 
ATOM     58 OD1  ASN C  17     -70.022-207.294  85.438  1.00 24.00 LIG-0.27  OA
ATOM     59  ND2 ASN C  17     -69.468-209.444  85.099  1.00 16.48 LIG-0.37  N 
ATOM     60 21HD ASN C  17     -68.712-209.232  84.748  1.00 16.48 LIG 0.16  HD
ATOM     61 22HD ASN C  17     -69.690-210.271  85.175  1.00 16.48 LIG 0.16  HD
ENDBRANCH 56 57
ENDBRANCH 34 56
ENDBRANCH 1 34
TORSDOF 20
ENDMDL
MODEL 12
USER: ADFR SOLUTION from run 122
USER: SCORE 18.656034 LL:  -5.268 LR: -14.159 RR:   0.000 FEB:  -8.193
USER: RMSD 6.489993
USER: SEED 121
USER: STATUS no improvement in best in 4 clusters for 5 generations
USER: GENES 22
USER: genes 0 Translation |==|  0.64966 0.43212 0.45789
USER: genes 1 Rotation |==|  0.32412 0.36043 0.93122 0.61676
USER: genes 2 Torsion [C]-N--CA-[CB] |==|  0.53939
USER: genes 3 Torsion [N]-CA--CB-[CG] |==|  0.52181
USER: genes 4 Torsion [CA]-CB--CG-[OD1] |==|  0.16163
USER: genes 5 Torsion [N]-CA--C-[N] |==|  0.39097
USER: genes 6 Torsion [N]-CA--C-[O] |==|  0.61277
USER: genes 7 Torsion [C]-N--CA-[CB] |==|  0.52544
USER: genes 8 Torsion [N]-CA--CB-[CG] |==|  0.11819
USER: genes 9 Torsion [CA]-CB--CG-[CD1] |==|  0.75272
USER: genes 10 Torsion [N]-CA--C-[O] |==|  0.35565
USER: genes 11 Torsion [N]-C--CA-[N] |==|  0.40858
USER: genes 12 Torsion [C]-CA--N-[C] |==|  0.63316
USER: genes 13 Torsion [N]-C--CA-[N] |==|  0.87344
USER: genes 14 Torsion [C]-CA--CB-[CG2] |==|  0.43215
USER: genes 15 Torsion [C]-CA--N-[C] |==|  0.74234
USER: genes 16 Torsion [N]-C--CA-[N] |==|  0.62576
USER: genes 17 Torsion [C]-CA--CB-[CG] |==|  0.64424
USER: genes 18 Torsion [CA]-CB--CG-[CD] |==|  0.26041
USER: genes 19 Torsion [CB]-CG--CD-[OE1] |==|  0.78727
USER: genes 20 Torsion [C]-CA--CB-[CG] |==|  0.58712
USER: genes 21 Torsion [CA]-CB--CG-[OD1] |==|  0.27997
ROOT
ATOM      1  C   ASN C  17     -74.945-210.539  81.776  1.00 20.61 LIG 0.24  C 
ATOM      2 O    ASN C  17     -74.627-209.357  81.899  1.00 16.51 LIG-0.27  OA
ATOM      3  N   ASN C  18     -74.536-211.307  80.768  1.00 22.51 LIG-0.35  N 
ATOM      4 H    ASN C  18     -74.787-212.123  80.658  1.00 22.51 LIG 0.16  HD
ENDROOT
BRANCH 3 5
ATOM      5  CA  ASN C  18     -73.613-210.823  79.747  1.00 19.22 LIG 0.18  C 
BRANCH 5 6
ATOM      6  CB  ASN C  18     -73.602-211.780  78.551  1.00 16.89 LIG 0.14  C 
BRANCH 6 7
ATOM      7  CG  ASN C  18     -72.525-211.437  77.540  1.00 20.14 LIG 0.22  C 
ATOM      8  ND2 ASN C  18     -72.933-211.202  76.298  1.00 20.12 LIG-0.37  N 
ATOM      9 22HD ASN C  18     -73.771-211.238  76.106  1.00 20.12 LIG 0.16  HD
ATOM     10 21HD ASN C  18     -72.359-211.014  75.685  1.00 20.12 LIG 0.16  HD
ATOM     11 OD1  ASN C  18     -71.339-211.399  77.869  1.00 18.28 LIG-0.27  OA
ENDBRANCH 6 7
ENDBRANCH 5 6
BRANCH 5 12
ATOM     12  C   ASN C  18     -73.970-209.411  79.276  1.00 21.33 LIG 0.24  C 
ATOM     13  N   PRO C  19     -72.953-208.565  79.043  1.00 20.66 LIG-0.34  N 
ATOM     14  CD  PRO C  19     -71.524-208.771  79.336  1.00 23.11 LIG 0.13  C 
ATOM     15  CA  PRO C  19     -73.214-207.201  78.573  1.00 23.26 LIG 0.18  C 
ATOM     16  CG  PRO C  19     -70.890-207.449  78.970  1.00 22.87 LIG 0.02  C 
ATOM     17  CB  PRO C  19     -71.982-206.439  79.055  1.00 23.39 LIG 0.04  C 
ATOM     18 O    ASN C  18     -75.147-209.087  79.121  1.00 23.13 LIG-0.27  OA
BRANCH 15 19
ATOM     19  C   PRO C  19     -73.345-207.094  77.053  1.00 24.54 LIG 0.24  C 
ATOM     20  N   PHE C  20     -74.014-208.061  76.432  1.00 23.51 LIG-0.34  N 
ATOM     21 H    PHE C  20     -74.466-208.669  76.839  1.00 23.51 LIG 0.16  HD
ATOM     22 O    PRO C  19     -72.838-206.136  76.463  1.00 27.52 LIG-0.27  OA
BRANCH 20 23
ATOM     23  CA  PHE C  20     -74.032-208.165  74.974  1.00 27.49 LIG 0.19  C 
BRANCH 23 24
ATOM     24  CB  PHE C  20     -75.056-209.220  74.556  1.00 22.62 LIG 0.07  C 
BRANCH 24 25
ATOM     25  CG  PHE C  20     -76.334-209.138  75.334  1.00 18.80 LIG-0.06  A 
ATOM     26  CD1 PHE C  20     -76.473-209.837  76.517  1.00 16.53 LIG 0.01  A 
ATOM     27  CE1 PHE C  20     -77.633-209.757  77.253  1.00 18.06 LIG 0.00  A 
ATOM     28  CZ  PHE C  20     -78.678-208.961  76.814  1.00 17.30 LIG 0.00  A 
ATOM     29  CE2 PHE C  20     -78.552-208.252  75.640  1.00 18.45 LIG 0.00  A 
ATOM     30  CD2 PHE C  20     -77.381-208.337  74.907  1.00 20.64 LIG 0.01  A 
ENDBRANCH 24 25
ENDBRANCH 23 24
BRANCH 23 31
ATOM     31  C   PHE C  20     -74.327-206.830  74.293  1.00 41.21 LIG 0.20  C 
ATOM     32 OXT  PHE C  20     -75.297-206.146  74.616  1.00 46.78 LIG-0.65  OA
ATOM     33 O    PHE C  20     -73.588-206.397  73.404  1.00 43.65 LIG-0.65  OA
ENDBRANCH 23 31
ENDBRANCH 20 23
ENDBRANCH 15 19
ENDBRANCH 5 12
ENDBRANCH 3 5
BRANCH 1 34
ATOM     34  CA  ASN C  17     -75.835-211.208  82.814  1.00 16.90 LIG 0.18  C 
BRANCH 34 35
ATOM     35  N   ASN C  17     -75.560-210.610  84.112  1.00 20.58 LIG-0.35  N 
ATOM     36  C   VAL C  16     -75.349-211.363  85.186  1.00 27.16 LIG 0.24  C 
ATOM     37 O    VAL C  16     -75.565-212.575  85.202  1.00 29.43 LIG-0.27  OA
ATOM     38 H    ASN C  17     -75.548-209.749  84.114  1.00 20.58 LIG 0.16  HD
BRANCH 36 39
ATOM     39  CA  VAL C  16     -74.831-210.646  86.430  1.00 33.54 LIG 0.18  C 
BRANCH 39 40
ATOM     40  CB  VAL C  16     -75.996-209.890  87.110  1.00 32.44 LIG 0.01  C 
ATOM     41  CG2 VAL C  16     -75.702-209.684  88.597  1.00 34.10 LIG 0.01  C 
ATOM     42  CG1 VAL C  16     -77.332-210.616  86.899  1.00 32.37 LIG 0.01  C 
ENDBRANCH 39 40
BRANCH 39 43
ATOM     43  N   VAL C  16     -73.746-209.730  86.097  1.00 45.58 LIG-0.34  N 
ATOM     44  C   GLN C  15     -72.470-210.090  86.150  1.00 57.61 LIG 0.26  C 
ATOM     45 O    GLN C  15     -72.105-211.226  86.454  1.00 61.53 LIG-0.27  OA
ATOM     46 H    VAL C  16     -74.009-208.944  85.867  1.00 45.58 LIG 0.16  HD
BRANCH 44 47
ATOM     47  CA  GLN C  15     -71.456-209.003  85.801  1.00 63.44 LIG 0.40  C 
ATOM     48  N   GLN C  15     -70.433-209.521  84.900  1.00 62.08 LIG 0.61  N 
BRANCH 47 49
ATOM     49  CB  GLN C  15     -72.164-207.805  85.170  1.00 68.54 LIG 0.06  C 
BRANCH 49 50
ATOM     50  CG  GLN C  15     -71.559-207.364  83.842  1.00 72.89 LIG 0.10  C 
BRANCH 50 51
ATOM     51  CD  GLN C  15     -72.229-207.980  82.626  1.00 75.77 LIG 0.21  C 
ATOM     52 OE1  GLN C  15     -72.013-209.146  82.296  1.00 77.61 LIG-0.27  OA
ATOM     53  NE2 GLN C  15     -73.049-207.187  81.947  1.00 76.03 LIG-0.37  N 
ATOM     54 22HE GLN C  15     -73.453-207.483  81.248  1.00 76.03 LIG 0.16  HD
ATOM     55 21HE GLN C  15     -73.177-206.377  82.206  1.00 76.03 LIG 0.16  HD
ENDBRANCH 50 51
ENDBRANCH 49 50
ENDBRANCH 47 49
ENDBRANCH 44 47
ENDBRANCH 39 43
ENDBRANCH 36 39
ENDBRANCH 34 35
BRANCH 34 56
ATOM     56  CB  ASN C  17     -77.313-211.062  82.441  1.00 15.63 LIG 0.14  C 
BRANCH 56 57
ATOM     57  CG  ASN C  17     -78.219-210.987  83.655  1.00 17.63 LIG 0.22  C 
ATOM     58 OD1  ASN C  17     -78.656-209.906  84.055  1.00 24.00 LIG-0.27  OA
ATOM     59  ND2 ASN C  17     -78.496-212.137  84.258  1.00 16.48 LIG-0.37  N 
ATOM     60 21HD ASN C  17     -78.997-212.146  84.957  1.00 16.48 LIG 0.16  HD
ATOM     61 22HD ASN C  17     -78.173-212.872  83.951  1.00 16.48 LIG 0.16  HD
ENDBRANCH 56 57
ENDBRANCH 34 56
ENDBRANCH 1 34
TORSDOF 20
ENDMDL
MODEL 13
USER: ADFR SOLUTION from run 26
USER: SCORE 17.303228 LL:  -4.913 LR: -14.024 RR:   0.000 FEB:  -8.058
USER: RMSD 5.834172
USER: SEED 25
USER: STATUS no improvement in best in 13 clusters for 5 generations
USER: GENES 22
USER: genes 0 Translation |==|  0.75051 0.57399 0.45747
USER: genes 1 Rotation |==|  0.33128 0.61978 0.82165 0.82207
USER: genes 2 Torsion [C]-N--CA-[CB] |==|  0.52349
USER: genes 3 Torsion [N]-CA--CB-[CG] |==|  0.86782
USER: genes 4 Torsion [CA]-CB--CG-[OD1] |==|  0.86147
USER: genes 5 Torsion [N]-CA--C-[N] |==|  0.43608
USER: genes 6 Torsion [N]-CA--C-[O] |==|  0.75462
USER: genes 7 Torsion [C]-N--CA-[CB] |==|  0.24554
USER: genes 8 Torsion [N]-CA--CB-[CG] |==|  0.11626
USER: genes 9 Torsion [CA]-CB--CG-[CD1] |==|  0.08310
USER: genes 10 Torsion [N]-CA--C-[O] |==|  0.17436
USER: genes 11 Torsion [N]-C--CA-[N] |==|  0.24144
USER: genes 12 Torsion [C]-CA--N-[C] |==|  0.56819
USER: genes 13 Torsion [N]-C--CA-[N] |==|  0.71789
USER: genes 14 Torsion [C]-CA--CB-[CG2] |==|  0.60793
USER: genes 15 Torsion [C]-CA--N-[C] |==|  0.66268
USER: genes 16 Torsion [N]-C--CA-[N] |==|  0.66513
USER: genes 17 Torsion [C]-CA--CB-[CG] |==|  0.64804
USER: genes 18 Torsion [CA]-CB--CG-[CD] |==|  0.40106
USER: genes 19 Torsion [CB]-CG--CD-[OE1] |==|  0.82208
USER: genes 20 Torsion [C]-CA--CB-[CG] |==|  0.69395
USER: genes 21 Torsion [CA]-CB--CG-[OD1] |==|  0.65486
ROOT
ATOM      1  C   ASN C  17     -72.827-208.411  81.765  1.00 20.61 LIG 0.24  C 
ATOM      2 O    ASN C  17     -71.730-208.456  81.211  1.00 16.51 LIG-0.27  OA
ATOM      3  N   ASN C  18     -73.879-209.125  81.369  1.00 22.51 LIG-0.35  N 
ATOM      4 H    ASN C  18     -74.657-209.068  81.731  1.00 22.51 LIG 0.16  HD
ENDROOT
BRANCH 3 5
ATOM      5  CA  ASN C  18     -73.799-210.082  80.271  1.00 19.22 LIG 0.18  C 
BRANCH 5 6
ATOM      6  CB  ASN C  18     -75.199-210.590  79.912  1.00 16.89 LIG 0.14  C 
BRANCH 6 7
ATOM      7  CG  ASN C  18     -75.997-211.010  81.130  1.00 20.14 LIG 0.22  C 
ATOM      8  ND2 ASN C  18     -77.220-210.501  81.240  1.00 20.12 LIG-0.37  N 
ATOM      9 22HD ASN C  18     -77.522-209.972  80.633  1.00 20.12 LIG 0.16  HD
ATOM     10 21HD ASN C  18     -77.709-210.699  81.920  1.00 20.12 LIG 0.16  HD
ATOM     11 OD1  ASN C  18     -75.516-211.770  81.971  1.00 18.28 LIG-0.27  OA
ENDBRANCH 6 7
ENDBRANCH 5 6
BRANCH 5 12
ATOM     12  C   ASN C  18     -73.135-209.477  79.032  1.00 21.33 LIG 0.24  C 
ATOM     13  N   PRO C  19     -72.578-210.327  78.154  1.00 20.66 LIG-0.34  N 
ATOM     14  CD  PRO C  19     -72.380-211.780  78.308  1.00 23.11 LIG 0.13  C 
ATOM     15  CA  PRO C  19     -71.938-209.824  76.935  1.00 23.26 LIG 0.18  C 
ATOM     16  CG  PRO C  19     -71.608-212.169  77.068  1.00 22.87 LIG 0.02  C 
ATOM     17  CB  PRO C  19     -70.931-210.924  76.606  1.00 23.39 LIG 0.04  C 
ATOM     18 O    ASN C  18     -73.127-208.257  78.865  1.00 23.13 LIG-0.27  OA
BRANCH 15 19
ATOM     19  C   PRO C  19     -72.911-209.629  75.771  1.00 24.54 LIG 0.24  C 
ATOM     20  N   PHE C  20     -73.470-208.429  75.643  1.00 23.51 LIG-0.34  N 
ATOM     21 H    PHE C  20     -73.234-207.738  76.098  1.00 23.51 LIG 0.16  HD
ATOM     22 O    PRO C  19     -73.142-210.568  75.004  1.00 27.52 LIG-0.27  OA
BRANCH 20 23
ATOM     23  CA  PHE C  20     -74.556-208.188  74.694  1.00 27.49 LIG 0.19  C 
BRANCH 23 24
ATOM     24  CB  PHE C  20     -75.894-208.484  75.372  1.00 22.62 LIG 0.07  C 
BRANCH 24 25
ATOM     25  CG  PHE C  20     -75.964-207.972  76.778  1.00 18.80 LIG-0.06  A 
ATOM     26  CD1 PHE C  20     -75.249-206.848  77.145  1.00 16.53 LIG 0.01  A 
ATOM     27  CE1 PHE C  20     -75.318-206.355  78.427  1.00 18.06 LIG 0.00  A 
ATOM     28  CZ  PHE C  20     -76.118-206.980  79.369  1.00 17.30 LIG 0.00  A 
ATOM     29  CE2 PHE C  20     -76.844-208.097  79.017  1.00 18.45 LIG 0.00  A 
ATOM     30  CD2 PHE C  20     -76.769-208.587  77.724  1.00 20.64 LIG 0.01  A 
ENDBRANCH 24 25
ENDBRANCH 23 24
BRANCH 23 31
ATOM     31  C   PHE C  20     -74.541-206.769  74.131  1.00 41.21 LIG 0.20  C 
ATOM     32 OXT  PHE C  20     -75.466-205.986  74.341  1.00 46.78 LIG-0.65  OA
ATOM     33 O    PHE C  20     -73.588-206.366  73.457  1.00 43.65 LIG-0.65  OA
ENDBRANCH 23 31
ENDBRANCH 20 23
ENDBRANCH 15 19
ENDBRANCH 5 12
ENDBRANCH 3 5
BRANCH 1 34
ATOM     34  CA  ASN C  17     -73.038-207.521  82.983  1.00 16.90 LIG 0.18  C 
BRANCH 34 35
ATOM     35  N   ASN C  17     -72.779-208.309  84.179  1.00 20.58 LIG-0.35  N 
ATOM     36  C   VAL C  16     -73.324-207.983  85.347  1.00 27.16 LIG 0.24  C 
ATOM     37 O    VAL C  16     -73.903-206.914  85.537  1.00 29.43 LIG-0.27  OA
ATOM     38 H    ASN C  17     -72.257-208.982  84.060  1.00 20.58 LIG 0.16  HD
BRANCH 36 39
ATOM     39  CA  VAL C  16     -73.188-209.008  86.471  1.00 33.54 LIG 0.18  C 
BRANCH 39 40
ATOM     40  CB  VAL C  16     -72.007-209.958  86.160  1.00 32.44 LIG 0.01  C 
ATOM     41  CG2 VAL C  16     -72.355-211.390  86.567  1.00 34.10 LIG 0.01  C 
ATOM     42  CG1 VAL C  16     -70.714-209.480  86.836  1.00 32.37 LIG 0.01  C 
ENDBRANCH 39 40
BRANCH 39 43
ATOM     43  N   VAL C  16     -74.423-209.762  86.650  1.00 45.58 LIG-0.34  N 
ATOM     44  C   GLN C  15     -75.083-209.782  87.802  1.00 57.61 LIG 0.26  C 
ATOM     45 O    GLN C  15     -74.722-209.147  88.794  1.00 61.53 LIG-0.27  OA
ATOM     46 H    VAL C  16     -74.679-210.188  85.948  1.00 45.58 LIG 0.16  HD
BRANCH 44 47
ATOM     47  CA  GLN C  15     -76.341-210.646  87.833  1.00 63.44 LIG 0.40  C 
ATOM     48  N   GLN C  15     -77.513-209.839  88.154  1.00 62.08 LIG 0.61  N 
BRANCH 47 49
ATOM     49  CB  GLN C  15     -76.530-211.350  86.491  1.00 68.54 LIG 0.06  C 
BRANCH 49 50
ATOM     50  CG  GLN C  15     -77.905-211.127  85.870  1.00 72.89 LIG 0.10  C 
BRANCH 50 51
ATOM     51  CD  GLN C  15     -77.886-211.023  84.354  1.00 75.77 LIG 0.21  C 
ATOM     52 OE1  GLN C  15     -77.300-210.103  83.783  1.00 77.61 LIG-0.27  OA
ATOM     53  NE2 GLN C  15     -78.539-211.972  83.694  1.00 76.03 LIG-0.37  N 
ATOM     54 22HE GLN C  15     -78.563-211.959  82.835  1.00 76.03 LIG 0.16  HD
ATOM     55 21HE GLN C  15     -78.937-212.599  84.127  1.00 76.03 LIG 0.16  HD
ENDBRANCH 50 51
ENDBRANCH 49 50
ENDBRANCH 47 49
ENDBRANCH 44 47
ENDBRANCH 39 43
ENDBRANCH 36 39
ENDBRANCH 34 35
BRANCH 34 56
ATOM     56  CB  ASN C  17     -72.126-206.292  82.923  1.00 15.63 LIG 0.14  C 
BRANCH 56 57
ATOM     57  CG  ASN C  17     -71.024-206.330  83.965  1.00 17.63 LIG 0.22  C 
ATOM     58 OD1  ASN C  17     -70.881-205.407  84.771  1.00 24.00 LIG-0.27  OA
ATOM     59  ND2 ASN C  17     -70.227-207.391  83.947  1.00 16.48 LIG-0.37  N 
ATOM     60 21HD ASN C  17     -69.582-207.455  84.511  1.00 16.48 LIG 0.16  HD
ATOM     61 22HD ASN C  17     -70.357-208.016  83.369  1.00 16.48 LIG 0.16  HD
ENDBRANCH 56 57
ENDBRANCH 34 56
ENDBRANCH 1 34
TORSDOF 20
ENDMDL
MODEL 14
USER: ADFR SOLUTION from run 152
USER: SCORE 17.759394 LL:  -5.390 LR: -13.990 RR:   0.000 FEB:  -8.024
USER: RMSD 9.920114
USER: SEED 151
USER: STATUS no improvement in best in 18 clusters for 5 generations
USER: GENES 22
USER: genes 0 Translation |==|  0.73824 0.53790 0.42574
USER: genes 1 Rotation |==|  0.93367 0.41383 0.72623 0.55767
USER: genes 2 Torsion [C]-N--CA-[CB] |==|  0.19131
USER: genes 3 Torsion [N]-CA--CB-[CG] |==|  0.34177
USER: genes 4 Torsion [CA]-CB--CG-[OD1] |==|  0.74928
USER: genes 5 Torsion [N]-CA--C-[N] |==|  0.37883
USER: genes 6 Torsion [N]-CA--C-[O] |==|  0.07775
USER: genes 7 Torsion [C]-N--CA-[CB] |==|  0.12946
USER: genes 8 Torsion [N]-CA--CB-[CG] |==|  0.21914
USER: genes 9 Torsion [CA]-CB--CG-[CD1] |==|  0.25109
USER: genes 10 Torsion [N]-CA--C-[O] |==|  0.99761
USER: genes 11 Torsion [N]-C--CA-[N] |==|  0.15070
USER: genes 12 Torsion [C]-CA--N-[C] |==|  0.70146
USER: genes 13 Torsion [N]-C--CA-[N] |==|  0.93773
USER: genes 14 Torsion [C]-CA--CB-[CG2] |==|  0.94256
USER: genes 15 Torsion [C]-CA--N-[C] |==|  0.80646
USER: genes 16 Torsion [N]-C--CA-[N] |==|  0.74258
USER: genes 17 Torsion [C]-CA--CB-[CG] |==|  0.68207
USER: genes 18 Torsion [CA]-CB--CG-[CD] |==|  0.25037
USER: genes 19 Torsion [CB]-CG--CD-[OE1] |==|  0.72741
USER: genes 20 Torsion [C]-CA--CB-[CG] |==|  0.76124
USER: genes 21 Torsion [CA]-CB--CG-[OD1] |==|  0.62229
ROOT
ATOM      1  C   ASN C  17     -73.085-208.952  80.980  1.00 20.61 LIG 0.24  C 
ATOM      2 O    ASN C  17     -72.839-207.921  81.604  1.00 16.51 LIG-0.27  OA
ATOM      3  N   ASN C  18     -74.161-209.704  81.201  1.00 22.51 LIG-0.35  N 
ATOM      4 H    ASN C  18     -74.317-210.445  80.793  1.00 22.51 LIG 0.16  HD
ENDROOT
BRANCH 3 5
ATOM      5  CA  ASN C  18     -75.185-209.329  82.170  1.00 19.22 LIG 0.18  C 
BRANCH 5 6
ATOM      6  CB  ASN C  18     -75.952-208.098  81.677  1.00 16.89 LIG 0.14  C 
BRANCH 6 7
ATOM      7  CG  ASN C  18     -77.444-208.342  81.575  1.00 20.14 LIG 0.22  C 
ATOM      8  ND2 ASN C  18     -78.160-208.095  82.666  1.00 20.12 LIG-0.37  N 
ATOM      9 22HD ASN C  18     -77.774-207.801  83.376  1.00 20.12 LIG 0.16  HD
ATOM     10 21HD ASN C  18     -79.010-208.228  82.662  1.00 20.12 LIG 0.16  HD
ATOM     11 OD1  ASN C  18     -77.946-208.764  80.532  1.00 18.28 LIG-0.27  OA
ENDBRANCH 6 7
ENDBRANCH 5 6
BRANCH 5 12
ATOM     12  C   ASN C  18     -76.166-210.475  82.439  1.00 21.33 LIG 0.24  C 
ATOM     13  N   PRO C  19     -76.510-210.703  83.717  1.00 20.66 LIG-0.34  N 
ATOM     14  CD  PRO C  19     -75.937-210.089  84.928  1.00 23.11 LIG 0.13  C 
ATOM     15  CA  PRO C  19     -77.457-211.771  84.052  1.00 23.26 LIG 0.18  C 
ATOM     16  CG  PRO C  19     -76.629-210.815  86.058  1.00 22.87 LIG 0.02  C 
ATOM     17  CB  PRO C  19     -77.075-212.118  85.489  1.00 23.39 LIG 0.04  C 
ATOM     18 O    ASN C  18     -76.610-211.142  81.506  1.00 23.13 LIG-0.27  OA
BRANCH 15 19
ATOM     19  C   PRO C  19     -78.920-211.333  83.982  1.00 24.54 LIG 0.24  C 
ATOM     20  N   PHE C  20     -79.781-211.968  84.771  1.00 23.51 LIG-0.34  N 
ATOM     21 H    PHE C  20     -79.550-212.521  85.389  1.00 23.51 LIG 0.16  HD
ATOM     22 O    PRO C  19     -79.249-210.424  83.215  1.00 27.52 LIG-0.27  OA
BRANCH 20 23
ATOM     23  CA  PHE C  20     -81.224-211.770  84.646  1.00 27.49 LIG 0.19  C 
BRANCH 23 24
ATOM     24  CB  PHE C  20     -81.619-211.852  83.171  1.00 22.62 LIG 0.07  C 
BRANCH 24 25
ATOM     25  CG  PHE C  20     -81.710-213.259  82.666  1.00 18.80 LIG-0.06  A 
ATOM     26  CD1 PHE C  20     -82.907-213.945  82.735  1.00 16.53 LIG 0.01  A 
ATOM     27  CE1 PHE C  20     -83.013-215.232  82.258  1.00 18.06 LIG 0.00  A 
ATOM     28  CZ  PHE C  20     -81.912-215.854  81.693  1.00 17.30 LIG 0.00  A 
ATOM     29  CE2 PHE C  20     -80.713-215.180  81.610  1.00 18.45 LIG 0.00  A 
ATOM     30  CD2 PHE C  20     -80.616-213.886  82.091  1.00 20.64 LIG 0.01  A 
ENDBRANCH 24 25
ENDBRANCH 23 24
BRANCH 23 31
ATOM     31  C   PHE C  20     -82.030-212.768  85.475  1.00 41.21 LIG 0.20  C 
ATOM     32 OXT  PHE C  20     -83.260-212.743  85.489  1.00 46.78 LIG-0.65  OA
ATOM     33 O    PHE C  20     -81.463-213.636  86.144  1.00 43.65 LIG-0.65  OA
ENDBRANCH 23 31
ENDBRANCH 20 23
ENDBRANCH 15 19
ENDBRANCH 5 12
ENDBRANCH 3 5
BRANCH 1 34
ATOM     34  CA  ASN C  17     -72.150-209.424  79.875  1.00 16.90 LIG 0.18  C 
BRANCH 34 35
ATOM     35  N   ASN C  17     -72.926-209.592  78.655  1.00 20.58 LIG-0.35  N 
ATOM     36  C   VAL C  16     -73.211-210.801  78.183  1.00 27.16 LIG 0.24  C 
ATOM     37 O    VAL C  16     -72.686-211.827  78.617  1.00 29.43 LIG-0.27  OA
ATOM     38 H    ASN C  17     -73.172-208.857  78.283  1.00 20.58 LIG 0.16  HD
BRANCH 36 39
ATOM     39  CA  VAL C  16     -74.229-210.866  77.047  1.00 33.54 LIG 0.18  C 
BRANCH 39 40
ATOM     40  CB  VAL C  16     -73.485-211.021  75.699  1.00 32.44 LIG 0.01  C 
ATOM     41  CG2 VAL C  16     -72.034-210.557  75.836  1.00 34.10 LIG 0.01  C 
ATOM     42  CG1 VAL C  16     -74.209-210.271  74.572  1.00 32.37 LIG 0.01  C 
ENDBRANCH 39 40
BRANCH 39 43
ATOM     43  N   VAL C  16     -75.080-209.682  77.033  1.00 45.58 LIG-0.34  N 
ATOM     44  C   GLN C  15     -75.987-209.447  77.973  1.00 57.61 LIG 0.26  C 
ATOM     45 O    GLN C  15     -76.159-210.190  78.940  1.00 61.53 LIG-0.27  OA
ATOM     46 H    VAL C  16     -74.941-209.158  76.365  1.00 45.58 LIG 0.16  HD
BRANCH 44 47
ATOM     47  CA  GLN C  15     -76.817-208.178  77.795  1.00 63.44 LIG 0.40  C 
ATOM     48  N   GLN C  15     -76.207-207.058  78.502  1.00 62.08 LIG 0.61  N 
BRANCH 47 49
ATOM     49  CB  GLN C  15     -76.970-207.853  76.311  1.00 68.54 LIG 0.06  C 
BRANCH 49 50
ATOM     50  CG  GLN C  15     -76.285-206.555  75.894  1.00 72.89 LIG 0.10  C 
BRANCH 50 51
ATOM     51  CD  GLN C  15     -74.844-206.736  75.448  1.00 75.77 LIG 0.21  C 
ATOM     52 OE1  GLN C  15     -73.905-206.521  76.214  1.00 77.61 LIG-0.27  OA
ATOM     53  NE2 GLN C  15     -74.665-207.130  74.193  1.00 76.03 LIG-0.37  N 
ATOM     54 22HE GLN C  15     -73.870-207.245  73.888  1.00 76.03 LIG 0.16  HD
ATOM     55 21HE GLN C  15     -75.346-207.271  73.686  1.00 76.03 LIG 0.16  HD
ENDBRANCH 50 51
ENDBRANCH 49 50
ENDBRANCH 47 49
ENDBRANCH 44 47
ENDBRANCH 39 43
ENDBRANCH 36 39
ENDBRANCH 34 35
BRANCH 34 56
ATOM     56  CB  ASN C  17     -71.005-208.428  79.668  1.00 15.63 LIG 0.14  C 
BRANCH 56 57
ATOM     57  CG  ASN C  17     -71.372-207.303  78.718  1.00 17.63 LIG 0.22  C 
ATOM     58 OD1  ASN C  17     -70.588-206.931  77.842  1.00 24.00 LIG-0.27  OA
ATOM     59  ND2 ASN C  17     -72.563-206.744  78.896  1.00 16.48 LIG-0.37  N 
ATOM     60 21HD ASN C  17     -72.813-206.096  78.389  1.00 16.48 LIG 0.16  HD
ATOM     61 22HD ASN C  17     -73.084-207.030  79.518  1.00 16.48 LIG 0.16  HD
ENDBRANCH 56 57
ENDBRANCH 34 56
ENDBRANCH 1 34
TORSDOF 20
ENDMDL
MODEL 15
USER: ADFR SOLUTION from run 186
USER: SCORE 17.096337 LL:  -5.414 LR: -13.976 RR:   0.000 FEB:  -8.010
USER: RMSD 5.726928
USER: SEED 185
USER: STATUS no improvement in best in 9 clusters for 5 generations
USER: GENES 22
USER: genes 0 Translation |==|  0.59982 0.58739 0.40326
USER: genes 1 Rotation |==|  0.91069 0.56341 0.33632 0.72477
USER: genes 2 Torsion [C]-N--CA-[CB] |==|  0.51977
USER: genes 3 Torsion [N]-CA--CB-[CG] |==|  0.69927
USER: genes 4 Torsion [CA]-CB--CG-[OD1] |==|  0.69714
USER: genes 5 Torsion [N]-CA--C-[N] |==|  0.87772
USER: genes 6 Torsion [N]-CA--C-[O] |==|  0.38402
USER: genes 7 Torsion [C]-N--CA-[CB] |==|  0.42186
USER: genes 8 Torsion [N]-CA--CB-[CG] |==|  0.89735
USER: genes 9 Torsion [CA]-CB--CG-[CD1] |==|  0.85047
USER: genes 10 Torsion [N]-CA--C-[O] |==|  0.40614
USER: genes 11 Torsion [N]-C--CA-[N] |==|  0.08303
USER: genes 12 Torsion [C]-CA--N-[C] |==|  0.74922
USER: genes 13 Torsion [N]-C--CA-[N] |==|  0.73820
USER: genes 14 Torsion [C]-CA--CB-[CG2] |==|  0.54867
USER: genes 15 Torsion [C]-CA--N-[C] |==|  0.65543
USER: genes 16 Torsion [N]-C--CA-[N] |==|  0.33766
USER: genes 17 Torsion [C]-CA--CB-[CG] |==|  0.39632
USER: genes 18 Torsion [CA]-CB--CG-[CD] |==|  0.59634
USER: genes 19 Torsion [CB]-CG--CD-[OE1] |==|  0.35980
USER: genes 20 Torsion [C]-CA--CB-[CG] |==|  0.30079
USER: genes 21 Torsion [CA]-CB--CG-[OD1] |==|  0.97030
ROOT
ATOM      1  C   ASN C  17     -75.992-208.210  80.424  1.00 20.61 LIG 0.24  C 
ATOM      2 O    ASN C  17     -75.939-207.237  79.674  1.00 16.51 LIG-0.27  OA
ATOM      3  N   ASN C  18     -75.327-208.285  81.575  1.00 22.51 LIG-0.35  N 
ATOM      4 H    ASN C  18     -75.332-208.979  82.083  1.00 22.51 LIG 0.16  HD
ENDROOT
BRANCH 3 5
ATOM      5  CA  ASN C  18     -74.522-207.179  82.081  1.00 19.22 LIG 0.18  C 
BRANCH 5 6
ATOM      6  CB  ASN C  18     -73.742-207.620  83.324  1.00 16.89 LIG 0.14  C 
BRANCH 6 7
ATOM      7  CG  ASN C  18     -74.282-207.003  84.599  1.00 20.14 LIG 0.22  C 
ATOM      8  ND2 ASN C  18     -75.469-207.436  85.010  1.00 20.12 LIG-0.37  N 
ATOM      9 22HD ASN C  18     -75.883-208.043  84.563  1.00 20.12 LIG 0.16  HD
ATOM     10 21HD ASN C  18     -75.823-207.108  85.722  1.00 20.12 LIG 0.16  HD
ATOM     11 OD1  ASN C  18     -73.646-206.136  85.200  1.00 18.28 LIG-0.27  OA
ENDBRANCH 6 7
ENDBRANCH 5 6
BRANCH 5 12
ATOM     12  C   ASN C  18     -73.550-206.648  81.023  1.00 21.33 LIG 0.24  C 
ATOM     13  N   PRO C  19     -72.875-207.554  80.297  1.00 20.66 LIG-0.34  N 
ATOM     14  CD  PRO C  19     -72.828-209.014  80.496  1.00 23.11 LIG 0.13  C 
ATOM     15  CA  PRO C  19     -71.940-207.124  79.253  1.00 23.26 LIG 0.18  C 
ATOM     16  CG  PRO C  19     -71.827-209.483  79.465  1.00 22.87 LIG 0.02  C 
ATOM     17  CB  PRO C  19     -70.971-208.300  79.165  1.00 23.39 LIG 0.04  C 
ATOM     18 O    ASN C  18     -73.413-205.436  80.859  1.00 23.13 LIG-0.27  OA
BRANCH 15 19
ATOM     19  C   PRO C  19     -72.607-206.881  77.899  1.00 24.54 LIG 0.24  C 
ATOM     20  N   PHE C  20     -73.527-207.759  77.511  1.00 23.51 LIG-0.34  N 
ATOM     21 H    PHE C  20     -73.845-208.378  78.017  1.00 23.51 LIG 0.16  HD
ATOM     22 O    PRO C  19     -72.280-205.902  77.224  1.00 27.52 LIG-0.27  OA
BRANCH 20 23
ATOM     23  CA  PHE C  20     -74.084-207.738  76.159  1.00 27.49 LIG 0.19  C 
BRANCH 23 24
ATOM     24  CB  PHE C  20     -74.521-209.150  75.771  1.00 22.62 LIG 0.07  C 
BRANCH 24 25
ATOM     25  CG  PHE C  20     -73.601-210.212  76.290  1.00 18.80 LIG-0.06  A 
ATOM     26  CD1 PHE C  20     -72.247-210.150  76.023  1.00 16.53 LIG 0.01  A 
ATOM     27  CE1 PHE C  20     -71.387-211.107  76.509  1.00 18.06 LIG 0.00  A 
ATOM     28  CZ  PHE C  20     -71.873-212.146  77.284  1.00 17.30 LIG 0.00  A 
ATOM     29  CE2 PHE C  20     -73.219-212.218  77.567  1.00 18.45 LIG 0.00  A 
ATOM     30  CD2 PHE C  20     -74.078-211.250  77.075  1.00 20.64 LIG 0.01  A 
ENDBRANCH 24 25
ENDBRANCH 23 24
BRANCH 23 31
ATOM     31  C   PHE C  20     -75.245-206.757  76.016  1.00 41.21 LIG 0.20  C 
ATOM     32 OXT  PHE C  20     -76.018-206.538  76.949  1.00 46.78 LIG-0.65  OA
ATOM     33 O    PHE C  20     -75.431-206.146  74.960  1.00 43.65 LIG-0.65  OA
ENDBRANCH 23 31
ENDBRANCH 20 23
ENDBRANCH 15 19
ENDBRANCH 5 12
ENDBRANCH 3 5
BRANCH 1 34
ATOM     34  CA  ASN C  17     -76.863-209.408  80.070  1.00 16.90 LIG 0.18  C 
BRANCH 34 35
ATOM     35  N   ASN C  17     -77.330-210.019  81.305  1.00 20.58 LIG-0.35  N 
ATOM     36  C   VAL C  16     -76.636-210.984  81.900  1.00 27.16 LIG 0.24  C 
ATOM     37 O    VAL C  16     -75.686-211.550  81.360  1.00 29.43 LIG-0.27  OA
ATOM     38 H    ASN C  17     -78.074-209.705  81.602  1.00 20.58 LIG 0.16  HD
BRANCH 36 39
ATOM     39  CA  VAL C  16     -77.084-211.378  83.305  1.00 33.54 LIG 0.18  C 
BRANCH 39 40
ATOM     40  CB  VAL C  16     -78.600-211.109  83.455  1.00 32.44 LIG 0.01  C 
ATOM     41  CG2 VAL C  16     -78.991-211.075  84.933  1.00 34.10 LIG 0.01  C 
ATOM     42  CG1 VAL C  16     -79.430-212.141  82.679  1.00 32.37 LIG 0.01  C 
ENDBRANCH 39 40
BRANCH 39 43
ATOM     43  N   VAL C  16     -76.329-210.656  84.322  1.00 45.58 LIG-0.34  N 
ATOM     44  C   GLN C  15     -75.651-211.278  85.280  1.00 57.61 LIG 0.26  C 
ATOM     45 O    GLN C  15     -75.583-212.505  85.366  1.00 61.53 LIG-0.27  OA
ATOM     46 H    VAL C  16     -76.365-209.800  84.244  1.00 45.58 LIG 0.16  HD
BRANCH 44 47
ATOM     47  CA  GLN C  15     -74.939-210.375  86.284  1.00 63.44 LIG 0.40  C 
ATOM     48  N   GLN C  15     -75.403-210.646  87.640  1.00 62.08 LIG 0.61  N 
BRANCH 47 49
ATOM     49  CB  GLN C  15     -73.428-210.570  86.190  1.00 68.54 LIG 0.06  C 
BRANCH 49 50
ATOM     50  CG  GLN C  15     -72.630-209.283  86.374  1.00 72.89 LIG 0.10  C 
BRANCH 50 51
ATOM     51  CD  GLN C  15     -71.368-209.216  85.532  1.00 75.77 LIG 0.21  C 
ATOM     52 OE1  GLN C  15     -71.119-208.237  84.828  1.00 77.61 LIG-0.27  OA
ATOM     53  NE2 GLN C  15     -70.564-210.270  85.597  1.00 76.03 LIG-0.37  N 
ATOM     54 22HE GLN C  15     -69.838-210.287  85.138  1.00 76.03 LIG 0.16  HD
ATOM     55 21HE GLN C  15     -70.770-210.937  86.100  1.00 76.03 LIG 0.16  HD
ENDBRANCH 50 51
ENDBRANCH 49 50
ENDBRANCH 47 49
ENDBRANCH 44 47
ENDBRANCH 39 43
ENDBRANCH 36 39
ENDBRANCH 34 35
BRANCH 34 56
ATOM     56  CB  ASN C  17     -78.039-208.983  79.185  1.00 15.63 LIG 0.14  C 
BRANCH 56 57
ATOM     57  CG  ASN C  17     -77.892-209.453  77.751  1.00 17.63 LIG 0.22  C 
ATOM     58 OD1  ASN C  17     -76.830-209.930  77.345  1.00 24.00 LIG-0.27  OA
ATOM     59  ND2 ASN C  17     -78.955-209.307  76.968  1.00 16.48 LIG-0.37  N 
ATOM     60 21HD ASN C  17     -78.918-209.549  76.144  1.00 16.48 LIG 0.16  HD
ATOM     61 22HD ASN C  17     -79.679-208.970  77.286  1.00 16.48 LIG 0.16  HD
ENDBRANCH 56 57
ENDBRANCH 34 56
ENDBRANCH 1 34
TORSDOF 20
ENDMDL
MODEL 16
USER: ADFR SOLUTION from run 29
USER: SCORE 18.598787 LL:  -5.336 LR: -13.971 RR:   0.000 FEB:  -8.005
USER: RMSD 4.901346
USER: SEED 28
USER: STATUS searching
USER: GENES 22
USER: genes 0 Translation |==|  0.73626 0.63798 0.51452
USER: genes 1 Rotation |==|  0.59531 0.55597 0.98635 0.53525
USER: genes 2 Torsion [C]-N--CA-[CB] |==|  0.73698
USER: genes 3 Torsion [N]-CA--CB-[CG] |==|  0.67801
USER: genes 4 Torsion [CA]-CB--CG-[OD1] |==|  0.45412
USER: genes 5 Torsion [N]-CA--C-[N] |==|  0.25025
USER: genes 6 Torsion [N]-CA--C-[O] |==|  0.52846
USER: genes 7 Torsion [C]-N--CA-[CB] |==|  0.19823
USER: genes 8 Torsion [N]-CA--CB-[CG] |==|  0.11365
USER: genes 9 Torsion [CA]-CB--CG-[CD1] |==|  0.62052
USER: genes 10 Torsion [N]-CA--C-[O] |==|  0.14732
USER: genes 11 Torsion [N]-C--CA-[N] |==|  0.88517
USER: genes 12 Torsion [C]-CA--N-[C] |==|  0.84356
USER: genes 13 Torsion [N]-C--CA-[N] |==|  0.50743
USER: genes 14 Torsion [C]-CA--CB-[CG2] |==|  0.68008
USER: genes 15 Torsion [C]-CA--N-[C] |==|  0.69948
USER: genes 16 Torsion [N]-C--CA-[N] |==|  0.52617
USER: genes 17 Torsion [C]-CA--CB-[CG] |==|  0.33335
USER: genes 18 Torsion [CA]-CB--CG-[CD] |==|  0.81074
USER: genes 19 Torsion [CB]-CG--CD-[OE1] |==|  0.18549
USER: genes 20 Torsion [C]-CA--CB-[CG] |==|  0.62651
USER: genes 21 Torsion [CA]-CB--CG-[OD1] |==|  0.73925
ROOT
ATOM      1  C   ASN C  17     -73.127-207.451  83.177  1.00 20.61 LIG 0.24  C 
ATOM      2 O    ASN C  17     -73.646-206.495  82.604  1.00 16.51 LIG-0.27  OA
ATOM      3  N   ASN C  18     -73.265-208.712  82.773  1.00 22.51 LIG-0.35  N 
ATOM      4 H    ASN C  18     -72.935-209.386  83.193  1.00 22.51 LIG 0.16  HD
ENDROOT
BRANCH 3 5
ATOM      5  CA  ASN C  18     -74.001-209.064  81.563  1.00 19.22 LIG 0.18  C 
BRANCH 5 6
ATOM      6  CB  ASN C  18     -75.450-209.418  81.912  1.00 16.89 LIG 0.14  C 
BRANCH 6 7
ATOM      7  CG  ASN C  18     -75.788-210.863  81.603  1.00 20.14 LIG 0.22  C 
ATOM      8  ND2 ASN C  18     -74.963-211.500  80.779  1.00 20.12 LIG-0.37  N 
ATOM      9 22HD ASN C  18     -74.275-211.094  80.461  1.00 20.12 LIG 0.16  HD
ATOM     10 21HD ASN C  18     -75.118-212.319  80.564  1.00 20.12 LIG 0.16  HD
ATOM     11 OD1  ASN C  18     -76.787-211.396  82.087  1.00 18.28 LIG-0.27  OA
ENDBRANCH 6 7
ENDBRANCH 5 6
BRANCH 5 12
ATOM     12  C   ASN C  18     -73.978-207.933  80.531  1.00 21.33 LIG 0.24  C 
ATOM     13  N   PRO C  19     -72.973-207.933  79.640  1.00 20.66 LIG-0.34  N 
ATOM     14  CD  PRO C  19     -71.783-208.802  79.625  1.00 23.11 LIG 0.13  C 
ATOM     15  CA  PRO C  19     -72.893-206.893  78.610  1.00 23.26 LIG 0.18  C 
ATOM     16  CG  PRO C  19     -70.963-208.264  78.474  1.00 22.87 LIG 0.02  C 
ATOM     17  CB  PRO C  19     -71.400-206.851  78.291  1.00 23.39 LIG 0.04  C 
ATOM     18 O    ASN C  18     -74.858-207.073  80.534  1.00 23.13 LIG-0.27  OA
BRANCH 15 19
ATOM     19  C   PRO C  19     -73.697-207.219  77.351  1.00 24.54 LIG 0.24  C 
ATOM     20  N   PHE C  20     -74.521-208.261  77.410  1.00 23.51 LIG-0.34  N 
ATOM     21 H    PHE C  20     -74.709-208.684  78.135  1.00 23.51 LIG 0.16  HD
ATOM     22 O    PRO C  19     -73.561-206.521  76.342  1.00 27.52 LIG-0.27  OA
BRANCH 20 23
ATOM     23  CA  PHE C  20     -75.186-208.780  76.216  1.00 27.49 LIG 0.19  C 
BRANCH 23 24
ATOM     24  CB  PHE C  20     -74.156-209.480  75.330  1.00 22.62 LIG 0.07  C 
BRANCH 24 25
ATOM     25  CG  PHE C  20     -73.175-210.302  76.107  1.00 18.80 LIG-0.06  A 
ATOM     26  CD1 PHE C  20     -71.830-210.262  75.791  1.00 16.53 LIG 0.01  A 
ATOM     27  CE1 PHE C  20     -70.914-210.996  76.508  1.00 18.06 LIG 0.00  A 
ATOM     28  CZ  PHE C  20     -71.333-211.783  77.568  1.00 17.30 LIG 0.00  A 
ATOM     29  CE2 PHE C  20     -72.669-211.828  77.901  1.00 18.45 LIG 0.00  A 
ATOM     30  CD2 PHE C  20     -73.585-211.085  77.175  1.00 20.64 LIG 0.01  A 
ENDBRANCH 24 25
ENDBRANCH 23 24
BRANCH 23 31
ATOM     31  C   PHE C  20     -76.340-209.723  76.549  1.00 41.21 LIG 0.20  C 
ATOM     32 OXT  PHE C  20     -76.401-210.855  76.070  1.00 46.78 LIG-0.65  OA
ATOM     33 O    PHE C  20     -77.239-209.376  77.320  1.00 43.65 LIG-0.65  OA
ENDBRANCH 23 31
ENDBRANCH 20 23
ENDBRANCH 15 19
ENDBRANCH 5 12
ENDBRANCH 3 5
BRANCH 1 34
ATOM     34  CA  ASN C  17     -72.255-207.230  84.406  1.00 16.90 LIG 0.18  C 
BRANCH 34 35
ATOM     35  N   ASN C  17     -72.552-208.274  85.376  1.00 20.58 LIG-0.35  N 
ATOM     36  C   VAL C  16     -73.790-208.471  85.817  1.00 27.16 LIG 0.24  C 
ATOM     37 O    VAL C  16     -74.708-207.681  85.600  1.00 29.43 LIG-0.27  OA
ATOM     38 H    ASN C  17     -71.870-208.736  85.626  1.00 20.58 LIG 0.16  HD
BRANCH 36 39
ATOM     39  CA  VAL C  16     -74.028-209.738  86.635  1.00 33.54 LIG 0.18  C 
BRANCH 39 40
ATOM     40  CB  VAL C  16     -73.559-210.969  85.823  1.00 32.44 LIG 0.01  C 
ATOM     41  CG2 VAL C  16     -74.748-211.869  85.485  1.00 34.10 LIG 0.01  C 
ATOM     42  CG1 VAL C  16     -72.463-211.744  86.568  1.00 32.37 LIG 0.01  C 
ENDBRANCH 39 40
BRANCH 39 43
ATOM     43  N   VAL C  16     -75.432-209.871  87.005  1.00 45.58 LIG-0.34  N 
ATOM     44  C   GLN C  15     -75.859-209.691  88.250  1.00 57.61 LIG 0.26  C 
ATOM     45 O    GLN C  15     -75.113-209.372  89.176  1.00 61.53 LIG-0.27  OA
ATOM     46 H    VAL C  16     -75.951-210.075  86.350  1.00 45.58 LIG 0.16  HD
BRANCH 44 47
ATOM     47  CA  GLN C  15     -77.355-209.897  88.477  1.00 63.44 LIG 0.40  C 
ATOM     48  N   GLN C  15     -77.739-209.461  89.814  1.00 62.08 LIG 0.61  N 
BRANCH 47 49
ATOM     49  CB  GLN C  15     -78.157-209.143  87.419  1.00 68.54 LIG 0.06  C 
BRANCH 49 50
ATOM     50  CG  GLN C  15     -79.048-210.042  86.567  1.00 72.89 LIG 0.10  C 
BRANCH 50 51
ATOM     51  CD  GLN C  15     -78.279-210.974  85.646  1.00 75.77 LIG 0.21  C 
ATOM     52 OE1  GLN C  15     -77.582-211.885  86.093  1.00 77.61 LIG-0.27  OA
ATOM     53  NE2 GLN C  15     -78.401-210.742  84.345  1.00 76.03 LIG-0.37  N 
ATOM     54 22HE GLN C  15     -77.985-211.237  83.779  1.00 76.03 LIG 0.16  HD
ATOM     55 21HE GLN C  15     -78.898-210.096  84.069  1.00 76.03 LIG 0.16  HD
ENDBRANCH 50 51
ENDBRANCH 49 50
ENDBRANCH 47 49
ENDBRANCH 44 47
ENDBRANCH 39 43
ENDBRANCH 36 39
ENDBRANCH 34 35
BRANCH 34 56
ATOM     56  CB  ASN C  17     -70.771-207.232  84.030  1.00 15.63 LIG 0.14  C 
BRANCH 56 57
ATOM     57  CG  ASN C  17     -69.928-208.067  84.975  1.00 17.63 LIG 0.22  C 
ATOM     58 OD1  ASN C  17     -69.361-207.553  85.942  1.00 24.00 LIG-0.27  OA
ATOM     59  ND2 ASN C  17     -69.828-209.360  84.693  1.00 16.48 LIG-0.37  N 
ATOM     60 21HD ASN C  17     -69.353-209.874  85.193  1.00 16.48 LIG 0.16  HD
ATOM     61 22HD ASN C  17     -70.238-209.684  84.010  1.00 16.48 LIG 0.16  HD
ENDBRANCH 56 57
ENDBRANCH 34 56
ENDBRANCH 1 34
TORSDOF 20
ENDMDL
MODEL 17
USER: ADFR SOLUTION from run 56
USER: SCORE 17.260322 LL:  -4.896 LR: -13.947 RR:   0.000 FEB:  -7.981
USER: RMSD 9.628006
USER: SEED 55
USER: STATUS no improvement in best in 9 clusters for 5 generations
USER: GENES 22
USER: genes 0 Translation |==|  0.66326 0.42181 0.37165
USER: genes 1 Rotation |==|  0.74061 0.07011 0.58305 0.52004
USER: genes 2 Torsion [C]-N--CA-[CB] |==|  0.45599
USER: genes 3 Torsion [N]-CA--CB-[CG] |==|  0.16404
USER: genes 4 Torsion [CA]-CB--CG-[OD1] |==|  0.77773
USER: genes 5 Torsion [N]-CA--C-[N] |==|  0.43848
USER: genes 6 Torsion [N]-CA--C-[O] |==|  0.99742
USER: genes 7 Torsion [C]-N--CA-[CB] |==|  0.17639
USER: genes 8 Torsion [N]-CA--CB-[CG] |==|  0.18393
USER: genes 9 Torsion [CA]-CB--CG-[CD1] |==|  0.25897
USER: genes 10 Torsion [N]-CA--C-[O] |==|  0.92486
USER: genes 11 Torsion [N]-C--CA-[N] |==|  0.01111
USER: genes 12 Torsion [C]-CA--N-[C] |==|  0.20536
USER: genes 13 Torsion [N]-C--CA-[N] |==|  0.37006
USER: genes 14 Torsion [C]-CA--CB-[CG2] |==|  0.50654
USER: genes 15 Torsion [C]-CA--N-[C] |==|  0.61476
USER: genes 16 Torsion [N]-C--CA-[N] |==|  0.38698
USER: genes 17 Torsion [C]-CA--CB-[CG] |==|  0.40427
USER: genes 18 Torsion [CA]-CB--CG-[CD] |==|  0.84677
USER: genes 19 Torsion [CB]-CG--CD-[OE1] |==|  0.25785
USER: genes 20 Torsion [C]-CA--CB-[CG] |==|  0.32416
USER: genes 21 Torsion [CA]-CB--CG-[OD1] |==|  0.41537
ROOT
ATOM      1  C   ASN C  17     -74.660-210.694  79.641  1.00 20.61 LIG 0.24  C 
ATOM      2 O    ASN C  17     -74.093-211.371  80.498  1.00 16.51 LIG-0.27  OA
ATOM      3  N   ASN C  18     -75.541-209.738  79.927  1.00 22.51 LIG-0.35  N 
ATOM      4 H    ASN C  18     -75.967-209.288  79.330  1.00 22.51 LIG 0.16  HD
ENDROOT
BRANCH 3 5
ATOM      5  CA  ASN C  18     -75.864-209.363  81.299  1.00 19.22 LIG 0.18  C 
BRANCH 5 6
ATOM      6  CB  ASN C  18     -76.582-208.010  81.322  1.00 16.89 LIG 0.14  C 
BRANCH 6 7
ATOM      7  CG  ASN C  18     -77.866-208.019  80.516  1.00 20.14 LIG 0.22  C 
ATOM      8  ND2 ASN C  18     -78.994-208.173  81.202  1.00 20.12 LIG-0.37  N 
ATOM      9 22HD ASN C  18     -78.969-208.251  82.058  1.00 20.12 LIG 0.16  HD
ATOM     10 21HD ASN C  18     -79.748-208.196  80.789  1.00 20.12 LIG 0.16  HD
ATOM     11 OD1  ASN C  18     -77.845-207.903  79.290  1.00 18.28 LIG-0.27  OA
ENDBRANCH 6 7
ENDBRANCH 5 6
BRANCH 5 12
ATOM     12  C   ASN C  18     -76.730-210.420  81.991  1.00 21.33 LIG 0.24  C 
ATOM     13  N   PRO C  19     -76.720-210.441  83.334  1.00 20.66 LIG-0.34  N 
ATOM     14  CD  PRO C  19     -75.848-209.673  84.241  1.00 23.11 LIG 0.13  C 
ATOM     15  CA  PRO C  19     -77.536-211.412  84.069  1.00 23.26 LIG 0.18  C 
ATOM     16  CG  PRO C  19     -76.209-210.195  85.612  1.00 22.87 LIG 0.02  C 
ATOM     17  CB  PRO C  19     -76.783-211.553  85.389  1.00 23.39 LIG 0.04  C 
ATOM     18 O    ASN C  18     -77.404-211.204  81.324  1.00 23.13 LIG-0.27  OA
BRANCH 15 19
ATOM     19  C   PRO C  19     -78.968-210.938  84.321  1.00 24.54 LIG 0.24  C 
ATOM     20  N   PHE C  20     -79.777-211.772  84.967  1.00 23.51 LIG-0.34  N 
ATOM     21 H    PHE C  20     -79.516-212.500  85.344  1.00 23.51 LIG 0.16  HD
ATOM     22 O    PRO C  19     -79.320-209.823  83.928  1.00 27.52 LIG-0.27  OA
BRANCH 20 23
ATOM     23  CA  PHE C  20     -81.210-211.507  85.090  1.00 27.49 LIG 0.19  C 
BRANCH 23 24
ATOM     24  CB  PHE C  20     -81.845-211.515  83.699  1.00 22.62 LIG 0.07  C 
BRANCH 24 25
ATOM     25  CG  PHE C  20     -81.811-212.864  83.047  1.00 18.80 LIG-0.06  A 
ATOM     26  CD1 PHE C  20     -82.885-213.724  83.175  1.00 16.53 LIG 0.01  A 
ATOM     27  CE1 PHE C  20     -82.878-214.958  82.567  1.00 18.06 LIG 0.00  A 
ATOM     28  CZ  PHE C  20     -81.788-215.350  81.807  1.00 17.30 LIG 0.00  A 
ATOM     29  CE2 PHE C  20     -80.713-214.500  81.663  1.00 18.45 LIG 0.00  A 
ATOM     30  CD2 PHE C  20     -80.729-213.259  82.278  1.00 20.64 LIG 0.01  A 
ENDBRANCH 24 25
ENDBRANCH 23 24
BRANCH 23 31
ATOM     31  C   PHE C  20     -81.916-212.501  86.009  1.00 41.21 LIG 0.20  C 
ATOM     32 OXT  PHE C  20     -82.947-212.199  86.608  1.00 46.78 LIG-0.65  OA
ATOM     33 O    PHE C  20     -81.473-213.643  86.165  1.00 43.65 LIG-0.65  OA
ENDBRANCH 23 31
ENDBRANCH 20 23
ENDBRANCH 15 19
ENDBRANCH 5 12
ENDBRANCH 3 5
BRANCH 1 34
ATOM     34  CA  ASN C  17     -74.356-210.911  78.165  1.00 16.90 LIG 0.18  C 
BRANCH 34 35
ATOM     35  N   ASN C  17     -75.073-209.906  77.394  1.00 20.58 LIG-0.35  N 
ATOM     36  C   VAL C  16     -74.672-208.640  77.374  1.00 27.16 LIG 0.24  C 
ATOM     37 O    VAL C  16     -73.815-208.200  78.140  1.00 29.43 LIG-0.27  OA
ATOM     38 H    ASN C  17     -75.759-210.204  76.968  1.00 20.58 LIG 0.16  HD
BRANCH 36 39
ATOM     39  CA  VAL C  16     -75.343-207.729  76.348  1.00 33.54 LIG 0.18  C 
BRANCH 39 40
ATOM     40  CB  VAL C  16     -74.371-207.479  75.170  1.00 32.44 LIG 0.01  C 
ATOM     41  CG2 VAL C  16     -74.999-206.522  74.156  1.00 34.10 LIG 0.01  C 
ATOM     42  CG1 VAL C  16     -73.946-208.798  74.508  1.00 32.37 LIG 0.01  C 
ENDBRANCH 39 40
BRANCH 39 43
ATOM     43  N   VAL C  16     -75.756-206.468  76.952  1.00 45.58 LIG-0.34  N 
ATOM     44  C   GLN C  15     -76.919-205.892  76.672  1.00 57.61 LIG 0.26  C 
ATOM     45 O    GLN C  15     -77.747-206.389  75.907  1.00 61.53 LIG-0.27  OA
ATOM     46 H    VAL C  16     -75.181-206.136  77.499  1.00 45.58 LIG 0.16  HD
BRANCH 44 47
ATOM     47  CA  GLN C  15     -77.185-204.558  77.365  1.00 63.44 LIG 0.40  C 
ATOM     48  N   GLN C  15     -77.818-203.618  76.448  1.00 62.08 LIG 0.61  N 
BRANCH 47 49
ATOM     49  CB  GLN C  15     -78.061-204.771  78.598  1.00 68.54 LIG 0.06  C 
BRANCH 49 50
ATOM     50  CG  GLN C  15     -77.737-203.826  79.751  1.00 72.89 LIG 0.10  C 
BRANCH 50 51
ATOM     51  CD  GLN C  15     -76.282-203.862  80.184  1.00 75.77 LIG 0.21  C 
ATOM     52 OE1  GLN C  15     -75.455-203.079  79.717  1.00 77.61 LIG-0.27  OA
ATOM     53  NE2 GLN C  15     -75.962-204.784  81.084  1.00 76.03 LIG-0.37  N 
ATOM     54 22HE GLN C  15     -75.152-204.851  81.362  1.00 76.03 LIG 0.16  HD
ATOM     55 21HE GLN C  15     -76.567-205.314  81.390  1.00 76.03 LIG 0.16  HD
ENDBRANCH 50 51
ENDBRANCH 49 50
ENDBRANCH 47 49
ENDBRANCH 44 47
ENDBRANCH 39 43
ENDBRANCH 36 39
ENDBRANCH 34 35
BRANCH 34 56
ATOM     56  CB  ASN C  17     -72.849-210.836  77.902  1.00 15.63 LIG 0.14  C 
BRANCH 56 57
ATOM     57  CG  ASN C  17     -72.278-212.145  77.391  1.00 17.63 LIG 0.22  C 
ATOM     58 OD1  ASN C  17     -71.307-212.160  76.632  1.00 24.00 LIG-0.27  OA
ATOM     59  ND2 ASN C  17     -72.888-213.254  77.793  1.00 16.48 LIG-0.37  N 
ATOM     60 21HD ASN C  17     -72.609-214.020  77.523  1.00 16.48 LIG 0.16  HD
ATOM     61 22HD ASN C  17     -73.564-213.204  78.323  1.00 16.48 LIG 0.16  HD
ENDBRANCH 56 57
ENDBRANCH 34 56
ENDBRANCH 1 34
TORSDOF 20
ENDMDL
MODEL 18
USER: ADFR SOLUTION from run 73
USER: SCORE 18.182491 LL:  -4.610 LR: -13.909 RR:   0.000 FEB:  -7.943
USER: RMSD 3.942132
USER: SEED 72
USER: STATUS no improvement in best in 5 clusters for 5 generations
USER: GENES 22
USER: genes 0 Translation |==|  0.59908 0.41639 0.45178
USER: genes 1 Rotation |==|  0.70341 0.41115 0.26548 0.88175
USER: genes 2 Torsion [C]-N--CA-[CB] |==|  0.85259
USER: genes 3 Torsion [N]-CA--CB-[CG] |==|  0.51483
USER: genes 4 Torsion [CA]-CB--CG-[OD1] |==|  0.70168
USER: genes 5 Torsion [N]-CA--C-[N] |==|  0.38619
USER: genes 6 Torsion [N]-CA--C-[O] |==|  0.75095
USER: genes 7 Torsion [C]-N--CA-[CB] |==|  0.39100
USER: genes 8 Torsion [N]-CA--CB-[CG] |==|  0.75262
USER: genes 9 Torsion [CA]-CB--CG-[CD1] |==|  0.36793
USER: genes 10 Torsion [N]-CA--C-[O] |==|  0.39368
USER: genes 11 Torsion [N]-C--CA-[N] |==|  0.02873
USER: genes 12 Torsion [C]-CA--N-[C] |==|  0.67269
USER: genes 13 Torsion [N]-C--CA-[N] |==|  0.29792
USER: genes 14 Torsion [C]-CA--CB-[CG2] |==|  0.46603
USER: genes 15 Torsion [C]-CA--N-[C] |==|  0.75598
USER: genes 16 Torsion [N]-C--CA-[N] |==|  0.74915
USER: genes 17 Torsion [C]-CA--CB-[CG] |==|  0.44256
USER: genes 18 Torsion [CA]-CB--CG-[CD] |==|  0.15973
USER: genes 19 Torsion [CB]-CG--CD-[OE1] |==|  0.78917
USER: genes 20 Torsion [C]-CA--CB-[CG] |==|  0.42144
USER: genes 21 Torsion [CA]-CB--CG-[OD1] |==|  0.54298
ROOT
ATOM      1  C   ASN C  17     -76.007-210.775  81.625  1.00 20.61 LIG 0.24  C 
ATOM      2 O    ASN C  17     -76.016-211.147  80.452  1.00 16.51 LIG-0.27  OA
ATOM      3  N   ASN C  18     -75.051-210.007  82.143  1.00 22.51 LIG-0.35  N 
ATOM      4 H    ASN C  18     -75.022-209.777  82.971  1.00 22.51 LIG 0.16  HD
ENDROOT
BRANCH 3 5
ATOM      5  CA  ASN C  18     -73.954-209.482  81.338  1.00 19.22 LIG 0.18  C 
BRANCH 5 6
ATOM      6  CB  ASN C  18     -73.259-210.623  80.587  1.00 16.89 LIG 0.14  C 
BRANCH 6 7
ATOM      7  CG  ASN C  18     -72.028-210.159  79.832  1.00 20.14 LIG 0.22  C 
ATOM      8  ND2 ASN C  18     -70.969-209.840  80.568  1.00 20.12 LIG-0.37  N 
ATOM      9 22HD ASN C  18     -71.002-209.913  81.424  1.00 20.12 LIG 0.16  HD
ATOM     10 21HD ASN C  18     -70.250-209.561  80.187  1.00 20.12 LIG 0.16  HD
ATOM     11 OD1  ASN C  18     -72.035-210.072  78.604  1.00 18.28 LIG-0.27  OA
ENDBRANCH 6 7
ENDBRANCH 5 6
BRANCH 5 12
ATOM     12  C   ASN C  18     -74.432-208.422  80.341  1.00 21.33 LIG 0.24  C 
ATOM     13  N   PRO C  19     -73.655-207.339  80.175  1.00 20.66 LIG-0.34  N 
ATOM     14  CD  PRO C  19     -72.464-206.957  80.954  1.00 23.11 LIG 0.13  C 
ATOM     15  CA  PRO C  19     -74.037-206.290  79.226  1.00 23.26 LIG 0.18  C 
ATOM     16  CG  PRO C  19     -72.090-205.604  80.393  1.00 22.87 LIG 0.02  C 
ATOM     17  CB  PRO C  19     -73.338-205.056  79.792  1.00 23.39 LIG 0.04  C 
ATOM     18 O    ASN C  18     -75.486-208.580  79.726  1.00 23.13 LIG-0.27  OA
BRANCH 15 19
ATOM     19  C   PRO C  19     -73.565-206.559  77.797  1.00 24.54 LIG 0.24  C 
ATOM     20  N   PHE C  20     -74.392-207.230  77.001  1.00 23.51 LIG-0.34  N 
ATOM     21 H    PHE C  20     -75.207-207.419  77.204  1.00 23.51 LIG 0.16  HD
ATOM     22 O    PRO C  19     -72.458-206.153  77.433  1.00 27.52 LIG-0.27  OA
BRANCH 20 23
ATOM     23  CA  PHE C  20     -73.969-207.712  75.687  1.00 27.49 LIG 0.19  C 
BRANCH 23 24
ATOM     24  CB  PHE C  20     -74.563-209.099  75.443  1.00 22.62 LIG 0.07  C 
BRANCH 24 25
ATOM     25  CG  PHE C  20     -73.686-210.208  75.940  1.00 18.80 LIG-0.06  A 
ATOM     26  CD1 PHE C  20     -74.223-211.229  76.700  1.00 16.53 LIG 0.01  A 
ATOM     27  CE1 PHE C  20     -73.435-212.264  77.148  1.00 18.06 LIG 0.00  A 
ATOM     28  CZ  PHE C  20     -72.087-212.297  76.832  1.00 17.30 LIG 0.00  A 
ATOM     29  CE2 PHE C  20     -71.539-211.290  76.068  1.00 18.45 LIG 0.00  A 
ATOM     30  CD2 PHE C  20     -72.339-210.252  75.620  1.00 20.64 LIG 0.01  A 
ENDBRANCH 24 25
ENDBRANCH 23 24
BRANCH 23 31
ATOM     31  C   PHE C  20     -74.351-206.757  74.559  1.00 41.21 LIG 0.20  C 
ATOM     32 OXT  PHE C  20     -75.419-206.146  74.571  1.00 46.78 LIG-0.65  OA
ATOM     33 O    PHE C  20     -73.588-206.563  73.608  1.00 43.65 LIG-0.65  OA
ENDBRANCH 23 31
ENDBRANCH 20 23
ENDBRANCH 15 19
ENDBRANCH 5 12
ENDBRANCH 3 5
BRANCH 1 34
ATOM     34  CA  ASN C  17     -77.137-211.172  82.566  1.00 16.90 LIG 0.18  C 
BRANCH 34 35
ATOM     35  N   ASN C  17     -77.014-210.392  83.788  1.00 20.58 LIG-0.35  N 
ATOM     36  C   VAL C  16     -76.803-210.980  84.961  1.00 27.16 LIG 0.24  C 
ATOM     37 O    VAL C  16     -76.895-212.196  85.122  1.00 29.43 LIG-0.27  OA
ATOM     38 H    ASN C  17     -77.090-209.542  83.679  1.00 20.58 LIG 0.16  HD
BRANCH 36 39
ATOM     39  CA  VAL C  16     -76.447-210.062  86.128  1.00 33.54 LIG 0.18  C 
BRANCH 39 40
ATOM     40  CB  VAL C  16     -75.187-210.605  86.843  1.00 32.44 LIG 0.01  C 
ATOM     41  CG2 VAL C  16     -74.634-209.560  87.813  1.00 34.10 LIG 0.01  C 
ATOM     42  CG1 VAL C  16     -74.122-211.053  85.832  1.00 32.37 LIG 0.01  C 
ENDBRANCH 39 40
BRANCH 39 43
ATOM     43  N   VAL C  16     -77.559-209.943  87.064  1.00 45.58 LIG-0.34  N 
ATOM     44  C   GLN C  15     -78.513-209.031  86.922  1.00 57.61 LIG 0.26  C 
ATOM     45 O    GLN C  15     -78.549-208.237  85.980  1.00 61.53 LIG-0.27  OA
ATOM     46 H    VAL C  16     -77.538-210.513  87.708  1.00 45.58 LIG 0.16  HD
BRANCH 44 47
ATOM     47  CA  GLN C  15     -79.589-209.019  88.005  1.00 63.44 LIG 0.40  C 
ATOM     48  N   GLN C  15     -80.697-209.896  87.641  1.00 62.08 LIG 0.61  N 
BRANCH 47 49
ATOM     49  CB  GLN C  15     -78.993-209.442  89.346  1.00 68.54 LIG 0.06  C 
BRANCH 49 50
ATOM     50  CG  GLN C  15     -79.815-208.998  90.551  1.00 72.89 LIG 0.10  C 
BRANCH 50 51
ATOM     51  CD  GLN C  15     -81.249-209.498  90.534  1.00 75.77 LIG 0.21  C 
ATOM     52 OE1  GLN C  15     -82.097-208.990  89.800  1.00 77.61 LIG-0.27  OA
ATOM     53  NE2 GLN C  15     -81.527-210.502  91.358  1.00 76.03 LIG-0.37  N 
ATOM     54 22HE GLN C  15     -82.324-210.822  91.392  1.00 76.03 LIG 0.16  HD
ATOM     55 21HE GLN C  15     -80.910-210.832  91.856  1.00 76.03 LIG 0.16  HD
ENDBRANCH 50 51
ENDBRANCH 49 50
ENDBRANCH 47 49
ENDBRANCH 44 47
ENDBRANCH 39 43
ENDBRANCH 36 39
ENDBRANCH 34 35
BRANCH 34 56
ATOM     56  CB  ASN C  17     -78.500-210.952  81.904  1.00 15.63 LIG 0.14  C 
BRANCH 56 57
ATOM     57  CG  ASN C  17     -79.565-211.896  82.428  1.00 17.63 LIG 0.22  C 
ATOM     58 OD1  ASN C  17     -80.627-212.054  81.822  1.00 24.00 LIG-0.27  OA
ATOM     59  ND2 ASN C  17     -79.293-212.521  83.567  1.00 16.48 LIG-0.37  N 
ATOM     60 21HD ASN C  17     -79.869-213.059  83.911  1.00 16.48 LIG 0.16  HD
ATOM     61 22HD ASN C  17     -78.541-212.386  83.962  1.00 16.48 LIG 0.16  HD
ENDBRANCH 56 57
ENDBRANCH 34 56
ENDBRANCH 1 34
TORSDOF 20
ENDMDL
MODEL 19
USER: ADFR SOLUTION from run 182
USER: SCORE 17.317386 LL:  -4.465 LR: -13.873 RR:   0.000 FEB:  -7.907
USER: RMSD 10.072919
USER: SEED 181
USER: STATUS no improvement in best in 6 clusters for 5 generations
USER: GENES 22
USER: genes 0 Translation |==|  0.65365 0.42418 0.39940
USER: genes 1 Rotation |==|  0.34986 0.96814 0.42335 0.54930
USER: genes 2 Torsion [C]-N--CA-[CB] |==|  0.53460
USER: genes 3 Torsion [N]-CA--CB-[CG] |==|  0.93863
USER: genes 4 Torsion [CA]-CB--CG-[OD1] |==|  0.16676
USER: genes 5 Torsion [N]-CA--C-[N] |==|  0.43755
USER: genes 6 Torsion [N]-CA--C-[O] |==|  0.02162
USER: genes 7 Torsion [C]-N--CA-[CB] |==|  0.15157
USER: genes 8 Torsion [N]-CA--CB-[CG] |==|  0.20931
USER: genes 9 Torsion [CA]-CB--CG-[CD1] |==|  0.75775
USER: genes 10 Torsion [N]-CA--C-[O] |==|  0.44975
USER: genes 11 Torsion [N]-C--CA-[N] |==|  0.02882
USER: genes 12 Torsion [C]-CA--N-[C] |==|  0.24351
USER: genes 13 Torsion [N]-C--CA-[N] |==|  0.06550
USER: genes 14 Torsion [C]-CA--CB-[CG2] |==|  0.22519
USER: genes 15 Torsion [C]-CA--N-[C] |==|  0.71232
USER: genes 16 Torsion [N]-C--CA-[N] |==|  0.79456
USER: genes 17 Torsion [C]-CA--CB-[CG] |==|  0.69616
USER: genes 18 Torsion [CA]-CB--CG-[CD] |==|  0.44707
USER: genes 19 Torsion [CB]-CG--CD-[OE1] |==|  0.74645
USER: genes 20 Torsion [C]-CA--CB-[CG] |==|  0.42618
USER: genes 21 Torsion [CA]-CB--CG-[OD1] |==|  0.31140
ROOT
ATOM      1  C   ASN C  17     -74.861-210.658  80.328  1.00 20.61 LIG 0.24  C 
ATOM      2 O    ASN C  17     -74.826-211.583  81.139  1.00 16.51 LIG-0.27  OA
ATOM      3  N   ASN C  18     -75.451-209.490  80.574  1.00 22.51 LIG-0.35  N 
ATOM      4 H    ASN C  18     -75.510-208.856  79.997  1.00 22.51 LIG 0.16  HD
ENDROOT
BRANCH 3 5
ATOM      5  CA  ASN C  18     -76.056-209.182  81.865  1.00 19.22 LIG 0.18  C 
BRANCH 5 6
ATOM      6  CB  ASN C  18     -76.913-207.917  81.757  1.00 16.89 LIG 0.14  C 
BRANCH 6 7
ATOM      7  CG  ASN C  18     -76.515-207.041  80.586  1.00 20.14 LIG 0.22  C 
ATOM      8  ND2 ASN C  18     -76.135-205.802  80.876  1.00 20.12 LIG-0.37  N 
ATOM      9 22HD ASN C  18     -76.114-205.539  81.695  1.00 20.12 LIG 0.16  HD
ATOM     10 21HD ASN C  18     -75.910-205.262  80.245  1.00 20.12 LIG 0.16  HD
ATOM     11 OD1  ASN C  18     -76.563-207.468  79.432  1.00 18.28 LIG-0.27  OA
ENDBRANCH 6 7
ENDBRANCH 5 6
BRANCH 5 12
ATOM     12  C   ASN C  18     -76.908-210.341  82.389  1.00 21.33 LIG 0.24  C 
ATOM     13  N   PRO C  19     -77.132-210.392  83.713  1.00 20.66 LIG-0.34  N 
ATOM     14  CD  PRO C  19     -76.523-209.555  84.762  1.00 23.11 LIG 0.13  C 
ATOM     15  CA  PRO C  19     -77.953-211.462  84.287  1.00 23.26 LIG 0.18  C 
ATOM     16  CG  PRO C  19     -77.060-210.145  86.046  1.00 22.87 LIG 0.02  C 
ATOM     17  CB  PRO C  19     -77.432-211.551  85.720  1.00 23.39 LIG 0.04  C 
ATOM     18 O    ASN C  18     -77.364-211.178  81.610  1.00 23.13 LIG-0.27  OA
BRANCH 15 19
ATOM     19  C   PRO C  19     -79.450-211.151  84.284  1.00 24.54 LIG 0.24  C 
ATOM     20  N   PHE C  20     -80.246-211.997  84.931  1.00 23.51 LIG-0.34  N 
ATOM     21 H    PHE C  20     -79.963-212.632  85.437  1.00 23.51 LIG 0.16  HD
ATOM     22 O    PRO C  19     -79.864-210.148  83.696  1.00 27.52 LIG-0.27  OA
BRANCH 20 23
ATOM     23  CA  PHE C  20     -81.702-211.908  84.829  1.00 27.49 LIG 0.19  C 
BRANCH 23 24
ATOM     24  CB  PHE C  20     -82.108-211.948  83.355  1.00 22.62 LIG 0.07  C 
BRANCH 24 25
ATOM     25  CG  PHE C  20     -82.013-213.319  82.758  1.00 18.80 LIG-0.06  A 
ATOM     26  CD1 PHE C  20     -80.822-213.759  82.216  1.00 16.53 LIG 0.01  A 
ATOM     27  CE1 PHE C  20     -80.713-215.022  81.681  1.00 18.06 LIG 0.00  A 
ATOM     28  CZ  PHE C  20     -81.805-215.874  81.688  1.00 17.30 LIG 0.00  A 
ATOM     29  CE2 PHE C  20     -82.998-215.452  82.233  1.00 18.45 LIG 0.00  A 
ATOM     30  CD2 PHE C  20     -83.098-214.180  82.770  1.00 20.64 LIG 0.01  A 
ENDBRANCH 24 25
ENDBRANCH 23 24
BRANCH 23 31
ATOM     31  C   PHE C  20     -82.415-213.007  85.613  1.00 41.21 LIG 0.20  C 
ATOM     32 OXT  PHE C  20     -81.822-214.021  85.979  1.00 46.78 LIG-0.65  OA
ATOM     33 O    PHE C  20     -83.608-212.899  85.911  1.00 43.65 LIG-0.65  OA
ENDBRANCH 23 31
ENDBRANCH 20 23
ENDBRANCH 15 19
ENDBRANCH 5 12
ENDBRANCH 3 5
BRANCH 1 34
ATOM     34  CA  ASN C  17     -74.194-210.802  78.967  1.00 16.90 LIG 0.18  C 
BRANCH 34 35
ATOM     35  N   ASN C  17     -74.156-209.494  78.332  1.00 20.58 LIG-0.35  N 
ATOM     36  C   VAL C  16     -73.147-208.655  78.544  1.00 27.16 LIG 0.24  C 
ATOM     37 O    VAL C  16     -72.303-208.837  79.421  1.00 29.43 LIG-0.27  OA
ATOM     38 H    ASN C  17     -74.828-209.323  77.823  1.00 20.58 LIG 0.16  HD
BRANCH 36 39
ATOM     39  CA  VAL C  16     -73.085-207.423  77.644  1.00 33.54 LIG 0.18  C 
BRANCH 39 40
ATOM     40  CB  VAL C  16     -72.514-206.229  78.446  1.00 32.44 LIG 0.01  C 
ATOM     41  CG2 VAL C  16     -70.988-206.307  78.502  1.00 34.10 LIG 0.01  C 
ATOM     42  CG1 VAL C  16     -73.125-206.160  79.853  1.00 32.37 LIG 0.01  C 
ENDBRANCH 39 40
BRANCH 39 43
ATOM     43  N   VAL C  16     -74.399-207.099  77.102  1.00 45.58 LIG-0.34  N 
ATOM     44  C   GLN C  15     -74.739-207.374  75.848  1.00 57.61 LIG 0.26  C 
ATOM     45 O    GLN C  15     -73.986-207.948  75.059  1.00 61.53 LIG-0.27  OA
ATOM     46 H    VAL C  16     -74.926-206.716  77.664  1.00 45.58 LIG 0.16  HD
BRANCH 44 47
ATOM     47  CA  GLN C  15     -76.141-206.942  75.428  1.00 63.44 LIG 0.40  C 
ATOM     48  N   GLN C  15     -77.149-207.818  76.015  1.00 62.08 LIG 0.61  N 
BRANCH 47 49
ATOM     49  CB  GLN C  15     -76.391-205.492  75.839  1.00 68.54 LIG 0.06  C 
BRANCH 49 50
ATOM     50  CG  GLN C  15     -77.390-205.342  76.982  1.00 72.89 LIG 0.10  C 
BRANCH 50 51
ATOM     51  CD  GLN C  15     -77.310-204.003  77.696  1.00 75.77 LIG 0.21  C 
ATOM     52 OE1  GLN C  15     -76.589-203.845  78.681  1.00 77.61 LIG-0.27  OA
ATOM     53  NE2 GLN C  15     -78.064-203.030  77.200  1.00 76.03 LIG-0.37  N 
ATOM     54 22HE GLN C  15     -78.060-202.253  77.567  1.00 76.03 LIG 0.16  HD
ATOM     55 21HE GLN C  15     -78.556-203.177  76.510  1.00 76.03 LIG 0.16  HD
ENDBRANCH 50 51
ENDBRANCH 49 50
ENDBRANCH 47 49
ENDBRANCH 44 47
ENDBRANCH 39 43
ENDBRANCH 36 39
ENDBRANCH 34 35
BRANCH 34 56
ATOM     56  CB  ASN C  17     -72.786-211.387  79.110  1.00 15.63 LIG 0.14  C 
BRANCH 56 57
ATOM     57  CG  ASN C  17     -72.333-212.133  77.870  1.00 17.63 LIG 0.22  C 
ATOM     58 OD1  ASN C  17     -71.416-211.700  77.168  1.00 24.00 LIG-0.27  OA
ATOM     59  ND2 ASN C  17     -72.983-213.254  77.583  1.00 16.48 LIG-0.37  N 
ATOM     60 21HD ASN C  17     -72.770-213.708  76.885  1.00 16.48 LIG 0.16  HD
ATOM     61 22HD ASN C  17     -73.618-213.526  78.096  1.00 16.48 LIG 0.16  HD
ENDBRANCH 56 57
ENDBRANCH 34 56
ENDBRANCH 1 34
TORSDOF 20
ENDMDL
MODEL 20
USER: ADFR SOLUTION from run 54
USER: SCORE 16.948719 LL:  -4.529 LR: -13.837 RR:   0.000 FEB:  -7.871
USER: RMSD 9.665654
USER: SEED 53
USER: STATUS no improvement in best in 7 clusters for 5 generations
USER: GENES 22
USER: genes 0 Translation |==|  0.64706 0.42184 0.38516
USER: genes 1 Rotation |==|  0.25683 0.91705 0.37055 0.51354
USER: genes 2 Torsion [C]-N--CA-[CB] |==|  0.48566
USER: genes 3 Torsion [N]-CA--CB-[CG] |==|  0.28342
USER: genes 4 Torsion [CA]-CB--CG-[OD1] |==|  0.78033
USER: genes 5 Torsion [N]-CA--C-[N] |==|  0.41304
USER: genes 6 Torsion [N]-CA--C-[O] |==|  0.94894
USER: genes 7 Torsion [C]-N--CA-[CB] |==|  0.20590
USER: genes 8 Torsion [N]-CA--CB-[CG] |==|  0.19453
USER: genes 9 Torsion [CA]-CB--CG-[CD1] |==|  0.28444
USER: genes 10 Torsion [N]-CA--C-[O] |==|  0.02519
USER: genes 11 Torsion [N]-C--CA-[N] |==|  0.04248
USER: genes 12 Torsion [C]-CA--N-[C] |==|  0.59744
USER: genes 13 Torsion [N]-C--CA-[N] |==|  0.87479
USER: genes 14 Torsion [C]-CA--CB-[CG2] |==|  0.54119
USER: genes 15 Torsion [C]-CA--N-[C] |==|  0.79669
USER: genes 16 Torsion [N]-C--CA-[N] |==|  0.94092
USER: genes 17 Torsion [C]-CA--CB-[CG] |==|  0.14755
USER: genes 18 Torsion [CA]-CB--CG-[CD] |==|  0.13530
USER: genes 19 Torsion [CB]-CG--CD-[OE1] |==|  0.09278
USER: genes 20 Torsion [C]-CA--CB-[CG] |==|  0.41919
USER: genes 21 Torsion [CA]-CB--CG-[OD1] |==|  0.37062
ROOT
ATOM      1  C   ASN C  17     -75.000-210.693  79.976  1.00 20.61 LIG 0.24  C 
ATOM      2 O    ASN C  17     -74.584-211.242  80.996  1.00 16.51 LIG-0.27  OA
ATOM      3  N   ASN C  18     -75.970-209.781  79.977  1.00 22.51 LIG-0.35  N 
ATOM      4 H    ASN C  18     -76.288-209.424  79.262  1.00 22.51 LIG 0.16  HD
ENDROOT
BRANCH 3 5
ATOM      5  CA  ASN C  18     -76.584-209.302  81.210  1.00 19.22 LIG 0.18  C 
BRANCH 5 6
ATOM      6  CB  ASN C  18     -77.571-208.171  80.903  1.00 16.89 LIG 0.14  C 
BRANCH 6 7
ATOM      7  CG  ASN C  18     -79.014-208.635  80.925  1.00 20.14 LIG 0.22  C 
ATOM      8  ND2 ASN C  18     -79.704-208.368  82.029  1.00 20.12 LIG-0.37  N 
ATOM      9 22HD ASN C  18     -79.330-207.944  82.677  1.00 20.12 LIG 0.16  HD
ATOM     10 21HD ASN C  18     -80.523-208.621  82.095  1.00 20.12 LIG 0.16  HD
ATOM     11 OD1  ASN C  18     -79.499-209.239  79.968  1.00 18.28 LIG-0.27  OA
ENDBRANCH 6 7
ENDBRANCH 5 6
BRANCH 5 12
ATOM     12  C   ASN C  18     -77.302-210.424  81.965  1.00 21.33 LIG 0.24  C 
ATOM     13  N   PRO C  19     -77.339-210.339  83.305  1.00 20.66 LIG-0.34  N 
ATOM     14  CD  PRO C  19     -76.630-209.375  84.166  1.00 23.11 LIG 0.13  C 
ATOM     15  CA  PRO C  19     -78.023-211.366  84.097  1.00 23.26 LIG 0.18  C 
ATOM     16  CG  PRO C  19     -76.958-209.840  85.567  1.00 22.87 LIG 0.02  C 
ATOM     17  CB  PRO C  19     -77.307-211.283  85.443  1.00 23.39 LIG 0.04  C 
ATOM     18 O    ASN C  18     -77.821-211.353  81.349  1.00 23.13 LIG-0.27  OA
BRANCH 15 19
ATOM     19  C   PRO C  19     -79.519-211.103  84.274  1.00 24.54 LIG 0.24  C 
ATOM     20  N   PHE C  20     -80.276-212.134  84.638  1.00 23.51 LIG-0.34  N 
ATOM     21 H    PHE C  20     -79.963-212.896  84.887  1.00 23.51 LIG 0.16  HD
ATOM     22 O    PRO C  19     -79.967-209.971  84.078  1.00 27.52 LIG-0.27  OA
BRANCH 20 23
ATOM     23  CA  PHE C  20     -81.735-212.047  84.646  1.00 27.49 LIG 0.19  C 
BRANCH 23 24
ATOM     24  CB  PHE C  20     -82.250-212.085  83.207  1.00 22.62 LIG 0.07  C 
BRANCH 24 25
ATOM     25  CG  PHE C  20     -82.082-213.426  82.559  1.00 18.80 LIG-0.06  A 
ATOM     26  CD1 PHE C  20     -83.163-214.275  82.429  1.00 16.53 LIG 0.01  A 
ATOM     27  CE1 PHE C  20     -83.029-215.501  81.820  1.00 18.06 LIG 0.00  A 
ATOM     28  CZ  PHE C  20     -81.800-215.896  81.320  1.00 17.30 LIG 0.00  A 
ATOM     29  CE2 PHE C  20     -80.713-215.057  81.435  1.00 18.45 LIG 0.00  A 
ATOM     30  CD2 PHE C  20     -80.857-213.824  82.048  1.00 20.64 LIG 0.01  A 
ENDBRANCH 24 25
ENDBRANCH 23 24
BRANCH 23 31
ATOM     31  C   PHE C  20     -82.386-213.148  85.479  1.00 41.21 LIG 0.20  C 
ATOM     32 OXT  PHE C  20     -83.602-213.337  85.455  1.00 46.78 LIG-0.65  OA
ATOM     33 O    PHE C  20     -81.703-213.889  86.193  1.00 43.65 LIG-0.65  OA
ENDBRANCH 23 31
ENDBRANCH 20 23
ENDBRANCH 15 19
ENDBRANCH 5 12
ENDBRANCH 3 5
BRANCH 1 34
ATOM     34  CA  ASN C  17     -74.392-211.028  78.620  1.00 16.90 LIG 0.18  C 
BRANCH 34 35
ATOM     35  N   ASN C  17     -74.780-209.994  77.673  1.00 20.58 LIG-0.35  N 
ATOM     36  C   VAL C  16     -75.023-210.285  76.399  1.00 27.16 LIG 0.24  C 
ATOM     37 O    VAL C  16     -74.750-211.377  75.901  1.00 29.43 LIG-0.27  OA
ATOM     38 H    ASN C  17     -74.834-209.203  78.008  1.00 20.58 LIG 0.16  HD
BRANCH 36 39
ATOM     39  CA  VAL C  16     -75.656-209.179  75.557  1.00 33.54 LIG 0.18  C 
BRANCH 39 40
ATOM     40  CB  VAL C  16     -74.573-208.145  75.170  1.00 32.44 LIG 0.01  C 
ATOM     41  CG2 VAL C  16     -75.224-206.861  74.653  1.00 34.10 LIG 0.01  C 
ATOM     42  CG1 VAL C  16     -73.588-208.725  74.145  1.00 32.37 LIG 0.01  C 
ENDBRANCH 39 40
BRANCH 39 43
ATOM     43  N   VAL C  16     -76.753-208.535  76.270  1.00 45.58 LIG-0.34  N 
ATOM     44  C   GLN C  15     -77.926-209.128  76.456  1.00 57.61 LIG 0.26  C 
ATOM     45 O    GLN C  15     -78.169-210.271  76.068  1.00 61.53 LIG-0.27  OA
ATOM     46 H    VAL C  16     -76.569-207.744  76.555  1.00 45.58 LIG 0.16  HD
BRANCH 44 47
ATOM     47  CA  GLN C  15     -78.978-208.305  77.196  1.00 63.44 LIG 0.40  C 
ATOM     48  N   GLN C  15     -78.349-207.247  77.978  1.00 62.08 LIG 0.61  N 
BRANCH 47 49
ATOM     49  CB  GLN C  15     -79.977-207.713  76.204  1.00 68.54 LIG 0.06  C 
BRANCH 49 50
ATOM     50  CG  GLN C  15     -80.605-208.746  75.274  1.00 72.89 LIG 0.10  C 
BRANCH 50 51
ATOM     51  CD  GLN C  15     -81.140-209.973  75.991  1.00 75.77 LIG 0.21  C 
ATOM     52 OE1  GLN C  15     -81.621-209.896  77.122  1.00 77.61 LIG-0.27  OA
ATOM     53  NE2 GLN C  15     -81.050-211.122  75.332  1.00 76.03 LIG-0.37  N 
ATOM     54 22HE GLN C  15     -81.334-211.848  75.692  1.00 76.03 LIG 0.16  HD
ATOM     55 21HE GLN C  15     -80.707-211.138  74.543  1.00 76.03 LIG 0.16  HD
ENDBRANCH 50 51
ENDBRANCH 49 50
ENDBRANCH 47 49
ENDBRANCH 44 47
ENDBRANCH 39 43
ENDBRANCH 36 39
ENDBRANCH 34 35
BRANCH 34 56
ATOM     56  CB  ASN C  17     -72.868-211.142  78.720  1.00 15.63 LIG 0.14  C 
BRANCH 56 57
ATOM     57  CG  ASN C  17     -72.285-212.103  77.701  1.00 17.63 LIG 0.22  C 
ATOM     58 OD1  ASN C  17     -71.298-211.793  77.029  1.00 24.00 LIG-0.27  OA
ATOM     59  ND2 ASN C  17     -72.902-213.271  77.568  1.00 16.48 LIG-0.37  N 
ATOM     60 21HD ASN C  17     -72.615-213.846  76.997  1.00 16.48 LIG 0.16  HD
ATOM     61 22HD ASN C  17     -73.588-213.452  78.054  1.00 16.48 LIG 0.16  HD
ENDBRANCH 56 57
ENDBRANCH 34 56
ENDBRANCH 1 34
TORSDOF 20
ENDMDL
MODEL 21
USER: ADFR SOLUTION from run 72
USER: SCORE 17.720300 LL:  -5.355 LR: -13.801 RR:   0.000 FEB:  -7.835
USER: RMSD 9.943395
USER: SEED 71
USER: STATUS no improvement in best in 13 clusters for 5 generations
USER: GENES 22
USER: genes 0 Translation |==|  0.71765 0.45777 0.38942
USER: genes 1 Rotation |==|  0.94492 0.30213 0.58698 0.57300
USER: genes 2 Torsion [C]-N--CA-[CB] |==|  0.22316
USER: genes 3 Torsion [N]-CA--CB-[CG] |==|  0.69228
USER: genes 4 Torsion [CA]-CB--CG-[OD1] |==|  0.56502
USER: genes 5 Torsion [N]-CA--C-[N] |==|  0.46967
USER: genes 6 Torsion [N]-CA--C-[O] |==|  0.98511
USER: genes 7 Torsion [C]-N--CA-[CB] |==|  0.16716
USER: genes 8 Torsion [N]-CA--CB-[CG] |==|  0.21507
USER: genes 9 Torsion [CA]-CB--CG-[CD1] |==|  0.76246
USER: genes 10 Torsion [N]-CA--C-[O] |==|  0.93441
USER: genes 11 Torsion [N]-C--CA-[N] |==|  0.26845
USER: genes 12 Torsion [C]-CA--N-[C] |==|  0.65340
USER: genes 13 Torsion [N]-C--CA-[N] |==|  0.89682
USER: genes 14 Torsion [C]-CA--CB-[CG2] |==|  0.45716
USER: genes 15 Torsion [C]-CA--N-[C] |==|  0.86088
USER: genes 16 Torsion [N]-C--CA-[N] |==|  0.47495
USER: genes 17 Torsion [C]-CA--CB-[CG] |==|  0.94318
USER: genes 18 Torsion [CA]-CB--CG-[CD] |==|  0.31665
USER: genes 19 Torsion [CB]-CG--CD-[OE1] |==|  0.89821
USER: genes 20 Torsion [C]-CA--CB-[CG] |==|  0.38772
USER: genes 21 Torsion [CA]-CB--CG-[OD1] |==|  0.35436
ROOT
ATOM      1  C   ASN C  17     -73.517-210.154  80.081  1.00 20.61 LIG 0.24  C 
ATOM      2 O    ASN C  17     -72.577-209.579  80.627  1.00 16.51 LIG-0.27  OA
ATOM      3  N   ASN C  18     -74.651-210.462  80.707  1.00 22.51 LIG-0.35  N 
ATOM      4 H    ASN C  18     -75.296-210.898  80.339  1.00 22.51 LIG 0.16  HD
ENDROOT
BRANCH 3 5
ATOM      5  CA  ASN C  18     -74.903-210.080  82.092  1.00 19.22 LIG 0.18  C 
BRANCH 5 6
ATOM      6  CB  ASN C  18     -75.351-208.617  82.163  1.00 16.89 LIG 0.14  C 
BRANCH 6 7
ATOM      7  CG  ASN C  18     -74.312-207.720  82.806  1.00 20.14 LIG 0.22  C 
ATOM      8  ND2 ASN C  18     -73.058-208.159  82.787  1.00 20.12 LIG-0.37  N 
ATOM      9 22HD ASN C  18     -72.871-208.910  82.414  1.00 20.12 LIG 0.16  HD
ATOM     10 21HD ASN C  18     -72.433-207.691  83.150  1.00 20.12 LIG 0.16  HD
ATOM     11 OD1  ASN C  18     -74.635-206.652  83.328  1.00 18.28 LIG-0.27  OA
ENDBRANCH 6 7
ENDBRANCH 5 6
BRANCH 5 12
ATOM     12  C   ASN C  18     -75.956-210.976  82.751  1.00 21.33 LIG 0.24  C 
ATOM     13  N   PRO C  19     -76.110-210.870  84.081  1.00 20.66 LIG-0.34  N 
ATOM     14  CD  PRO C  19     -75.275-210.108  85.026  1.00 23.11 LIG 0.13  C 
ATOM     15  CA  PRO C  19     -77.110-211.682  84.780  1.00 23.26 LIG 0.18  C 
ATOM     16  CG  PRO C  19     -75.853-210.460  86.377  1.00 22.87 LIG 0.02  C 
ATOM     17  CB  PRO C  19     -76.541-211.769  86.195  1.00 23.39 LIG 0.04  C 
ATOM     18 O    ASN C  18     -76.626-211.750  82.068  1.00 23.13 LIG-0.27  OA
BRANCH 15 19
ATOM     19  C   PRO C  19     -78.501-211.048  84.805  1.00 24.54 LIG 0.24  C 
ATOM     20  N   PHE C  20     -79.488-211.771  85.326  1.00 23.51 LIG-0.34  N 
ATOM     21 H    PHE C  20     -79.370-212.513  85.745  1.00 23.51 LIG 0.16  HD
ATOM     22 O    PRO C  19     -78.662-209.911  84.353  1.00 27.52 LIG-0.27  OA
BRANCH 20 23
ATOM     23  CA  PHE C  20     -80.884-211.348  85.224  1.00 27.49 LIG 0.19  C 
BRANCH 23 24
ATOM     24  CB  PHE C  20     -81.272-211.243  83.749  1.00 22.62 LIG 0.07  C 
BRANCH 24 25
ATOM     25  CG  PHE C  20     -81.535-212.574  83.116  1.00 18.80 LIG-0.06  A 
ATOM     26  CD1 PHE C  20     -80.491-213.314  82.595  1.00 16.53 LIG 0.01  A 
ATOM     27  CE1 PHE C  20     -80.713-214.547  82.027  1.00 18.06 LIG 0.00  A 
ATOM     28  CZ  PHE C  20     -81.996-215.067  81.978  1.00 17.30 LIG 0.00  A 
ATOM     29  CE2 PHE C  20     -83.047-214.345  82.500  1.00 18.45 LIG 0.00  A 
ATOM     30  CD2 PHE C  20     -82.814-213.105  83.071  1.00 20.64 LIG 0.01  A 
ENDBRANCH 24 25
ENDBRANCH 23 24
BRANCH 23 31
ATOM     31  C   PHE C  20     -81.837-212.281  85.966  1.00 41.21 LIG 0.20  C 
ATOM     32 OXT  PHE C  20     -82.943-211.898  86.347  1.00 46.78 LIG-0.65  OA
ATOM     33 O    PHE C  20     -81.526-213.454  86.193  1.00 43.65 LIG-0.65  OA
ENDBRANCH 23 31
ENDBRANCH 20 23
ENDBRANCH 15 19
ENDBRANCH 5 12
ENDBRANCH 3 5
BRANCH 1 34
ATOM     34  CA  ASN C  17     -73.435-210.538  78.610  1.00 16.90 LIG 0.18  C 
BRANCH 34 35
ATOM     35  N   ASN C  17     -73.785-209.374  77.810  1.00 20.58 LIG-0.35  N 
ATOM     36  C   VAL C  16     -74.759-209.429  76.907  1.00 27.16 LIG 0.24  C 
ATOM     37 O    VAL C  16     -75.280-210.485  76.552  1.00 29.43 LIG-0.27  OA
ATOM     38 H    ASN C  17     -73.315-208.672  77.973  1.00 20.58 LIG 0.16  HD
BRANCH 36 39
ATOM     39  CA  VAL C  16     -75.204-208.098  76.305  1.00 33.54 LIG 0.18  C 
BRANCH 39 40
ATOM     40  CB  VAL C  16     -74.287-207.742  75.110  1.00 32.44 LIG 0.01  C 
ATOM     41  CG2 VAL C  16     -74.923-206.640  74.262  1.00 34.10 LIG 0.01  C 
ATOM     42  CG1 VAL C  16     -73.963-208.983  74.267  1.00 32.37 LIG 0.01  C 
ENDBRANCH 39 40
BRANCH 39 43
ATOM     43  N   VAL C  16     -75.186-207.035  77.303  1.00 45.58 LIG-0.34  N 
ATOM     44  C   GLN C  15     -75.764-207.165  78.491  1.00 57.61 LIG 0.26  C 
ATOM     45 O    GLN C  15     -76.332-208.197  78.852  1.00 61.53 LIG-0.27  OA
ATOM     46 H    VAL C  16     -74.771-206.325  77.051  1.00 45.58 LIG 0.16  HD
BRANCH 44 47
ATOM     47  CA  GLN C  15     -75.681-205.948  79.408  1.00 63.44 LIG 0.40  C 
ATOM     48  N   GLN C  15     -76.524-206.130  80.585  1.00 62.08 LIG 0.61  N 
BRANCH 47 49
ATOM     49  CB  GLN C  15     -74.233-205.698  79.824  1.00 68.54 LIG 0.06  C 
BRANCH 49 50
ATOM     50  CG  GLN C  15     -73.332-206.919  79.672  1.00 72.89 LIG 0.10  C 
BRANCH 50 51
ATOM     51  CD  GLN C  15     -72.251-206.759  78.617  1.00 75.77 LIG 0.21  C 
ATOM     52 OE1  GLN C  15     -72.463-206.146  77.571  1.00 77.61 LIG-0.27  OA
ATOM     53  NE2 GLN C  15     -71.080-207.320  78.890  1.00 76.03 LIG-0.37  N 
ATOM     54 22HE GLN C  15     -70.434-207.263  78.326  1.00 76.03 LIG 0.16  HD
ATOM     55 21HE GLN C  15     -70.967-207.741  79.632  1.00 76.03 LIG 0.16  HD
ENDBRANCH 50 51
ENDBRANCH 49 50
ENDBRANCH 47 49
ENDBRANCH 44 47
ENDBRANCH 39 43
ENDBRANCH 36 39
ENDBRANCH 34 35
BRANCH 34 56
ATOM     56  CB  ASN C  17     -72.035-211.049  78.258  1.00 15.63 LIG 0.14  C 
BRANCH 56 57
ATOM     57  CG  ASN C  17     -72.065-212.242  77.322  1.00 17.63 LIG 0.22  C 
ATOM     58 OD1  ASN C  17     -71.410-212.245  76.277  1.00 24.00 LIG-0.27  OA
ATOM     59  ND2 ASN C  17     -72.838-213.258  77.683  1.00 16.48 LIG-0.37  N 
ATOM     60 21HD ASN C  17     -72.897-213.954  77.181  1.00 16.48 LIG 0.16  HD
ATOM     61 22HD ASN C  17     -73.281-213.221  78.419  1.00 16.48 LIG 0.16  HD
ENDBRANCH 56 57
ENDBRANCH 34 56
ENDBRANCH 1 34
TORSDOF 20
ENDMDL
MODEL 22
USER: ADFR SOLUTION from run 186
USER: SCORE 17.210684 LL:  -5.299 LR: -13.790 RR:   0.000 FEB:  -7.824
USER: RMSD 5.304260
USER: SEED 185
USER: STATUS no improvement in best in 9 clusters for 5 generations
USER: GENES 22
USER: genes 0 Translation |==|  0.59843 0.59521 0.40390
USER: genes 1 Rotation |==|  0.90658 0.56702 0.32813 0.72508
USER: genes 2 Torsion [C]-N--CA-[CB] |==|  0.51111
USER: genes 3 Torsion [N]-CA--CB-[CG] |==|  0.38982
USER: genes 4 Torsion [CA]-CB--CG-[OD1] |==|  0.71077
USER: genes 5 Torsion [N]-CA--C-[N] |==|  0.88439
USER: genes 6 Torsion [N]-CA--C-[O] |==|  0.36680
USER: genes 7 Torsion [C]-N--CA-[CB] |==|  0.42293
USER: genes 8 Torsion [N]-CA--CB-[CG] |==|  0.90225
USER: genes 9 Torsion [CA]-CB--CG-[CD1] |==|  0.84668
USER: genes 10 Torsion [N]-CA--C-[O] |==|  0.39931
USER: genes 11 Torsion [N]-C--CA-[N] |==|  0.11969
USER: genes 12 Torsion [C]-CA--N-[C] |==|  0.72933
USER: genes 13 Torsion [N]-C--CA-[N] |==|  0.29133
USER: genes 14 Torsion [C]-CA--CB-[CG2] |==|  0.52820
USER: genes 15 Torsion [C]-CA--N-[C] |==|  0.77716
USER: genes 16 Torsion [N]-C--CA-[N] |==|  0.38230
USER: genes 17 Torsion [C]-CA--CB-[CG] |==|  0.64814
USER: genes 18 Torsion [CA]-CB--CG-[CD] |==|  0.70766
USER: genes 19 Torsion [CB]-CG--CD-[OE1] |==|  0.95624
USER: genes 20 Torsion [C]-CA--CB-[CG] |==|  0.26706
USER: genes 21 Torsion [CA]-CB--CG-[OD1] |==|  0.06364
ROOT
ATOM      1  C   ASN C  17     -76.021-208.093  80.439  1.00 20.61 LIG 0.24  C 
ATOM      2 O    ASN C  17     -75.997-207.125  79.680  1.00 16.51 LIG-0.27  OA
ATOM      3  N   ASN C  18     -75.312-208.159  81.565  1.00 22.51 LIG-0.35  N 
ATOM      4 H    ASN C  18     -75.297-208.849  82.078  1.00 22.51 LIG 0.16  HD
ENDROOT
BRANCH 3 5
ATOM      5  CA  ASN C  18     -74.488-207.050  82.030  1.00 19.22 LIG 0.18  C 
BRANCH 5 6
ATOM      6  CB  ASN C  18     -73.720-207.457  83.292  1.00 16.89 LIG 0.14  C 
BRANCH 6 7
ATOM      7  CG  ASN C  18     -72.300-206.925  83.307  1.00 20.14 LIG 0.22  C 
ATOM      8  ND2 ASN C  18     -72.157-205.630  83.569  1.00 20.12 LIG-0.37  N 
ATOM      9 22HD ASN C  18     -72.848-205.145  83.729  1.00 20.12 LIG 0.16  HD
ATOM     10 21HD ASN C  18     -71.372-205.278  83.578  1.00 20.12 LIG 0.16  HD
ATOM     11 OD1  ASN C  18     -71.345-207.665  83.071  1.00 18.28 LIG-0.27  OA
ENDBRANCH 6 7
ENDBRANCH 5 6
BRANCH 5 12
ATOM     12  C   ASN C  18     -73.504-206.578  80.956  1.00 21.33 LIG 0.24  C 
ATOM     13  N   PRO C  19     -72.881-207.523  80.233  1.00 20.66 LIG-0.34  N 
ATOM     14  CD  PRO C  19     -72.902-208.981  80.449  1.00 23.11 LIG 0.13  C 
ATOM     15  CA  PRO C  19     -71.939-207.149  79.175  1.00 23.26 LIG 0.18  C 
ATOM     16  CG  PRO C  19     -71.936-209.508  79.413  1.00 22.87 LIG 0.02  C 
ATOM     17  CB  PRO C  19     -71.028-208.372  79.090  1.00 23.39 LIG 0.04  C 
ATOM     18 O    ASN C  18     -73.311-205.376  80.777  1.00 23.13 LIG-0.27  OA
BRANCH 15 19
ATOM     19  C   PRO C  19     -72.608-206.890  77.825  1.00 24.54 LIG 0.24  C 
ATOM     20  N   PHE C  20     -73.483-207.797  77.399  1.00 23.51 LIG-0.34  N 
ATOM     21 H    PHE C  20     -73.774-208.448  77.880  1.00 23.51 LIG 0.16  HD
ATOM     22 O    PRO C  19     -72.325-205.872  77.188  1.00 27.52 LIG-0.27  OA
BRANCH 20 23
ATOM     23  CA  PHE C  20     -74.033-207.753  76.044  1.00 27.49 LIG 0.19  C 
BRANCH 23 24
ATOM     24  CB  PHE C  20     -74.408-209.169  75.606  1.00 22.62 LIG 0.07  C 
BRANCH 24 25
ATOM     25  CG  PHE C  20     -73.471-210.213  76.132  1.00 18.80 LIG-0.06  A 
ATOM     26  CD1 PHE C  20     -72.114-210.114  75.891  1.00 16.53 LIG 0.01  A 
ATOM     27  CE1 PHE C  20     -71.239-211.054  76.383  1.00 18.06 LIG 0.00  A 
ATOM     28  CZ  PHE C  20     -71.712-212.114  77.138  1.00 17.30 LIG 0.00  A 
ATOM     29  CE2 PHE C  20     -73.061-212.222  77.395  1.00 18.45 LIG 0.00  A 
ATOM     30  CD2 PHE C  20     -73.936-211.271  76.897  1.00 20.64 LIG 0.01  A 
ENDBRANCH 24 25
ENDBRANCH 23 24
BRANCH 23 31
ATOM     31  C   PHE C  20     -75.233-206.817  75.926  1.00 41.21 LIG 0.20  C 
ATOM     32 OXT  PHE C  20     -76.044-206.697  76.843  1.00 46.78 LIG-0.65  OA
ATOM     33 O    PHE C  20     -75.414-206.146  74.906  1.00 43.65 LIG-0.65  OA
ENDBRANCH 23 31
ENDBRANCH 20 23
ENDBRANCH 15 19
ENDBRANCH 5 12
ENDBRANCH 3 5
BRANCH 1 34
ATOM     34  CA  ASN C  17     -76.906-209.293  80.129  1.00 16.90 LIG 0.18  C 
BRANCH 34 35
ATOM     35  N   ASN C  17     -77.575-209.701  81.355  1.00 20.58 LIG-0.35  N 
ATOM     36  C   VAL C  16     -77.101-210.697  82.097  1.00 27.16 LIG 0.24  C 
ATOM     37 O    VAL C  16     -76.209-211.451  81.710  1.00 29.43 LIG-0.27  OA
ATOM     38 H    ASN C  17     -78.283-209.251  81.544  1.00 20.58 LIG 0.16  HD
BRANCH 36 39
ATOM     39  CA  VAL C  16     -77.733-210.879  83.476  1.00 33.54 LIG 0.18  C 
BRANCH 39 40
ATOM     40  CB  VAL C  16     -76.617-211.043  84.535  1.00 32.44 LIG 0.01  C 
ATOM     41  CG2 VAL C  16     -77.214-211.475  85.874  1.00 34.10 LIG 0.01  C 
ATOM     42  CG1 VAL C  16     -75.790-209.757  84.677  1.00 32.37 LIG 0.01  C 
ENDBRANCH 39 40
BRANCH 39 43
ATOM     43  N   VAL C  16     -78.635-212.024  83.496  1.00 45.58 LIG-0.34  N 
ATOM     44  C   GLN C  15     -79.874-211.962  83.024  1.00 57.61 LIG 0.26  C 
ATOM     45 O    GLN C  15     -80.347-210.947  82.510  1.00 61.53 LIG-0.27  OA
ATOM     46 H    VAL C  16     -78.292-212.735  83.838  1.00 45.58 LIG 0.16  HD
BRANCH 44 47
ATOM     47  CA  GLN C  15     -80.699-213.241  83.148  1.00 63.44 LIG 0.40  C 
ATOM     48  N   GLN C  15     -82.059-212.938  83.577  1.00 62.08 LIG 0.61  N 
BRANCH 47 49
ATOM     49  CB  GLN C  15     -80.714-213.989  81.817  1.00 68.54 LIG 0.06  C 
BRANCH 49 50
ATOM     50  CG  GLN C  15     -82.116-214.321  81.316  1.00 72.89 LIG 0.10  C 
BRANCH 50 51
ATOM     51  CD  GLN C  15     -82.495-215.783  81.475  1.00 75.77 LIG 0.21  C 
ATOM     52 OE1  GLN C  15     -81.644-216.646  81.693  1.00 77.61 LIG-0.27  OA
ATOM     53  NE2 GLN C  15     -83.786-216.068  81.358  1.00 76.03 LIG-0.37  N 
ATOM     54 22HE GLN C  15     -84.056-216.881  81.435  1.00 76.03 LIG 0.16  HD
ATOM     55 21HE GLN C  15     -84.353-215.440  81.205  1.00 76.03 LIG 0.16  HD
ENDBRANCH 50 51
ENDBRANCH 49 50
ENDBRANCH 47 49
ENDBRANCH 44 47
ENDBRANCH 39 43
ENDBRANCH 36 39
ENDBRANCH 34 35
BRANCH 34 56
ATOM     56  CB  ASN C  17     -77.920-208.952  79.033  1.00 15.63 LIG 0.14  C 
BRANCH 56 57
ATOM     57  CG  ASN C  17     -77.457-209.378  77.654  1.00 17.63 LIG 0.22  C 
ATOM     58 OD1  ASN C  17     -76.620-210.272  77.513  1.00 24.00 LIG-0.27  OA
ATOM     59  ND2 ASN C  17     -77.989-208.730  76.624  1.00 16.48 LIG-0.37  N 
ATOM     60 21HD ASN C  17     -77.752-208.928  75.822  1.00 16.48 LIG 0.16  HD
ATOM     61 22HD ASN C  17     -78.571-208.111  76.760  1.00 16.48 LIG 0.16  HD
ENDBRANCH 56 57
ENDBRANCH 34 56
ENDBRANCH 1 34
TORSDOF 20
ENDMDL
MODEL 23
USER: ADFR SOLUTION from run 97
USER: SCORE 18.239012 LL:  -6.010 LR: -13.786 RR:   0.000 FEB:  -7.820
USER: RMSD 5.014148
USER: SEED 96
USER: STATUS no improvement in best in 13 clusters for 5 generations
USER: GENES 22
USER: genes 0 Translation |==|  0.61182 0.39942 0.50572
USER: genes 1 Rotation |==|  0.52946 0.63904 0.26623 0.91851
USER: genes 2 Torsion [C]-N--CA-[CB] |==|  0.16378
USER: genes 3 Torsion [N]-CA--CB-[CG] |==|  0.13463
USER: genes 4 Torsion [CA]-CB--CG-[OD1] |==|  0.72884
USER: genes 5 Torsion [N]-CA--C-[N] |==|  0.22093
USER: genes 6 Torsion [N]-CA--C-[O] |==|  0.48477
USER: genes 7 Torsion [C]-N--CA-[CB] |==|  0.39779
USER: genes 8 Torsion [N]-CA--CB-[CG] |==|  0.89329
USER: genes 9 Torsion [CA]-CB--CG-[CD1] |==|  0.81214
USER: genes 10 Torsion [N]-CA--C-[O] |==|  0.90321
USER: genes 11 Torsion [N]-C--CA-[N] |==|  0.06877
USER: genes 12 Torsion [C]-CA--N-[C] |==|  0.62854
USER: genes 13 Torsion [N]-C--CA-[N] |==|  0.13421
USER: genes 14 Torsion [C]-CA--CB-[CG2] |==|  0.60607
USER: genes 15 Torsion [C]-CA--N-[C] |==|  0.77150
USER: genes 16 Torsion [N]-C--CA-[N] |==|  0.62377
USER: genes 17 Torsion [C]-CA--CB-[CG] |==|  0.77591
USER: genes 18 Torsion [CA]-CB--CG-[CD] |==|  0.32613
USER: genes 19 Torsion [CB]-CG--CD-[OE1] |==|  0.06955
USER: genes 20 Torsion [C]-CA--CB-[CG] |==|  0.82208
USER: genes 21 Torsion [CA]-CB--CG-[OD1] |==|  0.84689
ROOT
ATOM      1  C   ASN C  17     -75.740-211.030  82.960  1.00 20.61 LIG 0.24  C 
ATOM      2 O    ASN C  17     -76.605-211.735  82.442  1.00 16.51 LIG-0.27  OA
ATOM      3  N   ASN C  18     -75.187-209.982  82.351  1.00 22.51 LIG-0.35  N 
ATOM      4 H    ASN C  18     -74.555-209.510  82.695  1.00 22.51 LIG 0.16  HD
ENDROOT
BRANCH 3 5
ATOM      5  CA  ASN C  18     -75.613-209.539  81.028  1.00 19.22 LIG 0.18  C 
BRANCH 5 6
ATOM      6  CB  ASN C  18     -77.103-209.183  81.046  1.00 16.89 LIG 0.14  C 
BRANCH 6 7
ATOM      7  CG  ASN C  18     -77.474-208.282  82.207  1.00 20.14 LIG 0.22  C 
ATOM      8  ND2 ASN C  18     -77.234-206.985  82.049  1.00 20.12 LIG-0.37  N 
ATOM      9 22HD ASN C  18     -76.895-206.697  81.313  1.00 20.12 LIG 0.16  HD
ATOM     10 21HD ASN C  18     -77.416-206.434  82.684  1.00 20.12 LIG 0.16  HD
ATOM     11 OD1  ASN C  18     -77.955-208.748  83.241  1.00 18.28 LIG-0.27  OA
ENDBRANCH 6 7
ENDBRANCH 5 6
BRANCH 5 12
ATOM     12  C   ASN C  18     -74.800-208.336  80.539  1.00 21.33 LIG 0.24  C 
ATOM     13  N   PRO C  19     -73.581-208.583  80.032  1.00 20.66 LIG-0.34  N 
ATOM     14  CD  PRO C  19     -72.847-209.861  80.031  1.00 23.11 LIG 0.13  C 
ATOM     15  CA  PRO C  19     -72.750-207.485  79.528  1.00 23.26 LIG 0.18  C 
ATOM     16  CG  PRO C  19     -71.504-209.501  79.440  1.00 22.87 LIG 0.02  C 
ATOM     17  CB  PRO C  19     -71.335-208.039  79.679  1.00 23.39 LIG 0.04  C 
ATOM     18 O    ASN C  18     -75.267-207.200  80.613  1.00 23.13 LIG-0.27  OA
BRANCH 15 19
ATOM     19  C   PRO C  19     -73.029-207.131  78.067  1.00 24.54 LIG 0.24  C 
ATOM     20  N   PHE C  20     -73.884-207.908  77.407  1.00 23.51 LIG-0.34  N 
ATOM     21 H    PHE C  20     -74.366-208.516  77.779  1.00 23.51 LIG 0.16  HD
ATOM     22 O    PRO C  19     -72.467-206.159  77.556  1.00 27.52 LIG-0.27  OA
BRANCH 20 23
ATOM     23  CA  PHE C  20     -74.074-207.784  75.963  1.00 27.49 LIG 0.19  C 
BRANCH 23 24
ATOM     24  CB  PHE C  20     -74.291-209.172  75.361  1.00 22.62 LIG 0.07  C 
BRANCH 24 25
ATOM     25  CG  PHE C  20     -73.434-210.226  75.994  1.00 18.80 LIG-0.06  A 
ATOM     26  CD1 PHE C  20     -72.064-210.203  75.821  1.00 16.53 LIG 0.01  A 
ATOM     27  CE1 PHE C  20     -71.262-211.152  76.411  1.00 18.06 LIG 0.00  A 
ATOM     28  CZ  PHE C  20     -71.825-212.144  77.198  1.00 17.30 LIG 0.00  A 
ATOM     29  CE2 PHE C  20     -73.189-212.175  77.387  1.00 18.45 LIG 0.00  A 
ATOM     30  CD2 PHE C  20     -73.989-211.215  76.790  1.00 20.64 LIG 0.01  A 
ENDBRANCH 24 25
ENDBRANCH 23 24
BRANCH 23 31
ATOM     31  C   PHE C  20     -75.228-206.853  75.599  1.00 41.21 LIG 0.20  C 
ATOM     32 OXT  PHE C  20     -75.189-206.146  74.593  1.00 46.78 LIG-0.65  OA
ATOM     33 O    PHE C  20     -76.241-206.797  76.303  1.00 43.65 LIG-0.65  OA
ENDBRANCH 23 31
ENDBRANCH 20 23
ENDBRANCH 15 19
ENDBRANCH 5 12
ENDBRANCH 3 5
BRANCH 1 34
ATOM     34  CA  ASN C  17     -75.257-211.318  84.375  1.00 16.90 LIG 0.18  C 
BRANCH 34 35
ATOM     35  N   ASN C  17     -74.750-210.082  84.950  1.00 20.58 LIG-0.35  N 
ATOM     36  C   VAL C  16     -73.589-210.050  85.597  1.00 27.16 LIG 0.24  C 
ATOM     37 O    VAL C  16     -72.979-211.068  85.922  1.00 29.43 LIG-0.27  OA
ATOM     38 H    ASN C  17     -75.258-209.397  84.833  1.00 20.58 LIG 0.16  HD
BRANCH 36 39
ATOM     39  CA  VAL C  16     -73.040-208.668  85.942  1.00 33.54 LIG 0.18  C 
BRANCH 39 40
ATOM     40  CB  VAL C  16     -71.820-208.820  86.882  1.00 32.44 LIG 0.01  C 
ATOM     41  CG2 VAL C  16     -71.821-207.713  87.937  1.00 34.10 LIG 0.01  C 
ATOM     42  CG1 VAL C  16     -70.505-208.839  86.090  1.00 32.37 LIG 0.01  C 
ENDBRANCH 39 40
BRANCH 39 43
ATOM     43  N   VAL C  16     -74.063-207.831  86.557  1.00 45.58 LIG-0.34  N 
ATOM     44  C   GLN C  15     -74.963-207.166  85.842  1.00 57.61 LIG 0.26  C 
ATOM     45 O    GLN C  15     -75.021-207.226  84.613  1.00 61.53 LIG-0.27  OA
ATOM     46 H    VAL C  16     -74.029-207.809  87.417  1.00 45.58 LIG 0.16  HD
BRANCH 44 47
ATOM     47  CA  GLN C  15     -75.946-206.311  86.638  1.00 63.44 LIG 0.40  C 
ATOM     48  N   GLN C  15     -77.305-206.490  86.140  1.00 62.08 LIG 0.61  N 
BRANCH 47 49
ATOM     49  CB  GLN C  15     -75.871-206.665  88.122  1.00 68.54 LIG 0.06  C 
BRANCH 49 50
ATOM     50  CG  GLN C  15     -76.657-207.917  88.495  1.00 72.89 LIG 0.10  C 
BRANCH 50 51
ATOM     51  CD  GLN C  15     -75.797-209.044  89.040  1.00 75.77 LIG 0.21  C 
ATOM     52 OE1  GLN C  15     -74.713-208.819  89.579  1.00 77.61 LIG-0.27  OA
ATOM     53  NE2 GLN C  15     -76.279-210.272  88.893  1.00 76.03 LIG-0.37  N 
ATOM     54 22HE GLN C  15     -75.832-210.947  89.180  1.00 76.03 LIG 0.16  HD
ATOM     55 21HE GLN C  15     -77.041-210.391  88.511  1.00 76.03 LIG 0.16  HD
ENDBRANCH 50 51
ENDBRANCH 49 50
ENDBRANCH 47 49
ENDBRANCH 44 47
ENDBRANCH 39 43
ENDBRANCH 36 39
ENDBRANCH 34 35
BRANCH 34 56
ATOM     56  CB  ASN C  17     -76.387-211.901  85.228  1.00 15.63 LIG 0.14  C 
BRANCH 56 57
ATOM     57  CG  ASN C  17     -77.533-210.927  85.426  1.00 17.63 LIG 0.22  C 
ATOM     58 OD1  ASN C  17     -77.337-209.803  85.892  1.00 24.00 LIG-0.27  OA
ATOM     59  ND2 ASN C  17     -78.742-211.359  85.085  1.00 16.48 LIG-0.37  N 
ATOM     60 21HD ASN C  17     -79.425-210.847  85.188  1.00 16.48 LIG 0.16  HD
ATOM     61 22HD ASN C  17     -78.841-212.150  84.763  1.00 16.48 LIG 0.16  HD
ENDBRANCH 56 57
ENDBRANCH 34 56
ENDBRANCH 1 34
TORSDOF 20
ENDMDL
MODEL 24
USER: ADFR SOLUTION from run 64
USER: SCORE 17.408450 LL:  -4.991 LR: -13.787 RR:   0.000 FEB:  -7.821
USER: RMSD 10.312577
USER: SEED 63
USER: STATUS searching
USER: GENES 22
USER: genes 0 Translation |==|  0.61975 0.46909 0.40246
USER: genes 1 Rotation |==|  0.83888 0.67535 0.74917 0.70574
USER: genes 2 Torsion [C]-N--CA-[CB] |==|  0.15006
USER: genes 3 Torsion [N]-CA--CB-[CG] |==|  0.47356
USER: genes 4 Torsion [CA]-CB--CG-[OD1] |==|  0.73486
USER: genes 5 Torsion [N]-CA--C-[N] |==|  0.31011
USER: genes 6 Torsion [N]-CA--C-[O] |==|  0.79505
USER: genes 7 Torsion [C]-N--CA-[CB] |==|  0.27641
USER: genes 8 Torsion [N]-CA--CB-[CG] |==|  0.19846
USER: genes 9 Torsion [CA]-CB--CG-[CD1] |==|  0.28605
USER: genes 10 Torsion [N]-CA--C-[O] |==|  0.48982
USER: genes 11 Torsion [N]-C--CA-[N] |==|  0.43552
USER: genes 12 Torsion [C]-CA--N-[C] |==|  0.61959
USER: genes 13 Torsion [N]-C--CA-[N] |==|  0.92618
USER: genes 14 Torsion [C]-CA--CB-[CG2] |==|  0.18989
USER: genes 15 Torsion [C]-CA--N-[C] |==|  0.82032
USER: genes 16 Torsion [N]-C--CA-[N] |==|  0.48068
USER: genes 17 Torsion [C]-CA--CB-[CG] |==|  0.33884
USER: genes 18 Torsion [CA]-CB--CG-[CD] |==|  0.82970
USER: genes 19 Torsion [CB]-CG--CD-[OE1] |==|  0.78146
USER: genes 20 Torsion [C]-CA--CB-[CG] |==|  0.71331
USER: genes 21 Torsion [CA]-CB--CG-[OD1] |==|  0.15655
ROOT
ATOM      1  C   ASN C  17     -75.573-209.985  80.404  1.00 20.61 LIG 0.24  C 
ATOM      2 O    ASN C  17     -76.042-209.058  79.744  1.00 16.51 LIG-0.27  OA
ATOM      3  N   ASN C  18     -76.197-210.532  81.444  1.00 22.51 LIG-0.35  N 
ATOM      4 H    ASN C  18     -75.857-211.155  81.931  1.00 22.51 LIG 0.16  HD
ENDROOT
BRANCH 3 5
ATOM      5  CA  ASN C  18     -77.534-210.118  81.855  1.00 19.22 LIG 0.18  C 
BRANCH 5 6
ATOM      6  CB  ASN C  18     -78.502-210.210  80.671  1.00 16.89 LIG 0.14  C 
BRANCH 6 7
ATOM      7  CG  ASN C  18     -79.948-210.015  81.082  1.00 20.14 LIG 0.22  C 
ATOM      8  ND2 ASN C  18     -80.368-208.759  81.190  1.00 20.12 LIG-0.37  N 
ATOM      9 22HD ASN C  18     -79.831-208.110  81.019  1.00 20.12 LIG 0.16  HD
ATOM     10 21HD ASN C  18     -81.177-208.596  81.432  1.00 20.12 LIG 0.16  HD
ATOM     11 OD1  ASN C  18     -80.674-210.982  81.317  1.00 18.28 LIG-0.27  OA
ENDBRANCH 6 7
ENDBRANCH 5 6
BRANCH 5 12
ATOM     12  C   ASN C  18     -78.062-210.960  83.020  1.00 21.33 LIG 0.24  C 
ATOM     13  N   PRO C  19     -78.204-210.348  84.207  1.00 20.66 LIG-0.34  N 
ATOM     14  CD  PRO C  19     -77.762-208.992  84.580  1.00 23.11 LIG 0.13  C 
ATOM     15  CA  PRO C  19     -78.720-211.083  85.366  1.00 23.26 LIG 0.18  C 
ATOM     16  CG  PRO C  19     -78.083-208.905  86.055  1.00 22.87 LIG 0.02  C 
ATOM     17  CB  PRO C  19     -78.126-210.312  86.543  1.00 23.39 LIG 0.04  C 
ATOM     18 O    ASN C  18     -78.342-212.146  82.852  1.00 23.13 LIG-0.27  OA
BRANCH 15 19
ATOM     19  C   PRO C  19     -80.246-211.092  85.452  1.00 24.54 LIG 0.24  C 
ATOM     20  N   PHE C  20     -80.864-212.230  85.146  1.00 23.51 LIG-0.34  N 
ATOM     21 H    PHE C  20     -80.458-212.977  85.016  1.00 23.51 LIG 0.16  HD
ATOM     22 O    PRO C  19     -80.845-210.069  85.796  1.00 27.52 LIG-0.27  OA
BRANCH 20 23
ATOM     23  CA  PHE C  20     -82.318-212.297  85.004  1.00 27.49 LIG 0.19  C 
BRANCH 23 24
ATOM     24  CB  PHE C  20     -82.682-212.247  83.521  1.00 22.62 LIG 0.07  C 
BRANCH 24 25
ATOM     25  CG  PHE C  20     -82.330-213.504  82.787  1.00 18.80 LIG-0.06  A 
ATOM     26  CD1 PHE C  20     -83.314-214.418  82.464  1.00 16.53 LIG 0.01  A 
ATOM     27  CE1 PHE C  20     -83.010-215.569  81.773  1.00 18.06 LIG 0.00  A 
ATOM     28  CZ  PHE C  20     -81.704-215.820  81.386  1.00 17.30 LIG 0.00  A 
ATOM     29  CE2 PHE C  20     -80.713-214.915  81.694  1.00 18.45 LIG 0.00  A 
ATOM     30  CD2 PHE C  20     -81.028-213.759  82.388  1.00 20.64 LIG 0.01  A 
ENDBRANCH 24 25
ENDBRANCH 23 24
BRANCH 23 31
ATOM     31  C   PHE C  20     -82.916-213.538  85.664  1.00 41.21 LIG 0.20  C 
ATOM     32 OXT  PHE C  20     -82.203-214.389  86.193  1.00 46.78 LIG-0.65  OA
ATOM     33 O    PHE C  20     -84.138-213.711  85.693  1.00 43.65 LIG-0.65  OA
ENDBRANCH 23 31
ENDBRANCH 20 23
ENDBRANCH 15 19
ENDBRANCH 5 12
ENDBRANCH 3 5
BRANCH 1 34
ATOM     34  CA  ASN C  17     -74.221-210.583  80.038  1.00 16.90 LIG 0.18  C 
BRANCH 34 35
ATOM     35  N   ASN C  17     -73.951-210.289  78.639  1.00 20.58 LIG-0.35  N 
ATOM     36  C   VAL C  16     -73.445-211.213  77.828  1.00 27.16 LIG 0.24  C 
ATOM     37 O    VAL C  16     -72.996-212.283  78.236  1.00 29.43 LIG-0.27  OA
ATOM     38 H    ASN C  17     -74.143-209.486  78.397  1.00 20.58 LIG 0.16  HD
BRANCH 36 39
ATOM     39  CA  VAL C  16     -73.432-210.877  76.338  1.00 33.54 LIG 0.18  C 
BRANCH 39 40
ATOM     40  CB  VAL C  16     -72.046-210.307  75.953  1.00 32.44 LIG 0.01  C 
ATOM     41  CG2 VAL C  16     -70.977-211.396  76.047  1.00 34.10 LIG 0.01  C 
ATOM     42  CG1 VAL C  16     -71.684-209.089  76.815  1.00 32.37 LIG 0.01  C 
ENDBRANCH 39 40
BRANCH 39 43
ATOM     43  N   VAL C  16     -74.490-209.933  76.001  1.00 45.58 LIG-0.34  N 
ATOM     44  C   GLN C  15     -75.777-210.237  76.115  1.00 57.61 LIG 0.26  C 
ATOM     45 O    GLN C  15     -76.176-211.322  76.540  1.00 61.53 LIG-0.27  OA
ATOM     46 H    VAL C  16     -74.204-209.170  75.723  1.00 45.58 LIG 0.16  HD
BRANCH 44 47
ATOM     47  CA  GLN C  15     -76.759-209.147  75.691  1.00 63.44 LIG 0.40  C 
ATOM     48  N   GLN C  15     -78.127-209.651  75.706  1.00 62.08 LIG 0.61  N 
BRANCH 47 49
ATOM     49  CB  GLN C  15     -76.628-207.933  76.609  1.00 68.54 LIG 0.06  C 
BRANCH 49 50
ATOM     50  CG  GLN C  15     -76.285-206.642  75.874  1.00 72.89 LIG 0.10  C 
BRANCH 50 51
ATOM     51  CD  GLN C  15     -74.956-206.687  75.139  1.00 75.77 LIG 0.21  C 
ATOM     52 OE1  GLN C  15     -73.889-206.547  75.737  1.00 77.61 LIG-0.27  OA
ATOM     53  NE2 GLN C  15     -75.020-206.878  73.827  1.00 76.03 LIG-0.37  N 
ATOM     54 22HE GLN C  15     -74.298-206.908  73.361  1.00 76.03 LIG 0.16  HD
ATOM     55 21HE GLN C  15     -75.783-206.972  73.443  1.00 76.03 LIG 0.16  HD
ENDBRANCH 50 51
ENDBRANCH 49 50
ENDBRANCH 47 49
ENDBRANCH 44 47
ENDBRANCH 39 43
ENDBRANCH 36 39
ENDBRANCH 34 35
BRANCH 34 56
ATOM     56  CB  ASN C  17     -73.118-210.027  80.943  1.00 15.63 LIG 0.14  C 
BRANCH 56 57
ATOM     57  CG  ASN C  17     -72.269-208.977  80.253  1.00 17.63 LIG 0.22  C 
ATOM     58 OD1  ASN C  17     -72.781-207.969  79.760  1.00 24.00 LIG-0.27  OA
ATOM     59  ND2 ASN C  17     -70.963-209.212  80.200  1.00 16.48 LIG-0.37  N 
ATOM     60 21HD ASN C  17     -70.440-208.652  79.810  1.00 16.48 LIG 0.16  HD
ATOM     61 22HD ASN C  17     -70.640-209.926  80.555  1.00 16.48 LIG 0.16  HD
ENDBRANCH 56 57
ENDBRANCH 34 56
ENDBRANCH 1 34
TORSDOF 20
ENDMDL
MODEL 25
USER: ADFR SOLUTION from run 24
USER: SCORE 18.021963 LL:  -5.892 LR: -13.763 RR:   0.000 FEB:  -7.797
USER: RMSD 9.423914
USER: SEED 23
USER: STATUS no improvement in best in 6 clusters for 5 generations
USER: GENES 22
USER: genes 0 Translation |==|  0.72972 0.42894 0.34683
USER: genes 1 Rotation |==|  0.96312 0.41417 0.59824 0.63602
USER: genes 2 Torsion [C]-N--CA-[CB] |==|  0.19153
USER: genes 3 Torsion [N]-CA--CB-[CG] |==|  0.22103
USER: genes 4 Torsion [CA]-CB--CG-[OD1] |==|  0.87557
USER: genes 5 Torsion [N]-CA--C-[N] |==|  0.51743
USER: genes 6 Torsion [N]-CA--C-[O] |==|  0.64859
USER: genes 7 Torsion [C]-N--CA-[CB] |==|  0.84866
USER: genes 8 Torsion [N]-CA--CB-[CG] |==|  0.69204
USER: genes 9 Torsion [CA]-CB--CG-[CD1] |==|  0.08262
USER: genes 10 Torsion [N]-CA--C-[O] |==|  0.70805
USER: genes 11 Torsion [N]-C--CA-[N] |==|  0.30557
USER: genes 12 Torsion [C]-CA--N-[C] |==|  0.73789
USER: genes 13 Torsion [N]-C--CA-[N] |==|  0.64943
USER: genes 14 Torsion [C]-CA--CB-[CG2] |==|  0.57504
USER: genes 15 Torsion [C]-CA--N-[C] |==|  0.14301
USER: genes 16 Torsion [N]-C--CA-[N] |==|  0.30300
USER: genes 17 Torsion [C]-CA--CB-[CG] |==|  0.14964
USER: genes 18 Torsion [CA]-CB--CG-[CD] |==|  0.22703
USER: genes 19 Torsion [CB]-CG--CD-[OE1] |==|  0.77107
USER: genes 20 Torsion [C]-CA--CB-[CG] |==|  0.74128
USER: genes 21 Torsion [CA]-CB--CG-[OD1] |==|  0.66210
ROOT
ATOM      1  C   ASN C  17     -73.264-210.587  79.027  1.00 20.61 LIG 0.24  C 
ATOM      2 O    ASN C  17     -72.594-209.570  79.203  1.00 16.51 LIG-0.27  OA
ATOM      3  N   ASN C  18     -74.133-211.056  79.920  1.00 22.51 LIG-0.35  N 
ATOM      4 H    ASN C  18     -74.575-211.787  79.817  1.00 22.51 LIG 0.16  HD
ENDROOT
BRANCH 3 5
ATOM      5  CA  ASN C  18     -74.414-210.360  81.171  1.00 19.22 LIG 0.18  C 
BRANCH 5 6
ATOM      6  CB  ASN C  18     -75.167-209.055  80.890  1.00 16.89 LIG 0.14  C 
BRANCH 6 7
ATOM      7  CG  ASN C  18     -76.645-209.278  80.638  1.00 20.14 LIG 0.22  C 
ATOM      8  ND2 ASN C  18     -77.482-208.458  81.264  1.00 20.12 LIG-0.37  N 
ATOM      9 22HD ASN C  18     -77.175-207.835  81.771  1.00 20.12 LIG 0.16  HD
ATOM     10 21HD ASN C  18     -78.332-208.551  81.163  1.00 20.12 LIG 0.16  HD
ATOM     11 OD1  ASN C  18     -77.031-210.187  79.902  1.00 18.28 LIG-0.27  OA
ENDBRANCH 6 7
ENDBRANCH 5 6
BRANCH 5 12
ATOM     12  C   ASN C  18     -75.224-211.226  82.139  1.00 21.33 LIG 0.24  C 
ATOM     13  N   PRO C  19     -75.655-210.647  83.271  1.00 20.66 LIG-0.34  N 
ATOM     14  CD  PRO C  19     -75.309-209.310  83.787  1.00 23.11 LIG 0.13  C 
ATOM     15  CA  PRO C  19     -76.451-211.407  84.239  1.00 23.26 LIG 0.18  C 
ATOM     16  CG  PRO C  19     -75.988-209.261  85.136  1.00 22.87 LIG 0.02  C 
ATOM     17  CB  PRO C  19     -76.165-210.681  85.552  1.00 23.39 LIG 0.04  C 
ATOM     18 O    ASN C  18     -75.463-212.403  81.867  1.00 23.13 LIG-0.27  OA
BRANCH 15 19
ATOM     19  C   PRO C  19     -77.950-211.394  83.940  1.00 24.54 LIG 0.24  C 
ATOM     20  N   PHE C  20     -78.329-211.771  82.722  1.00 23.51 LIG-0.34  N 
ATOM     21 H    PHE C  20     -77.800-212.124  82.142  1.00 23.51 LIG 0.16  HD
ATOM     22 O    PRO C  19     -78.745-211.043  84.817  1.00 27.52 LIG-0.27  OA
BRANCH 20 23
ATOM     23  CA  PHE C  20     -79.708-211.611  82.265  1.00 27.49 LIG 0.19  C 
BRANCH 23 24
ATOM     24  CB  PHE C  20     -80.651-212.288  83.259  1.00 22.62 LIG 0.07  C 
BRANCH 24 25
ATOM     25  CG  PHE C  20     -81.305-213.516  82.703  1.00 18.80 LIG-0.06  A 
ATOM     26  CD1 PHE C  20     -80.658-214.277  81.749  1.00 16.53 LIG 0.01  A 
ATOM     27  CE1 PHE C  20     -81.237-215.417  81.243  1.00 18.06 LIG 0.00  A 
ATOM     28  CZ  PHE C  20     -82.483-215.821  81.694  1.00 17.30 LIG 0.00  A 
ATOM     29  CE2 PHE C  20     -83.138-215.077  82.650  1.00 18.45 LIG 0.00  A 
ATOM     30  CD2 PHE C  20     -82.548-213.931  83.156  1.00 20.64 LIG 0.01  A 
ENDBRANCH 24 25
ENDBRANCH 23 24
BRANCH 23 31
ATOM     31  C   PHE C  20     -80.096-210.147  82.067  1.00 41.21 LIG 0.20  C 
ATOM     32 OXT  PHE C  20     -79.704-209.507  81.092  1.00 46.78 LIG-0.65  OA
ATOM     33 O    PHE C  20     -80.826-209.571  82.879  1.00 43.65 LIG-0.65  OA
ENDBRANCH 23 31
ENDBRANCH 20 23
ENDBRANCH 15 19
ENDBRANCH 5 12
ENDBRANCH 3 5
BRANCH 1 34
ATOM     34  CA  ASN C  17     -73.142-211.373  77.729  1.00 16.90 LIG 0.18  C 
BRANCH 34 35
ATOM     35  N   ASN C  17     -73.716-210.578  76.653  1.00 20.58 LIG-0.35  N 
ATOM     36  C   VAL C  16     -74.981-210.738  76.280  1.00 27.16 LIG 0.24  C 
ATOM     37 O    VAL C  16     -75.676-211.677  76.666  1.00 29.43 LIG-0.27  OA
ATOM     38 H    ASN C  17     -73.173-210.014  76.295  1.00 20.58 LIG 0.16  HD
BRANCH 36 39
ATOM     39  CA  VAL C  16     -75.545-209.692  75.320  1.00 33.54 LIG 0.18  C 
BRANCH 39 40
ATOM     40  CB  VAL C  16     -74.481-208.597  75.070  1.00 32.44 LIG 0.01  C 
ATOM     41  CG2 VAL C  16     -75.155-207.272  74.712  1.00 34.10 LIG 0.01  C 
ATOM     42  CG1 VAL C  16     -73.481-209.028  73.989  1.00 32.37 LIG 0.01  C 
ENDBRANCH 39 40
BRANCH 39 43
ATOM     43  N   VAL C  16     -76.775-209.107  75.841  1.00 45.58 LIG-0.34  N 
ATOM     44  C   GLN C  15     -76.859-208.602  77.067  1.00 57.61 LIG 0.26  C 
ATOM     45 O    GLN C  15     -75.903-208.563  77.843  1.00 61.53 LIG-0.27  OA
ATOM     46 H    VAL C  16     -77.432-209.120  75.287  1.00 45.58 LIG 0.16  HD
BRANCH 44 47
ATOM     47  CA  GLN C  15     -78.226-208.055  77.469  1.00 63.44 LIG 0.40  C 
ATOM     48  N   GLN C  15     -78.856-208.919  78.461  1.00 62.08 LIG 0.61  N 
BRANCH 47 49
ATOM     49  CB  GLN C  15     -78.086-206.635  78.013  1.00 68.54 LIG 0.06  C 
BRANCH 49 50
ATOM     50  CG  GLN C  15     -77.358-205.685  77.067  1.00 72.89 LIG 0.10  C 
BRANCH 50 51
ATOM     51  CD  GLN C  15     -78.242-205.110  75.973  1.00 75.77 LIG 0.21  C 
ATOM     52 OE1  GLN C  15     -78.479-205.742  74.943  1.00 77.61 LIG-0.27  OA
ATOM     53  NE2 GLN C  15     -78.730-203.896  76.193  1.00 76.03 LIG-0.37  N 
ATOM     54 22HE GLN C  15     -79.234-203.521  75.605  1.00 76.03 LIG 0.16  HD
ATOM     55 21HE GLN C  15     -78.544-203.484  76.925  1.00 76.03 LIG 0.16  HD
ENDBRANCH 50 51
ENDBRANCH 49 50
ENDBRANCH 47 49
ENDBRANCH 44 47
ENDBRANCH 39 43
ENDBRANCH 36 39
ENDBRANCH 34 35
BRANCH 34 56
ATOM     56  CB  ASN C  17     -71.680-211.722  77.438  1.00 15.63 LIG 0.14  C 
BRANCH 56 57
ATOM     57  CG  ASN C  17     -70.998-210.696  76.553  1.00 17.63 LIG 0.22  C 
ATOM     58 OD1  ASN C  17     -70.498-211.021  75.473  1.00 24.00 LIG-0.27  OA
ATOM     59  ND2 ASN C  17     -70.961-209.450  77.011  1.00 16.48 LIG-0.37  N 
ATOM     60 21HD ASN C  17     -70.577-208.834  76.550  1.00 16.48 LIG 0.16  HD
ATOM     61 22HD ASN C  17     -71.320-209.260  77.768  1.00 16.48 LIG 0.16  HD
ENDBRANCH 56 57
ENDBRANCH 34 56
ENDBRANCH 1 34
TORSDOF 20
ENDMDL
MODEL 26
USER: ADFR SOLUTION from run 11
USER: SCORE 16.065317 LL:  -3.832 LR: -13.759 RR:   0.000 FEB:  -7.793
USER: RMSD 9.910000
USER: SEED 738211
USER: STATUS no improvement in best in 21 clusters for 5 generations
USER: GENES 22
USER: genes 0 Translation |==|  0.63421 0.48733 0.26270
USER: genes 1 Rotation |==|  0.16865 0.21159 0.40529 0.71922
USER: genes 2 Torsion [C]-N--CA-[CB] |==|  0.43327
USER: genes 3 Torsion [N]-CA--CB-[CG] |==|  0.23585
USER: genes 4 Torsion [CA]-CB--CG-[OD1] |==|  0.24410
USER: genes 5 Torsion [N]-CA--C-[N] |==|  0.91977
USER: genes 6 Torsion [N]-CA--C-[O] |==|  0.92761
USER: genes 7 Torsion [C]-N--CA-[CB] |==|  0.40727
USER: genes 8 Torsion [N]-CA--CB-[CG] |==|  0.14304
USER: genes 9 Torsion [CA]-CB--CG-[CD1] |==|  0.15475
USER: genes 10 Torsion [N]-CA--C-[O] |==|  0.97438
USER: genes 11 Torsion [N]-C--CA-[N] |==|  0.48687
USER: genes 12 Torsion [C]-CA--N-[C] |==|  0.62765
USER: genes 13 Torsion [N]-C--CA-[N] |==|  0.44919
USER: genes 14 Torsion [C]-CA--CB-[CG2] |==|  0.88579
USER: genes 15 Torsion [C]-CA--N-[C] |==|  0.81305
USER: genes 16 Torsion [N]-C--CA-[N] |==|  0.42379
USER: genes 17 Torsion [C]-CA--CB-[CG] |==|  0.26307
USER: genes 18 Torsion [CA]-CB--CG-[CD] |==|  0.75095
USER: genes 19 Torsion [CB]-CG--CD-[OE1] |==|  0.79896
USER: genes 20 Torsion [C]-CA--CB-[CG] |==|  0.47424
USER: genes 21 Torsion [CA]-CB--CG-[OD1] |==|  0.22812
ROOT
ATOM      1  C   ASN C  17     -75.270-209.711  76.945  1.00 20.61 LIG 0.24  C 
ATOM      2 O    ASN C  17     -75.960-209.924  77.941  1.00 16.51 LIG-0.27  OA
ATOM      3  N   ASN C  18     -74.113-210.327  76.709  1.00 22.51 LIG-0.35  N 
ATOM      4 H    ASN C  18     -73.610-210.153  76.034  1.00 22.51 LIG 0.16  HD
ENDROOT
BRANCH 3 5
ATOM      5  CA  ASN C  18     -73.593-211.366  77.591  1.00 19.22 LIG 0.18  C 
BRANCH 5 6
ATOM      6  CB  ASN C  18     -72.632-212.278  76.821  1.00 16.89 LIG 0.14  C 
BRANCH 6 7
ATOM      7  CG  ASN C  18     -71.219-211.729  76.773  1.00 20.14 LIG 0.22  C 
ATOM      8  ND2 ASN C  18     -70.909-210.986  75.716  1.00 20.12 LIG-0.37  N 
ATOM      9 22HD ASN C  18     -71.500-210.832  75.110  1.00 20.12 LIG 0.16  HD
ATOM     10 21HD ASN C  18     -70.116-210.661  75.637  1.00 20.12 LIG 0.16  HD
ATOM     11 OD1  ASN C  18     -70.412-211.982  77.668  1.00 18.28 LIG-0.27  OA
ENDBRANCH 6 7
ENDBRANCH 5 6
BRANCH 5 12
ATOM     12  C   ASN C  18     -72.880-210.777  78.811  1.00 21.33 LIG 0.24  C 
ATOM     13  N   PRO C  19     -72.302-209.573  78.665  1.00 20.66 LIG-0.34  N 
ATOM     14  CD  PRO C  19     -72.125-208.804  77.421  1.00 23.11 LIG 0.13  C 
ATOM     15  CA  PRO C  19     -71.616-208.936  79.793  1.00 23.26 LIG 0.18  C 
ATOM     16  CG  PRO C  19     -71.315-207.604  77.855  1.00 22.87 LIG 0.02  C 
ATOM     17  CB  PRO C  19     -70.610-208.021  79.100  1.00 23.39 LIG 0.04  C 
ATOM     18 O    ASN C  18     -72.854-211.397  79.874  1.00 23.13 LIG-0.27  OA
BRANCH 15 19
ATOM     19  C   PRO C  19     -72.547-208.120  80.691  1.00 24.54 LIG 0.24  C 
ATOM     20  N   PHE C  20     -72.179-207.960  81.959  1.00 23.51 LIG-0.34  N 
ATOM     21 H    PHE C  20     -71.409-208.187  82.269  1.00 23.51 LIG 0.16  HD
ATOM     22 O    PRO C  19     -73.585-207.646  80.223  1.00 27.52 LIG-0.27  OA
BRANCH 20 23
ATOM     23  CA  PHE C  20     -73.079-207.371  82.949  1.00 27.49 LIG 0.19  C 
BRANCH 23 24
ATOM     24  CB  PHE C  20     -72.825-208.017  84.310  1.00 22.62 LIG 0.07  C 
BRANCH 24 25
ATOM     25  CG  PHE C  20     -71.380-208.003  84.705  1.00 18.80 LIG-0.06  A 
ATOM     26  CD1 PHE C  20     -70.685-206.810  84.752  1.00 16.53 LIG 0.01  A 
ATOM     27  CE1 PHE C  20     -69.363-206.777  85.131  1.00 18.06 LIG 0.00  A 
ATOM     28  CZ  PHE C  20     -68.713-207.949  85.481  1.00 17.30 LIG 0.00  A 
ATOM     29  CE2 PHE C  20     -69.395-209.146  85.447  1.00 18.45 LIG 0.00  A 
ATOM     30  CD2 PHE C  20     -70.725-209.170  85.065  1.00 20.64 LIG 0.01  A 
ENDBRANCH 24 25
ENDBRANCH 23 24
BRANCH 23 31
ATOM     31  C   PHE C  20     -72.942-205.853  83.040  1.00 41.21 LIG 0.20  C 
ATOM     32 OXT  PHE C  20     -73.726-205.177  83.704  1.00 46.78 LIG-0.65  OA
ATOM     33 O    PHE C  20     -72.028-205.265  82.455  1.00 43.65 LIG-0.65  OA
ENDBRANCH 23 31
ENDBRANCH 20 23
ENDBRANCH 15 19
ENDBRANCH 5 12
ENDBRANCH 3 5
BRANCH 1 34
ATOM     34  CA  ASN C  17     -75.729-208.714  75.889  1.00 16.90 LIG 0.18  C 
BRANCH 34 35
ATOM     35  N   ASN C  17     -77.051-208.230  76.257  1.00 20.58 LIG-0.35  N 
ATOM     36  C   VAL C  16     -78.028-208.152  75.360  1.00 27.16 LIG 0.24  C 
ATOM     37 O    VAL C  16     -77.836-208.286  74.151  1.00 29.43 LIG-0.27  OA
ATOM     38 H    ASN C  17     -77.134-208.007  77.084  1.00 20.58 LIG 0.16  HD
BRANCH 36 39
ATOM     39  CA  VAL C  16     -79.428-207.868  75.900  1.00 33.54 LIG 0.18  C 
BRANCH 39 40
ATOM     40  CB  VAL C  16     -79.998-209.152  76.548  1.00 32.44 LIG 0.01  C 
ATOM     41  CG2 VAL C  16     -79.656-210.375  75.696  1.00 34.10 LIG 0.01  C 
ATOM     42  CG1 VAL C  16     -81.511-209.036  76.780  1.00 32.37 LIG 0.01  C 
ENDBRANCH 39 40
BRANCH 39 43
ATOM     43  N   VAL C  16     -80.313-207.386  74.846  1.00 45.58 LIG-0.34  N 
ATOM     44  C   GLN C  15     -80.142-206.208  74.258  1.00 57.61 LIG 0.26  C 
ATOM     45 O    GLN C  15     -79.213-205.448  74.534  1.00 61.53 LIG-0.27  OA
ATOM     46 H    VAL C  16     -80.948-207.930  74.645  1.00 45.58 LIG 0.16  HD
BRANCH 44 47
ATOM     47  CA  GLN C  15     -81.174-205.839  73.196  1.00 63.44 LIG 0.40  C 
ATOM     48  N   GLN C  15     -81.310-204.391  73.089  1.00 62.08 LIG 0.61  N 
BRANCH 47 49
ATOM     49  CB  GLN C  15     -80.780-206.437  71.847  1.00 68.54 LIG 0.06  C 
BRANCH 49 50
ATOM     50  CG  GLN C  15     -81.436-207.783  71.558  1.00 72.89 LIG 0.10  C 
BRANCH 50 51
ATOM     51  CD  GLN C  15     -80.634-208.976  72.050  1.00 75.77 LIG 0.21  C 
ATOM     52 OE1  GLN C  15     -79.596-209.326  71.490  1.00 77.61 LIG-0.27  OA
ATOM     53  NE2 GLN C  15     -81.124-209.613  73.107  1.00 76.03 LIG-0.37  N 
ATOM     54 22HE GLN C  15     -80.712-210.298  73.425  1.00 76.03 LIG 0.16  HD
ATOM     55 21HE GLN C  15     -81.853-209.341  73.474  1.00 76.03 LIG 0.16  HD
ENDBRANCH 50 51
ENDBRANCH 49 50
ENDBRANCH 47 49
ENDBRANCH 44 47
ENDBRANCH 39 43
ENDBRANCH 36 39
ENDBRANCH 34 35
BRANCH 34 56
ATOM     56  CB  ASN C  17     -74.733-207.558  75.762  1.00 15.63 LIG 0.14  C 
BRANCH 56 57
ATOM     57  CG  ASN C  17     -75.026-206.660  74.576  1.00 17.63 LIG 0.22  C 
ATOM     58 OD1  ASN C  17     -75.878-205.771  74.647  1.00 24.00 LIG-0.27  OA
ATOM     59  ND2 ASN C  17     -74.332-206.896  73.469  1.00 16.48 LIG-0.37  N 
ATOM     60 21HD ASN C  17     -74.469-206.421  72.766  1.00 16.48 LIG 0.16  HD
ATOM     61 22HD ASN C  17     -73.745-207.525  73.456  1.00 16.48 LIG 0.16  HD
ENDBRANCH 56 57
ENDBRANCH 34 56
ENDBRANCH 1 34
TORSDOF 20
ENDMDL
MODEL 27
USER: ADFR SOLUTION from run 61
USER: SCORE 17.336767 LL:  -5.078 LR: -13.732 RR:   0.000 FEB:  -7.766
USER: RMSD 6.977312
USER: SEED 60
USER: STATUS no improvement in best in 1 clusters for 5 generations
USER: GENES 22
USER: genes 0 Translation |==|  0.65692 0.42775 0.42002
USER: genes 1 Rotation |==|  0.26891 0.26713 0.70656 0.81576
USER: genes 2 Torsion [C]-N--CA-[CB] |==|  0.51363
USER: genes 3 Torsion [N]-CA--CB-[CG] |==|  0.71026
USER: genes 4 Torsion [CA]-CB--CG-[OD1] |==|  0.61698
USER: genes 5 Torsion [N]-CA--C-[N] |==|  0.88090
USER: genes 6 Torsion [N]-CA--C-[O] |==|  0.71945
USER: genes 7 Torsion [C]-N--CA-[CB] |==|  0.46717
USER: genes 8 Torsion [N]-CA--CB-[CG] |==|  0.29202
USER: genes 9 Torsion [CA]-CB--CG-[CD1] |==|  0.30025
USER: genes 10 Torsion [N]-CA--C-[O] |==|  0.92969
USER: genes 11 Torsion [N]-C--CA-[N] |==|  0.48211
USER: genes 12 Torsion [C]-CA--N-[C] |==|  0.59703
USER: genes 13 Torsion [N]-C--CA-[N] |==|  0.99375
USER: genes 14 Torsion [C]-CA--CB-[CG2] |==|  0.93561
USER: genes 15 Torsion [C]-CA--N-[C] |==|  0.71021
USER: genes 16 Torsion [N]-C--CA-[N] |==|  0.62679
USER: genes 17 Torsion [C]-CA--CB-[CG] |==|  0.27201
USER: genes 18 Torsion [CA]-CB--CG-[CD] |==|  0.04789
USER: genes 19 Torsion [CB]-CG--CD-[OE1] |==|  0.27552
USER: genes 20 Torsion [C]-CA--CB-[CG] |==|  0.79570
USER: genes 21 Torsion [CA]-CB--CG-[OD1] |==|  0.06796
ROOT
ATOM      1  C   ASN C  17     -74.793-210.605  80.838  1.00 20.61 LIG 0.24  C 
ATOM      2 O    ASN C  17     -74.080-210.522  81.838  1.00 16.51 LIG-0.27  OA
ATOM      3  N   ASN C  18     -74.311-210.705  79.601  1.00 22.51 LIG-0.35  N 
ATOM      4 H    ASN C  18     -74.806-210.725  78.898  1.00 22.51 LIG 0.16  HD
ENDROOT
BRANCH 3 5
ATOM      5  CA  ASN C  18     -72.881-210.793  79.329  1.00 19.22 LIG 0.18  C 
BRANCH 5 6
ATOM      6  CB  ASN C  18     -72.630-210.776  77.818  1.00 16.89 LIG 0.14  C 
BRANCH 6 7
ATOM      7  CG  ASN C  18     -72.283-212.146  77.269  1.00 20.14 LIG 0.22  C 
ATOM      8  ND2 ASN C  18     -72.981-213.170  77.748  1.00 20.12 LIG-0.37  N 
ATOM      9 22HD ASN C  18     -73.600-213.033  78.330  1.00 20.12 LIG 0.16  HD
ATOM     10 21HD ASN C  18     -72.814-213.969  77.476  1.00 20.12 LIG 0.16  HD
ATOM     11 OD1  ASN C  18     -71.386-212.285  76.436  1.00 18.28 LIG-0.27  OA
ENDBRANCH 6 7
ENDBRANCH 5 6
BRANCH 5 12
ATOM     12  C   ASN C  18     -72.101-209.656  79.995  1.00 21.33 LIG 0.24  C 
ATOM     13  N   PRO C  19     -72.631-208.424  79.929  1.00 20.66 LIG-0.34  N 
ATOM     14  CD  PRO C  19     -73.804-207.989  79.149  1.00 23.11 LIG 0.13  C 
ATOM     15  CA  PRO C  19     -71.952-207.287  80.558  1.00 23.26 LIG 0.18  C 
ATOM     16  CG  PRO C  19     -73.846-206.495  79.372  1.00 22.87 LIG 0.02  C 
ATOM     17  CB  PRO C  19     -72.457-206.101  79.740  1.00 23.39 LIG 0.04  C 
ATOM     18 O    ASN C  18     -71.036-209.886  80.567  1.00 23.13 LIG-0.27  OA
BRANCH 15 19
ATOM     19  C   PRO C  19     -72.307-207.106  82.033  1.00 24.54 LIG 0.24  C 
ATOM     20  N   PHE C  20     -71.700-207.905  82.906  1.00 23.51 LIG-0.34  N 
ATOM     21 H    PHE C  20     -71.048-208.429  82.705  1.00 23.51 LIG 0.16  HD
ATOM     22 O    PRO C  19     -73.125-206.243  82.363  1.00 27.52 LIG-0.27  OA
BRANCH 20 23
ATOM     23  CA  PHE C  20     -72.104-207.954  84.310  1.00 27.49 LIG 0.19  C 
BRANCH 23 24
ATOM     24  CB  PHE C  20     -71.440-209.153  84.985  1.00 22.62 LIG 0.07  C 
BRANCH 24 25
ATOM     25  CG  PHE C  20     -70.303-208.766  85.882  1.00 18.80 LIG-0.06  A 
ATOM     26  CD1 PHE C  20     -70.441-208.851  87.254  1.00 16.53 LIG 0.01  A 
ATOM     27  CE1 PHE C  20     -69.401-208.517  88.090  1.00 18.06 LIG 0.00  A 
ATOM     28  CZ  PHE C  20     -68.192-208.096  87.559  1.00 17.30 LIG 0.00  A 
ATOM     29  CE2 PHE C  20     -68.037-208.014  86.193  1.00 18.45 LIG 0.00  A 
ATOM     30  CD2 PHE C  20     -69.088-208.353  85.358  1.00 20.64 LIG 0.01  A 
ENDBRANCH 24 25
ENDBRANCH 23 24
BRANCH 23 31
ATOM     31  C   PHE C  20     -71.780-206.665  85.061  1.00 41.21 LIG 0.20  C 
ATOM     32 OXT  PHE C  20     -72.407-206.333  86.066  1.00 46.78 LIG-0.65  OA
ATOM     33 O    PHE C  20     -70.866-205.925  84.683  1.00 43.65 LIG-0.65  OA
ENDBRANCH 23 31
ENDBRANCH 20 23
ENDBRANCH 15 19
ENDBRANCH 5 12
ENDBRANCH 3 5
BRANCH 1 34
ATOM     34  CA  ASN C  17     -76.309-210.615  80.974  1.00 16.90 LIG 0.18  C 
BRANCH 34 35
ATOM     35  N   ASN C  17     -76.646-210.652  82.389  1.00 20.58 LIG-0.35  N 
ATOM     36  C   VAL C  16     -77.709-211.320  82.825  1.00 27.16 LIG 0.24  C 
ATOM     37 O    VAL C  16     -78.570-211.769  82.070  1.00 29.43 LIG-0.27  OA
ATOM     38 H    ASN C  17     -76.107-210.214  82.897  1.00 20.58 LIG 0.16  HD
BRANCH 36 39
ATOM     39  CA  VAL C  16     -77.828-211.497  84.338  1.00 33.54 LIG 0.18  C 
BRANCH 39 40
ATOM     40  CB  VAL C  16     -79.144-210.849  84.829  1.00 32.44 LIG 0.01  C 
ATOM     41  CG2 VAL C  16     -79.612-209.780  83.840  1.00 34.10 LIG 0.01  C 
ATOM     42  CG1 VAL C  16     -78.989-210.274  86.244  1.00 32.37 LIG 0.01  C 
ENDBRANCH 39 40
BRANCH 39 43
ATOM     43  N   VAL C  16     -76.680-210.920  85.028  1.00 45.58 LIG-0.34  N 
ATOM     44  C   GLN C  15     -75.709-211.667  85.538  1.00 57.61 LIG 0.26  C 
ATOM     45 O    GLN C  15     -75.685-212.895  85.443  1.00 61.53 LIG-0.27  OA
ATOM     46 H    VAL C  16     -76.694-210.062  85.074  1.00 45.58 LIG 0.16  HD
BRANCH 44 47
ATOM     47  CA  GLN C  15     -74.595-210.911  86.257  1.00 63.44 LIG 0.40  C 
ATOM     48  N   GLN C  15     -73.286-211.410  85.852  1.00 62.08 LIG 0.61  N 
BRANCH 47 49
ATOM     49  CB  GLN C  15     -74.706-209.414  85.973  1.00 68.54 LIG 0.06  C 
BRANCH 49 50
ATOM     50  CG  GLN C  15     -75.412-208.631  87.075  1.00 72.89 LIG 0.10  C 
BRANCH 50 51
ATOM     51  CD  GLN C  15     -75.499-209.373  88.397  1.00 75.77 LIG 0.21  C 
ATOM     52 OE1  GLN C  15     -74.709-209.146  89.313  1.00 77.61 LIG-0.27  OA
ATOM     53  NE2 GLN C  15     -76.467-210.276  88.497  1.00 76.03 LIG-0.37  N 
ATOM     54 22HE GLN C  15     -76.560-210.729  89.223  1.00 76.03 LIG 0.16  HD
ATOM     55 21HE GLN C  15     -77.001-210.409  87.837  1.00 76.03 LIG 0.16  HD
ENDBRANCH 50 51
ENDBRANCH 49 50
ENDBRANCH 47 49
ENDBRANCH 44 47
ENDBRANCH 39 43
ENDBRANCH 36 39
ENDBRANCH 34 35
BRANCH 34 56
ATOM     56  CB  ASN C  17     -76.925-209.390  80.292  1.00 15.63 LIG 0.14  C 
BRANCH 56 57
ATOM     57  CG  ASN C  17     -76.701-208.110  81.074  1.00 17.63 LIG 0.22  C 
ATOM     58 OD1  ASN C  17     -75.755-208.002  81.857  1.00 24.00 LIG-0.27  OA
ATOM     59  ND2 ASN C  17     -77.582-207.136  80.879  1.00 16.48 LIG-0.37  N 
ATOM     60 21HD ASN C  17     -77.504-206.394  81.307  1.00 16.48 LIG 0.16  HD
ATOM     61 22HD ASN C  17     -78.230-207.247  80.325  1.00 16.48 LIG 0.16  HD
ENDBRANCH 56 57
ENDBRANCH 34 56
ENDBRANCH 1 34
TORSDOF 20
ENDMDL
MODEL 28
USER: ADFR SOLUTION from run 38
USER: SCORE 17.930026 LL:  -4.864 LR: -13.693 RR:   0.000 FEB:  -7.727
USER: RMSD 4.655462
USER: SEED 37
USER: STATUS no improvement in best in 19 clusters for 5 generations
USER: GENES 22
USER: genes 0 Translation |==|  0.45433 0.56783 0.39480
USER: genes 1 Rotation |==|  0.32529 0.37827 0.76954 0.86333
USER: genes 2 Torsion [C]-N--CA-[CB] |==|  0.53948
USER: genes 3 Torsion [N]-CA--CB-[CG] |==|  0.83310
USER: genes 4 Torsion [CA]-CB--CG-[OD1] |==|  0.14141
USER: genes 5 Torsion [N]-CA--C-[N] |==|  0.30578
USER: genes 6 Torsion [N]-CA--C-[O] |==|  0.51288
USER: genes 7 Torsion [C]-N--CA-[CB] |==|  0.36236
USER: genes 8 Torsion [N]-CA--CB-[CG] |==|  0.85492
USER: genes 9 Torsion [CA]-CB--CG-[CD1] |==|  0.79823
USER: genes 10 Torsion [N]-CA--C-[O] |==|  0.47543
USER: genes 11 Torsion [N]-C--CA-[N] |==|  0.38891
USER: genes 12 Torsion [C]-CA--N-[C] |==|  0.82530
USER: genes 13 Torsion [N]-C--CA-[N] |==|  0.34454
USER: genes 14 Torsion [C]-CA--CB-[CG2] |==|  0.41453
USER: genes 15 Torsion [C]-CA--N-[C] |==|  0.84291
USER: genes 16 Torsion [N]-C--CA-[N] |==|  0.39848
USER: genes 17 Torsion [C]-CA--CB-[CG] |==|  0.09767
USER: genes 18 Torsion [CA]-CB--CG-[CD] |==|  0.40521
USER: genes 19 Torsion [CB]-CG--CD-[OE1] |==|  0.65127
USER: genes 20 Torsion [C]-CA--CB-[CG] |==|  0.06031
USER: genes 21 Torsion [CA]-CB--CG-[OD1] |==|  0.72602
ROOT
ATOM      1  C   ASN C  17     -79.047-208.503  80.214  1.00 20.61 LIG 0.24  C 
ATOM      2 O    ASN C  17     -77.900-208.388  80.644  1.00 16.51 LIG-0.27  OA
ATOM      3  N   ASN C  18     -79.332-208.699  78.929  1.00 22.51 LIG-0.35  N 
ATOM      4 H    ASN C  18     -80.134-208.743  78.620  1.00 22.51 LIG 0.16  HD
ENDROOT
BRANCH 3 5
ATOM      5  CA  ASN C  18     -78.293-208.860  77.918  1.00 19.22 LIG 0.18  C 
BRANCH 5 6
ATOM      6  CB  ASN C  18     -78.894-208.715  76.516  1.00 16.89 LIG 0.14  C 
BRANCH 6 7
ATOM      7  CG  ASN C  18     -79.967-209.747  76.232  1.00 20.14 LIG 0.22  C 
ATOM      8  ND2 ASN C  18     -79.853-210.422  75.094  1.00 20.12 LIG-0.37  N 
ATOM      9 22HD ASN C  18     -79.188-210.270  74.569  1.00 20.12 LIG 0.16  HD
ATOM     10 21HD ASN C  18     -80.443-211.011  74.882  1.00 20.12 LIG 0.16  HD
ATOM     11 OD1  ASN C  18     -80.898-209.924  77.020  1.00 18.28 LIG-0.27  OA
ENDBRANCH 6 7
ENDBRANCH 5 6
BRANCH 5 12
ATOM     12  C   ASN C  18     -77.156-207.850  78.100  1.00 21.33 LIG 0.24  C 
ATOM     13  N   PRO C  19     -75.970-208.326  78.515  1.00 20.66 LIG-0.34  N 
ATOM     14  CD  PRO C  19     -75.659-209.691  78.976  1.00 23.11 LIG 0.13  C 
ATOM     15  CA  PRO C  19     -74.830-207.424  78.696  1.00 23.26 LIG 0.18  C 
ATOM     16  CG  PRO C  19     -74.217-209.598  79.419  1.00 22.87 LIG 0.02  C 
ATOM     17  CB  PRO C  19     -73.981-208.160  79.731  1.00 23.39 LIG 0.04  C 
ATOM     18 O    ASN C  18     -77.343-206.657  77.867  1.00 23.13 LIG-0.27  OA
BRANCH 15 19
ATOM     19  C   PRO C  19     -74.025-207.193  77.416  1.00 24.54 LIG 0.24  C 
ATOM     20  N   PHE C  20     -74.494-207.740  76.298  1.00 23.51 LIG-0.34  N 
ATOM     21 H    PHE C  20     -75.267-208.112  76.233  1.00 23.51 LIG 0.16  HD
ATOM     22 O    PRO C  19     -72.991-206.521  77.458  1.00 27.52 LIG-0.27  OA
BRANCH 20 23
ATOM     23  CA  PHE C  20     -73.711-207.751  75.064  1.00 27.49 LIG 0.19  C 
BRANCH 23 24
ATOM     24  CB  PHE C  20     -73.696-209.167  74.488  1.00 22.62 LIG 0.07  C 
BRANCH 24 25
ATOM     25  CG  PHE C  20     -73.268-210.201  75.484  1.00 18.80 LIG-0.06  A 
ATOM     26  CD1 PHE C  20     -71.945-210.285  75.873  1.00 16.53 LIG 0.01  A 
ATOM     27  CE1 PHE C  20     -71.539-211.216  76.801  1.00 18.06 LIG 0.00  A 
ATOM     28  CZ  PHE C  20     -72.462-212.080  77.365  1.00 17.30 LIG 0.00  A 
ATOM     29  CE2 PHE C  20     -73.787-212.004  76.994  1.00 18.45 LIG 0.00  A 
ATOM     30  CD2 PHE C  20     -74.187-211.063  76.060  1.00 20.64 LIG 0.01  A 
ENDBRANCH 24 25
ENDBRANCH 23 24
BRANCH 23 31
ATOM     31  C   PHE C  20     -74.228-206.755  74.030  1.00 41.21 LIG 0.20  C 
ATOM     32 OXT  PHE C  20     -75.287-206.150  74.197  1.00 46.78 LIG-0.65  OA
ATOM     33 O    PHE C  20     -73.588-206.521  73.001  1.00 43.65 LIG-0.65  OA
ENDBRANCH 23 31
ENDBRANCH 20 23
ENDBRANCH 15 19
ENDBRANCH 5 12
ENDBRANCH 3 5
BRANCH 1 34
ATOM     34  CA  ASN C  17     -80.234-208.446  81.166  1.00 16.90 LIG 0.18  C 
BRANCH 34 35
ATOM     35  N   ASN C  17     -79.880-209.151  82.388  1.00 20.58 LIG-0.35  N 
ATOM     36  C   VAL C  16     -79.602-210.451  82.376  1.00 27.16 LIG 0.24  C 
ATOM     37 O    VAL C  16     -79.815-211.168  81.399  1.00 29.43 LIG-0.27  OA
ATOM     38 H    ASN C  17     -79.869-208.661  83.095  1.00 20.58 LIG 0.16  HD
BRANCH 36 39
ATOM     39  CA  VAL C  16     -79.008-211.033  83.657  1.00 33.54 LIG 0.18  C 
BRANCH 39 40
ATOM     40  CB  VAL C  16     -77.552-211.484  83.389  1.00 32.44 LIG 0.01  C 
ATOM     41  CG2 VAL C  16     -76.711-211.344  84.658  1.00 34.10 LIG 0.01  C 
ATOM     42  CG1 VAL C  16     -76.935-210.707  82.218  1.00 32.37 LIG 0.01  C 
ENDBRANCH 39 40
BRANCH 39 43
ATOM     43  N   VAL C  16     -79.810-212.146  84.152  1.00 45.58 LIG-0.34  N 
ATOM     44  C   GLN C  15     -81.103-212.024  84.426  1.00 57.61 LIG 0.26  C 
ATOM     45 O    GLN C  15     -81.729-210.977  84.259  1.00 61.53 LIG-0.27  OA
ATOM     46 H    VAL C  16     -79.370-212.879  84.248  1.00 45.58 LIG 0.16  HD
BRANCH 44 47
ATOM     47  CA  GLN C  15     -81.789-213.276  84.966  1.00 63.44 LIG 0.40  C 
ATOM     48  N   GLN C  15     -82.786-212.926  85.971  1.00 62.08 LIG 0.61  N 
BRANCH 47 49
ATOM     49  CB  GLN C  15     -82.436-214.056  83.823  1.00 68.54 LIG 0.06  C 
BRANCH 49 50
ATOM     50  CG  GLN C  15     -81.647-214.003  82.519  1.00 72.89 LIG 0.10  C 
BRANCH 50 51
ATOM     51  CD  GLN C  15     -81.728-215.279  81.699  1.00 75.77 LIG 0.21  C 
ATOM     52 OE1  GLN C  15     -80.713-215.871  81.332  1.00 77.61 LIG-0.27  OA
ATOM     53  NE2 GLN C  15     -82.949-215.704  81.400  1.00 76.03 LIG-0.37  N 
ATOM     54 22HE GLN C  15     -83.054-216.419  80.934  1.00 76.03 LIG 0.16  HD
ATOM     55 21HE GLN C  15     -83.636-215.265  81.673  1.00 76.03 LIG 0.16  HD
ENDBRANCH 50 51
ENDBRANCH 49 50
ENDBRANCH 47 49
ENDBRANCH 44 47
ENDBRANCH 39 43
ENDBRANCH 36 39
ENDBRANCH 34 35
BRANCH 34 56
ATOM     56  CB  ASN C  17     -80.626-206.995  81.460  1.00 15.63 LIG 0.14  C 
BRANCH 56 57
ATOM     57  CG  ASN C  17     -80.142-206.030  80.395  1.00 17.63 LIG 0.22  C 
ATOM     58 OD1  ASN C  17     -79.112-205.371  80.556  1.00 24.00 LIG-0.27  OA
ATOM     59  ND2 ASN C  17     -80.891-205.929  79.304  1.00 16.48 LIG-0.37  N 
ATOM     60 21HD ASN C  17     -80.665-205.388  78.675  1.00 16.48 LIG 0.16  HD
ATOM     61 22HD ASN C  17     -81.604-206.404  79.226  1.00 16.48 LIG 0.16  HD
ENDBRANCH 56 57
ENDBRANCH 34 56
ENDBRANCH 1 34
TORSDOF 20
ENDMDL
MODEL 29
USER: ADFR SOLUTION from run 186
USER: SCORE 16.403060 LL:  -4.906 LR: -13.659 RR:   0.000 FEB:  -7.693
USER: RMSD 4.843542
USER: SEED 185
USER: STATUS no improvement in best in 9 clusters for 5 generations
USER: GENES 22
USER: genes 0 Translation |==|  0.57319 0.58152 0.41513
USER: genes 1 Rotation |==|  0.87746 0.71036 0.28427 0.62934
USER: genes 2 Torsion [C]-N--CA-[CB] |==|  0.40711
USER: genes 3 Torsion [N]-CA--CB-[CG] |==|  0.41110
USER: genes 4 Torsion [CA]-CB--CG-[OD1] |==|  0.70978
USER: genes 5 Torsion [N]-CA--C-[N] |==|  0.87323
USER: genes 6 Torsion [N]-CA--C-[O] |==|  0.36782
USER: genes 7 Torsion [C]-N--CA-[CB] |==|  0.43686
USER: genes 8 Torsion [N]-CA--CB-[CG] |==|  0.91427
USER: genes 9 Torsion [CA]-CB--CG-[CD1] |==|  0.82360
USER: genes 10 Torsion [N]-CA--C-[O] |==|  0.39385
USER: genes 11 Torsion [N]-C--CA-[N] |==|  0.20904
USER: genes 12 Torsion [C]-CA--N-[C] |==|  0.77175
USER: genes 13 Torsion [N]-C--CA-[N] |==|  0.68517
USER: genes 14 Torsion [C]-CA--CB-[CG2] |==|  0.56259
USER: genes 15 Torsion [C]-CA--N-[C] |==|  0.67255
USER: genes 16 Torsion [N]-C--CA-[N] |==|  0.71248
USER: genes 17 Torsion [C]-CA--CB-[CG] |==|  0.31653
USER: genes 18 Torsion [CA]-CB--CG-[CD] |==|  0.24588
USER: genes 19 Torsion [CB]-CG--CD-[OE1] |==|  0.91228
USER: genes 20 Torsion [C]-CA--CB-[CG] |==|  0.24095
USER: genes 21 Torsion [CA]-CB--CG-[OD1] |==|  0.45553
ROOT
ATOM      1  C   ASN C  17     -76.551-208.298  80.718  1.00 20.61 LIG 0.24  C 
ATOM      2 O    ASN C  17     -77.067-207.192  80.568  1.00 16.51 LIG-0.27  OA
ATOM      3  N   ASN C  18     -75.361-208.481  81.285  1.00 22.51 LIG-0.35  N 
ATOM      4 H    ASN C  18     -74.980-209.249  81.358  1.00 22.51 LIG 0.16  HD
ENDROOT
BRANCH 3 5
ATOM      5  CA  ASN C  18     -74.588-207.376  81.843  1.00 19.22 LIG 0.18  C 
BRANCH 5 6
ATOM      6  CB  ASN C  18     -73.792-207.852  83.063  1.00 16.89 LIG 0.14  C 
BRANCH 6 7
ATOM      7  CG  ASN C  18     -72.476-207.118  83.223  1.00 20.14 LIG 0.22  C 
ATOM      8  ND2 ASN C  18     -72.546-205.871  83.676  1.00 20.12 LIG-0.37  N 
ATOM      9 22HD ASN C  18     -73.310-205.526  83.871  1.00 20.12 LIG 0.16  HD
ATOM     10 21HD ASN C  18     -71.827-205.408  83.774  1.00 20.12 LIG 0.16  HD
ATOM     11 OD1  ASN C  18     -71.410-207.659  82.928  1.00 18.28 LIG-0.27  OA
ENDBRANCH 6 7
ENDBRANCH 5 6
BRANCH 5 12
ATOM     12  C   ASN C  18     -73.636-206.766  80.811  1.00 21.33 LIG 0.24  C 
ATOM     13  N   PRO C  19     -72.911-207.615  80.064  1.00 20.66 LIG-0.34  N 
ATOM     14  CD  PRO C  19     -72.793-209.076  80.219  1.00 23.11 LIG 0.13  C 
ATOM     15  CA  PRO C  19     -71.990-207.107  79.043  1.00 23.26 LIG 0.18  C 
ATOM     16  CG  PRO C  19     -71.762-209.463  79.184  1.00 22.87 LIG 0.02  C 
ATOM     17  CB  PRO C  19     -70.963-208.231  78.928  1.00 23.39 LIG 0.04  C 
ATOM     18 O    ASN C  18     -73.558-205.544  80.685  1.00 23.13 LIG-0.27  OA
BRANCH 15 19
ATOM     19  C   PRO C  19     -72.657-206.856  77.690  1.00 24.54 LIG 0.24  C 
ATOM     20  N   PHE C  20     -73.438-207.821  77.211  1.00 23.51 LIG-0.34  N 
ATOM     21 H    PHE C  20     -73.675-208.515  77.661  1.00 23.51 LIG 0.16  HD
ATOM     22 O    PRO C  19     -72.458-205.792  77.098  1.00 27.52 LIG-0.27  OA
BRANCH 20 23
ATOM     23  CA  PHE C  20     -73.965-207.774  75.849  1.00 27.49 LIG 0.19  C 
BRANCH 23 24
ATOM     24  CB  PHE C  20     -74.319-209.190  75.395  1.00 22.62 LIG 0.07  C 
BRANCH 24 25
ATOM     25  CG  PHE C  20     -73.444-210.239  76.011  1.00 18.80 LIG-0.06  A 
ATOM     26  CD1 PHE C  20     -72.088-210.256  75.745  1.00 16.53 LIG 0.01  A 
ATOM     27  CE1 PHE C  20     -71.268-211.200  76.317  1.00 18.06 LIG 0.00  A 
ATOM     28  CZ  PHE C  20     -71.796-212.146  77.180  1.00 17.30 LIG 0.00  A 
ATOM     29  CE2 PHE C  20     -73.145-212.137  77.462  1.00 18.45 LIG 0.00  A 
ATOM     30  CD2 PHE C  20     -73.963-211.183  76.882  1.00 20.64 LIG 0.01  A 
ENDBRANCH 24 25
ENDBRANCH 23 24
BRANCH 23 31
ATOM     31  C   PHE C  20     -75.173-206.850  75.717  1.00 41.21 LIG 0.20  C 
ATOM     32 OXT  PHE C  20     -76.019-206.770  76.607  1.00 46.78 LIG-0.65  OA
ATOM     33 O    PHE C  20     -75.325-206.146  74.714  1.00 43.65 LIG-0.65  OA
ENDBRANCH 23 31
ENDBRANCH 20 23
ENDBRANCH 15 19
ENDBRANCH 5 12
ENDBRANCH 3 5
BRANCH 1 34
ATOM     34  CA  ASN C  17     -77.281-209.555  80.264  1.00 16.90 LIG 0.18  C 
BRANCH 34 35
ATOM     35  N   ASN C  17     -77.819-210.225  81.438  1.00 20.58 LIG-0.35  N 
ATOM     36  C   VAL C  16     -77.060-211.021  82.184  1.00 27.16 LIG 0.24  C 
ATOM     37 O    VAL C  16     -75.942-211.396  81.832  1.00 29.43 LIG-0.27  OA
ATOM     38 H    ASN C  17     -78.649-210.061  81.596  1.00 20.58 LIG 0.16  HD
BRANCH 36 39
ATOM     39  CA  VAL C  16     -77.651-211.472  83.518  1.00 33.54 LIG 0.18  C 
BRANCH 39 40
ATOM     40  CB  VAL C  16     -79.140-211.059  83.585  1.00 32.44 LIG 0.01  C 
ATOM     41  CG2 VAL C  16     -79.604-210.976  85.040  1.00 34.10 LIG 0.01  C 
ATOM     42  CG1 VAL C  16     -80.022-212.016  82.769  1.00 32.37 LIG 0.01  C 
ENDBRANCH 39 40
BRANCH 39 43
ATOM     43  N   VAL C  16     -76.909-210.910  84.640  1.00 45.58 LIG-0.34  N 
ATOM     44  C   GLN C  15     -76.269-211.669  85.521  1.00 57.61 LIG 0.26  C 
ATOM     45 O    GLN C  15     -76.228-212.898  85.444  1.00 61.53 LIG-0.27  OA
ATOM     46 H    VAL C  16     -76.926-210.051  84.677  1.00 45.58 LIG 0.16  HD
BRANCH 44 47
ATOM     47  CA  GLN C  15     -75.567-210.926  86.655  1.00 63.44 LIG 0.40  C 
ATOM     48  N   GLN C  15     -74.128-210.875  86.425  1.00 62.08 LIG 0.61  N 
BRANCH 47 49
ATOM     49  CB  GLN C  15     -76.136-209.515  86.792  1.00 68.54 LIG 0.06  C 
BRANCH 49 50
ATOM     50  CG  GLN C  15     -76.882-209.279  88.101  1.00 72.89 LIG 0.10  C 
BRANCH 50 51
ATOM     51  CD  GLN C  15     -75.994-208.799  89.236  1.00 75.77 LIG 0.21  C 
ATOM     52 OE1  GLN C  15     -74.816-209.146  89.319  1.00 77.61 LIG-0.27  OA
ATOM     53  NE2 GLN C  15     -76.566-207.998  90.127  1.00 76.03 LIG-0.37  N 
ATOM     54 22HE GLN C  15     -76.111-207.700  90.792  1.00 76.03 LIG 0.16  HD
ATOM     55 21HE GLN C  15     -77.392-207.777  90.037  1.00 76.03 LIG 0.16  HD
ENDBRANCH 50 51
ENDBRANCH 49 50
ENDBRANCH 47 49
ENDBRANCH 44 47
ENDBRANCH 39 43
ENDBRANCH 36 39
ENDBRANCH 34 35
BRANCH 34 56
ATOM     56  CB  ASN C  17     -78.391-209.211  79.267  1.00 15.63 LIG 0.14  C 
BRANCH 56 57
ATOM     57  CG  ASN C  17     -77.894-209.145  77.836  1.00 17.63 LIG 0.22  C 
ATOM     58 OD1  ASN C  17     -78.682-209.171  76.888  1.00 24.00 LIG-0.27  OA
ATOM     59  ND2 ASN C  17     -76.578-209.073  77.669  1.00 16.48 LIG-0.37  N 
ATOM     60 21HD ASN C  17     -76.246-209.044  76.877  1.00 16.48 LIG 0.16  HD
ATOM     61 22HD ASN C  17     -76.059-209.057  78.354  1.00 16.48 LIG 0.16  HD
ENDBRANCH 56 57
ENDBRANCH 34 56
ENDBRANCH 1 34
TORSDOF 20
ENDMDL
MODEL 30
USER: ADFR SOLUTION from run 127
USER: SCORE 16.994051 LL:  -4.595 LR: -13.648 RR:   0.000 FEB:  -7.682
USER: RMSD 4.482243
USER: SEED 126
USER: STATUS no improvement in best in 5 clusters for 5 generations
USER: GENES 22
USER: genes 0 Translation |==|  0.39198 0.35627 0.50782
USER: genes 1 Rotation |==|  0.77872 0.73476 0.16905 0.58762
USER: genes 2 Torsion [C]-N--CA-[CB] |==|  0.21716
USER: genes 3 Torsion [N]-CA--CB-[CG] |==|  0.06064
USER: genes 4 Torsion [CA]-CB--CG-[OD1] |==|  0.66708
USER: genes 5 Torsion [N]-CA--C-[N] |==|  0.32407
USER: genes 6 Torsion [N]-CA--C-[O] |==|  0.17770
USER: genes 7 Torsion [C]-N--CA-[CB] |==|  0.23639
USER: genes 8 Torsion [N]-CA--CB-[CG] |==|  0.06881
USER: genes 9 Torsion [CA]-CB--CG-[CD1] |==|  0.25250
USER: genes 10 Torsion [N]-CA--C-[O] |==|  0.92160
USER: genes 11 Torsion [N]-C--CA-[N] |==|  0.42612
USER: genes 12 Torsion [C]-CA--N-[C] |==|  0.65439
USER: genes 13 Torsion [N]-C--CA-[N] |==|  0.87904
USER: genes 14 Torsion [C]-CA--CB-[CG2] |==|  0.17669
USER: genes 15 Torsion [C]-CA--N-[C] |==|  0.83992
USER: genes 16 Torsion [N]-C--CA-[N] |==|  0.01161
USER: genes 17 Torsion [C]-CA--CB-[CG] |==|  0.90803
USER: genes 18 Torsion [CA]-CB--CG-[CD] |==|  0.33921
USER: genes 19 Torsion [CB]-CG--CD-[OE1] |==|  0.01141
USER: genes 20 Torsion [C]-CA--CB-[CG] |==|  0.43002
USER: genes 21 Torsion [CA]-CB--CG-[OD1] |==|  0.74495
ROOT
ATOM      1  C   ASN C  17     -80.356-211.677  83.012  1.00 20.61 LIG 0.24  C 
ATOM      2 O    ASN C  17     -80.956-210.605  83.076  1.00 16.51 LIG-0.27  OA
ATOM      3  N   ASN C  18     -79.047-211.772  82.790  1.00 22.51 LIG-0.35  N 
ATOM      4 H    ASN C  18     -78.631-212.521  82.707  1.00 22.51 LIG 0.16  HD
ENDROOT
BRANCH 3 5
ATOM      5  CA  ASN C  18     -78.192-210.597  82.668  1.00 19.22 LIG 0.18  C 
BRANCH 5 6
ATOM      6  CB  ASN C  18     -77.884-210.023  84.054  1.00 16.89 LIG 0.14  C 
BRANCH 6 7
ATOM      7  CG  ASN C  18     -78.060-211.044  85.160  1.00 20.14 LIG 0.22  C 
ATOM      8  ND2 ASN C  18     -77.312-212.139  85.079  1.00 20.12 LIG-0.37  N 
ATOM      9 22HD ASN C  18     -76.757-212.233  84.429  1.00 20.12 LIG 0.16  HD
ATOM     10 21HD ASN C  18     -77.383-212.754  85.677  1.00 20.12 LIG 0.16  HD
ATOM     11 OD1  ASN C  18     -78.870-210.858  86.069  1.00 18.28 LIG-0.27  OA
ENDBRANCH 6 7
ENDBRANCH 5 6
BRANCH 5 12
ATOM     12  C   ASN C  18     -76.884-210.914  81.937  1.00 21.33 LIG 0.24  C 
ATOM     13  N   PRO C  19     -76.667-210.292  80.766  1.00 20.66 LIG-0.34  N 
ATOM     14  CD  PRO C  19     -77.607-209.452  80.004  1.00 23.11 LIG 0.13  C 
ATOM     15  CA  PRO C  19     -75.430-210.531  80.016  1.00 23.26 LIG 0.18  C 
ATOM     16  CG  PRO C  19     -76.854-209.135  78.733  1.00 22.87 LIG 0.02  C 
ATOM     17  CB  PRO C  19     -75.844-210.220  78.580  1.00 23.39 LIG 0.04  C 
ATOM     18 O    ASN C  18     -76.078-211.707  82.423  1.00 23.13 LIG-0.27  OA
BRANCH 15 19
ATOM     19  C   PRO C  19     -74.273-209.627  80.444  1.00 24.54 LIG 0.24  C 
ATOM     20  N   PHE C  20     -73.807-208.771  79.539  1.00 23.51 LIG-0.34  N 
ATOM     21 H    PHE C  20     -74.184-208.620  78.781  1.00 23.51 LIG 0.16  HD
ATOM     22 O    PRO C  19     -73.819-209.716  81.587  1.00 27.52 LIG-0.27  OA
BRANCH 20 23
ATOM     23  CA  PHE C  20     -72.585-208.003  79.771  1.00 27.49 LIG 0.19  C 
BRANCH 23 24
ATOM     24  CB  PHE C  20     -71.375-208.844  79.365  1.00 22.62 LIG 0.07  C 
BRANCH 24 25
ATOM     25  CG  PHE C  20     -71.705-209.892  78.346  1.00 18.80 LIG-0.06  A 
ATOM     26  CD1 PHE C  20     -71.596-209.609  76.998  1.00 16.53 LIG 0.01  A 
ATOM     27  CE1 PHE C  20     -71.877-210.567  76.051  1.00 18.06 LIG 0.00  A 
ATOM     28  CZ  PHE C  20     -72.268-211.836  76.443  1.00 17.30 LIG 0.00  A 
ATOM     29  CE2 PHE C  20     -72.374-212.136  77.783  1.00 18.45 LIG 0.00  A 
ATOM     30  CD2 PHE C  20     -72.088-211.167  78.730  1.00 20.64 LIG 0.01  A 
ENDBRANCH 24 25
ENDBRANCH 23 24
BRANCH 23 31
ATOM     31  C   PHE C  20     -72.582-206.665  79.034  1.00 41.21 LIG 0.20  C 
ATOM     32 OXT  PHE C  20     -71.944-205.702  79.457  1.00 46.78 LIG-0.65  OA
ATOM     33 O    PHE C  20     -73.213-206.521  77.983  1.00 43.65 LIG-0.65  OA
ENDBRANCH 23 31
ENDBRANCH 20 23
ENDBRANCH 15 19
ENDBRANCH 5 12
ENDBRANCH 3 5
BRANCH 1 34
ATOM     34  CA  ASN C  17     -81.103-212.989  83.208  1.00 16.90 LIG 0.18  C 
BRANCH 34 35
ATOM     35  N   ASN C  17     -82.279-212.732  84.026  1.00 20.58 LIG-0.35  N 
ATOM     36  C   VAL C  16     -82.492-213.403  85.154  1.00 27.16 LIG 0.24  C 
ATOM     37 O    VAL C  16     -81.838-214.396  85.472  1.00 29.43 LIG-0.27  OA
ATOM     38 H    ASN C  17     -82.805-212.125  83.718  1.00 20.58 LIG 0.16  HD
BRANCH 36 39
ATOM     39  CA  VAL C  16     -83.614-212.887  86.052  1.00 33.54 LIG 0.18  C 
BRANCH 39 40
ATOM     40  CB  VAL C  16     -84.977-213.358  85.492  1.00 32.44 LIG 0.01  C 
ATOM     41  CG2 VAL C  16     -85.070-214.884  85.531  1.00 34.10 LIG 0.01  C 
ATOM     42  CG1 VAL C  16     -85.215-212.818  84.075  1.00 32.37 LIG 0.01  C 
ENDBRANCH 39 40
BRANCH 39 43
ATOM     43  N   VAL C  16     -83.576-211.433  86.161  1.00 45.58 LIG-0.34  N 
ATOM     44  C   GLN C  15     -82.509-210.781  86.606  1.00 57.61 LIG 0.26  C 
ATOM     45 O    GLN C  15     -81.464-211.347  86.932  1.00 61.53 LIG-0.27  OA
ATOM     46 H    VAL C  16     -84.302-211.044  85.913  1.00 45.58 LIG 0.16  HD
BRANCH 44 47
ATOM     47  CA  GLN C  15     -82.643-209.263  86.689  1.00 63.44 LIG 0.40  C 
ATOM     48  N   GLN C  15     -83.996-208.844  86.338  1.00 62.08 LIG 0.61  N 
BRANCH 47 49
ATOM     49  CB  GLN C  15     -82.282-208.777  88.091  1.00 68.54 LIG 0.06  C 
BRANCH 49 50
ATOM     50  CG  GLN C  15     -82.653-209.760  89.196  1.00 72.89 LIG 0.10  C 
BRANCH 50 51
ATOM     51  CD  GLN C  15     -81.476-210.199  90.050  1.00 75.77 LIG 0.21  C 
ATOM     52 OE1  GLN C  15     -80.354-209.720  89.887  1.00 77.61 LIG-0.27  OA
ATOM     53  NE2 GLN C  15     -81.731-211.124  90.967  1.00 76.03 LIG-0.37  N 
ATOM     54 22HE GLN C  15     -81.101-211.411  91.476  1.00 76.03 LIG 0.16  HD
ATOM     55 21HE GLN C  15     -82.528-211.435  91.052  1.00 76.03 LIG 0.16  HD
ENDBRANCH 50 51
ENDBRANCH 49 50
ENDBRANCH 47 49
ENDBRANCH 44 47
ENDBRANCH 39 43
ENDBRANCH 36 39
ENDBRANCH 34 35
BRANCH 34 56
ATOM     56  CB  ASN C  17     -81.492-213.602  81.860  1.00 15.63 LIG 0.14  C 
BRANCH 56 57
ATOM     57  CG  ASN C  17     -81.667-215.107  81.929  1.00 17.63 LIG 0.22  C 
ATOM     58 OD1  ASN C  17     -80.726-215.867  81.689  1.00 24.00 LIG-0.27  OA
ATOM     59  ND2 ASN C  17     -82.879-215.548  82.243  1.00 16.48 LIG-0.37  N 
ATOM     60 21HD ASN C  17     -83.031-216.393  82.285  1.00 16.48 LIG 0.16  HD
ATOM     61 22HD ASN C  17     -83.512-214.988  82.404  1.00 16.48 LIG 0.16  HD
ENDBRANCH 56 57
ENDBRANCH 34 56
ENDBRANCH 1 34
TORSDOF 20
ENDMDL
MODEL 31
USER: ADFR SOLUTION from run 182
USER: SCORE 16.989951 LL:  -4.363 LR: -13.632 RR:   0.000 FEB:  -7.666
USER: RMSD 10.366304
USER: SEED 181
USER: STATUS no improvement in best in 6 clusters for 5 generations
USER: GENES 22
USER: genes 0 Translation |==|  0.65563 0.42550 0.40043
USER: genes 1 Rotation |==|  0.35688 0.97113 0.43200 0.55411
USER: genes 2 Torsion [C]-N--CA-[CB] |==|  0.53594
USER: genes 3 Torsion [N]-CA--CB-[CG] |==|  0.93535
USER: genes 4 Torsion [CA]-CB--CG-[OD1] |==|  0.16763
USER: genes 5 Torsion [N]-CA--C-[N] |==|  0.43572
USER: genes 6 Torsion [N]-CA--C-[O] |==|  0.02834
USER: genes 7 Torsion [C]-N--CA-[CB] |==|  0.15359
USER: genes 8 Torsion [N]-CA--CB-[CG] |==|  0.20519
USER: genes 9 Torsion [CA]-CB--CG-[CD1] |==|  0.75802
USER: genes 10 Torsion [N]-CA--C-[O] |==|  0.45172
USER: genes 11 Torsion [N]-C--CA-[N] |==|  0.03644
USER: genes 12 Torsion [C]-CA--N-[C] |==|  0.24787
USER: genes 13 Torsion [N]-C--CA-[N] |==|  0.02209
USER: genes 14 Torsion [C]-CA--CB-[CG2] |==|  0.28439
USER: genes 15 Torsion [C]-CA--N-[C] |==|  0.73962
USER: genes 16 Torsion [N]-C--CA-[N] |==|  0.36080
USER: genes 17 Torsion [C]-CA--CB-[CG] |==|  0.09251
USER: genes 18 Torsion [CA]-CB--CG-[CD] |==|  0.71034
USER: genes 19 Torsion [CB]-CG--CD-[OE1] |==|  0.12449
USER: genes 20 Torsion [C]-CA--CB-[CG] |==|  0.42249
USER: genes 21 Torsion [CA]-CB--CG-[OD1] |==|  0.29762
ROOT
ATOM      1  C   ASN C  17     -74.820-210.638  80.354  1.00 20.61 LIG 0.24  C 
ATOM      2 O    ASN C  17     -74.815-211.598  81.124  1.00 16.51 LIG-0.27  OA
ATOM      3  N   ASN C  18     -75.385-209.468  80.644  1.00 22.51 LIG-0.35  N 
ATOM      4 H    ASN C  18     -75.423-208.808  80.093  1.00 22.51 LIG 0.16  HD
ENDROOT
BRANCH 3 5
ATOM      5  CA  ASN C  18     -75.997-209.201  81.941  1.00 19.22 LIG 0.18  C 
BRANCH 5 6
ATOM      6  CB  ASN C  18     -76.833-207.919  81.875  1.00 16.89 LIG 0.14  C 
BRANCH 6 7
ATOM      7  CG  ASN C  18     -76.391-206.992  80.760  1.00 20.14 LIG 0.22  C 
ATOM      8  ND2 ASN C  18     -75.995-205.776  81.123  1.00 20.12 LIG-0.37  N 
ATOM      9 22HD ASN C  18     -75.989-205.557  81.955  1.00 20.12 LIG 0.16  HD
ATOM     10 21HD ASN C  18     -75.745-205.209  80.527  1.00 20.12 LIG 0.16  HD
ATOM     11 OD1  ASN C  18     -76.420-207.357  79.584  1.00 18.28 LIG-0.27  OA
ENDBRANCH 6 7
ENDBRANCH 5 6
BRANCH 5 12
ATOM     12  C   ASN C  18     -76.872-210.366  82.411  1.00 21.33 LIG 0.24  C 
ATOM     13  N   PRO C  19     -77.098-210.473  83.731  1.00 20.66 LIG-0.34  N 
ATOM     14  CD  PRO C  19     -76.473-209.697  84.817  1.00 23.11 LIG 0.13  C 
ATOM     15  CA  PRO C  19     -77.940-211.552  84.256  1.00 23.26 LIG 0.18  C 
ATOM     16  CG  PRO C  19     -77.023-210.335  86.072  1.00 22.87 LIG 0.02  C 
ATOM     17  CB  PRO C  19     -77.423-211.716  85.683  1.00 23.39 LIG 0.04  C 
ATOM     18 O    ASN C  18     -77.343-211.157  81.594  1.00 23.13 LIG-0.27  OA
BRANCH 15 19
ATOM     19  C   PRO C  19     -79.431-211.211  84.267  1.00 24.54 LIG 0.24  C 
ATOM     20  N   PHE C  20     -80.238-212.044  84.917  1.00 23.51 LIG-0.34  N 
ATOM     21 H    PHE C  20     -79.963-212.688  85.418  1.00 23.51 LIG 0.16  HD
ATOM     22 O    PRO C  19     -79.830-210.198  83.687  1.00 27.52 LIG-0.27  OA
BRANCH 20 23
ATOM     23  CA  PHE C  20     -81.693-211.926  84.828  1.00 27.49 LIG 0.19  C 
BRANCH 23 24
ATOM     24  CB  PHE C  20     -82.113-211.970  83.359  1.00 22.62 LIG 0.07  C 
BRANCH 24 25
ATOM     25  CG  PHE C  20     -82.019-213.340  82.762  1.00 18.80 LIG-0.06  A 
ATOM     26  CD1 PHE C  20     -80.830-213.777  82.210  1.00 16.53 LIG 0.01  A 
ATOM     27  CE1 PHE C  20     -80.722-215.040  81.675  1.00 18.06 LIG 0.00  A 
ATOM     28  CZ  PHE C  20     -81.811-215.896  81.693  1.00 17.30 LIG 0.00  A 
ATOM     29  CE2 PHE C  20     -83.000-215.478  82.247  1.00 18.45 LIG 0.00  A 
ATOM     30  CD2 PHE C  20     -83.101-214.206  82.784  1.00 20.64 LIG 0.01  A 
ENDBRANCH 24 25
ENDBRANCH 23 24
BRANCH 23 31
ATOM     31  C   PHE C  20     -82.421-213.004  85.628  1.00 41.21 LIG 0.20  C 
ATOM     32 OXT  PHE C  20     -81.841-214.021  86.008  1.00 46.78 LIG-0.65  OA
ATOM     33 O    PHE C  20     -83.612-212.875  85.925  1.00 43.65 LIG-0.65  OA
ENDBRANCH 23 31
ENDBRANCH 20 23
ENDBRANCH 15 19
ENDBRANCH 5 12
ENDBRANCH 3 5
BRANCH 1 34
ATOM     34  CA  ASN C  17     -74.140-210.740  78.995  1.00 16.90 LIG 0.18  C 
BRANCH 34 35
ATOM     35  N   ASN C  17     -74.006-209.399  78.445  1.00 20.58 LIG-0.35  N 
ATOM     36  C   VAL C  16     -72.933-208.657  78.698  1.00 27.16 LIG 0.24  C 
ATOM     37 O    VAL C  16     -72.099-208.960  79.551  1.00 29.43 LIG-0.27  OA
ATOM     38 H    ASN C  17     -74.667-209.144  77.957  1.00 20.58 LIG 0.16  HD
BRANCH 36 39
ATOM     39  CA  VAL C  16     -72.782-207.377  77.880  1.00 33.54 LIG 0.18  C 
BRANCH 39 40
ATOM     40  CB  VAL C  16     -72.492-206.191  78.830  1.00 32.44 LIG 0.01  C 
ATOM     41  CG2 VAL C  16     -71.006-205.832  78.794  1.00 34.10 LIG 0.01  C 
ATOM     42  CG1 VAL C  16     -72.962-206.493  80.260  1.00 32.37 LIG 0.01  C 
ENDBRANCH 39 40
BRANCH 39 43
ATOM     43  N   VAL C  16     -73.975-207.117  77.082  1.00 45.58 LIG-0.34  N 
ATOM     44  C   GLN C  15     -74.089-207.521  75.822  1.00 57.61 LIG 0.26  C 
ATOM     45 O    GLN C  15     -73.215-208.167  75.242  1.00 61.53 LIG-0.27  OA
ATOM     46 H    VAL C  16     -74.589-206.683  77.499  1.00 45.58 LIG 0.16  HD
BRANCH 44 47
ATOM     47  CA  GLN C  15     -75.389-207.142  75.117  1.00 63.44 LIG 0.40  C 
ATOM     48  N   GLN C  15     -75.114-206.521  73.826  1.00 62.08 LIG 0.61  N 
BRANCH 47 49
ATOM     49  CB  GLN C  15     -76.271-208.376  74.938  1.00 68.54 LIG 0.06  C 
BRANCH 49 50
ATOM     50  CG  GLN C  15     -76.143-209.391  76.069  1.00 72.89 LIG 0.10  C 
BRANCH 50 51
ATOM     51  CD  GLN C  15     -75.324-210.617  75.704  1.00 75.77 LIG 0.21  C 
ATOM     52 OE1  GLN C  15     -74.255-210.518  75.103  1.00 77.61 LIG-0.27  OA
ATOM     53  NE2 GLN C  15     -75.833-211.789  76.066  1.00 76.03 LIG-0.37  N 
ATOM     54 22HE GLN C  15     -75.413-212.516  75.882  1.00 76.03 LIG 0.16  HD
ATOM     55 21HE GLN C  15     -76.583-211.820  76.486  1.00 76.03 LIG 0.16  HD
ENDBRANCH 50 51
ENDBRANCH 49 50
ENDBRANCH 47 49
ENDBRANCH 44 47
ENDBRANCH 39 43
ENDBRANCH 36 39
ENDBRANCH 34 35
BRANCH 34 56
ATOM     56  CB  ASN C  17     -72.776-211.425  79.117  1.00 15.63 LIG 0.14  C 
BRANCH 56 57
ATOM     57  CG  ASN C  17     -72.367-212.147  77.848  1.00 17.63 LIG 0.22  C 
ATOM     58 OD1  ASN C  17     -71.478-211.698  77.121  1.00 24.00 LIG-0.27  OA
ATOM     59  ND2 ASN C  17     -73.025-213.265  77.565  1.00 16.48 LIG-0.37  N 
ATOM     60 21HD ASN C  17     -72.836-213.705  76.850  1.00 16.48 LIG 0.16  HD
ATOM     61 22HD ASN C  17     -73.639-213.548  78.095  1.00 16.48 LIG 0.16  HD
ENDBRANCH 56 57
ENDBRANCH 34 56
ENDBRANCH 1 34
TORSDOF 20
ENDMDL
MODEL 32
USER: ADFR SOLUTION from run 120
USER: SCORE 15.364762 LL:  -3.631 LR: -13.621 RR:   0.000 FEB:  -7.655
USER: RMSD 7.570245
USER: SEED 119
USER: STATUS no improvement in best in 16 clusters for 5 generations
USER: GENES 22
USER: genes 0 Translation |==|  0.57564 0.49528 0.27440
USER: genes 1 Rotation |==|  0.56013 0.17534 0.18246 0.70036
USER: genes 2 Torsion [C]-N--CA-[CB] |==|  0.15646
USER: genes 3 Torsion [N]-CA--CB-[CG] |==|  0.45740
USER: genes 4 Torsion [CA]-CB--CG-[OD1] |==|  0.61132
USER: genes 5 Torsion [N]-CA--C-[N] |==|  0.87456
USER: genes 6 Torsion [N]-CA--C-[O] |==|  0.10368
USER: genes 7 Torsion [C]-N--CA-[CB] |==|  0.47143
USER: genes 8 Torsion [N]-CA--CB-[CG] |==|  0.69598
USER: genes 9 Torsion [CA]-CB--CG-[CD1] |==|  0.41049
USER: genes 10 Torsion [N]-CA--C-[O] |==|  0.29508
USER: genes 11 Torsion [N]-C--CA-[N] |==|  0.86971
USER: genes 12 Torsion [C]-CA--N-[C] |==|  0.84025
USER: genes 13 Torsion [N]-C--CA-[N] |==|  0.45733
USER: genes 14 Torsion [C]-CA--CB-[CG2] |==|  0.26585
USER: genes 15 Torsion [C]-CA--N-[C] |==|  0.20000
USER: genes 16 Torsion [N]-C--CA-[N] |==|  0.13522
USER: genes 17 Torsion [C]-CA--CB-[CG] |==|  0.59508
USER: genes 18 Torsion [CA]-CB--CG-[CD] |==|  0.44682
USER: genes 19 Torsion [CB]-CG--CD-[OE1] |==|  0.00886
USER: genes 20 Torsion [C]-CA--CB-[CG] |==|  0.21663
USER: genes 21 Torsion [CA]-CB--CG-[OD1] |==|  0.25182
ROOT
ATOM      1  C   ASN C  17     -76.500-209.592  77.234  1.00 20.61 LIG 0.24  C 
ATOM      2 O    ASN C  17     -76.786-210.445  76.395  1.00 16.51 LIG-0.27  OA
ATOM      3  N   ASN C  18     -75.499-209.724  78.103  1.00 22.51 LIG-0.35  N 
ATOM      4 H    ASN C  18     -75.320-209.147  78.715  1.00 22.51 LIG 0.16  HD
ENDROOT
BRANCH 3 5
ATOM      5  CA  ASN C  18     -74.606-210.878  78.089  1.00 19.22 LIG 0.18  C 
BRANCH 5 6
ATOM      6  CB  ASN C  18     -73.954-211.023  76.710  1.00 16.89 LIG 0.14  C 
BRANCH 6 7
ATOM      7  CG  ASN C  18     -72.756-211.953  76.727  1.00 20.14 LIG 0.22  C 
ATOM      8  ND2 ASN C  18     -72.861-213.039  77.485  1.00 20.12 LIG-0.37  N 
ATOM      9 22HD ASN C  18     -73.586-213.189  77.924  1.00 20.12 LIG 0.16  HD
ATOM     10 21HD ASN C  18     -72.204-213.592  77.537  1.00 20.12 LIG 0.16  HD
ATOM     11 OD1  ASN C  18     -71.742-211.690  76.080  1.00 18.28 LIG-0.27  OA
ENDBRANCH 6 7
ENDBRANCH 5 6
BRANCH 5 12
ATOM     12  C   ASN C  18     -73.522-210.775  79.166  1.00 21.33 LIG 0.24  C 
ATOM     13  N   PRO C  19     -72.895-209.594  79.297  1.00 20.66 LIG-0.34  N 
ATOM     14  CD  PRO C  19     -73.004-208.414  78.422  1.00 23.11 LIG 0.13  C 
ATOM     15  CA  PRO C  19     -71.858-209.413  80.317  1.00 23.26 LIG 0.18  C 
ATOM     16  CG  PRO C  19     -71.992-207.449  78.994  1.00 22.87 LIG 0.02  C 
ATOM     17  CB  PRO C  19     -71.006-208.289  79.732  1.00 23.39 LIG 0.04  C 
ATOM     18 O    ASN C  18     -73.256-211.746  79.873  1.00 23.13 LIG-0.27  OA
BRANCH 15 19
ATOM     19  C   PRO C  19     -72.411-209.006  81.683  1.00 24.54 LIG 0.24  C 
ATOM     20  N   PHE C  20     -71.698-208.133  82.390  1.00 23.51 LIG-0.34  N 
ATOM     21 H    PHE C  20     -71.017-207.707  82.082  1.00 23.51 LIG 0.16  HD
ATOM     22 O    PRO C  19     -73.477-209.485  82.078  1.00 27.52 LIG-0.27  OA
BRANCH 20 23
ATOM     23  CA  PHE C  20     -72.026-207.825  83.781  1.00 27.49 LIG 0.19  C 
BRANCH 23 24
ATOM     24  CB  PHE C  20     -70.895-207.000  84.395  1.00 22.62 LIG 0.07  C 
BRANCH 24 25
ATOM     25  CG  PHE C  20     -70.099-207.761  85.411  1.00 18.80 LIG-0.06  A 
ATOM     26  CD1 PHE C  20     -68.752-207.503  85.573  1.00 16.53 LIG 0.01  A 
ATOM     27  CE1 PHE C  20     -68.011-208.179  86.514  1.00 18.06 LIG 0.00  A 
ATOM     28  CZ  PHE C  20     -68.616-209.129  87.321  1.00 17.30 LIG 0.00  A 
ATOM     29  CE2 PHE C  20     -69.960-209.393  87.177  1.00 18.45 LIG 0.00  A 
ATOM     30  CD2 PHE C  20     -70.699-208.706  86.228  1.00 20.64 LIG 0.01  A 
ENDBRANCH 24 25
ENDBRANCH 23 24
BRANCH 23 31
ATOM     31  C   PHE C  20     -73.361-207.098  83.923  1.00 41.21 LIG 0.20  C 
ATOM     32 OXT  PHE C  20     -73.486-205.918  83.596  1.00 46.78 LIG-0.65  OA
ATOM     33 O    PHE C  20     -74.356-207.682  84.362  1.00 43.65 LIG-0.65  OA
ENDBRANCH 23 31
ENDBRANCH 20 23
ENDBRANCH 15 19
ENDBRANCH 5 12
ENDBRANCH 3 5
BRANCH 1 34
ATOM     34  CA  ASN C  17     -77.290-208.292  77.310  1.00 16.90 LIG 0.18  C 
BRANCH 34 35
ATOM     35  N   ASN C  17     -77.611-208.029  78.705  1.00 20.58 LIG-0.35  N 
ATOM     36  C   VAL C  16     -78.292-208.909  79.432  1.00 27.16 LIG 0.24  C 
ATOM     37 O    VAL C  16     -78.855-209.886  78.939  1.00 29.43 LIG-0.27  OA
ATOM     38 H    ASN C  17     -77.326-207.273  79.002  1.00 20.58 LIG 0.16  HD
BRANCH 36 39
ATOM     39  CA  VAL C  16     -78.359-208.645  80.934  1.00 33.54 LIG 0.18  C 
BRANCH 39 40
ATOM     40  CB  VAL C  16     -76.981-208.948  81.571  1.00 32.44 LIG 0.01  C 
ATOM     41  CG2 VAL C  16     -76.161-207.663  81.698  1.00 34.10 LIG 0.01  C 
ATOM     42  CG1 VAL C  16     -76.223-210.021  80.777  1.00 32.37 LIG 0.01  C 
ENDBRANCH 39 40
BRANCH 39 43
ATOM     43  N   VAL C  16     -79.403-209.444  81.564  1.00 45.58 LIG-0.34  N 
ATOM     44  C   GLN C  15     -79.291-210.756  81.733  1.00 57.61 LIG 0.26  C 
ATOM     45 O    GLN C  15     -78.291-211.393  81.399  1.00 61.53 LIG-0.27  OA
ATOM     46 H    VAL C  16     -80.091-208.990  81.812  1.00 45.58 LIG 0.16  HD
BRANCH 44 47
ATOM     47  CA  GLN C  15     -80.488-211.449  82.381  1.00 63.44 LIG 0.40  C 
ATOM     48  N   GLN C  15     -81.730-211.046  81.733  1.00 62.08 LIG 0.61  N 
BRANCH 47 49
ATOM     49  CB  GLN C  15     -80.319-212.965  82.313  1.00 68.54 LIG 0.06  C 
BRANCH 49 50
ATOM     50  CG  GLN C  15     -81.631-213.721  82.134  1.00 72.89 LIG 0.10  C 
BRANCH 50 51
ATOM     51  CD  GLN C  15     -81.459-215.138  81.614  1.00 75.77 LIG 0.21  C 
ATOM     52 OE1  GLN C  15     -80.342-215.619  81.426  1.00 77.61 LIG-0.27  OA
ATOM     53  NE2 GLN C  15     -82.576-215.812  81.373  1.00 76.03 LIG-0.37  N 
ATOM     54 22HE GLN C  15     -82.537-216.617  81.074  1.00 76.03 LIG 0.16  HD
ATOM     55 21HE GLN C  15     -83.340-215.444  81.517  1.00 76.03 LIG 0.16  HD
ENDBRANCH 50 51
ENDBRANCH 49 50
ENDBRANCH 47 49
ENDBRANCH 44 47
ENDBRANCH 39 43
ENDBRANCH 36 39
ENDBRANCH 34 35
BRANCH 34 56
ATOM     56  CB  ASN C  17     -76.494-207.135  76.699  1.00 15.63 LIG 0.14  C 
BRANCH 56 57
ATOM     57  CG  ASN C  17     -76.525-207.140  75.183  1.00 17.63 LIG 0.22  C 
ATOM     58 OD1  ASN C  17     -77.398-206.528  74.563  1.00 24.00 LIG-0.27  OA
ATOM     59  ND2 ASN C  17     -75.579-207.844  74.574  1.00 16.48 LIG-0.37  N 
ATOM     60 21HD ASN C  17     -75.559-207.886  73.715  1.00 16.48 LIG 0.16  HD
ATOM     61 22HD ASN C  17     -74.986-208.259  75.039  1.00 16.48 LIG 0.16  HD
ENDBRANCH 56 57
ENDBRANCH 34 56
ENDBRANCH 1 34
TORSDOF 20
ENDMDL
MODEL 33
USER: ADFR SOLUTION from run 179
USER: SCORE 15.989138 LL:  -3.979 LR: -13.598 RR:   0.000 FEB:  -7.632
USER: RMSD 8.444494
USER: SEED 178
USER: STATUS no improvement in best in 16 clusters for 5 generations
USER: GENES 22
USER: genes 0 Translation |==|  0.73104 0.52274 0.27393
USER: genes 1 Rotation |==|  0.05435 0.67347 0.64582 0.50598
USER: genes 2 Torsion [C]-N--CA-[CB] |==|  0.82222
USER: genes 3 Torsion [N]-CA--CB-[CG] |==|  0.90165
USER: genes 4 Torsion [CA]-CB--CG-[OD1] |==|  0.32053
USER: genes 5 Torsion [N]-CA--C-[N] |==|  0.15010
USER: genes 6 Torsion [N]-CA--C-[O] |==|  0.76437
USER: genes 7 Torsion [C]-N--CA-[CB] |==|  0.46851
USER: genes 8 Torsion [N]-CA--CB-[CG] |==|  0.29809
USER: genes 9 Torsion [CA]-CB--CG-[CD1] |==|  0.74512
USER: genes 10 Torsion [N]-CA--C-[O] |==|  0.92642
USER: genes 11 Torsion [N]-C--CA-[N] |==|  0.99852
USER: genes 12 Torsion [C]-CA--N-[C] |==|  0.24663
USER: genes 13 Torsion [N]-C--CA-[N] |==|  0.46139
USER: genes 14 Torsion [C]-CA--CB-[CG2] |==|  0.85625
USER: genes 15 Torsion [C]-CA--N-[C] |==|  0.81074
USER: genes 16 Torsion [N]-C--CA-[N] |==|  0.16390
USER: genes 17 Torsion [C]-CA--CB-[CG] |==|  0.78384
USER: genes 18 Torsion [CA]-CB--CG-[CD] |==|  0.37019
USER: genes 19 Torsion [CB]-CG--CD-[OE1] |==|  0.86470
USER: genes 20 Torsion [C]-CA--CB-[CG] |==|  0.45702
USER: genes 21 Torsion [CA]-CB--CG-[OD1] |==|  0.34907
ROOT
ATOM      1  C   ASN C  17     -73.236-209.180  77.223  1.00 20.61 LIG 0.24  C 
ATOM      2 O    ASN C  17     -72.066-208.802  77.249  1.00 16.51 LIG-0.27  OA
ATOM      3  N   ASN C  18     -73.750-210.037  78.103  1.00 22.51 LIG-0.35  N 
ATOM      4 H    ASN C  18     -74.557-210.332  78.065  1.00 22.51 LIG 0.16  HD
ENDROOT
BRANCH 3 5
ATOM      5  CA  ASN C  18     -72.975-210.557  79.224  1.00 19.22 LIG 0.18  C 
BRANCH 5 6
ATOM      6  CB  ASN C  18     -71.800-211.395  78.710  1.00 16.89 LIG 0.14  C 
BRANCH 6 7
ATOM      7  CG  ASN C  18     -72.145-212.173  77.455  1.00 20.14 LIG 0.22  C 
ATOM      8  ND2 ASN C  18     -73.066-213.123  77.582  1.00 20.12 LIG-0.37  N 
ATOM      9 22HD ASN C  18     -73.439-213.261  78.344  1.00 20.12 LIG 0.16  HD
ATOM     10 21HD ASN C  18     -73.288-213.600  76.901  1.00 20.12 LIG 0.16  HD
ATOM     11 OD1  ASN C  18     -71.579-211.934  76.387  1.00 18.28 LIG-0.27  OA
ENDBRANCH 6 7
ENDBRANCH 5 6
BRANCH 5 12
ATOM     12  C   ASN C  18     -72.453-209.436  80.128  1.00 21.33 LIG 0.24  C 
ATOM     13  N   PRO C  19     -73.354-208.563  80.608  1.00 20.66 LIG-0.34  N 
ATOM     14  CD  PRO C  19     -74.778-208.447  80.246  1.00 23.11 LIG 0.13  C 
ATOM     15  CA  PRO C  19     -72.934-207.473  81.493  1.00 23.26 LIG 0.18  C 
ATOM     16  CG  PRO C  19     -75.242-207.228  81.009  1.00 22.87 LIG 0.02  C 
ATOM     17  CB  PRO C  19     -74.016-206.420  81.266  1.00 23.39 LIG 0.04  C 
ATOM     18 O    ASN C  18     -71.254-209.360  80.393  1.00 23.13 LIG-0.27  OA
BRANCH 15 19
ATOM     19  C   PRO C  19     -72.882-207.871  82.969  1.00 24.54 LIG 0.24  C 
ATOM     20  N   PHE C  20     -71.704-208.258  83.451  1.00 23.51 LIG-0.34  N 
ATOM     21 H    PHE C  20     -70.962-208.190  83.020  1.00 23.51 LIG 0.16  HD
ATOM     22 O    PRO C  19     -73.908-207.822  83.651  1.00 27.52 LIG-0.27  OA
BRANCH 20 23
ATOM     23  CA  PHE C  20     -71.578-208.845  84.784  1.00 27.49 LIG 0.19  C 
BRANCH 23 24
ATOM     24  CB  PHE C  20     -70.179-209.440  84.943  1.00 22.62 LIG 0.07  C 
BRANCH 24 25
ATOM     25  CG  PHE C  20     -69.299-208.635  85.851  1.00 18.80 LIG-0.06  A 
ATOM     26  CD1 PHE C  20     -68.486-207.647  85.332  1.00 16.53 LIG 0.01  A 
ATOM     27  CE1 PHE C  20     -67.686-206.886  86.154  1.00 18.06 LIG 0.00  A 
ATOM     28  CZ  PHE C  20     -67.696-207.102  87.522  1.00 17.30 LIG 0.00  A 
ATOM     29  CE2 PHE C  20     -68.507-208.078  88.055  1.00 18.45 LIG 0.00  A 
ATOM     30  CD2 PHE C  20     -69.310-208.838  87.221  1.00 20.64 LIG 0.01  A 
ENDBRANCH 24 25
ENDBRANCH 23 24
BRANCH 23 31
ATOM     31  C   PHE C  20     -71.866-207.841  85.898  1.00 41.21 LIG 0.20  C 
ATOM     32 OXT  PHE C  20     -72.266-208.206  87.003  1.00 46.78 LIG-0.65  OA
ATOM     33 O    PHE C  20     -71.691-206.632  85.720  1.00 43.65 LIG-0.65  OA
ENDBRANCH 23 31
ENDBRANCH 20 23
ENDBRANCH 15 19
ENDBRANCH 5 12
ENDBRANCH 3 5
BRANCH 1 34
ATOM     34  CA  ASN C  17     -74.191-208.653  76.160  1.00 16.90 LIG 0.18  C 
BRANCH 34 35
ATOM     35  N   ASN C  17     -75.497-209.259  76.372  1.00 20.58 LIG-0.35  N 
ATOM     36  C   VAL C  16     -76.393-208.697  77.177  1.00 27.16 LIG 0.24  C 
ATOM     37 O    VAL C  16     -76.118-207.764  77.931  1.00 29.43 LIG-0.27  OA
ATOM     38 H    ASN C  17     -75.627-209.992  75.941  1.00 20.58 LIG 0.16  HD
BRANCH 36 39
ATOM     39  CA  VAL C  16     -77.805-209.277  77.135  1.00 33.54 LIG 0.18  C 
BRANCH 39 40
ATOM     40  CB  VAL C  16     -78.480-208.890  75.798  1.00 32.44 LIG 0.01  C 
ATOM     41  CG2 VAL C  16     -78.380-207.381  75.569  1.00 34.10 LIG 0.01  C 
ATOM     42  CG1 VAL C  16     -79.938-209.368  75.751  1.00 32.37 LIG 0.01  C 
ENDBRANCH 39 40
BRANCH 39 43
ATOM     43  N   VAL C  16     -78.599-208.815  78.267  1.00 45.58 LIG-0.34  N 
ATOM     44  C   GLN C  15     -78.340-209.185  79.516  1.00 57.61 LIG 0.26  C 
ATOM     45 O    GLN C  15     -77.399-209.920  79.817  1.00 61.53 LIG-0.27  OA
ATOM     46 H    VAL C  16     -79.243-208.286  78.052  1.00 45.58 LIG 0.16  HD
BRANCH 44 47
ATOM     47  CA  GLN C  15     -79.285-208.636  80.582  1.00 63.44 LIG 0.40  C 
ATOM     48  N   GLN C  15     -80.660-209.044  80.312  1.00 62.08 LIG 0.61  N 
BRANCH 47 49
ATOM     49  CB  GLN C  15     -78.850-209.111  81.967  1.00 68.54 LIG 0.06  C 
BRANCH 49 50
ATOM     50  CG  GLN C  15     -79.240-210.554  82.271  1.00 72.89 LIG 0.10  C 
BRANCH 50 51
ATOM     51  CD  GLN C  15     -78.115-211.382  82.867  1.00 75.77 LIG 0.21  C 
ATOM     52 OE1  GLN C  15     -76.992-211.395  82.363  1.00 77.61 LIG-0.27  OA
ATOM     53  NE2 GLN C  15     -78.418-212.087  83.951  1.00 76.03 LIG-0.37  N 
ATOM     54 22HE GLN C  15     -77.820-212.576  84.327  1.00 76.03 LIG 0.16  HD
ATOM     55 21HE GLN C  15     -79.214-212.053  84.276  1.00 76.03 LIG 0.16  HD
ENDBRANCH 50 51
ENDBRANCH 49 50
ENDBRANCH 47 49
ENDBRANCH 44 47
ENDBRANCH 39 43
ENDBRANCH 36 39
ENDBRANCH 34 35
BRANCH 34 56
ATOM     56  CB  ASN C  17     -74.276-207.125  76.213  1.00 15.63 LIG 0.14  C 
BRANCH 56 57
ATOM     57  CG  ASN C  17     -74.902-206.530  74.967  1.00 17.63 LIG 0.22  C 
ATOM     58 OD1  ASN C  17     -75.871-205.771  75.043  1.00 24.00 LIG-0.27  OA
ATOM     59  ND2 ASN C  17     -74.360-206.882  73.807  1.00 16.48 LIG-0.37  N 
ATOM     60 21HD ASN C  17     -74.685-206.579  73.071  1.00 16.48 LIG 0.16  HD
ATOM     61 22HD ASN C  17     -73.684-207.414  73.792  1.00 16.48 LIG 0.16  HD
ENDBRANCH 56 57
ENDBRANCH 34 56
ENDBRANCH 1 34
TORSDOF 20
ENDMDL
MODEL 34
USER: ADFR SOLUTION from run 83
USER: SCORE 17.865878 LL:  -5.603 LR: -13.581 RR:   0.000 FEB:  -7.615
USER: RMSD 6.801392
USER: SEED 82
USER: STATUS no improvement in best in 10 clusters for 5 generations
USER: GENES 22
USER: genes 0 Translation |==|  0.59154 0.64816 0.37933
USER: genes 1 Rotation |==|  0.40327 0.66889 0.33522 0.93008
USER: genes 2 Torsion [C]-N--CA-[CB] |==|  0.54532
USER: genes 3 Torsion [N]-CA--CB-[CG] |==|  0.61631
USER: genes 4 Torsion [CA]-CB--CG-[OD1] |==|  0.75459
USER: genes 5 Torsion [N]-CA--C-[N] |==|  0.82193
USER: genes 6 Torsion [N]-CA--C-[O] |==|  0.48838
USER: genes 7 Torsion [C]-N--CA-[CB] |==|  0.28273
USER: genes 8 Torsion [N]-CA--CB-[CG] |==|  0.86010
USER: genes 9 Torsion [CA]-CB--CG-[CD1] |==|  0.84230
USER: genes 10 Torsion [N]-CA--C-[O] |==|  0.62865
USER: genes 11 Torsion [N]-C--CA-[N] |==|  0.45547
USER: genes 12 Torsion [C]-CA--N-[C] |==|  0.55000
USER: genes 13 Torsion [N]-C--CA-[N] |==|  0.35338
USER: genes 14 Torsion [C]-CA--CB-[CG2] |==|  0.73300
USER: genes 15 Torsion [C]-CA--N-[C] |==|  0.64742
USER: genes 16 Torsion [N]-C--CA-[N] |==|  0.59726
USER: genes 17 Torsion [C]-CA--CB-[CG] |==|  0.67092
USER: genes 18 Torsion [CA]-CB--CG-[CD] |==|  0.32942
USER: genes 19 Torsion [CB]-CG--CD-[OE1] |==|  0.93441
USER: genes 20 Torsion [C]-CA--CB-[CG] |==|  0.19372
USER: genes 21 Torsion [CA]-CB--CG-[OD1] |==|  0.68335
ROOT
ATOM      1  C   ASN C  17     -76.166-207.299  79.831  1.00 20.61 LIG 0.24  C 
ATOM      2 O    ASN C  17     -76.741-208.386  79.819  1.00 16.51 LIG-0.27  OA
ATOM      3  N   ASN C  18     -76.274-206.401  78.854  1.00 22.51 LIG-0.35  N 
ATOM      4 H    ASN C  18     -75.844-205.656  78.841  1.00 22.51 LIG 0.16  HD
ENDROOT
BRANCH 3 5
ATOM      5  CA  ASN C  18     -77.146-206.607  77.703  1.00 19.22 LIG 0.18  C 
BRANCH 5 6
ATOM      6  CB  ASN C  18     -76.771-205.638  76.577  1.00 16.89 LIG 0.14  C 
BRANCH 6 7
ATOM      7  CG  ASN C  18     -77.985-205.038  75.896  1.00 20.14 LIG 0.22  C 
ATOM      8  ND2 ASN C  18     -78.441-203.895  76.398  1.00 20.12 LIG-0.37  N 
ATOM      9 22HD ASN C  18     -78.043-203.531  77.067  1.00 20.12 LIG 0.16  HD
ATOM     10 21HD ASN C  18     -79.135-203.521  76.053  1.00 20.12 LIG 0.16  HD
ATOM     11 OD1  ASN C  18     -78.517-205.603  74.940  1.00 18.28 LIG-0.27  OA
ENDBRANCH 6 7
ENDBRANCH 5 6
BRANCH 5 12
ATOM     12  C   ASN C  18     -77.083-208.047  77.188  1.00 21.33 LIG 0.24  C 
ATOM     13  N   PRO C  19     -75.908-208.474  76.695  1.00 20.66 LIG-0.34  N 
ATOM     14  CD  PRO C  19     -74.697-207.676  76.436  1.00 23.11 LIG 0.13  C 
ATOM     15  CA  PRO C  19     -75.765-209.846  76.199  1.00 23.26 LIG 0.18  C 
ATOM     16  CG  PRO C  19     -73.754-208.659  75.781  1.00 22.87 LIG 0.02  C 
ATOM     17  CB  PRO C  19     -74.621-209.721  75.196  1.00 23.39 LIG 0.04  C 
ATOM     18 O    ASN C  18     -78.079-208.768  77.237  1.00 23.13 LIG-0.27  OA
BRANCH 15 19
ATOM     19  C   PRO C  19     -75.406-210.855  77.291  1.00 24.54 LIG 0.24  C 
ATOM     20  N   PHE C  20     -75.188-210.375  78.512  1.00 23.51 LIG-0.34  N 
ATOM     21 H    PHE C  20     -75.345-209.562  78.744  1.00 23.51 LIG 0.16  HD
ATOM     22 O    PRO C  19     -75.334-212.055  77.013  1.00 27.52 LIG-0.27  OA
BRANCH 20 23
ATOM     23  CA  PHE C  20     -74.650-211.216  79.580  1.00 27.49 LIG 0.19  C 
BRANCH 23 24
ATOM     24  CB  PHE C  20     -73.162-210.917  79.757  1.00 22.62 LIG 0.07  C 
BRANCH 24 25
ATOM     25  CG  PHE C  20     -72.398-210.959  78.469  1.00 18.80 LIG-0.06  A 
ATOM     26  CD1 PHE C  20     -72.416-212.098  77.688  1.00 16.53 LIG 0.01  A 
ATOM     27  CE1 PHE C  20     -71.736-212.146  76.493  1.00 18.06 LIG 0.00  A 
ATOM     28  CZ  PHE C  20     -71.027-211.039  76.054  1.00 17.30 LIG 0.00  A 
ATOM     29  CE2 PHE C  20     -71.006-209.893  76.818  1.00 18.45 LIG 0.00  A 
ATOM     30  CD2 PHE C  20     -71.694-209.853  78.018  1.00 20.64 LIG 0.01  A 
ENDBRANCH 24 25
ENDBRANCH 23 24
BRANCH 23 31
ATOM     31  C   PHE C  20     -75.395-211.038  80.901  1.00 41.21 LIG 0.20  C 
ATOM     32 OXT  PHE C  20     -76.625-211.043  80.948  1.00 46.78 LIG-0.65  OA
ATOM     33 O    PHE C  20     -74.779-210.896  81.961  1.00 43.65 LIG-0.65  OA
ENDBRANCH 23 31
ENDBRANCH 20 23
ENDBRANCH 15 19
ENDBRANCH 5 12
ENDBRANCH 3 5
BRANCH 1 34
ATOM     34  CA  ASN C  17     -75.288-206.906  81.012  1.00 16.90 LIG 0.18  C 
BRANCH 34 35
ATOM     35  N   ASN C  17     -75.582-207.800  82.122  1.00 20.58 LIG-0.35  N 
ATOM     36  C   VAL C  16     -75.240-207.485  83.367  1.00 27.16 LIG 0.24  C 
ATOM     37 O    VAL C  16     -74.496-206.542  83.636  1.00 29.43 LIG-0.27  OA
ATOM     38 H    ASN C  17     -75.984-208.527  81.900  1.00 20.58 LIG 0.16  HD
BRANCH 36 39
ATOM     39  CA  VAL C  16     -75.809-208.369  84.474  1.00 33.54 LIG 0.18  C 
BRANCH 39 40
ATOM     40  CB  VAL C  16     -76.855-207.568  85.285  1.00 32.44 LIG 0.01  C 
ATOM     41  CG2 VAL C  16     -76.213-206.968  86.537  1.00 34.10 LIG 0.01  C 
ATOM     42  CG1 VAL C  16     -78.071-208.435  85.639  1.00 32.37 LIG 0.01  C 
ENDBRANCH 39 40
BRANCH 39 43
ATOM     43  N   VAL C  16     -74.753-208.868  85.347  1.00 45.58 LIG-0.34  N 
ATOM     44  C   GLN C  15     -74.602-210.160  85.614  1.00 57.61 LIG 0.26  C 
ATOM     45 O    GLN C  15     -75.319-211.034  85.126  1.00 61.53 LIG-0.27  OA
ATOM     46 H    VAL C  16     -74.244-208.253  85.669  1.00 45.58 LIG 0.16  HD
BRANCH 44 47
ATOM     47  CA  GLN C  15     -73.466-210.513  86.571  1.00 63.44 LIG 0.40  C 
ATOM     48  N   GLN C  15     -72.854-211.783  86.198  1.00 62.08 LIG 0.61  N 
BRANCH 47 49
ATOM     49  CB  GLN C  15     -72.420-209.400  86.582  1.00 68.54 LIG 0.06  C 
BRANCH 49 50
ATOM     50  CG  GLN C  15     -71.041-209.850  86.113  1.00 72.89 LIG 0.10  C 
BRANCH 50 51
ATOM     51  CD  GLN C  15     -70.547-209.127  84.872  1.00 75.77 LIG 0.21  C 
ATOM     52 OE1  GLN C  15     -71.332-208.602  84.082  1.00 77.61 LIG-0.27  OA
ATOM     53  NE2 GLN C  15     -69.232-209.103  84.693  1.00 76.03 LIG-0.37  N 
ATOM     54 22HE GLN C  15     -68.899-208.710  84.005  1.00 76.03 LIG 0.16  HD
ATOM     55 21HE GLN C  15     -68.714-209.480  85.266  1.00 76.03 LIG 0.16  HD
ENDBRANCH 50 51
ENDBRANCH 49 50
ENDBRANCH 47 49
ENDBRANCH 44 47
ENDBRANCH 39 43
ENDBRANCH 36 39
ENDBRANCH 34 35
BRANCH 34 56
ATOM     56  CB  ASN C  17     -73.806-206.965  80.633  1.00 15.63 LIG 0.14  C 
BRANCH 56 57
ATOM     57  CG  ASN C  17     -73.406-205.874  79.658  1.00 17.63 LIG 0.22  C 
ATOM     58 OD1  ASN C  17     -73.048-206.148  78.510  1.00 24.00 LIG-0.27  OA
ATOM     59  ND2 ASN C  17     -73.451-204.628  80.114  1.00 16.48 LIG-0.37  N 
ATOM     60 21HD ASN C  17     -73.225-203.975  79.602  1.00 16.48 LIG 0.16  HD
ATOM     61 22HD ASN C  17     -73.706-204.475  80.921  1.00 16.48 LIG 0.16  HD
ENDBRANCH 56 57
ENDBRANCH 34 56
ENDBRANCH 1 34
TORSDOF 20
ENDMDL
MODEL 35
USER: ADFR SOLUTION from run 177
USER: SCORE 18.327216 LL:  -5.482 LR: -13.550 RR:   0.000 FEB:  -7.584
USER: RMSD 5.143423
USER: SEED 176
USER: STATUS no improvement in best in 3 clusters for 5 generations
USER: GENES 22
USER: genes 0 Translation |==|  0.76668 0.63128 0.51241
USER: genes 1 Rotation |==|  0.45932 0.64706 0.88082 0.78582
USER: genes 2 Torsion [C]-N--CA-[CB] |==|  0.52799
USER: genes 3 Torsion [N]-CA--CB-[CG] |==|  0.65126
USER: genes 4 Torsion [CA]-CB--CG-[OD1] |==|  0.39742
USER: genes 5 Torsion [N]-CA--C-[N] |==|  0.29504
USER: genes 6 Torsion [N]-CA--C-[O] |==|  0.15409
USER: genes 7 Torsion [C]-N--CA-[CB] |==|  0.78246
USER: genes 8 Torsion [N]-CA--CB-[CG] |==|  0.94080
USER: genes 9 Torsion [CA]-CB--CG-[CD1] |==|  0.83556
USER: genes 10 Torsion [N]-CA--C-[O] |==|  0.20212
USER: genes 11 Torsion [N]-C--CA-[N] |==|  0.93988
USER: genes 12 Torsion [C]-CA--N-[C] |==|  0.81313
USER: genes 13 Torsion [N]-C--CA-[N] |==|  0.94926
USER: genes 14 Torsion [C]-CA--CB-[CG2] |==|  0.81635
USER: genes 15 Torsion [C]-CA--N-[C] |==|  0.75859
USER: genes 16 Torsion [N]-C--CA-[N] |==|  0.87369
USER: genes 17 Torsion [C]-CA--CB-[CG] |==|  0.68656
USER: genes 18 Torsion [CA]-CB--CG-[CD] |==|  0.18806
USER: genes 19 Torsion [CB]-CG--CD-[OE1] |==|  0.73051
USER: genes 20 Torsion [C]-CA--CB-[CG] |==|  0.81395
USER: genes 21 Torsion [CA]-CB--CG-[OD1] |==|  0.93643
ROOT
ATOM      1  C   ASN C  17     -72.488-207.552  83.125  1.00 20.61 LIG 0.24  C 
ATOM      2 O    ASN C  17     -71.818-207.300  82.124  1.00 16.51 LIG-0.27  OA
ATOM      3  N   ASN C  18     -73.586-208.305  83.102  1.00 22.51 LIG-0.35  N 
ATOM      4 H    ASN C  18     -74.077-208.452  83.793  1.00 22.51 LIG 0.16  HD
ENDROOT
BRANCH 3 5
ATOM      5  CA  ASN C  18     -74.057-208.955  81.884  1.00 19.22 LIG 0.18  C 
BRANCH 5 6
ATOM      6  CB  ASN C  18     -75.457-209.536  82.105  1.00 16.89 LIG 0.14  C 
BRANCH 6 7
ATOM      7  CG  ASN C  18     -75.536-211.012  81.768  1.00 20.14 LIG 0.22  C 
ATOM      8  ND2 ASN C  18     -74.833-211.417  80.716  1.00 20.12 LIG-0.37  N 
ATOM      9 22HD ASN C  18     -74.357-210.853  80.274  1.00 20.12 LIG 0.16  HD
ATOM     10 21HD ASN C  18     -74.853-212.243  80.478  1.00 20.12 LIG 0.16  HD
ATOM     11 OD1  ASN C  18     -76.233-211.776  82.436  1.00 18.28 LIG-0.27  OA
ENDBRANCH 6 7
ENDBRANCH 5 6
BRANCH 5 12
ATOM     12  C   ASN C  18     -74.077-207.993  80.693  1.00 21.33 LIG 0.24  C 
ATOM     13  N   PRO C  19     -73.123-208.147  79.761  1.00 20.66 LIG-0.34  N 
ATOM     14  CD  PRO C  19     -71.946-209.033  79.814  1.00 23.11 LIG 0.13  C 
ATOM     15  CA  PRO C  19     -73.087-207.276  78.582  1.00 23.26 LIG 0.18  C 
ATOM     16  CG  PRO C  19     -71.184-208.692  78.554  1.00 22.87 LIG 0.02  C 
ATOM     17  CB  PRO C  19     -71.613-207.314  78.183  1.00 23.39 LIG 0.04  C 
ATOM     18 O    ASN C  18     -74.944-207.124  80.612  1.00 23.13 LIG-0.27  OA
BRANCH 15 19
ATOM     19  C   PRO C  19     -73.963-207.771  77.431  1.00 24.54 LIG 0.24  C 
ATOM     20  N   PHE C  20     -73.372-207.948  76.253  1.00 23.51 LIG-0.34  N 
ATOM     21 H    PHE C  20     -72.521-207.912  76.131  1.00 23.51 LIG 0.16  HD
ATOM     22 O    PRO C  19     -75.162-207.986  77.625  1.00 27.52 LIG-0.27  OA
BRANCH 20 23
ATOM     23  CA  PHE C  20     -74.144-208.227  75.043  1.00 27.49 LIG 0.19  C 
BRANCH 23 24
ATOM     24  CB  PHE C  20     -74.562-209.697  75.039  1.00 22.62 LIG 0.07  C 
BRANCH 24 25
ATOM     25  CG  PHE C  20     -73.703-210.553  75.919  1.00 18.80 LIG-0.06  A 
ATOM     26  CD1 PHE C  20     -72.343-210.636  75.693  1.00 16.53 LIG 0.01  A 
ATOM     27  CE1 PHE C  20     -71.538-211.402  76.504  1.00 18.06 LIG 0.00  A 
ATOM     28  CZ  PHE C  20     -72.087-212.098  77.568  1.00 17.30 LIG 0.00  A 
ATOM     29  CE2 PHE C  20     -73.441-212.019  77.811  1.00 18.45 LIG 0.00  A 
ATOM     30  CD2 PHE C  20     -74.244-211.245  76.991  1.00 20.64 LIG 0.01  A 
ENDBRANCH 24 25
ENDBRANCH 23 24
BRANCH 23 31
ATOM     31  C   PHE C  20     -75.365-207.321  74.903  1.00 41.21 LIG 0.20  C 
ATOM     32 OXT  PHE C  20     -76.504-207.745  75.096  1.00 46.78 LIG-0.65  OA
ATOM     33 O    PHE C  20     -75.238-206.130  74.604  1.00 43.65 LIG-0.65  OA
ENDBRANCH 23 31
ENDBRANCH 20 23
ENDBRANCH 15 19
ENDBRANCH 5 12
ENDBRANCH 3 5
BRANCH 1 34
ATOM     34  CA  ASN C  17     -72.069-207.013  84.486  1.00 16.90 LIG 0.18  C 
BRANCH 34 35
ATOM     35  N   ASN C  17     -73.231-207.020  85.362  1.00 20.58 LIG-0.35  N 
ATOM     36  C   VAL C  16     -74.264-206.214  85.139  1.00 27.16 LIG 0.24  C 
ATOM     37 O    VAL C  16     -74.227-205.294  84.323  1.00 29.43 LIG-0.27  OA
ATOM     38 H    ASN C  17     -73.184-207.577  86.016  1.00 20.58 LIG 0.16  HD
BRANCH 36 39
ATOM     39  CA  VAL C  16     -75.522-206.475  85.965  1.00 33.54 LIG 0.18  C 
BRANCH 39 40
ATOM     40  CB  VAL C  16     -75.637-205.404  87.076  1.00 32.44 LIG 0.01  C 
ATOM     41  CG2 VAL C  16     -74.495-205.556  88.082  1.00 34.10 LIG 0.01  C 
ATOM     42  CG1 VAL C  16     -77.006-205.465  87.769  1.00 32.37 LIG 0.01  C 
ENDBRANCH 39 40
BRANCH 39 43
ATOM     43  N   VAL C  16     -75.507-207.815  86.540  1.00 45.58 LIG-0.34  N 
ATOM     44  C   GLN C  15     -75.962-208.875  85.884  1.00 57.61 LIG 0.26  C 
ATOM     45 O    GLN C  15     -76.403-208.815  84.735  1.00 61.53 LIG-0.27  OA
ATOM     46 H    VAL C  16     -75.180-207.852  87.335  1.00 45.58 LIG 0.16  HD
BRANCH 44 47
ATOM     47  CA  GLN C  15     -75.904-210.201  86.639  1.00 63.44 LIG 0.40  C 
ATOM     48  N   GLN C  15     -74.612-210.365  87.294  1.00 62.08 LIG 0.61  N 
BRANCH 47 49
ATOM     49  CB  GLN C  15     -77.034-210.274  87.663  1.00 68.54 LIG 0.06  C 
BRANCH 49 50
ATOM     50  CG  GLN C  15     -76.553-210.258  89.110  1.00 72.89 LIG 0.10  C 
BRANCH 50 51
ATOM     51  CD  GLN C  15     -75.932-208.939  89.538  1.00 75.77 LIG 0.21  C 
ATOM     52 OE1  GLN C  15     -74.713-208.771  89.527  1.00 77.61 LIG-0.27  OA
ATOM     53  NE2 GLN C  15     -76.779-207.993  89.925  1.00 76.03 LIG-0.37  N 
ATOM     54 22HE GLN C  15     -76.482-207.228  90.181  1.00 76.03 LIG 0.16  HD
ATOM     55 21HE GLN C  15     -77.626-208.146  89.920  1.00 76.03 LIG 0.16  HD
ENDBRANCH 50 51
ENDBRANCH 49 50
ENDBRANCH 47 49
ENDBRANCH 44 47
ENDBRANCH 39 43
ENDBRANCH 36 39
ENDBRANCH 34 35
BRANCH 34 56
ATOM     56  CB  ASN C  17     -70.929-207.850  85.076  1.00 15.63 LIG 0.14  C 
BRANCH 56 57
ATOM     57  CG  ASN C  17     -71.359-209.261  85.427  1.00 17.63 LIG 0.22  C 
ATOM     58 OD1  ASN C  17     -72.544-209.529  85.640  1.00 24.00 LIG-0.27  OA
ATOM     59  ND2 ASN C  17     -70.396-210.171  85.505  1.00 16.48 LIG-0.37  N 
ATOM     60 21HD ASN C  17     -70.588-210.984  85.711  1.00 16.48 LIG 0.16  HD
ATOM     61 22HD ASN C  17     -69.580-209.948  85.350  1.00 16.48 LIG 0.16  HD
ENDBRANCH 56 57
ENDBRANCH 34 56
ENDBRANCH 1 34
TORSDOF 20
ENDMDL
MODEL 36
USER: ADFR SOLUTION from run 185
USER: SCORE 18.519175 LL:  -5.404 LR: -13.551 RR:   0.000 FEB:  -7.585
USER: RMSD 7.075655
USER: SEED 184
USER: STATUS searching
USER: GENES 22
USER: genes 0 Translation |==|  0.65499 0.51311 0.48387
USER: genes 1 Rotation |==|  0.47151 0.56338 0.00489 0.50602
USER: genes 2 Torsion [C]-N--CA-[CB] |==|  0.76722
USER: genes 3 Torsion [N]-CA--CB-[CG] |==|  0.04780
USER: genes 4 Torsion [CA]-CB--CG-[OD1] |==|  0.75722
USER: genes 5 Torsion [N]-CA--C-[N] |==|  0.21517
USER: genes 6 Torsion [N]-CA--C-[O] |==|  0.55555
USER: genes 7 Torsion [C]-N--CA-[CB] |==|  0.42594
USER: genes 8 Torsion [N]-CA--CB-[CG] |==|  0.89737
USER: genes 9 Torsion [CA]-CB--CG-[CD1] |==|  0.83077
USER: genes 10 Torsion [N]-CA--C-[O] |==|  0.44147
USER: genes 11 Torsion [N]-C--CA-[N] |==|  0.41762
USER: genes 12 Torsion [C]-CA--N-[C] |==|  0.65953
USER: genes 13 Torsion [N]-C--CA-[N] |==|  0.44717
USER: genes 14 Torsion [C]-CA--CB-[CG2] |==|  0.28508
USER: genes 15 Torsion [C]-CA--N-[C] |==|  0.82530
USER: genes 16 Torsion [N]-C--CA-[N] |==|  0.38932
USER: genes 17 Torsion [C]-CA--CB-[CG] |==|  0.25276
USER: genes 18 Torsion [CA]-CB--CG-[CD] |==|  0.84649
USER: genes 19 Torsion [CB]-CG--CD-[OE1] |==|  0.30553
USER: genes 20 Torsion [C]-CA--CB-[CG] |==|  0.41149
USER: genes 21 Torsion [CA]-CB--CG-[OD1] |==|  0.67518
ROOT
ATOM      1  C   ASN C  17     -74.833-209.324  82.419  1.00 20.61 LIG 0.24  C 
ATOM      2 O    ASN C  17     -75.347-208.226  82.208  1.00 16.51 LIG-0.27  OA
ATOM      3  N   ASN C  18     -74.658-210.245  81.473  1.00 22.51 LIG-0.35  N 
ATOM      4 H    ASN C  18     -74.334-211.027  81.624  1.00 22.51 LIG 0.16  HD
ENDROOT
BRANCH 3 5
ATOM      5  CA  ASN C  18     -75.005-210.001  80.077  1.00 19.22 LIG 0.18  C 
BRANCH 5 6
ATOM      6  CB  ASN C  18     -76.496-210.268  79.850  1.00 16.89 LIG 0.14  C 
BRANCH 6 7
ATOM      7  CG  ASN C  18     -77.286-210.298  81.144  1.00 20.14 LIG 0.22  C 
ATOM      8  ND2 ASN C  18     -77.820-209.147  81.538  1.00 20.12 LIG-0.37  N 
ATOM      9 22HD ASN C  18     -77.717-208.439  81.059  1.00 20.12 LIG 0.16  HD
ATOM     10 21HD ASN C  18     -78.268-209.110  82.271  1.00 20.12 LIG 0.16  HD
ATOM     11 OD1  ASN C  18     -77.402-211.340  81.790  1.00 18.28 LIG-0.27  OA
ENDBRANCH 6 7
ENDBRANCH 5 6
BRANCH 5 12
ATOM     12  C   ASN C  18     -74.664-208.572  79.644  1.00 21.33 LIG 0.24  C 
ATOM     13  N   PRO C  19     -73.375-208.299  79.382  1.00 20.66 LIG-0.34  N 
ATOM     14  CD  PRO C  19     -72.205-209.166  79.613  1.00 23.11 LIG 0.13  C 
ATOM     15  CA  PRO C  19     -72.972-206.959  78.946  1.00 23.26 LIG 0.18  C 
ATOM     16  CG  PRO C  19     -71.032-208.289  79.243  1.00 22.87 LIG 0.02  C 
ATOM     17  CB  PRO C  19     -71.513-206.886  79.389  1.00 23.39 LIG 0.04  C 
ATOM     18 O    ASN C  18     -75.551-207.726  79.543  1.00 23.13 LIG-0.27  OA
BRANCH 15 19
ATOM     19  C   PRO C  19     -73.080-206.752  77.435  1.00 24.54 LIG 0.24  C 
ATOM     20  N   PHE C  20     -73.872-207.584  76.764  1.00 23.51 LIG-0.34  N 
ATOM     21 H    PHE C  20     -74.404-208.147  77.137  1.00 23.51 LIG 0.16  HD
ATOM     22 O    PRO C  19     -72.445-205.841  76.897  1.00 27.52 LIG-0.27  OA
BRANCH 20 23
ATOM     23  CA  PHE C  20     -73.897-207.604  75.302  1.00 27.49 LIG 0.19  C 
BRANCH 23 24
ATOM     24  CB  PHE C  20     -74.323-208.992  74.824  1.00 22.62 LIG 0.07  C 
BRANCH 24 25
ATOM     25  CG  PHE C  20     -73.780-210.098  75.677  1.00 18.80 LIG-0.06  A 
ATOM     26  CD1 PHE C  20     -72.416-210.271  75.803  1.00 16.53 LIG 0.01  A 
ATOM     27  CE1 PHE C  20     -71.901-211.270  76.597  1.00 18.06 LIG 0.00  A 
ATOM     28  CZ  PHE C  20     -72.754-212.113  77.290  1.00 17.30 LIG 0.00  A 
ATOM     29  CE2 PHE C  20     -74.117-211.948  77.181  1.00 18.45 LIG 0.00  A 
ATOM     30  CD2 PHE C  20     -74.627-210.940  76.380  1.00 20.64 LIG 0.01  A 
ENDBRANCH 24 25
ENDBRANCH 23 24
BRANCH 23 31
ATOM     31  C   PHE C  20     -74.809-206.529  74.714  1.00 41.21 LIG 0.20  C 
ATOM     32 OXT  PHE C  20     -75.700-206.008  75.385  1.00 46.78 LIG-0.65  OA
ATOM     33 O    PHE C  20     -74.666-206.146  73.550  1.00 43.65 LIG-0.65  OA
ENDBRANCH 23 31
ENDBRANCH 20 23
ENDBRANCH 15 19
ENDBRANCH 5 12
ENDBRANCH 3 5
BRANCH 1 34
ATOM     34  CA  ASN C  17     -74.340-209.688  83.812  1.00 16.90 LIG 0.18  C 
BRANCH 34 35
ATOM     35  N   ASN C  17     -73.947-208.465  84.496  1.00 20.58 LIG-0.35  N 
ATOM     36  C   VAL C  16     -72.717-208.310  84.974  1.00 27.16 LIG 0.24  C 
ATOM     37 O    VAL C  16     -71.909-209.235  85.049  1.00 29.43 LIG-0.27  OA
ATOM     38 H    ASN C  17     -74.569-207.874  84.559  1.00 20.58 LIG 0.16  HD
BRANCH 36 39
ATOM     39  CA  VAL C  16     -72.343-206.907  85.449  1.00 33.54 LIG 0.18  C 
BRANCH 39 40
ATOM     40  CB  VAL C  16     -72.064-206.007  84.222  1.00 32.44 LIG 0.01  C 
ATOM     41  CG2 VAL C  16     -73.256-205.085  83.957  1.00 34.10 LIG 0.01  C 
ATOM     42  CG1 VAL C  16     -71.716-206.844  82.983  1.00 32.37 LIG 0.01  C 
ENDBRANCH 39 40
BRANCH 39 43
ATOM     43  N   VAL C  16     -71.187-206.942  86.336  1.00 45.58 LIG-0.34  N 
ATOM     44  C   GLN C  15     -71.206-207.571  87.505  1.00 57.61 LIG 0.26  C 
ATOM     45 O    GLN C  15     -72.185-208.195  87.916  1.00 61.53 LIG-0.27  OA
ATOM     46 H    VAL C  16     -70.500-206.520  86.034  1.00 45.58 LIG 0.16  HD
BRANCH 44 47
ATOM     47  CA  GLN C  15     -69.923-207.485  88.328  1.00 63.44 LIG 0.40  C 
ATOM     48  N   GLN C  15     -70.228-207.310  89.744  1.00 62.08 LIG 0.61  N 
BRANCH 47 49
ATOM     49  CB  GLN C  15     -69.076-208.739  88.117  1.00 68.54 LIG 0.06  C 
BRANCH 49 50
ATOM     50  CG  GLN C  15     -68.073-208.616  86.975  1.00 72.89 LIG 0.10  C 
BRANCH 50 51
ATOM     51  CD  GLN C  15     -68.699-208.233  85.645  1.00 75.77 LIG 0.21  C 
ATOM     52 OE1  GLN C  15     -68.511-207.124  85.144  1.00 77.61 LIG-0.27  OA
ATOM     53  NE2 GLN C  15     -69.457-209.157  85.068  1.00 76.03 LIG-0.37  N 
ATOM     54 22HE GLN C  15     -69.839-208.991  84.316  1.00 76.03 LIG 0.16  HD
ATOM     55 21HE GLN C  15     -69.566-209.921  85.447  1.00 76.03 LIG 0.16  HD
ENDBRANCH 50 51
ENDBRANCH 49 50
ENDBRANCH 47 49
ENDBRANCH 44 47
ENDBRANCH 39 43
ENDBRANCH 36 39
ENDBRANCH 34 35
BRANCH 34 56
ATOM     56  CB  ASN C  17     -75.423-210.435  84.596  1.00 15.63 LIG 0.14  C 
BRANCH 56 57
ATOM     57  CG  ASN C  17     -74.849-211.447  85.569  1.00 17.63 LIG 0.22  C 
ATOM     58 OD1  ASN C  17     -75.081-212.652  85.443  1.00 24.00 LIG-0.27  OA
ATOM     59  ND2 ASN C  17     -74.107-210.962  86.558  1.00 16.48 LIG-0.37  N 
ATOM     60 21HD ASN C  17     -73.768-211.494  87.141  1.00 16.48 LIG 0.16  HD
ATOM     61 22HD ASN C  17     -73.967-210.115  86.614  1.00 16.48 LIG 0.16  HD
ENDBRANCH 56 57
ENDBRANCH 34 56
ENDBRANCH 1 34
TORSDOF 20
ENDMDL
MODEL 37
USER: ADFR SOLUTION from run 26
USER: SCORE 17.535678 LL:  -4.682 LR: -13.519 RR:   0.000 FEB:  -7.553
USER: RMSD 4.799029
USER: SEED 25
USER: STATUS no improvement in best in 13 clusters for 5 generations
USER: GENES 22
USER: genes 0 Translation |==|  0.75225 0.54789 0.48056
USER: genes 1 Rotation |==|  0.36840 0.61495 0.72005 0.91358
USER: genes 2 Torsion [C]-N--CA-[CB] |==|  0.53826
USER: genes 3 Torsion [N]-CA--CB-[CG] |==|  0.76571
USER: genes 4 Torsion [CA]-CB--CG-[OD1] |==|  0.92808
USER: genes 5 Torsion [N]-CA--C-[N] |==|  0.41728
USER: genes 6 Torsion [N]-CA--C-[O] |==|  0.60473
USER: genes 7 Torsion [C]-N--CA-[CB] |==|  0.18750
USER: genes 8 Torsion [N]-CA--CB-[CG] |==|  0.23325
USER: genes 9 Torsion [CA]-CB--CG-[CD1] |==|  0.26959
USER: genes 10 Torsion [N]-CA--C-[O] |==|  0.98435
USER: genes 11 Torsion [N]-C--CA-[N] |==|  0.23100
USER: genes 12 Torsion [C]-CA--N-[C] |==|  0.76213
USER: genes 13 Torsion [N]-C--CA-[N] |==|  0.39382
USER: genes 14 Torsion [C]-CA--CB-[CG2] |==|  0.96642
USER: genes 15 Torsion [C]-CA--N-[C] |==|  0.71111
USER: genes 16 Torsion [N]-C--CA-[N] |==|  0.24711
USER: genes 17 Torsion [C]-CA--CB-[CG] |==|  0.43980
USER: genes 18 Torsion [CA]-CB--CG-[CD] |==|  0.26318
USER: genes 19 Torsion [CB]-CG--CD-[OE1] |==|  0.75375
USER: genes 20 Torsion [C]-CA--CB-[CG] |==|  0.69931
USER: genes 21 Torsion [CA]-CB--CG-[OD1] |==|  0.72132
ROOT
ATOM      1  C   ASN C  17     -72.791-208.803  82.337  1.00 20.61 LIG 0.24  C 
ATOM      2 O    ASN C  17     -71.784-209.355  81.896  1.00 16.51 LIG-0.27  OA
ATOM      3  N   ASN C  18     -73.972-208.834  81.724  1.00 22.51 LIG-0.35  N 
ATOM      4 H    ASN C  18     -74.669-208.418  82.010  1.00 22.51 LIG 0.16  HD
ENDROOT
BRANCH 3 5
ATOM      5  CA  ASN C  18     -74.190-209.591  80.496  1.00 19.22 LIG 0.18  C 
BRANCH 5 6
ATOM      6  CB  ASN C  18     -75.514-209.173  79.848  1.00 16.89 LIG 0.14  C 
BRANCH 6 7
ATOM      7  CG  ASN C  18     -76.706-209.909  80.428  1.00 20.14 LIG 0.22  C 
ATOM      8  ND2 ASN C  18     -77.876-209.283  80.366  1.00 20.12 LIG-0.37  N 
ATOM      9 22HD ASN C  18     -77.929-208.506  80.000  1.00 20.12 LIG 0.16  HD
ATOM     10 21HD ASN C  18     -78.580-209.654  80.692  1.00 20.12 LIG 0.16  HD
ATOM     11 OD1  ASN C  18     -76.573-211.021  80.941  1.00 18.28 LIG-0.27  OA
ENDBRANCH 6 7
ENDBRANCH 5 6
BRANCH 5 12
ATOM     12  C   ASN C  18     -73.044-209.404  79.498  1.00 21.33 LIG 0.24  C 
ATOM     13  N   PRO C  19     -72.781-210.424  78.664  1.00 20.66 LIG-0.34  N 
ATOM     14  CD  PRO C  19     -73.357-211.780  78.691  1.00 23.11 LIG 0.13  C 
ATOM     15  CA  PRO C  19     -71.711-210.314  77.669  1.00 23.26 LIG 0.18  C 
ATOM     16  CG  PRO C  19     -72.603-212.510  77.603  1.00 22.87 LIG 0.02  C 
ATOM     17  CB  PRO C  19     -71.320-211.771  77.435  1.00 23.39 LIG 0.04  C 
ATOM     18 O    ASN C  18     -72.406-208.352  79.475  1.00 23.13 LIG-0.27  OA
BRANCH 15 19
ATOM     19  C   PRO C  19     -72.160-209.666  76.359  1.00 24.54 LIG 0.24  C 
ATOM     20  N   PHE C  20     -73.027-208.661  76.445  1.00 23.51 LIG-0.34  N 
ATOM     21 H    PHE C  20     -73.257-208.287  77.185  1.00 23.51 LIG 0.16  HD
ATOM     22 O    PRO C  19     -71.715-210.085  75.287  1.00 27.52 LIG-0.27  OA
BRANCH 20 23
ATOM     23  CA  PHE C  20     -73.672-208.102  75.258  1.00 27.49 LIG 0.19  C 
BRANCH 23 24
ATOM     24  CB  PHE C  20     -74.620-209.142  74.661  1.00 22.62 LIG 0.07  C 
BRANCH 24 25
ATOM     25  CG  PHE C  20     -75.966-209.152  75.318  1.00 18.80 LIG-0.06  A 
ATOM     26  CD1 PHE C  20     -77.021-208.463  74.750  1.00 16.53 LIG 0.01  A 
ATOM     27  CE1 PHE C  20     -78.268-208.478  75.330  1.00 18.06 LIG 0.00  A 
ATOM     28  CZ  PHE C  20     -78.483-209.197  76.494  1.00 17.30 LIG 0.00  A 
ATOM     29  CE2 PHE C  20     -77.443-209.896  77.068  1.00 18.45 LIG 0.00  A 
ATOM     30  CD2 PHE C  20     -76.191-209.877  76.477  1.00 20.64 LIG 0.01  A 
ENDBRANCH 24 25
ENDBRANCH 23 24
BRANCH 23 31
ATOM     31  C   PHE C  20     -74.415-206.801  75.550  1.00 41.21 LIG 0.20  C 
ATOM     32 OXT  PHE C  20     -74.938-206.146  74.649  1.00 46.78 LIG-0.65  OA
ATOM     33 O    PHE C  20     -74.520-206.378  76.705  1.00 43.65 LIG-0.65  OA
ENDBRANCH 23 31
ENDBRANCH 20 23
ENDBRANCH 15 19
ENDBRANCH 5 12
ENDBRANCH 3 5
BRANCH 1 34
ATOM     34  CA  ASN C  17     -72.738-208.047  83.658  1.00 16.90 LIG 0.18  C 
BRANCH 34 35
ATOM     35  N   ASN C  17     -73.199-208.934  84.715  1.00 20.58 LIG-0.35  N 
ATOM     36  C   VAL C  16     -74.492-209.057  84.994  1.00 27.16 LIG 0.24  C 
ATOM     37 O    VAL C  16     -75.348-208.304  84.531  1.00 29.43 LIG-0.27  OA
ATOM     38 H    ASN C  17     -72.573-209.357  85.128  1.00 20.58 LIG 0.16  HD
BRANCH 36 39
ATOM     39  CA  VAL C  16     -74.880-210.188  85.944  1.00 33.54 LIG 0.18  C 
BRANCH 39 40
ATOM     40  CB  VAL C  16     -75.307-211.427  85.121  1.00 32.44 LIG 0.01  C 
ATOM     41  CG2 VAL C  16     -75.497-211.050  83.651  1.00 34.10 LIG 0.01  C 
ATOM     42  CG1 VAL C  16     -76.572-212.074  85.702  1.00 32.37 LIG 0.01  C 
ENDBRANCH 39 40
BRANCH 39 43
ATOM     43  N   VAL C  16     -75.948-209.776  86.847  1.00 45.58 LIG-0.34  N 
ATOM     44  C   GLN C  15     -75.726-209.472  88.120  1.00 57.61 LIG 0.26  C 
ATOM     45 O    GLN C  15     -74.603-209.485  88.627  1.00 61.53 LIG-0.27  OA
ATOM     46 H    VAL C  16     -76.726-209.750  86.481  1.00 45.58 LIG 0.16  HD
BRANCH 44 47
ATOM     47  CA  GLN C  15     -76.957-209.089  88.938  1.00 63.44 LIG 0.40  C 
ATOM     48  N   GLN C  15     -77.565-210.271  89.538  1.00 62.08 LIG 0.61  N 
BRANCH 47 49
ATOM     49  CB  GLN C  15     -76.579-208.078  90.018  1.00 68.54 LIG 0.06  C 
BRANCH 49 50
ATOM     50  CG  GLN C  15     -77.757-207.255  90.527  1.00 72.89 LIG 0.10  C 
BRANCH 50 51
ATOM     51  CD  GLN C  15     -78.404-207.819  91.780  1.00 75.77 LIG 0.21  C 
ATOM     52 OE1  GLN C  15     -79.315-208.644  91.715  1.00 77.61 LIG-0.27  OA
ATOM     53  NE2 GLN C  15     -77.935-207.364  92.936  1.00 76.03 LIG-0.37  N 
ATOM     54 22HE GLN C  15     -78.267-207.647  93.677  1.00 76.03 LIG 0.16  HD
ATOM     55 21HE GLN C  15     -77.297-206.787  92.943  1.00 76.03 LIG 0.16  HD
ENDBRANCH 50 51
ENDBRANCH 49 50
ENDBRANCH 47 49
ENDBRANCH 44 47
ENDBRANCH 39 43
ENDBRANCH 36 39
ENDBRANCH 34 35
BRANCH 34 56
ATOM     56  CB  ASN C  17     -71.319-207.543  83.940  1.00 15.63 LIG 0.14  C 
BRANCH 56 57
ATOM     57  CG  ASN C  17     -70.639-208.305  85.061  1.00 17.63 LIG 0.22  C 
ATOM     58 OD1  ASN C  17     -70.578-207.839  86.201  1.00 24.00 LIG-0.27  OA
ATOM     59  ND2 ASN C  17     -70.108-209.480  84.740  1.00 16.48 LIG-0.37  N 
ATOM     60 21HD ASN C  17     -69.703-209.946  85.338  1.00 16.48 LIG 0.16  HD
ATOM     61 22HD ASN C  17     -70.170-209.773  83.934  1.00 16.48 LIG 0.16  HD
ENDBRANCH 56 57
ENDBRANCH 34 56
ENDBRANCH 1 34
TORSDOF 20
ENDMDL
MODEL 38
USER: ADFR SOLUTION from run 199
USER: SCORE 18.504070 LL:  -5.778 LR: -13.469 RR:   0.000 FEB:  -7.503
USER: RMSD 5.686313
USER: SEED 198
USER: STATUS no improvement in best in 13 clusters for 5 generations
USER: GENES 22
USER: genes 0 Translation |==|  0.49254 0.54520 0.42138
USER: genes 1 Rotation |==|  0.39141 0.42376 0.97688 0.57060
USER: genes 2 Torsion [C]-N--CA-[CB] |==|  0.76644
USER: genes 3 Torsion [N]-CA--CB-[CG] |==|  0.59006
USER: genes 4 Torsion [CA]-CB--CG-[OD1] |==|  0.88809
USER: genes 5 Torsion [N]-CA--C-[N] |==|  0.24085
USER: genes 6 Torsion [N]-CA--C-[O] |==|  0.52182
USER: genes 7 Torsion [C]-N--CA-[CB] |==|  0.38181
USER: genes 8 Torsion [N]-CA--CB-[CG] |==|  0.89228
USER: genes 9 Torsion [CA]-CB--CG-[CD1] |==|  0.79208
USER: genes 10 Torsion [N]-CA--C-[O] |==|  0.97687
USER: genes 11 Torsion [N]-C--CA-[N] |==|  0.23589
USER: genes 12 Torsion [C]-CA--N-[C] |==|  0.77613
USER: genes 13 Torsion [N]-C--CA-[N] |==|  0.93908
USER: genes 14 Torsion [C]-CA--CB-[CG2] |==|  0.97825
USER: genes 15 Torsion [C]-CA--N-[C] |==|  0.68721
USER: genes 16 Torsion [N]-C--CA-[N] |==|  0.03316
USER: genes 17 Torsion [C]-CA--CB-[CG] |==|  0.74082
USER: genes 18 Torsion [CA]-CB--CG-[CD] |==|  0.25924
USER: genes 19 Torsion [CB]-CG--CD-[OE1] |==|  0.67693
USER: genes 20 Torsion [C]-CA--CB-[CG] |==|  0.75315
USER: genes 21 Torsion [CA]-CB--CG-[OD1] |==|  0.69790
ROOT
ATOM      1  C   ASN C  17     -78.245-208.843  80.872  1.00 20.61 LIG 0.24  C 
ATOM      2 O    ASN C  17     -78.179-207.644  80.603  1.00 16.51 LIG-0.27  OA
ATOM      3  N   ASN C  18     -77.963-209.807  79.998  1.00 22.51 LIG-0.35  N 
ATOM      4 H    ASN C  18     -78.044-210.645  80.170  1.00 22.51 LIG 0.16  HD
ENDROOT
BRANCH 3 5
ATOM      5  CA  ASN C  18     -77.483-209.518  78.651  1.00 19.22 LIG 0.18  C 
BRANCH 5 6
ATOM      6  CB  ASN C  18     -78.666-209.234  77.720  1.00 16.89 LIG 0.14  C 
BRANCH 6 7
ATOM      7  CG  ASN C  18     -78.409-209.686  76.296  1.00 20.14 LIG 0.22  C 
ATOM      8  ND2 ASN C  18     -79.423-210.274  75.670  1.00 20.12 LIG-0.37  N 
ATOM      9 22HD ASN C  18     -80.178-210.370  76.070  1.00 20.12 LIG 0.16  HD
ATOM     10 21HD ASN C  18     -79.324-210.559  74.864  1.00 20.12 LIG 0.16  HD
ATOM     11 OD1  ASN C  18     -77.308-209.523  75.770  1.00 18.28 LIG-0.27  OA
ENDBRANCH 6 7
ENDBRANCH 5 6
BRANCH 5 12
ATOM     12  C   ASN C  18     -76.513-208.333  78.630  1.00 21.33 LIG 0.24  C 
ATOM     13  N   PRO C  19     -75.216-208.595  78.856  1.00 20.66 LIG-0.34  N 
ATOM     14  CD  PRO C  19     -74.616-209.872  79.283  1.00 23.11 LIG 0.13  C 
ATOM     15  CA  PRO C  19     -74.224-207.516  78.835  1.00 23.26 LIG 0.18  C 
ATOM     16  CG  PRO C  19     -73.157-209.532  79.485  1.00 22.87 LIG 0.02  C 
ATOM     17  CB  PRO C  19     -73.115-208.062  79.732  1.00 23.39 LIG 0.04  C 
ATOM     18 O    ASN C  18     -76.928-207.195  78.410  1.00 23.13 LIG-0.27  OA
BRANCH 15 19
ATOM     19  C   PRO C  19     -73.679-207.215  77.439  1.00 24.54 LIG 0.24  C 
ATOM     20  N   PHE C  20     -74.265-207.828  76.414  1.00 23.51 LIG-0.34  N 
ATOM     21 H    PHE C  20     -74.991-208.285  76.479  1.00 23.51 LIG 0.16  HD
ATOM     22 O    PRO C  19     -72.736-206.430  77.308  1.00 27.52 LIG-0.27  OA
BRANCH 20 23
ATOM     23  CA  PHE C  20     -73.706-207.768  75.065  1.00 27.49 LIG 0.19  C 
BRANCH 23 24
ATOM     24  CB  PHE C  20     -73.789-209.153  74.422  1.00 22.62 LIG 0.07  C 
BRANCH 24 25
ATOM     25  CG  PHE C  20     -73.498-210.264  75.384  1.00 18.80 LIG-0.06  A 
ATOM     26  CD1 PHE C  20     -72.199-210.512  75.786  1.00 16.53 LIG 0.01  A 
ATOM     27  CE1 PHE C  20     -71.917-211.516  76.683  1.00 18.06 LIG 0.00  A 
ATOM     28  CZ  PHE C  20     -72.942-212.289  77.202  1.00 17.30 LIG 0.00  A 
ATOM     29  CE2 PHE C  20     -74.243-212.049  76.818  1.00 18.45 LIG 0.00  A 
ATOM     30  CD2 PHE C  20     -74.518-211.036  75.915  1.00 20.64 LIG 0.01  A 
ENDBRANCH 24 25
ENDBRANCH 23 24
BRANCH 23 31
ATOM     31  C   PHE C  20     -74.394-206.725  74.187  1.00 41.21 LIG 0.20  C 
ATOM     32 OXT  PHE C  20     -73.963-206.442  73.070  1.00 46.78 LIG-0.65  OA
ATOM     33 O    PHE C  20     -75.413-206.146  74.575  1.00 43.65 LIG-0.65  OA
ENDBRANCH 23 31
ENDBRANCH 20 23
ENDBRANCH 15 19
ENDBRANCH 5 12
ENDBRANCH 3 5
BRANCH 1 34
ATOM     34  CA  ASN C  17     -78.647-209.298  82.269  1.00 16.90 LIG 0.18  C 
BRANCH 34 35
ATOM     35  N   ASN C  17     -77.437-209.519  83.047  1.00 20.58 LIG-0.35  N 
ATOM     36  C   VAL C  16     -76.739-210.644  82.927  1.00 27.16 LIG 0.24  C 
ATOM     37 O    VAL C  16     -77.161-211.629  82.321  1.00 29.43 LIG-0.27  OA
ATOM     38 H    ASN C  17     -77.226-208.873  83.574  1.00 20.58 LIG 0.16  HD
BRANCH 36 39
ATOM     39  CA  VAL C  16     -75.368-210.670  83.598  1.00 33.54 LIG 0.18  C 
BRANCH 39 40
ATOM     40  CB  VAL C  16     -75.468-211.431  84.942  1.00 32.44 LIG 0.01  C 
ATOM     41  CG2 VAL C  16     -76.929-211.746  85.267  1.00 34.10 LIG 0.01  C 
ATOM     42  CG1 VAL C  16     -74.797-210.647  86.078  1.00 32.37 LIG 0.01  C 
ENDBRANCH 39 40
BRANCH 39 43
ATOM     43  N   VAL C  16     -74.858-209.320  83.808  1.00 45.58 LIG-0.34  N 
ATOM     44  C   GLN C  15     -73.798-208.852  83.160  1.00 57.61 LIG 0.26  C 
ATOM     45 O    GLN C  15     -73.184-209.506  82.316  1.00 61.53 LIG-0.27  OA
ATOM     46 H    VAL C  16     -75.303-208.862  84.384  1.00 45.58 LIG 0.16  HD
BRANCH 44 47
ATOM     47  CA  GLN C  15     -73.374-207.429  83.517  1.00 63.44 LIG 0.40  C 
ATOM     48  N   GLN C  15     -74.067-206.970  84.715  1.00 62.08 LIG 0.61  N 
BRANCH 47 49
ATOM     49  CB  GLN C  15     -71.862-207.364  83.718  1.00 68.54 LIG 0.06  C 
BRANCH 49 50
ATOM     50  CG  GLN C  15     -71.427-207.549  85.168  1.00 72.89 LIG 0.10  C 
BRANCH 50 51
ATOM     51  CD  GLN C  15     -71.090-208.986  85.530  1.00 75.77 LIG 0.21  C 
ATOM     52 OE1  GLN C  15     -71.744-209.606  86.368  1.00 77.61 LIG-0.27  OA
ATOM     53  NE2 GLN C  15     -70.052-209.519  84.898  1.00 76.03 LIG-0.37  N 
ATOM     54 22HE GLN C  15     -69.814-210.328  85.067  1.00 76.03 LIG 0.16  HD
ATOM     55 21HE GLN C  15     -69.617-209.056  84.318  1.00 76.03 LIG 0.16  HD
ENDBRANCH 50 51
ENDBRANCH 49 50
ENDBRANCH 47 49
ENDBRANCH 44 47
ENDBRANCH 39 43
ENDBRANCH 36 39
ENDBRANCH 34 35
BRANCH 34 56
ATOM     56  CB  ASN C  17     -79.552-208.260  82.939  1.00 15.63 LIG 0.14  C 
BRANCH 56 57
ATOM     57  CG  ASN C  17     -78.771-207.209  83.705  1.00 17.63 LIG 0.22  C 
ATOM     58 OD1  ASN C  17     -78.777-207.187  84.938  1.00 24.00 LIG-0.27  OA
ATOM     59  ND2 ASN C  17     -78.105-206.321  82.978  1.00 16.48 LIG-0.37  N 
ATOM     60 21HD ASN C  17     -77.655-205.699  83.365  1.00 16.48 LIG 0.16  HD
ATOM     61 22HD ASN C  17     -78.124-206.367  82.119  1.00 16.48 LIG 0.16  HD
ENDBRANCH 56 57
ENDBRANCH 34 56
ENDBRANCH 1 34
TORSDOF 20
ENDMDL
MODEL 39
USER: ADFR SOLUTION from run 167
USER: SCORE 16.254992 LL:  -4.226 LR: -13.405 RR:   0.000 FEB:  -7.439
USER: RMSD 8.892015
USER: SEED 166
USER: STATUS no improvement in best in 13 clusters for 5 generations
USER: GENES 22
USER: genes 0 Translation |==|  0.63107 0.48838 0.27044
USER: genes 1 Rotation |==|  0.15739 0.22832 0.41714 0.72791
USER: genes 2 Torsion [C]-N--CA-[CB] |==|  0.44365
USER: genes 3 Torsion [N]-CA--CB-[CG] |==|  0.23794
USER: genes 4 Torsion [CA]-CB--CG-[OD1] |==|  0.25465
USER: genes 5 Torsion [N]-CA--C-[N] |==|  0.92756
USER: genes 6 Torsion [N]-CA--C-[O] |==|  0.92360
USER: genes 7 Torsion [C]-N--CA-[CB] |==|  0.34264
USER: genes 8 Torsion [N]-CA--CB-[CG] |==|  0.21798
USER: genes 9 Torsion [CA]-CB--CG-[CD1] |==|  0.32303
USER: genes 10 Torsion [N]-CA--C-[O] |==|  0.95208
USER: genes 11 Torsion [N]-C--CA-[N] |==|  0.43928
USER: genes 12 Torsion [C]-CA--N-[C] |==|  0.82169
USER: genes 13 Torsion [N]-C--CA-[N] |==|  0.01890
USER: genes 14 Torsion [C]-CA--CB-[CG2] |==|  0.23585
USER: genes 15 Torsion [C]-CA--N-[C] |==|  0.74709
USER: genes 16 Torsion [N]-C--CA-[N] |==|  0.40976
USER: genes 17 Torsion [C]-CA--CB-[CG] |==|  0.14767
USER: genes 18 Torsion [CA]-CB--CG-[CD] |==|  0.15767
USER: genes 19 Torsion [CB]-CG--CD-[OE1] |==|  0.61894
USER: genes 20 Torsion [C]-CA--CB-[CG] |==|  0.45638
USER: genes 21 Torsion [CA]-CB--CG-[OD1] |==|  0.31189
ROOT
ATOM      1  C   ASN C  17     -75.336-209.695  77.136  1.00 20.61 LIG 0.24  C 
ATOM      2 O    ASN C  17     -75.942-209.869  78.192  1.00 16.51 LIG-0.27  OA
ATOM      3  N   ASN C  18     -74.232-210.363  76.807  1.00 22.51 LIG-0.35  N 
ATOM      4 H    ASN C  18     -73.784-210.218  76.087  1.00 22.51 LIG 0.16  HD
ENDROOT
BRANCH 3 5
ATOM      5  CA  ASN C  18     -73.679-211.416  77.652  1.00 19.22 LIG 0.18  C 
BRANCH 5 6
ATOM      6  CB  ASN C  18     -72.756-212.321  76.831  1.00 16.89 LIG 0.14  C 
BRANCH 6 7
ATOM      7  CG  ASN C  18     -71.340-211.786  76.745  1.00 20.14 LIG 0.22  C 
ATOM      8  ND2 ASN C  18     -71.079-210.963  75.736  1.00 20.12 LIG-0.37  N 
ATOM      9 22HD ASN C  18     -71.701-210.752  75.181  1.00 20.12 LIG 0.16  HD
ATOM     10 21HD ASN C  18     -70.287-210.641  75.637  1.00 20.12 LIG 0.16  HD
ATOM     11 OD1  ASN C  18     -70.487-212.122  77.567  1.00 18.28 LIG-0.27  OA
ENDBRANCH 6 7
ENDBRANCH 5 6
BRANCH 5 12
ATOM     12  C   ASN C  18     -72.913-210.845  78.849  1.00 21.33 LIG 0.24  C 
ATOM     13  N   PRO C  19     -72.385-209.617  78.713  1.00 20.66 LIG-0.34  N 
ATOM     14  CD  PRO C  19     -72.311-208.799  77.490  1.00 23.11 LIG 0.13  C 
ATOM     15  CA  PRO C  19     -71.652-208.997  79.821  1.00 23.26 LIG 0.18  C 
ATOM     16  CG  PRO C  19     -71.516-207.587  77.918  1.00 22.87 LIG 0.02  C 
ATOM     17  CB  PRO C  19     -70.722-208.022  79.102  1.00 23.39 LIG 0.04  C 
ATOM     18 O    ASN C  18     -72.801-211.501  79.884  1.00 23.13 LIG-0.27  OA
BRANCH 15 19
ATOM     19  C   PRO C  19     -72.552-208.246  80.803  1.00 24.54 LIG 0.24  C 
ATOM     20  N   PHE C  20     -72.126-208.143  82.059  1.00 23.51 LIG-0.34  N 
ATOM     21 H    PHE C  20     -71.338-208.370  82.319  1.00 23.51 LIG 0.16  HD
ATOM     22 O    PRO C  19     -73.620-207.769  80.410  1.00 27.52 LIG-0.27  OA
BRANCH 20 23
ATOM     23  CA  PHE C  20     -72.988-207.623  83.119  1.00 27.49 LIG 0.19  C 
BRANCH 23 24
ATOM     24  CB  PHE C  20     -73.095-208.661  84.236  1.00 22.62 LIG 0.07  C 
BRANCH 24 25
ATOM     25  CG  PHE C  20     -71.894-208.685  85.132  1.00 18.80 LIG-0.06  A 
ATOM     26  CD1 PHE C  20     -72.017-208.353  86.467  1.00 16.53 LIG 0.01  A 
ATOM     27  CE1 PHE C  20     -70.927-208.389  87.307  1.00 18.06 LIG 0.00  A 
ATOM     28  CZ  PHE C  20     -69.688-208.769  86.818  1.00 17.30 LIG 0.00  A 
ATOM     29  CE2 PHE C  20     -69.551-209.111  85.491  1.00 18.45 LIG 0.00  A 
ATOM     30  CD2 PHE C  20     -70.653-209.074  84.653  1.00 20.64 LIG 0.01  A 
ENDBRANCH 24 25
ENDBRANCH 23 24
BRANCH 23 31
ATOM     31  C   PHE C  20     -72.499-206.287  83.672  1.00 41.21 LIG 0.20  C 
ATOM     32 OXT  PHE C  20     -73.236-205.561  84.339  1.00 46.78 LIG-0.65  OA
ATOM     33 O    PHE C  20     -71.342-205.905  83.473  1.00 43.65 LIG-0.65  OA
ENDBRANCH 23 31
ENDBRANCH 20 23
ENDBRANCH 15 19
ENDBRANCH 5 12
ENDBRANCH 3 5
BRANCH 1 34
ATOM     34  CA  ASN C  17     -75.845-208.690  76.113  1.00 16.90 LIG 0.18  C 
BRANCH 34 35
ATOM     35  N   ASN C  17     -77.259-208.453  76.363  1.00 20.58 LIG-0.35  N 
ATOM     36  C   VAL C  16     -78.153-209.426  76.227  1.00 27.16 LIG 0.24  C 
ATOM     37 O    VAL C  16     -77.888-210.506  75.701  1.00 29.43 LIG-0.27  OA
ATOM     38 H    ASN C  17     -77.451-207.648  76.600  1.00 20.58 LIG 0.16  HD
BRANCH 36 39
ATOM     39  CA  VAL C  16     -79.559-209.136  76.748  1.00 33.54 LIG 0.18  C 
BRANCH 39 40
ATOM     40  CB  VAL C  16     -80.594-209.475  75.650  1.00 32.44 LIG 0.01  C 
ATOM     41  CG2 VAL C  16     -80.947-210.963  75.691  1.00 34.10 LIG 0.01  C 
ATOM     42  CG1 VAL C  16     -80.091-209.056  74.261  1.00 32.37 LIG 0.01  C 
ENDBRANCH 39 40
BRANCH 39 43
ATOM     43  N   VAL C  16     -79.690-207.746  77.169  1.00 45.58 LIG-0.34  N 
ATOM     44  C   GLN C  15     -79.448-207.354  78.414  1.00 57.61 LIG 0.26  C 
ATOM     45 O    GLN C  15     -79.068-208.123  79.298  1.00 61.53 LIG-0.27  OA
ATOM     46 H    VAL C  16     -79.937-207.212  76.541  1.00 45.58 LIG 0.16  HD
BRANCH 44 47
ATOM     47  CA  GLN C  15     -79.662-205.869  78.697  1.00 63.44 LIG 0.40  C 
ATOM     48  N   GLN C  15     -80.120-205.666  80.067  1.00 62.08 LIG 0.61  N 
BRANCH 47 49
ATOM     49  CB  GLN C  15     -78.370-205.093  78.447  1.00 68.54 LIG 0.06  C 
BRANCH 49 50
ATOM     50  CG  GLN C  15     -77.768-205.333  77.067  1.00 72.89 LIG 0.10  C 
BRANCH 50 51
ATOM     51  CD  GLN C  15     -78.712-205.015  75.920  1.00 75.77 LIG 0.21  C 
ATOM     52 OE1  GLN C  15     -78.806-205.758  74.943  1.00 77.61 LIG-0.27  OA
ATOM     53  NE2 GLN C  15     -79.416-203.896  76.036  1.00 76.03 LIG-0.37  N 
ATOM     54 22HE GLN C  15     -79.964-203.666  75.414  1.00 76.03 LIG 0.16  HD
ATOM     55 21HE GLN C  15     -79.325-203.401  76.733  1.00 76.03 LIG 0.16  HD
ENDBRANCH 50 51
ENDBRANCH 49 50
ENDBRANCH 47 49
ENDBRANCH 44 47
ENDBRANCH 39 43
ENDBRANCH 36 39
ENDBRANCH 34 35
BRANCH 34 56
ATOM     56  CB  ASN C  17     -75.045-207.385  76.186  1.00 15.63 LIG 0.14  C 
BRANCH 56 57
ATOM     57  CG  ASN C  17     -75.244-206.507  74.966  1.00 17.63 LIG 0.22  C 
ATOM     58 OD1  ASN C  17     -75.835-205.428  75.050  1.00 24.00 LIG-0.27  OA
ATOM     59  ND2 ASN C  17     -74.765-206.971  73.818  1.00 16.48 LIG-0.37  N 
ATOM     60 21HD ASN C  17     -74.862-206.515  73.096  1.00 16.48 LIG 0.16  HD
ATOM     61 22HD ASN C  17     -74.359-207.729  73.797  1.00 16.48 LIG 0.16  HD
ENDBRANCH 56 57
ENDBRANCH 34 56
ENDBRANCH 1 34
TORSDOF 20
ENDMDL
MODEL 40
USER: ADFR SOLUTION from run 54
USER: SCORE 17.508033 LL:  -4.632 LR: -13.413 RR:   0.000 FEB:  -7.447
USER: RMSD 9.857782
USER: SEED 53
USER: STATUS no improvement in best in 7 clusters for 5 generations
USER: GENES 22
USER: genes 0 Translation |==|  0.68277 0.42889 0.37693
USER: genes 1 Rotation |==|  0.40830 0.99110 0.51928 0.50616
USER: genes 2 Torsion [C]-N--CA-[CB] |==|  0.51733
USER: genes 3 Torsion [N]-CA--CB-[CG] |==|  0.71868
USER: genes 4 Torsion [CA]-CB--CG-[OD1] |==|  0.01888
USER: genes 5 Torsion [N]-CA--C-[N] |==|  0.47593
USER: genes 6 Torsion [N]-CA--C-[O] |==|  0.03989
USER: genes 7 Torsion [C]-N--CA-[CB] |==|  0.18002
USER: genes 8 Torsion [N]-CA--CB-[CG] |==|  0.18917
USER: genes 9 Torsion [CA]-CB--CG-[CD1] |==|  0.25281
USER: genes 10 Torsion [N]-CA--C-[O] |==|  0.93248
USER: genes 11 Torsion [N]-C--CA-[N] |==|  0.95866
USER: genes 12 Torsion [C]-CA--N-[C] |==|  0.78518
USER: genes 13 Torsion [N]-C--CA-[N] |==|  0.46667
USER: genes 14 Torsion [C]-CA--CB-[CG2] |==|  0.57451
USER: genes 15 Torsion [C]-CA--N-[C] |==|  0.66555
USER: genes 16 Torsion [N]-C--CA-[N] |==|  0.33566
USER: genes 17 Torsion [C]-CA--CB-[CG] |==|  0.11512
USER: genes 18 Torsion [CA]-CB--CG-[CD] |==|  0.19686
USER: genes 19 Torsion [CB]-CG--CD-[OE1] |==|  0.80767
USER: genes 20 Torsion [C]-CA--CB-[CG] |==|  0.27668
USER: genes 21 Torsion [CA]-CB--CG-[OD1] |==|  0.38144
ROOT
ATOM      1  C   ASN C  17     -74.250-210.588  79.772  1.00 20.61 LIG 0.24  C 
ATOM      2 O    ASN C  17     -74.304-211.733  80.217  1.00 16.51 LIG-0.27  OA
ATOM      3  N   ASN C  18     -74.438-209.502  80.519  1.00 22.51 LIG-0.35  N 
ATOM      4 H    ASN C  18     -74.439-208.701  80.204  1.00 22.51 LIG 0.16  HD
ENDROOT
BRANCH 3 5
ATOM      5  CA  ASN C  18     -74.664-209.578  81.958  1.00 19.22 LIG 0.18  C 
BRANCH 5 6
ATOM      6  CB  ASN C  18     -74.999-208.190  82.513  1.00 16.89 LIG 0.14  C 
BRANCH 6 7
ATOM      7  CG  ASN C  18     -73.816-207.534  83.197  1.00 20.14 LIG 0.22  C 
ATOM      8  ND2 ASN C  18     -74.054-206.381  83.813  1.00 20.12 LIG-0.37  N 
ATOM      9 22HD ASN C  18     -74.848-206.051  83.818  1.00 20.12 LIG 0.16  HD
ATOM     10 21HD ASN C  18     -73.412-205.963  84.206  1.00 20.12 LIG 0.16  HD
ATOM     11 OD1  ASN C  18     -72.698-208.049  83.158  1.00 18.28 LIG-0.27  OA
ENDBRANCH 6 7
ENDBRANCH 5 6
BRANCH 5 12
ATOM     12  C   ASN C  18     -75.783-210.561  82.311  1.00 21.33 LIG 0.24  C 
ATOM     13  N   PRO C  19     -75.962-210.850  83.610  1.00 20.66 LIG-0.34  N 
ATOM     14  CD  PRO C  19     -75.106-210.462  84.745  1.00 23.11 LIG 0.13  C 
ATOM     15  CA  PRO C  19     -77.025-211.769  84.028  1.00 23.26 LIG 0.18  C 
ATOM     16  CG  PRO C  19     -75.736-211.166  85.925  1.00 22.87 LIG 0.02  C 
ATOM     17  CB  PRO C  19     -76.496-212.314  85.353  1.00 23.39 LIG 0.04  C 
ATOM     18 O    ASN C  18     -76.482-211.050  81.424  1.00 23.13 LIG-0.27  OA
BRANCH 15 19
ATOM     19  C   PRO C  19     -78.376-211.085  84.236  1.00 24.54 LIG 0.24  C 
ATOM     20  N   PHE C  20     -79.309-211.771  84.890  1.00 23.51 LIG-0.34  N 
ATOM     21 H    PHE C  20     -79.163-212.517  85.293  1.00 23.51 LIG 0.16  HD
ATOM     22 O    PRO C  19     -78.555-209.943  83.804  1.00 27.52 LIG-0.27  OA
BRANCH 20 23
ATOM     23  CA  PHE C  20     -80.690-211.297  84.974  1.00 27.49 LIG 0.19  C 
BRANCH 23 24
ATOM     24  CB  PHE C  20     -81.306-211.289  83.576  1.00 22.62 LIG 0.07  C 
BRANCH 24 25
ATOM     25  CG  PHE C  20     -81.503-212.663  83.013  1.00 18.80 LIG-0.06  A 
ATOM     26  CD1 PHE C  20     -82.694-213.333  83.216  1.00 16.53 LIG 0.01  A 
ATOM     27  CE1 PHE C  20     -82.898-214.587  82.690  1.00 18.06 LIG 0.00  A 
ATOM     28  CZ  PHE C  20     -81.905-215.193  81.939  1.00 17.30 LIG 0.00  A 
ATOM     29  CE2 PHE C  20     -80.714-214.536  81.721  1.00 18.45 LIG 0.00  A 
ATOM     30  CD2 PHE C  20     -80.518-213.273  82.253  1.00 20.64 LIG 0.01  A 
ENDBRANCH 24 25
ENDBRANCH 23 24
BRANCH 23 31
ATOM     31  C   PHE C  20     -81.540-212.129  85.932  1.00 41.21 LIG 0.20  C 
ATOM     32 OXT  PHE C  20     -82.550-211.666  86.459  1.00 46.78 LIG-0.65  OA
ATOM     33 O    PHE C  20     -81.239-213.297  86.193  1.00 43.65 LIG-0.65  OA
ENDBRANCH 23 31
ENDBRANCH 20 23
ENDBRANCH 15 19
ENDBRANCH 5 12
ENDBRANCH 3 5
BRANCH 1 34
ATOM     34  CA  ASN C  17     -73.936-210.348  78.302  1.00 16.90 LIG 0.18  C 
BRANCH 34 35
ATOM     35  N   ASN C  17     -74.262-208.966  77.980  1.00 20.58 LIG-0.35  N 
ATOM     36  C   VAL C  16     -75.520-208.583  77.793  1.00 27.16 LIG 0.24  C 
ATOM     37 O    VAL C  16     -76.450-209.381  77.682  1.00 29.43 LIG-0.27  OA
ATOM     38 H    ASN C  17     -73.582-208.441  77.925  1.00 20.58 LIG 0.16  HD
BRANCH 36 39
ATOM     39  CA  VAL C  16     -75.768-207.078  77.706  1.00 33.54 LIG 0.18  C 
BRANCH 39 40
ATOM     40  CB  VAL C  16     -75.537-206.439  79.096  1.00 32.44 LIG 0.01  C 
ATOM     41  CG2 VAL C  16     -76.367-205.163  79.239  1.00 34.10 LIG 0.01  C 
ATOM     42  CG1 VAL C  16     -74.046-206.168  79.344  1.00 32.37 LIG 0.01  C 
ENDBRANCH 39 40
BRANCH 39 43
ATOM     43  N   VAL C  16     -77.114-206.792  77.225  1.00 45.58 LIG-0.34  N 
ATOM     44  C   GLN C  15     -77.341-206.096  76.118  1.00 57.61 LIG 0.26  C 
ATOM     45 O    GLN C  15     -76.438-205.664  75.400  1.00 61.53 LIG-0.27  OA
ATOM     46 H    VAL C  16     -77.740-207.114  77.721  1.00 45.58 LIG 0.16  HD
BRANCH 44 47
ATOM     47  CA  GLN C  15     -78.808-205.858  75.769  1.00 63.44 LIG 0.40  C 
ATOM     48  N   GLN C  15     -79.098-204.430  75.703  1.00 62.08 LIG 0.61  N 
BRANCH 47 49
ATOM     49  CB  GLN C  15     -79.151-206.534  74.443  1.00 68.54 LIG 0.06  C 
BRANCH 49 50
ATOM     50  CG  GLN C  15     -78.536-207.920  74.284  1.00 72.89 LIG 0.10  C 
BRANCH 50 51
ATOM     51  CD  GLN C  15     -79.162-208.976  75.180  1.00 75.77 LIG 0.21  C 
ATOM     52 OE1  GLN C  15     -79.004-208.957  76.400  1.00 77.61 LIG-0.27  OA
ATOM     53  NE2 GLN C  15     -79.875-209.914  74.568  1.00 76.03 LIG-0.37  N 
ATOM     54 22HE GLN C  15     -80.248-210.538  75.026  1.00 76.03 LIG 0.16  HD
ATOM     55 21HE GLN C  15     -79.964-209.896  73.712  1.00 76.03 LIG 0.16  HD
ENDBRANCH 50 51
ENDBRANCH 49 50
ENDBRANCH 47 49
ENDBRANCH 44 47
ENDBRANCH 39 43
ENDBRANCH 36 39
ENDBRANCH 34 35
BRANCH 34 56
ATOM     56  CB  ASN C  17     -72.465-210.652  78.002  1.00 15.63 LIG 0.14  C 
BRANCH 56 57
ATOM     57  CG  ASN C  17     -72.264-212.020  77.380  1.00 17.63 LIG 0.22  C 
ATOM     58 OD1  ASN C  17     -71.488-212.181  76.436  1.00 24.00 LIG-0.27  OA
ATOM     59  ND2 ASN C  17     -72.976-213.015  77.897  1.00 16.48 LIG-0.37  N 
ATOM     60 21HD ASN C  17     -72.905-213.808  77.572  1.00 16.48 LIG 0.16  HD
ATOM     61 22HD ASN C  17     -73.508-212.866  78.556  1.00 16.48 LIG 0.16  HD
ENDBRANCH 56 57
ENDBRANCH 34 56
ENDBRANCH 1 34
TORSDOF 20
ENDMDL
MODEL 41
USER: ADFR SOLUTION from run 20
USER: SCORE 16.717677 LL:  -4.207 LR: -13.398 RR:   0.000 FEB:  -7.432
USER: RMSD 9.694933
USER: SEED 19
USER: STATUS no improvement in best in 4 clusters for 5 generations
USER: GENES 22
USER: genes 0 Translation |==|  0.68941 0.42634 0.36651
USER: genes 1 Rotation |==|  0.62316 0.01598 0.47676 0.50454
USER: genes 2 Torsion [C]-N--CA-[CB] |==|  0.49753
USER: genes 3 Torsion [N]-CA--CB-[CG] |==|  0.74761
USER: genes 4 Torsion [CA]-CB--CG-[OD1] |==|  0.04076
USER: genes 5 Torsion [N]-CA--C-[N] |==|  0.50556
USER: genes 6 Torsion [N]-CA--C-[O] |==|  0.05056
USER: genes 7 Torsion [C]-N--CA-[CB] |==|  0.41600
USER: genes 8 Torsion [N]-CA--CB-[CG] |==|  0.78658
USER: genes 9 Torsion [CA]-CB--CG-[CD1] |==|  0.08003
USER: genes 10 Torsion [N]-CA--C-[O] |==|  0.38823
USER: genes 11 Torsion [N]-C--CA-[N] |==|  0.97874
USER: genes 12 Torsion [C]-CA--N-[C] |==|  0.75350
USER: genes 13 Torsion [N]-C--CA-[N] |==|  0.46552
USER: genes 14 Torsion [C]-CA--CB-[CG2] |==|  0.21343
USER: genes 15 Torsion [C]-CA--N-[C] |==|  0.68420
USER: genes 16 Torsion [N]-C--CA-[N] |==|  0.90932
USER: genes 17 Torsion [C]-CA--CB-[CG] |==|  0.87071
USER: genes 18 Torsion [CA]-CB--CG-[CD] |==|  0.25326
USER: genes 19 Torsion [CB]-CG--CD-[OE1] |==|  0.60136
USER: genes 20 Torsion [C]-CA--CB-[CG] |==|  0.24896
USER: genes 21 Torsion [CA]-CB--CG-[OD1] |==|  0.40201
ROOT
ATOM      1  C   ASN C  17     -74.110-210.626  79.514  1.00 20.61 LIG 0.24  C 
ATOM      2 O    ASN C  17     -73.997-211.771  79.950  1.00 16.51 LIG-0.27  OA
ATOM      3  N   ASN C  18     -74.409-209.577  80.278  1.00 22.51 LIG-0.35  N 
ATOM      4 H    ASN C  18     -74.526-208.782  79.972  1.00 22.51 LIG 0.16  HD
ENDROOT
BRANCH 3 5
ATOM      5  CA  ASN C  18     -74.564-209.689  81.725  1.00 19.22 LIG 0.18  C 
BRANCH 5 6
ATOM      6  CB  ASN C  18     -74.883-208.317  82.328  1.00 16.89 LIG 0.14  C 
BRANCH 6 7
ATOM      7  CG  ASN C  18     -73.637-207.559  82.742  1.00 20.14 LIG 0.22  C 
ATOM      8  ND2 ASN C  18     -73.821-206.500  83.524  1.00 20.12 LIG-0.37  N 
ATOM      9 22HD ASN C  18     -74.615-206.285  83.776  1.00 20.12 LIG 0.16  HD
ATOM     10 21HD ASN C  18     -73.147-206.030  83.777  1.00 20.12 LIG 0.16  HD
ATOM     11 OD1  ASN C  18     -72.523-207.911  82.352  1.00 18.28 LIG-0.27  OA
ENDBRANCH 6 7
ENDBRANCH 5 6
BRANCH 5 12
ATOM     12  C   ASN C  18     -75.658-210.689  82.107  1.00 21.33 LIG 0.24  C 
ATOM     13  N   PRO C  19     -75.920-210.845  83.415  1.00 20.66 LIG-0.34  N 
ATOM     14  CD  PRO C  19     -75.172-210.288  84.556  1.00 23.11 LIG 0.13  C 
ATOM     15  CA  PRO C  19     -76.966-211.771  83.859  1.00 23.26 LIG 0.18  C 
ATOM     16  CG  PRO C  19     -75.854-210.894  85.761  1.00 22.87 LIG 0.02  C 
ATOM     17  CB  PRO C  19     -76.513-212.138  85.270  1.00 23.39 LIG 0.04  C 
ATOM     18 O    ASN C  18     -76.264-211.310  81.234  1.00 23.13 LIG-0.27  OA
BRANCH 15 19
ATOM     19  C   PRO C  19     -78.360-211.145  83.894  1.00 24.54 LIG 0.24  C 
ATOM     20  N   PHE C  20     -79.286-211.767  84.620  1.00 23.51 LIG-0.34  N 
ATOM     21 H    PHE C  20     -79.120-212.423  85.150  1.00 23.51 LIG 0.16  HD
ATOM     22 O    PRO C  19     -78.579-210.106  83.266  1.00 27.52 LIG-0.27  OA
BRANCH 20 23
ATOM     23  CA  PHE C  20     -80.693-211.371  84.568  1.00 27.49 LIG 0.19  C 
BRANCH 23 24
ATOM     24  CB  PHE C  20     -81.571-212.594  84.831  1.00 22.62 LIG 0.07  C 
BRANCH 24 25
ATOM     25  CG  PHE C  20     -81.677-213.505  83.646  1.00 18.80 LIG-0.06  A 
ATOM     26  CD1 PHE C  20     -80.643-213.580  82.733  1.00 16.53 LIG 0.01  A 
ATOM     27  CE1 PHE C  20     -80.716-214.425  81.650  1.00 18.06 LIG 0.00  A 
ATOM     28  CZ  PHE C  20     -81.834-215.223  81.468  1.00 17.30 LIG 0.00  A 
ATOM     29  CE2 PHE C  20     -82.870-215.165  82.375  1.00 18.45 LIG 0.00  A 
ATOM     30  CD2 PHE C  20     -82.788-214.312  83.462  1.00 20.64 LIG 0.01  A 
ENDBRANCH 24 25
ENDBRANCH 23 24
BRANCH 23 31
ATOM     31  C   PHE C  20     -81.024-210.249  85.549  1.00 41.21 LIG 0.20  C 
ATOM     32 OXT  PHE C  20     -80.538-210.221  86.679  1.00 46.78 LIG-0.65  OA
ATOM     33 O    PHE C  20     -81.784-209.331  85.227  1.00 43.65 LIG-0.65  OA
ENDBRANCH 23 31
ENDBRANCH 20 23
ENDBRANCH 15 19
ENDBRANCH 5 12
ENDBRANCH 3 5
BRANCH 1 34
ATOM     34  CA  ASN C  17     -73.889-210.340  78.035  1.00 16.90 LIG 0.18  C 
BRANCH 34 35
ATOM     35  N   ASN C  17     -74.245-208.953  77.775  1.00 20.58 LIG-0.35  N 
ATOM     36  C   VAL C  16     -75.489-208.611  77.456  1.00 27.16 LIG 0.24  C 
ATOM     37 O    VAL C  16     -76.354-209.437  77.168  1.00 29.43 LIG-0.27  OA
ATOM     38 H    ASN C  17     -73.593-208.396  77.847  1.00 20.58 LIG 0.16  HD
BRANCH 36 39
ATOM     39  CA  VAL C  16     -75.803-207.116  77.447  1.00 33.54 LIG 0.18  C 
BRANCH 39 40
ATOM     40  CB  VAL C  16     -75.792-206.581  78.899  1.00 32.44 LIG 0.01  C 
ATOM     41  CG2 VAL C  16     -74.355-206.410  79.392  1.00 34.10 LIG 0.01  C 
ATOM     42  CG1 VAL C  16     -76.602-207.489  79.834  1.00 32.37 LIG 0.01  C 
ENDBRANCH 39 40
BRANCH 39 43
ATOM     43  N   VAL C  16     -77.087-206.851  76.810  1.00 45.58 LIG-0.34  N 
ATOM     44  C   GLN C  15     -77.189-206.187  75.664  1.00 57.61 LIG 0.26  C 
ATOM     45 O    GLN C  15     -76.211-205.771  75.040  1.00 61.53 LIG-0.27  OA
ATOM     46 H    VAL C  16     -77.764-207.161  77.241  1.00 45.58 LIG 0.16  HD
BRANCH 44 47
ATOM     47  CA  GLN C  15     -78.608-205.967  75.147  1.00 63.44 LIG 0.40  C 
ATOM     48  N   GLN C  15     -79.470-207.084  75.512  1.00 62.08 LIG 0.61  N 
BRANCH 47 49
ATOM     49  CB  GLN C  15     -79.171-204.657  75.694  1.00 68.54 LIG 0.06  C 
BRANCH 49 50
ATOM     50  CG  GLN C  15     -78.947-204.471  77.191  1.00 72.89 LIG 0.10  C 
BRANCH 50 51
ATOM     51  CD  GLN C  15     -77.659-203.742  77.534  1.00 75.77 LIG 0.21  C 
ATOM     52 OE1  GLN C  15     -76.994-204.047  78.524  1.00 77.61 LIG-0.27  OA
ATOM     53  NE2 GLN C  15     -77.306-202.762  76.712  1.00 76.03 LIG-0.37  N 
ATOM     54 22HE GLN C  15     -76.588-202.313  76.860  1.00 76.03 LIG 0.16  HD
ATOM     55 21HE GLN C  15     -77.796-202.576  76.029  1.00 76.03 LIG 0.16  HD
ENDBRANCH 50 51
ENDBRANCH 49 50
ENDBRANCH 47 49
ENDBRANCH 44 47
ENDBRANCH 39 43
ENDBRANCH 36 39
ENDBRANCH 34 35
BRANCH 34 56
ATOM     56  CB  ASN C  17     -72.437-210.621  77.637  1.00 15.63 LIG 0.14  C 
BRANCH 56 57
ATOM     57  CG  ASN C  17     -72.220-212.053  77.187  1.00 17.63 LIG 0.22  C 
ATOM     58 OD1  ASN C  17     -71.421-212.322  76.288  1.00 24.00 LIG-0.27  OA
ATOM     59  ND2 ASN C  17     -72.944-212.982  77.801  1.00 16.48 LIG-0.37  N 
ATOM     60 21HD ASN C  17     -72.864-213.808  77.575  1.00 16.48 LIG 0.16  HD
ATOM     61 22HD ASN C  17     -73.492-212.758  78.424  1.00 16.48 LIG 0.16  HD
ENDBRANCH 56 57
ENDBRANCH 34 56
ENDBRANCH 1 34
TORSDOF 20
ENDMDL
MODEL 42
USER: ADFR SOLUTION from run 175
USER: SCORE 16.308608 LL:  -4.485 LR: -13.394 RR:   0.000 FEB:  -7.428
USER: RMSD 9.398128
USER: SEED 174
USER: STATUS no improvement in best in 22 clusters for 5 generations
USER: GENES 22
USER: genes 0 Translation |==|  0.64711 0.45396 0.24014
USER: genes 1 Rotation |==|  0.62424 0.07441 0.28766 0.59139
USER: genes 2 Torsion [C]-N--CA-[CB] |==|  0.22057
USER: genes 3 Torsion [N]-CA--CB-[CG] |==|  0.72534
USER: genes 4 Torsion [CA]-CB--CG-[OD1] |==|  0.39613
USER: genes 5 Torsion [N]-CA--C-[N] |==|  0.10556
USER: genes 6 Torsion [N]-CA--C-[O] |==|  0.12381
USER: genes 7 Torsion [C]-N--CA-[CB] |==|  0.28855
USER: genes 8 Torsion [N]-CA--CB-[CG] |==|  0.86927
USER: genes 9 Torsion [CA]-CB--CG-[CD1] |==|  0.30883
USER: genes 10 Torsion [N]-CA--C-[O] |==|  0.14035
USER: genes 11 Torsion [N]-C--CA-[N] |==|  0.77500
USER: genes 12 Torsion [C]-CA--N-[C] |==|  0.61191
USER: genes 13 Torsion [N]-C--CA-[N] |==|  0.18482
USER: genes 14 Torsion [C]-CA--CB-[CG2] |==|  0.76303
USER: genes 15 Torsion [C]-CA--N-[C] |==|  0.75005
USER: genes 16 Torsion [N]-C--CA-[N] |==|  0.41019
USER: genes 17 Torsion [C]-CA--CB-[CG] |==|  0.10215
USER: genes 18 Torsion [CA]-CB--CG-[CD] |==|  0.17897
USER: genes 19 Torsion [CB]-CG--CD-[OE1] |==|  0.64064
USER: genes 20 Torsion [C]-CA--CB-[CG] |==|  0.45904
USER: genes 21 Torsion [CA]-CB--CG-[OD1] |==|  0.29466
ROOT
ATOM      1  C   ASN C  17     -74.999-210.212  76.386  1.00 20.61 LIG 0.24  C 
ATOM      2 O    ASN C  17     -74.808-211.331  75.913  1.00 16.51 LIG-0.27  OA
ATOM      3  N   ASN C  18     -74.761-209.904  77.660  1.00 22.51 LIG-0.35  N 
ATOM      4 H    ASN C  18     -74.929-209.134  78.003  1.00 22.51 LIG 0.16  HD
ENDROOT
BRANCH 3 5
ATOM      5  CA  ASN C  18     -74.185-210.863  78.596  1.00 19.22 LIG 0.18  C 
BRANCH 5 6
ATOM      6  CB  ASN C  18     -72.669-210.952  78.394  1.00 16.89 LIG 0.14  C 
BRANCH 6 7
ATOM      7  CG  ASN C  18     -72.262-212.145  77.550  1.00 20.14 LIG 0.22  C 
ATOM      8  ND2 ASN C  18     -72.944-213.268  77.747  1.00 20.12 LIG-0.37  N 
ATOM      9 22HD ASN C  18     -73.584-213.288  78.321  1.00 20.12 LIG 0.16  HD
ATOM     10 21HD ASN C  18     -72.744-213.976  77.301  1.00 20.12 LIG 0.16  HD
ATOM     11 OD1  ASN C  18     -71.336-212.062  76.743  1.00 18.28 LIG-0.27  OA
ENDBRANCH 6 7
ENDBRANCH 5 6
BRANCH 5 12
ATOM     12  C   ASN C  18     -74.492-210.497  80.051  1.00 21.33 LIG 0.24  C 
ATOM     13  N   PRO C  19     -75.708-209.992  80.315  1.00 20.66 LIG-0.34  N 
ATOM     14  CD  PRO C  19     -76.745-209.590  79.349  1.00 23.11 LIG 0.13  C 
ATOM     15  CA  PRO C  19     -76.082-209.634  81.687  1.00 23.26 LIG 0.18  C 
ATOM     16  CG  PRO C  19     -77.829-208.993  80.217  1.00 22.87 LIG 0.02  C 
ATOM     17  CB  PRO C  19     -77.151-208.565  81.474  1.00 23.39 LIG 0.04  C 
ATOM     18 O    ASN C  18     -73.645-210.672  80.926  1.00 23.13 LIG-0.27  OA
BRANCH 15 19
ATOM     19  C   PRO C  19     -76.651-210.804  82.489  1.00 24.54 LIG 0.24  C 
ATOM     20  N   PHE C  20     -77.741-210.569  83.214  1.00 23.51 LIG-0.34  N 
ATOM     21 H    PHE C  20     -78.200-209.843  83.170  1.00 23.51 LIG 0.16  HD
ATOM     22 O    PRO C  19     -76.098-211.906  82.439  1.00 27.52 LIG-0.27  OA
BRANCH 20 23
ATOM     23  CA  PHE C  20     -78.254-211.552  84.167  1.00 27.49 LIG 0.19  C 
BRANCH 23 24
ATOM     24  CB  PHE C  20     -77.896-211.114  85.587  1.00 22.62 LIG 0.07  C 
BRANCH 24 25
ATOM     25  CG  PHE C  20     -76.465-210.694  85.727  1.00 18.80 LIG-0.06  A 
ATOM     26  CD1 PHE C  20     -76.150-209.368  85.958  1.00 16.53 LIG 0.01  A 
ATOM     27  CE1 PHE C  20     -74.842-208.970  86.109  1.00 18.06 LIG 0.00  A 
ATOM     28  CZ  PHE C  20     -73.820-209.902  86.037  1.00 17.30 LIG 0.00  A 
ATOM     29  CE2 PHE C  20     -74.119-211.229  85.815  1.00 18.45 LIG 0.00  A 
ATOM     30  CD2 PHE C  20     -75.438-211.622  85.666  1.00 20.64 LIG 0.01  A 
ENDBRANCH 24 25
ENDBRANCH 23 24
BRANCH 23 31
ATOM     31  C   PHE C  20     -79.759-211.770  84.034  1.00 41.21 LIG 0.20  C 
ATOM     32 OXT  PHE C  20     -80.505-211.705  85.011  1.00 46.78 LIG-0.65  OA
ATOM     33 O    PHE C  20     -80.270-212.006  82.935  1.00 43.65 LIG-0.65  OA
ENDBRANCH 23 31
ENDBRANCH 20 23
ENDBRANCH 15 19
ENDBRANCH 5 12
ENDBRANCH 3 5
BRANCH 1 34
ATOM     34  CA  ASN C  17     -75.516-209.082  75.506  1.00 16.90 LIG 0.18  C 
BRANCH 34 35
ATOM     35  N   ASN C  17     -76.947-208.941  75.729  1.00 20.58 LIG-0.35  N 
ATOM     36  C   VAL C  16     -77.780-208.705  74.721  1.00 27.16 LIG 0.24  C 
ATOM     37 O    VAL C  16     -77.392-208.397  73.594  1.00 29.43 LIG-0.27  OA
ATOM     38 H    ASN C  17     -77.192-209.023  76.550  1.00 20.58 LIG 0.16  HD
BRANCH 36 39
ATOM     39  CA  VAL C  16     -79.271-208.821  75.028  1.00 33.54 LIG 0.18  C 
BRANCH 39 40
ATOM     40  CB  VAL C  16     -80.075-208.743  73.708  1.00 32.44 LIG 0.01  C 
ATOM     41  CG2 VAL C  16     -80.334-207.285  73.328  1.00 34.10 LIG 0.01  C 
ATOM     42  CG1 VAL C  16     -81.384-209.539  73.805  1.00 32.37 LIG 0.01  C 
ENDBRANCH 39 40
BRANCH 39 43
ATOM     43  N   VAL C  16     -79.701-207.781  75.955  1.00 45.58 LIG-0.34  N 
ATOM     44  C   GLN C  15     -79.680-207.949  77.272  1.00 57.61 LIG 0.26  C 
ATOM     45 O    GLN C  15     -79.271-208.978  77.811  1.00 61.53 LIG-0.27  OA
ATOM     46 H    VAL C  16     -79.967-207.058  75.572  1.00 45.58 LIG 0.16  HD
BRANCH 44 47
ATOM     47  CA  GLN C  15     -80.192-206.774  78.101  1.00 63.44 LIG 0.40  C 
ATOM     48  N   GLN C  15     -80.832-207.245  79.324  1.00 62.08 LIG 0.61  N 
BRANCH 47 49
ATOM     49  CB  GLN C  15     -79.044-205.822  78.433  1.00 68.54 LIG 0.06  C 
BRANCH 49 50
ATOM     50  CG  GLN C  15     -78.026-205.673  77.307  1.00 72.89 LIG 0.10  C 
BRANCH 50 51
ATOM     51  CD  GLN C  15     -78.591-205.037  76.048  1.00 75.77 LIG 0.21  C 
ATOM     52 OE1  GLN C  15     -78.436-205.556  74.943  1.00 77.61 LIG-0.27  OA
ATOM     53  NE2 GLN C  15     -79.249-203.896  76.215  1.00 76.03 LIG-0.37  N 
ATOM     54 22HE GLN C  15     -79.587-203.491  75.536  1.00 76.03 LIG 0.16  HD
ATOM     55 21HE GLN C  15     -79.339-203.562  77.002  1.00 76.03 LIG 0.16  HD
ENDBRANCH 50 51
ENDBRANCH 49 50
ENDBRANCH 47 49
ENDBRANCH 44 47
ENDBRANCH 39 43
ENDBRANCH 36 39
ENDBRANCH 34 35
BRANCH 34 56
ATOM     56  CB  ASN C  17     -74.779-207.774  75.810  1.00 15.63 LIG 0.14  C 
BRANCH 56 57
ATOM     57  CG  ASN C  17     -74.992-206.720  74.741  1.00 17.63 LIG 0.22  C 
ATOM     58 OD1  ASN C  17     -75.726-205.750  74.943  1.00 24.00 LIG-0.27  OA
ATOM     59  ND2 ASN C  17     -74.362-206.910  73.588  1.00 16.48 LIG-0.37  N 
ATOM     60 21HD ASN C  17     -74.459-206.346  72.947  1.00 16.48 LIG 0.16  HD
ATOM     61 22HD ASN C  17     -73.858-207.599  73.482  1.00 16.48 LIG 0.16  HD
ENDBRANCH 56 57
ENDBRANCH 34 56
ENDBRANCH 1 34
TORSDOF 20
ENDMDL
MODEL 43
USER: ADFR SOLUTION from run 72
USER: SCORE 16.811726 LL:  -4.684 LR: -13.379 RR:   0.000 FEB:  -7.413
USER: RMSD 9.850697
USER: SEED 71
USER: STATUS no improvement in best in 13 clusters for 5 generations
USER: GENES 22
USER: genes 0 Translation |==|  0.72548 0.44304 0.37870
USER: genes 1 Rotation |==|  0.90098 0.21796 0.57884 0.55875
USER: genes 2 Torsion [C]-N--CA-[CB] |==|  0.27605
USER: genes 3 Torsion [N]-CA--CB-[CG] |==|  0.69084
USER: genes 4 Torsion [CA]-CB--CG-[OD1] |==|  0.60941
USER: genes 5 Torsion [N]-CA--C-[N] |==|  0.43954
USER: genes 6 Torsion [N]-CA--C-[O] |==|  0.97289
USER: genes 7 Torsion [C]-N--CA-[CB] |==|  0.21646
USER: genes 8 Torsion [N]-CA--CB-[CG] |==|  0.15648
USER: genes 9 Torsion [CA]-CB--CG-[CD1] |==|  0.74676
USER: genes 10 Torsion [N]-CA--C-[O] |==|  0.91382
USER: genes 11 Torsion [N]-C--CA-[N] |==|  0.11503
USER: genes 12 Torsion [C]-CA--N-[C] |==|  0.17778
USER: genes 13 Torsion [N]-C--CA-[N] |==|  0.38059
USER: genes 14 Torsion [C]-CA--CB-[CG2] |==|  0.51422
USER: genes 15 Torsion [C]-CA--N-[C] |==|  0.82980
USER: genes 16 Torsion [N]-C--CA-[N] |==|  0.86042
USER: genes 17 Torsion [C]-CA--CB-[CG] |==|  0.80912
USER: genes 18 Torsion [CA]-CB--CG-[CD] |==|  0.40390
USER: genes 19 Torsion [CB]-CG--CD-[OE1] |==|  0.72609
USER: genes 20 Torsion [C]-CA--CB-[CG] |==|  0.39368
USER: genes 21 Torsion [CA]-CB--CG-[OD1] |==|  0.42470
ROOT
ATOM      1  C   ASN C  17     -73.353-210.375  79.816  1.00 20.61 LIG 0.24  C 
ATOM      2 O    ASN C  17     -72.323-210.224  80.471  1.00 16.51 LIG-0.27  OA
ATOM      3  N   ASN C  18     -74.574-210.303  80.342  1.00 22.51 LIG-0.35  N 
ATOM      4 H    ASN C  18     -75.294-210.446  79.895  1.00 22.51 LIG 0.16  HD
ENDROOT
BRANCH 3 5
ATOM      5  CA  ASN C  18     -74.797-209.970  81.745  1.00 19.22 LIG 0.18  C 
BRANCH 5 6
ATOM      6  CB  ASN C  18     -75.172-208.491  81.883  1.00 16.89 LIG 0.14  C 
BRANCH 6 7
ATOM      7  CG  ASN C  18     -74.092-207.677  82.566  1.00 20.14 LIG 0.22  C 
ATOM      8  ND2 ASN C  18     -72.836-207.984  82.259  1.00 20.12 LIG-0.37  N 
ATOM      9 22HD ASN C  18     -72.673-208.608  81.690  1.00 20.12 LIG 0.16  HD
ATOM     10 21HD ASN C  18     -72.187-207.558  82.629  1.00 20.12 LIG 0.16  HD
ATOM     11 OD1  ASN C  18     -74.382-206.792  83.373  1.00 18.28 LIG-0.27  OA
ENDBRANCH 6 7
ENDBRANCH 5 6
BRANCH 5 12
ATOM     12  C   ASN C  18     -75.888-210.842  82.373  1.00 21.33 LIG 0.24  C 
ATOM     13  N   PRO C  19     -75.885-210.963  83.711  1.00 20.66 LIG-0.34  N 
ATOM     14  CD  PRO C  19     -74.859-210.487  84.656  1.00 23.11 LIG 0.13  C 
ATOM     15  CA  PRO C  19     -76.908-211.766  84.387  1.00 23.26 LIG 0.18  C 
ATOM     16  CG  PRO C  19     -75.335-211.009  85.992  1.00 22.87 LIG 0.02  C 
ATOM     17  CB  PRO C  19     -76.211-212.174  85.683  1.00 23.39 LIG 0.04  C 
ATOM     18 O    ASN C  18     -76.725-211.396  81.662  1.00 23.13 LIG-0.27  OA
BRANCH 15 19
ATOM     19  C   PRO C  19     -78.189-210.989  84.694  1.00 24.54 LIG 0.24  C 
ATOM     20  N   PHE C  20     -79.235-211.690  85.124  1.00 23.51 LIG-0.34  N 
ATOM     21 H    PHE C  20     -79.199-212.521  85.344  1.00 23.51 LIG 0.16  HD
ATOM     22 O    PRO C  19     -78.213-209.765  84.539  1.00 27.52 LIG-0.27  OA
BRANCH 20 23
ATOM     23  CA  PHE C  20     -80.559-211.084  85.259  1.00 27.49 LIG 0.19  C 
BRANCH 23 24
ATOM     24  CB  PHE C  20     -81.207-210.976  83.879  1.00 22.62 LIG 0.07  C 
BRANCH 24 25
ATOM     25  CG  PHE C  20     -81.298-212.292  83.169  1.00 18.80 LIG-0.06  A 
ATOM     26  CD1 PHE C  20     -80.278-212.702  82.332  1.00 16.53 LIG 0.01  A 
ATOM     27  CE1 PHE C  20     -80.338-213.917  81.688  1.00 18.06 LIG 0.00  A 
ATOM     28  CZ  PHE C  20     -81.427-214.750  81.881  1.00 17.30 LIG 0.00  A 
ATOM     29  CE2 PHE C  20     -82.448-214.360  82.719  1.00 18.45 LIG 0.00  A 
ATOM     30  CD2 PHE C  20     -82.380-213.137  83.364  1.00 20.64 LIG 0.01  A 
ENDBRANCH 24 25
ENDBRANCH 23 24
BRANCH 23 31
ATOM     31  C   PHE C  20     -81.462-211.854  86.219  1.00 41.21 LIG 0.20  C 
ATOM     32 OXT  PHE C  20     -82.330-211.283  86.879  1.00 46.78 LIG-0.65  OA
ATOM     33 O    PHE C  20     -81.351-213.076  86.350  1.00 43.65 LIG-0.65  OA
ENDBRANCH 23 31
ENDBRANCH 20 23
ENDBRANCH 15 19
ENDBRANCH 5 12
ENDBRANCH 3 5
BRANCH 1 34
ATOM     34  CA  ASN C  17     -73.280-210.642  78.318  1.00 16.90 LIG 0.18  C 
BRANCH 34 35
ATOM     35  N   ASN C  17     -74.308-209.851  77.659  1.00 20.58 LIG-0.35  N 
ATOM     36  C   VAL C  16     -74.274-208.522  77.683  1.00 27.16 LIG 0.24  C 
ATOM     37 O    VAL C  16     -73.511-207.889  78.412  1.00 29.43 LIG-0.27  OA
ATOM     38 H    ASN C  17     -74.918-210.312  77.265  1.00 20.58 LIG 0.16  HD
BRANCH 36 39
ATOM     39  CA  VAL C  16     -75.253-207.799  76.761  1.00 33.54 LIG 0.18  C 
BRANCH 39 40
ATOM     40  CB  VAL C  16     -74.507-207.329  75.489  1.00 32.44 LIG 0.01  C 
ATOM     41  CG2 VAL C  16     -75.435-206.492  74.607  1.00 34.10 LIG 0.01  C 
ATOM     42  CG1 VAL C  16     -73.920-208.518  74.715  1.00 32.37 LIG 0.01  C 
ENDBRANCH 39 40
BRANCH 39 43
ATOM     43  N   VAL C  16     -75.880-206.670  77.437  1.00 45.58 LIG-0.34  N 
ATOM     44  C   GLN C  15     -76.630-206.819  78.522  1.00 57.61 LIG 0.26  C 
ATOM     45 O    GLN C  15     -76.831-207.911  79.055  1.00 61.53 LIG-0.27  OA
ATOM     46 H    VAL C  16     -75.719-205.908  77.071  1.00 45.58 LIG 0.16  HD
BRANCH 44 47
ATOM     47  CA  GLN C  15     -77.239-205.540  79.091  1.00 63.44 LIG 0.40  C 
ATOM     48  N   GLN C  15     -76.219-204.510  79.253  1.00 62.08 LIG 0.61  N 
BRANCH 47 49
ATOM     49  CB  GLN C  15     -78.361-205.040  78.182  1.00 68.54 LIG 0.06  C 
BRANCH 49 50
ATOM     50  CG  GLN C  15     -77.873-204.523  76.833  1.00 72.89 LIG 0.10  C 
BRANCH 50 51
ATOM     51  CD  GLN C  15     -78.829-204.800  75.686  1.00 75.77 LIG 0.21  C 
ATOM     52 OE1  GLN C  15     -78.659-205.754  74.926  1.00 77.61 LIG-0.27  OA
ATOM     53  NE2 GLN C  15     -79.844-203.955  75.553  1.00 76.03 LIG-0.37  N 
ATOM     54 22HE GLN C  15     -80.414-204.062  74.919  1.00 76.03 LIG 0.16  HD
ATOM     55 21HE GLN C  15     -79.931-203.299  76.103  1.00 76.03 LIG 0.16  HD
ENDBRANCH 50 51
ENDBRANCH 49 50
ENDBRANCH 47 49
ENDBRANCH 44 47
ENDBRANCH 39 43
ENDBRANCH 36 39
ENDBRANCH 34 35
BRANCH 34 56
ATOM     56  CB  ASN C  17     -71.889-210.306  77.772  1.00 15.63 LIG 0.14  C 
BRANCH 56 57
ATOM     57  CG  ASN C  17     -71.422-211.287  76.714  1.00 17.63 LIG 0.22  C 
ATOM     58 OD1  ASN C  17     -70.622-210.945  75.840  1.00 24.00 LIG-0.27  OA
ATOM     59  ND2 ASN C  17     -71.932-212.511  76.777  1.00 16.48 LIG-0.37  N 
ATOM     60 21HD ASN C  17     -71.706-213.101  76.194  1.00 16.48 LIG 0.16  HD
ATOM     61 22HD ASN C  17     -72.488-212.714  77.401  1.00 16.48 LIG 0.16  HD
ENDBRANCH 56 57
ENDBRANCH 34 56
ENDBRANCH 1 34
TORSDOF 20
ENDMDL
MODEL 44
USER: ADFR SOLUTION from run 97
USER: SCORE 18.184957 LL:  -6.125 LR: -13.337 RR:   0.000 FEB:  -7.371
USER: RMSD 7.650690
USER: SEED 96
USER: STATUS no improvement in best in 13 clusters for 5 generations
USER: GENES 22
USER: genes 0 Translation |==|  0.69291 0.47103 0.59189
USER: genes 1 Rotation |==|  0.41910 0.60905 0.29023 0.93308
USER: genes 2 Torsion [C]-N--CA-[CB] |==|  0.16461
USER: genes 3 Torsion [N]-CA--CB-[CG] |==|  0.67157
USER: genes 4 Torsion [CA]-CB--CG-[OD1] |==|  0.92147
USER: genes 5 Torsion [N]-CA--C-[N] |==|  0.31968
USER: genes 6 Torsion [N]-CA--C-[O] |==|  0.40288
USER: genes 7 Torsion [C]-N--CA-[CB] |==|  0.25439
USER: genes 8 Torsion [N]-CA--CB-[CG] |==|  0.08931
USER: genes 9 Torsion [CA]-CB--CG-[CD1] |==|  0.65979
USER: genes 10 Torsion [N]-CA--C-[O] |==|  0.00649
USER: genes 11 Torsion [N]-C--CA-[N] |==|  0.91834
USER: genes 12 Torsion [C]-CA--N-[C] |==|  0.79513
USER: genes 13 Torsion [N]-C--CA-[N] |==|  0.97678
USER: genes 14 Torsion [C]-CA--CB-[CG2] |==|  0.89605
USER: genes 15 Torsion [C]-CA--N-[C] |==|  0.77639
USER: genes 16 Torsion [N]-C--CA-[N] |==|  0.25696
USER: genes 17 Torsion [C]-CA--CB-[CG] |==|  0.65001
USER: genes 18 Torsion [CA]-CB--CG-[CD] |==|  0.26397
USER: genes 19 Torsion [CB]-CG--CD-[OE1] |==|  0.74120
USER: genes 20 Torsion [C]-CA--CB-[CG] |==|  0.30637
USER: genes 21 Torsion [CA]-CB--CG-[OD1] |==|  0.35697
ROOT
ATOM      1  C   ASN C  17     -74.037-209.956  85.092  1.00 20.61 LIG 0.24  C 
ATOM      2 O    ASN C  17     -74.732-210.966  84.997  1.00 16.51 LIG-0.27  OA
ATOM      3  N   ASN C  18     -73.768-209.152  84.065  1.00 22.51 LIG-0.35  N 
ATOM      4 H    ASN C  18     -73.252-208.466  84.120  1.00 22.51 LIG 0.16  HD
ENDROOT
BRANCH 3 5
ATOM      5  CA  ASN C  18     -74.334-209.370  82.739  1.00 19.22 LIG 0.18  C 
BRANCH 5 6
ATOM      6  CB  ASN C  18     -75.864-209.336  82.807  1.00 16.89 LIG 0.14  C 
BRANCH 6 7
ATOM      7  CG  ASN C  18     -76.495-210.649  82.388  1.00 20.14 LIG 0.22  C 
ATOM      8  ND2 ASN C  18     -77.666-210.947  82.943  1.00 20.12 LIG-0.37  N 
ATOM      9 22HD ASN C  18     -78.029-210.400  83.499  1.00 20.12 LIG 0.16  HD
ATOM     10 21HD ASN C  18     -78.059-211.686  82.746  1.00 20.12 LIG 0.16  HD
ATOM     11 OD1  ASN C  18     -75.931-211.396  81.588  1.00 18.28 LIG-0.27  OA
ENDBRANCH 6 7
ENDBRANCH 5 6
BRANCH 5 12
ATOM     12  C   ASN C  18     -73.838-208.333  81.727  1.00 21.33 LIG 0.24  C 
ATOM     13  N   PRO C  19     -73.083-208.778  80.709  1.00 20.66 LIG-0.34  N 
ATOM     14  CD  PRO C  19     -72.530-210.131  80.522  1.00 23.11 LIG 0.13  C 
ATOM     15  CA  PRO C  19     -72.586-207.848  79.691  1.00 23.26 LIG 0.18  C 
ATOM     16  CG  PRO C  19     -71.681-210.001  79.279  1.00 22.87 LIG 0.02  C 
ATOM     17  CB  PRO C  19     -71.335-208.555  79.174  1.00 23.39 LIG 0.04  C 
ATOM     18 O    ASN C  18     -74.135-207.146  81.860  1.00 23.13 LIG-0.27  OA
BRANCH 15 19
ATOM     19  C   PRO C  19     -73.573-207.610  78.548  1.00 24.54 LIG 0.24  C 
ATOM     20  N   PHE C  20     -74.325-208.641  78.172  1.00 23.51 LIG-0.34  N 
ATOM     21 H    PHE C  20     -74.370-209.385  78.602  1.00 23.51 LIG 0.16  HD
ATOM     22 O    PRO C  19     -73.640-206.497  78.021  1.00 27.52 LIG-0.27  OA
BRANCH 20 23
ATOM     23  CA  PHE C  20     -75.156-208.585  76.971  1.00 27.49 LIG 0.19  C 
BRANCH 23 24
ATOM     24  CB  PHE C  20     -74.359-209.119  75.781  1.00 22.62 LIG 0.07  C 
BRANCH 24 25
ATOM     25  CG  PHE C  20     -73.384-210.191  76.162  1.00 18.80 LIG-0.06  A 
ATOM     26  CD1 PHE C  20     -72.039-210.036  75.887  1.00 16.53 LIG 0.01  A 
ATOM     27  CE1 PHE C  20     -71.128-211.003  76.248  1.00 18.06 LIG 0.00  A 
ATOM     28  CZ  PHE C  20     -71.555-212.146  76.903  1.00 17.30 LIG 0.00  A 
ATOM     29  CE2 PHE C  20     -72.892-212.311  77.192  1.00 18.45 LIG 0.00  A 
ATOM     30  CD2 PHE C  20     -73.801-211.333  76.826  1.00 20.64 LIG 0.01  A 
ENDBRANCH 24 25
ENDBRANCH 23 24
BRANCH 23 31
ATOM     31  C   PHE C  20     -76.468-209.350  77.126  1.00 41.21 LIG 0.20  C 
ATOM     32 OXT  PHE C  20     -77.264-209.453  76.193  1.00 46.78 LIG-0.65  OA
ATOM     33 O    PHE C  20     -76.759-209.896  78.194  1.00 43.65 LIG-0.65  OA
ENDBRANCH 23 31
ENDBRANCH 20 23
ENDBRANCH 15 19
ENDBRANCH 5 12
ENDBRANCH 3 5
BRANCH 1 34
ATOM     34  CA  ASN C  17     -73.448-209.550  86.437  1.00 16.90 LIG 0.18  C 
BRANCH 34 35
ATOM     35  N   ASN C  17     -72.212-208.821  86.197  1.00 20.58 LIG-0.35  N 
ATOM     36  C   VAL C  16     -71.107-209.450  85.808  1.00 27.16 LIG 0.24  C 
ATOM     37 O    VAL C  16     -71.000-210.676  85.818  1.00 29.43 LIG-0.27  OA
ATOM     38 H    ASN C  17     -72.265-207.972  86.329  1.00 20.58 LIG 0.16  HD
BRANCH 36 39
ATOM     39  CA  VAL C  16     -69.947-208.568  85.351  1.00 33.54 LIG 0.18  C 
BRANCH 39 40
ATOM     40  CB  VAL C  16     -68.766-208.722  86.338  1.00 32.44 LIG 0.01  C 
ATOM     41  CG2 VAL C  16     -69.283-208.853  87.771  1.00 34.10 LIG 0.01  C 
ATOM     42  CG1 VAL C  16     -67.772-207.559  86.205  1.00 32.37 LIG 0.01  C 
ENDBRANCH 39 40
BRANCH 39 43
ATOM     43  N   VAL C  16     -70.354-207.172  85.248  1.00 45.58 LIG-0.34  N 
ATOM     44  C   GLN C  15     -71.015-206.699  84.198  1.00 57.61 LIG 0.26  C 
ATOM     45 O    GLN C  15     -71.358-207.405  83.248  1.00 61.53 LIG-0.27  OA
ATOM     46 H    VAL C  16     -70.128-206.690  85.924  1.00 45.58 LIG 0.16  HD
BRANCH 44 47
ATOM     47  CA  GLN C  15     -71.339-205.208  84.232  1.00 63.44 LIG 0.40  C 
ATOM     48  N   GLN C  15     -70.293-204.437  83.568  1.00 62.08 LIG 0.61  N 
BRANCH 47 49
ATOM     49  CB  GLN C  15     -72.692-204.948  83.573  1.00 68.54 LIG 0.06  C 
BRANCH 49 50
ATOM     50  CG  GLN C  15     -72.642-203.907  82.459  1.00 72.89 LIG 0.10  C 
BRANCH 50 51
ATOM     51  CD  GLN C  15     -72.485-204.500  81.070  1.00 75.77 LIG 0.21  C 
ATOM     52 OE1  GLN C  15     -71.375-204.644  80.557  1.00 77.61 LIG-0.27  OA
ATOM     53  NE2 GLN C  15     -73.607-204.843  80.449  1.00 76.03 LIG-0.37  N 
ATOM     54 22HE GLN C  15     -73.576-205.180  79.659  1.00 76.03 LIG 0.16  HD
ATOM     55 21HE GLN C  15     -74.365-204.728  80.839  1.00 76.03 LIG 0.16  HD
ENDBRANCH 50 51
ENDBRANCH 49 50
ENDBRANCH 47 49
ENDBRANCH 44 47
ENDBRANCH 39 43
ENDBRANCH 36 39
ENDBRANCH 34 35
BRANCH 34 56
ATOM     56  CB  ASN C  17     -74.443-208.702  87.234  1.00 15.63 LIG 0.14  C 
BRANCH 56 57
ATOM     57  CG  ASN C  17     -74.995-209.431  88.445  1.00 17.63 LIG 0.22  C 
ATOM     58 OD1  ASN C  17     -74.969-208.913  89.563  1.00 24.00 LIG-0.27  OA
ATOM     59  ND2 ASN C  17     -75.485-210.646  88.232  1.00 16.48 LIG-0.37  N 
ATOM     60 21HD ASN C  17     -75.801-211.103  88.888  1.00 16.48 LIG 0.16  HD
ATOM     61 22HD ASN C  17     -75.487-210.975  87.437  1.00 16.48 LIG 0.16  HD
ENDBRANCH 56 57
ENDBRANCH 34 56
ENDBRANCH 1 34
TORSDOF 20
ENDMDL
MODEL 45
USER: ADFR SOLUTION from run 66
USER: SCORE 15.656763 LL:  -4.113 LR: -13.325 RR:   0.000 FEB:  -7.359
USER: RMSD 9.466566
USER: SEED 65
USER: STATUS no improvement in best in 19 clusters for 5 generations
USER: GENES 22
USER: genes 0 Translation |==|  0.63144 0.48348 0.25758
USER: genes 1 Rotation |==|  0.19512 0.18619 0.38165 0.71111
USER: genes 2 Torsion [C]-N--CA-[CB] |==|  0.39982
USER: genes 3 Torsion [N]-CA--CB-[CG] |==|  0.22862
USER: genes 4 Torsion [CA]-CB--CG-[OD1] |==|  0.25652
USER: genes 5 Torsion [N]-CA--C-[N] |==|  0.92830
USER: genes 6 Torsion [N]-CA--C-[O] |==|  0.91105
USER: genes 7 Torsion [C]-N--CA-[CB] |==|  0.33748
USER: genes 8 Torsion [N]-CA--CB-[CG] |==|  0.78423
USER: genes 9 Torsion [CA]-CB--CG-[CD1] |==|  0.54210
USER: genes 10 Torsion [N]-CA--C-[O] |==|  0.46659
USER: genes 11 Torsion [N]-C--CA-[N] |==|  0.49738
USER: genes 12 Torsion [C]-CA--N-[C] |==|  0.62142
USER: genes 13 Torsion [N]-C--CA-[N] |==|  0.16108
USER: genes 14 Torsion [C]-CA--CB-[CG2] |==|  0.51355
USER: genes 15 Torsion [C]-CA--N-[C] |==|  0.14932
USER: genes 16 Torsion [N]-C--CA-[N] |==|  0.40547
USER: genes 17 Torsion [C]-CA--CB-[CG] |==|  0.01686
USER: genes 18 Torsion [CA]-CB--CG-[CD] |==|  0.74154
USER: genes 19 Torsion [CB]-CG--CD-[OE1] |==|  0.30341
USER: genes 20 Torsion [C]-CA--CB-[CG] |==|  0.51875
USER: genes 21 Torsion [CA]-CB--CG-[OD1] |==|  0.26000
ROOT
ATOM      1  C   ASN C  17     -75.328-209.769  76.818  1.00 20.61 LIG 0.24  C 
ATOM      2 O    ASN C  17     -76.133-210.099  77.688  1.00 16.51 LIG-0.27  OA
ATOM      3  N   ASN C  18     -74.101-210.278  76.723  1.00 22.51 LIG-0.35  N 
ATOM      4 H    ASN C  18     -73.523-210.022  76.140  1.00 22.51 LIG 0.16  HD
ENDROOT
BRANCH 3 5
ATOM      5  CA  ASN C  18     -73.626-211.331  77.614  1.00 19.22 LIG 0.18  C 
BRANCH 5 6
ATOM      6  CB  ASN C  18     -72.712-212.295  76.851  1.00 16.89 LIG 0.14  C 
BRANCH 6 7
ATOM      7  CG  ASN C  18     -71.290-211.783  76.737  1.00 20.14 LIG 0.22  C 
ATOM      8  ND2 ASN C  18     -71.020-211.013  75.688  1.00 20.12 LIG-0.37  N 
ATOM      9 22HD ASN C  18     -71.642-210.822  75.124  1.00 20.12 LIG 0.16  HD
ATOM     10 21HD ASN C  18     -70.225-210.707  75.572  1.00 20.12 LIG 0.16  HD
ATOM     11 OD1  ASN C  18     -70.439-212.088  77.573  1.00 18.28 LIG-0.27  OA
ENDBRANCH 6 7
ENDBRANCH 5 6
BRANCH 5 12
ATOM     12  C   ASN C  18     -72.881-210.762  78.825  1.00 21.33 LIG 0.24  C 
ATOM     13  N   PRO C  19     -72.301-209.558  78.682  1.00 20.66 LIG-0.34  N 
ATOM     14  CD  PRO C  19     -72.151-208.772  77.444  1.00 23.11 LIG 0.13  C 
ATOM     15  CA  PRO C  19     -71.585-208.940  79.801  1.00 23.26 LIG 0.18  C 
ATOM     16  CG  PRO C  19     -71.326-207.582  77.875  1.00 22.87 LIG 0.02  C 
ATOM     17  CB  PRO C  19     -70.592-208.019  79.096  1.00 23.39 LIG 0.04  C 
ATOM     18 O    ASN C  18     -72.831-211.397  79.878  1.00 23.13 LIG-0.27  OA
BRANCH 15 19
ATOM     19  C   PRO C  19     -72.489-208.133  80.733  1.00 24.54 LIG 0.24  C 
ATOM     20  N   PHE C  20     -72.154-208.094  82.020  1.00 23.51 LIG-0.34  N 
ATOM     21 H    PHE C  20     -71.411-208.395  82.332  1.00 23.51 LIG 0.16  HD
ATOM     22 O    PRO C  19     -73.478-207.555  80.274  1.00 27.52 LIG-0.27  OA
BRANCH 20 23
ATOM     23  CA  PHE C  20     -73.046-207.522  83.026  1.00 27.49 LIG 0.19  C 
BRANCH 23 24
ATOM     24  CB  PHE C  20     -73.366-208.583  84.079  1.00 22.62 LIG 0.07  C 
BRANCH 24 25
ATOM     25  CG  PHE C  20     -74.387-209.577  83.617  1.00 18.80 LIG-0.06  A 
ATOM     26  CD1 PHE C  20     -75.016-210.402  84.530  1.00 16.53 LIG 0.01  A 
ATOM     27  CE1 PHE C  20     -75.969-211.307  84.125  1.00 18.06 LIG 0.00  A 
ATOM     28  CZ  PHE C  20     -76.316-211.396  82.787  1.00 17.30 LIG 0.00  A 
ATOM     29  CE2 PHE C  20     -75.704-210.575  81.865  1.00 18.45 LIG 0.00  A 
ATOM     30  CD2 PHE C  20     -74.746-209.666  82.282  1.00 20.64 LIG 0.01  A 
ENDBRANCH 24 25
ENDBRANCH 23 24
BRANCH 23 31
ATOM     31  C   PHE C  20     -72.468-206.270  83.682  1.00 41.21 LIG 0.20  C 
ATOM     32 OXT  PHE C  20     -71.292-205.947  83.519  1.00 46.78 LIG-0.65  OA
ATOM     33 O    PHE C  20     -73.173-205.542  84.386  1.00 43.65 LIG-0.65  OA
ENDBRANCH 23 31
ENDBRANCH 20 23
ENDBRANCH 15 19
ENDBRANCH 5 12
ENDBRANCH 3 5
BRANCH 1 34
ATOM     34  CA  ASN C  17     -75.714-208.742  75.762  1.00 16.90 LIG 0.18  C 
BRANCH 34 35
ATOM     35  N   ASN C  17     -77.084-208.318  76.011  1.00 20.58 LIG-0.35  N 
ATOM     36  C   VAL C  16     -77.955-208.191  75.015  1.00 27.16 LIG 0.24  C 
ATOM     37 O    VAL C  16     -77.624-208.224  73.831  1.00 29.43 LIG-0.27  OA
ATOM     38 H    ASN C  17     -77.267-208.164  76.837  1.00 20.58 LIG 0.16  HD
BRANCH 36 39
ATOM     39  CA  VAL C  16     -79.416-207.982  75.411  1.00 33.54 LIG 0.18  C 
BRANCH 39 40
ATOM     40  CB  VAL C  16     -80.283-207.869  74.135  1.00 32.44 LIG 0.01  C 
ATOM     41  CG2 VAL C  16     -81.730-207.540  74.502  1.00 34.10 LIG 0.01  C 
ATOM     42  CG1 VAL C  16     -80.196-209.146  73.287  1.00 32.37 LIG 0.01  C 
ENDBRANCH 39 40
BRANCH 39 43
ATOM     43  N   VAL C  16     -79.572-206.798  76.247  1.00 45.58 LIG-0.34  N 
ATOM     44  C   GLN C  15     -79.124-205.603  75.878  1.00 57.61 LIG 0.26  C 
ATOM     45 O    GLN C  15     -78.571-205.398  74.796  1.00 61.53 LIG-0.27  OA
ATOM     46 H    VAL C  16     -79.976-206.944  76.992  1.00 45.58 LIG 0.16  HD
BRANCH 44 47
ATOM     47  CA  GLN C  15     -79.339-204.473  76.881  1.00 63.44 LIG 0.40  C 
ATOM     48  N   GLN C  15     -78.235-203.521  76.831  1.00 62.08 LIG 0.61  N 
BRANCH 47 49
ATOM     49  CB  GLN C  15     -80.665-203.767  76.602  1.00 68.54 LIG 0.06  C 
BRANCH 49 50
ATOM     50  CG  GLN C  15     -81.500-204.436  75.516  1.00 72.89 LIG 0.10  C 
BRANCH 50 51
ATOM     51  CD  GLN C  15     -81.269-203.870  74.126  1.00 75.77 LIG 0.21  C 
ATOM     52 OE1  GLN C  15     -80.678-204.516  73.261  1.00 77.61 LIG-0.27  OA
ATOM     53  NE2 GLN C  15     -81.734-202.646  73.909  1.00 76.03 LIG-0.37  N 
ATOM     54 22HE GLN C  15     -81.628-202.275  73.141  1.00 76.03 LIG 0.16  HD
ATOM     55 21HE GLN C  15     -82.143-202.224  74.537  1.00 76.03 LIG 0.16  HD
ENDBRANCH 50 51
ENDBRANCH 49 50
ENDBRANCH 47 49
ENDBRANCH 44 47
ENDBRANCH 39 43
ENDBRANCH 36 39
ENDBRANCH 34 35
BRANCH 34 56
ATOM     56  CB  ASN C  17     -74.754-207.549  75.785  1.00 15.63 LIG 0.14  C 
BRANCH 56 57
ATOM     57  CG  ASN C  17     -75.193-206.427  74.863  1.00 17.63 LIG 0.22  C 
ATOM     58 OD1  ASN C  17     -75.877-205.491  75.284  1.00 24.00 LIG-0.27  OA
ATOM     59  ND2 ASN C  17     -74.814-206.521  73.594  1.00 16.48 LIG-0.37  N 
ATOM     60 21HD ASN C  17     -75.046-205.915  73.030  1.00 16.48 LIG 0.16  HD
ATOM     61 22HD ASN C  17     -74.337-207.189  73.337  1.00 16.48 LIG 0.16  HD
ENDBRANCH 56 57
ENDBRANCH 34 56
ENDBRANCH 1 34
TORSDOF 20
ENDMDL
MODEL 46
USER: ADFR SOLUTION from run 196
USER: SCORE 18.596479 LL:  -6.034 LR: -13.330 RR:   0.000 FEB:  -7.364
USER: RMSD 5.343283
USER: SEED 195
USER: STATUS no improvement in best in 3 clusters for 5 generations
USER: GENES 22
USER: genes 0 Translation |==|  0.75938 0.56879 0.45478
USER: genes 1 Rotation |==|  0.33069 0.63820 0.81431 0.82163
USER: genes 2 Torsion [C]-N--CA-[CB] |==|  0.51667
USER: genes 3 Torsion [N]-CA--CB-[CG] |==|  0.90019
USER: genes 4 Torsion [CA]-CB--CG-[OD1] |==|  0.76106
USER: genes 5 Torsion [N]-CA--C-[N] |==|  0.45154
USER: genes 6 Torsion [N]-CA--C-[O] |==|  0.79760
USER: genes 7 Torsion [C]-N--CA-[CB] |==|  0.18729
USER: genes 8 Torsion [N]-CA--CB-[CG] |==|  0.12608
USER: genes 9 Torsion [CA]-CB--CG-[CD1] |==|  0.07238
USER: genes 10 Torsion [N]-CA--C-[O] |==|  0.65940
USER: genes 11 Torsion [N]-C--CA-[N] |==|  0.04585
USER: genes 12 Torsion [C]-CA--N-[C] |==|  0.73283
USER: genes 13 Torsion [N]-C--CA-[N] |==|  0.02141
USER: genes 14 Torsion [C]-CA--CB-[CG2] |==|  0.20584
USER: genes 15 Torsion [C]-CA--N-[C] |==|  0.63720
USER: genes 16 Torsion [N]-C--CA-[N] |==|  0.55457
USER: genes 17 Torsion [C]-CA--CB-[CG] |==|  0.27703
USER: genes 18 Torsion [CA]-CB--CG-[CD] |==|  0.97769
USER: genes 19 Torsion [CB]-CG--CD-[OE1] |==|  0.73119
USER: genes 20 Torsion [C]-CA--CB-[CG] |==|  0.79786
USER: genes 21 Torsion [CA]-CB--CG-[OD1] |==|  0.88412
ROOT
ATOM      1  C   ASN C  17     -72.641-208.489  81.699  1.00 20.61 LIG 0.24  C 
ATOM      2 O    ASN C  17     -71.568-208.612  81.109  1.00 16.51 LIG-0.27  OA
ATOM      3  N   ASN C  18     -73.735-209.178  81.382  1.00 22.51 LIG-0.35  N 
ATOM      4 H    ASN C  18     -74.496-209.068  81.767  1.00 22.51 LIG 0.16  HD
ENDROOT
BRANCH 3 5
ATOM      5  CA  ASN C  18     -73.736-210.198  80.338  1.00 19.22 LIG 0.18  C 
BRANCH 5 6
ATOM      6  CB  ASN C  18     -75.161-210.708  80.101  1.00 16.89 LIG 0.14  C 
BRANCH 6 7
ATOM      7  CG  ASN C  18     -75.975-210.779  81.378  1.00 20.14 LIG 0.22  C 
ATOM      8  ND2 ASN C  18     -76.714-209.713  81.668  1.00 20.12 LIG-0.37  N 
ATOM      9 22HD ASN C  18     -76.720-209.037  81.137  1.00 20.12 LIG 0.16  HD
ATOM     10 21HD ASN C  18     -77.185-209.700  82.388  1.00 20.12 LIG 0.16  HD
ATOM     11 OD1  ASN C  18     -75.928-211.773  82.103  1.00 18.28 LIG-0.27  OA
ENDBRANCH 6 7
ENDBRANCH 5 6
BRANCH 5 12
ATOM     12  C   ASN C  18     -73.149-209.672  79.025  1.00 21.33 LIG 0.24  C 
ATOM     13  N   PRO C  19     -72.764-210.582  78.115  1.00 20.66 LIG-0.34  N 
ATOM     14  CD  PRO C  19     -72.684-212.044  78.281  1.00 23.11 LIG 0.13  C 
ATOM     15  CA  PRO C  19     -72.209-210.156  76.827  1.00 23.26 LIG 0.18  C 
ATOM     16  CG  PRO C  19     -72.081-212.519  76.980  1.00 22.87 LIG 0.02  C 
ATOM     17  CB  PRO C  19     -71.345-211.349  76.424  1.00 23.39 LIG 0.04  C 
ATOM     18 O    ASN C  18     -73.048-208.461  78.831  1.00 23.13 LIG-0.27  OA
BRANCH 15 19
ATOM     19  C   PRO C  19     -73.274-209.888  75.763  1.00 24.54 LIG 0.24  C 
ATOM     20  N   PHE C  20     -73.505-208.618  75.443  1.00 23.51 LIG-0.34  N 
ATOM     21 H    PHE C  20     -73.020-207.959  75.710  1.00 23.51 LIG 0.16  HD
ATOM     22 O    PRO C  19     -73.872-210.835  75.245  1.00 27.52 LIG-0.27  OA
BRANCH 20 23
ATOM     23  CA  PHE C  20     -74.629-208.235  74.589  1.00 27.49 LIG 0.19  C 
BRANCH 23 24
ATOM     24  CB  PHE C  20     -75.938-208.504  75.330  1.00 22.62 LIG 0.07  C 
BRANCH 24 25
ATOM     25  CG  PHE C  20     -75.918-208.028  76.750  1.00 18.80 LIG-0.06  A 
ATOM     26  CD1 PHE C  20     -75.085-206.990  77.122  1.00 16.53 LIG 0.01  A 
ATOM     27  CE1 PHE C  20     -75.068-206.529  78.418  1.00 18.06 LIG 0.00  A 
ATOM     28  CZ  PHE C  20     -75.899-207.100  79.368  1.00 17.30 LIG 0.00  A 
ATOM     29  CE2 PHE C  20     -76.740-208.131  79.011  1.00 18.45 LIG 0.00  A 
ATOM     30  CD2 PHE C  20     -76.752-208.588  77.704  1.00 20.64 LIG 0.01  A 
ENDBRANCH 24 25
ENDBRANCH 23 24
BRANCH 23 31
ATOM     31  C   PHE C  20     -74.555-206.779  74.137  1.00 41.21 LIG 0.20  C 
ATOM     32 OXT  PHE C  20     -73.587-206.350  73.510  1.00 46.78 LIG-0.65  OA
ATOM     33 O    PHE C  20     -75.476-205.993  74.381  1.00 43.65 LIG-0.65  OA
ENDBRANCH 23 31
ENDBRANCH 20 23
ENDBRANCH 15 19
ENDBRANCH 5 12
ENDBRANCH 3 5
BRANCH 1 34
ATOM     34  CA  ASN C  17     -72.769-207.525  82.870  1.00 16.90 LIG 0.18  C 
BRANCH 34 35
ATOM     35  N   ASN C  17     -73.966-207.868  83.622  1.00 20.58 LIG-0.35  N 
ATOM     36  C   VAL C  16     -75.116-207.236  83.410  1.00 27.16 LIG 0.24  C 
ATOM     37 O    VAL C  16     -75.198-206.213  82.731  1.00 29.43 LIG-0.27  OA
ATOM     38 H    ASN C  17     -73.860-208.500  84.197  1.00 20.58 LIG 0.16  HD
BRANCH 36 39
ATOM     39  CA  VAL C  16     -76.355-207.837  84.070  1.00 33.54 LIG 0.18  C 
BRANCH 39 40
ATOM     40  CB  VAL C  16     -77.125-206.727  84.824  1.00 32.44 LIG 0.01  C 
ATOM     41  CG2 VAL C  16     -77.854-205.818  83.834  1.00 34.10 LIG 0.01  C 
ATOM     42  CG1 VAL C  16     -76.190-205.923  85.739  1.00 32.37 LIG 0.01  C 
ENDBRANCH 39 40
BRANCH 39 43
ATOM     43  N   VAL C  16     -75.997-208.922  84.976  1.00 45.58 LIG-0.34  N 
ATOM     44  C   GLN C  15     -76.598-210.106  84.940  1.00 57.61 LIG 0.26  C 
ATOM     45 O    GLN C  15     -77.478-210.388  84.126  1.00 61.53 LIG-0.27  OA
ATOM     46 H    VAL C  16     -75.368-208.725  85.528  1.00 45.58 LIG 0.16  HD
BRANCH 44 47
ATOM     47  CA  GLN C  15     -76.127-211.123  85.977  1.00 63.44 LIG 0.40  C 
ATOM     48  N   GLN C  15     -76.487-212.477  85.572  1.00 62.08 LIG 0.61  N 
BRANCH 47 49
ATOM     49  CB  GLN C  15     -74.617-211.011  86.176  1.00 68.54 LIG 0.06  C 
BRANCH 49 50
ATOM     50  CG  GLN C  15     -74.219-210.214  87.415  1.00 72.89 LIG 0.10  C 
BRANCH 50 51
ATOM     51  CD  GLN C  15     -75.384-209.525  88.103  1.00 75.77 LIG 0.21  C 
ATOM     52 OE1  GLN C  15     -75.648-208.342  87.886  1.00 77.61 LIG-0.27  OA
ATOM     53  NE2 GLN C  15     -76.088-210.269  88.948  1.00 76.03 LIG-0.37  N 
ATOM     54 22HE GLN C  15     -76.756-209.928  89.367  1.00 76.03 LIG 0.16  HD
ATOM     55 21HE GLN C  15     -75.875-211.093  89.075  1.00 76.03 LIG 0.16  HD
ENDBRANCH 50 51
ENDBRANCH 49 50
ENDBRANCH 47 49
ENDBRANCH 44 47
ENDBRANCH 39 43
ENDBRANCH 36 39
ENDBRANCH 34 35
BRANCH 34 56
ATOM     56  CB  ASN C  17     -71.524-207.580  83.760  1.00 15.63 LIG 0.14  C 
BRANCH 56 57
ATOM     57  CG  ASN C  17     -71.448-208.852  84.583  1.00 17.63 LIG 0.22  C 
ATOM     58 OD1  ASN C  17     -72.452-209.316  85.128  1.00 24.00 LIG-0.27  OA
ATOM     59  ND2 ASN C  17     -70.252-209.418  84.690  1.00 16.48 LIG-0.37  N 
ATOM     60 21HD ASN C  17     -70.155-210.135  85.154  1.00 16.48 LIG 0.16  HD
ATOM     61 22HD ASN C  17     -69.573-209.065  84.296  1.00 16.48 LIG 0.16  HD
ENDBRANCH 56 57
ENDBRANCH 34 56
ENDBRANCH 1 34
TORSDOF 20
ENDMDL
MODEL 47
USER: ADFR SOLUTION from run 160
USER: SCORE 17.465660 LL:  -4.879 LR: -13.328 RR:   0.000 FEB:  -7.362
USER: RMSD 7.531237
USER: SEED 159
USER: STATUS no improvement in best in 5 clusters for 5 generations
USER: GENES 22
USER: genes 0 Translation |==|  0.66120 0.45948 0.31694
USER: genes 1 Rotation |==|  0.54573 0.77429 0.26281 0.84120
USER: genes 2 Torsion [C]-N--CA-[CB] |==|  0.55620
USER: genes 3 Torsion [N]-CA--CB-[CG] |==|  0.45051
USER: genes 4 Torsion [CA]-CB--CG-[OD1] |==|  0.22750
USER: genes 5 Torsion [N]-CA--C-[N] |==|  0.30453
USER: genes 6 Torsion [N]-CA--C-[O] |==|  0.13205
USER: genes 7 Torsion [C]-N--CA-[CB] |==|  0.80119
USER: genes 8 Torsion [N]-CA--CB-[CG] |==|  0.95129
USER: genes 9 Torsion [CA]-CB--CG-[CD1] |==|  0.31155
USER: genes 10 Torsion [N]-CA--C-[O] |==|  0.55698
USER: genes 11 Torsion [N]-C--CA-[N] |==|  0.36002
USER: genes 12 Torsion [C]-CA--N-[C] |==|  0.79173
USER: genes 13 Torsion [N]-C--CA-[N] |==|  0.38894
USER: genes 14 Torsion [C]-CA--CB-[CG2] |==|  0.39598
USER: genes 15 Torsion [C]-CA--N-[C] |==|  0.59156
USER: genes 16 Torsion [N]-C--CA-[N] |==|  0.40025
USER: genes 17 Torsion [C]-CA--CB-[CG] |==|  0.34489
USER: genes 18 Torsion [CA]-CB--CG-[CD] |==|  0.76526
USER: genes 19 Torsion [CB]-CG--CD-[OE1] |==|  0.18880
USER: genes 20 Torsion [C]-CA--CB-[CG] |==|  0.18555
USER: genes 21 Torsion [CA]-CB--CG-[OD1] |==|  0.77749
ROOT
ATOM      1  C   ASN C  17     -74.703-210.129  78.287  1.00 20.61 LIG 0.24  C 
ATOM      2 O    ASN C  17     -75.839-210.567  78.112  1.00 16.51 LIG-0.27  OA
ATOM      3  N   ASN C  18     -74.281-208.968  77.791  1.00 22.51 LIG-0.35  N 
ATOM      4 H    ASN C  18     -73.476-208.676  77.880  1.00 22.51 LIG 0.16  HD
ENDROOT
BRANCH 3 5
ATOM      5  CA  ASN C  18     -75.161-208.076  77.044  1.00 19.22 LIG 0.18  C 
BRANCH 5 6
ATOM      6  CB  ASN C  18     -74.332-207.109  76.192  1.00 16.89 LIG 0.14  C 
BRANCH 6 7
ATOM      7  CG  ASN C  18     -75.144-206.461  75.089  1.00 20.14 LIG 0.22  C 
ATOM      8  ND2 ASN C  18     -75.029-206.996  73.878  1.00 20.12 LIG-0.37  N 
ATOM      9 22HD ASN C  18     -74.522-207.680  73.756  1.00 20.12 LIG 0.16  HD
ATOM     10 21HD ASN C  18     -75.461-206.657  73.215  1.00 20.12 LIG 0.16  HD
ATOM     11 OD1  ASN C  18     -75.855-205.482  75.318  1.00 18.28 LIG-0.27  OA
ENDBRANCH 6 7
ENDBRANCH 5 6
BRANCH 5 12
ATOM     12  C   ASN C  18     -76.134-208.849  76.150  1.00 21.33 LIG 0.24  C 
ATOM     13  N   PRO C  19     -77.430-208.847  76.504  1.00 20.66 LIG-0.34  N 
ATOM     14  CD  PRO C  19     -78.023-208.321  77.746  1.00 23.11 LIG 0.13  C 
ATOM     15  CA  PRO C  19     -78.424-209.550  75.688  1.00 23.26 LIG 0.18  C 
ATOM     16  CG  PRO C  19     -79.482-208.702  77.634  1.00 22.87 LIG 0.02  C 
ATOM     17  CB  PRO C  19     -79.526-209.861  76.698  1.00 23.39 LIG 0.04  C 
ATOM     18 O    ASN C  18     -75.724-209.438  75.151  1.00 23.13 LIG-0.27  OA
BRANCH 15 19
ATOM     19  C   PRO C  19     -78.978-208.707  74.540  1.00 24.54 LIG 0.24  C 
ATOM     20  N   PHE C  20     -80.299-208.688  74.384  1.00 23.51 LIG-0.34  N 
ATOM     21 H    PHE C  20     -80.854-209.023  74.948  1.00 23.51 LIG 0.16  HD
ATOM     22 O    PRO C  19     -78.202-208.083  73.811  1.00 27.52 LIG-0.27  OA
BRANCH 20 23
ATOM     23  CA  PHE C  20     -80.922-208.080  73.209  1.00 27.49 LIG 0.19  C 
BRANCH 23 24
ATOM     24  CB  PHE C  20     -80.786-206.560  73.296  1.00 22.62 LIG 0.07  C 
BRANCH 24 25
ATOM     25  CG  PHE C  20     -80.460-206.078  74.677  1.00 18.80 LIG-0.06  A 
ATOM     26  CD1 PHE C  20     -79.227-205.514  74.943  1.00 16.53 LIG 0.01  A 
ATOM     27  CE1 PHE C  20     -78.920-205.050  76.201  1.00 18.06 LIG 0.00  A 
ATOM     28  CZ  PHE C  20     -79.854-205.137  77.220  1.00 17.30 LIG 0.00  A 
ATOM     29  CE2 PHE C  20     -81.091-205.690  76.968  1.00 18.45 LIG 0.00  A 
ATOM     30  CD2 PHE C  20     -81.393-206.154  75.699  1.00 20.64 LIG 0.01  A 
ENDBRANCH 24 25
ENDBRANCH 23 24
BRANCH 23 31
ATOM     31  C   PHE C  20     -80.338-208.599  71.898  1.00 41.21 LIG 0.20  C 
ATOM     32 OXT  PHE C  20     -79.743-209.674  71.842  1.00 46.78 LIG-0.65  OA
ATOM     33 O    PHE C  20     -80.460-207.954  70.852  1.00 43.65 LIG-0.65  OA
ENDBRANCH 23 31
ENDBRANCH 20 23
ENDBRANCH 15 19
ENDBRANCH 5 12
ENDBRANCH 3 5
BRANCH 1 34
ATOM     34  CA  ASN C  17     -73.697-210.910  79.123  1.00 16.90 LIG 0.18  C 
BRANCH 34 35
ATOM     35  N   ASN C  17     -74.331-211.281  80.378  1.00 20.58 LIG-0.35  N 
ATOM     36  C   VAL C  16     -74.529-210.386  81.340  1.00 27.16 LIG 0.24  C 
ATOM     37 O    VAL C  16     -74.024-209.264  81.320  1.00 29.43 LIG-0.27  OA
ATOM     38 H    ASN C  17     -74.558-212.110  80.435  1.00 20.58 LIG 0.16  HD
BRANCH 36 39
ATOM     39  CA  VAL C  16     -75.416-210.821  82.505  1.00 33.54 LIG 0.18  C 
BRANCH 39 40
ATOM     40  CB  VAL C  16     -76.855-210.303  82.276  1.00 32.44 LIG 0.01  C 
ATOM     41  CG2 VAL C  16     -77.875-211.338  82.752  1.00 34.10 LIG 0.01  C 
ATOM     42  CG1 VAL C  16     -77.085-209.924  80.806  1.00 32.37 LIG 0.01  C 
ENDBRANCH 39 40
BRANCH 39 43
ATOM     43  N   VAL C  16     -74.891-210.339  83.777  1.00 45.58 LIG-0.34  N 
ATOM     44  C   GLN C  15     -75.024-211.024  84.907  1.00 57.61 LIG 0.26  C 
ATOM     45 O    GLN C  15     -75.573-212.125  84.963  1.00 61.53 LIG-0.27  OA
ATOM     46 H    VAL C  16     -74.492-209.579  83.726  1.00 45.58 LIG 0.16  HD
BRANCH 44 47
ATOM     47  CA  GLN C  15     -74.445-210.365  86.156  1.00 63.44 LIG 0.40  C 
ATOM     48  N   GLN C  15     -75.277-210.646  87.320  1.00 62.08 LIG 0.61  N 
BRANCH 47 49
ATOM     49  CB  GLN C  15     -73.016-210.849  86.393  1.00 68.54 LIG 0.06  C 
BRANCH 49 50
ATOM     50  CG  GLN C  15     -71.993-209.722  86.483  1.00 72.89 LIG 0.10  C 
BRANCH 50 51
ATOM     51  CD  GLN C  15     -71.476-209.252  85.134  1.00 75.77 LIG 0.21  C 
ATOM     52 OE1  GLN C  15     -72.207-208.663  84.337  1.00 77.61 LIG-0.27  OA
ATOM     53  NE2 GLN C  15     -70.203-209.521  84.870  1.00 76.03 LIG-0.37  N 
ATOM     54 22HE GLN C  15     -69.860-209.281  84.119  1.00 76.03 LIG 0.16  HD
ATOM     55 21HE GLN C  15     -69.722-209.935  85.450  1.00 76.03 LIG 0.16  HD
ENDBRANCH 50 51
ENDBRANCH 49 50
ENDBRANCH 47 49
ENDBRANCH 44 47
ENDBRANCH 39 43
ENDBRANCH 36 39
ENDBRANCH 34 35
BRANCH 34 56
ATOM     56  CB  ASN C  17     -73.204-212.146  78.366  1.00 15.63 LIG 0.14  C 
BRANCH 56 57
ATOM     57  CG  ASN C  17     -72.379-211.794  77.143  1.00 17.63 LIG 0.22  C 
ATOM     58 OD1  ASN C  17     -72.921-211.460  76.087  1.00 24.00 LIG-0.27  OA
ATOM     59  ND2 ASN C  17     -71.061-211.882  77.273  1.00 16.48 LIG-0.37  N 
ATOM     60 21HD ASN C  17     -70.550-211.702  76.605  1.00 16.48 LIG 0.16  HD
ATOM     61 22HD ASN C  17     -70.718-212.118  78.026  1.00 16.48 LIG 0.16  HD
ENDBRANCH 56 57
ENDBRANCH 34 56
ENDBRANCH 1 34
TORSDOF 20
ENDMDL
MODEL 48
USER: ADFR SOLUTION from run 38
USER: SCORE 18.343585 LL:  -5.858 LR: -13.313 RR:   0.000 FEB:  -7.347
USER: RMSD 3.871341
USER: SEED 37
USER: STATUS no improvement in best in 19 clusters for 5 generations
USER: GENES 22
USER: genes 0 Translation |==|  0.48572 0.56345 0.42039
USER: genes 1 Rotation |==|  0.36059 0.39857 0.76275 0.88890
USER: genes 2 Torsion [C]-N--CA-[CB] |==|  0.53333
USER: genes 3 Torsion [N]-CA--CB-[CG] |==|  0.47701
USER: genes 4 Torsion [CA]-CB--CG-[OD1] |==|  0.19472
USER: genes 5 Torsion [N]-CA--C-[N] |==|  0.30616
USER: genes 6 Torsion [N]-CA--C-[O] |==|  0.50311
USER: genes 7 Torsion [C]-N--CA-[CB] |==|  0.36051
USER: genes 8 Torsion [N]-CA--CB-[CG] |==|  0.87402
USER: genes 9 Torsion [CA]-CB--CG-[CD1] |==|  0.80286
USER: genes 10 Torsion [N]-CA--C-[O] |==|  0.95097
USER: genes 11 Torsion [N]-C--CA-[N] |==|  0.31480
USER: genes 12 Torsion [C]-CA--N-[C] |==|  0.78620
USER: genes 13 Torsion [N]-C--CA-[N] |==|  0.96821
USER: genes 14 Torsion [C]-CA--CB-[CG2] |==|  0.22327
USER: genes 15 Torsion [C]-CA--N-[C] |==|  0.82150
USER: genes 16 Torsion [N]-C--CA-[N] |==|  0.63829
USER: genes 17 Torsion [C]-CA--CB-[CG] |==|  0.59097
USER: genes 18 Torsion [CA]-CB--CG-[CD] |==|  0.37273
USER: genes 19 Torsion [CB]-CG--CD-[OE1] |==|  0.80238
USER: genes 20 Torsion [C]-CA--CB-[CG] |==|  0.57292
USER: genes 21 Torsion [CA]-CB--CG-[OD1] |==|  0.75743
ROOT
ATOM      1  C   ASN C  17     -78.388-208.569  80.848  1.00 20.61 LIG 0.24  C 
ATOM      2 O    ASN C  17     -77.185-208.570  81.105  1.00 16.51 LIG-0.27  OA
ATOM      3  N   ASN C  18     -78.872-208.610  79.608  1.00 22.51 LIG-0.35  N 
ATOM      4 H    ASN C  18     -79.711-208.572  79.423  1.00 22.51 LIG 0.16  HD
ENDROOT
BRANCH 3 5
ATOM      5  CA  ASN C  18     -78.007-208.726  78.439  1.00 19.22 LIG 0.18  C 
BRANCH 5 6
ATOM      6  CB  ASN C  18     -78.807-208.451  77.162  1.00 16.89 LIG 0.14  C 
BRANCH 6 7
ATOM      7  CG  ASN C  18     -77.927-208.358  75.931  1.00 20.14 LIG 0.22  C 
ATOM      8  ND2 ASN C  18     -77.809-207.157  75.377  1.00 20.12 LIG-0.37  N 
ATOM      9 22HD ASN C  18     -78.213-206.481  75.725  1.00 20.12 LIG 0.16  HD
ATOM     10 21HD ASN C  18     -77.330-207.055  74.670  1.00 20.12 LIG 0.16  HD
ATOM     11 OD1  ASN C  18     -77.372-209.358  75.475  1.00 18.28 LIG-0.27  OA
ENDBRANCH 6 7
ENDBRANCH 5 6
BRANCH 5 12
ATOM     12  C   ASN C  18     -76.811-207.773  78.516  1.00 21.33 LIG 0.24  C 
ATOM     13  N   PRO C  19     -75.599-208.320  78.703  1.00 20.66 LIG-0.34  N 
ATOM     14  CD  PRO C  19     -75.283-209.727  79.007  1.00 23.11 LIG 0.13  C 
ATOM     15  CA  PRO C  19     -74.404-207.474  78.769  1.00 23.26 LIG 0.18  C 
ATOM     16  CG  PRO C  19     -73.787-209.719  79.223  1.00 22.87 LIG 0.02  C 
ATOM     17  CB  PRO C  19     -73.441-208.319  79.601  1.00 23.39 LIG 0.04  C 
ATOM     18 O    ASN C  18     -76.977-206.559  78.404  1.00 23.13 LIG-0.27  OA
BRANCH 15 19
ATOM     19  C   PRO C  19     -73.796-207.168  77.400  1.00 24.54 LIG 0.24  C 
ATOM     20  N   PHE C  20     -74.417-207.669  76.336  1.00 23.51 LIG-0.34  N 
ATOM     21 H    PHE C  20     -75.187-208.050  76.364  1.00 23.51 LIG 0.16  HD
ATOM     22 O    PRO C  19     -72.773-206.482  77.326  1.00 27.52 LIG-0.27  OA
BRANCH 20 23
ATOM     23  CA  PHE C  20     -73.820-207.607  75.002  1.00 27.49 LIG 0.19  C 
BRANCH 23 24
ATOM     24  CB  PHE C  20     -73.861-208.996  74.366  1.00 22.62 LIG 0.07  C 
BRANCH 24 25
ATOM     25  CG  PHE C  20     -73.424-210.082  75.302  1.00 18.80 LIG-0.06  A 
ATOM     26  CD1 PHE C  20     -72.096-210.192  75.666  1.00 16.53 LIG 0.01  A 
ATOM     27  CE1 PHE C  20     -71.682-211.171  76.539  1.00 18.06 LIG 0.00  A 
ATOM     28  CZ  PHE C  20     -72.602-212.059  77.071  1.00 17.30 LIG 0.00  A 
ATOM     29  CE2 PHE C  20     -73.931-211.958  76.724  1.00 18.45 LIG 0.00  A 
ATOM     30  CD2 PHE C  20     -74.340-210.968  75.846  1.00 20.64 LIG 0.01  A 
ENDBRANCH 24 25
ENDBRANCH 23 24
BRANCH 23 31
ATOM     31  C   PHE C  20     -74.503-206.582  74.100  1.00 41.21 LIG 0.20  C 
ATOM     32 OXT  PHE C  20     -73.963-206.171  73.073  1.00 46.78 LIG-0.65  OA
ATOM     33 O    PHE C  20     -75.625-206.146  74.373  1.00 43.65 LIG-0.65  OA
ENDBRANCH 23 31
ENDBRANCH 20 23
ENDBRANCH 15 19
ENDBRANCH 5 12
ENDBRANCH 3 5
BRANCH 1 34
ATOM     34  CA  ASN C  17     -79.415-208.540  81.971  1.00 16.90 LIG 0.18  C 
BRANCH 34 35
ATOM     35  N   ASN C  17     -79.316-209.785  82.719  1.00 20.58 LIG-0.35  N 
ATOM     36  C   VAL C  16     -79.829-210.915  82.244  1.00 27.16 LIG 0.24  C 
ATOM     37 O    VAL C  16     -80.577-210.948  81.267  1.00 29.43 LIG-0.27  OA
ATOM     38 H    ASN C  17     -78.906-209.719  83.473  1.00 20.58 LIG 0.16  HD
BRANCH 36 39
ATOM     39  CA  VAL C  16     -79.456-212.197  82.986  1.00 33.54 LIG 0.18  C 
BRANCH 39 40
ATOM     40  CB  VAL C  16     -80.706-212.755  83.707  1.00 32.44 LIG 0.01  C 
ATOM     41  CG2 VAL C  16     -81.590-213.522  82.723  1.00 34.10 LIG 0.01  C 
ATOM     42  CG1 VAL C  16     -81.489-211.638  84.411  1.00 32.37 LIG 0.01  C 
ENDBRANCH 39 40
BRANCH 39 43
ATOM     43  N   VAL C  16     -78.375-211.961  83.935  1.00 45.58 LIG-0.34  N 
ATOM     44  C   GLN C  15     -77.158-211.595  83.551  1.00 57.61 LIG 0.26  C 
ATOM     45 O    GLN C  15     -76.857-211.399  82.373  1.00 61.53 LIG-0.27  OA
ATOM     46 H    VAL C  16     -78.598-212.081  84.758  1.00 45.58 LIG 0.16  HD
BRANCH 44 47
ATOM     47  CA  GLN C  15     -76.133-211.419  84.668  1.00 63.44 LIG 0.40  C 
ATOM     48  N   GLN C  15     -75.447-210.138  84.543  1.00 62.08 LIG 0.61  N 
BRANCH 47 49
ATOM     49  CB  GLN C  15     -76.813-211.529  86.031  1.00 68.54 LIG 0.06  C 
BRANCH 49 50
ATOM     50  CG  GLN C  15     -76.178-210.653  87.106  1.00 72.89 LIG 0.10  C 
BRANCH 50 51
ATOM     51  CD  GLN C  15     -77.183-209.874  87.937  1.00 75.77 LIG 0.21  C 
ATOM     52 OE1  GLN C  15     -77.810-208.927  87.463  1.00 77.61 LIG-0.27  OA
ATOM     53  NE2 GLN C  15     -77.335-210.272  89.195  1.00 76.03 LIG-0.37  N 
ATOM     54 22HE GLN C  15     -77.888-209.864  89.711  1.00 76.03 LIG 0.16  HD
ATOM     55 21HE GLN C  15     -76.880-210.938  89.492  1.00 76.03 LIG 0.16  HD
ENDBRANCH 50 51
ENDBRANCH 49 50
ENDBRANCH 47 49
ENDBRANCH 44 47
ENDBRANCH 39 43
ENDBRANCH 36 39
ENDBRANCH 34 35
BRANCH 34 56
ATOM     56  CB  ASN C  17     -79.192-207.330  82.882  1.00 15.63 LIG 0.14  C 
BRANCH 56 57
ATOM     57  CG  ASN C  17     -79.703-207.556  84.292  1.00 17.63 LIG 0.22  C 
ATOM     58 OD1  ASN C  17     -80.874-207.311  84.590  1.00 24.00 LIG-0.27  OA
ATOM     59  ND2 ASN C  17     -78.822-208.011  85.175  1.00 16.48 LIG-0.37  N 
ATOM     60 21HD ASN C  17     -79.060-208.146  85.990  1.00 16.48 LIG 0.16  HD
ATOM     61 22HD ASN C  17     -78.013-208.170  84.931  1.00 16.48 LIG 0.16  HD
ENDBRANCH 56 57
ENDBRANCH 34 56
ENDBRANCH 1 34
TORSDOF 20
ENDMDL
MODEL 49
USER: ADFR SOLUTION from run 71
USER: SCORE 17.911147 LL:  -4.977 LR: -13.300 RR:   0.000 FEB:  -7.334
USER: RMSD 9.340792
USER: SEED 70
USER: STATUS no improvement in best in 7 clusters for 5 generations
USER: GENES 22
USER: genes 0 Translation |==|  0.69709 0.48968 0.25642
USER: genes 1 Rotation |==|  0.97451 0.37538 0.40544 0.51918
USER: genes 2 Torsion [C]-N--CA-[CB] |==|  0.84444
USER: genes 3 Torsion [N]-CA--CB-[CG] |==|  0.87933
USER: genes 4 Torsion [CA]-CB--CG-[OD1] |==|  0.35990
USER: genes 5 Torsion [N]-CA--C-[N] |==|  0.35194
USER: genes 6 Torsion [N]-CA--C-[O] |==|  0.17404
USER: genes 7 Torsion [C]-N--CA-[CB] |==|  0.84151
USER: genes 8 Torsion [N]-CA--CB-[CG] |==|  0.50971
USER: genes 9 Torsion [CA]-CB--CG-[CD1] |==|  0.21365
USER: genes 10 Torsion [N]-CA--C-[O] |==|  0.47321
USER: genes 11 Torsion [N]-C--CA-[N] |==|  0.16802
USER: genes 12 Torsion [C]-CA--N-[C] |==|  0.76264
USER: genes 13 Torsion [N]-C--CA-[N] |==|  0.92085
USER: genes 14 Torsion [C]-CA--CB-[CG2] |==|  0.25747
USER: genes 15 Torsion [C]-CA--N-[C] |==|  0.81559
USER: genes 16 Torsion [N]-C--CA-[N] |==|  0.65990
USER: genes 17 Torsion [C]-CA--CB-[CG] |==|  0.78454
USER: genes 18 Torsion [CA]-CB--CG-[CD] |==|  0.39080
USER: genes 19 Torsion [CB]-CG--CD-[OE1] |==|  0.68997
USER: genes 20 Torsion [C]-CA--CB-[CG] |==|  0.76185
USER: genes 21 Torsion [CA]-CB--CG-[OD1] |==|  0.20630
ROOT
ATOM      1  C   ASN C  17     -73.949-209.676  76.789  1.00 20.61 LIG 0.24  C 
ATOM      2 O    ASN C  17     -72.924-209.019  76.965  1.00 16.51 LIG-0.27  OA
ATOM      3  N   ASN C  18     -74.414-210.559  77.671  1.00 22.51 LIG-0.35  N 
ATOM      4 H    ASN C  18     -75.109-211.047  77.535  1.00 22.51 LIG 0.16  HD
ENDROOT
BRANCH 3 5
ATOM      5  CA  ASN C  18     -73.774-210.777  78.963  1.00 19.22 LIG 0.18  C 
BRANCH 5 6
ATOM      6  CB  ASN C  18     -72.300-211.147  78.766  1.00 16.89 LIG 0.14  C 
BRANCH 6 7
ATOM      7  CG  ASN C  18     -72.095-212.147  77.645  1.00 20.14 LIG 0.22  C 
ATOM      8  ND2 ASN C  18     -72.843-213.244  77.688  1.00 20.12 LIG-0.37  N 
ATOM      9 22HD ASN C  18     -73.413-213.352  78.323  1.00 20.12 LIG 0.16  HD
ATOM     10 21HD ASN C  18     -72.755-213.847  77.080  1.00 20.12 LIG 0.16  HD
ATOM     11 OD1  ASN C  18     -71.264-211.942  76.760  1.00 18.28 LIG-0.27  OA
ENDBRANCH 6 7
ENDBRANCH 5 6
BRANCH 5 12
ATOM     12  C   ASN C  18     -73.882-209.548  79.870  1.00 21.33 LIG 0.24  C 
ATOM     13  N   PRO C  19     -74.393-209.732  81.099  1.00 20.66 LIG-0.34  N 
ATOM     14  CD  PRO C  19     -75.020-210.951  81.640  1.00 23.11 LIG 0.13  C 
ATOM     15  CA  PRO C  19     -74.512-208.606  82.030  1.00 23.26 LIG 0.18  C 
ATOM     16  CG  PRO C  19     -75.503-210.526  83.008  1.00 22.87 LIG 0.02  C 
ATOM     17  CB  PRO C  19     -75.656-209.045  82.941  1.00 23.39 LIG 0.04  C 
ATOM     18 O    ASN C  18     -73.505-208.447  79.470  1.00 23.13 LIG-0.27  OA
BRANCH 15 19
ATOM     19  C   PRO C  19     -73.245-208.357  82.850  1.00 24.54 LIG 0.24  C 
ATOM     20  N   PHE C  20     -73.340-208.496  84.169  1.00 23.51 LIG-0.34  N 
ATOM     21 H    PHE C  20     -74.027-208.823  84.570  1.00 23.51 LIG 0.16  HD
ATOM     22 O    PRO C  19     -72.199-208.042  82.277  1.00 27.52 LIG-0.27  OA
BRANCH 20 23
ATOM     23  CA  PHE C  20     -72.253-208.094  85.061  1.00 27.49 LIG 0.19  C 
BRANCH 23 24
ATOM     24  CB  PHE C  20     -70.976-208.835  84.667  1.00 22.62 LIG 0.07  C 
BRANCH 24 25
ATOM     25  CG  PHE C  20     -69.825-208.548  85.582  1.00 18.80 LIG-0.06  A 
ATOM     26  CD1 PHE C  20     -69.761-209.146  86.825  1.00 16.53 LIG 0.01  A 
ATOM     27  CE1 PHE C  20     -68.701-208.908  87.670  1.00 18.06 LIG 0.00  A 
ATOM     28  CZ  PHE C  20     -67.676-208.064  87.274  1.00 17.30 LIG 0.00  A 
ATOM     29  CE2 PHE C  20     -67.721-207.467  86.033  1.00 18.45 LIG 0.00  A 
ATOM     30  CD2 PHE C  20     -68.791-207.713  85.189  1.00 20.64 LIG 0.01  A 
ENDBRANCH 24 25
ENDBRANCH 23 24
BRANCH 23 31
ATOM     31  C   PHE C  20     -72.021-206.585  85.063  1.00 41.21 LIG 0.20  C 
ATOM     32 OXT  PHE C  20     -72.586-205.849  84.255  1.00 46.78 LIG-0.65  OA
ATOM     33 O    PHE C  20     -71.266-206.062  85.887  1.00 43.65 LIG-0.65  OA
ENDBRANCH 23 31
ENDBRANCH 20 23
ENDBRANCH 15 19
ENDBRANCH 5 12
ENDBRANCH 3 5
BRANCH 1 34
ATOM     34  CA  ASN C  17     -74.774-209.491  75.523  1.00 16.90 LIG 0.18  C 
BRANCH 34 35
ATOM     35  N   ASN C  17     -76.101-209.027  75.900  1.00 20.58 LIG-0.35  N 
ATOM     36  C   VAL C  16     -77.058-209.885  76.239  1.00 27.16 LIG 0.24  C 
ATOM     37 O    VAL C  16     -76.955-211.100  76.068  1.00 29.43 LIG-0.27  OA
ATOM     38 H    ASN C  17     -76.201-208.173  75.883  1.00 20.58 LIG 0.16  HD
BRANCH 36 39
ATOM     39  CA  VAL C  16     -78.323-209.287  76.850  1.00 33.54 LIG 0.18  C 
BRANCH 39 40
ATOM     40  CB  VAL C  16     -79.372-209.057  75.735  1.00 32.44 LIG 0.01  C 
ATOM     41  CG2 VAL C  16     -80.294-210.271  75.613  1.00 34.10 LIG 0.01  C 
ATOM     42  CG1 VAL C  16     -78.698-208.727  74.396  1.00 32.37 LIG 0.01  C 
ENDBRANCH 39 40
BRANCH 39 43
ATOM     43  N   VAL C  16     -78.033-208.042  77.550  1.00 45.58 LIG-0.34  N 
ATOM     44  C   GLN C  15     -77.289-208.000  78.649  1.00 57.61 LIG 0.26  C 
ATOM     45 O    GLN C  15     -76.765-208.999  79.142  1.00 61.53 LIG-0.27  OA
ATOM     46 H    VAL C  16     -78.386-207.346  77.188  1.00 45.58 LIG 0.16  HD
BRANCH 44 47
ATOM     47  CA  GLN C  15     -77.107-206.621  79.277  1.00 63.44 LIG 0.40  C 
ATOM     48  N   GLN C  15     -75.692-206.280  79.374  1.00 62.08 LIG 0.61  N 
BRANCH 47 49
ATOM     49  CB  GLN C  15     -77.854-205.567  78.463  1.00 68.54 LIG 0.06  C 
BRANCH 49 50
ATOM     50  CG  GLN C  15     -77.134-205.157  77.183  1.00 72.89 LIG 0.10  C 
BRANCH 50 51
ATOM     51  CD  GLN C  15     -78.060-204.945  75.997  1.00 75.77 LIG 0.21  C 
ATOM     52 OE1  GLN C  15     -78.047-205.707  75.030  1.00 77.61 LIG-0.27  OA
ATOM     53  NE2 GLN C  15     -78.870-203.896  76.068  1.00 76.03 LIG-0.37  N 
ATOM     54 22HE GLN C  15     -79.413-203.727  75.423  1.00 76.03 LIG 0.16  HD
ATOM     55 21HE GLN C  15     -78.852-203.385  76.760  1.00 76.03 LIG 0.16  HD
ENDBRANCH 50 51
ENDBRANCH 49 50
ENDBRANCH 47 49
ENDBRANCH 44 47
ENDBRANCH 39 43
ENDBRANCH 36 39
ENDBRANCH 34 35
BRANCH 34 56
ATOM     56  CB  ASN C  17     -74.094-208.503  74.570  1.00 15.63 LIG 0.14  C 
BRANCH 56 57
ATOM     57  CG  ASN C  17     -74.445-207.059  74.876  1.00 17.63 LIG 0.22  C 
ATOM     58 OD1  ASN C  17     -73.961-206.481  75.852  1.00 24.00 LIG-0.27  OA
ATOM     59  ND2 ASN C  17     -75.303-206.471  74.051  1.00 16.48 LIG-0.37  N 
ATOM     60 21HD ASN C  17     -75.541-205.656  74.187  1.00 16.48 LIG 0.16  HD
ATOM     61 22HD ASN C  17     -75.621-206.905  73.380  1.00 16.48 LIG 0.16  HD
ENDBRANCH 56 57
ENDBRANCH 34 56
ENDBRANCH 1 34
TORSDOF 20
ENDMDL
MODEL 50
USER: ADFR SOLUTION from run 175
USER: SCORE 17.537758 LL:  -4.921 LR: -13.288 RR:   0.000 FEB:  -7.322
USER: RMSD 9.712866
USER: SEED 174
USER: STATUS no improvement in best in 22 clusters for 5 generations
USER: GENES 22
USER: genes 0 Translation |==|  0.66197 0.47585 0.23546
USER: genes 1 Rotation |==|  0.69396 0.09834 0.27984 0.55080
USER: genes 2 Torsion [C]-N--CA-[CB] |==|  0.17165
USER: genes 3 Torsion [N]-CA--CB-[CG] |==|  0.70330
USER: genes 4 Torsion [CA]-CB--CG-[OD1] |==|  0.39175
USER: genes 5 Torsion [N]-CA--C-[N] |==|  0.10876
USER: genes 6 Torsion [N]-CA--C-[O] |==|  0.15616
USER: genes 7 Torsion [C]-N--CA-[CB] |==|  0.26336
USER: genes 8 Torsion [N]-CA--CB-[CG] |==|  0.87067
USER: genes 9 Torsion [CA]-CB--CG-[CD1] |==|  0.30564
USER: genes 10 Torsion [N]-CA--C-[O] |==|  0.58715
USER: genes 11 Torsion [N]-C--CA-[N] |==|  0.96981
USER: genes 12 Torsion [C]-CA--N-[C] |==|  0.22958
USER: genes 13 Torsion [N]-C--CA-[N] |==|  0.97778
USER: genes 14 Torsion [C]-CA--CB-[CG2] |==|  0.50538
USER: genes 15 Torsion [C]-CA--N-[C] |==|  0.76489
USER: genes 16 Torsion [N]-C--CA-[N] |==|  0.36478
USER: genes 17 Torsion [C]-CA--CB-[CG] |==|  0.08494
USER: genes 18 Torsion [CA]-CB--CG-[CD] |==|  0.25429
USER: genes 19 Torsion [CB]-CG--CD-[OE1] |==|  0.76606
USER: genes 20 Torsion [C]-CA--CB-[CG] |==|  0.50738
USER: genes 21 Torsion [CA]-CB--CG-[OD1] |==|  0.10684
ROOT
ATOM      1  C   ASN C  17     -74.687-209.883  76.271  1.00 20.61 LIG 0.24  C 
ATOM      2 O    ASN C  17     -74.177-210.853  75.711  1.00 16.51 LIG-0.27  OA
ATOM      3  N   ASN C  18     -74.793-209.772  77.593  1.00 22.51 LIG-0.35  N 
ATOM      4 H    ASN C  18     -75.183-209.114  77.986  1.00 22.51 LIG 0.16  HD
ENDROOT
BRANCH 3 5
ATOM      5  CA  ASN C  18     -74.248-210.774  78.503  1.00 19.22 LIG 0.18  C 
BRANCH 5 6
ATOM      6  CB  ASN C  18     -72.728-210.866  78.336  1.00 16.89 LIG 0.14  C 
BRANCH 6 7
ATOM      7  CG  ASN C  18     -72.296-212.130  77.618  1.00 20.14 LIG 0.22  C 
ATOM      8  ND2 ASN C  18     -72.950-213.242  77.934  1.00 20.12 LIG-0.37  N 
ATOM      9 22HD ASN C  18     -73.588-213.217  78.510  1.00 20.12 LIG 0.16  HD
ATOM     10 21HD ASN C  18     -72.735-213.988  77.562  1.00 20.12 LIG 0.16  HD
ATOM     11 OD1  ASN C  18     -71.375-212.109  76.801  1.00 18.28 LIG-0.27  OA
ENDBRANCH 6 7
ENDBRANCH 5 6
BRANCH 5 12
ATOM     12  C   ASN C  18     -74.590-210.466  79.964  1.00 21.33 LIG 0.24  C 
ATOM     13  N   PRO C  19     -75.818-209.985  80.220  1.00 20.66 LIG-0.34  N 
ATOM     14  CD  PRO C  19     -76.840-209.558  79.248  1.00 23.11 LIG 0.13  C 
ATOM     15  CA  PRO C  19     -76.225-209.683  81.596  1.00 23.26 LIG 0.18  C 
ATOM     16  CG  PRO C  19     -77.949-209.007  80.114  1.00 22.87 LIG 0.02  C 
ATOM     17  CB  PRO C  19     -77.303-208.619  81.400  1.00 23.39 LIG 0.04  C 
ATOM     18 O    ASN C  18     -73.760-210.663  80.850  1.00 23.13 LIG-0.27  OA
BRANCH 15 19
ATOM     19  C   PRO C  19     -76.798-210.888  82.341  1.00 24.54 LIG 0.24  C 
ATOM     20  N   PHE C  20     -78.019-210.762  82.851  1.00 23.51 LIG-0.34  N 
ATOM     21 H    PHE C  20     -78.540-210.096  82.691  1.00 23.51 LIG 0.16  HD
ATOM     22 O    PRO C  19     -76.126-211.918  82.443  1.00 27.52 LIG-0.27  OA
BRANCH 20 23
ATOM     23  CA  PHE C  20     -78.584-211.771  83.746  1.00 27.49 LIG 0.19  C 
BRANCH 23 24
ATOM     24  CB  PHE C  20     -78.335-211.356  85.196  1.00 22.62 LIG 0.07  C 
BRANCH 24 25
ATOM     25  CG  PHE C  20     -76.928-210.908  85.444  1.00 18.80 LIG-0.06  A 
ATOM     26  CD1 PHE C  20     -76.657-209.578  85.700  1.00 16.53 LIG 0.01  A 
ATOM     27  CE1 PHE C  20     -75.373-209.153  85.949  1.00 18.06 LIG 0.00  A 
ATOM     28  CZ  PHE C  20     -74.330-210.065  85.953  1.00 17.30 LIG 0.00  A 
ATOM     29  CE2 PHE C  20     -74.584-211.396  85.707  1.00 18.45 LIG 0.00  A 
ATOM     30  CD2 PHE C  20     -75.880-211.815  85.458  1.00 20.64 LIG 0.01  A 
ENDBRANCH 24 25
ENDBRANCH 23 24
BRANCH 23 31
ATOM     31  C   PHE C  20     -80.073-212.007  83.501  1.00 41.21 LIG 0.20  C 
ATOM     32 OXT  PHE C  20     -80.563-211.895  82.379  1.00 46.78 LIG-0.65  OA
ATOM     33 O    PHE C  20     -80.822-212.330  84.427  1.00 43.65 LIG-0.65  OA
ENDBRANCH 23 31
ENDBRANCH 20 23
ENDBRANCH 15 19
ENDBRANCH 5 12
ENDBRANCH 3 5
BRANCH 1 34
ATOM     34  CA  ASN C  17     -75.222-208.716  75.452  1.00 16.90 LIG 0.18  C 
BRANCH 34 35
ATOM     35  N   ASN C  17     -75.973-207.838  76.337  1.00 20.58 LIG-0.35  N 
ATOM     36  C   VAL C  16     -75.358-206.928  77.085  1.00 27.16 LIG 0.24  C 
ATOM     37 O    VAL C  16     -74.137-206.899  77.231  1.00 29.43 LIG-0.27  OA
ATOM     38 H    ASN C  17     -76.824-207.963  76.327  1.00 20.58 LIG 0.16  HD
BRANCH 36 39
ATOM     39  CA  VAL C  16     -76.252-205.904  77.783  1.00 33.54 LIG 0.18  C 
BRANCH 39 40
ATOM     40  CB  VAL C  16     -76.157-206.100  79.315  1.00 32.44 LIG 0.01  C 
ATOM     41  CG2 VAL C  16     -77.081-205.117  80.035  1.00 34.10 LIG 0.01  C 
ATOM     42  CG1 VAL C  16     -74.708-205.970  79.805  1.00 32.37 LIG 0.01  C 
ENDBRANCH 39 40
BRANCH 39 43
ATOM     43  N   VAL C  16     -77.634-206.018  77.333  1.00 45.58 LIG-0.34  N 
ATOM     44  C   GLN C  15     -78.076-205.417  76.235  1.00 57.61 LIG 0.26  C 
ATOM     45 O    GLN C  15     -77.352-204.745  75.500  1.00 61.53 LIG-0.27  OA
ATOM     46 H    VAL C  16     -78.130-206.504  77.841  1.00 45.58 LIG 0.16  HD
BRANCH 44 47
ATOM     47  CA  GLN C  15     -79.558-205.610  75.921  1.00 63.44 LIG 0.40  C 
ATOM     48  N   GLN C  15     -80.194-204.332  75.625  1.00 62.08 LIG 0.61  N 
BRANCH 47 49
ATOM     49  CB  GLN C  15     -79.726-206.574  74.748  1.00 68.54 LIG 0.06  C 
BRANCH 49 50
ATOM     50  CG  GLN C  15     -78.624-207.624  74.653  1.00 72.89 LIG 0.10  C 
BRANCH 50 51
ATOM     51  CD  GLN C  15     -78.939-208.914  75.391  1.00 75.77 LIG 0.21  C 
ATOM     52 OE1  GLN C  15     -78.723-209.031  76.597  1.00 77.61 LIG-0.27  OA
ATOM     53  NE2 GLN C  15     -79.450-209.896  74.659  1.00 76.03 LIG-0.37  N 
ATOM     54 22HE GLN C  15     -79.644-210.649  75.025  1.00 76.03 LIG 0.16  HD
ATOM     55 21HE GLN C  15     -79.588-209.778  73.818  1.00 76.03 LIG 0.16  HD
ENDBRANCH 50 51
ENDBRANCH 49 50
ENDBRANCH 47 49
ENDBRANCH 44 47
ENDBRANCH 39 43
ENDBRANCH 36 39
ENDBRANCH 34 35
BRANCH 34 56
ATOM     56  CB  ASN C  17     -74.078-207.962  74.767  1.00 15.63 LIG 0.14  C 
BRANCH 56 57
ATOM     57  CG  ASN C  17     -74.558-206.751  73.990  1.00 17.63 LIG 0.22  C 
ATOM     58 OD1  ASN C  17     -75.463-206.035  74.425  1.00 24.00 LIG-0.27  OA
ATOM     59  ND2 ASN C  17     -73.963-206.521  72.826  1.00 16.48 LIG-0.37  N 
ATOM     60 21HD ASN C  17     -74.206-205.852  72.343  1.00 16.48 LIG 0.16  HD
ATOM     61 22HD ASN C  17     -73.335-207.042  72.554  1.00 16.48 LIG 0.16  HD
ENDBRANCH 56 57
ENDBRANCH 34 56
ENDBRANCH 1 34
TORSDOF 20
ENDMDL
MODEL 51
USER: ADFR SOLUTION from run 2
USER: SCORE 17.504162 LL:  -5.667 LR: -13.277 RR:   0.000 FEB:  -7.311
USER: RMSD 8.471781
USER: SEED 569865
USER: STATUS no improvement in best in 8 clusters for 5 generations
USER: GENES 22
USER: genes 0 Translation |==|  0.65471 0.42970 0.21954
USER: genes 1 Rotation |==|  0.53478 0.06337 0.28832 0.61549
USER: genes 2 Torsion [C]-N--CA-[CB] |==|  0.13889
USER: genes 3 Torsion [N]-CA--CB-[CG] |==|  0.17548
USER: genes 4 Torsion [CA]-CB--CG-[OD1] |==|  0.77763
USER: genes 5 Torsion [N]-CA--C-[N] |==|  0.92514
USER: genes 6 Torsion [N]-CA--C-[O] |==|  0.88126
USER: genes 7 Torsion [C]-N--CA-[CB] |==|  0.52516
USER: genes 8 Torsion [N]-CA--CB-[CG] |==|  0.78290
USER: genes 9 Torsion [CA]-CB--CG-[CD1] |==|  0.85740
USER: genes 10 Torsion [N]-CA--C-[O] |==|  0.33044
USER: genes 11 Torsion [N]-C--CA-[N] |==|  0.85567
USER: genes 12 Torsion [C]-CA--N-[C] |==|  0.72653
USER: genes 13 Torsion [N]-C--CA-[N] |==|  0.93647
USER: genes 14 Torsion [C]-CA--CB-[CG2] |==|  0.15499
USER: genes 15 Torsion [C]-CA--N-[C] |==|  0.78937
USER: genes 16 Torsion [N]-C--CA-[N] |==|  0.25244
USER: genes 17 Torsion [C]-CA--CB-[CG] |==|  0.69519
USER: genes 18 Torsion [CA]-CB--CG-[CD] |==|  0.33835
USER: genes 19 Torsion [CB]-CG--CD-[OE1] |==|  0.62714
USER: genes 20 Torsion [C]-CA--CB-[CG] |==|  0.64281
USER: genes 21 Torsion [CA]-CB--CG-[OD1] |==|  0.21717
ROOT
ATOM      1  C   ASN C  17     -74.839-210.576  75.877  1.00 20.61 LIG 0.24  C 
ATOM      2 O    ASN C  17     -75.060-211.736  75.534  1.00 16.51 LIG-0.27  OA
ATOM      3  N   ASN C  18     -74.236-210.250  77.018  1.00 22.51 LIG-0.35  N 
ATOM      4 H    ASN C  18     -74.114-209.439  77.278  1.00 22.51 LIG 0.16  HD
ENDROOT
BRANCH 3 5
ATOM      5  CA  ASN C  18     -73.721-211.257  77.940  1.00 19.22 LIG 0.18  C 
BRANCH 5 6
ATOM      6  CB  ASN C  18     -72.853-212.268  77.184  1.00 16.89 LIG 0.14  C 
BRANCH 6 7
ATOM      7  CG  ASN C  18     -71.622-211.634  76.568  1.00 20.14 LIG 0.22  C 
ATOM      8  ND2 ASN C  18     -70.486-211.771  77.243  1.00 20.12 LIG-0.37  N 
ATOM      9 22HD ASN C  18     -70.475-212.210  77.982  1.00 20.12 LIG 0.16  HD
ATOM     10 21HD ASN C  18     -69.761-211.419  76.940  1.00 20.12 LIG 0.16  HD
ATOM     11 OD1  ASN C  18     -71.694-211.016  75.505  1.00 18.28 LIG-0.27  OA
ENDBRANCH 6 7
ENDBRANCH 5 6
BRANCH 5 12
ATOM     12  C   ASN C  18     -72.912-210.630  79.078  1.00 21.33 LIG 0.24  C 
ATOM     13  N   PRO C  19     -72.315-209.452  78.833  1.00 20.66 LIG-0.34  N 
ATOM     14  CD  PRO C  19     -72.203-208.750  77.542  1.00 23.11 LIG 0.13  C 
ATOM     15  CA  PRO C  19     -71.537-208.781  79.879  1.00 23.26 LIG 0.18  C 
ATOM     16  CG  PRO C  19     -71.335-207.555  77.859  1.00 22.87 LIG 0.02  C 
ATOM     17  CB  PRO C  19     -70.557-207.930  79.074  1.00 23.39 LIG 0.04  C 
ATOM     18 O    ASN C  18     -72.830-211.198  80.167  1.00 23.13 LIG-0.27  OA
BRANCH 15 19
ATOM     19  C   PRO C  19     -72.382-207.895  80.794  1.00 24.54 LIG 0.24  C 
ATOM     20  N   PHE C  20     -72.127-207.952  82.098  1.00 23.51 LIG-0.34  N 
ATOM     21 H    PHE C  20     -71.452-208.363  82.438  1.00 23.51 LIG 0.16  HD
ATOM     22 O    PRO C  19     -73.255-207.171  80.307  1.00 27.52 LIG-0.27  OA
BRANCH 20 23
ATOM     23  CA  PHE C  20     -72.997-207.303  83.078  1.00 27.49 LIG 0.19  C 
BRANCH 23 24
ATOM     24  CB  PHE C  20     -72.331-207.350  84.453  1.00 22.62 LIG 0.07  C 
BRANCH 24 25
ATOM     25  CG  PHE C  20     -72.454-208.686  85.119  1.00 18.80 LIG-0.06  A 
ATOM     26  CD1 PHE C  20     -73.689-209.293  85.236  1.00 16.53 LIG 0.01  A 
ATOM     27  CE1 PHE C  20     -73.817-210.528  85.828  1.00 18.06 LIG 0.00  A 
ATOM     28  CZ  PHE C  20     -72.696-211.185  86.309  1.00 17.30 LIG 0.00  A 
ATOM     29  CE2 PHE C  20     -71.456-210.597  86.193  1.00 18.45 LIG 0.00  A 
ATOM     30  CD2 PHE C  20     -71.336-209.354  85.595  1.00 20.64 LIG 0.01  A 
ENDBRANCH 24 25
ENDBRANCH 23 24
BRANCH 23 31
ATOM     31  C   PHE C  20     -73.343-205.866  82.696  1.00 41.21 LIG 0.20  C 
ATOM     32 OXT  PHE C  20     -72.469-205.011  82.559  1.00 46.78 LIG-0.65  OA
ATOM     33 O    PHE C  20     -74.515-205.528  82.503  1.00 43.65 LIG-0.65  OA
ENDBRANCH 23 31
ENDBRANCH 20 23
ENDBRANCH 15 19
ENDBRANCH 5 12
ENDBRANCH 3 5
BRANCH 1 34
ATOM     34  CA  ASN C  17     -75.241-209.418  74.973  1.00 16.90 LIG 0.18  C 
BRANCH 34 35
ATOM     35  N   ASN C  17     -76.010-208.465  75.760  1.00 20.58 LIG-0.35  N 
ATOM     36  C   VAL C  16     -77.339-208.459  75.725  1.00 27.16 LIG 0.24  C 
ATOM     37 O    VAL C  16     -77.987-209.101  74.899  1.00 29.43 LIG-0.27  OA
ATOM     38 H    ASN C  17     -75.536-207.925  76.233  1.00 20.58 LIG 0.16  HD
BRANCH 36 39
ATOM     39  CA  VAL C  16     -78.043-207.591  76.766  1.00 33.54 LIG 0.18  C 
BRANCH 39 40
ATOM     40  CB  VAL C  16     -78.469-206.253  76.117  1.00 32.44 LIG 0.01  C 
ATOM     41  CG2 VAL C  16     -79.341-206.513  74.887  1.00 34.10 LIG 0.01  C 
ATOM     42  CG1 VAL C  16     -77.249-205.389  75.768  1.00 32.37 LIG 0.01  C 
ENDBRANCH 39 40
BRANCH 39 43
ATOM     43  N   VAL C  16     -77.186-207.353  77.922  1.00 45.58 LIG-0.34  N 
ATOM     44  C   GLN C  15     -76.965-208.281  78.846  1.00 57.61 LIG 0.26  C 
ATOM     45 O    GLN C  15     -77.439-209.416  78.785  1.00 61.53 LIG-0.27  OA
ATOM     46 H    VAL C  16     -76.843-206.565  77.947  1.00 45.58 LIG 0.16  HD
BRANCH 44 47
ATOM     47  CA  GLN C  15     -76.068-207.861  80.008  1.00 63.44 LIG 0.40  C 
ATOM     48  N   GLN C  15     -76.862-207.311  81.100  1.00 62.08 LIG 0.61  N 
BRANCH 47 49
ATOM     49  CB  GLN C  15     -75.244-209.052  80.495  1.00 68.54 LIG 0.06  C 
BRANCH 49 50
ATOM     50  CG  GLN C  15     -75.666-209.570  81.866  1.00 72.89 LIG 0.10  C 
BRANCH 50 51
ATOM     51  CD  GLN C  15     -76.080-211.031  81.870  1.00 75.77 LIG 0.21  C 
ATOM     52 OE1  GLN C  15     -77.099-211.406  82.450  1.00 77.61 LIG-0.27  OA
ATOM     53  NE2 GLN C  15     -75.278-211.868  81.223  1.00 76.03 LIG-0.37  N 
ATOM     54 22HE GLN C  15     -75.463-212.707  81.197  1.00 76.03 LIG 0.16  HD
ATOM     55 21HE GLN C  15     -74.574-211.570  80.830  1.00 76.03 LIG 0.16  HD
ENDBRANCH 50 51
ENDBRANCH 49 50
ENDBRANCH 47 49
ENDBRANCH 44 47
ENDBRANCH 39 43
ENDBRANCH 36 39
ENDBRANCH 34 35
BRANCH 34 56
ATOM     56  CB  ASN C  17     -74.007-208.754  74.356  1.00 15.63 LIG 0.14  C 
BRANCH 56 57
ATOM     57  CG  ASN C  17     -73.991-207.250  74.551  1.00 17.63 LIG 0.22  C 
ATOM     58 OD1  ASN C  17     -73.661-206.754  75.630  1.00 24.00 LIG-0.27  OA
ATOM     59  ND2 ASN C  17     -74.362-206.515  73.510  1.00 16.48 LIG-0.37  N 
ATOM     60 21HD ASN C  17     -74.379-205.657  73.573  1.00 16.48 LIG 0.16  HD
ATOM     61 22HD ASN C  17     -74.585-206.896  72.772  1.00 16.48 LIG 0.16  HD
ENDBRANCH 56 57
ENDBRANCH 34 56
ENDBRANCH 1 34
TORSDOF 20
ENDMDL
MODEL 52
USER: ADFR SOLUTION from run 32
USER: SCORE 18.428288 LL:  -6.089 LR: -13.272 RR:   0.000 FEB:  -7.306
USER: RMSD 6.606810
USER: SEED 31
USER: STATUS no improvement in best in 12 clusters for 5 generations
USER: GENES 22
USER: genes 0 Translation |==|  0.53185 0.60137 0.24788
USER: genes 1 Rotation |==|  0.19082 0.32053 0.68693 0.79539
USER: genes 2 Torsion [C]-N--CA-[CB] |==|  0.83031
USER: genes 3 Torsion [N]-CA--CB-[CG] |==|  0.84746
USER: genes 4 Torsion [CA]-CB--CG-[OD1] |==|  0.26981
USER: genes 5 Torsion [N]-CA--C-[N] |==|  0.51592
USER: genes 6 Torsion [N]-CA--C-[O] |==|  0.73210
USER: genes 7 Torsion [C]-N--CA-[CB] |==|  0.24655
USER: genes 8 Torsion [N]-CA--CB-[CG] |==|  0.82093
USER: genes 9 Torsion [CA]-CB--CG-[CD1] |==|  0.34078
USER: genes 10 Torsion [N]-CA--C-[O] |==|  0.55140
USER: genes 11 Torsion [N]-C--CA-[N] |==|  0.43623
USER: genes 12 Torsion [C]-CA--N-[C] |==|  0.79873
USER: genes 13 Torsion [N]-C--CA-[N] |==|  0.44215
USER: genes 14 Torsion [C]-CA--CB-[CG2] |==|  0.23845
USER: genes 15 Torsion [C]-CA--N-[C] |==|  0.60547
USER: genes 16 Torsion [N]-C--CA-[N] |==|  0.69531
USER: genes 17 Torsion [C]-CA--CB-[CG] |==|  0.28286
USER: genes 18 Torsion [CA]-CB--CG-[CD] |==|  0.74377
USER: genes 19 Torsion [CB]-CG--CD-[OE1] |==|  0.92617
USER: genes 20 Torsion [C]-CA--CB-[CG] |==|  0.81647
USER: genes 21 Torsion [CA]-CB--CG-[OD1] |==|  0.06132
ROOT
ATOM      1  C   ASN C  17     -77.419-208.000  76.578  1.00 20.61 LIG 0.24  C 
ATOM      2 O    ASN C  17     -76.740-207.809  77.586  1.00 16.51 LIG-0.27  OA
ATOM      3  N   ASN C  18     -76.945-208.570  75.472  1.00 22.51 LIG-0.35  N 
ATOM      4 H    ASN C  18     -77.406-208.671  74.753  1.00 22.51 LIG 0.16  HD
ENDROOT
BRANCH 3 5
ATOM      5  CA  ASN C  18     -75.581-209.081  75.385  1.00 19.22 LIG 0.18  C 
BRANCH 5 6
ATOM      6  CB  ASN C  18     -74.578-207.944  75.600  1.00 16.89 LIG 0.14  C 
BRANCH 6 7
ATOM      7  CG  ASN C  18     -74.798-206.785  74.648  1.00 20.14 LIG 0.22  C 
ATOM      8  ND2 ASN C  18     -74.249-206.896  73.443  1.00 20.12 LIG-0.37  N 
ATOM      9 22HD ASN C  18     -73.807-207.604  73.236  1.00 20.12 LIG 0.16  HD
ATOM     10 21HD ASN C  18     -74.336-206.260  72.871  1.00 20.12 LIG 0.16  HD
ATOM     11 OD1  ASN C  18     -75.440-205.793  74.997  1.00 18.28 LIG-0.27  OA
ENDBRANCH 6 7
ENDBRANCH 5 6
BRANCH 5 12
ATOM     12  C   ASN C  18     -75.323-210.198  76.400  1.00 21.33 LIG 0.24  C 
ATOM     13  N   PRO C  19     -74.067-210.666  76.494  1.00 20.66 LIG-0.34  N 
ATOM     14  CD  PRO C  19     -72.920-210.350  75.624  1.00 23.11 LIG 0.13  C 
ATOM     15  CA  PRO C  19     -73.737-211.722  77.455  1.00 23.26 LIG 0.18  C 
ATOM     16  CG  PRO C  19     -71.822-211.252  76.137  1.00 22.87 LIG 0.02  C 
ATOM     17  CB  PRO C  19     -72.514-212.381  76.822  1.00 23.39 LIG 0.04  C 
ATOM     18 O    ASN C  18     -76.242-210.631  77.094  1.00 23.13 LIG-0.27  OA
BRANCH 15 19
ATOM     19  C   PRO C  19     -73.395-211.194  78.849  1.00 24.54 LIG 0.24  C 
ATOM     20  N   PHE C  20     -74.413-210.937  79.666  1.00 23.51 LIG-0.34  N 
ATOM     21 H    PHE C  20     -75.229-211.153  79.500  1.00 23.51 LIG 0.16  HD
ATOM     22 O    PRO C  19     -72.215-211.029  79.166  1.00 27.52 LIG-0.27  OA
BRANCH 20 23
ATOM     23  CA  PHE C  20     -74.216-210.248  80.940  1.00 27.49 LIG 0.19  C 
BRANCH 23 24
ATOM     24  CB  PHE C  20     -74.321-208.739  80.720  1.00 22.62 LIG 0.07  C 
BRANCH 24 25
ATOM     25  CG  PHE C  20     -73.237-208.199  79.839  1.00 18.80 LIG-0.06  A 
ATOM     26  CD1 PHE C  20     -73.558-207.513  78.683  1.00 16.53 LIG 0.01  A 
ATOM     27  CE1 PHE C  20     -72.575-206.994  77.873  1.00 18.06 LIG 0.00  A 
ATOM     28  CZ  PHE C  20     -71.242-207.148  78.216  1.00 17.30 LIG 0.00  A 
ATOM     29  CE2 PHE C  20     -70.905-207.822  79.369  1.00 18.45 LIG 0.00  A 
ATOM     30  CD2 PHE C  20     -71.901-208.340  80.179  1.00 20.64 LIG 0.01  A 
ENDBRANCH 24 25
ENDBRANCH 23 24
BRANCH 23 31
ATOM     31  C   PHE C  20     -75.200-210.705  82.015  1.00 41.21 LIG 0.20  C 
ATOM     32 OXT  PHE C  20     -75.804-211.773  81.918  1.00 46.78 LIG-0.65  OA
ATOM     33 O    PHE C  20     -75.406-210.017  83.018  1.00 43.65 LIG-0.65  OA
ENDBRANCH 23 31
ENDBRANCH 20 23
ENDBRANCH 15 19
ENDBRANCH 5 12
ENDBRANCH 3 5
BRANCH 1 34
ATOM     34  CA  ASN C  17     -78.888-207.599  76.552  1.00 16.90 LIG 0.18  C 
BRANCH 34 35
ATOM     35  N   ASN C  17     -79.369-207.520  77.923  1.00 20.58 LIG-0.35  N 
ATOM     36  C   VAL C  16     -79.570-208.618  78.645  1.00 27.16 LIG 0.24  C 
ATOM     37 O    VAL C  16     -79.559-209.748  78.156  1.00 29.43 LIG-0.27  OA
ATOM     38 H    ASN C  17     -79.505-206.721  78.210  1.00 20.58 LIG 0.16  HD
BRANCH 36 39
ATOM     39  CA  VAL C  16     -79.835-208.415  80.135  1.00 33.54 LIG 0.18  C 
BRANCH 39 40
ATOM     40  CB  VAL C  16     -78.498-208.138  80.862  1.00 32.44 LIG 0.01  C 
ATOM     41  CG2 VAL C  16     -78.157-206.648  80.799  1.00 34.10 LIG 0.01  C 
ATOM     42  CG1 VAL C  16     -77.363-208.998  80.288  1.00 32.37 LIG 0.01  C 
ENDBRANCH 39 40
BRANCH 39 43
ATOM     43  N   VAL C  16     -80.506-209.572  80.714  1.00 45.58 LIG-0.34  N 
ATOM     44  C   GLN C  15     -81.453-209.457  81.638  1.00 57.61 LIG 0.26  C 
ATOM     45 O    GLN C  15     -81.856-208.370  82.054  1.00 61.53 LIG-0.27  OA
ATOM     46 H    VAL C  16     -80.234-210.327  80.405  1.00 45.58 LIG 0.16  HD
BRANCH 44 47
ATOM     47  CA  GLN C  15     -82.033-210.767  82.164  1.00 63.44 LIG 0.40  C 
ATOM     48  N   GLN C  15     -83.404-210.948  81.700  1.00 62.08 LIG 0.61  N 
BRANCH 47 49
ATOM     49  CB  GLN C  15     -81.163-211.943  81.725  1.00 68.54 LIG 0.06  C 
BRANCH 49 50
ATOM     50  CG  GLN C  15     -80.243-212.469  82.822  1.00 72.89 LIG 0.10  C 
BRANCH 50 51
ATOM     51  CD  GLN C  15     -78.863-211.834  82.825  1.00 75.77 LIG 0.21  C 
ATOM     52 OE1  GLN C  15     -78.368-211.374  81.796  1.00 77.61 LIG-0.27  OA
ATOM     53  NE2 GLN C  15     -78.231-211.815  83.992  1.00 76.03 LIG-0.37  N 
ATOM     54 22HE GLN C  15     -77.445-211.471  84.050  1.00 76.03 LIG 0.16  HD
ATOM     55 21HE GLN C  15     -78.608-212.146  84.690  1.00 76.03 LIG 0.16  HD
ENDBRANCH 50 51
ENDBRANCH 49 50
ENDBRANCH 47 49
ENDBRANCH 44 47
ENDBRANCH 39 43
ENDBRANCH 36 39
ENDBRANCH 34 35
BRANCH 34 56
ATOM     56  CB  ASN C  17     -79.075-206.264  75.825  1.00 15.63 LIG 0.14  C 
BRANCH 56 57
ATOM     57  CG  ASN C  17     -78.436-205.102  76.560  1.00 17.63 LIG 0.22  C 
ATOM     58 OD1  ASN C  17     -77.527-205.287  77.373  1.00 24.00 LIG-0.27  OA
ATOM     59  ND2 ASN C  17     -78.917-203.894  76.290  1.00 16.48 LIG-0.37  N 
ATOM     60 21HD ASN C  17     -78.595-203.204  76.689  1.00 16.48 LIG 0.16  HD
ATOM     61 22HD ASN C  17     -79.552-203.803  75.717  1.00 16.48 LIG 0.16  HD
ENDBRANCH 56 57
ENDBRANCH 34 56
ENDBRANCH 1 34
TORSDOF 20
ENDMDL
MODEL 53
USER: ADFR SOLUTION from run 90
USER: SCORE 16.750661 LL:  -5.101 LR: -13.248 RR:   0.000 FEB:  -7.282
USER: RMSD 9.196350
USER: SEED 89
USER: STATUS no improvement in best in 19 clusters for 5 generations
USER: GENES 22
USER: genes 0 Translation |==|  0.71306 0.37564 0.32922
USER: genes 1 Rotation |==|  0.82248 0.14224 0.60620 0.58209
USER: genes 2 Torsion [C]-N--CA-[CB] |==|  0.78189
USER: genes 3 Torsion [N]-CA--CB-[CG] |==|  0.60563
USER: genes 4 Torsion [CA]-CB--CG-[OD1] |==|  0.34703
USER: genes 5 Torsion [N]-CA--C-[N] |==|  0.15000
USER: genes 6 Torsion [N]-CA--C-[O] |==|  0.82816
USER: genes 7 Torsion [C]-N--CA-[CB] |==|  0.39868
USER: genes 8 Torsion [N]-CA--CB-[CG] |==|  0.08179
USER: genes 9 Torsion [CA]-CB--CG-[CD1] |==|  0.70677
USER: genes 10 Torsion [N]-CA--C-[O] |==|  0.79640
USER: genes 11 Torsion [N]-C--CA-[N] |==|  0.13580
USER: genes 12 Torsion [C]-CA--N-[C] |==|  0.74874
USER: genes 13 Torsion [N]-C--CA-[N] |==|  0.67235
USER: genes 14 Torsion [C]-CA--CB-[CG2] |==|  0.56590
USER: genes 15 Torsion [C]-CA--N-[C] |==|  0.64132
USER: genes 16 Torsion [N]-C--CA-[N] |==|  0.68874
USER: genes 17 Torsion [C]-CA--CB-[CG] |==|  0.26604
USER: genes 18 Torsion [CA]-CB--CG-[CD] |==|  0.00493
USER: genes 19 Torsion [CB]-CG--CD-[OE1] |==|  0.79778
USER: genes 20 Torsion [C]-CA--CB-[CG] |==|  0.75673
USER: genes 21 Torsion [CA]-CB--CG-[OD1] |==|  0.65013
ROOT
ATOM      1  C   ASN C  17     -73.614-211.386  78.591  1.00 20.61 LIG 0.24  C 
ATOM      2 O    ASN C  17     -72.679-211.569  79.370  1.00 16.51 LIG-0.27  OA
ATOM      3  N   ASN C  18     -74.734-210.751  78.927  1.00 22.51 LIG-0.35  N 
ATOM      4 H    ASN C  18     -75.405-210.655  78.397  1.00 22.51 LIG 0.16  HD
ENDROOT
BRANCH 3 5
ATOM      5  CA  ASN C  18     -74.924-210.154  80.244  1.00 19.22 LIG 0.18  C 
BRANCH 5 6
ATOM      6  CB  ASN C  18     -75.276-211.237  81.269  1.00 16.89 LIG 0.14  C 
BRANCH 6 7
ATOM      7  CG  ASN C  18     -76.307-210.771  82.278  1.00 20.14 LIG 0.22  C 
ATOM      8  ND2 ASN C  18     -76.011-209.672  82.962  1.00 20.12 LIG-0.37  N 
ATOM      9 22HD ASN C  18     -75.271-209.259  82.813  1.00 20.12 LIG 0.16  HD
ATOM     10 21HD ASN C  18     -76.559-209.373  83.555  1.00 20.12 LIG 0.16  HD
ATOM     11 OD1  ASN C  18     -77.351-211.401  82.452  1.00 18.28 LIG-0.27  OA
ENDBRANCH 6 7
ENDBRANCH 5 6
BRANCH 5 12
ATOM     12  C   ASN C  18     -73.682-209.387  80.708  1.00 21.33 LIG 0.24  C 
ATOM     13  N   PRO C  19     -73.197-208.444  79.884  1.00 20.66 LIG-0.34  N 
ATOM     14  CD  PRO C  19     -73.615-208.155  78.501  1.00 23.11 LIG 0.13  C 
ATOM     15  CA  PRO C  19     -72.022-207.656  80.266  1.00 23.26 LIG 0.18  C 
ATOM     16  CG  PRO C  19     -72.645-207.087  78.050  1.00 22.87 LIG 0.02  C 
ATOM     17  CB  PRO C  19     -71.442-207.242  78.915  1.00 23.39 LIG 0.04  C 
ATOM     18 O    ASN C  18     -73.169-209.638  81.798  1.00 23.13 LIG-0.27  OA
BRANCH 15 19
ATOM     19  C   PRO C  19     -72.361-206.420  81.100  1.00 24.54 LIG 0.24  C 
ATOM     20  N   PHE C  20     -71.858-206.362  82.330  1.00 23.51 LIG-0.34  N 
ATOM     21 H    PHE C  20     -71.272-206.912  82.637  1.00 23.51 LIG 0.16  HD
ATOM     22 O    PRO C  19     -73.072-205.534  80.618  1.00 27.52 LIG-0.27  OA
BRANCH 20 23
ATOM     23  CA  PHE C  20     -72.274-205.330  83.279  1.00 27.49 LIG 0.19  C 
BRANCH 23 24
ATOM     24  CB  PHE C  20     -72.328-205.930  84.684  1.00 22.62 LIG 0.07  C 
BRANCH 24 25
ATOM     25  CG  PHE C  20     -71.354-207.050  84.882  1.00 18.80 LIG-0.06  A 
ATOM     26  CD1 PHE C  20     -71.799-208.358  84.923  1.00 16.53 LIG 0.01  A 
ATOM     27  CE1 PHE C  20     -70.915-209.400  85.084  1.00 18.06 LIG 0.00  A 
ATOM     28  CZ  PHE C  20     -69.558-209.146  85.200  1.00 17.30 LIG 0.00  A 
ATOM     29  CE2 PHE C  20     -69.098-207.848  85.153  1.00 18.45 LIG 0.00  A 
ATOM     30  CD2 PHE C  20     -69.994-206.806  84.989  1.00 20.64 LIG 0.01  A 
ENDBRANCH 24 25
ENDBRANCH 23 24
BRANCH 23 31
ATOM     31  C   PHE C  20     -71.364-204.104  83.252  1.00 41.21 LIG 0.20  C 
ATOM     32 OXT  PHE C  20     -71.736-203.041  82.759  1.00 46.78 LIG-0.65  OA
ATOM     33 O    PHE C  20     -70.230-204.148  83.738  1.00 43.65 LIG-0.65  OA
ENDBRANCH 23 31
ENDBRANCH 20 23
ENDBRANCH 15 19
ENDBRANCH 5 12
ENDBRANCH 3 5
BRANCH 1 34
ATOM     34  CA  ASN C  17     -73.524-211.878  77.153  1.00 16.90 LIG 0.18  C 
BRANCH 34 35
ATOM     35  N   ASN C  17     -73.894-210.784  76.268  1.00 20.58 LIG-0.35  N 
ATOM     36  C   VAL C  16     -75.154-210.603  75.888  1.00 27.16 LIG 0.24  C 
ATOM     37 O    VAL C  16     -76.036-211.439  76.086  1.00 29.43 LIG-0.27  OA
ATOM     38 H    ASN C  17     -73.238-210.283  76.023  1.00 20.58 LIG 0.16  HD
BRANCH 36 39
ATOM     39  CA  VAL C  16     -75.468-209.294  75.166  1.00 33.54 LIG 0.18  C 
BRANCH 39 40
ATOM     40  CB  VAL C  16     -74.156-208.504  74.943  1.00 32.44 LIG 0.01  C 
ATOM     41  CG2 VAL C  16     -74.454-207.013  74.784  1.00 34.10 LIG 0.01  C 
ATOM     42  CG1 VAL C  16     -73.373-209.051  73.741  1.00 32.37 LIG 0.01  C 
ENDBRANCH 39 40
BRANCH 39 43
ATOM     43  N   VAL C  16     -76.429-208.495  75.917  1.00 45.58 LIG-0.34  N 
ATOM     44  C   GLN C  15     -77.526-207.994  75.361  1.00 57.61 LIG 0.26  C 
ATOM     45 O    GLN C  15     -77.830-208.188  74.183  1.00 61.53 LIG-0.27  OA
ATOM     46 H    VAL C  16     -76.220-208.380  76.744  1.00 45.58 LIG 0.16  HD
BRANCH 44 47
ATOM     47  CA  GLN C  15     -78.412-207.154  76.277  1.00 63.44 LIG 0.40  C 
ATOM     48  N   GLN C  15     -79.679-207.830  76.530  1.00 62.08 LIG 0.61  N 
BRANCH 47 49
ATOM     49  CB  GLN C  15     -77.690-206.867  77.592  1.00 68.54 LIG 0.06  C 
BRANCH 49 50
ATOM     50  CG  GLN C  15     -76.977-205.519  77.618  1.00 72.89 LIG 0.10  C 
BRANCH 50 51
ATOM     51  CD  GLN C  15     -77.157-204.703  76.349  1.00 75.77 LIG 0.21  C 
ATOM     52 OE1  GLN C  15     -76.588-205.012  75.303  1.00 77.61 LIG-0.27  OA
ATOM     53  NE2 GLN C  15     -77.954-203.645  76.443  1.00 76.03 LIG-0.37  N 
ATOM     54 22HE GLN C  15     -78.088-203.146  75.756  1.00 76.03 LIG 0.16  HD
ATOM     55 21HE GLN C  15     -78.335-203.460  77.191  1.00 76.03 LIG 0.16  HD
ENDBRANCH 50 51
ENDBRANCH 49 50
ENDBRANCH 47 49
ENDBRANCH 44 47
ENDBRANCH 39 43
ENDBRANCH 36 39
ENDBRANCH 34 35
BRANCH 34 56
ATOM     56  CB  ASN C  17     -72.115-212.389  76.839  1.00 15.63 LIG 0.14  C 
BRANCH 56 57
ATOM     57  CG  ASN C  17     -71.186-211.290  76.360  1.00 17.63 LIG 0.22  C 
ATOM     58 OD1  ASN C  17     -70.573-211.396  75.295  1.00 24.00 LIG-0.27  OA
ATOM     59  ND2 ASN C  17     -71.065-210.231  77.151  1.00 16.48 LIG-0.37  N 
ATOM     60 21HD ASN C  17     -70.542-209.585  76.928  1.00 16.48 LIG 0.16  HD
ATOM     61 22HD ASN C  17     -71.508-210.191  77.887  1.00 16.48 LIG 0.16  HD
ENDBRANCH 56 57
ENDBRANCH 34 56
ENDBRANCH 1 34
TORSDOF 20
ENDMDL
MODEL 54
USER: ADFR SOLUTION from run 78
USER: SCORE 16.525238 LL:  -3.946 LR: -13.236 RR:   0.000 FEB:  -7.270
USER: RMSD 10.329294
USER: SEED 77
USER: STATUS no improvement in best in 1 clusters for 5 generations
USER: GENES 22
USER: genes 0 Translation |==|  0.72994 0.57218 0.40831
USER: genes 1 Rotation |==|  0.83405 0.77748 0.69738 0.64985
USER: genes 2 Torsion [C]-N--CA-[CB] |==|  0.15743
USER: genes 3 Torsion [N]-CA--CB-[CG] |==|  0.17859
USER: genes 4 Torsion [CA]-CB--CG-[OD1] |==|  0.28743
USER: genes 5 Torsion [N]-CA--C-[N] |==|  0.11560
USER: genes 6 Torsion [N]-CA--C-[O] |==|  0.34162
USER: genes 7 Torsion [C]-N--CA-[CB] |==|  0.36147
USER: genes 8 Torsion [N]-CA--CB-[CG] |==|  0.94010
USER: genes 9 Torsion [CA]-CB--CG-[CD1] |==|  0.81242
USER: genes 10 Torsion [N]-CA--C-[O] |==|  0.80141
USER: genes 11 Torsion [N]-C--CA-[N] |==|  0.34528
USER: genes 12 Torsion [C]-CA--N-[C] |==|  0.79654
USER: genes 13 Torsion [N]-C--CA-[N] |==|  0.84678
USER: genes 14 Torsion [C]-CA--CB-[CG2] |==|  0.08415
USER: genes 15 Torsion [C]-CA--N-[C] |==|  0.62994
USER: genes 16 Torsion [N]-C--CA-[N] |==|  0.60939
USER: genes 17 Torsion [C]-CA--CB-[CG] |==|  0.45317
USER: genes 18 Torsion [CA]-CB--CG-[CD] |==|  0.68778
USER: genes 19 Torsion [CB]-CG--CD-[OE1] |==|  0.68430
USER: genes 20 Torsion [C]-CA--CB-[CG] |==|  0.86852
USER: genes 21 Torsion [CA]-CB--CG-[OD1] |==|  0.76426
ROOT
ATOM      1  C   ASN C  17     -73.259-208.438  80.549  1.00 20.61 LIG 0.24  C 
ATOM      2 O    ASN C  17     -74.200-207.816  80.058  1.00 16.51 LIG-0.27  OA
ATOM      3  N   ASN C  18     -73.273-208.932  81.785  1.00 22.51 LIG-0.35  N 
ATOM      4 H    ASN C  18     -72.603-209.334  82.145  1.00 22.51 LIG 0.16  HD
ENDROOT
BRANCH 3 5
ATOM      5  CA  ASN C  18     -74.444-208.832  82.649  1.00 19.22 LIG 0.18  C 
BRANCH 5 6
ATOM      6  CB  ASN C  18     -75.659-209.465  81.965  1.00 16.89 LIG 0.14  C 
BRANCH 6 7
ATOM      7  CG  ASN C  18     -75.492-210.955  81.742  1.00 20.14 LIG 0.22  C 
ATOM      8  ND2 ASN C  18     -74.716-211.317  80.726  1.00 20.12 LIG-0.37  N 
ATOM      9 22HD ASN C  18     -74.332-210.718  80.243  1.00 20.12 LIG 0.16  HD
ATOM     10 21HD ASN C  18     -74.599-212.151  80.551  1.00 20.12 LIG 0.16  HD
ATOM     11 OD1  ASN C  18     -76.066-211.771  82.464  1.00 18.28 LIG-0.27  OA
ENDBRANCH 6 7
ENDBRANCH 5 6
BRANCH 5 12
ATOM     12  C   ASN C  18     -74.210-209.497  84.009  1.00 21.33 LIG 0.24  C 
ATOM     13  N   PRO C  19     -73.017-209.301  84.593  1.00 20.66 LIG-0.34  N 
ATOM     14  CD  PRO C  19     -71.827-208.649  84.016  1.00 23.11 LIG 0.13  C 
ATOM     15  CA  PRO C  19     -72.725-209.890  85.903  1.00 23.26 LIG 0.18  C 
ATOM     16  CG  PRO C  19     -70.770-208.828  85.082  1.00 22.87 LIG 0.02  C 
ATOM     17  CB  PRO C  19     -71.202-210.005  85.887  1.00 23.39 LIG 0.04  C 
ATOM     18 O    ASN C  18     -75.096-210.176  84.527  1.00 23.13 LIG-0.27  OA
BRANCH 15 19
ATOM     19  C   PRO C  19     -73.180-209.024  87.077  1.00 24.54 LIG 0.24  C 
ATOM     20  N   PHE C  20     -72.702-207.784  87.137  1.00 23.51 LIG-0.34  N 
ATOM     21 H    PHE C  20     -72.251-207.412  86.506  1.00 23.51 LIG 0.16  HD
ATOM     22 O    PRO C  19     -73.959-209.488  87.913  1.00 27.52 LIG-0.27  OA
BRANCH 20 23
ATOM     23  CA  PHE C  20     -72.911-206.938  88.311  1.00 27.49 LIG 0.19  C 
BRANCH 23 24
ATOM     24  CB  PHE C  20     -71.573-206.342  88.749  1.00 22.62 LIG 0.07  C 
BRANCH 24 25
ATOM     25  CG  PHE C  20     -70.394-207.123  88.255  1.00 18.80 LIG-0.06  A 
ATOM     26  CD1 PHE C  20     -70.154-208.396  88.737  1.00 16.53 LIG 0.01  A 
ATOM     27  CE1 PHE C  20     -69.086-209.134  88.280  1.00 18.06 LIG 0.00  A 
ATOM     28  CZ  PHE C  20     -68.239-208.606  87.319  1.00 17.30 LIG 0.00  A 
ATOM     29  CE2 PHE C  20     -68.470-207.342  86.823  1.00 18.45 LIG 0.00  A 
ATOM     30  CD2 PHE C  20     -69.547-206.606  87.288  1.00 20.64 LIG 0.01  A 
ENDBRANCH 24 25
ENDBRANCH 23 24
BRANCH 23 31
ATOM     31  C   PHE C  20     -73.937-205.835  88.066  1.00 41.21 LIG 0.20  C 
ATOM     32 OXT  PHE C  20     -75.049-205.865  88.594  1.00 46.78 LIG-0.65  OA
ATOM     33 O    PHE C  20     -73.672-204.874  87.338  1.00 43.65 LIG-0.65  OA
ENDBRANCH 23 31
ENDBRANCH 20 23
ENDBRANCH 15 19
ENDBRANCH 5 12
ENDBRANCH 3 5
BRANCH 1 34
ATOM     34  CA  ASN C  17     -72.000-208.699  79.733  1.00 16.90 LIG 0.18  C 
BRANCH 34 35
ATOM     35  N   ASN C  17     -72.382-209.360  78.494  1.00 20.58 LIG-0.35  N 
ATOM     36  C   VAL C  16     -72.765-210.633  78.484  1.00 27.16 LIG 0.24  C 
ATOM     37 O    VAL C  16     -72.635-211.376  79.456  1.00 29.43 LIG-0.27  OA
ATOM     38 H    ASN C  17     -72.337-208.863  77.793  1.00 20.58 LIG 0.16  HD
BRANCH 36 39
ATOM     39  CA  VAL C  16     -73.375-211.150  77.183  1.00 33.54 LIG 0.18  C 
BRANCH 39 40
ATOM     40  CB  VAL C  16     -72.286-211.184  76.084  1.00 32.44 LIG 0.01  C 
ATOM     41  CG2 VAL C  16     -70.912-211.438  76.704  1.00 34.10 LIG 0.01  C 
ATOM     42  CG1 VAL C  16     -72.296-209.896  75.249  1.00 32.37 LIG 0.01  C 
ENDBRANCH 39 40
BRANCH 39 43
ATOM     43  N   VAL C  16     -74.503-210.327  76.765  1.00 45.58 LIG-0.34  N 
ATOM     44  C   GLN C  15     -75.659-210.850  76.372  1.00 57.61 LIG 0.26  C 
ATOM     45 O    GLN C  15     -75.876-212.063  76.357  1.00 61.53 LIG-0.27  OA
ATOM     46 H    VAL C  16     -74.351-209.481  76.796  1.00 45.58 LIG 0.16  HD
BRANCH 44 47
ATOM     47  CA  GLN C  15     -76.728-209.852  75.937  1.00 63.44 LIG 0.40  C 
ATOM     48  N   GLN C  15     -78.045-210.271  76.402  1.00 62.08 LIG 0.61  N 
BRANCH 47 49
ATOM     49  CB  GLN C  15     -76.395-208.458  76.466  1.00 68.54 LIG 0.06  C 
BRANCH 49 50
ATOM     50  CG  GLN C  15     -77.156-207.338  75.765  1.00 72.89 LIG 0.10  C 
BRANCH 50 51
ATOM     51  CD  GLN C  15     -76.275-206.427  74.927  1.00 75.77 LIG 0.21  C 
ATOM     52 OE1  GLN C  15     -76.105-205.246  75.228  1.00 77.61 LIG-0.27  OA
ATOM     53  NE2 GLN C  15     -75.713-206.980  73.858  1.00 76.03 LIG-0.37  N 
ATOM     54 22HE GLN C  15     -75.208-206.509  73.346  1.00 76.03 LIG 0.16  HD
ATOM     55 21HE GLN C  15     -75.855-207.809  73.679  1.00 76.03 LIG 0.16  HD
ENDBRANCH 50 51
ENDBRANCH 49 50
ENDBRANCH 47 49
ENDBRANCH 44 47
ENDBRANCH 39 43
ENDBRANCH 36 39
ENDBRANCH 34 35
BRANCH 34 56
ATOM     56  CB  ASN C  17     -71.252-207.393  79.453  1.00 15.63 LIG 0.14  C 
BRANCH 56 57
ATOM     57  CG  ASN C  17     -72.166-206.289  78.955  1.00 17.63 LIG 0.22  C 
ATOM     58 OD1  ASN C  17     -72.454-206.195  77.760  1.00 24.00 LIG-0.27  OA
ATOM     59  ND2 ASN C  17     -72.617-205.437  79.868  1.00 16.48 LIG-0.37  N 
ATOM     60 21HD ASN C  17     -73.130-204.788  79.634  1.00 16.48 LIG 0.16  HD
ATOM     61 22HD ASN C  17     -72.394-205.534  80.694  1.00 16.48 LIG 0.16  HD
ENDBRANCH 56 57
ENDBRANCH 34 56
ENDBRANCH 1 34
TORSDOF 20
ENDMDL
MODEL 55
USER: ADFR SOLUTION from run 176
USER: SCORE 16.609596 LL:  -4.701 LR: -13.240 RR:   0.000 FEB:  -7.274
USER: RMSD 6.550871
USER: SEED 175
USER: STATUS no improvement in best in 3 clusters for 5 generations
USER: GENES 22
USER: genes 0 Translation |==|  0.62339 0.44947 0.39592
USER: genes 1 Rotation |==|  0.22866 0.33233 0.65118 0.85412
USER: genes 2 Torsion [C]-N--CA-[CB] |==|  0.50639
USER: genes 3 Torsion [N]-CA--CB-[CG] |==|  0.43363
USER: genes 4 Torsion [CA]-CB--CG-[OD1] |==|  0.20830
USER: genes 5 Torsion [N]-CA--C-[N] |==|  0.85428
USER: genes 6 Torsion [N]-CA--C-[O] |==|  0.67237
USER: genes 7 Torsion [C]-N--CA-[CB] |==|  0.81068
USER: genes 8 Torsion [N]-CA--CB-[CG] |==|  0.68989
USER: genes 9 Torsion [CA]-CB--CG-[CD1] |==|  0.42885
USER: genes 10 Torsion [N]-CA--C-[O] |==|  0.19669
USER: genes 11 Torsion [N]-C--CA-[N] |==|  0.45507
USER: genes 12 Torsion [C]-CA--N-[C] |==|  0.75589
USER: genes 13 Torsion [N]-C--CA-[N] |==|  0.42634
USER: genes 14 Torsion [C]-CA--CB-[CG2] |==|  0.52972
USER: genes 15 Torsion [C]-CA--N-[C] |==|  0.82778
USER: genes 16 Torsion [N]-C--CA-[N] |==|  0.37120
USER: genes 17 Torsion [C]-CA--CB-[CG] |==|  0.10307
USER: genes 18 Torsion [CA]-CB--CG-[CD] |==|  0.43208
USER: genes 19 Torsion [CB]-CG--CD-[OE1] |==|  0.51006
USER: genes 20 Torsion [C]-CA--CB-[CG] |==|  0.20213
USER: genes 21 Torsion [CA]-CB--CG-[OD1] |==|  0.05684
ROOT
ATOM      1  C   ASN C  17     -75.497-210.279  80.242  1.00 20.61 LIG 0.24  C 
ATOM      2 O    ASN C  17     -74.738-210.461  81.193  1.00 16.51 LIG-0.27  OA
ATOM      3  N   ASN C  18     -75.184-210.586  78.985  1.00 22.51 LIG-0.35  N 
ATOM      4 H    ASN C  18     -75.697-210.426  78.313  1.00 22.51 LIG 0.16  HD
ENDROOT
BRANCH 3 5
ATOM      5  CA  ASN C  18     -73.925-211.233  78.633  1.00 19.22 LIG 0.18  C 
BRANCH 5 6
ATOM      6  CB  ASN C  18     -73.827-211.406  77.114  1.00 16.89 LIG 0.14  C 
BRANCH 6 7
ATOM      7  CG  ASN C  18     -72.394-211.516  76.631  1.00 20.14 LIG 0.22  C 
ATOM      8  ND2 ASN C  18     -71.897-210.452  76.009  1.00 20.12 LIG-0.37  N 
ATOM      9 22HD ASN C  18     -72.380-209.747  75.910  1.00 20.12 LIG 0.16  HD
ATOM     10 21HD ASN C  18     -71.092-210.468  75.706  1.00 20.12 LIG 0.16  HD
ATOM     11 OD1  ASN C  18     -71.747-212.550  76.800  1.00 18.28 LIG-0.27  OA
ENDBRANCH 6 7
ENDBRANCH 5 6
BRANCH 5 12
ATOM     12  C   ASN C  18     -72.715-210.445  79.143  1.00 21.33 LIG 0.24  C 
ATOM     13  N   PRO C  19     -72.650-209.142  78.823  1.00 20.66 LIG-0.34  N 
ATOM     14  CD  PRO C  19     -73.524-208.396  77.899  1.00 23.11 LIG 0.13  C 
ATOM     15  CA  PRO C  19     -71.532-208.316  79.289  1.00 23.26 LIG 0.18  C 
ATOM     16  CG  PRO C  19     -72.902-207.020  77.851  1.00 22.87 LIG 0.02  C 
ATOM     17  CB  PRO C  19     -71.476-207.207  78.241  1.00 23.39 LIG 0.04  C 
ATOM     18 O    ASN C  18     -71.851-211.002  79.820  1.00 23.13 LIG-0.27  OA
BRANCH 15 19
ATOM     19  C   PRO C  19     -71.750-207.723  80.681  1.00 24.54 LIG 0.24  C 
ATOM     20  N   PHE C  20     -71.887-208.579  81.690  1.00 23.51 LIG-0.34  N 
ATOM     21 H    PHE C  20     -71.749-209.425  81.624  1.00 23.51 LIG 0.16  HD
ATOM     22 O    PRO C  19     -71.789-206.498  80.823  1.00 27.52 LIG-0.27  OA
BRANCH 20 23
ATOM     23  CA  PHE C  20     -72.293-208.133  83.022  1.00 27.49 LIG 0.19  C 
BRANCH 23 24
ATOM     24  CB  PHE C  20     -71.175-207.290  83.634  1.00 22.62 LIG 0.07  C 
BRANCH 24 25
ATOM     25  CG  PHE C  20     -70.509-207.956  84.799  1.00 18.80 LIG-0.06  A 
ATOM     26  CD1 PHE C  20     -69.207-207.635  85.132  1.00 16.53 LIG 0.01  A 
ATOM     27  CE1 PHE C  20     -68.588-208.223  86.211  1.00 18.06 LIG 0.00  A 
ATOM     28  CZ  PHE C  20     -69.273-209.146  86.984  1.00 17.30 LIG 0.00  A 
ATOM     29  CE2 PHE C  20     -70.574-209.471  86.670  1.00 18.45 LIG 0.00  A 
ATOM     30  CD2 PHE C  20     -71.190-208.873  85.584  1.00 20.64 LIG 0.01  A 
ENDBRANCH 24 25
ENDBRANCH 23 24
BRANCH 23 31
ATOM     31  C   PHE C  20     -73.607-207.356  83.007  1.00 41.21 LIG 0.20  C 
ATOM     32 OXT  PHE C  20     -73.635-206.141  83.201  1.00 46.78 LIG-0.65  OA
ATOM     33 O    PHE C  20     -74.678-207.928  82.786  1.00 43.65 LIG-0.65  OA
ENDBRANCH 23 31
ENDBRANCH 20 23
ENDBRANCH 15 19
ENDBRANCH 5 12
ENDBRANCH 3 5
BRANCH 1 34
ATOM     34  CA  ASN C  17     -76.884-209.692  80.467  1.00 16.90 LIG 0.18  C 
BRANCH 34 35
ATOM     35  N   ASN C  17     -77.197-209.778  81.885  1.00 20.58 LIG-0.35  N 
ATOM     36  C   VAL C  16     -77.768-210.863  82.398  1.00 27.16 LIG 0.24  C 
ATOM     37 O    VAL C  16     -78.243-211.759  81.700  1.00 29.43 LIG-0.27  OA
ATOM     38 H    ASN C  17     -76.983-209.082  82.343  1.00 20.58 LIG 0.16  HD
BRANCH 36 39
ATOM     39  CA  VAL C  16     -77.826-210.947  83.921  1.00 33.54 LIG 0.18  C 
BRANCH 39 40
ATOM     40  CB  VAL C  16     -76.489-211.511  84.456  1.00 32.44 LIG 0.01  C 
ATOM     41  CG2 VAL C  16     -76.611-211.854  85.941  1.00 34.10 LIG 0.01  C 
ATOM     42  CG1 VAL C  16     -75.330-210.538  84.198  1.00 32.37 LIG 0.01  C 
ENDBRANCH 39 40
BRANCH 39 43
ATOM     43  N   VAL C  16     -78.946-211.771  84.362  1.00 45.58 LIG-0.34  N 
ATOM     44  C   GLN C  15     -80.208-211.456  84.098  1.00 57.61 LIG 0.26  C 
ATOM     45 O    GLN C  15     -80.529-210.466  83.439  1.00 61.53 LIG-0.27  OA
ATOM     46 H    VAL C  16     -78.713-212.471  84.805  1.00 45.58 LIG 0.16  HD
BRANCH 44 47
ATOM     47  CA  GLN C  15     -81.263-212.407  84.657  1.00 63.44 LIG 0.40  C 
ATOM     48  N   GLN C  15     -82.340-211.663  85.301  1.00 62.08 LIG 0.61  N 
BRANCH 47 49
ATOM     49  CB  GLN C  15     -81.819-213.292  83.543  1.00 68.54 LIG 0.06  C 
BRANCH 49 50
ATOM     50  CG  GLN C  15     -80.772-213.718  82.518  1.00 72.89 LIG 0.10  C 
BRANCH 50 51
ATOM     51  CD  GLN C  15     -81.118-215.002  81.785  1.00 75.77 LIG 0.21  C 
ATOM     52 OE1  GLN C  15     -80.339-215.507  80.976  1.00 77.61 LIG-0.27  OA
ATOM     53  NE2 GLN C  15     -82.300-215.536  82.065  1.00 76.03 LIG-0.37  N 
ATOM     54 22HE GLN C  15     -82.548-216.261  81.675  1.00 76.03 LIG 0.16  HD
ATOM     55 21HE GLN C  15     -82.819-215.155  82.636  1.00 76.03 LIG 0.16  HD
ENDBRANCH 50 51
ENDBRANCH 49 50
ENDBRANCH 47 49
ENDBRANCH 44 47
ENDBRANCH 39 43
ENDBRANCH 36 39
ENDBRANCH 34 35
BRANCH 34 56
ATOM     56  CB  ASN C  17     -76.948-208.243  79.975  1.00 15.63 LIG 0.14  C 
BRANCH 56 57
ATOM     57  CG  ASN C  17     -76.951-208.138  78.462  1.00 17.63 LIG 0.22  C 
ATOM     58 OD1  ASN C  17     -77.278-209.097  77.759  1.00 24.00 LIG-0.27  OA
ATOM     59  ND2 ASN C  17     -76.573-206.973  77.949  1.00 16.48 LIG-0.37  N 
ATOM     60 21HD ASN C  17     -76.549-206.867  77.096  1.00 16.48 LIG 0.16  HD
ATOM     61 22HD ASN C  17     -76.351-206.326  78.470  1.00 16.48 LIG 0.16  HD
ENDBRANCH 56 57
ENDBRANCH 34 56
ENDBRANCH 1 34
TORSDOF 20
ENDMDL
MODEL 56
USER: ADFR SOLUTION from run 144
USER: SCORE 17.115844 LL:  -4.292 LR: -13.231 RR:   0.000 FEB:  -7.265
USER: RMSD 10.955899
USER: SEED 143
USER: STATUS no improvement in best in 4 clusters for 5 generations
USER: GENES 22
USER: genes 0 Translation |==|  0.75117 0.57496 0.44143
USER: genes 1 Rotation |==|  0.71612 0.92764 0.64029 0.52719
USER: genes 2 Torsion [C]-N--CA-[CB] |==|  0.54444
USER: genes 3 Torsion [N]-CA--CB-[CG] |==|  0.73256
USER: genes 4 Torsion [CA]-CB--CG-[OD1] |==|  0.77024
USER: genes 5 Torsion [N]-CA--C-[N] |==|  0.37308
USER: genes 6 Torsion [N]-CA--C-[O] |==|  0.39876
USER: genes 7 Torsion [C]-N--CA-[CB] |==|  0.28373
USER: genes 8 Torsion [N]-CA--CB-[CG] |==|  0.73081
USER: genes 9 Torsion [CA]-CB--CG-[CD1] |==|  0.67811
USER: genes 10 Torsion [N]-CA--C-[O] |==|  0.71487
USER: genes 11 Torsion [N]-C--CA-[N] |==|  0.39823
USER: genes 12 Torsion [C]-CA--N-[C] |==|  0.80776
USER: genes 13 Torsion [N]-C--CA-[N] |==|  0.94167
USER: genes 14 Torsion [C]-CA--CB-[CG2] |==|  0.13971
USER: genes 15 Torsion [C]-CA--N-[C] |==|  0.81142
USER: genes 16 Torsion [N]-C--CA-[N] |==|  0.62732
USER: genes 17 Torsion [C]-CA--CB-[CG] |==|  0.79460
USER: genes 18 Torsion [CA]-CB--CG-[CD] |==|  0.53188
USER: genes 19 Torsion [CB]-CG--CD-[OE1] |==|  0.31940
USER: genes 20 Torsion [C]-CA--CB-[CG] |==|  0.55080
USER: genes 21 Torsion [CA]-CB--CG-[OD1] |==|  0.20732
ROOT
ATOM      1  C   ASN C  17     -72.813-208.397  81.368  1.00 20.61 LIG 0.24  C 
ATOM      2 O    ASN C  17     -73.988-208.761  81.349  1.00 16.51 LIG-0.27  OA
ATOM      3  N   ASN C  18     -72.082-208.339  82.479  1.00 22.51 LIG-0.35  N 
ATOM      4 H    ASN C  18     -71.273-208.048  82.502  1.00 22.51 LIG 0.16  HD
ENDROOT
BRANCH 3 5
ATOM      5  CA  ASN C  18     -72.599-208.770  83.773  1.00 19.22 LIG 0.18  C 
BRANCH 5 6
ATOM      6  CB  ASN C  18     -71.714-208.231  84.901  1.00 16.89 LIG 0.14  C 
BRANCH 6 7
ATOM      7  CG  ASN C  18     -70.681-209.239  85.365  1.00 20.14 LIG 0.22  C 
ATOM      8  ND2 ASN C  18     -69.468-209.130  84.836  1.00 20.12 LIG-0.37  N 
ATOM      9 22HD ASN C  18     -69.300-208.504  84.271  1.00 20.12 LIG 0.16  HD
ATOM     10 21HD ASN C  18     -68.850-209.686  85.059  1.00 20.12 LIG 0.16  HD
ATOM     11 OD1  ASN C  18     -70.976-210.117  86.178  1.00 18.28 LIG-0.27  OA
ENDBRANCH 6 7
ENDBRANCH 5 6
BRANCH 5 12
ATOM     12  C   ASN C  18     -74.046-208.319  83.991  1.00 21.33 LIG 0.24  C 
ATOM     13  N   PRO C  19     -74.909-209.228  84.474  1.00 20.66 LIG-0.34  N 
ATOM     14  CD  PRO C  19     -74.678-210.669  84.677  1.00 23.11 LIG 0.13  C 
ATOM     15  CA  PRO C  19     -76.307-208.866  84.726  1.00 23.26 LIG 0.18  C 
ATOM     16  CG  PRO C  19     -76.026-211.187  85.124  1.00 22.87 LIG 0.02  C 
ATOM     17  CB  PRO C  19     -77.026-210.208  84.610  1.00 23.39 LIG 0.04  C 
ATOM     18 O    ASN C  18     -74.381-207.164  83.730  1.00 23.13 LIG-0.27  OA
BRANCH 15 19
ATOM     19  C   PRO C  19     -76.540-208.255  86.107  1.00 24.54 LIG 0.24  C 
ATOM     20  N   PHE C  20     -75.822-208.744  87.115  1.00 23.51 LIG-0.34  N 
ATOM     21 H    PHE C  20     -75.167-209.292  87.017  1.00 23.51 LIG 0.16  HD
ATOM     22 O    PRO C  19     -77.365-207.348  86.243  1.00 27.52 LIG-0.27  OA
BRANCH 20 23
ATOM     23  CA  PHE C  20     -76.100-208.375  88.503  1.00 27.49 LIG 0.19  C 
BRANCH 23 24
ATOM     24  CB  PHE C  20     -76.862-209.512  89.183  1.00 22.62 LIG 0.07  C 
BRANCH 24 25
ATOM     25  CG  PHE C  20     -78.345-209.298  89.198  1.00 18.80 LIG-0.06  A 
ATOM     26  CD1 PHE C  20     -79.012-209.142  90.398  1.00 16.53 LIG 0.01  A 
ATOM     27  CE1 PHE C  20     -80.371-208.926  90.428  1.00 18.06 LIG 0.00  A 
ATOM     28  CZ  PHE C  20     -81.087-208.853  89.244  1.00 17.30 LIG 0.00  A 
ATOM     29  CE2 PHE C  20     -80.435-208.998  88.039  1.00 18.45 LIG 0.00  A 
ATOM     30  CD2 PHE C  20     -79.067-209.214  88.018  1.00 20.64 LIG 0.01  A 
ENDBRANCH 24 25
ENDBRANCH 23 24
BRANCH 23 31
ATOM     31  C   PHE C  20     -74.835-208.031  89.285  1.00 41.21 LIG 0.20  C 
ATOM     32 OXT  PHE C  20     -74.278-206.941  89.155  1.00 46.78 LIG-0.65  OA
ATOM     33 O    PHE C  20     -74.344-208.837  90.080  1.00 43.65 LIG-0.65  OA
ENDBRANCH 23 31
ENDBRANCH 20 23
ENDBRANCH 15 19
ENDBRANCH 5 12
ENDBRANCH 3 5
BRANCH 1 34
ATOM     34  CA  ASN C  17     -72.110-207.999  80.078  1.00 16.90 LIG 0.18  C 
BRANCH 34 35
ATOM     35  N   ASN C  17     -72.594-208.856  79.006  1.00 20.58 LIG-0.35  N 
ATOM     36  C   VAL C  16     -72.288-210.149  78.969  1.00 27.16 LIG 0.24  C 
ATOM     37 O    VAL C  16     -71.437-210.653  79.701  1.00 29.43 LIG-0.27  OA
ATOM     38 H    ASN C  17     -73.080-208.457  78.419  1.00 20.58 LIG 0.16  HD
BRANCH 36 39
ATOM     39  CA  VAL C  16     -73.042-210.999  77.949  1.00 33.54 LIG 0.18  C 
BRANCH 39 40
ATOM     40  CB  VAL C  16     -72.135-211.254  76.722  1.00 32.44 LIG 0.01  C 
ATOM     41  CG2 VAL C  16     -70.768-211.771  77.170  1.00 34.10 LIG 0.01  C 
ATOM     42  CG1 VAL C  16     -72.002-209.994  75.855  1.00 32.37 LIG 0.01  C 
ENDBRANCH 39 40
BRANCH 39 43
ATOM     43  N   VAL C  16     -74.287-210.356  77.545  1.00 45.58 LIG-0.34  N 
ATOM     44  C   GLN C  15     -75.310-210.201  78.377  1.00 57.61 LIG 0.26  C 
ATOM     45 O    GLN C  15     -75.278-210.560  79.555  1.00 61.53 LIG-0.27  OA
ATOM     46 H    VAL C  16     -74.295-210.090  76.727  1.00 45.58 LIG 0.16  HD
BRANCH 44 47
ATOM     47  CA  GLN C  15     -76.552-209.536  77.788  1.00 63.44 LIG 0.40  C 
ATOM     48  N   GLN C  15     -77.065-208.511  78.690  1.00 62.08 LIG 0.61  N 
BRANCH 47 49
ATOM     49  CB  GLN C  15     -76.229-208.931  76.423  1.00 68.54 LIG 0.06  C 
BRANCH 49 50
ATOM     50  CG  GLN C  15     -75.397-207.655  76.499  1.00 72.89 LIG 0.10  C 
BRANCH 50 51
ATOM     51  CD  GLN C  15     -75.305-206.902  75.183  1.00 75.77 LIG 0.21  C 
ATOM     52 OE1  GLN C  15     -75.794-205.780  75.052  1.00 77.61 LIG-0.27  OA
ATOM     53  NE2 GLN C  15     -74.677-207.527  74.194  1.00 76.03 LIG-0.37  N 
ATOM     54 22HE GLN C  15     -74.600-207.148  73.427  1.00 76.03 LIG 0.16  HD
ATOM     55 21HE GLN C  15     -74.348-208.311  74.322  1.00 76.03 LIG 0.16  HD
ENDBRANCH 50 51
ENDBRANCH 49 50
ENDBRANCH 47 49
ENDBRANCH 44 47
ENDBRANCH 39 43
ENDBRANCH 36 39
ENDBRANCH 34 35
BRANCH 34 56
ATOM     56  CB  ASN C  17     -72.356-206.522  79.757  1.00 15.63 LIG 0.14  C 
BRANCH 56 57
ATOM     57  CG  ASN C  17     -72.071-206.183  78.306  1.00 17.63 LIG 0.22  C 
ATOM     58 OD1  ASN C  17     -72.848-206.521  77.410  1.00 24.00 LIG-0.27  OA
ATOM     59  ND2 ASN C  17     -70.944-205.524  78.063  1.00 16.48 LIG-0.37  N 
ATOM     60 21HD ASN C  17     -70.732-205.317  77.256  1.00 16.48 LIG 0.16  HD
ATOM     61 22HD ASN C  17     -70.426-205.304  78.713  1.00 16.48 LIG 0.16  HD
ENDBRANCH 56 57
ENDBRANCH 34 56
ENDBRANCH 1 34
TORSDOF 20
ENDMDL
