MODEL 1
USER: ADFR SOLUTION from run 185
USER: SCORE 14.311931 LL:  -2.564 LR: -14.157 RR:   0.000 FEB:  -8.191
USER: RMSD 4.112725
USER: SEED 184
USER: STATUS 1 or 2 clusters left
USER: GENES 22
USER: genes 0 Translation |==|  0.45628 0.54746 0.59045
USER: genes 1 Rotation |==|  0.32491 0.23446 0.44449 0.88177
USER: genes 2 Torsion [CB]-CA--N-[C] |==|  0.84444
USER: genes 3 Torsion [N]-C--CA-[N] |==|  0.64559
USER: genes 4 Torsion [C]-CA--N-[C] |==|  0.27359
USER: genes 5 Torsion [N]-C--CA-[N] |==|  0.59395
USER: genes 6 Torsion [C]-CA--N-[C] |==|  0.68326
USER: genes 7 Torsion [N]-C--CA-[N] |==|  0.34837
USER: genes 8 Torsion [C]-CA--CB-[OG] |==|  0.47405
USER: genes 9 Torsion [CA]-CB--OG-[HG] |==|  0.27865
USER: genes 10 Torsion [C]-CA--CB-[OG] |==|  0.66686
USER: genes 11 Torsion [CA]-CB--OG-[HG] |==|  0.81654
USER: genes 12 Torsion [N]-CA--C-[N] |==|  0.12673
USER: genes 13 Torsion [C]-N--CA-[C] |==|  0.79724
USER: genes 14 Torsion [N]-CA--C-[N] |==|  0.43434
USER: genes 15 Torsion [C]-N--CA-[CB] |==|  0.31611
USER: genes 16 Torsion [N]-CA--CB-[CG] |==|  0.89413
USER: genes 17 Torsion [CA]-CB--CG-[CD1] |==|  0.52596
USER: genes 18 Torsion [N]-CA--C-[O] |==|  0.39521
USER: genes 19 Torsion [N]-CA--CB-[CG] |==|  0.56920
USER: genes 20 Torsion [CA]-CB--CG-[OD2] |==|  0.00510
USER: genes 21 Torsion [N]-CA--CB-[CG2] |==|  0.86523
ROOT
ATOM      1  CA  VAL B  11      32.093  20.730  52.105  1.00 37.38 LIG 0.18  C 
ENDROOT
BRANCH 1 2
ATOM      2  N   VAL B  11      31.918  19.649  51.139  1.00 31.05 LIG-0.35  N 
ATOM      3  C   GLY B  10      32.423  18.439  51.365  1.00 33.93 LIG 0.24  C 
ATOM      4 O    GLY B  10      33.028  18.145  52.397  1.00 34.12 LIG-0.27  OA
ATOM      5 H    VAL B  11      31.472  19.864  50.436  1.00 31.05 LIG 0.16  HD
BRANCH 3 6
ATOM      6  CA  GLY B  10      32.230  17.401  50.278  1.00 30.55 LIG 0.23  C 
BRANCH 6 7
ATOM      7  N   GLY B  10      31.643  16.199  50.840  1.00 34.58 LIG-0.35  N 
ATOM      8  C   SER B   9      30.339  15.952  50.756  1.00 38.05 LIG 0.24  C 
ATOM      9 O    SER B   9      29.534  16.753  50.294  1.00 29.17 LIG-0.27  OA
ATOM     10 H    GLY B  10      32.207  15.674  51.223  1.00 34.58 LIG 0.16  HD
BRANCH 8 11
ATOM     11  CA  SER B   9      29.874  14.596  51.271  1.00 34.70 LIG 0.20  C 
BRANCH 11 12
ATOM     12  N   SER B   9      28.745  14.078  50.501  1.00 35.55 LIG-0.34  N 
ATOM     13  C   SER B   8      27.546  13.928  51.052  1.00 40.46 LIG 0.26  C 
ATOM     14 O    SER B   8      27.297  14.275  52.207  1.00 45.68 LIG-0.27  OA
ATOM     15 H    SER B   9      28.928  13.887  49.683  1.00 35.55 LIG 0.16  HD
BRANCH 13 16
ATOM     16  CA  SER B   8      26.455  13.323  50.164  1.00 36.95 LIG 0.42  C 
ATOM     17  N   SER B   8      25.829  12.146  50.775  1.00 41.16 LIG 0.62  N 
BRANCH 16 18
ATOM     18  CB  SER B   8      25.410  14.395  49.858  1.00 41.03 LIG 0.21  C 
BRANCH 18 19
ATOM     19 OG   SER B   8      24.479  13.980  48.873  1.00 28.13 LIG-0.40  OA
ATOM     20 HG   SER B   8      23.768  13.733  49.245  1.00 28.13 LIG 0.21  HD
ENDBRANCH 18 19
ENDBRANCH 16 18
ENDBRANCH 13 16
ENDBRANCH 11 12
BRANCH 11 21
ATOM     21  CB  SER B   9      31.038  13.608  51.229  1.00 39.19 LIG 0.20  C 
BRANCH 21 22
ATOM     22 OG   SER B   9      30.727  12.506  50.388  1.00 46.55 LIG-0.40  OA
ATOM     23 HG   SER B   9      30.098  12.064  50.727  1.00 46.55 LIG 0.21  HD
ENDBRANCH 21 22
ENDBRANCH 11 21
ENDBRANCH 8 11
ENDBRANCH 6 7
ENDBRANCH 3 6
ENDBRANCH 1 2
BRANCH 1 24
ATOM     24  C   VAL B  11      33.562  21.165  52.214  1.00 38.72 LIG 0.24  C 
ATOM     25 O    VAL B  11      34.100  21.320  53.313  1.00 29.21 LIG-0.27  OA
ATOM     26  N   ASP B  12      34.221  21.335  51.071  1.00 41.61 LIG-0.34  N 
ATOM     27 H    ASP B  12      33.924  21.105  50.298  1.00 41.61 LIG 0.16  HD
BRANCH 26 28
ATOM     28  CA  ASP B  12      35.542  21.949  51.065  1.00 41.44 LIG 0.19  C 
BRANCH 28 29
ATOM     29  C   ASP B  12      35.431  23.448  51.333  1.00 45.77 LIG 0.24  C 
ATOM     30 O    ASP B  12      34.376  24.049  51.112  1.00 50.52 LIG-0.27  OA
ATOM     31  N   LEU B  13      36.521  24.030  51.831  1.00 51.98 LIG-0.35  N 
ATOM     32 H    LEU B  13      37.224  23.590  52.060  1.00 51.98 LIG 0.16  HD
BRANCH 31 33
ATOM     33  CA  LEU B  13      36.640  25.472  52.040  1.00 53.13 LIG 0.16  C 
BRANCH 33 34
ATOM     34  CB  LEU B  13      36.737  25.772  53.545  1.00 52.95 LIG 0.04  C 
BRANCH 34 35
ATOM     35  CG  LEU B  13      35.922  24.987  54.581  1.00 63.18 LIG-0.02  C 
ATOM     36  CD1 LEU B  13      36.032  25.632  55.953  1.00 59.33 LIG 0.01  C 
ATOM     37  CD2 LEU B  13      34.456  24.899  54.176  1.00 64.76 LIG 0.01  C 
ENDBRANCH 34 35
ENDBRANCH 33 34
BRANCH 33 38
ATOM     38  C   LEU B  13      37.843  26.053  51.296  1.00 54.04 LIG 0.22  C 
ATOM     39 O    LEU B  13      37.778  27.160  50.760  1.00 55.16 LIG-0.29  OA
ENDBRANCH 33 38
ENDBRANCH 31 33
ENDBRANCH 28 29
BRANCH 28 40
ATOM     40  CB  ASP B  12      36.268  21.699  49.742  1.00 42.16 LIG 0.15  C 
BRANCH 40 41
ATOM     41  CG  ASP B  12      37.781  21.766  49.890  1.00 44.94 LIG 0.17  C 
ATOM     42 OD2  ASP B  12      38.253  21.971  51.032  1.00 53.96 LIG-0.65  OA
ATOM     43 OD1  ASP B  12      38.498  21.608  48.872  1.00 32.79 LIG-0.65  OA
ENDBRANCH 40 41
ENDBRANCH 28 40
ENDBRANCH 26 28
ENDBRANCH 1 24
BRANCH 1 44
ATOM     44  CB  VAL B  11      31.555  20.313  53.502  1.00 40.95 LIG 0.01  C 
ATOM     45  CG2 VAL B  11      30.155  19.704  53.399  1.00 48.12 LIG 0.01  C 
ATOM     46  CG1 VAL B  11      31.576  21.493  54.467  1.00 38.34 LIG 0.01  C 
ENDBRANCH 1 44
TORSDOF 20
ENDMDL
MODEL 2
USER: ADFR SOLUTION from run 26
USER: SCORE 14.677287 LL:  -1.976 LR: -13.992 RR:   0.000 FEB:  -8.026
USER: RMSD 4.160538
USER: SEED 25
USER: STATUS no improvement in best in 4 clusters for 5 generations
USER: GENES 22
USER: genes 0 Translation |==|  0.41743 0.58661 0.76935
USER: genes 1 Rotation |==|  0.31625 0.32081 0.35118 0.90247
USER: genes 2 Torsion [CB]-CA--N-[C] |==|  0.77768
USER: genes 3 Torsion [N]-C--CA-[N] |==|  0.60548
USER: genes 4 Torsion [C]-CA--N-[C] |==|  0.58143
USER: genes 5 Torsion [N]-C--CA-[N] |==|  0.38376
USER: genes 6 Torsion [C]-CA--N-[C] |==|  0.63278
USER: genes 7 Torsion [N]-C--CA-[N] |==|  0.45640
USER: genes 8 Torsion [C]-CA--CB-[OG] |==|  0.49532
USER: genes 9 Torsion [CA]-CB--OG-[HG] |==|  0.21779
USER: genes 10 Torsion [C]-CA--CB-[OG] |==|  0.91140
USER: genes 11 Torsion [CA]-CB--OG-[HG] |==|  0.84829
USER: genes 12 Torsion [N]-CA--C-[N] |==|  0.11862
USER: genes 13 Torsion [C]-N--CA-[C] |==|  0.76474
USER: genes 14 Torsion [N]-CA--C-[N] |==|  0.42890
USER: genes 15 Torsion [C]-N--CA-[CB] |==|  0.81862
USER: genes 16 Torsion [N]-CA--CB-[CG] |==|  0.34807
USER: genes 17 Torsion [CA]-CB--CG-[CD1] |==|  0.44847
USER: genes 18 Torsion [N]-CA--C-[O] |==|  0.05298
USER: genes 19 Torsion [N]-CA--CB-[CG] |==|  0.24411
USER: genes 20 Torsion [CA]-CB--CG-[OD2] |==|  0.36025
USER: genes 21 Torsion [N]-CA--CB-[CG2] |==|  0.00076
ROOT
ATOM      1  CA  VAL B  11      31.044  21.641  54.788  1.00 37.38 LIG 0.18  C 
ENDROOT
BRANCH 1 2
ATOM      2  N   VAL B  11      30.308  21.009  53.696  1.00 31.05 LIG-0.35  N 
ATOM      3  C   GLY B  10      30.631  19.792  53.265  1.00 33.93 LIG 0.24  C 
ATOM      4 O    GLY B  10      31.528  19.117  53.770  1.00 34.12 LIG-0.27  OA
ATOM      5 H    VAL B  11      29.669  21.484  53.371  1.00 31.05 LIG 0.16  HD
BRANCH 3 6
ATOM      6  CA  GLY B  10      29.839  19.248  52.094  1.00 30.55 LIG 0.23  C 
BRANCH 6 7
ATOM      7  N   GLY B  10      29.602  17.827  52.273  1.00 34.58 LIG-0.35  N 
ATOM      8  C   SER B   9      29.470  17.004  51.237  1.00 38.05 LIG 0.24  C 
ATOM      9 O    SER B   9      29.440  17.390  50.074  1.00 29.17 LIG-0.27  OA
ATOM     10 H    GLY B  10      29.557  17.576  53.095  1.00 34.58 LIG 0.16  HD
BRANCH 8 11
ATOM     11  CA  SER B   9      29.356  15.521  51.563  1.00 34.70 LIG 0.20  C 
BRANCH 11 12
ATOM     12  N   SER B   9      28.341  14.859  50.747  1.00 35.55 LIG-0.34  N 
ATOM     13  C   SER B   8      27.432  14.058  51.292  1.00 40.46 LIG 0.26  C 
ATOM     14 O    SER B   8      27.346  13.882  52.507  1.00 45.68 LIG-0.27  OA
ATOM     15 H    SER B   9      28.389  15.033  49.906  1.00 35.55 LIG 0.16  HD
BRANCH 13 16
ATOM     16  CA  SER B   8      26.455  13.376  50.330  1.00 36.95 LIG 0.42  C 
ATOM     17  N   SER B   8      25.749  12.255  50.957  1.00 41.16 LIG 0.62  N 
BRANCH 16 18
ATOM     18  CB  SER B   8      25.466  14.414  49.803  1.00 41.03 LIG 0.21  C 
BRANCH 18 19
ATOM     19 OG   SER B   8      24.547  13.867  48.873  1.00 28.13 LIG-0.40  OA
ATOM     20 HG   SER B   8      23.948  13.447  49.284  1.00 28.13 LIG 0.21  HD
ENDBRANCH 18 19
ENDBRANCH 16 18
ENDBRANCH 13 16
ENDBRANCH 11 12
BRANCH 11 21
ATOM     21  CB  SER B   9      30.713  14.848  51.365  1.00 39.19 LIG 0.20  C 
BRANCH 21 22
ATOM     22 OG   SER B   9      31.437  15.485  50.321  1.00 46.55 LIG-0.40  OA
ATOM     23 HG   SER B   9      30.969  15.499  49.624  1.00 46.55 LIG 0.21  HD
ENDBRANCH 21 22
ENDBRANCH 11 21
ENDBRANCH 8 11
ENDBRANCH 6 7
ENDBRANCH 3 6
ENDBRANCH 1 2
BRANCH 1 24
ATOM     24  C   VAL B  11      32.559  21.438  54.647  1.00 38.72 LIG 0.24  C 
ATOM     25 O    VAL B  11      33.253  21.128  55.618  1.00 29.21 LIG-0.27  OA
ATOM     26  N   ASP B  12      33.071  21.587  53.428  1.00 41.61 LIG-0.34  N 
ATOM     27 H    ASP B  12      32.605  21.666  52.710  1.00 41.61 LIG 0.16  HD
BRANCH 26 28
ATOM     28  CA  ASP B  12      34.514  21.627  53.233  1.00 41.44 LIG 0.19  C 
BRANCH 28 29
ATOM     29  C   ASP B  12      35.040  23.044  53.458  1.00 45.77 LIG 0.24  C 
ATOM     30 O    ASP B  12      34.297  24.019  53.316  1.00 50.52 LIG-0.27  OA
ATOM     31  N   LEU B  13      36.315  23.135  53.833  1.00 51.98 LIG-0.35  N 
ATOM     32 H    LEU B  13      36.802  22.448  54.010  1.00 51.98 LIG 0.16  HD
BRANCH 31 33
ATOM     33  CA  LEU B  13      37.021  24.406  53.980  1.00 53.13 LIG 0.16  C 
BRANCH 33 34
ATOM     34  CB  LEU B  13      37.145  25.093  52.609  1.00 52.95 LIG 0.04  C 
BRANCH 34 35
ATOM     35  CG  LEU B  13      36.647  26.526  52.375  1.00 63.18 LIG-0.02  C 
ATOM     36  CD1 LEU B  13      37.278  27.115  51.124  1.00 59.33 LIG 0.01  C 
ATOM     37  CD2 LEU B  13      35.130  26.568  52.247  1.00 64.76 LIG 0.01  C 
ENDBRANCH 34 35
ENDBRANCH 33 34
BRANCH 33 38
ATOM     38  C   LEU B  13      36.324  25.326  54.983  1.00 54.04 LIG 0.22  C 
ATOM     39 O    LEU B  13      35.525  24.874  55.804  1.00 55.16 LIG-0.29  OA
ENDBRANCH 33 38
ENDBRANCH 31 33
ENDBRANCH 28 29
BRANCH 28 40
ATOM     40  CB  ASP B  12      34.903  21.134  51.838  1.00 42.16 LIG 0.15  C 
BRANCH 40 41
ATOM     41  CG  ASP B  12      34.896  22.253  50.806  1.00 44.94 LIG 0.17  C 
ATOM     42 OD2  ASP B  12      35.906  22.388  50.078  1.00 53.96 LIG-0.65  OA
ATOM     43 OD1  ASP B  12      33.885  22.991  50.717  1.00 32.79 LIG-0.65  OA
ENDBRANCH 40 41
ENDBRANCH 28 40
ENDBRANCH 26 28
ENDBRANCH 1 24
BRANCH 1 44
ATOM     44  CB  VAL B  11      30.560  21.100  56.162  1.00 40.95 LIG 0.01  C 
ATOM     45  CG2 VAL B  11      29.456  20.054  55.990  1.00 48.12 LIG 0.01  C 
ATOM     46  CG1 VAL B  11      30.105  22.241  57.066  1.00 38.34 LIG 0.01  C 
ENDBRANCH 1 44
TORSDOF 20
ENDMDL
MODEL 3
USER: ADFR SOLUTION from run 1
USER: SCORE 14.307667 LL:  -2.083 LR: -13.699 RR:   0.000 FEB:  -7.733
USER: RMSD 5.399870
USER: SEED 774629
USER: STATUS no improvement in best in 2 clusters for 5 generations
USER: GENES 22
USER: genes 0 Translation |==|  0.42346 0.44945 0.54524
USER: genes 1 Rotation |==|  0.17494 0.14651 0.48699 0.63861
USER: genes 2 Torsion [CB]-CA--N-[C] |==|  0.20016
USER: genes 3 Torsion [N]-C--CA-[N] |==|  0.47427
USER: genes 4 Torsion [C]-CA--N-[C] |==|  0.68207
USER: genes 5 Torsion [N]-C--CA-[N] |==|  0.44235
USER: genes 6 Torsion [C]-CA--N-[C] |==|  0.76672
USER: genes 7 Torsion [N]-C--CA-[N] |==|  0.51304
USER: genes 8 Torsion [C]-CA--CB-[OG] |==|  0.22380
USER: genes 9 Torsion [CA]-CB--OG-[HG] |==|  0.01150
USER: genes 10 Torsion [C]-CA--CB-[OG] |==|  0.51254
USER: genes 11 Torsion [CA]-CB--OG-[HG] |==|  0.16746
USER: genes 12 Torsion [N]-CA--C-[N] |==|  0.43530
USER: genes 13 Torsion [C]-N--CA-[C] |==|  0.57569
USER: genes 14 Torsion [N]-CA--C-[N] |==|  0.41138
USER: genes 15 Torsion [C]-N--CA-[CB] |==|  0.46029
USER: genes 16 Torsion [N]-CA--CB-[CG] |==|  0.18622
USER: genes 17 Torsion [CA]-CB--CG-[CD1] |==|  0.21883
USER: genes 18 Torsion [N]-CA--C-[O] |==|  0.87868
USER: genes 19 Torsion [N]-CA--CB-[CG] |==|  0.31698
USER: genes 20 Torsion [CA]-CB--CG-[OD2] |==|  0.81388
USER: genes 21 Torsion [N]-CA--CB-[CG2] |==|  0.45947
ROOT
ATOM      1  CA  VAL B  11      31.206  18.452  51.427  1.00 37.38 LIG 0.18  C 
ENDROOT
BRANCH 1 2
ATOM      2  N   VAL B  11      31.030  17.035  51.737  1.00 31.05 LIG-0.35  N 
ATOM      3  C   GLY B  10      30.175  16.283  51.050  1.00 33.93 LIG 0.24  C 
ATOM      4 O    GLY B  10      29.515  16.711  50.103  1.00 34.12 LIG-0.27  OA
ATOM      5 H    VAL B  11      31.517  16.747  52.385  1.00 31.05 LIG 0.16  HD
BRANCH 3 6
ATOM      6  CA  GLY B  10      30.030  14.839  51.484  1.00 30.55 LIG 0.23  C 
BRANCH 6 7
ATOM      7  N   GLY B  10      28.916  14.222  50.788  1.00 34.58 LIG-0.35  N 
ATOM      8  C   SER B   9      27.828  13.813  51.435  1.00 38.05 LIG 0.24  C 
ATOM      9 O    SER B   9      27.726  13.836  52.656  1.00 29.17 LIG-0.27  OA
ATOM     10 H    GLY B  10      29.025  14.148  49.938  1.00 34.58 LIG 0.16  HD
BRANCH 8 11
ATOM     11  CA  SER B   9      26.682  13.303  50.571  1.00 34.70 LIG 0.20  C 
BRANCH 11 12
ATOM     12  N   SER B   9      25.767  12.451  51.327  1.00 35.55 LIG-0.34  N 
ATOM     13  C   SER B   8      26.015  11.158  51.503  1.00 40.46 LIG 0.26  C 
ATOM     14 O    SER B   8      27.049  10.620  51.106  1.00 45.68 LIG-0.27  OA
ATOM     15 H    SER B   9      25.074  12.856  51.637  1.00 35.55 LIG 0.16  HD
BRANCH 13 16
ATOM     16  CA  SER B   8      24.956  10.354  52.263  1.00 36.95 LIG 0.42  C 
ATOM     17  N   SER B   8      25.373   8.969  52.499  1.00 41.16 LIG 0.62  N 
BRANCH 16 18
ATOM     18  CB  SER B   8      24.647  11.059  53.583  1.00 41.03 LIG 0.21  C 
BRANCH 18 19
ATOM     19 OG   SER B   8      23.746  12.142  53.423  1.00 28.13 LIG-0.40  OA
ATOM     20 HG   SER B   8      23.489  12.176  52.624  1.00 28.13 LIG 0.21  HD
ENDBRANCH 18 19
ENDBRANCH 16 18
ENDBRANCH 13 16
ENDBRANCH 11 12
BRANCH 11 21
ATOM     21  CB  SER B   9      25.926  14.488  49.974  1.00 39.19 LIG 0.20  C 
BRANCH 21 22
ATOM     22 OG   SER B   9      24.789  14.040  49.248  1.00 46.55 LIG-0.40  OA
ATOM     23 HG   SER B   9      24.273  13.625  49.764  1.00 46.55 LIG 0.21  HD
ENDBRANCH 21 22
ENDBRANCH 11 21
ENDBRANCH 8 11
ENDBRANCH 6 7
ENDBRANCH 3 6
ENDBRANCH 1 2
BRANCH 1 24
ATOM     24  C   VAL B  11      32.479  19.022  52.070  1.00 38.72 LIG 0.24  C 
ATOM     25 O    VAL B  11      32.996  18.478  53.049  1.00 29.21 LIG-0.27  OA
ATOM     26  N   ASP B  12      33.000  20.107  51.504  1.00 41.61 LIG-0.34  N 
ATOM     27 H    ASP B  12      32.750  20.430  50.748  1.00 41.61 LIG 0.16  HD
BRANCH 26 28
ATOM     28  CA  ASP B  12      34.072  20.841  52.164  1.00 41.44 LIG 0.19  C 
BRANCH 28 29
ATOM     29  C   ASP B  12      34.046  22.309  51.742  1.00 45.77 LIG 0.24  C 
ATOM     30 O    ASP B  12      33.645  22.633  50.621  1.00 50.52 LIG-0.27  OA
ATOM     31  N   LEU B  13      34.453  23.182  52.662  1.00 51.98 LIG-0.35  N 
ATOM     32 H    LEU B  13      34.652  22.956  53.468  1.00 51.98 LIG 0.16  HD
BRANCH 31 33
ATOM     33  CA  LEU B  13      34.607  24.612  52.401  1.00 53.13 LIG 0.16  C 
BRANCH 33 34
ATOM     34  CB  LEU B  13      34.740  25.372  53.732  1.00 52.95 LIG 0.04  C 
BRANCH 34 35
ATOM     35  CG  LEU B  13      35.960  25.197  54.645  1.00 63.18 LIG-0.02  C 
ATOM     36  CD1 LEU B  13      37.140  26.001  54.125  1.00 59.33 LIG 0.01  C 
ATOM     37  CD2 LEU B  13      35.644  25.623  56.073  1.00 64.76 LIG 0.01  C 
ENDBRANCH 34 35
ENDBRANCH 33 34
BRANCH 33 38
ATOM     38  C   LEU B  13      35.809  24.895  51.497  1.00 54.04 LIG 0.22  C 
ATOM     39 O    LEU B  13      36.884  24.324  51.682  1.00 55.16 LIG-0.29  OA
ENDBRANCH 33 38
ENDBRANCH 31 33
ENDBRANCH 28 29
BRANCH 28 40
ATOM     40  CB  ASP B  12      35.439  20.227  51.858  1.00 42.16 LIG 0.15  C 
BRANCH 40 41
ATOM     41  CG  ASP B  12      36.322  21.157  51.038  1.00 44.94 LIG 0.17  C 
ATOM     42 OD2  ASP B  12      35.977  21.410  49.861  1.00 53.96 LIG-0.65  OA
ATOM     43 OD1  ASP B  12      37.353  21.638  51.567  1.00 32.79 LIG-0.65  OA
ENDBRANCH 40 41
ENDBRANCH 28 40
ENDBRANCH 26 28
ENDBRANCH 1 24
BRANCH 1 44
ATOM     44  CB  VAL B  11      29.967  19.272  51.879  1.00 40.95 LIG 0.01  C 
ATOM     45  CG2 VAL B  11      30.269  20.772  51.896  1.00 48.12 LIG 0.01  C 
ATOM     46  CG1 VAL B  11      29.463  18.793  53.236  1.00 38.34 LIG 0.01  C 
ENDBRANCH 1 44
TORSDOF 20
ENDMDL
MODEL 4
USER: ADFR SOLUTION from run 6
USER: SCORE 14.129395 LL:  -2.442 LR: -13.585 RR:   0.000 FEB:  -7.619
USER: RMSD 2.464724
USER: SEED 117036
USER: STATUS no improvement in best in 3 clusters for 5 generations
USER: GENES 22
USER: genes 0 Translation |==|  0.52415 0.55519 0.60078
USER: genes 1 Rotation |==|  0.59018 0.55410 0.53558 0.98752
USER: genes 2 Torsion [CB]-CA--N-[C] |==|  0.28333
USER: genes 3 Torsion [N]-C--CA-[N] |==|  0.37899
USER: genes 4 Torsion [C]-CA--N-[C] |==|  0.58983
USER: genes 5 Torsion [N]-C--CA-[N] |==|  0.46547
USER: genes 6 Torsion [C]-CA--N-[C] |==|  0.61730
USER: genes 7 Torsion [N]-C--CA-[N] |==|  0.42651
USER: genes 8 Torsion [C]-CA--CB-[OG] |==|  0.52355
USER: genes 9 Torsion [CA]-CB--OG-[HG] |==|  0.29787
USER: genes 10 Torsion [C]-CA--CB-[OG] |==|  0.72521
USER: genes 11 Torsion [CA]-CB--OG-[HG] |==|  0.14663
USER: genes 12 Torsion [N]-CA--C-[N] |==|  0.37076
USER: genes 13 Torsion [C]-N--CA-[C] |==|  0.77861
USER: genes 14 Torsion [N]-CA--C-[N] |==|  0.39707
USER: genes 15 Torsion [C]-N--CA-[CB] |==|  0.83353
USER: genes 16 Torsion [N]-CA--CB-[CG] |==|  0.80325
USER: genes 17 Torsion [CA]-CB--CG-[CD1] |==|  0.00207
USER: genes 18 Torsion [N]-CA--C-[O] |==|  0.26174
USER: genes 19 Torsion [N]-CA--CB-[CG] |==|  0.06676
USER: genes 20 Torsion [CA]-CB--CG-[OD2] |==|  0.26324
USER: genes 21 Torsion [N]-CA--CB-[CG2] |==|  0.30657
ROOT
ATOM      1  CA  VAL B  11      33.925  20.910  52.260  1.00 37.38 LIG 0.18  C 
ENDROOT
BRANCH 1 2
ATOM      2  N   VAL B  11      32.682  20.516  51.601  1.00 31.05 LIG-0.35  N 
ATOM      3  C   GLY B  10      31.681  19.977  52.291  1.00 33.93 LIG 0.24  C 
ATOM      4 O    GLY B  10      31.718  19.811  53.511  1.00 34.12 LIG-0.27  OA
ATOM      5 H    VAL B  11      32.663  20.663  50.754  1.00 31.05 LIG 0.16  HD
BRANCH 3 6
ATOM      6  CA  GLY B  10      30.455  19.558  51.506  1.00 30.55 LIG 0.23  C 
BRANCH 6 7
ATOM      7  N   GLY B  10      29.999  18.256  51.958  1.00 34.58 LIG-0.35  N 
ATOM      8  C   SER B   9      29.420  17.392  51.129  1.00 38.05 LIG 0.24  C 
ATOM      9 O    SER B   9      29.144  17.661  49.965  1.00 29.17 LIG-0.27  OA
ATOM     10 H    GLY B  10      30.136  18.102  52.793  1.00 34.58 LIG 0.16  HD
BRANCH 8 11
ATOM     11  CA  SER B   9      29.107  16.015  51.701  1.00 34.70 LIG 0.20  C 
BRANCH 11 12
ATOM     12  N   SER B   9      28.224  15.249  50.825  1.00 35.55 LIG-0.34  N 
ATOM     13  C   SER B   8      27.218  14.533  51.315  1.00 40.46 LIG 0.26  C 
ATOM     14 O    SER B   8      26.928  14.527  52.512  1.00 45.68 LIG-0.27  OA
ATOM     15 H    SER B   9      28.414  15.304  49.988  1.00 35.55 LIG 0.16  HD
BRANCH 13 16
ATOM     16  CA  SER B   8      26.396  13.726  50.306  1.00 36.95 LIG 0.42  C 
ATOM     17  N   SER B   8      25.766  12.551  50.915  1.00 41.16 LIG 0.62  N 
BRANCH 16 18
ATOM     18  CB  SER B   8      25.345  14.638  49.675  1.00 41.03 LIG 0.21  C 
BRANCH 18 19
ATOM     19 OG   SER B   8      24.419  13.926  48.872  1.00 28.13 LIG-0.40  OA
ATOM     20 HG   SER B   8      23.679  13.887  49.266  1.00 28.13 LIG 0.21  HD
ENDBRANCH 18 19
ENDBRANCH 16 18
ENDBRANCH 13 16
ENDBRANCH 11 12
BRANCH 11 21
ATOM     21  CB  SER B   9      30.409  15.252  51.936  1.00 39.19 LIG 0.20  C 
BRANCH 21 22
ATOM     22 OG   SER B   9      30.659  14.351  50.866  1.00 46.55 LIG-0.40  OA
ATOM     23 HG   SER B   9      30.623  14.766  50.136  1.00 46.55 LIG 0.21  HD
ENDBRANCH 21 22
ENDBRANCH 11 21
ENDBRANCH 8 11
ENDBRANCH 6 7
ENDBRANCH 3 6
ENDBRANCH 1 2
BRANCH 1 24
ATOM     24  C   VAL B  11      34.398  22.297  51.801  1.00 38.72 LIG 0.24  C 
ATOM     25 O    VAL B  11      34.398  22.607  50.607  1.00 29.21 LIG-0.27  OA
ATOM     26  N   ASP B  12      34.778  23.144  52.753  1.00 41.61 LIG-0.34  N 
ATOM     27 H    ASP B  12      34.662  23.015  53.595  1.00 41.61 LIG 0.16  HD
BRANCH 26 28
ATOM     28  CA  ASP B  12      35.440  24.395  52.407  1.00 41.44 LIG 0.19  C 
BRANCH 28 29
ATOM     29  C   ASP B  12      36.917  24.148  52.106  1.00 45.77 LIG 0.24  C 
ATOM     30 O    ASP B  12      37.552  23.299  52.738  1.00 50.52 LIG-0.27  OA
ATOM     31  N   LEU B  13      37.438  24.880  51.123  1.00 51.98 LIG-0.35  N 
ATOM     32 H    LEU B  13      36.968  25.409  50.633  1.00 51.98 LIG 0.16  HD
BRANCH 31 33
ATOM     33  CA  LEU B  13      38.857  24.864  50.774  1.00 53.13 LIG 0.16  C 
BRANCH 33 34
ATOM     34  CB  LEU B  13      39.695  25.311  51.984  1.00 52.95 LIG 0.04  C 
BRANCH 34 35
ATOM     35  CG  LEU B  13      39.697  26.765  52.474  1.00 63.18 LIG-0.02  C 
ATOM     36  CD1 LEU B  13      38.774  27.621  51.621  1.00 59.33 LIG 0.01  C 
ATOM     37  CD2 LEU B  13      39.269  26.855  53.933  1.00 64.76 LIG 0.01  C 
ENDBRANCH 34 35
ENDBRANCH 33 34
BRANCH 33 38
ATOM     38  C   LEU B  13      39.304  23.484  50.289  1.00 54.04 LIG 0.22  C 
ATOM     39 O    LEU B  13      39.320  23.213  49.088  1.00 55.16 LIG-0.29  OA
ENDBRANCH 33 38
ENDBRANCH 31 33
ENDBRANCH 28 29
BRANCH 28 40
ATOM     40  CB  ASP B  12      35.294  25.431  53.523  1.00 42.16 LIG 0.15  C 
BRANCH 40 41
ATOM     41  CG  ASP B  12      35.048  24.789  54.882  1.00 44.94 LIG 0.17  C 
ATOM     42 OD2  ASP B  12      36.035  24.584  55.624  1.00 53.96 LIG-0.65  OA
ATOM     43 OD1  ASP B  12      33.872  24.494  55.209  1.00 32.79 LIG-0.65  OA
ENDBRANCH 40 41
ENDBRANCH 28 40
ENDBRANCH 26 28
ENDBRANCH 1 24
BRANCH 1 44
ATOM     44  CB  VAL B  11      35.039  19.857  52.007  1.00 40.95 LIG 0.01  C 
ATOM     45  CG2 VAL B  11      36.129  20.410  51.086  1.00 48.12 LIG 0.01  C 
ATOM     46  CG1 VAL B  11      34.450  18.564  51.453  1.00 38.34 LIG 0.01  C 
ENDBRANCH 1 44
TORSDOF 20
ENDMDL
MODEL 5
USER: ADFR SOLUTION from run 87
USER: SCORE 13.755495 LL:  -2.169 LR: -13.322 RR:   0.000 FEB:  -7.356
USER: RMSD 5.245902
USER: SEED 86
USER: STATUS no improvement in best in 5 clusters for 5 generations
USER: GENES 22
USER: genes 0 Translation |==|  0.44588 0.44032 0.54746
USER: genes 1 Rotation |==|  0.12790 0.20180 0.50883 0.65014
USER: genes 2 Torsion [CB]-CA--N-[C] |==|  0.24497
USER: genes 3 Torsion [N]-C--CA-[N] |==|  0.49017
USER: genes 4 Torsion [C]-CA--N-[C] |==|  0.64348
USER: genes 5 Torsion [N]-C--CA-[N] |==|  0.43114
USER: genes 6 Torsion [C]-CA--N-[C] |==|  0.78555
USER: genes 7 Torsion [N]-C--CA-[N] |==|  0.50525
USER: genes 8 Torsion [C]-CA--CB-[OG] |==|  0.40785
USER: genes 9 Torsion [CA]-CB--OG-[HG] |==|  0.91281
USER: genes 10 Torsion [C]-CA--CB-[OG] |==|  0.51462
USER: genes 11 Torsion [CA]-CB--OG-[HG] |==|  0.21536
USER: genes 12 Torsion [N]-CA--C-[N] |==|  0.43638
USER: genes 13 Torsion [C]-N--CA-[C] |==|  0.56959
USER: genes 14 Torsion [N]-CA--C-[N] |==|  0.52157
USER: genes 15 Torsion [C]-N--CA-[CB] |==|  0.31533
USER: genes 16 Torsion [N]-CA--CB-[CG] |==|  0.74490
USER: genes 17 Torsion [CA]-CB--CG-[CD1] |==|  0.72036
USER: genes 18 Torsion [N]-CA--C-[O] |==|  0.14523
USER: genes 19 Torsion [N]-CA--CB-[CG] |==|  0.14475
USER: genes 20 Torsion [CA]-CB--CG-[OD2] |==|  0.31887
USER: genes 21 Torsion [N]-CA--CB-[CG2] |==|  0.84778
ROOT
ATOM      1  CA  VAL B  11      31.812  18.239  51.460  1.00 37.38 LIG 0.18  C 
ENDROOT
BRANCH 1 2
ATOM      2  N   VAL B  11      31.351  16.935  51.928  1.00 31.05 LIG-0.35  N 
ATOM      3  C   GLY B  10      30.442  16.243  51.247  1.00 33.93 LIG 0.24  C 
ATOM      4 O    GLY B  10      29.964  16.630  50.180  1.00 34.12 LIG-0.27  OA
ATOM      5 H    VAL B  11      31.713  16.669  52.662  1.00 31.05 LIG 0.16  HD
BRANCH 3 6
ATOM      6  CA  GLY B  10      29.995  14.925  51.844  1.00 30.55 LIG 0.23  C 
BRANCH 6 7
ATOM      7  N   GLY B  10      28.948  14.340  51.027  1.00 34.58 LIG-0.35  N 
ATOM      8  C   SER B   9      27.794  13.937  51.553  1.00 38.05 LIG 0.24  C 
ATOM      9 O    SER B   9      27.570  13.937  52.758  1.00 29.17 LIG-0.27  OA
ATOM     10 H    GLY B  10      29.140  14.282  50.191  1.00 34.58 LIG 0.16  HD
BRANCH 8 11
ATOM     11  CA  SER B   9      26.733  13.463  50.568  1.00 34.70 LIG 0.20  C 
BRANCH 11 12
ATOM     12  N   SER B   9      25.788  12.536  51.187  1.00 35.55 LIG-0.34  N 
ATOM     13  C   SER B   8      26.113  11.268  51.411  1.00 40.46 LIG 0.26  C 
ATOM     14 O    SER B   8      27.236  10.819  51.177  1.00 45.68 LIG-0.27  OA
ATOM     15 H    SER B   9      25.026  12.882  51.387  1.00 35.55 LIG 0.16  HD
BRANCH 13 16
ATOM     16  CA  SER B   8      25.022  10.377  52.013  1.00 36.95 LIG 0.42  C 
ATOM     17  N   SER B   8      25.494   9.012  52.261  1.00 41.16 LIG 0.62  N 
BRANCH 16 18
ATOM     18  CB  SER B   8      24.512  11.017  53.303  1.00 41.03 LIG 0.21  C 
BRANCH 18 19
ATOM     19 OG   SER B   8      23.134  10.768  53.525  1.00 28.13 LIG-0.40  OA
ATOM     20 HG   SER B   8      22.738  10.706  52.787  1.00 28.13 LIG 0.21  HD
ENDBRANCH 18 19
ENDBRANCH 16 18
ENDBRANCH 13 16
ENDBRANCH 11 12
BRANCH 11 21
ATOM     21  CB  SER B   9      25.990  14.670  49.998  1.00 39.19 LIG 0.20  C 
BRANCH 21 22
ATOM     22 OG   SER B   9      24.916  14.249  49.169  1.00 46.55 LIG-0.40  OA
ATOM     23 HG   SER B   9      24.272  14.002  49.649  1.00 46.55 LIG 0.21  HD
ENDBRANCH 21 22
ENDBRANCH 11 21
ENDBRANCH 8 11
ENDBRANCH 6 7
ENDBRANCH 3 6
ENDBRANCH 1 2
BRANCH 1 24
ATOM     24  C   VAL B  11      33.272  18.503  51.856  1.00 38.72 LIG 0.24  C 
ATOM     25 O    VAL B  11      33.797  17.898  52.793  1.00 29.21 LIG-0.27  OA
ATOM     26  N   ASP B  12      33.938  19.391  51.123  1.00 41.61 LIG-0.34  N 
ATOM     27 H    ASP B  12      33.653  19.728  50.385  1.00 41.61 LIG 0.16  HD
BRANCH 26 28
ATOM     28  CA  ASP B  12      35.249  19.865  51.548  1.00 41.44 LIG 0.19  C 
BRANCH 28 29
ATOM     29  C   ASP B  12      35.530  21.246  50.959  1.00 45.77 LIG 0.24  C 
ATOM     30 O    ASP B  12      34.642  21.871  50.373  1.00 50.52 LIG-0.27  OA
ATOM     31  N   LEU B  13      36.763  21.714  51.146  1.00 51.98 LIG-0.35  N 
ATOM     32 H    LEU B  13      37.351  21.310  51.627  1.00 51.98 LIG 0.16  HD
BRANCH 31 33
ATOM     33  CA  LEU B  13      37.248  22.960  50.555  1.00 53.13 LIG 0.16  C 
BRANCH 33 34
ATOM     34  CB  LEU B  13      37.519  23.990  51.666  1.00 52.95 LIG 0.04  C 
BRANCH 34 35
ATOM     35  CG  LEU B  13      36.447  24.989  52.121  1.00 63.18 LIG-0.02  C 
ATOM     36  CD1 LEU B  13      36.686  26.355  51.499  1.00 59.33 LIG 0.01  C 
ATOM     37  CD2 LEU B  13      35.050  24.502  51.757  1.00 64.76 LIG 0.01  C 
ENDBRANCH 34 35
ENDBRANCH 33 34
BRANCH 33 38
ATOM     38  C   LEU B  13      38.504  22.735  49.712  1.00 54.04 LIG 0.22  C 
ATOM     39 O    LEU B  13      38.524  21.877  48.830  1.00 55.16 LIG-0.29  OA
ENDBRANCH 33 38
ENDBRANCH 31 33
ENDBRANCH 28 29
BRANCH 28 40
ATOM     40  CB  ASP B  12      36.353  18.885  51.150  1.00 42.16 LIG 0.15  C 
BRANCH 40 41
ATOM     41  CG  ASP B  12      36.303  18.525  49.671  1.00 44.94 LIG 0.17  C 
ATOM     42 OD2  ASP B  12      37.260  18.880  48.947  1.00 53.96 LIG-0.65  OA
ATOM     43 OD1  ASP B  12      35.314  17.886  49.235  1.00 32.79 LIG-0.65  OA
ENDBRANCH 40 41
ENDBRANCH 28 40
ENDBRANCH 26 28
ENDBRANCH 1 24
BRANCH 1 44
ATOM     44  CB  VAL B  11      30.899  19.373  52.004  1.00 40.95 LIG 0.01  C 
ATOM     45  CG2 VAL B  11      29.431  19.124  51.649  1.00 48.12 LIG 0.01  C 
ATOM     46  CG1 VAL B  11      31.365  20.735  51.502  1.00 38.34 LIG 0.01  C 
ENDBRANCH 1 44
TORSDOF 20
ENDMDL
MODEL 6
USER: ADFR SOLUTION from run 138
USER: SCORE 13.603735 LL:  -2.604 LR: -13.122 RR:   0.000 FEB:  -7.156
USER: RMSD 3.547454
USER: SEED 137
USER: STATUS no improvement in best in 5 clusters for 5 generations
USER: GENES 22
USER: genes 0 Translation |==|  0.49623 0.57989 0.61589
USER: genes 1 Rotation |==|  0.37158 0.35663 0.46870 0.96041
USER: genes 2 Torsion [CB]-CA--N-[C] |==|  0.15938
USER: genes 3 Torsion [N]-C--CA-[N] |==|  0.32787
USER: genes 4 Torsion [C]-CA--N-[C] |==|  0.45166
USER: genes 5 Torsion [N]-C--CA-[N] |==|  0.47778
USER: genes 6 Torsion [C]-CA--N-[C] |==|  0.76341
USER: genes 7 Torsion [N]-C--CA-[N] |==|  0.33729
USER: genes 8 Torsion [C]-CA--CB-[OG] |==|  0.45332
USER: genes 9 Torsion [CA]-CB--OG-[HG] |==|  0.31958
USER: genes 10 Torsion [C]-CA--CB-[OG] |==|  0.57157
USER: genes 11 Torsion [CA]-CB--OG-[HG] |==|  0.77553
USER: genes 12 Torsion [N]-CA--C-[N] |==|  0.73783
USER: genes 13 Torsion [C]-N--CA-[C] |==|  0.20456
USER: genes 14 Torsion [N]-CA--C-[N] |==|  0.03438
USER: genes 15 Torsion [C]-N--CA-[CB] |==|  0.19519
USER: genes 16 Torsion [N]-CA--CB-[CG] |==|  0.05547
USER: genes 17 Torsion [CA]-CB--CG-[CD1] |==|  0.21785
USER: genes 18 Torsion [N]-CA--C-[O] |==|  0.86505
USER: genes 19 Torsion [N]-CA--CB-[CG] |==|  0.57062
USER: genes 20 Torsion [CA]-CB--CG-[OD2] |==|  0.15362
USER: genes 21 Torsion [N]-CA--CB-[CG2] |==|  0.47683
ROOT
ATOM      1  CA  VAL B  11      33.171  21.484  52.486  1.00 37.38 LIG 0.18  C 
ENDROOT
BRANCH 1 2
ATOM      2  N   VAL B  11      32.472  20.645  51.517  1.00 31.05 LIG-0.35  N 
ATOM      3  C   GLY B  10      31.304  20.080  51.815  1.00 33.93 LIG 0.24  C 
ATOM      4 O    GLY B  10      30.729  20.253  52.890  1.00 34.12 LIG-0.27  OA
ATOM      5 H    VAL B  11      32.875  20.556  50.763  1.00 31.05 LIG 0.16  HD
BRANCH 3 6
ATOM      6  CA  GLY B  10      30.686  19.188  50.758  1.00 30.55 LIG 0.23  C 
BRANCH 6 7
ATOM      7  N   GLY B  10      30.563  17.834  51.264  1.00 34.58 LIG-0.35  N 
ATOM      8  C   SER B   9      29.759  16.943  50.689  1.00 38.05 LIG 0.24  C 
ATOM      9 O    SER B   9      29.002  17.221  49.766  1.00 29.17 LIG-0.27  OA
ATOM     10 H    GLY B  10      31.048  17.667  51.955  1.00 34.58 LIG 0.16  HD
BRANCH 8 11
ATOM     11  CA  SER B   9      29.822  15.524  51.238  1.00 34.70 LIG 0.20  C 
BRANCH 11 12
ATOM     12  N   SER B   9      28.777  14.673  50.673  1.00 35.55 LIG-0.34  N 
ATOM     13  C   SER B   8      27.557  14.640  51.196  1.00 40.46 LIG 0.26  C 
ATOM     14 O    SER B   8      27.215  15.365  52.131  1.00 45.68 LIG-0.27  OA
ATOM     15 H    SER B   9      29.023  14.211  49.990  1.00 35.55 LIG 0.16  HD
BRANCH 13 16
ATOM     16  CA  SER B   8      26.562  13.669  50.554  1.00 36.95 LIG 0.42  C 
ATOM     17  N   SER B   8      26.041  12.692  51.515  1.00 41.16 LIG 0.62  N 
BRANCH 16 18
ATOM     18  CB  SER B   8      25.424  14.467  49.921  1.00 41.03 LIG 0.21  C 
BRANCH 18 19
ATOM     19 OG   SER B   8      24.673  13.701  48.994  1.00 28.13 LIG-0.40  OA
ATOM     20 HG   SER B   8      23.889  13.606  49.279  1.00 28.13 LIG 0.21  HD
ENDBRANCH 18 19
ENDBRANCH 16 18
ENDBRANCH 13 16
ENDBRANCH 11 12
BRANCH 11 21
ATOM     21  CB  SER B   9      31.199  14.927  50.954  1.00 39.19 LIG 0.20  C 
BRANCH 21 22
ATOM     22 OG   SER B   9      31.126  13.509  50.893  1.00 46.55 LIG-0.40  OA
ATOM     23 HG   SER B   9      31.128  13.195  51.672  1.00 46.55 LIG 0.21  HD
ENDBRANCH 21 22
ENDBRANCH 11 21
ENDBRANCH 8 11
ENDBRANCH 6 7
ENDBRANCH 3 6
ENDBRANCH 1 2
BRANCH 1 24
ATOM     24  C   VAL B  11      34.488  22.034  51.918  1.00 38.72 LIG 0.24  C 
ATOM     25 O    VAL B  11      34.512  23.083  51.269  1.00 29.21 LIG-0.27  OA
ATOM     26  N   ASP B  12      35.590  21.339  52.185  1.00 41.61 LIG-0.34  N 
ATOM     27 H    ASP B  12      35.632  20.687  52.744  1.00 41.61 LIG 0.16  HD
BRANCH 26 28
ATOM     28  CA  ASP B  12      36.844  21.659  51.516  1.00 41.44 LIG 0.19  C 
BRANCH 28 29
ATOM     29  C   ASP B  12      37.429  22.953  52.076  1.00 45.77 LIG 0.24  C 
ATOM     30 O    ASP B  12      38.347  23.533  51.489  1.00 50.52 LIG-0.27  OA
ATOM     31  N   LEU B  13      36.870  23.403  53.199  1.00 51.98 LIG-0.35  N 
ATOM     32 H    LEU B  13      36.177  23.039  53.556  1.00 51.98 LIG 0.16  HD
BRANCH 31 33
ATOM     33  CA  LEU B  13      37.373  24.558  53.941  1.00 53.13 LIG 0.16  C 
BRANCH 33 34
ATOM     34  CB  LEU B  13      37.101  25.845  53.144  1.00 52.95 LIG 0.04  C 
BRANCH 34 35
ATOM     35  CG  LEU B  13      36.038  25.903  52.039  1.00 63.18 LIG-0.02  C 
ATOM     36  CD1 LEU B  13      34.646  26.028  52.638  1.00 59.33 LIG 0.01  C 
ATOM     37  CD2 LEU B  13      36.290  27.069  51.092  1.00 64.76 LIG 0.01  C 
ENDBRANCH 34 35
ENDBRANCH 33 34
BRANCH 33 38
ATOM     38  C   LEU B  13      36.752  24.647  55.336  1.00 54.04 LIG 0.22  C 
ATOM     39 O    LEU B  13      35.535  24.548  55.491  1.00 55.16 LIG-0.29  OA
ENDBRANCH 33 38
ENDBRANCH 31 33
ENDBRANCH 28 29
BRANCH 28 40
ATOM     40  CB  ASP B  12      36.656  21.774  50.002  1.00 42.16 LIG 0.15  C 
BRANCH 40 41
ATOM     41  CG  ASP B  12      37.940  21.490  49.235  1.00 44.94 LIG 0.17  C 
ATOM     42 OD2  ASP B  12      38.519  20.399  49.441  1.00 53.96 LIG-0.65  OA
ATOM     43 OD1  ASP B  12      38.366  22.350  48.426  1.00 32.79 LIG-0.65  OA
ENDBRANCH 40 41
ENDBRANCH 28 40
ENDBRANCH 26 28
ENDBRANCH 1 24
BRANCH 1 44
ATOM     44  CB  VAL B  11      33.444  20.699  53.799  1.00 40.95 LIG 0.01  C 
ATOM     45  CG2 VAL B  11      34.352  21.490  54.742  1.00 48.12 LIG 0.01  C 
ATOM     46  CG1 VAL B  11      34.026  19.322  53.497  1.00 38.34 LIG 0.01  C 
ENDBRANCH 1 44
TORSDOF 20
ENDMDL
MODEL 7
USER: ADFR SOLUTION from run 110
USER: SCORE 14.639700 LL:  -2.418 LR: -13.099 RR:   0.000 FEB:  -7.133
USER: RMSD 4.356312
USER: SEED 109
USER: STATUS 1 or 2 clusters left
USER: GENES 22
USER: genes 0 Translation |==|  0.57158 0.62883 0.52393
USER: genes 1 Rotation |==|  0.15794 0.26046 0.42832 0.76548
USER: genes 2 Torsion [CB]-CA--N-[C] |==|  0.85554
USER: genes 3 Torsion [N]-C--CA-[N] |==|  0.69772
USER: genes 4 Torsion [C]-CA--N-[C] |==|  0.15904
USER: genes 5 Torsion [N]-C--CA-[N] |==|  0.91685
USER: genes 6 Torsion [C]-CA--N-[C] |==|  0.80576
USER: genes 7 Torsion [N]-C--CA-[N] |==|  0.33828
USER: genes 8 Torsion [C]-CA--CB-[OG] |==|  0.90147
USER: genes 9 Torsion [CA]-CB--OG-[HG] |==|  0.55380
USER: genes 10 Torsion [C]-CA--CB-[OG] |==|  0.45877
USER: genes 11 Torsion [CA]-CB--OG-[HG] |==|  0.79997
USER: genes 12 Torsion [N]-CA--C-[N] |==|  0.38663
USER: genes 13 Torsion [C]-N--CA-[C] |==|  0.65659
USER: genes 14 Torsion [N]-CA--C-[N] |==|  0.92969
USER: genes 15 Torsion [C]-N--CA-[CB] |==|  0.18711
USER: genes 16 Torsion [N]-CA--CB-[CG] |==|  0.59596
USER: genes 17 Torsion [CA]-CB--CG-[CD1] |==|  0.02644
USER: genes 18 Torsion [N]-CA--C-[O] |==|  0.04703
USER: genes 19 Torsion [N]-CA--CB-[CG] |==|  0.94141
USER: genes 20 Torsion [CA]-CB--CG-[OD2] |==|  0.20673
USER: genes 21 Torsion [N]-CA--CB-[CG2] |==|  0.64338
ROOT
ATOM      1  CA  VAL B  11      35.206  22.622  51.107  1.00 37.38 LIG 0.18  C 
ENDROOT
BRANCH 1 2
ATOM      2  N   VAL B  11      34.480  21.375  50.882  1.00 31.05 LIG-0.35  N 
ATOM      3  C   GLY B  10      34.275  20.512  51.874  1.00 33.93 LIG 0.24  C 
ATOM      4 O    GLY B  10      34.642  20.718  53.031  1.00 34.12 LIG-0.27  OA
ATOM      5 H    VAL B  11      34.209  21.258  50.074  1.00 31.05 LIG 0.16  HD
BRANCH 3 6
ATOM      6  CA  GLY B  10      33.556  19.225  51.525  1.00 30.55 LIG 0.23  C 
BRANCH 6 7
ATOM      7  N   GLY B  10      32.217  19.238  52.086  1.00 34.58 LIG-0.35  N 
ATOM      8  C   SER B   9      31.346  20.200  51.794  1.00 38.05 LIG 0.24  C 
ATOM      9 O    SER B   9      31.634  21.183  51.121  1.00 29.17 LIG-0.27  OA
ATOM     10 H    GLY B  10      32.046  18.578  52.611  1.00 34.58 LIG 0.16  HD
BRANCH 8 11
ATOM     11  CA  SER B   9      29.937  20.024  52.345  1.00 34.70 LIG 0.20  C 
BRANCH 11 12
ATOM     12  N   SER B   9      29.575  18.615  52.478  1.00 35.55 LIG-0.34  N 
ATOM     13  C   SER B   8      29.365  17.854  51.409  1.00 40.46 LIG 0.26  C 
ATOM     14 O    SER B   8      29.527  18.264  50.259  1.00 45.68 LIG-0.27  OA
ATOM     15 H    SER B   9      29.514  18.336  53.289  1.00 35.55 LIG 0.16  HD
BRANCH 13 16
ATOM     16  CA  SER B   8      28.935  16.408  51.672  1.00 36.95 LIG 0.42  C 
ATOM     17  N   SER B   8      27.647  16.089  51.049  1.00 41.16 LIG 0.62  N 
BRANCH 16 18
ATOM     18  CB  SER B   8      30.027  15.464  51.172  1.00 41.03 LIG 0.21  C 
BRANCH 18 19
ATOM     19 OG   SER B   8      30.662  15.942  49.998  1.00 28.13 LIG-0.40  OA
ATOM     20 HG   SER B   8      31.050  15.306  49.611  1.00 28.13 LIG 0.21  HD
ENDBRANCH 18 19
ENDBRANCH 16 18
ENDBRANCH 13 16
ENDBRANCH 11 12
BRANCH 11 21
ATOM     21  CB  SER B   9      29.827  20.726  53.698  1.00 39.19 LIG 0.20  C 
BRANCH 21 22
ATOM     22 OG   SER B   9      28.465  20.875  54.073  1.00 46.55 LIG-0.40  OA
ATOM     23 HG   SER B   9      28.104  21.461  53.592  1.00 46.55 LIG 0.21  HD
ENDBRANCH 21 22
ENDBRANCH 11 21
ENDBRANCH 8 11
ENDBRANCH 6 7
ENDBRANCH 3 6
ENDBRANCH 1 2
BRANCH 1 24
ATOM     24  C   VAL B  11      36.703  22.376  51.340  1.00 38.72 LIG 0.24  C 
ATOM     25 O    VAL B  11      37.094  21.418  52.011  1.00 29.21 LIG-0.27  OA
ATOM     26  N   ASP B  12      37.546  23.228  50.762  1.00 41.61 LIG-0.34  N 
ATOM     27 H    ASP B  12      37.319  23.819  50.180  1.00 41.61 LIG 0.16  HD
BRANCH 26 28
ATOM     28  CA  ASP B  12      38.963  23.206  51.097  1.00 41.44 LIG 0.19  C 
BRANCH 28 29
ATOM     29  C   ASP B  12      39.414  24.581  51.587  1.00 45.77 LIG 0.24  C 
ATOM     30 O    ASP B  12      40.401  24.694  52.319  1.00 50.52 LIG-0.27  OA
ATOM     31  N   LEU B  13      38.693  25.614  51.154  1.00 51.98 LIG-0.35  N 
ATOM     32 H    LEU B  13      38.059  25.535  50.578  1.00 51.98 LIG 0.16  HD
BRANCH 31 33
ATOM     33  CA  LEU B  13      38.902  26.987  51.609  1.00 53.13 LIG 0.16  C 
BRANCH 33 34
ATOM     34  CB  LEU B  13      40.265  27.497  51.111  1.00 52.95 LIG 0.04  C 
BRANCH 34 35
ATOM     35  CG  LEU B  13      41.124  28.456  51.946  1.00 63.18 LIG-0.02  C 
ATOM     36  CD1 LEU B  13      40.555  28.606  53.348  1.00 59.33 LIG 0.01  C 
ATOM     37  CD2 LEU B  13      42.566  27.972  52.032  1.00 64.76 LIG 0.01  C 
ENDBRANCH 34 35
ENDBRANCH 33 34
BRANCH 33 38
ATOM     38  C   LEU B  13      37.778  27.914  51.143  1.00 54.04 LIG 0.22  C 
ATOM     39 O    LEU B  13      36.706  27.455  50.748  1.00 55.16 LIG-0.29  OA
ENDBRANCH 33 38
ENDBRANCH 31 33
ENDBRANCH 28 29
BRANCH 28 40
ATOM     40  CB  ASP B  12      39.813  22.765  49.904  1.00 42.16 LIG 0.15  C 
BRANCH 40 41
ATOM     41  CG  ASP B  12      39.005  21.988  48.873  1.00 44.94 LIG 0.17  C 
ATOM     42 OD2  ASP B  12      38.216  22.627  48.140  1.00 53.96 LIG-0.65  OA
ATOM     43 OD1  ASP B  12      39.161  20.745  48.791  1.00 32.79 LIG-0.65  OA
ENDBRANCH 40 41
ENDBRANCH 28 40
ENDBRANCH 26 28
ENDBRANCH 1 24
BRANCH 1 44
ATOM     44  CB  VAL B  11      34.601  23.402  52.307  1.00 40.95 LIG 0.01  C 
ATOM     45  CG2 VAL B  11      34.289  24.851  51.929  1.00 48.12 LIG 0.01  C 
ATOM     46  CG1 VAL B  11      35.522  23.333  53.521  1.00 38.34 LIG 0.01  C 
ENDBRANCH 1 44
TORSDOF 20
ENDMDL
MODEL 8
USER: ADFR SOLUTION from run 46
USER: SCORE 13.534138 LL:  -2.702 LR: -13.044 RR:   0.000 FEB:  -7.078
USER: RMSD 2.428532
USER: SEED 45
USER: STATUS no improvement in best in 6 clusters for 5 generations
USER: GENES 22
USER: genes 0 Translation |==|  0.49398 0.57736 0.61508
USER: genes 1 Rotation |==|  0.43324 0.44200 0.50348 0.99211
USER: genes 2 Torsion [CB]-CA--N-[C] |==|  0.24100
USER: genes 3 Torsion [N]-C--CA-[N] |==|  0.29539
USER: genes 4 Torsion [C]-CA--N-[C] |==|  0.52341
USER: genes 5 Torsion [N]-C--CA-[N] |==|  0.45341
USER: genes 6 Torsion [C]-CA--N-[C] |==|  0.70179
USER: genes 7 Torsion [N]-C--CA-[N] |==|  0.41405
USER: genes 8 Torsion [C]-CA--CB-[OG] |==|  0.47496
USER: genes 9 Torsion [CA]-CB--OG-[HG] |==|  0.25649
USER: genes 10 Torsion [C]-CA--CB-[OG] |==|  0.41919
USER: genes 11 Torsion [CA]-CB--OG-[HG] |==|  0.54250
USER: genes 12 Torsion [N]-CA--C-[N] |==|  0.38174
USER: genes 13 Torsion [C]-N--CA-[C] |==|  0.82778
USER: genes 14 Torsion [N]-CA--C-[N] |==|  0.33736
USER: genes 15 Torsion [C]-N--CA-[CB] |==|  0.20848
USER: genes 16 Torsion [N]-CA--CB-[CG] |==|  0.17394
USER: genes 17 Torsion [CA]-CB--CG-[CD1] |==|  0.29422
USER: genes 18 Torsion [N]-CA--C-[O] |==|  0.90898
USER: genes 19 Torsion [N]-CA--CB-[CG] |==|  0.46153
USER: genes 20 Torsion [CA]-CB--CG-[OD2] |==|  0.25260
USER: genes 21 Torsion [N]-CA--CB-[CG2] |==|  0.74057
ROOT
ATOM      1  CA  VAL B  11      33.111  21.426  52.474  1.00 37.38 LIG 0.18  C 
ENDROOT
BRANCH 1 2
ATOM      2  N   VAL B  11      32.160  20.710  51.627  1.00 31.05 LIG-0.35  N 
ATOM      3  C   GLY B  10      30.941  20.407  52.067  1.00 33.93 LIG 0.24  C 
ATOM      4 O    GLY B  10      30.529  20.733  53.181  1.00 34.12 LIG-0.27  OA
ATOM      5 H    VAL B  11      32.455  20.513  50.844  1.00 31.05 LIG 0.16  HD
BRANCH 3 6
ATOM      6  CA  GLY B  10      30.050  19.620  51.129  1.00 30.55 LIG 0.23  C 
BRANCH 6 7
ATOM      7  N   GLY B  10      29.939  18.247  51.586  1.00 34.58 LIG-0.35  N 
ATOM      8  C   SER B   9      29.347  17.311  50.849  1.00 38.05 LIG 0.24  C 
ATOM      9 O    SER B   9      28.776  17.552  49.792  1.00 29.17 LIG-0.27  OA
ATOM     10 H    GLY B  10      30.284  18.101  52.361  1.00 34.58 LIG 0.16  HD
BRANCH 8 11
ATOM     11  CA  SER B   9      29.414  15.887  51.387  1.00 34.70 LIG 0.20  C 
BRANCH 11 12
ATOM     12  N   SER B   9      28.432  15.015  50.746  1.00 35.55 LIG-0.34  N 
ATOM     13  C   SER B   8      27.351  14.599  51.396  1.00 40.46 LIG 0.26  C 
ATOM     14 O    SER B   8      27.078  14.972  52.537  1.00 45.68 LIG-0.27  OA
ATOM     15 H    SER B   9      28.617  14.806  49.932  1.00 35.55 LIG 0.16  HD
BRANCH 13 16
ATOM     16  CA  SER B   8      26.423  13.643  50.641  1.00 36.95 LIG 0.42  C 
ATOM     17  N   SER B   8      25.739  12.708  51.538  1.00 41.16 LIG 0.62  N 
BRANCH 16 18
ATOM     18  CB  SER B   8      25.413  14.460  49.837  1.00 41.03 LIG 0.21  C 
BRANCH 18 19
ATOM     19 OG   SER B   8      24.648  13.660  48.952  1.00 28.13 LIG-0.40  OA
ATOM     20 HG   SER B   8      23.941  13.417  49.333  1.00 28.13 LIG 0.21  HD
ENDBRANCH 18 19
ENDBRANCH 16 18
ENDBRANCH 13 16
ENDBRANCH 11 12
BRANCH 11 21
ATOM     21  CB  SER B   9      30.822  15.331  51.187  1.00 39.19 LIG 0.20  C 
BRANCH 21 22
ATOM     22 OG   SER B   9      31.128  14.374  52.192  1.00 46.55 LIG-0.40  OA
ATOM     23 HG   SER B   9      31.956  14.233  52.202  1.00 46.55 LIG 0.21  HD
ENDBRANCH 21 22
ENDBRANCH 11 21
ENDBRANCH 8 11
ENDBRANCH 6 7
ENDBRANCH 3 6
ENDBRANCH 1 2
BRANCH 1 24
ATOM     24  C   VAL B  11      34.075  22.288  51.646  1.00 38.72 LIG 0.24  C 
ATOM     25 O    VAL B  11      34.559  21.868  50.592  1.00 29.21 LIG-0.27  OA
ATOM     26  N   ASP B  12      34.333  23.507  52.109  1.00 41.61 LIG-0.34  N 
ATOM     27 H    ASP B  12      33.912  23.882  52.758  1.00 41.61 LIG 0.16  HD
BRANCH 26 28
ATOM     28  CA  ASP B  12      35.392  24.313  51.516  1.00 41.44 LIG 0.19  C 
BRANCH 28 29
ATOM     29  C   ASP B  12      36.743  23.622  51.687  1.00 45.77 LIG 0.24  C 
ATOM     30 O    ASP B  12      37.159  23.327  52.811  1.00 50.52 LIG-0.27  OA
ATOM     31  N   LEU B  13      37.402  23.352  50.561  1.00 51.98 LIG-0.35  N 
ATOM     32 H    LEU B  13      37.069  23.486  49.779  1.00 51.98 LIG 0.16  HD
BRANCH 31 33
ATOM     33  CA  LEU B  13      38.757  22.802  50.534  1.00 53.13 LIG 0.16  C 
BRANCH 33 34
ATOM     34  CB  LEU B  13      38.718  21.309  50.901  1.00 52.95 LIG 0.04  C 
BRANCH 34 35
ATOM     35  CG  LEU B  13      37.970  20.284  50.040  1.00 63.18 LIG-0.02  C 
ATOM     36  CD1 LEU B  13      38.948  19.431  49.248  1.00 59.33 LIG 0.01  C 
ATOM     37  CD2 LEU B  13      37.088  19.384  50.896  1.00 64.76 LIG 0.01  C 
ENDBRANCH 34 35
ENDBRANCH 33 34
BRANCH 33 38
ATOM     38  C   LEU B  13      39.421  23.005  49.172  1.00 54.04 LIG 0.22  C 
ATOM     39 O    LEU B  13      38.754  22.992  48.137  1.00 55.16 LIG-0.29  OA
ENDBRANCH 33 38
ENDBRANCH 31 33
ENDBRANCH 28 29
BRANCH 28 40
ATOM     40  CB  ASP B  12      35.434  25.716  52.124  1.00 42.16 LIG 0.15  C 
BRANCH 40 41
ATOM     41  CG  ASP B  12      36.717  26.459  51.779  1.00 44.94 LIG 0.17  C 
ATOM     42 OD2  ASP B  12      36.727  27.169  50.748  1.00 53.96 LIG-0.65  OA
ATOM     43 OD1  ASP B  12      37.710  26.340  52.538  1.00 32.79 LIG-0.65  OA
ENDBRANCH 40 41
ENDBRANCH 28 40
ENDBRANCH 26 28
ENDBRANCH 1 24
BRANCH 1 44
ATOM     44  CB  VAL B  11      33.912  20.433  53.361  1.00 40.95 LIG 0.01  C 
ATOM     45  CG2 VAL B  11      33.251  20.253  54.730  1.00 48.12 LIG 0.01  C 
ATOM     46  CG1 VAL B  11      35.363  20.878  53.502  1.00 38.34 LIG 0.01  C 
ENDBRANCH 1 44
TORSDOF 20
ENDMDL
MODEL 9
USER: ADFR SOLUTION from run 46
USER: SCORE 13.616467 LL:  -2.755 LR: -12.929 RR:   0.000 FEB:  -6.963
USER: RMSD 1.964349
USER: SEED 45
USER: STATUS no improvement in best in 6 clusters for 5 generations
USER: GENES 22
USER: genes 0 Translation |==|  0.51027 0.59405 0.61012
USER: genes 1 Rotation |==|  0.41964 0.43970 0.50594 0.98977
USER: genes 2 Torsion [CB]-CA--N-[C] |==|  0.22636
USER: genes 3 Torsion [N]-C--CA-[N] |==|  0.29285
USER: genes 4 Torsion [C]-CA--N-[C] |==|  0.50532
USER: genes 5 Torsion [N]-C--CA-[N] |==|  0.48052
USER: genes 6 Torsion [C]-CA--N-[C] |==|  0.74287
USER: genes 7 Torsion [N]-C--CA-[N] |==|  0.31238
USER: genes 8 Torsion [C]-CA--CB-[OG] |==|  0.46779
USER: genes 9 Torsion [CA]-CB--OG-[HG] |==|  0.31426
USER: genes 10 Torsion [C]-CA--CB-[OG] |==|  0.66171
USER: genes 11 Torsion [CA]-CB--OG-[HG] |==|  0.19888
USER: genes 12 Torsion [N]-CA--C-[N] |==|  0.42909
USER: genes 13 Torsion [C]-N--CA-[C] |==|  0.81111
USER: genes 14 Torsion [N]-CA--C-[N] |==|  0.45258
USER: genes 15 Torsion [C]-N--CA-[CB] |==|  0.85622
USER: genes 16 Torsion [N]-CA--CB-[CG] |==|  0.85948
USER: genes 17 Torsion [CA]-CB--CG-[CD1] |==|  0.35072
USER: genes 18 Torsion [N]-CA--C-[O] |==|  0.14130
USER: genes 19 Torsion [N]-CA--CB-[CG] |==|  0.58105
USER: genes 20 Torsion [CA]-CB--CG-[OD2] |==|  0.27797
USER: genes 21 Torsion [N]-CA--CB-[CG2] |==|  0.50925
ROOT
ATOM      1  CA  VAL B  11      33.550  21.814  52.400  1.00 37.38 LIG 0.18  C 
ENDROOT
BRANCH 1 2
ATOM      2  N   VAL B  11      32.611  21.048  51.585  1.00 31.05 LIG-0.35  N 
ATOM      3  C   GLY B  10      31.429  20.674  52.069  1.00 33.93 LIG 0.24  C 
ATOM      4 O    GLY B  10      31.041  20.973  53.199  1.00 34.12 LIG-0.27  OA
ATOM      5 H    VAL B  11      32.887  20.869  50.791  1.00 31.05 LIG 0.16  HD
BRANCH 3 6
ATOM      6  CA  GLY B  10      30.549  19.840  51.161  1.00 30.55 LIG 0.23  C 
BRANCH 6 7
ATOM      7  N   GLY B  10      30.550  18.458  51.603  1.00 34.58 LIG-0.35  N 
ATOM      8  C   SER B   9      29.881  17.514  50.947  1.00 38.05 LIG 0.24  C 
ATOM      9 O    SER B   9      29.147  17.751  49.995  1.00 29.17 LIG-0.27  OA
ATOM     10 H    GLY B  10      31.015  18.312  52.312  1.00 34.58 LIG 0.16  HD
BRANCH 8 11
ATOM     11  CA  SER B   9      30.072  16.085  51.440  1.00 34.70 LIG 0.20  C 
BRANCH 11 12
ATOM     12  N   SER B   9      29.175  15.150  50.765  1.00 35.55 LIG-0.34  N 
ATOM     13  C   SER B   8      27.987  14.844  51.276  1.00 40.46 LIG 0.26  C 
ATOM     14 O    SER B   8      27.547  15.372  52.297  1.00 45.68 LIG-0.27  OA
ATOM     15 H    SER B   9      29.481  14.829  50.028  1.00 35.55 LIG 0.16  HD
BRANCH 13 16
ATOM     16  CA  SER B   8      27.158  13.809  50.509  1.00 36.95 LIG 0.42  C 
ATOM     17  N   SER B   8      27.005  12.556  51.254  1.00 41.16 LIG 0.62  N 
BRANCH 16 18
ATOM     18  CB  SER B   8      25.794  14.411  50.176  1.00 41.03 LIG 0.21  C 
BRANCH 18 19
ATOM     19 OG   SER B   8      25.065  13.627  49.248  1.00 28.13 LIG-0.40  OA
ATOM     20 HG   SER B   8      24.389  13.303  49.625  1.00 28.13 LIG 0.21  HD
ENDBRANCH 18 19
ENDBRANCH 16 18
ENDBRANCH 13 16
ENDBRANCH 11 12
BRANCH 11 21
ATOM     21  CB  SER B   9      31.525  15.663  51.233  1.00 39.19 LIG 0.20  C 
BRANCH 21 22
ATOM     22 OG   SER B   9      31.597  14.507  50.410  1.00 46.55 LIG-0.40  OA
ATOM     23 HG   SER B   9      31.401  14.713  49.620  1.00 46.55 LIG 0.21  HD
ENDBRANCH 21 22
ENDBRANCH 11 21
ENDBRANCH 8 11
ENDBRANCH 6 7
ENDBRANCH 3 6
ENDBRANCH 1 2
BRANCH 1 24
ATOM     24  C   VAL B  11      34.518  22.633  51.534  1.00 38.72 LIG 0.24  C 
ATOM     25 O    VAL B  11      34.772  22.300  50.373  1.00 29.21 LIG-0.27  OA
ATOM     26  N   ASP B  12      35.041  23.723  52.089  1.00 41.61 LIG-0.34  N 
ATOM     27 H    ASP B  12      34.785  24.059  52.837  1.00 41.61 LIG 0.16  HD
BRANCH 26 28
ATOM     28  CA  ASP B  12      36.125  24.440  51.431  1.00 41.44 LIG 0.19  C 
BRANCH 28 29
ATOM     29  C   ASP B  12      37.396  23.593  51.430  1.00 45.77 LIG 0.24  C 
ATOM     30 O    ASP B  12      37.500  22.617  52.178  1.00 50.52 LIG-0.27  OA
ATOM     31  N   LEU B  13      38.341  23.968  50.569  1.00 51.98 LIG-0.35  N 
ATOM     32 H    LEU B  13      38.228  24.598  49.994  1.00 51.98 LIG 0.16  HD
BRANCH 31 33
ATOM     33  CA  LEU B  13      39.665  23.353  50.509  1.00 53.13 LIG 0.16  C 
BRANCH 33 34
ATOM     34  CB  LEU B  13      40.296  23.342  51.912  1.00 52.95 LIG 0.04  C 
BRANCH 34 35
ATOM     35  CG  LEU B  13      40.364  24.606  52.778  1.00 63.18 LIG-0.02  C 
ATOM     36  CD1 LEU B  13      39.750  24.354  54.147  1.00 59.33 LIG 0.01  C 
ATOM     37  CD2 LEU B  13      41.801  25.083  52.946  1.00 64.76 LIG 0.01  C 
ENDBRANCH 34 35
ENDBRANCH 33 34
BRANCH 33 38
ATOM     38  C   LEU B  13      39.605  21.936  49.935  1.00 54.04 LIG 0.22  C 
ATOM     39 O    LEU B  13      39.025  21.712  48.873  1.00 55.16 LIG-0.29  OA
ENDBRANCH 33 38
ENDBRANCH 31 33
ENDBRANCH 28 29
BRANCH 28 40
ATOM     40  CB  ASP B  12      36.388  25.790  52.099  1.00 42.16 LIG 0.15  C 
BRANCH 40 41
ATOM     41  CG  ASP B  12      36.935  26.823  51.123  1.00 44.94 LIG 0.17  C 
ATOM     42 OD2  ASP B  12      36.139  27.667  50.652  1.00 53.96 LIG-0.65  OA
ATOM     43 OD1  ASP B  12      38.155  26.795  50.831  1.00 32.79 LIG-0.65  OA
ENDBRANCH 40 41
ENDBRANCH 28 40
ENDBRANCH 26 28
ENDBRANCH 1 24
BRANCH 1 44
ATOM     44  CB  VAL B  11      34.347  20.876  53.348  1.00 40.95 LIG 0.01  C 
ATOM     45  CG2 VAL B  11      35.277  21.673  54.266  1.00 48.12 LIG 0.01  C 
ATOM     46  CG1 VAL B  11      35.119  19.827  52.554  1.00 38.34 LIG 0.01  C 
ENDBRANCH 1 44
TORSDOF 20
ENDMDL
MODEL 10
USER: ADFR SOLUTION from run 87
USER: SCORE 13.517541 LL:  -2.292 LR: -12.905 RR:   0.000 FEB:  -6.939
USER: RMSD 3.992540
USER: SEED 86
USER: STATUS no improvement in best in 5 clusters for 5 generations
USER: GENES 22
USER: genes 0 Translation |==|  0.48445 0.50841 0.58117
USER: genes 1 Rotation |==|  0.23899 0.19521 0.52692 0.79708
USER: genes 2 Torsion [CB]-CA--N-[C] |==|  0.26590
USER: genes 3 Torsion [N]-C--CA-[N] |==|  0.43917
USER: genes 4 Torsion [C]-CA--N-[C] |==|  0.71111
USER: genes 5 Torsion [N]-C--CA-[N] |==|  0.44469
USER: genes 6 Torsion [C]-CA--N-[C] |==|  0.55107
USER: genes 7 Torsion [N]-C--CA-[N] |==|  0.31586
USER: genes 8 Torsion [C]-CA--CB-[OG] |==|  0.63219
USER: genes 9 Torsion [CA]-CB--OG-[HG] |==|  0.34028
USER: genes 10 Torsion [C]-CA--CB-[OG] |==|  0.13917
USER: genes 11 Torsion [CA]-CB--OG-[HG] |==|  0.23366
USER: genes 12 Torsion [N]-CA--C-[N] |==|  0.32267
USER: genes 13 Torsion [C]-N--CA-[C] |==|  0.73998
USER: genes 14 Torsion [N]-CA--C-[N] |==|  0.34518
USER: genes 15 Torsion [C]-N--CA-[CB] |==|  0.86846
USER: genes 16 Torsion [N]-CA--CB-[CG] |==|  0.83565
USER: genes 17 Torsion [CA]-CB--CG-[CD1] |==|  0.58856
USER: genes 18 Torsion [N]-CA--C-[O] |==|  0.26376
USER: genes 19 Torsion [N]-CA--CB-[CG] |==|  0.59945
USER: genes 20 Torsion [CA]-CB--CG-[OD2] |==|  0.96468
USER: genes 21 Torsion [N]-CA--CB-[CG2] |==|  0.75351
ROOT
ATOM      1  CA  VAL B  11      32.853  19.823  51.966  1.00 37.38 LIG 0.18  C 
ENDROOT
BRANCH 1 2
ATOM      2  N   VAL B  11      32.884  18.379  51.748  1.00 31.05 LIG-0.35  N 
ATOM      3  C   GLY B  10      31.975  17.780  50.982  1.00 33.93 LIG 0.24  C 
ATOM      4 O    GLY B  10      31.088  18.395  50.388  1.00 34.12 LIG-0.27  OA
ATOM      5 H    VAL B  11      33.524  17.969  52.150  1.00 31.05 LIG 0.16  HD
BRANCH 3 6
ATOM      6  CA  GLY B  10      32.065  16.273  50.861  1.00 30.55 LIG 0.23  C 
BRANCH 6 7
ATOM      7  N   GLY B  10      30.781  15.731  50.459  1.00 34.58 LIG-0.35  N 
ATOM      8  C   SER B   9      29.980  15.115  51.324  1.00 38.05 LIG 0.24  C 
ATOM      9 O    SER B   9      30.301  14.877  52.483  1.00 29.17 LIG-0.27  OA
ATOM     10 H    GLY B  10      30.593  15.843  49.627  1.00 34.58 LIG 0.16  HD
BRANCH 8 11
ATOM     11  CA  SER B   9      28.607  14.709  50.802  1.00 34.70 LIG 0.20  C 
BRANCH 11 12
ATOM     12  N   SER B   9      27.998  13.666  51.624  1.00 35.55 LIG-0.34  N 
ATOM     13  C   SER B   8      26.997  12.923  51.164  1.00 40.46 LIG 0.26  C 
ATOM     14 O    SER B   8      26.574  13.019  50.011  1.00 45.68 LIG-0.27  OA
ATOM     15 H    SER B   9      28.340  13.583  52.409  1.00 35.55 LIG 0.16  HD
BRANCH 13 16
ATOM     16  CA  SER B   8      26.401  11.900  52.135  1.00 36.95 LIG 0.42  C 
ATOM     17  N   SER B   8      25.018  12.220  52.500  1.00 41.16 LIG 0.62  N 
BRANCH 16 18
ATOM     18  CB  SER B   8      26.489  10.509  51.509  1.00 41.03 LIG 0.21  C 
BRANCH 18 19
ATOM     19 OG   SER B   8      25.269   9.794  51.602  1.00 28.13 LIG-0.40  OA
ATOM     20 HG   SER B   8      25.013   9.574  50.833  1.00 28.13 LIG 0.21  HD
ENDBRANCH 18 19
ENDBRANCH 16 18
ENDBRANCH 13 16
ENDBRANCH 11 12
BRANCH 11 21
ATOM     21  CB  SER B   9      27.699  15.936  50.748  1.00 39.19 LIG 0.20  C 
BRANCH 21 22
ATOM     22 OG   SER B   9      28.346  17.007  50.075  1.00 46.55 LIG-0.40  OA
ATOM     23 HG   SER B   9      28.241  16.921  49.246  1.00 46.55 LIG 0.21  HD
ENDBRANCH 21 22
ENDBRANCH 11 21
ENDBRANCH 8 11
ENDBRANCH 6 7
ENDBRANCH 3 6
ENDBRANCH 1 2
BRANCH 1 24
ATOM     24  C   VAL B  11      34.265  20.426  51.984  1.00 38.72 LIG 0.24  C 
ATOM     25 O    VAL B  11      35.088  20.095  52.841  1.00 29.21 LIG-0.27  OA
ATOM     26  N   ASP B  12      34.557  21.293  51.019  1.00 41.61 LIG-0.34  N 
ATOM     27 H    ASP B  12      34.063  21.442  50.331  1.00 41.61 LIG 0.16  HD
BRANCH 26 28
ATOM     28  CA  ASP B  12      35.785  22.075  51.075  1.00 41.44 LIG 0.19  C 
BRANCH 28 29
ATOM     29  C   ASP B  12      35.523  23.427  51.734  1.00 45.77 LIG 0.24  C 
ATOM     30 O    ASP B  12      34.640  24.175  51.304  1.00 50.52 LIG-0.27  OA
ATOM     31  N   LEU B  13      36.282  23.713  52.791  1.00 51.98 LIG-0.35  N 
ATOM     32 H    LEU B  13      36.837  23.153  53.135  1.00 51.98 LIG 0.16  HD
BRANCH 31 33
ATOM     33  CA  LEU B  13      36.255  25.004  53.476  1.00 53.13 LIG 0.16  C 
BRANCH 33 34
ATOM     34  CB  LEU B  13      36.328  26.141  52.442  1.00 52.95 LIG 0.04  C 
BRANCH 34 35
ATOM     35  CG  LEU B  13      37.509  26.278  51.472  1.00 63.18 LIG-0.02  C 
ATOM     36  CD1 LEU B  13      37.774  27.740  51.151  1.00 59.33 LIG 0.01  C 
ATOM     37  CD2 LEU B  13      38.770  25.648  52.048  1.00 64.76 LIG 0.01  C 
ENDBRANCH 34 35
ENDBRANCH 33 34
BRANCH 33 38
ATOM     38  C   LEU B  13      35.010  25.152  54.352  1.00 54.04 LIG 0.22  C 
ATOM     39 O    LEU B  13      35.047  24.877  55.551  1.00 55.16 LIG-0.29  OA
ENDBRANCH 33 38
ENDBRANCH 31 33
ENDBRANCH 28 29
BRANCH 28 40
ATOM     40  CB  ASP B  12      36.385  22.273  49.682  1.00 42.16 LIG 0.15  C 
BRANCH 40 41
ATOM     41  CG  ASP B  12      37.907  22.256  49.699  1.00 44.94 LIG 0.17  C 
ATOM     42 OD2  ASP B  12      38.484  22.334  50.807  1.00 53.96 LIG-0.65  OA
ATOM     43 OD1  ASP B  12      38.525  22.159  48.610  1.00 32.79 LIG-0.65  OA
ENDBRANCH 40 41
ENDBRANCH 28 40
ENDBRANCH 26 28
ENDBRANCH 1 24
BRANCH 1 44
ATOM     44  CB  VAL B  11      32.111  20.164  53.287  1.00 40.95 LIG 0.01  C 
ATOM     45  CG2 VAL B  11      30.609  20.337  53.052  1.00 48.12 LIG 0.01  C 
ATOM     46  CG1 VAL B  11      32.714  21.400  53.946  1.00 38.34 LIG 0.01  C 
ENDBRANCH 1 44
TORSDOF 20
ENDMDL
MODEL 11
USER: ADFR SOLUTION from run 43
USER: SCORE 13.096182 LL:  -2.539 LR: -12.889 RR:   0.000 FEB:  -6.923
USER: RMSD 5.232618
USER: SEED 42
USER: STATUS no improvement in best in 3 clusters for 5 generations
USER: GENES 22
USER: genes 0 Translation |==|  0.59469 0.70282 0.59633
USER: genes 1 Rotation |==|  0.16056 0.23378 0.54722 0.74836
USER: genes 2 Torsion [CB]-CA--N-[C] |==|  0.41413
USER: genes 3 Torsion [N]-C--CA-[N] |==|  0.30015
USER: genes 4 Torsion [C]-CA--N-[C] |==|  0.78016
USER: genes 5 Torsion [N]-C--CA-[N] |==|  0.06813
USER: genes 6 Torsion [C]-CA--N-[C] |==|  0.17707
USER: genes 7 Torsion [N]-C--CA-[N] |==|  0.34413
USER: genes 8 Torsion [C]-CA--CB-[OG] |==|  0.21641
USER: genes 9 Torsion [CA]-CB--OG-[HG] |==|  0.36529
USER: genes 10 Torsion [C]-CA--CB-[OG] |==|  0.25422
USER: genes 11 Torsion [CA]-CB--OG-[HG] |==|  0.27133
USER: genes 12 Torsion [N]-CA--C-[N] |==|  0.22480
USER: genes 13 Torsion [C]-N--CA-[C] |==|  0.84444
USER: genes 14 Torsion [N]-CA--C-[N] |==|  0.38416
USER: genes 15 Torsion [C]-N--CA-[CB] |==|  0.24093
USER: genes 16 Torsion [N]-CA--CB-[CG] |==|  0.16199
USER: genes 17 Torsion [CA]-CB--CG-[CD1] |==|  0.40428
USER: genes 18 Torsion [N]-CA--C-[O] |==|  0.78068
USER: genes 19 Torsion [N]-CA--CB-[CG] |==|  0.87536
USER: genes 20 Torsion [CA]-CB--CG-[OD2] |==|  0.75093
USER: genes 21 Torsion [N]-CA--CB-[CG2] |==|  0.98562
ROOT
ATOM      1  CA  VAL B  11      35.830  24.343  52.193  1.00 37.38 LIG 0.18  C 
ENDROOT
BRANCH 1 2
ATOM      2  N   VAL B  11      35.550  22.938  52.478  1.00 31.05 LIG-0.35  N 
ATOM      3  C   GLY B  10      35.400  22.054  51.495  1.00 33.93 LIG 0.24  C 
ATOM      4 O    GLY B  10      35.521  22.347  50.305  1.00 34.12 LIG-0.27  OA
ATOM      5 H    VAL B  11      35.494  22.746  53.315  1.00 31.05 LIG 0.16  HD
BRANCH 3 6
ATOM      6  CA  GLY B  10      35.063  20.633  51.896  1.00 30.55 LIG 0.23  C 
BRANCH 6 7
ATOM      7  N   GLY B  10      33.683  20.337  51.559  1.00 34.58 LIG-0.35  N 
ATOM      8  C   SER B   9      32.673  20.751  52.320  1.00 38.05 LIG 0.24  C 
ATOM      9 O    SER B   9      32.833  21.318  53.395  1.00 29.17 LIG-0.27  OA
ATOM     10 H    GLY B  10      33.584  19.880  50.837  1.00 34.58 LIG 0.16  HD
BRANCH 8 11
ATOM     11  CA  SER B   9      31.272  20.486  51.784  1.00 34.70 LIG 0.20  C 
BRANCH 11 12
ATOM     12  N   SER B   9      31.248  19.359  50.854  1.00 35.55 LIG-0.34  N 
ATOM     13  C   SER B   8      31.555  18.130  51.253  1.00 40.46 LIG 0.26  C 
ATOM     14 O    SER B   8      31.808  17.855  52.426  1.00 45.68 LIG-0.27  OA
ATOM     15 H    SER B   9      31.022  19.564  50.050  1.00 35.55 LIG 0.16  HD
BRANCH 13 16
ATOM     16  CA  SER B   8      31.550  17.040  50.177  1.00 36.95 LIG 0.42  C 
ATOM     17  N   SER B   8      32.832  16.334  50.095  1.00 41.16 LIG 0.62  N 
BRANCH 16 18
ATOM     18  CB  SER B   8      30.411  16.062  50.463  1.00 41.03 LIG 0.21  C 
BRANCH 18 19
ATOM     19 OG   SER B   8      29.148  16.571  50.070  1.00 28.13 LIG-0.40  OA
ATOM     20 HG   SER B   8      28.739  15.990  49.621  1.00 28.13 LIG 0.21  HD
ENDBRANCH 18 19
ENDBRANCH 16 18
ENDBRANCH 13 16
ENDBRANCH 11 12
BRANCH 11 21
ATOM     21  CB  SER B   9      30.321  20.227  52.951  1.00 39.19 LIG 0.20  C 
BRANCH 21 22
ATOM     22 OG   SER B   9      29.712  21.438  53.376  1.00 46.55 LIG-0.40  OA
ATOM     23 HG   SER B   9      28.950  21.506  53.029  1.00 46.55 LIG 0.21  HD
ENDBRANCH 21 22
ENDBRANCH 11 21
ENDBRANCH 8 11
ENDBRANCH 6 7
ENDBRANCH 3 6
ENDBRANCH 1 2
BRANCH 1 24
ATOM     24  C   VAL B  11      37.336  24.608  52.060  1.00 38.72 LIG 0.24  C 
ATOM     25 O    VAL B  11      37.990  25.054  53.006  1.00 29.21 LIG-0.27  OA
ATOM     26  N   ASP B  12      37.895  24.309  50.891  1.00 41.61 LIG-0.34  N 
ATOM     27 H    ASP B  12      37.504  23.872  50.261  1.00 41.61 LIG 0.16  HD
BRANCH 26 28
ATOM     28  CA  ASP B  12      39.261  24.721  50.598  1.00 41.44 LIG 0.19  C 
BRANCH 28 29
ATOM     29  C   ASP B  12      39.404  26.234  50.759  1.00 45.77 LIG 0.24  C 
ATOM     30 O    ASP B  12      38.514  26.993  50.365  1.00 50.52 LIG-0.27  OA
ATOM     31  N   LEU B  13      40.517  26.649  51.360  1.00 51.98 LIG-0.35  N 
ATOM     32 H    LEU B  13      41.093  26.111  51.706  1.00 51.98 LIG 0.16  HD
BRANCH 31 33
ATOM     33  CA  LEU B  13      40.880  28.059  51.497  1.00 53.13 LIG 0.16  C 
BRANCH 33 34
ATOM     34  CB  LEU B  13      40.236  28.639  52.767  1.00 52.95 LIG 0.04  C 
BRANCH 34 35
ATOM     35  CG  LEU B  13      40.512  28.048  54.156  1.00 63.18 LIG-0.02  C 
ATOM     36  CD1 LEU B  13      40.525  29.142  55.212  1.00 59.33 LIG 0.01  C 
ATOM     37  CD2 LEU B  13      39.471  26.999  54.524  1.00 64.76 LIG 0.01  C 
ENDBRANCH 34 35
ENDBRANCH 33 34
BRANCH 33 38
ATOM     38  C   LEU B  13      42.397  28.251  51.525  1.00 54.04 LIG 0.22  C 
ATOM     39 O    LEU B  13      43.041  28.033  52.551  1.00 55.16 LIG-0.29  OA
ENDBRANCH 33 38
ENDBRANCH 31 33
ENDBRANCH 28 29
BRANCH 28 40
ATOM     40  CB  ASP B  12      39.683  24.297  49.190  1.00 42.16 LIG 0.15  C 
BRANCH 40 41
ATOM     41  CG  ASP B  12      39.283  22.862  48.873  1.00 44.94 LIG 0.17  C 
ATOM     42 OD2  ASP B  12      40.093  21.950  49.154  1.00 53.96 LIG-0.65  OA
ATOM     43 OD1  ASP B  12      38.162  22.646  48.351  1.00 32.79 LIG-0.65  OA
ENDBRANCH 40 41
ENDBRANCH 28 40
ENDBRANCH 26 28
ENDBRANCH 1 24
BRANCH 1 44
ATOM     44  CB  VAL B  11      35.222  25.259  53.291  1.00 40.95 LIG 0.01  C 
ATOM     45  CG2 VAL B  11      34.395  24.451  54.294  1.00 48.12 LIG 0.01  C 
ATOM     46  CG1 VAL B  11      34.397  26.380  52.669  1.00 38.34 LIG 0.01  C 
ENDBRANCH 1 44
TORSDOF 20
ENDMDL
MODEL 12
USER: ADFR SOLUTION from run 195
USER: SCORE 13.594267 LL:  -2.862 LR: -12.877 RR:   0.000 FEB:  -6.911
USER: RMSD 5.723952
USER: SEED 194
USER: STATUS no improvement in best in 7 clusters for 5 generations
USER: GENES 22
USER: genes 0 Translation |==|  0.44783 0.44291 0.54245
USER: genes 1 Rotation |==|  0.11560 0.22476 0.50051 0.66273
USER: genes 2 Torsion [CB]-CA--N-[C] |==|  0.24444
USER: genes 3 Torsion [N]-C--CA-[N] |==|  0.50150
USER: genes 4 Torsion [C]-CA--N-[C] |==|  0.45078
USER: genes 5 Torsion [N]-C--CA-[N] |==|  0.56319
USER: genes 6 Torsion [C]-CA--N-[C] |==|  0.16764
USER: genes 7 Torsion [N]-C--CA-[N] |==|  0.20960
USER: genes 8 Torsion [C]-CA--CB-[OG] |==|  0.41404
USER: genes 9 Torsion [CA]-CB--OG-[HG] |==|  0.81727
USER: genes 10 Torsion [C]-CA--CB-[OG] |==|  0.50498
USER: genes 11 Torsion [CA]-CB--OG-[HG] |==|  0.26908
USER: genes 12 Torsion [N]-CA--C-[N] |==|  0.49378
USER: genes 13 Torsion [C]-N--CA-[C] |==|  0.74556
USER: genes 14 Torsion [N]-CA--C-[N] |==|  0.99130
USER: genes 15 Torsion [C]-N--CA-[CB] |==|  0.28260
USER: genes 16 Torsion [N]-CA--CB-[CG] |==|  0.80544
USER: genes 17 Torsion [CA]-CB--CG-[CD1] |==|  0.33514
USER: genes 18 Torsion [N]-CA--C-[O] |==|  0.32480
USER: genes 19 Torsion [N]-CA--CB-[CG] |==|  0.17517
USER: genes 20 Torsion [CA]-CB--CG-[OD2] |==|  0.95790
USER: genes 21 Torsion [N]-CA--CB-[CG2] |==|  0.11574
ROOT
ATOM      1  CA  VAL B  11      31.864  18.300  51.385  1.00 37.38 LIG 0.18  C 
ENDROOT
BRANCH 1 2
ATOM      2  N   VAL B  11      31.278  17.034  51.817  1.00 31.05 LIG-0.35  N 
ATOM      3  C   GLY B  10      30.277  16.475  51.143  1.00 33.93 LIG 0.24  C 
ATOM      4 O    GLY B  10      29.810  16.958  50.111  1.00 34.12 LIG-0.27  OA
ATOM      5 H    VAL B  11      31.633  16.697  52.525  1.00 31.05 LIG 0.16  HD
BRANCH 3 6
ATOM      6  CA  GLY B  10      29.707  15.188  51.703  1.00 30.55 LIG 0.23  C 
BRANCH 6 7
ATOM      7  N   GLY B  10      28.638  14.706  50.848  1.00 34.58 LIG-0.35  N 
ATOM      8  C   SER B   9      28.208  13.449  50.908  1.00 38.05 LIG 0.24  C 
ATOM      9 O    SER B   9      28.739  12.592  51.605  1.00 29.17 LIG-0.27  OA
ATOM     10 H    GLY B  10      28.316  15.298  50.313  1.00 34.58 LIG 0.16  HD
BRANCH 8 11
ATOM     11  CA  SER B   9      26.996  13.108  50.050  1.00 34.70 LIG 0.20  C 
BRANCH 11 12
ATOM     12  N   SER B   9      26.286  11.933  50.551  1.00 35.55 LIG-0.34  N 
ATOM     13  C   SER B   8      25.761  11.913  51.771  1.00 40.46 LIG 0.26  C 
ATOM     14 O    SER B   8      25.778  12.893  52.518  1.00 45.68 LIG-0.27  OA
ATOM     15 H    SER B   9      26.244  11.278  49.996  1.00 35.55 LIG 0.16  HD
BRANCH 13 16
ATOM     16  CA  SER B   8      25.091  10.607  52.207  1.00 36.95 LIG 0.42  C 
ATOM     17  N   SER B   8      26.067   9.569  52.550  1.00 41.16 LIG 0.62  N 
BRANCH 16 18
ATOM     18  CB  SER B   8      24.165  10.892  53.388  1.00 41.03 LIG 0.21  C 
BRANCH 18 19
ATOM     19 OG   SER B   8      23.043  10.026  53.421  1.00 28.13 LIG-0.40  OA
ATOM     20 HG   SER B   8      22.555  10.175  52.754  1.00 28.13 LIG 0.21  HD
ENDBRANCH 18 19
ENDBRANCH 16 18
ENDBRANCH 13 16
ENDBRANCH 11 12
BRANCH 11 21
ATOM     21  CB  SER B   9      26.054  14.310  49.998  1.00 39.19 LIG 0.20  C 
BRANCH 21 22
ATOM     22 OG   SER B   9      24.895  14.002  49.237  1.00 46.55 LIG-0.40  OA
ATOM     23 HG   SER B   9      24.273  13.775  49.754  1.00 46.55 LIG 0.21  HD
ENDBRANCH 21 22
ENDBRANCH 11 21
ENDBRANCH 8 11
ENDBRANCH 6 7
ENDBRANCH 3 6
ENDBRANCH 1 2
BRANCH 1 24
ATOM     24  C   VAL B  11      33.356  18.388  51.740  1.00 38.72 LIG 0.24  C 
ATOM     25 O    VAL B  11      33.923  17.470  52.338  1.00 29.21 LIG-0.27  OA
ATOM     26  N   ASP B  12      33.999  19.484  51.349  1.00 41.61 LIG-0.34  N 
ATOM     27 H    ASP B  12      33.676  20.076  50.817  1.00 41.61 LIG 0.16  HD
BRANCH 26 28
ATOM     28  CA  ASP B  12      35.350  19.755  51.823  1.00 41.44 LIG 0.19  C 
BRANCH 28 29
ATOM     29  C   ASP B  12      35.307  20.602  53.093  1.00 45.77 LIG 0.24  C 
ATOM     30 O    ASP B  12      36.349  20.912  53.677  1.00 50.52 LIG-0.27  OA
ATOM     31  N   LEU B  13      34.095  20.985  53.493  1.00 51.98 LIG-0.35  N 
ATOM     32 H    LEU B  13      33.381  20.835  53.035  1.00 51.98 LIG 0.16  HD
BRANCH 31 33
ATOM     33  CA  LEU B  13      33.848  21.697  54.745  1.00 53.13 LIG 0.16  C 
BRANCH 33 34
ATOM     34  CB  LEU B  13      33.643  23.195  54.458  1.00 52.95 LIG 0.04  C 
BRANCH 34 35
ATOM     35  CG  LEU B  13      34.797  24.096  54.002  1.00 63.18 LIG-0.02  C 
ATOM     36  CD1 LEU B  13      34.490  24.719  52.649  1.00 59.33 LIG 0.01  C 
ATOM     37  CD2 LEU B  13      35.071  25.198  55.018  1.00 64.76 LIG 0.01  C 
ENDBRANCH 34 35
ENDBRANCH 33 34
BRANCH 33 38
ATOM     38  C   LEU B  13      32.646  21.122  55.495  1.00 54.04 LIG 0.22  C 
ATOM     39 O    LEU B  13      32.782  20.609  56.605  1.00 55.16 LIG-0.29  OA
ENDBRANCH 33 38
ENDBRANCH 31 33
ENDBRANCH 28 29
BRANCH 28 40
ATOM     40  CB  ASP B  12      36.188  20.454  50.750  1.00 42.16 LIG 0.15  C 
BRANCH 40 41
ATOM     41  CG  ASP B  12      35.631  21.821  50.379  1.00 44.94 LIG 0.17  C 
ATOM     42 OD2  ASP B  12      34.461  22.095  50.732  1.00 53.96 LIG-0.65  OA
ATOM     43 OD1  ASP B  12      36.360  22.621  49.743  1.00 32.79 LIG-0.65  OA
ENDBRANCH 40 41
ENDBRANCH 28 40
ENDBRANCH 26 28
ENDBRANCH 1 24
BRANCH 1 44
ATOM     44  CB  VAL B  11      31.097  19.501  52.004  1.00 40.95 LIG 0.01  C 
ATOM     45  CG2 VAL B  11      30.749  19.241  53.471  1.00 48.12 LIG 0.01  C 
ATOM     46  CG1 VAL B  11      29.851  19.828  51.189  1.00 38.34 LIG 0.01  C 
ENDBRANCH 1 44
TORSDOF 20
ENDMDL
MODEL 13
USER: ADFR SOLUTION from run 53
USER: SCORE 13.106611 LL:  -2.687 LR: -12.821 RR:   0.000 FEB:  -6.855
USER: RMSD 3.632848
USER: SEED 52
USER: STATUS searching
USER: GENES 22
USER: genes 0 Translation |==|  0.56169 0.68327 0.56617
USER: genes 1 Rotation |==|  0.07052 0.33686 0.44615 0.68981
USER: genes 2 Torsion [CB]-CA--N-[C] |==|  0.49089
USER: genes 3 Torsion [N]-C--CA-[N] |==|  0.57126
USER: genes 4 Torsion [C]-CA--N-[C] |==|  0.49502
USER: genes 5 Torsion [N]-C--CA-[N] |==|  0.50615
USER: genes 6 Torsion [C]-CA--N-[C] |==|  0.18678
USER: genes 7 Torsion [N]-C--CA-[N] |==|  0.48491
USER: genes 8 Torsion [C]-CA--CB-[OG] |==|  0.70240
USER: genes 9 Torsion [CA]-CB--OG-[HG] |==|  0.20941
USER: genes 10 Torsion [C]-CA--CB-[OG] |==|  0.55370
USER: genes 11 Torsion [CA]-CB--OG-[HG] |==|  0.22253
USER: genes 12 Torsion [N]-CA--C-[N] |==|  0.38266
USER: genes 13 Torsion [C]-N--CA-[C] |==|  0.67895
USER: genes 14 Torsion [N]-CA--C-[N] |==|  0.92130
USER: genes 15 Torsion [C]-N--CA-[CB] |==|  0.33933
USER: genes 16 Torsion [N]-CA--CB-[CG] |==|  0.71375
USER: genes 17 Torsion [CA]-CB--CG-[CD1] |==|  0.75726
USER: genes 18 Torsion [N]-CA--C-[O] |==|  0.83141
USER: genes 19 Torsion [N]-CA--CB-[CG] |==|  0.17765
USER: genes 20 Torsion [CA]-CB--CG-[OD2] |==|  0.24040
USER: genes 21 Torsion [N]-CA--CB-[CG2] |==|  0.52114
ROOT
ATOM      1  CA  VAL B  11      34.939  23.888  51.741  1.00 37.38 LIG 0.18  C 
ENDROOT
BRANCH 1 2
ATOM      2  N   VAL B  11      33.799  23.028  52.048  1.00 31.05 LIG-0.35  N 
ATOM      3  C   GLY B  10      33.617  21.875  51.410  1.00 33.93 LIG 0.24  C 
ATOM      4 O    GLY B  10      34.399  21.447  50.561  1.00 34.12 LIG-0.27  OA
ATOM      5 H    VAL B  11      33.277  23.330  52.662  1.00 31.05 LIG 0.16  HD
BRANCH 3 6
ATOM      6  CA  GLY B  10      32.377  21.081  51.768  1.00 30.55 LIG 0.23  C 
BRANCH 6 7
ATOM      7  N   GLY B  10      32.596  19.672  51.498  1.00 34.58 LIG-0.35  N 
ATOM      8  C   SER B   9      31.666  18.758  51.762  1.00 38.05 LIG 0.24  C 
ATOM      9 O    SER B   9      30.613  19.018  52.333  1.00 29.17 LIG-0.27  OA
ATOM     10 H    GLY B  10      33.365  19.491  51.159  1.00 34.58 LIG 0.16  HD
BRANCH 8 11
ATOM     11  CA  SER B   9      31.972  17.335  51.311  1.00 34.70 LIG 0.20  C 
BRANCH 11 12
ATOM     12  N   SER B   9      30.869  16.422  51.601  1.00 35.55 LIG-0.34  N 
ATOM     13  C   SER B   8      29.702  16.530  50.976  1.00 40.46 LIG 0.26  C 
ATOM     14 O    SER B   8      29.503  17.349  50.078  1.00 45.68 LIG-0.27  OA
ATOM     15 H    SER B   9      31.044  15.827  52.197  1.00 35.55 LIG 0.16  HD
BRANCH 13 16
ATOM     16  CA  SER B   8      28.602  15.554  51.403  1.00 36.95 LIG 0.42  C 
ATOM     17  N   SER B   8      27.322  15.837  50.748  1.00 41.16 LIG 0.62  N 
BRANCH 16 18
ATOM     18  CB  SER B   8      29.060  14.127  51.106  1.00 41.03 LIG 0.21  C 
BRANCH 18 19
ATOM     19 OG   SER B   8      28.381  13.557  50.000  1.00 28.13 LIG-0.40  OA
ATOM     20 HG   SER B   8      28.682  13.884  49.288  1.00 28.13 LIG 0.21  HD
ENDBRANCH 18 19
ENDBRANCH 16 18
ENDBRANCH 13 16
ENDBRANCH 11 12
BRANCH 11 21
ATOM     21  CB  SER B   9      32.281  17.330  49.815  1.00 39.19 LIG 0.20  C 
BRANCH 21 22
ATOM     22 OG   SER B   9      32.133  16.022  49.280  1.00 46.55 LIG-0.40  OA
ATOM     23 HG   SER B   9      31.319  15.866  49.142  1.00 46.55 LIG 0.21  HD
ENDBRANCH 21 22
ENDBRANCH 11 21
ENDBRANCH 8 11
ENDBRANCH 6 7
ENDBRANCH 3 6
ENDBRANCH 1 2
BRANCH 1 24
ATOM     24  C   VAL B  11      36.275  23.175  51.993  1.00 38.72 LIG 0.24  C 
ATOM     25 O    VAL B  11      36.437  22.458  52.984  1.00 29.21 LIG-0.27  OA
ATOM     26  N   ASP B  12      37.227  23.350  51.082  1.00 41.61 LIG-0.34  N 
ATOM     27 H    ASP B  12      37.108  23.726  50.318  1.00 41.61 LIG 0.16  HD
BRANCH 26 28
ATOM     28  CA  ASP B  12      38.588  22.895  51.338  1.00 41.44 LIG 0.19  C 
BRANCH 28 29
ATOM     29  C   ASP B  12      39.543  24.086  51.395  1.00 45.77 LIG 0.24  C 
ATOM     30 O    ASP B  12      40.580  24.027  52.061  1.00 50.52 LIG-0.27  OA
ATOM     31  N   LEU B  13      39.188  25.148  50.673  1.00 51.98 LIG-0.35  N 
ATOM     32 H    LEU B  13      38.507  25.151  50.147  1.00 51.98 LIG 0.16  HD
BRANCH 31 33
ATOM     33  CA  LEU B  13      39.915  26.416  50.697  1.00 53.13 LIG 0.16  C 
BRANCH 33 34
ATOM     34  CB  LEU B  13      40.385  26.772  49.277  1.00 52.95 LIG 0.04  C 
BRANCH 34 35
ATOM     35  CG  LEU B  13      41.841  26.580  48.835  1.00 63.18 LIG-0.02  C 
ATOM     36  CD1 LEU B  13      42.671  27.809  49.170  1.00 59.33 LIG 0.01  C 
ATOM     37  CD2 LEU B  13      42.459  25.354  49.494  1.00 64.76 LIG 0.01  C 
ENDBRANCH 34 35
ENDBRANCH 33 34
BRANCH 33 38
ATOM     38  C   LEU B  13      39.063  27.544  51.281  1.00 54.04 LIG 0.22  C 
ATOM     39 O    LEU B  13      38.004  27.874  50.748  1.00 55.16 LIG-0.29  OA
ENDBRANCH 33 38
ENDBRANCH 31 33
ENDBRANCH 28 29
BRANCH 28 40
ATOM     40  CB  ASP B  12      39.051  21.895  50.278  1.00 42.16 LIG 0.15  C 
BRANCH 40 41
ATOM     41  CG  ASP B  12      39.131  22.517  48.890  1.00 44.94 LIG 0.17  C 
ATOM     42 OD2  ASP B  12      40.190  23.102  48.568  1.00 53.96 LIG-0.65  OA
ATOM     43 OD1  ASP B  12      38.142  22.418  48.123  1.00 32.79 LIG-0.65  OA
ENDBRANCH 40 41
ENDBRANCH 28 40
ENDBRANCH 26 28
ENDBRANCH 1 24
BRANCH 1 44
ATOM     44  CB  VAL B  11      34.873  25.204  52.564  1.00 40.95 LIG 0.01  C 
ATOM     45  CG2 VAL B  11      35.952  26.193  52.118  1.00 48.12 LIG 0.01  C 
ATOM     46  CG1 VAL B  11      34.970  24.916  54.058  1.00 38.34 LIG 0.01  C 
ENDBRANCH 1 44
TORSDOF 20
ENDMDL
MODEL 14
USER: ADFR SOLUTION from run 79
USER: SCORE 13.989915 LL:  -2.447 LR: -12.819 RR:   0.000 FEB:  -6.853
USER: RMSD 4.230644
USER: SEED 78
USER: STATUS searching
USER: GENES 22
USER: genes 0 Translation |==|  0.42210 0.56447 0.66371
USER: genes 1 Rotation |==|  0.27820 0.32627 0.34362 0.88232
USER: genes 2 Torsion [CB]-CA--N-[C] |==|  0.81045
USER: genes 3 Torsion [N]-C--CA-[N] |==|  0.54992
USER: genes 4 Torsion [C]-CA--N-[C] |==|  0.74384
USER: genes 5 Torsion [N]-C--CA-[N] |==|  0.22597
USER: genes 6 Torsion [C]-CA--N-[C] |==|  0.75556
USER: genes 7 Torsion [N]-C--CA-[N] |==|  0.31197
USER: genes 8 Torsion [C]-CA--CB-[OG] |==|  0.50208
USER: genes 9 Torsion [CA]-CB--OG-[HG] |==|  0.27976
USER: genes 10 Torsion [C]-CA--CB-[OG] |==|  0.51813
USER: genes 11 Torsion [CA]-CB--OG-[HG] |==|  0.60502
USER: genes 12 Torsion [N]-CA--C-[N] |==|  0.10898
USER: genes 13 Torsion [C]-N--CA-[C] |==|  0.70339
USER: genes 14 Torsion [N]-CA--C-[N] |==|  0.43699
USER: genes 15 Torsion [C]-N--CA-[CB] |==|  0.31807
USER: genes 16 Torsion [N]-CA--CB-[CG] |==|  0.74316
USER: genes 17 Torsion [CA]-CB--CG-[CD1] |==|  0.72370
USER: genes 18 Torsion [N]-CA--C-[O] |==|  0.24543
USER: genes 19 Torsion [N]-CA--CB-[CG] |==|  0.50980
USER: genes 20 Torsion [CA]-CB--CG-[OD2] |==|  0.60659
USER: genes 21 Torsion [N]-CA--CB-[CG2] |==|  0.90074
ROOT
ATOM      1  CA  VAL B  11      31.170  21.126  53.204  1.00 37.38 LIG 0.18  C 
ENDROOT
BRANCH 1 2
ATOM      2  N   VAL B  11      30.337  20.441  52.218  1.00 31.05 LIG-0.35  N 
ATOM      3  C   GLY B  10      30.348  19.114  52.114  1.00 33.93 LIG 0.24  C 
ATOM      4 O    GLY B  10      31.018  18.388  52.849  1.00 34.12 LIG-0.27  OA
ATOM      5 H    VAL B  11      29.857  20.961  51.730  1.00 31.05 LIG 0.16  HD
BRANCH 3 6
ATOM      6  CA  GLY B  10      29.487  18.505  51.027  1.00 30.55 LIG 0.23  C 
BRANCH 6 7
ATOM      7  N   GLY B  10      29.268  17.097  51.299  1.00 34.58 LIG-0.35  N 
ATOM      8  C   SER B   9      30.068  16.157  50.802  1.00 38.05 LIG 0.24  C 
ATOM      9 O    SER B   9      30.974  16.397  50.012  1.00 29.17 LIG-0.27  OA
ATOM     10 H    GLY B  10      28.589  16.933  51.800  1.00 34.58 LIG 0.16  HD
BRANCH 8 11
ATOM     11  CA  SER B   9      29.805  14.731  51.270  1.00 34.70 LIG 0.20  C 
BRANCH 11 12
ATOM     12  N   SER B   9      28.710  14.108  50.530  1.00 35.55 LIG-0.34  N 
ATOM     13  C   SER B   8      27.449  14.235  50.927  1.00 40.46 LIG 0.26  C 
ATOM     14 O    SER B   8      27.123  14.932  51.888  1.00 45.68 LIG-0.27  OA
ATOM     15 H    SER B   9      28.955  13.665  49.834  1.00 35.55 LIG 0.16  HD
BRANCH 13 16
ATOM     16  CA  SER B   8      26.393  13.490  50.106  1.00 36.95 LIG 0.42  C 
ATOM     17  N   SER B   8      25.773  12.395  50.858  1.00 41.16 LIG 0.62  N 
BRANCH 16 18
ATOM     18  CB  SER B   8      25.338  14.486  49.629  1.00 41.03 LIG 0.21  C 
BRANCH 18 19
ATOM     19 OG   SER B   8      24.311  13.870  48.872  1.00 28.13 LIG-0.40  OA
ATOM     20 HG   SER B   8      23.634  13.758  49.356  1.00 28.13 LIG 0.21  HD
ENDBRANCH 18 19
ENDBRANCH 16 18
ENDBRANCH 13 16
ENDBRANCH 11 12
BRANCH 11 21
ATOM     21  CB  SER B   9      31.080  13.903  51.122  1.00 39.19 LIG 0.20  C 
BRANCH 21 22
ATOM     22 OG   SER B   9      30.822  12.535  51.409  1.00 46.55 LIG-0.40  OA
ATOM     23 HG   SER B   9      31.476  12.207  51.822  1.00 46.55 LIG 0.21  HD
ENDBRANCH 21 22
ENDBRANCH 11 21
ENDBRANCH 8 11
ENDBRANCH 6 7
ENDBRANCH 3 6
ENDBRANCH 1 2
BRANCH 1 24
ATOM     24  C   VAL B  11      32.649  20.738  53.068  1.00 38.72 LIG 0.24  C 
ATOM     25 O    VAL B  11      33.351  20.546  54.064  1.00 29.21 LIG-0.27  OA
ATOM     26  N   ASP B  12      33.118  20.596  51.831  1.00 41.61 LIG-0.34  N 
ATOM     27 H    ASP B  12      32.632  20.585  51.123  1.00 41.61 LIG 0.16  HD
BRANCH 26 28
ATOM     28  CA  ASP B  12      34.548  20.442  51.598  1.00 41.44 LIG 0.19  C 
BRANCH 28 29
ATOM     29  C   ASP B  12      35.128  21.722  50.998  1.00 45.77 LIG 0.24  C 
ATOM     30 O    ASP B  12      34.397  22.530  50.419  1.00 50.52 LIG-0.27  OA
ATOM     31  N   LEU B  13      36.437  21.899  51.167  1.00 51.98 LIG-0.35  N 
ATOM     32 H    LEU B  13      36.924  21.374  51.644  1.00 51.98 LIG 0.16  HD
BRANCH 31 33
ATOM     33  CA  LEU B  13      37.184  23.002  50.564  1.00 53.13 LIG 0.16  C 
BRANCH 33 34
ATOM     34  CB  LEU B  13      37.716  23.933  51.668  1.00 52.95 LIG 0.04  C 
BRANCH 34 35
ATOM     35  CG  LEU B  13      36.925  25.159  52.142  1.00 63.18 LIG-0.02  C 
ATOM     36  CD1 LEU B  13      37.456  26.426  51.489  1.00 59.33 LIG 0.01  C 
ATOM     37  CD2 LEU B  13      35.441  25.011  51.832  1.00 64.76 LIG 0.01  C 
ENDBRANCH 34 35
ENDBRANCH 33 34
BRANCH 33 38
ATOM     38  C   LEU B  13      38.330  22.495  49.688  1.00 54.04 LIG 0.22  C 
ATOM     39 O    LEU B  13      38.148  22.239  48.498  1.00 55.16 LIG-0.29  OA
ENDBRANCH 33 38
ENDBRANCH 31 33
ENDBRANCH 28 29
BRANCH 28 40
ATOM     40  CB  ASP B  12      34.840  19.251  50.684  1.00 42.16 LIG 0.15  C 
BRANCH 40 41
ATOM     41  CG  ASP B  12      36.332  19.018  50.494  1.00 44.94 LIG 0.17  C 
ATOM     42 OD2  ASP B  12      36.734  18.669  49.361  1.00 53.96 LIG-0.65  OA
ATOM     43 OD1  ASP B  12      37.102  19.187  51.471  1.00 32.79 LIG-0.65  OA
ENDBRANCH 40 41
ENDBRANCH 28 40
ENDBRANCH 26 28
ENDBRANCH 1 24
BRANCH 1 44
ATOM     44  CB  VAL B  11      30.671  20.831  54.645  1.00 40.95 LIG 0.01  C 
ATOM     45  CG2 VAL B  11      29.146  20.724  54.695  1.00 48.12 LIG 0.01  C 
ATOM     46  CG1 VAL B  11      31.185  21.881  55.625  1.00 38.34 LIG 0.01  C 
ENDBRANCH 1 44
TORSDOF 20
ENDMDL
MODEL 15
USER: ADFR SOLUTION from run 195
USER: SCORE 13.741719 LL:  -2.851 LR: -12.785 RR:   0.000 FEB:  -6.819
USER: RMSD 6.326622
USER: SEED 194
USER: STATUS no improvement in best in 7 clusters for 5 generations
USER: GENES 22
USER: genes 0 Translation |==|  0.44034 0.42921 0.54419
USER: genes 1 Rotation |==|  0.14388 0.19041 0.47951 0.66405
USER: genes 2 Torsion [CB]-CA--N-[C] |==|  0.20043
USER: genes 3 Torsion [N]-C--CA-[N] |==|  0.48633
USER: genes 4 Torsion [C]-CA--N-[C] |==|  0.46458
USER: genes 5 Torsion [N]-C--CA-[N] |==|  0.61671
USER: genes 6 Torsion [C]-CA--N-[C] |==|  0.15289
USER: genes 7 Torsion [N]-C--CA-[N] |==|  0.67911
USER: genes 8 Torsion [C]-CA--CB-[OG] |==|  0.17289
USER: genes 9 Torsion [CA]-CB--OG-[HG] |==|  0.69577
USER: genes 10 Torsion [C]-CA--CB-[OG] |==|  0.48249
USER: genes 11 Torsion [CA]-CB--OG-[HG] |==|  0.28858
USER: genes 12 Torsion [N]-CA--C-[N] |==|  0.40141
USER: genes 13 Torsion [C]-N--CA-[C] |==|  0.79310
USER: genes 14 Torsion [N]-CA--C-[N] |==|  0.93422
USER: genes 15 Torsion [C]-N--CA-[CB] |==|  0.82776
USER: genes 16 Torsion [N]-CA--CB-[CG] |==|  0.71619
USER: genes 17 Torsion [CA]-CB--CG-[CD1] |==|  0.44857
USER: genes 18 Torsion [N]-CA--C-[O] |==|  0.56642
USER: genes 19 Torsion [N]-CA--CB-[CG] |==|  0.24604
USER: genes 20 Torsion [CA]-CB--CG-[OD2] |==|  0.38574
USER: genes 21 Torsion [N]-CA--CB-[CG2] |==|  0.53147
ROOT
ATOM      1  CA  VAL B  11      31.662  17.981  51.411  1.00 37.38 LIG 0.18  C 
ENDROOT
BRANCH 1 2
ATOM      2  N   VAL B  11      31.225  16.612  51.673  1.00 31.05 LIG-0.35  N 
ATOM      3  C   GLY B  10      30.169  16.097  51.048  1.00 33.93 LIG 0.24  C 
ATOM      4 O    GLY B  10      29.525  16.713  50.199  1.00 34.12 LIG-0.27  OA
ATOM      5 H    VAL B  11      31.701  16.188  52.251  1.00 31.05 LIG 0.16  HD
BRANCH 3 6
ATOM      6  CA  GLY B  10      29.769  14.687  51.429  1.00 30.55 LIG 0.23  C 
BRANCH 6 7
ATOM      7  N   GLY B  10      28.541  14.320  50.748  1.00 34.58 LIG-0.35  N 
ATOM      8  C   SER B   9      28.111  13.062  50.712  1.00 38.05 LIG 0.24  C 
ATOM      9 O    SER B   9      28.757  12.120  51.157  1.00 29.17 LIG-0.27  OA
ATOM     10 H    GLY B  10      28.128  14.979  50.380  1.00 34.58 LIG 0.16  HD
BRANCH 8 11
ATOM     11  CA  SER B   9      26.745  12.833  50.078  1.00 34.70 LIG 0.20  C 
BRANCH 11 12
ATOM     12  N   SER B   9      25.945  11.875  50.837  1.00 35.55 LIG-0.34  N 
ATOM     13  C   SER B   8      25.701  12.051  52.130  1.00 40.46 LIG 0.26  C 
ATOM     14 O    SER B   8      26.070  13.053  52.745  1.00 45.68 LIG-0.27  OA
ATOM     15 H    SER B   9      25.657  11.207  50.378  1.00 35.55 LIG 0.16  HD
BRANCH 13 16
ATOM     16  CA  SER B   8      24.899  10.952  52.833  1.00 36.95 LIG 0.42  C 
ATOM     17  N   SER B   8      23.601  11.433  53.315  1.00 41.16 LIG 0.62  N 
BRANCH 16 18
ATOM     18  CB  SER B   8      24.721   9.775  51.875  1.00 41.03 LIG 0.21  C 
BRANCH 18 19
ATOM     19 OG   SER B   8      25.955   9.190  51.498  1.00 28.13 LIG-0.40  OA
ATOM     20 HG   SER B   8      26.113   9.365  50.692  1.00 28.13 LIG 0.21  HD
ENDBRANCH 18 19
ENDBRANCH 16 18
ENDBRANCH 13 16
ENDBRANCH 11 12
BRANCH 11 21
ATOM     21  CB  SER B   9      26.005  14.165  49.966  1.00 39.19 LIG 0.20  C 
BRANCH 21 22
ATOM     22 OG   SER B   9      24.790  14.002  49.248  1.00 46.55 LIG-0.40  OA
ATOM     23 HG   SER B   9      24.145  14.006  49.785  1.00 46.55 LIG 0.21  HD
ENDBRANCH 21 22
ENDBRANCH 11 21
ENDBRANCH 8 11
ENDBRANCH 6 7
ENDBRANCH 3 6
ENDBRANCH 1 2
BRANCH 1 24
ATOM     24  C   VAL B  11      33.082  18.236  51.937  1.00 38.72 LIG 0.24  C 
ATOM     25 O    VAL B  11      33.488  17.690  52.966  1.00 29.21 LIG-0.27  OA
ATOM     26  N   ASP B  12      33.850  19.048  51.215  1.00 41.61 LIG-0.34  N 
ATOM     27 H    ASP B  12      33.653  19.335  50.429  1.00 41.61 LIG 0.16  HD
BRANCH 26 28
ATOM     28  CA  ASP B  12      35.125  19.518  51.740  1.00 41.44 LIG 0.19  C 
BRANCH 28 29
ATOM     29  C   ASP B  12      34.897  20.584  52.810  1.00 45.77 LIG 0.24  C 
ATOM     30 O    ASP B  12      35.763  20.816  53.658  1.00 50.52 LIG-0.27  OA
ATOM     31  N   LEU B  13      33.738  21.236  52.741  1.00 51.98 LIG-0.35  N 
ATOM     32 H    LEU B  13      33.176  21.127  52.098  1.00 51.98 LIG 0.16  HD
BRANCH 31 33
ATOM     33  CA  LEU B  13      33.298  22.203  53.745  1.00 53.13 LIG 0.16  C 
BRANCH 33 34
ATOM     34  CB  LEU B  13      33.147  21.505  55.107  1.00 52.95 LIG 0.04  C 
BRANCH 34 35
ATOM     35  CG  LEU B  13      31.775  21.105  55.664  1.00 63.18 LIG-0.02  C 
ATOM     36  CD1 LEU B  13      31.922  20.061  56.759  1.00 59.33 LIG 0.01  C 
ATOM     37  CD2 LEU B  13      31.030  22.315  56.213  1.00 64.76 LIG 0.01  C 
ENDBRANCH 34 35
ENDBRANCH 33 34
BRANCH 33 38
ATOM     38  C   LEU B  13      34.261  23.387  53.849  1.00 54.04 LIG 0.22  C 
ATOM     39 O    LEU B  13      34.327  24.056  54.880  1.00 55.16 LIG-0.29  OA
ENDBRANCH 33 38
ENDBRANCH 31 33
ENDBRANCH 28 29
BRANCH 28 40
ATOM     40  CB  ASP B  12      36.018  20.069  50.627  1.00 42.16 LIG 0.15  C 
BRANCH 40 41
ATOM     41  CG  ASP B  12      35.780  21.551  50.373  1.00 44.94 LIG 0.17  C 
ATOM     42 OD2  ASP B  12      36.777  22.280  50.168  1.00 53.96 LIG-0.65  OA
ATOM     43 OD1  ASP B  12      34.602  21.986  50.373  1.00 32.79 LIG-0.65  OA
ENDBRANCH 40 41
ENDBRANCH 28 40
ENDBRANCH 26 28
ENDBRANCH 1 24
BRANCH 1 44
ATOM     44  CB  VAL B  11      30.672  19.004  52.033  1.00 40.95 LIG 0.01  C 
ATOM     45  CG2 VAL B  11      30.954  20.424  51.538  1.00 48.12 LIG 0.01  C 
ATOM     46  CG1 VAL B  11      30.702  18.933  53.557  1.00 38.34 LIG 0.01  C 
ENDBRANCH 1 44
TORSDOF 20
ENDMDL
MODEL 16
USER: ADFR SOLUTION from run 140
USER: SCORE 14.406352 LL:  -2.855 LR: -12.740 RR:   0.000 FEB:  -6.774
USER: RMSD 4.529821
USER: SEED 139
USER: STATUS no improvement in best in 4 clusters for 5 generations
USER: GENES 22
USER: genes 0 Translation |==|  0.56562 0.58350 0.50000
USER: genes 1 Rotation |==|  0.16779 0.18742 0.46182 0.70117
USER: genes 2 Torsion [CB]-CA--N-[C] |==|  0.53897
USER: genes 3 Torsion [N]-C--CA-[N] |==|  0.07778
USER: genes 4 Torsion [C]-CA--N-[C] |==|  0.67990
USER: genes 5 Torsion [N]-C--CA-[N] |==|  0.38699
USER: genes 6 Torsion [C]-CA--N-[C] |==|  0.54703
USER: genes 7 Torsion [N]-C--CA-[N] |==|  0.44055
USER: genes 8 Torsion [C]-CA--CB-[OG] |==|  0.72994
USER: genes 9 Torsion [CA]-CB--OG-[HG] |==|  0.27859
USER: genes 10 Torsion [C]-CA--CB-[OG] |==|  0.23951
USER: genes 11 Torsion [CA]-CB--OG-[HG] |==|  0.91129
USER: genes 12 Torsion [N]-CA--C-[N] |==|  0.38848
USER: genes 13 Torsion [C]-N--CA-[C] |==|  0.71051
USER: genes 14 Torsion [N]-CA--C-[N] |==|  0.95916
USER: genes 15 Torsion [C]-N--CA-[CB] |==|  0.83728
USER: genes 16 Torsion [N]-CA--CB-[CG] |==|  0.88636
USER: genes 17 Torsion [CA]-CB--CG-[CD1] |==|  0.34840
USER: genes 18 Torsion [N]-CA--C-[O] |==|  0.07429
USER: genes 19 Torsion [N]-CA--CB-[CG] |==|  0.94354
USER: genes 20 Torsion [CA]-CB--CG-[OD2] |==|  0.20260
USER: genes 21 Torsion [N]-CA--CB-[CG2] |==|  0.50926
ROOT
ATOM      1  CA  VAL B  11      35.045  21.568  50.748  1.00 37.38 LIG 0.18  C 
ENDROOT
BRANCH 1 2
ATOM      2  N   VAL B  11      34.683  20.153  50.771  1.00 31.05 LIG-0.35  N 
ATOM      3  C   GLY B  10      35.543  19.219  50.374  1.00 33.93 LIG 0.24  C 
ATOM      4 O    GLY B  10      36.688  19.474  50.002  1.00 34.12 LIG-0.27  OA
ATOM      5 H    VAL B  11      33.888  19.991  51.058  1.00 31.05 LIG 0.16  HD
BRANCH 3 6
ATOM      6  CA  GLY B  10      35.052  17.786  50.390  1.00 30.55 LIG 0.23  C 
BRANCH 6 7
ATOM      7  N   GLY B  10      33.613  17.752  50.203  1.00 34.58 LIG-0.35  N 
ATOM      8  C   SER B   9      32.795  17.311  51.154  1.00 38.05 LIG 0.24  C 
ATOM      9 O    SER B   9      33.192  16.817  52.203  1.00 29.17 LIG-0.27  OA
ATOM     10 H    GLY B  10      33.348  18.039  49.436  1.00 34.58 LIG 0.16  HD
BRANCH 8 11
ATOM     11  CA  SER B   9      31.303  17.451  50.879  1.00 34.70 LIG 0.20  C 
BRANCH 11 12
ATOM     12  N   SER B   9      30.555  16.275  51.316  1.00 35.55 LIG-0.34  N 
ATOM     13  C   SER B   8      29.322  16.042  50.883  1.00 40.46 LIG 0.26  C 
ATOM     14 O    SER B   8      28.767  16.754  50.045  1.00 45.68 LIG-0.27  OA
ATOM     15 H    SER B   9      30.979  15.765  51.864  1.00 35.55 LIG 0.16  HD
BRANCH 13 16
ATOM     16  CA  SER B   8      28.616  14.809  51.454  1.00 36.95 LIG 0.42  C 
ATOM     17  N   SER B   8      27.157  14.898  51.334  1.00 41.16 LIG 0.62  N 
BRANCH 16 18
ATOM     18  CB  SER B   8      29.143  13.561  50.748  1.00 41.03 LIG 0.21  C 
BRANCH 18 19
ATOM     19 OG   SER B   8      28.301  13.139  49.689  1.00 28.13 LIG-0.40  OA
ATOM     20 HG   SER B   8      28.620  13.397  48.957  1.00 28.13 LIG 0.21  HD
ENDBRANCH 18 19
ENDBRANCH 16 18
ENDBRANCH 13 16
ENDBRANCH 11 12
BRANCH 11 21
ATOM     21  CB  SER B   9      30.771  18.703  51.575  1.00 39.19 LIG 0.20  C 
BRANCH 21 22
ATOM     22 OG   SER B   9      30.945  19.845  50.748  1.00 46.55 LIG-0.40  OA
ATOM     23 HG   SER B   9      31.637  19.751  50.282  1.00 46.55 LIG 0.21  HD
ENDBRANCH 21 22
ENDBRANCH 11 21
ENDBRANCH 8 11
ENDBRANCH 6 7
ENDBRANCH 3 6
ENDBRANCH 1 2
BRANCH 1 24
ATOM     24  C   VAL B  11      36.470  21.801  51.270  1.00 38.72 LIG 0.24  C 
ATOM     25 O    VAL B  11      36.910  21.159  52.227  1.00 29.21 LIG-0.27  OA
ATOM     26  N   ASP B  12      37.204  22.702  50.623  1.00 41.61 LIG-0.34  N 
ATOM     27 H    ASP B  12      36.983  23.065  49.876  1.00 41.61 LIG 0.16  HD
BRANCH 26 28
ATOM     28  CA  ASP B  12      38.480  23.145  51.169  1.00 41.44 LIG 0.19  C 
BRANCH 28 29
ATOM     29  C   ASP B  12      38.341  24.539  51.778  1.00 45.77 LIG 0.24  C 
ATOM     30 O    ASP B  12      39.225  24.996  52.508  1.00 50.52 LIG-0.27  OA
ATOM     31  N   LEU B  13      37.237  25.207  51.447  1.00 51.98 LIG-0.35  N 
ATOM     32 H    LEU B  13      36.667  24.916  50.873  1.00 51.98 LIG 0.16  HD
BRANCH 31 33
ATOM     33  CA  LEU B  13      36.878  26.502  52.024  1.00 53.13 LIG 0.16  C 
BRANCH 33 34
ATOM     34  CB  LEU B  13      36.759  26.375  53.552  1.00 52.95 LIG 0.04  C 
BRANCH 34 35
ATOM     35  CG  LEU B  13      36.099  25.158  54.213  1.00 63.18 LIG-0.02  C 
ATOM     36  CD1 LEU B  13      37.040  24.519  55.223  1.00 59.33 LIG 0.01  C 
ATOM     37  CD2 LEU B  13      34.798  25.545  54.905  1.00 64.76 LIG 0.01  C 
ENDBRANCH 34 35
ENDBRANCH 33 34
BRANCH 33 38
ATOM     38  C   LEU B  13      37.890  27.586  51.650  1.00 54.04 LIG 0.22  C 
ATOM     39 O    LEU B  13      38.550  27.502  50.615  1.00 55.16 LIG-0.29  OA
ENDBRANCH 33 38
ENDBRANCH 31 33
ENDBRANCH 28 29
BRANCH 28 40
ATOM     40  CB  ASP B  12      39.576  23.140  50.102  1.00 42.16 LIG 0.15  C 
BRANCH 40 41
ATOM     41  CG  ASP B  12      39.230  22.244  48.921  1.00 44.94 LIG 0.17  C 
ATOM     42 OD2  ASP B  12      38.349  22.635  48.123  1.00 53.96 LIG-0.65  OA
ATOM     43 OD1  ASP B  12      39.840  21.155  48.787  1.00 32.79 LIG-0.65  OA
ENDBRANCH 40 41
ENDBRANCH 28 40
ENDBRANCH 26 28
ENDBRANCH 1 24
BRANCH 1 44
ATOM     44  CB  VAL B  11      34.031  22.409  51.573  1.00 40.95 LIG 0.01  C 
ATOM     45  CG2 VAL B  11      34.351  23.903  51.490  1.00 48.12 LIG 0.01  C 
ATOM     46  CG1 VAL B  11      33.982  21.933  53.022  1.00 38.34 LIG 0.01  C 
ENDBRANCH 1 44
TORSDOF 20
ENDMDL
MODEL 17
USER: ADFR SOLUTION from run 155
USER: SCORE 13.522884 LL:  -2.077 LR: -12.737 RR:   0.000 FEB:  -6.771
USER: RMSD 5.660255
USER: SEED 154
USER: STATUS no improvement in best in 7 clusters for 5 generations
USER: GENES 22
USER: genes 0 Translation |==|  0.42396 0.46274 0.53606
USER: genes 1 Rotation |==|  0.16906 0.14504 0.48081 0.61881
USER: genes 2 Torsion [CB]-CA--N-[C] |==|  0.17739
USER: genes 3 Torsion [N]-C--CA-[N] |==|  0.49444
USER: genes 4 Torsion [C]-CA--N-[C] |==|  0.63948
USER: genes 5 Torsion [N]-C--CA-[N] |==|  0.46438
USER: genes 6 Torsion [C]-CA--N-[C] |==|  0.79418
USER: genes 7 Torsion [N]-C--CA-[N] |==|  0.54211
USER: genes 8 Torsion [C]-CA--CB-[OG] |==|  0.43163
USER: genes 9 Torsion [CA]-CB--OG-[HG] |==|  0.78268
USER: genes 10 Torsion [C]-CA--CB-[OG] |==|  0.50027
USER: genes 11 Torsion [CA]-CB--OG-[HG] |==|  0.17109
USER: genes 12 Torsion [N]-CA--C-[N] |==|  0.72450
USER: genes 13 Torsion [C]-N--CA-[C] |==|  0.15933
USER: genes 14 Torsion [N]-CA--C-[N] |==|  0.11640
USER: genes 15 Torsion [C]-N--CA-[CB] |==|  0.82599
USER: genes 16 Torsion [N]-CA--CB-[CG] |==|  0.74339
USER: genes 17 Torsion [CA]-CB--CG-[CD1] |==|  0.38424
USER: genes 18 Torsion [N]-CA--C-[O] |==|  0.11435
USER: genes 19 Torsion [N]-CA--CB-[CG] |==|  0.56668
USER: genes 20 Torsion [CA]-CB--CG-[OD2] |==|  0.68612
USER: genes 21 Torsion [N]-CA--CB-[CG2] |==|  0.47070
ROOT
ATOM      1  CA  VAL B  11      31.220  18.761  51.289  1.00 37.38 LIG 0.18  C 
ENDROOT
BRANCH 1 2
ATOM      2  N   VAL B  11      30.989  17.362  51.642  1.00 31.05 LIG-0.35  N 
ATOM      3  C   GLY B  10      30.051  16.645  51.028  1.00 33.93 LIG 0.24  C 
ATOM      4 O    GLY B  10      29.355  17.091  50.116  1.00 34.12 LIG-0.27  OA
ATOM      5 H    VAL B  11      31.501  17.060  52.263  1.00 31.05 LIG 0.16  HD
BRANCH 3 6
ATOM      6  CA  GLY B  10      29.858  15.220  51.503  1.00 30.55 LIG 0.23  C 
BRANCH 6 7
ATOM      7  N   GLY B  10      28.774  14.595  50.768  1.00 34.58 LIG-0.35  N 
ATOM      8  C   SER B   9      27.784  13.959  51.389  1.00 38.05 LIG 0.24  C 
ATOM      9 O    SER B   9      27.764  13.770  52.600  1.00 29.17 LIG-0.27  OA
ATOM     10 H    GLY B  10      28.832  14.675  49.913  1.00 34.58 LIG 0.16  HD
BRANCH 8 11
ATOM     11  CA  SER B   9      26.645  13.463  50.508  1.00 34.70 LIG 0.20  C 
BRANCH 11 12
ATOM     12  N   SER B   9      25.772  12.531  51.219  1.00 35.55 LIG-0.34  N 
ATOM     13  C   SER B   8      26.157  11.286  51.477  1.00 40.46 LIG 0.26  C 
ATOM     14 O    SER B   8      27.281  10.868  51.200  1.00 45.68 LIG-0.27  OA
ATOM     15 H    SER B   9      25.010  12.858  51.447  1.00 35.55 LIG 0.16  HD
BRANCH 13 16
ATOM     16  CA  SER B   8      25.136  10.385  52.178  1.00 36.95 LIG 0.42  C 
ATOM     17  N   SER B   8      25.751   9.175  52.732  1.00 41.16 LIG 0.62  N 
BRANCH 16 18
ATOM     18  CB  SER B   8      24.432  11.185  53.272  1.00 41.03 LIG 0.21  C 
BRANCH 18 19
ATOM     19 OG   SER B   8      23.150  10.667  53.585  1.00 28.13 LIG-0.40  OA
ATOM     20 HG   SER B   8      22.600  10.906  52.998  1.00 28.13 LIG 0.21  HD
ENDBRANCH 18 19
ENDBRANCH 16 18
ENDBRANCH 13 16
ENDBRANCH 11 12
BRANCH 11 21
ATOM     21  CB  SER B   9      25.838  14.655  49.997  1.00 39.19 LIG 0.20  C 
BRANCH 21 22
ATOM     22 OG   SER B   9      24.766  14.216  49.174  1.00 46.55 LIG-0.40  OA
ATOM     23 HG   SER B   9      24.248  13.732  49.624  1.00 46.55 LIG 0.21  HD
ENDBRANCH 21 22
ENDBRANCH 11 21
ENDBRANCH 8 11
ENDBRANCH 6 7
ENDBRANCH 3 6
ENDBRANCH 1 2
BRANCH 1 24
ATOM     24  C   VAL B  11      32.455  19.331  52.001  1.00 38.72 LIG 0.24  C 
ATOM     25 O    VAL B  11      33.590  19.138  51.560  1.00 29.21 LIG-0.27  OA
ATOM     26  N   ASP B  12      32.232  20.059  53.092  1.00 41.61 LIG-0.34  N 
ATOM     27 H    ASP B  12      31.458  20.328  53.349  1.00 41.61 LIG 0.16  HD
BRANCH 26 28
ATOM     28  CA  ASP B  12      33.339  20.459  53.951  1.00 41.44 LIG 0.19  C 
BRANCH 28 29
ATOM     29  C   ASP B  12      34.373  21.249  53.151  1.00 45.77 LIG 0.24  C 
ATOM     30 O    ASP B  12      35.579  21.035  53.300  1.00 50.52 LIG-0.27  OA
ATOM     31  N   LEU B  13      33.881  22.138  52.290  1.00 51.98 LIG-0.35  N 
ATOM     32 H    LEU B  13      33.040  22.222  52.131  1.00 51.98 LIG 0.16  HD
BRANCH 31 33
ATOM     33  CA  LEU B  13      34.716  23.064  51.526  1.00 53.13 LIG 0.16  C 
BRANCH 33 34
ATOM     34  CB  LEU B  13      35.464  24.003  52.487  1.00 52.95 LIG 0.04  C 
BRANCH 34 35
ATOM     35  CG  LEU B  13      34.891  25.367  52.894  1.00 63.18 LIG-0.02  C 
ATOM     36  CD1 LEU B  13      35.106  25.619  54.378  1.00 59.33 LIG 0.01  C 
ATOM     37  CD2 LEU B  13      35.528  26.494  52.090  1.00 64.76 LIG 0.01  C 
ENDBRANCH 34 35
ENDBRANCH 33 34
BRANCH 33 38
ATOM     38  C   LEU B  13      35.702  22.321  50.623  1.00 54.04 LIG 0.22  C 
ATOM     39 O    LEU B  13      35.353  21.320  49.998  1.00 55.16 LIG-0.29  OA
ENDBRANCH 33 38
ENDBRANCH 31 33
ENDBRANCH 28 29
BRANCH 28 40
ATOM     40  CB  ASP B  12      33.997  19.248  54.615  1.00 42.16 LIG 0.15  C 
BRANCH 40 41
ATOM     41  CG  ASP B  12      34.718  19.615  55.905  1.00 44.94 LIG 0.17  C 
ATOM     42 OD2  ASP B  12      35.966  19.519  55.929  1.00 53.96 LIG-0.65  OA
ATOM     43 OD1  ASP B  12      34.042  20.003  56.889  1.00 32.79 LIG-0.65  OA
ENDBRANCH 40 41
ENDBRANCH 28 40
ENDBRANCH 26 28
ENDBRANCH 1 24
BRANCH 1 44
ATOM     44  CB  VAL B  11      29.970  19.624  51.616  1.00 40.95 LIG 0.01  C 
ATOM     45  CG2 VAL B  11      30.280  21.118  51.498  1.00 48.12 LIG 0.01  C 
ATOM     46  CG1 VAL B  11      29.417  19.281  52.995  1.00 38.34 LIG 0.01  C 
ENDBRANCH 1 44
TORSDOF 20
ENDMDL
MODEL 18
USER: ADFR SOLUTION from run 183
USER: SCORE 14.224789 LL:  -2.418 LR: -12.697 RR:   0.000 FEB:  -6.731
USER: RMSD 12.084484
USER: SEED 182
USER: STATUS no improvement in best in 4 clusters for 5 generations
USER: GENES 22
USER: genes 0 Translation |==|  0.58569 0.63235 0.61158
USER: genes 1 Rotation |==|  0.44641 0.52024 0.99575 0.53084
USER: genes 2 Torsion [CB]-CA--N-[C] |==|  0.75041
USER: genes 3 Torsion [N]-C--CA-[N] |==|  0.78889
USER: genes 4 Torsion [C]-CA--N-[C] |==|  0.21697
USER: genes 5 Torsion [N]-C--CA-[N] |==|  0.95472
USER: genes 6 Torsion [C]-CA--N-[C] |==|  0.78213
USER: genes 7 Torsion [N]-C--CA-[N] |==|  0.29819
USER: genes 8 Torsion [C]-CA--CB-[OG] |==|  0.44864
USER: genes 9 Torsion [CA]-CB--OG-[HG] |==|  0.80466
USER: genes 10 Torsion [C]-CA--CB-[OG] |==|  0.73523
USER: genes 11 Torsion [CA]-CB--OG-[HG] |==|  0.81473
USER: genes 12 Torsion [N]-CA--C-[N] |==|  0.21632
USER: genes 13 Torsion [C]-N--CA-[C] |==|  0.79117
USER: genes 14 Torsion [N]-CA--C-[N] |==|  0.36330
USER: genes 15 Torsion [C]-N--CA-[CB] |==|  0.27465
USER: genes 16 Torsion [N]-CA--CB-[CG] |==|  0.68777
USER: genes 17 Torsion [CA]-CB--CG-[CD1] |==|  0.83991
USER: genes 18 Torsion [N]-CA--C-[O] |==|  0.05680
USER: genes 19 Torsion [N]-CA--CB-[CG] |==|  0.79897
USER: genes 20 Torsion [CA]-CB--CG-[OD2] |==|  0.27883
USER: genes 21 Torsion [N]-CA--CB-[CG2] |==|  0.00984
ROOT
ATOM      1  CA  VAL B  11      35.586  22.704  52.422  1.00 37.38 LIG 0.18  C 
ENDROOT
BRANCH 1 2
ATOM      2  N   VAL B  11      36.922  22.979  51.897  1.00 31.05 LIG-0.35  N 
ATOM      3  C   GLY B  10      37.166  22.945  50.590  1.00 33.93 LIG 0.24  C 
ATOM      4 O    GLY B  10      36.295  22.720  49.749  1.00 34.12 LIG-0.27  OA
ATOM      5 H    VAL B  11      37.512  23.159  52.496  1.00 31.05 LIG 0.16  HD
BRANCH 3 6
ATOM      6  CA  GLY B  10      38.595  23.195  50.153  1.00 30.55 LIG 0.23  C 
BRANCH 6 7
ATOM      7  N   GLY B  10      38.900  24.611  50.244  1.00 34.58 LIG-0.35  N 
ATOM      8  C   SER B   9      39.175  25.193  51.408  1.00 38.05 LIG 0.24  C 
ATOM      9 O    SER B   9      39.096  24.611  52.484  1.00 29.17 LIG-0.27  OA
ATOM     10 H    GLY B  10      38.887  25.026  49.491  1.00 34.58 LIG 0.16  HD
BRANCH 8 11
ATOM     11  CA  SER B   9      39.604  26.653  51.348  1.00 34.70 LIG 0.20  C 
BRANCH 11 12
ATOM     12  N   SER B   9      40.004  27.049  49.999  1.00 35.55 LIG-0.34  N 
ATOM     13  C   SER B   8      41.196  26.726  49.511  1.00 40.46 LIG 0.26  C 
ATOM     14 O    SER B   8      41.999  26.024  50.128  1.00 45.68 LIG-0.27  OA
ATOM     15 H    SER B   9      39.410  27.497  49.567  1.00 35.55 LIG 0.16  HD
BRANCH 13 16
ATOM     16  CA  SER B   8      41.525  27.244  48.108  1.00 36.95 LIG 0.42  C 
ATOM     17  N   SER B   8      42.510  28.329  48.133  1.00 41.16 LIG 0.62  N 
BRANCH 16 18
ATOM     18  CB  SER B   8      42.022  26.081  47.251  1.00 41.03 LIG 0.21  C 
BRANCH 18 19
ATOM     19 OG   SER B   8      41.952  26.360  45.863  1.00 28.13 LIG-0.40  OA
ATOM     20 HG   SER B   8      41.148  26.377  45.621  1.00 28.13 LIG 0.21  HD
ENDBRANCH 18 19
ENDBRANCH 16 18
ENDBRANCH 13 16
ENDBRANCH 11 12
BRANCH 11 21
ATOM     21  CB  SER B   9      38.464  27.541  51.842  1.00 39.19 LIG 0.20  C 
BRANCH 21 22
ATOM     22 OG   SER B   9      37.693  28.018  50.748  1.00 46.55 LIG-0.40  OA
ATOM     23 HG   SER B   9      38.159  28.540  50.283  1.00 46.55 LIG 0.21  HD
ENDBRANCH 21 22
ENDBRANCH 11 21
ENDBRANCH 8 11
ENDBRANCH 6 7
ENDBRANCH 3 6
ENDBRANCH 1 2
BRANCH 1 24
ATOM     24  C   VAL B  11      34.842  21.666  51.569  1.00 38.72 LIG 0.24  C 
ATOM     25 O    VAL B  11      33.989  22.011  50.748  1.00 29.21 LIG-0.27  OA
ATOM     26  N   ASP B  12      35.185  20.393  51.744  1.00 41.61 LIG-0.34  N 
ATOM     27 H    ASP B  12      35.863  20.129  52.201  1.00 41.61 LIG 0.16  HD
BRANCH 26 28
ATOM     28  CA  ASP B  12      34.393  19.327  51.145  1.00 41.44 LIG 0.19  C 
BRANCH 28 29
ATOM     29  C   ASP B  12      33.092  19.133  51.920  1.00 45.77 LIG 0.24  C 
ATOM     30 O    ASP B  12      33.101  19.046  53.151  1.00 50.52 LIG-0.27  OA
ATOM     31  N   LEU B  13      31.981  19.091  51.185  1.00 51.98 LIG-0.35  N 
ATOM     32 H    LEU B  13      31.974  19.235  50.337  1.00 51.98 LIG 0.16  HD
BRANCH 31 33
ATOM     33  CA  LEU B  13      30.661  18.796  51.739  1.00 53.13 LIG 0.16  C 
BRANCH 33 34
ATOM     34  CB  LEU B  13      29.891  20.108  51.971  1.00 52.95 LIG 0.04  C 
BRANCH 34 35
ATOM     35  CG  LEU B  13      29.552  20.607  53.382  1.00 63.18 LIG-0.02  C 
ATOM     36  CD1 LEU B  13      28.738  19.568  54.138  1.00 59.33 LIG 0.01  C 
ATOM     37  CD2 LEU B  13      30.814  20.935  54.169  1.00 64.76 LIG 0.01  C 
ENDBRANCH 34 35
ENDBRANCH 33 34
BRANCH 33 38
ATOM     38  C   LEU B  13      29.864  17.858  50.831  1.00 54.04 LIG 0.22  C 
ATOM     39 O    LEU B  13      30.434  17.153  49.998  1.00 55.16 LIG-0.29  OA
ENDBRANCH 33 38
ENDBRANCH 31 33
ENDBRANCH 28 29
BRANCH 28 40
ATOM     40  CB  ASP B  12      35.177  18.014  51.089  1.00 42.16 LIG 0.15  C 
BRANCH 40 41
ATOM     41  CG  ASP B  12      36.278  18.041  50.038  1.00 44.94 LIG 0.17  C 
ATOM     42 OD2  ASP B  12      37.452  18.249  50.421  1.00 53.96 LIG-0.65  OA
ATOM     43 OD1  ASP B  12      35.974  17.849  48.835  1.00 32.79 LIG-0.65  OA
ENDBRANCH 40 41
ENDBRANCH 28 40
ENDBRANCH 26 28
ENDBRANCH 1 24
BRANCH 1 44
ATOM     44  CB  VAL B  11      34.753  24.012  52.517  1.00 40.95 LIG 0.01  C 
ATOM     45  CG2 VAL B  11      35.527  25.207  51.956  1.00 48.12 LIG 0.01  C 
ATOM     46  CG1 VAL B  11      34.304  24.268  53.952  1.00 38.34 LIG 0.01  C 
ENDBRANCH 1 44
TORSDOF 20
ENDMDL
MODEL 19
USER: ADFR SOLUTION from run 113
USER: SCORE 13.361255 LL:  -2.493 LR: -12.699 RR:   0.000 FEB:  -6.733
USER: RMSD 5.724519
USER: SEED 112
USER: STATUS no improvement in best in 11 clusters for 5 generations
USER: GENES 22
USER: genes 0 Translation |==|  0.41330 0.46985 0.51450
USER: genes 1 Rotation |==|  0.04333 0.36448 0.45002 0.64348
USER: genes 2 Torsion [CB]-CA--N-[C] |==|  0.49497
USER: genes 3 Torsion [N]-C--CA-[N] |==|  0.50792
USER: genes 4 Torsion [C]-CA--N-[C] |==|  0.42071
USER: genes 5 Torsion [N]-C--CA-[N] |==|  0.55434
USER: genes 6 Torsion [C]-CA--N-[C] |==|  0.61065
USER: genes 7 Torsion [N]-C--CA-[N] |==|  0.53000
USER: genes 8 Torsion [C]-CA--CB-[OG] |==|  0.42235
USER: genes 9 Torsion [CA]-CB--OG-[HG] |==|  0.84322
USER: genes 10 Torsion [C]-CA--CB-[OG] |==|  0.78606
USER: genes 11 Torsion [CA]-CB--OG-[HG] |==|  0.92813
USER: genes 12 Torsion [N]-CA--C-[N] |==|  0.41123
USER: genes 13 Torsion [C]-N--CA-[C] |==|  0.70678
USER: genes 14 Torsion [N]-CA--C-[N] |==|  0.92057
USER: genes 15 Torsion [C]-N--CA-[CB] |==|  0.33220
USER: genes 16 Torsion [N]-CA--CB-[CG] |==|  0.68550
USER: genes 17 Torsion [CA]-CB--CG-[CD1] |==|  0.63575
USER: genes 18 Torsion [N]-CA--C-[O] |==|  0.81499
USER: genes 19 Torsion [N]-CA--CB-[CG] |==|  0.17242
USER: genes 20 Torsion [CA]-CB--CG-[OD2] |==|  0.74269
USER: genes 21 Torsion [N]-CA--CB-[CG2] |==|  0.39374
ROOT
ATOM      1  CA  VAL B  11      30.932  18.926  50.966  1.00 37.38 LIG 0.18  C 
ENDROOT
BRANCH 1 2
ATOM      2  N   VAL B  11      29.688  18.314  51.425  1.00 31.05 LIG-0.35  N 
ATOM      3  C   GLY B  10      29.344  17.087  51.042  1.00 33.93 LIG 0.24  C 
ATOM      4 O    GLY B  10      30.053  16.386  50.320  1.00 34.12 LIG-0.27  OA
ATOM      5 H    VAL B  11      29.217  18.808  51.949  1.00 31.05 LIG 0.16  HD
BRANCH 3 6
ATOM      6  CA  GLY B  10      28.010  16.564  51.534  1.00 30.55 LIG 0.23  C 
BRANCH 6 7
ATOM      7  N   GLY B  10      27.818  15.197  51.085  1.00 34.58 LIG-0.35  N 
ATOM      8  C   SER B   9      27.079  14.333  51.776  1.00 38.05 LIG 0.24  C 
ATOM      9 O    SER B   9      26.595  14.591  52.872  1.00 29.17 LIG-0.27  OA
ATOM     10 H    GLY B  10      28.218  15.006  50.348  1.00 34.58 LIG 0.16  HD
BRANCH 8 11
ATOM     11  CA  SER B   9      26.853  12.972  51.129  1.00 34.70 LIG 0.20  C 
BRANCH 11 12
ATOM     12  N   SER B   9      25.700  12.281  51.702  1.00 35.55 LIG-0.34  N 
ATOM     13  C   SER B   8      25.725  10.973  51.933  1.00 40.46 LIG 0.26  C 
ATOM     14 O    SER B   8      26.730  10.285  51.747  1.00 45.68 LIG-0.27  OA
ATOM     15 H    SER B   9      25.026  12.788  51.870  1.00 35.55 LIG 0.16  HD
BRANCH 13 16
ATOM     16  CA  SER B   8      24.439  10.350  52.483  1.00 36.95 LIG 0.42  C 
ATOM     17  N   SER B   8      24.641   8.971  52.939  1.00 41.16 LIG 0.62  N 
BRANCH 16 18
ATOM     18  CB  SER B   8      23.906  11.224  53.617  1.00 41.03 LIG 0.21  C 
BRANCH 18 19
ATOM     19 OG   SER B   8      22.499  11.131  53.758  1.00 28.13 LIG-0.40  OA
ATOM     20 HG   SER B   8      22.130  11.331  53.031  1.00 28.13 LIG 0.21  HD
ENDBRANCH 18 19
ENDBRANCH 16 18
ENDBRANCH 13 16
ENDBRANCH 11 12
BRANCH 11 21
ATOM     21  CB  SER B   9      26.666  13.148  49.623  1.00 39.19 LIG 0.20  C 
BRANCH 21 22
ATOM     22 OG   SER B   9      25.362  13.631  49.335  1.00 46.55 LIG-0.40  OA
ATOM     23 HG   SER B   9      24.837  13.405  49.950  1.00 46.55 LIG 0.21  HD
ENDBRANCH 21 22
ENDBRANCH 11 21
ENDBRANCH 8 11
ENDBRANCH 6 7
ENDBRANCH 3 6
ENDBRANCH 1 2
BRANCH 1 24
ATOM     24  C   VAL B  11      32.158  18.090  51.361  1.00 38.72 LIG 0.24  C 
ATOM     25 O    VAL B  11      32.159  17.409  52.389  1.00 29.21 LIG-0.27  OA
ATOM     26  N   ASP B  12      33.195  18.120  50.529  1.00 41.61 LIG-0.34  N 
ATOM     27 H    ASP B  12      33.181  18.468  49.743  1.00 41.61 LIG 0.16  HD
BRANCH 26 28
ATOM     28  CA  ASP B  12      34.472  17.538  50.920  1.00 41.44 LIG 0.19  C 
BRANCH 28 29
ATOM     29  C   ASP B  12      35.477  18.639  51.254  1.00 45.77 LIG 0.24  C 
ATOM     30 O    ASP B  12      36.395  18.430  52.052  1.00 50.52 LIG-0.27  OA
ATOM     31  N   LEU B  13      35.301  19.795  50.616  1.00 51.98 LIG-0.35  N 
ATOM     32 H    LEU B  13      34.711  19.906  50.000  1.00 51.98 LIG 0.16  HD
BRANCH 31 33
ATOM     33  CA  LEU B  13      36.090  20.994  50.893  1.00 53.13 LIG 0.16  C 
BRANCH 33 34
ATOM     34  CB  LEU B  13      36.843  21.425  49.623  1.00 52.95 LIG 0.04  C 
BRANCH 34 35
ATOM     35  CG  LEU B  13      38.373  21.363  49.530  1.00 63.18 LIG-0.02  C 
ATOM     36  CD1 LEU B  13      38.933  22.673  49.000  1.00 59.33 LIG 0.01  C 
ATOM     37  CD2 LEU B  13      38.995  21.055  50.886  1.00 64.76 LIG 0.01  C 
ENDBRANCH 34 35
ENDBRANCH 33 34
BRANCH 33 38
ATOM     38  C   LEU B  13      35.217  22.137  51.415  1.00 54.04 LIG 0.22  C 
ATOM     39 O    LEU B  13      34.374  22.666  50.691  1.00 55.16 LIG-0.29  OA
ENDBRANCH 33 38
ENDBRANCH 31 33
ENDBRANCH 28 29
BRANCH 28 40
ATOM     40  CB  ASP B  12      35.030  16.627  49.825  1.00 42.16 LIG 0.15  C 
BRANCH 40 41
ATOM     41  CG  ASP B  12      35.310  17.381  48.532  1.00 44.94 LIG 0.17  C 
ATOM     42 OD2  ASP B  12      34.408  17.417  47.665  1.00 53.96 LIG-0.65  OA
ATOM     43 OD1  ASP B  12      36.424  17.939  48.384  1.00 32.79 LIG-0.65  OA
ENDBRANCH 40 41
ENDBRANCH 28 40
ENDBRANCH 26 28
ENDBRANCH 1 24
BRANCH 1 44
ATOM     44  CB  VAL B  11      31.072  20.371  51.519  1.00 40.95 LIG 0.01  C 
ATOM     45  CG2 VAL B  11      32.520  20.682  51.902  1.00 48.12 LIG 0.01  C 
ATOM     46  CG1 VAL B  11      30.128  20.596  52.696  1.00 38.34 LIG 0.01  C 
ENDBRANCH 1 44
TORSDOF 20
ENDMDL
MODEL 20
USER: ADFR SOLUTION from run 14
USER: SCORE 13.889554 LL:  -2.091 LR: -12.615 RR:   0.000 FEB:  -6.649
USER: RMSD 4.574129
USER: SEED 726161
USER: STATUS no improvement in best in 7 clusters for 5 generations
USER: GENES 22
USER: genes 0 Translation |==|  0.41890 0.52305 0.66126
USER: genes 1 Rotation |==|  0.15164 0.19299 0.49201 0.68528
USER: genes 2 Torsion [CB]-CA--N-[C] |==|  0.82755
USER: genes 3 Torsion [N]-C--CA-[N] |==|  0.03689
USER: genes 4 Torsion [C]-CA--N-[C] |==|  0.73166
USER: genes 5 Torsion [N]-C--CA-[N] |==|  0.44648
USER: genes 6 Torsion [C]-CA--N-[C] |==|  0.80356
USER: genes 7 Torsion [N]-C--CA-[N] |==|  0.59570
USER: genes 8 Torsion [C]-CA--CB-[OG] |==|  0.45617
USER: genes 9 Torsion [CA]-CB--OG-[HG] |==|  0.21272
USER: genes 10 Torsion [C]-CA--CB-[OG] |==|  0.76214
USER: genes 11 Torsion [CA]-CB--OG-[HG] |==|  0.82448
USER: genes 12 Torsion [N]-CA--C-[N] |==|  0.41442
USER: genes 13 Torsion [C]-N--CA-[C] |==|  0.66111
USER: genes 14 Torsion [N]-CA--C-[N] |==|  0.67132
USER: genes 15 Torsion [C]-N--CA-[CB] |==|  0.21437
USER: genes 16 Torsion [N]-CA--CB-[CG] |==|  0.02820
USER: genes 17 Torsion [CA]-CB--CG-[CD1] |==|  0.32044
USER: genes 18 Torsion [N]-CA--C-[O] |==|  0.66544
USER: genes 19 Torsion [N]-CA--CB-[CG] |==|  0.13212
USER: genes 20 Torsion [CA]-CB--CG-[OD2] |==|  0.53663
USER: genes 21 Torsion [N]-CA--CB-[CG2] |==|  0.27060
ROOT
ATOM      1  CA  VAL B  11      31.083  20.163  53.167  1.00 37.38 LIG 0.18  C 
ENDROOT
BRANCH 1 2
ATOM      2  N   VAL B  11      30.713  18.771  53.410  1.00 31.05 LIG-0.35  N 
ATOM      3  C   GLY B  10      30.742  18.258  54.637  1.00 33.93 LIG 0.24  C 
ATOM      4 O    GLY B  10      31.042  18.916  55.634  1.00 34.12 LIG-0.27  OA
ATOM      5 H    VAL B  11      30.482  18.333  52.707  1.00 31.05 LIG 0.16  HD
BRANCH 3 6
ATOM      6  CA  GLY B  10      30.388  16.791  54.775  1.00 30.55 LIG 0.23  C 
BRANCH 6 7
ATOM      7  N   GLY B  10      30.384  16.158  53.469  1.00 34.58 LIG-0.35  N 
ATOM      8  C   SER B   9      29.260  15.991  52.777  1.00 38.05 LIG 0.24  C 
ATOM      9 O    SER B   9      28.152  16.265  53.223  1.00 29.17 LIG-0.27  OA
ATOM     10 H    GLY B  10      31.159  15.908  53.193  1.00 34.58 LIG 0.16  HD
BRANCH 8 11
ATOM     11  CA  SER B   9      29.412  15.432  51.368  1.00 34.70 LIG 0.20  C 
BRANCH 11 12
ATOM     12  N   SER B   9      28.161  14.870  50.867  1.00 35.55 LIG-0.34  N 
ATOM     13  C   SER B   8      27.666  13.739  51.360  1.00 40.46 LIG 0.26  C 
ATOM     14 O    SER B   8      28.187  13.142  52.303  1.00 45.68 LIG-0.27  OA
ATOM     15 H    SER B   9      27.788  15.327  50.241  1.00 35.55 LIG 0.16  HD
BRANCH 13 16
ATOM     16  CA  SER B   8      26.379  13.216  50.717  1.00 36.95 LIG 0.42  C 
ATOM     17  N   SER B   8      25.501  12.556  51.687  1.00 41.16 LIG 0.62  N 
BRANCH 16 18
ATOM     18  CB  SER B   8      25.656  14.376  50.034  1.00 41.03 LIG 0.21  C 
BRANCH 18 19
ATOM     19 OG   SER B   8      24.661  13.937  49.124  1.00 28.13 LIG-0.40  OA
ATOM     20 HG   SER B   8      23.984  13.684  49.551  1.00 28.13 LIG 0.21  HD
ENDBRANCH 18 19
ENDBRANCH 16 18
ENDBRANCH 13 16
ENDBRANCH 11 12
BRANCH 11 21
ATOM     21  CB  SER B   9      29.907  16.534  50.433  1.00 39.19 LIG 0.20  C 
BRANCH 21 22
ATOM     22 OG   SER B   9      28.815  17.295  49.936  1.00 46.55 LIG-0.40  OA
ATOM     23 HG   SER B   9      28.316  16.801  49.476  1.00 46.55 LIG 0.21  HD
ENDBRANCH 21 22
ENDBRANCH 11 21
ENDBRANCH 8 11
ENDBRANCH 6 7
ENDBRANCH 3 6
ENDBRANCH 1 2
BRANCH 1 24
ATOM     24  C   VAL B  11      32.537  20.445  53.574  1.00 38.72 LIG 0.24  C 
ATOM     25 O    VAL B  11      33.077  19.812  54.484  1.00 29.21 LIG-0.27  OA
ATOM     26  N   ASP B  12      33.181  21.379  52.881  1.00 41.61 LIG-0.34  N 
ATOM     27 H    ASP B  12      32.886  21.740  52.158  1.00 41.61 LIG 0.16  HD
BRANCH 26 28
ATOM     28  CA  ASP B  12      34.480  21.866  53.326  1.00 41.44 LIG 0.19  C 
BRANCH 28 29
ATOM     29  C   ASP B  12      34.433  23.376  53.548  1.00 45.77 LIG 0.24  C 
ATOM     30 O    ASP B  12      33.691  23.862  54.406  1.00 50.52 LIG-0.27  OA
ATOM     31  N   LEU B  13      35.249  24.099  52.783  1.00 51.98 LIG-0.35  N 
ATOM     32 H    LEU B  13      35.823  23.748  52.246  1.00 51.98 LIG 0.16  HD
BRANCH 31 33
ATOM     33  CA  LEU B  13      35.256  25.561  52.772  1.00 53.13 LIG 0.16  C 
BRANCH 33 34
ATOM     34  CB  LEU B  13      35.989  26.085  54.019  1.00 52.95 LIG 0.04  C 
BRANCH 34 35
ATOM     35  CG  LEU B  13      36.785  25.153  54.941  1.00 63.18 LIG-0.02  C 
ATOM     36  CD1 LEU B  13      38.264  25.503  54.913  1.00 59.33 LIG 0.01  C 
ATOM     37  CD2 LEU B  13      36.272  25.227  56.374  1.00 64.76 LIG 0.01  C 
ENDBRANCH 34 35
ENDBRANCH 33 34
BRANCH 33 38
ATOM     38  C   LEU B  13      35.898  26.114  51.498  1.00 54.04 LIG 0.22  C 
ATOM     39 O    LEU B  13      36.890  26.839  51.556  1.00 55.16 LIG-0.29  OA
ENDBRANCH 33 38
ENDBRANCH 31 33
ENDBRANCH 28 29
BRANCH 28 40
ATOM     40  CB  ASP B  12      35.582  21.512  52.326  1.00 42.16 LIG 0.15  C 
BRANCH 40 41
ATOM     41  CG  ASP B  12      35.193  21.848  50.893  1.00 44.94 LIG 0.17  C 
ATOM     42 OD2  ASP B  12      35.895  21.380  49.968  1.00 53.96 LIG-0.65  OA
ATOM     43 OD1  ASP B  12      34.187  22.571  50.690  1.00 32.79 LIG-0.65  OA
ENDBRANCH 40 41
ENDBRANCH 28 40
ENDBRANCH 26 28
ENDBRANCH 1 24
BRANCH 1 44
ATOM     44  CB  VAL B  11      30.123  21.127  53.918  1.00 40.95 LIG 0.01  C 
ATOM     45  CG2 VAL B  11      30.725  21.586  55.248  1.00 48.12 LIG 0.01  C 
ATOM     46  CG1 VAL B  11      28.756  20.483  54.122  1.00 38.34 LIG 0.01  C 
ENDBRANCH 1 44
TORSDOF 20
ENDMDL
MODEL 21
USER: ADFR SOLUTION from run 171
USER: SCORE 13.142391 LL:  -2.415 LR: -12.594 RR:   0.000 FEB:  -6.628
USER: RMSD 5.840396
USER: SEED 170
USER: STATUS no improvement in best in 10 clusters for 5 generations
USER: GENES 22
USER: genes 0 Translation |==|  0.41840 0.45893 0.53884
USER: genes 1 Rotation |==|  0.06969 0.26238 0.47029 0.58655
USER: genes 2 Torsion [CB]-CA--N-[C] |==|  0.25197
USER: genes 3 Torsion [N]-C--CA-[N] |==|  0.61406
USER: genes 4 Torsion [C]-CA--N-[C] |==|  0.39334
USER: genes 5 Torsion [N]-C--CA-[N] |==|  0.39189
USER: genes 6 Torsion [C]-CA--N-[C] |==|  0.69251
USER: genes 7 Torsion [N]-C--CA-[N] |==|  0.73933
USER: genes 8 Torsion [C]-CA--CB-[OG] |==|  0.16471
USER: genes 9 Torsion [CA]-CB--OG-[HG] |==|  0.78571
USER: genes 10 Torsion [C]-CA--CB-[OG] |==|  0.24127
USER: genes 11 Torsion [CA]-CB--OG-[HG] |==|  0.58276
USER: genes 12 Torsion [N]-CA--C-[N] |==|  0.39444
USER: genes 13 Torsion [C]-N--CA-[C] |==|  0.71249
USER: genes 14 Torsion [N]-CA--C-[N] |==|  0.95015
USER: genes 15 Torsion [C]-N--CA-[CB] |==|  0.85424
USER: genes 16 Torsion [N]-CA--CB-[CG] |==|  0.56231
USER: genes 17 Torsion [CA]-CB--CG-[CD1] |==|  0.48738
USER: genes 18 Torsion [N]-CA--C-[O] |==|  0.13814
USER: genes 19 Torsion [N]-CA--CB-[CG] |==|  0.15982
USER: genes 20 Torsion [CA]-CB--CG-[OD2] |==|  0.81676
USER: genes 21 Torsion [N]-CA--CB-[CG2] |==|  0.43747
ROOT
ATOM      1  CA  VAL B  11      31.070  18.672  51.331  1.00 37.38 LIG 0.18  C 
ENDROOT
BRANCH 1 2
ATOM      2  N   VAL B  11      30.091  17.721  51.851  1.00 31.05 LIG-0.35  N 
ATOM      3  C   GLY B  10      29.144  17.213  51.068  1.00 33.93 LIG 0.24  C 
ATOM      4 O    GLY B  10      29.052  17.475  49.868  1.00 34.12 LIG-0.27  OA
ATOM      5 H    VAL B  11      30.185  17.530  52.685  1.00 31.05 LIG 0.16  HD
BRANCH 3 6
ATOM      6  CA  GLY B  10      28.148  16.274  51.717  1.00 30.55 LIG 0.23  C 
BRANCH 6 7
ATOM      7  N   GLY B  10      27.875  15.154  50.836  1.00 34.58 LIG-0.35  N 
ATOM      8  C   SER B   9      27.713  13.920  51.304  1.00 38.05 LIG 0.24  C 
ATOM      9 O    SER B   9      27.876  13.623  52.483  1.00 29.17 LIG-0.27  OA
ATOM     10 H    GLY B  10      27.829  15.361  50.002  1.00 34.58 LIG 0.16  HD
BRANCH 8 11
ATOM     11  CA  SER B   9      27.303  12.861  50.289  1.00 34.70 LIG 0.20  C 
BRANCH 11 12
ATOM     12  N   SER B   9      27.973  11.585  50.530  1.00 35.55 LIG-0.34  N 
ATOM     13  C   SER B   8      28.897  11.123  49.695  1.00 40.46 LIG 0.26  C 
ATOM     14 O    SER B   8      29.290  11.763  48.719  1.00 45.68 LIG-0.27  OA
ATOM     15 H    SER B   9      27.719  11.177  51.243  1.00 35.55 LIG 0.16  HD
BRANCH 13 16
ATOM     16  CA  SER B   8      29.489   9.749  50.021  1.00 36.95 LIG 0.42  C 
ATOM     17  N   SER B   8      30.723   9.846  50.806  1.00 41.16 LIG 0.62  N 
BRANCH 16 18
ATOM     18  CB  SER B   8      28.441   8.916  50.758  1.00 41.03 LIG 0.21  C 
BRANCH 18 19
ATOM     19 OG   SER B   8      27.259   8.734  49.998  1.00 28.13 LIG-0.40  OA
ATOM     20 HG   SER B   8      26.799   9.435  50.022  1.00 28.13 LIG 0.21  HD
ENDBRANCH 18 19
ENDBRANCH 16 18
ENDBRANCH 13 16
ENDBRANCH 11 12
BRANCH 11 21
ATOM     21  CB  SER B   9      25.787  12.676  50.328  1.00 39.19 LIG 0.20  C 
BRANCH 21 22
ATOM     22 OG   SER B   9      25.149  13.608  49.466  1.00 46.55 LIG-0.40  OA
ATOM     23 HG   SER B   9      24.387  13.792  49.768  1.00 46.55 LIG 0.21  HD
ENDBRANCH 21 22
ENDBRANCH 11 21
ENDBRANCH 8 11
ENDBRANCH 6 7
ENDBRANCH 3 6
ENDBRANCH 1 2
BRANCH 1 24
ATOM     24  C   VAL B  11      32.440  18.506  52.005  1.00 38.72 LIG 0.24  C 
ATOM     25 O    VAL B  11      32.530  18.223  53.202  1.00 29.21 LIG-0.27  OA
ATOM     26  N   ASP B  12      33.509  18.656  51.229  1.00 41.61 LIG-0.34  N 
ATOM     27 H    ASP B  12      33.486  18.716  50.371  1.00 41.61 LIG 0.16  HD
BRANCH 26 28
ATOM     28  CA  ASP B  12      34.841  18.731  51.814  1.00 41.44 LIG 0.19  C 
BRANCH 28 29
ATOM     29  C   ASP B  12      35.337  20.176  51.822  1.00 45.77 LIG 0.24  C 
ATOM     30 O    ASP B  12      36.286  20.510  52.536  1.00 50.52 LIG-0.27  OA
ATOM     31  N   LEU B  13      34.698  21.011  51.003  1.00 51.98 LIG-0.35  N 
ATOM     32 H    LEU B  13      34.094  20.753  50.448  1.00 51.98 LIG 0.16  HD
BRANCH 31 33
ATOM     33  CA  LEU B  13      34.955  22.450  50.962  1.00 53.13 LIG 0.16  C 
BRANCH 33 34
ATOM     34  CB  LEU B  13      34.848  23.037  52.380  1.00 52.95 LIG 0.04  C 
BRANCH 34 35
ATOM     35  CG  LEU B  13      34.561  24.525  52.619  1.00 63.18 LIG-0.02  C 
ATOM     36  CD1 LEU B  13      34.398  24.809  54.104  1.00 59.33 LIG 0.01  C 
ATOM     37  CD2 LEU B  13      35.675  25.398  52.054  1.00 64.76 LIG 0.01  C 
ENDBRANCH 34 35
ENDBRANCH 33 34
BRANCH 33 38
ATOM     38  C   LEU B  13      36.322  22.762  50.352  1.00 54.04 LIG 0.22  C 
ATOM     39 O    LEU B  13      36.663  22.261  49.280  1.00 55.16 LIG-0.29  OA
ENDBRANCH 33 38
ENDBRANCH 31 33
ENDBRANCH 28 29
BRANCH 28 40
ATOM     40  CB  ASP B  12      35.831  17.836  51.066  1.00 42.16 LIG 0.15  C 
BRANCH 40 41
ATOM     41  CG  ASP B  12      35.923  18.185  49.587  1.00 44.94 LIG 0.17  C 
ATOM     42 OD2  ASP B  12      34.913  17.993  48.873  1.00 53.96 LIG-0.65  OA
ATOM     43 OD1  ASP B  12      36.999  18.653  49.140  1.00 32.79 LIG-0.65  OA
ENDBRANCH 40 41
ENDBRANCH 28 40
ENDBRANCH 26 28
ENDBRANCH 1 24
BRANCH 1 44
ATOM     44  CB  VAL B  11      30.565  20.131  51.503  1.00 40.95 LIG 0.01  C 
ATOM     45  CG2 VAL B  11      31.727  21.126  51.498  1.00 48.12 LIG 0.01  C 
ATOM     46  CG1 VAL B  11      29.723  20.270  52.767  1.00 38.34 LIG 0.01  C 
ENDBRANCH 1 44
TORSDOF 20
ENDMDL
MODEL 22
USER: ADFR SOLUTION from run 63
USER: SCORE 12.696625 LL:  -2.495 LR: -12.569 RR:   0.000 FEB:  -6.603
USER: RMSD 5.319983
USER: SEED 62
USER: STATUS no improvement in best in 4 clusters for 5 generations
USER: GENES 22
USER: genes 0 Translation |==|  0.45370 0.43867 0.53368
USER: genes 1 Rotation |==|  0.13235 0.20429 0.50098 0.66550
USER: genes 2 Torsion [CB]-CA--N-[C] |==|  0.23232
USER: genes 3 Torsion [N]-C--CA-[N] |==|  0.48583
USER: genes 4 Torsion [C]-CA--N-[C] |==|  0.51011
USER: genes 5 Torsion [N]-C--CA-[N] |==|  0.52513
USER: genes 6 Torsion [C]-CA--N-[C] |==|  0.18406
USER: genes 7 Torsion [N]-C--CA-[N] |==|  0.87110
USER: genes 8 Torsion [C]-CA--CB-[OG] |==|  0.89604
USER: genes 9 Torsion [CA]-CB--OG-[HG] |==|  0.23579
USER: genes 10 Torsion [C]-CA--CB-[OG] |==|  0.41901
USER: genes 11 Torsion [CA]-CB--OG-[HG] |==|  0.74649
USER: genes 12 Torsion [N]-CA--C-[N] |==|  0.38346
USER: genes 13 Torsion [C]-N--CA-[C] |==|  0.71445
USER: genes 14 Torsion [N]-CA--C-[N] |==|  0.29214
USER: genes 15 Torsion [C]-N--CA-[CB] |==|  0.14492
USER: genes 16 Torsion [N]-CA--CB-[CG] |==|  0.60379
USER: genes 17 Torsion [CA]-CB--CG-[CD1] |==|  0.71322
USER: genes 18 Torsion [N]-CA--C-[O] |==|  0.54883
USER: genes 19 Torsion [N]-CA--CB-[CG] |==|  0.45242
USER: genes 20 Torsion [CA]-CB--CG-[OD2] |==|  0.68474
USER: genes 21 Torsion [N]-CA--CB-[CG2] |==|  0.79134
ROOT
ATOM      1  CA  VAL B  11      32.023  18.201  51.253  1.00 37.38 LIG 0.18  C 
ENDROOT
BRANCH 1 2
ATOM      2  N   VAL B  11      31.560  16.870  51.637  1.00 31.05 LIG-0.35  N 
ATOM      3  C   GLY B  10      30.571  16.271  50.979  1.00 33.93 LIG 0.24  C 
ATOM      4 O    GLY B  10      30.017  16.771  49.999  1.00 34.12 LIG-0.27  OA
ATOM      5 H    VAL B  11      31.975  16.525  52.307  1.00 31.05 LIG 0.16  HD
BRANCH 3 6
ATOM      6  CA  GLY B  10      30.132  14.914  51.488  1.00 30.55 LIG 0.23  C 
BRANCH 6 7
ATOM      7  N   GLY B  10      28.976  14.454  50.742  1.00 34.58 LIG-0.35  N 
ATOM      8  C   SER B   9      28.354  13.318  51.045  1.00 38.05 LIG 0.24  C 
ATOM      9 O    SER B   9      28.762  12.538  51.899  1.00 29.17 LIG-0.27  OA
ATOM     10 H    GLY B  10      28.737  14.975  50.100  1.00 34.58 LIG 0.16  HD
BRANCH 8 11
ATOM     11  CA  SER B   9      27.079  13.018  50.268  1.00 34.70 LIG 0.20  C 
BRANCH 11 12
ATOM     12  N   SER B   9      26.364  11.868  50.816  1.00 35.55 LIG-0.34  N 
ATOM     13  C   SER B   8      25.817  11.908  52.026  1.00 40.46 LIG 0.26  C 
ATOM     14 O    SER B   8      25.817  12.925  52.721  1.00 45.68 LIG-0.27  OA
ATOM     15 H    SER B   9      26.333  11.184  50.295  1.00 35.55 LIG 0.16  HD
BRANCH 13 16
ATOM     16  CA  SER B   8      25.143  10.624  52.517  1.00 36.95 LIG 0.42  C 
ATOM     17  N   SER B   8      24.273  10.028  51.498  1.00 41.16 LIG 0.62  N 
BRANCH 16 18
ATOM     18  CB  SER B   8      26.219   9.633  52.957  1.00 41.03 LIG 0.21  C 
BRANCH 18 19
ATOM     19 OG   SER B   8      27.367   9.674  52.128  1.00 28.13 LIG-0.40  OA
ATOM     20 HG   SER B   8      27.881  10.283  52.390  1.00 28.13 LIG 0.21  HD
ENDBRANCH 18 19
ENDBRANCH 16 18
ENDBRANCH 13 16
ENDBRANCH 11 12
BRANCH 11 21
ATOM     21  CB  SER B   9      26.176  14.251  50.274  1.00 39.19 LIG 0.20  C 
BRANCH 21 22
ATOM     22 OG   SER B   9      25.375  14.288  49.101  1.00 46.55 LIG-0.40  OA
ATOM     23 HG   SER B   9      25.773  14.724  48.504  1.00 46.55 LIG 0.21  HD
ENDBRANCH 21 22
ENDBRANCH 11 21
ENDBRANCH 8 11
ENDBRANCH 6 7
ENDBRANCH 3 6
ENDBRANCH 1 2
BRANCH 1 24
ATOM     24  C   VAL B  11      33.492  18.427  51.642  1.00 38.72 LIG 0.24  C 
ATOM     25 O    VAL B  11      33.933  18.028  52.722  1.00 29.21 LIG-0.27  OA
ATOM     26  N   ASP B  12      34.257  19.046  50.748  1.00 41.61 LIG-0.34  N 
ATOM     27 H    ASP B  12      34.023  19.214  49.938  1.00 41.61 LIG 0.16  HD
BRANCH 26 28
ATOM     28  CA  ASP B  12      35.596  19.495  51.107  1.00 41.44 LIG 0.19  C 
BRANCH 28 29
ATOM     29  C   ASP B  12      35.602  21.003  51.350  1.00 45.77 LIG 0.24  C 
ATOM     30 O    ASP B  12      35.524  21.791  50.404  1.00 50.52 LIG-0.27  OA
ATOM     31  N   LEU B  13      35.672  21.383  52.625  1.00 51.98 LIG-0.35  N 
ATOM     32 H    LEU B  13      35.642  20.829  53.282  1.00 51.98 LIG 0.16  HD
BRANCH 31 33
ATOM     33  CA  LEU B  13      35.806  22.778  53.042  1.00 53.13 LIG 0.16  C 
BRANCH 33 34
ATOM     34  CB  LEU B  13      34.713  23.627  52.371  1.00 52.95 LIG 0.04  C 
BRANCH 34 35
ATOM     35  CG  LEU B  13      34.986  25.056  51.882  1.00 63.18 LIG-0.02  C 
ATOM     36  CD1 LEU B  13      34.399  26.075  52.846  1.00 59.33 LIG 0.01  C 
ATOM     37  CD2 LEU B  13      36.480  25.308  51.724  1.00 64.76 LIG 0.01  C 
ENDBRANCH 34 35
ENDBRANCH 33 34
BRANCH 33 38
ATOM     38  C   LEU B  13      35.743  22.921  54.563  1.00 54.04 LIG 0.22  C 
ATOM     39 O    LEU B  13      35.516  24.013  55.084  1.00 55.16 LIG-0.29  OA
ENDBRANCH 33 38
ENDBRANCH 31 33
ENDBRANCH 28 29
BRANCH 28 40
ATOM     40  CB  ASP B  12      36.616  19.129  50.028  1.00 42.16 LIG 0.15  C 
BRANCH 40 41
ATOM     41  CG  ASP B  12      37.908  19.923  50.158  1.00 44.94 LIG 0.17  C 
ATOM     42 OD2  ASP B  12      38.190  20.741  49.252  1.00 53.96 LIG-0.65  OA
ATOM     43 OD1  ASP B  12      38.637  19.737  51.163  1.00 32.79 LIG-0.65  OA
ENDBRANCH 40 41
ENDBRANCH 28 40
ENDBRANCH 26 28
ENDBRANCH 1 24
BRANCH 1 44
ATOM     44  CB  VAL B  11      31.128  19.300  51.890  1.00 40.95 LIG 0.01  C 
ATOM     45  CG2 VAL B  11      29.780  19.403  51.174  1.00 48.12 LIG 0.01  C 
ATOM     46  CG1 VAL B  11      31.848  20.644  51.909  1.00 38.34 LIG 0.01  C 
ENDBRANCH 1 44
TORSDOF 20
ENDMDL
MODEL 23
USER: ADFR SOLUTION from run 17
USER: SCORE 12.602660 LL:  -2.375 LR: -12.558 RR:   0.000 FEB:  -6.592
USER: RMSD 4.479044
USER: SEED 16
USER: STATUS no improvement in best in 27 clusters for 5 generations
USER: GENES 22
USER: genes 0 Translation |==|  0.59825 0.69632 0.59704
USER: genes 1 Rotation |==|  0.14912 0.24393 0.53739 0.74477
USER: genes 2 Torsion [CB]-CA--N-[C] |==|  0.35882
USER: genes 3 Torsion [N]-C--CA-[N] |==|  0.37778
USER: genes 4 Torsion [C]-CA--N-[C] |==|  0.58526
USER: genes 5 Torsion [N]-C--CA-[N] |==|  0.44067
USER: genes 6 Torsion [C]-CA--N-[C] |==|  0.60844
USER: genes 7 Torsion [N]-C--CA-[N] |==|  0.41492
USER: genes 8 Torsion [C]-CA--CB-[OG] |==|  0.95383
USER: genes 9 Torsion [CA]-CB--OG-[HG] |==|  0.78349
USER: genes 10 Torsion [C]-CA--CB-[OG] |==|  0.70886
USER: genes 11 Torsion [CA]-CB--OG-[HG] |==|  0.56502
USER: genes 12 Torsion [N]-CA--C-[N] |==|  0.24858
USER: genes 13 Torsion [C]-N--CA-[C] |==|  0.82638
USER: genes 14 Torsion [N]-CA--C-[N] |==|  0.37387
USER: genes 15 Torsion [C]-N--CA-[CB] |==|  0.79968
USER: genes 16 Torsion [N]-CA--CB-[CG] |==|  0.88990
USER: genes 17 Torsion [CA]-CB--CG-[CD1] |==|  0.26264
USER: genes 18 Torsion [N]-CA--C-[O] |==|  0.21755
USER: genes 19 Torsion [N]-CA--CB-[CG] |==|  0.87664
USER: genes 20 Torsion [CA]-CB--CG-[OD2] |==|  0.72188
USER: genes 21 Torsion [N]-CA--CB-[CG2] |==|  0.97566
ROOT
ATOM      1  CA  VAL B  11      35.926  24.191  52.204  1.00 37.38 LIG 0.18  C 
ENDROOT
BRANCH 1 2
ATOM      2  N   VAL B  11      35.543  22.814  52.504  1.00 31.05 LIG-0.35  N 
ATOM      3  C   GLY B  10      34.976  22.042  51.581  1.00 33.93 LIG 0.24  C 
ATOM      4 O    GLY B  10      34.772  22.416  50.426  1.00 34.12 LIG-0.27  OA
ATOM      5 H    VAL B  11      35.715  22.562  53.308  1.00 31.05 LIG 0.16  HD
BRANCH 3 6
ATOM      6  CA  GLY B  10      34.571  20.647  52.009  1.00 30.55 LIG 0.23  C 
BRANCH 6 7
ATOM      7  N   GLY B  10      33.249  20.335  51.498  1.00 34.58 LIG-0.35  N 
ATOM      8  C   SER B   9      32.422  19.523  52.150  1.00 38.05 LIG 0.24  C 
ATOM      9 O    SER B   9      32.743  18.910  53.161  1.00 29.17 LIG-0.27  OA
ATOM     10 H    GLY B  10      33.058  20.718  50.752  1.00 34.58 LIG 0.16  HD
BRANCH 8 11
ATOM     11  CA  SER B   9      31.019  19.384  51.572  1.00 34.70 LIG 0.20  C 
BRANCH 11 12
ATOM     12  N   SER B   9      30.367  18.153  52.013  1.00 35.55 LIG-0.34  N 
ATOM     13  C   SER B   8      29.610  17.439  51.187  1.00 40.46 LIG 0.26  C 
ATOM     14 O    SER B   8      29.470  17.729  49.998  1.00 45.68 LIG-0.27  OA
ATOM     15 H    SER B   9      30.517  17.943  52.834  1.00 35.55 LIG 0.16  HD
BRANCH 13 16
ATOM     16  CA  SER B   8      28.932  16.200  51.777  1.00 36.95 LIG 0.42  C 
ATOM     17  N   SER B   8      27.652  15.904  51.127  1.00 41.16 LIG 0.62  N 
BRANCH 16 18
ATOM     18  CB  SER B   8      29.884  15.010  51.666  1.00 41.03 LIG 0.21  C 
BRANCH 18 19
ATOM     19 OG   SER B   8      30.938  15.242  50.747  1.00 28.13 LIG-0.40  OA
ATOM     20 HG   SER B   8      30.653  15.145  49.963  1.00 28.13 LIG 0.21  HD
ENDBRANCH 18 19
ENDBRANCH 16 18
ENDBRANCH 13 16
ENDBRANCH 11 12
BRANCH 11 21
ATOM     21  CB  SER B   9      30.180  20.597  51.970  1.00 39.19 LIG 0.20  C 
BRANCH 21 22
ATOM     22 OG   SER B   9      29.262  20.252  52.998  1.00 46.55 LIG-0.40  OA
ATOM     23 HG   SER B   9      28.617  20.790  52.989  1.00 46.55 LIG 0.21  HD
ENDBRANCH 21 22
ENDBRANCH 11 21
ENDBRANCH 8 11
ENDBRANCH 6 7
ENDBRANCH 3 6
ENDBRANCH 1 2
BRANCH 1 24
ATOM     24  C   VAL B  11      37.450  24.348  52.095  1.00 38.72 LIG 0.24  C 
ATOM     25 O    VAL B  11      38.135  24.611  53.087  1.00 29.21 LIG-0.27  OA
ATOM     26  N   ASP B  12      37.986  24.161  50.893  1.00 41.61 LIG-0.34  N 
ATOM     27 H    ASP B  12      37.563  23.845  50.214  1.00 41.61 LIG 0.16  HD
BRANCH 26 28
ATOM     28  CA  ASP B  12      39.382  24.497  50.646  1.00 41.44 LIG 0.19  C 
BRANCH 28 29
ATOM     29  C   ASP B  12      39.611  25.993  50.849  1.00 45.77 LIG 0.24  C 
ATOM     30 O    ASP B  12      38.815  26.818  50.392  1.00 50.52 LIG-0.27  OA
ATOM     31  N   LEU B  13      40.691  26.322  51.557  1.00 51.98 LIG-0.35  N 
ATOM     32 H    LEU B  13      41.195  25.741  51.942  1.00 51.98 LIG 0.16  HD
BRANCH 31 33
ATOM     33  CA  LEU B  13      41.134  27.702  51.753  1.00 53.13 LIG 0.16  C 
BRANCH 33 34
ATOM     34  CB  LEU B  13      41.720  28.250  50.441  1.00 52.95 LIG 0.04  C 
BRANCH 34 35
ATOM     35  CG  LEU B  13      42.596  27.387  49.523  1.00 63.18 LIG-0.02  C 
ATOM     36  CD1 LEU B  13      41.757  26.739  48.433  1.00 59.33 LIG 0.01  C 
ATOM     37  CD2 LEU B  13      43.707  28.212  48.886  1.00 64.76 LIG 0.01  C 
ENDBRANCH 34 35
ENDBRANCH 33 34
BRANCH 33 38
ATOM     38  C   LEU B  13      39.996  28.595  52.249  1.00 54.04 LIG 0.22  C 
ATOM     39 O    LEU B  13      39.648  28.575  53.430  1.00 55.16 LIG-0.29  OA
ENDBRANCH 33 38
ENDBRANCH 31 33
ENDBRANCH 28 29
BRANCH 28 40
ATOM     40  CB  ASP B  12      39.816  24.081  49.240  1.00 42.16 LIG 0.15  C 
BRANCH 40 41
ATOM     41  CG  ASP B  12      39.330  22.685  48.873  1.00 44.94 LIG 0.17  C 
ATOM     42 OD2  ASP B  12      40.141  21.736  48.965  1.00 53.96 LIG-0.65  OA
ATOM     43 OD1  ASP B  12      38.141  22.536  48.498  1.00 32.79 LIG-0.65  OA
ENDBRANCH 40 41
ENDBRANCH 28 40
ENDBRANCH 26 28
ENDBRANCH 1 24
BRANCH 1 44
ATOM     44  CB  VAL B  11      35.365  25.165  53.277  1.00 40.95 LIG 0.01  C 
ATOM     45  CG2 VAL B  11      34.395  24.452  54.222  1.00 48.12 LIG 0.01  C 
ATOM     46  CG1 VAL B  11      34.708  26.376  52.622  1.00 38.34 LIG 0.01  C 
ENDBRANCH 1 44
TORSDOF 20
ENDMDL
MODEL 24
USER: ADFR SOLUTION from run 87
USER: SCORE 13.918715 LL:  -2.241 LR: -12.540 RR:   0.000 FEB:  -6.574
USER: RMSD 4.812491
USER: SEED 86
USER: STATUS no improvement in best in 5 clusters for 5 generations
USER: GENES 22
USER: genes 0 Translation |==|  0.43518 0.49821 0.57340
USER: genes 1 Rotation |==|  0.29231 0.15789 0.44240 0.79413
USER: genes 2 Torsion [CB]-CA--N-[C] |==|  0.77769
USER: genes 3 Torsion [N]-C--CA-[N] |==|  0.85968
USER: genes 4 Torsion [C]-CA--N-[C] |==|  0.82684
USER: genes 5 Torsion [N]-C--CA-[N] |==|  0.41302
USER: genes 6 Torsion [C]-CA--N-[C] |==|  0.55429
USER: genes 7 Torsion [N]-C--CA-[N] |==|  0.30636
USER: genes 8 Torsion [C]-CA--CB-[OG] |==|  0.63046
USER: genes 9 Torsion [CA]-CB--OG-[HG] |==|  0.36235
USER: genes 10 Torsion [C]-CA--CB-[OG] |==|  0.15107
USER: genes 11 Torsion [CA]-CB--OG-[HG] |==|  0.25260
USER: genes 12 Torsion [N]-CA--C-[N] |==|  0.22094
USER: genes 13 Torsion [C]-N--CA-[C] |==|  0.65891
USER: genes 14 Torsion [N]-CA--C-[N] |==|  0.43227
USER: genes 15 Torsion [C]-N--CA-[CB] |==|  0.32393
USER: genes 16 Torsion [N]-CA--CB-[CG] |==|  0.08925
USER: genes 17 Torsion [CA]-CB--CG-[CD1] |==|  0.80456
USER: genes 18 Torsion [N]-CA--C-[O] |==|  0.45083
USER: genes 19 Torsion [N]-CA--CB-[CG] |==|  0.15935
USER: genes 20 Torsion [CA]-CB--CG-[OD2] |==|  0.17127
USER: genes 21 Torsion [N]-CA--CB-[CG2] |==|  0.85513
ROOT
ATOM      1  CA  VAL B  11      31.523  19.585  51.849  1.00 37.38 LIG 0.18  C 
ENDROOT
BRANCH 1 2
ATOM      2  N   VAL B  11      31.681  18.293  51.188  1.00 31.05 LIG-0.35  N 
ATOM      3  C   GLY B  10      32.417  17.328  51.735  1.00 33.93 LIG 0.24  C 
ATOM      4 O    GLY B  10      32.971  17.443  52.828  1.00 34.12 LIG-0.27  OA
ATOM      5 H    VAL B  11      31.267  18.220  50.438  1.00 31.05 LIG 0.16  HD
BRANCH 3 6
ATOM      6  CA  GLY B  10      32.558  16.043  50.945  1.00 30.55 LIG 0.23  C 
BRANCH 6 7
ATOM      7  N   GLY B  10      31.251  15.569  50.530  1.00 34.58 LIG-0.35  N 
ATOM      8  C   SER B   9      30.320  15.223  51.416  1.00 38.05 LIG 0.24  C 
ATOM      9 O    SER B   9      30.525  15.185  52.623  1.00 29.17 LIG-0.27  OA
ATOM     10 H    GLY B  10      31.139  15.536  49.678  1.00 34.58 LIG 0.16  HD
BRANCH 8 11
ATOM     11  CA  SER B   9      28.950  14.869  50.851  1.00 34.70 LIG 0.20  C 
BRANCH 11 12
ATOM     12  N   SER B   9      28.268  13.865  51.664  1.00 35.55 LIG-0.34  N 
ATOM     13  C   SER B   8      27.268  13.143  51.172  1.00 40.46 LIG 0.26  C 
ATOM     14 O    SER B   8      26.905  13.224  49.998  1.00 45.68 LIG-0.27  OA
ATOM     15 H    SER B   9      28.568  13.790  52.467  1.00 35.55 LIG 0.16  HD
BRANCH 13 16
ATOM     16  CA  SER B   8      26.592  12.162  52.135  1.00 36.95 LIG 0.42  C 
ATOM     17  N   SER B   8      25.230  12.577  52.487  1.00 41.16 LIG 0.62  N 
BRANCH 16 18
ATOM     18  CB  SER B   8      26.589  10.769  51.508  1.00 41.03 LIG 0.21  C 
BRANCH 18 19
ATOM     19 OG   SER B   8      25.325  10.135  51.600  1.00 28.13 LIG-0.40  OA
ATOM     20 HG   SER B   8      25.106   9.837  50.846  1.00 28.13 LIG 0.21  HD
ENDBRANCH 18 19
ENDBRANCH 16 18
ENDBRANCH 13 16
ENDBRANCH 11 12
BRANCH 11 21
ATOM     21  CB  SER B   9      28.098  16.132  50.748  1.00 39.19 LIG 0.20  C 
BRANCH 21 22
ATOM     22 OG   SER B   9      28.775  17.131  49.998  1.00 46.55 LIG-0.40  OA
ATOM     23 HG   SER B   9      28.570  17.060  49.187  1.00 46.55 LIG 0.21  HD
ENDBRANCH 21 22
ENDBRANCH 11 21
ENDBRANCH 8 11
ENDBRANCH 6 7
ENDBRANCH 3 6
ENDBRANCH 1 2
BRANCH 1 24
ATOM     24  C   VAL B  11      32.852  20.098  52.424  1.00 38.72 LIG 0.24  C 
ATOM     25 O    VAL B  11      33.122  19.963  53.620  1.00 29.21 LIG-0.27  OA
ATOM     26  N   ASP B  12      33.695  20.664  51.566  1.00 41.61 LIG-0.34  N 
ATOM     27 H    ASP B  12      33.603  20.652  50.711  1.00 41.61 LIG 0.16  HD
BRANCH 26 28
ATOM     28  CA  ASP B  12      34.876  21.368  52.047  1.00 41.44 LIG 0.19  C 
BRANCH 28 29
ATOM     29  C   ASP B  12      34.875  22.810  51.544  1.00 45.77 LIG 0.24  C 
ATOM     30 O    ASP B  12      34.240  23.122  50.533  1.00 50.52 LIG-0.27  OA
ATOM     31  N   LEU B  13      35.571  23.679  52.277  1.00 51.98 LIG-0.35  N 
ATOM     32 H    LEU B  13      35.941  23.471  53.025  1.00 51.98 LIG 0.16  HD
BRANCH 31 33
ATOM     33  CA  LEU B  13      35.780  25.072  51.888  1.00 53.13 LIG 0.16  C 
BRANCH 33 34
ATOM     34  CB  LEU B  13      35.118  26.003  52.919  1.00 52.95 LIG 0.04  C 
BRANCH 34 35
ATOM     35  CG  LEU B  13      35.021  25.627  54.403  1.00 63.18 LIG-0.02  C 
ATOM     36  CD1 LEU B  13      34.029  24.493  54.607  1.00 59.33 LIG 0.01  C 
ATOM     37  CD2 LEU B  13      36.380  25.219  54.958  1.00 64.76 LIG 0.01  C 
ENDBRANCH 34 35
ENDBRANCH 33 34
BRANCH 33 38
ATOM     38  C   LEU B  13      37.266  25.402  51.742  1.00 54.04 LIG 0.22  C 
ATOM     39 O    LEU B  13      37.632  26.400  51.122  1.00 55.16 LIG-0.29  OA
ENDBRANCH 33 38
ENDBRANCH 31 33
ENDBRANCH 28 29
BRANCH 28 40
ATOM     40  CB  ASP B  12      36.162  20.659  51.618  1.00 42.16 LIG 0.15  C 
BRANCH 40 41
ATOM     41  CG  ASP B  12      36.260  20.502  50.107  1.00 44.94 LIG 0.17  C 
ATOM     42 OD2  ASP B  12      36.289  21.540  49.408  1.00 53.96 LIG-0.65  OA
ATOM     43 OD1  ASP B  12      36.315  19.346  49.619  1.00 32.79 LIG-0.65  OA
ENDBRANCH 40 41
ENDBRANCH 28 40
ENDBRANCH 26 28
ENDBRANCH 1 24
BRANCH 1 44
ATOM     44  CB  VAL B  11      30.453  19.501  52.973  1.00 40.95 LIG 0.01  C 
ATOM     45  CG2 VAL B  11      29.144  18.906  52.450  1.00 48.12 LIG 0.01  C 
ATOM     46  CG1 VAL B  11      30.224  20.868  53.610  1.00 38.34 LIG 0.01  C 
ENDBRANCH 1 44
TORSDOF 20
ENDMDL
MODEL 25
USER: ADFR SOLUTION from run 23
USER: SCORE 14.007172 LL:  -3.228 LR: -12.513 RR:   0.000 FEB:  -6.547
USER: RMSD 4.785922
USER: SEED 22
USER: STATUS no improvement in best in 3 clusters for 5 generations
USER: GENES 22
USER: genes 0 Translation |==|  0.56575 0.68513 0.57613
USER: genes 1 Rotation |==|  0.06392 0.32958 0.48647 0.67494
USER: genes 2 Torsion [CB]-CA--N-[C] |==|  0.45804
USER: genes 3 Torsion [N]-C--CA-[N] |==|  0.47864
USER: genes 4 Torsion [C]-CA--N-[C] |==|  0.57936
USER: genes 5 Torsion [N]-C--CA-[N] |==|  0.06732
USER: genes 6 Torsion [C]-CA--N-[C] |==|  0.17758
USER: genes 7 Torsion [N]-C--CA-[N] |==|  0.87145
USER: genes 8 Torsion [C]-CA--CB-[OG] |==|  0.81176
USER: genes 9 Torsion [CA]-CB--OG-[HG] |==|  0.34502
USER: genes 10 Torsion [C]-CA--CB-[OG] |==|  0.50659
USER: genes 11 Torsion [CA]-CB--OG-[HG] |==|  0.69925
USER: genes 12 Torsion [N]-CA--C-[N] |==|  0.38473
USER: genes 13 Torsion [C]-N--CA-[C] |==|  0.75146
USER: genes 14 Torsion [N]-CA--C-[N] |==|  0.89013
USER: genes 15 Torsion [C]-N--CA-[CB] |==|  0.27500
USER: genes 16 Torsion [N]-CA--CB-[CG] |==|  0.03420
USER: genes 17 Torsion [CA]-CB--CG-[CD1] |==|  0.41133
USER: genes 18 Torsion [N]-CA--C-[O] |==|  0.87475
USER: genes 19 Torsion [N]-CA--CB-[CG] |==|  0.95567
USER: genes 20 Torsion [CA]-CB--CG-[OD2] |==|  0.82761
USER: genes 21 Torsion [N]-CA--CB-[CG2] |==|  0.52807
ROOT
ATOM      1  CA  VAL B  11      35.048  23.931  51.890  1.00 37.38 LIG 0.18  C 
ENDROOT
BRANCH 1 2
ATOM      2  N   VAL B  11      34.018  23.043  52.421  1.00 31.05 LIG-0.35  N 
ATOM      3  C   GLY B  10      33.700  21.910  51.799  1.00 33.93 LIG 0.24  C 
ATOM      4 O    GLY B  10      34.266  21.525  50.775  1.00 34.12 LIG-0.27  OA
ATOM      5 H    VAL B  11      33.651  23.315  53.150  1.00 31.05 LIG 0.16  HD
BRANCH 3 6
ATOM      6  CA  GLY B  10      32.584  21.085  52.405  1.00 30.55 LIG 0.23  C 
BRANCH 6 7
ATOM      7  N   GLY B  10      32.240  19.989  51.518  1.00 34.58 LIG-0.35  N 
ATOM      8  C   SER B   9      31.015  19.472  51.488  1.00 38.05 LIG 0.24  C 
ATOM      9 O    SER B   9      30.126  19.809  52.262  1.00 29.17 LIG-0.27  OA
ATOM     10 H    GLY B  10      32.890  19.714  51.025  1.00 34.58 LIG 0.16  HD
BRANCH 8 11
ATOM     11  CA  SER B   9      30.755  18.416  50.422  1.00 34.70 LIG 0.20  C 
BRANCH 11 12
ATOM     12  N   SER B   9      31.985  17.752  49.999  1.00 35.55 LIG-0.34  N 
ATOM     13  C   SER B   8      32.699  17.018  50.845  1.00 40.46 LIG 0.26  C 
ATOM     14 O    SER B   8      32.337  16.797  52.002  1.00 45.68 LIG-0.27  OA
ATOM     15 H    SER B   9      32.195  17.879  49.175  1.00 35.55 LIG 0.16  HD
BRANCH 13 16
ATOM     16  CA  SER B   8      34.000  16.418  50.304  1.00 36.95 LIG 0.42  C 
ATOM     17  N   SER B   8      33.820  15.795  48.990  1.00 41.16 LIG 0.62  N 
BRANCH 16 18
ATOM     18  CB  SER B   8      35.066  17.511  50.244  1.00 41.03 LIG 0.21  C 
BRANCH 18 19
ATOM     19 OG   SER B   8      34.775  18.501  49.272  1.00 28.13 LIG-0.40  OA
ATOM     20 HG   SER B   8      34.764  19.257  49.637  1.00 28.13 LIG 0.21  HD
ENDBRANCH 18 19
ENDBRANCH 16 18
ENDBRANCH 13 16
ENDBRANCH 11 12
BRANCH 11 21
ATOM     21  CB  SER B   9      29.758  17.387  50.956  1.00 39.19 LIG 0.20  C 
BRANCH 21 22
ATOM     22 OG   SER B   9      29.540  16.361  49.998  1.00 46.55 LIG-0.40  OA
ATOM     23 HG   SER B   9      28.772  16.443  49.669  1.00 46.55 LIG 0.21  HD
ENDBRANCH 21 22
ENDBRANCH 11 21
ENDBRANCH 8 11
ENDBRANCH 6 7
ENDBRANCH 3 6
ENDBRANCH 1 2
BRANCH 1 24
ATOM     24  C   VAL B  11      36.455  23.341  52.066  1.00 38.72 LIG 0.24  C 
ATOM     25 O    VAL B  11      36.772  22.749  53.101  1.00 29.21 LIG-0.27  OA
ATOM     26  N   ASP B  12      37.294  23.480  51.044  1.00 41.61 LIG-0.34  N 
ATOM     27 H    ASP B  12      37.069  23.761  50.263  1.00 41.61 LIG 0.16  HD
BRANCH 26 28
ATOM     28  CA  ASP B  12      38.704  23.149  51.195  1.00 41.44 LIG 0.19  C 
BRANCH 28 29
ATOM     29  C   ASP B  12      39.488  24.371  51.669  1.00 45.77 LIG 0.24  C 
ATOM     30 O    ASP B  12      40.404  24.250  52.488  1.00 50.52 LIG-0.27  OA
ATOM     31  N   LEU B  13      39.131  25.534  51.126  1.00 51.98 LIG-0.35  N 
ATOM     32 H    LEU B  13      38.550  25.598  50.495  1.00 51.98 LIG 0.16  HD
BRANCH 31 33
ATOM     33  CA  LEU B  13      39.688  26.820  51.542  1.00 53.13 LIG 0.16  C 
BRANCH 33 34
ATOM     34  CB  LEU B  13      40.796  27.247  50.564  1.00 52.95 LIG 0.04  C 
BRANCH 34 35
ATOM     35  CG  LEU B  13      41.003  26.540  49.219  1.00 63.18 LIG-0.02  C 
ATOM     36  CD1 LEU B  13      41.523  27.515  48.174  1.00 59.33 LIG 0.01  C 
ATOM     37  CD2 LEU B  13      41.975  25.374  49.354  1.00 64.76 LIG 0.01  C 
ENDBRANCH 34 35
ENDBRANCH 33 34
BRANCH 33 38
ATOM     38  C   LEU B  13      38.607  27.898  51.637  1.00 54.04 LIG 0.22  C 
ATOM     39 O    LEU B  13      37.765  28.026  50.748  1.00 55.16 LIG-0.29  OA
ENDBRANCH 33 38
ENDBRANCH 31 33
ENDBRANCH 28 29
BRANCH 28 40
ATOM     40  CB  ASP B  12      39.295  22.614  49.889  1.00 42.16 LIG 0.15  C 
BRANCH 40 41
ATOM     41  CG  ASP B  12      38.221  22.197  48.895  1.00 44.94 LIG 0.17  C 
ATOM     42 OD2  ASP B  12      37.445  21.271  49.221  1.00 53.96 LIG-0.65  OA
ATOM     43 OD1  ASP B  12      38.148  22.796  47.793  1.00 32.79 LIG-0.65  OA
ENDBRANCH 40 41
ENDBRANCH 28 40
ENDBRANCH 26 28
ENDBRANCH 1 24
BRANCH 1 44
ATOM     44  CB  VAL B  11      34.969  25.330  52.562  1.00 40.95 LIG 0.01  C 
ATOM     45  CG2 VAL B  11      35.868  26.342  51.849  1.00 48.12 LIG 0.01  C 
ATOM     46  CG1 VAL B  11      35.306  25.240  54.047  1.00 38.34 LIG 0.01  C 
ENDBRANCH 1 44
TORSDOF 20
ENDMDL
MODEL 26
USER: ADFR SOLUTION from run 184
USER: SCORE 13.455258 LL:  -1.891 LR: -12.475 RR:   0.000 FEB:  -6.509
USER: RMSD 6.114130
USER: SEED 183
USER: STATUS no improvement in best in 6 clusters for 5 generations
USER: GENES 22
USER: genes 0 Translation |==|  0.37586 0.50895 0.58671
USER: genes 1 Rotation |==|  0.22120 0.26461 0.33330 0.79846
USER: genes 2 Torsion [CB]-CA--N-[C] |==|  0.76514
USER: genes 3 Torsion [N]-C--CA-[N] |==|  0.59284
USER: genes 4 Torsion [C]-CA--N-[C] |==|  0.39746
USER: genes 5 Torsion [N]-C--CA-[N] |==|  0.35293
USER: genes 6 Torsion [C]-CA--N-[C] |==|  0.74495
USER: genes 7 Torsion [N]-C--CA-[N] |==|  0.84814
USER: genes 8 Torsion [C]-CA--CB-[OG] |==|  0.62925
USER: genes 9 Torsion [CA]-CB--OG-[HG] |==|  0.30870
USER: genes 10 Torsion [C]-CA--CB-[OG] |==|  0.80669
USER: genes 11 Torsion [CA]-CB--OG-[HG] |==|  0.88468
USER: genes 12 Torsion [N]-CA--C-[N] |==|  0.18336
USER: genes 13 Torsion [C]-N--CA-[C] |==|  0.75047
USER: genes 14 Torsion [N]-CA--C-[N] |==|  0.92420
USER: genes 15 Torsion [C]-N--CA-[CB] |==|  0.85204
USER: genes 16 Torsion [N]-CA--CB-[CG] |==|  0.47076
USER: genes 17 Torsion [CA]-CB--CG-[CD1] |==|  0.13262
USER: genes 18 Torsion [N]-CA--C-[O] |==|  0.08128
USER: genes 19 Torsion [N]-CA--CB-[CG] |==|  0.93579
USER: genes 20 Torsion [CA]-CB--CG-[OD2] |==|  0.84986
USER: genes 21 Torsion [N]-CA--CB-[CG2] |==|  0.50823
ROOT
ATOM      1  CA  VAL B  11      29.921  19.835  52.049  1.00 37.38 LIG 0.18  C 
ENDROOT
BRANCH 1 2
ATOM      2  N   VAL B  11      29.237  18.868  51.195  1.00 31.05 LIG-0.35  N 
ATOM      3  C   GLY B  10      29.342  17.560  51.418  1.00 33.93 LIG 0.24  C 
ATOM      4 O    GLY B  10      29.980  17.089  52.360  1.00 34.12 LIG-0.27  OA
ATOM      5 H    VAL B  11      28.776  19.215  50.557  1.00 31.05 LIG 0.16  HD
BRANCH 3 6
ATOM      6  CA  GLY B  10      28.635  16.640  50.445  1.00 30.55 LIG 0.23  C 
BRANCH 6 7
ATOM      7  N   GLY B  10      28.157  15.458  51.138  1.00 34.58 LIG-0.35  N 
ATOM      8  C   SER B   9      26.997  14.887  50.827  1.00 38.05 LIG 0.24  C 
ATOM      9 O    SER B   9      26.212  15.362  50.014  1.00 29.17 LIG-0.27  OA
ATOM     10 H    GLY B  10      28.684  15.171  51.755  1.00 34.58 LIG 0.16  HD
BRANCH 8 11
ATOM     11  CA  SER B   9      26.675  13.580  51.541  1.00 34.70 LIG 0.20  C 
BRANCH 11 12
ATOM     12  N   SER B   9      25.365  13.620  52.187  1.00 35.55 LIG-0.34  N 
ATOM     13  C   SER B   8      25.232  14.004  53.452  1.00 40.46 LIG 0.26  C 
ATOM     14 O    SER B   8      26.179  14.412  54.125  1.00 45.68 LIG-0.27  OA
ATOM     15 H    SER B   9      24.711  13.377  51.685  1.00 35.55 LIG 0.16  HD
BRANCH 13 16
ATOM     16  CA  SER B   8      23.819  13.951  54.039  1.00 36.95 LIG 0.42  C 
ATOM     17  N   SER B   8      22.853  14.703  53.233  1.00 41.16 LIG 0.62  N 
BRANCH 16 18
ATOM     18  CB  SER B   8      23.391  12.490  54.175  1.00 41.03 LIG 0.21  C 
BRANCH 18 19
ATOM     19 OG   SER B   8      22.081  12.260  53.685  1.00 28.13 LIG-0.40  OA
ATOM     20 HG   SER B   8      22.121  11.795  52.987  1.00 28.13 LIG 0.21  HD
ENDBRANCH 18 19
ENDBRANCH 16 18
ENDBRANCH 13 16
ENDBRANCH 11 12
BRANCH 11 21
ATOM     21  CB  SER B   9      26.736  12.425  50.543  1.00 39.19 LIG 0.20  C 
BRANCH 21 22
ATOM     22 OG   SER B   9      25.656  12.503  49.623  1.00 46.55 LIG-0.40  OA
ATOM     23 HG   SER B   9      24.954  12.717  50.032  1.00 46.55 LIG 0.21  HD
ENDBRANCH 21 22
ENDBRANCH 11 21
ENDBRANCH 8 11
ENDBRANCH 6 7
ENDBRANCH 3 6
ENDBRANCH 1 2
BRANCH 1 24
ATOM     24  C   VAL B  11      31.317  19.344  52.460  1.00 38.72 LIG 0.24  C 
ATOM     25 O    VAL B  11      31.571  19.058  53.633  1.00 29.21 LIG-0.27  OA
ATOM     26  N   ASP B  12      32.217  19.222  51.489  1.00 41.61 LIG-0.34  N 
ATOM     27 H    ASP B  12      32.041  19.278  50.650  1.00 41.61 LIG 0.16  HD
BRANCH 26 28
ATOM     28  CA  ASP B  12      33.617  18.973  51.808  1.00 41.44 LIG 0.19  C 
BRANCH 28 29
ATOM     29  C   ASP B  12      34.366  20.294  51.972  1.00 45.77 LIG 0.24  C 
ATOM     30 O    ASP B  12      35.375  20.359  52.681  1.00 50.52 LIG-0.27  OA
ATOM     31  N   LEU B  13      33.873  21.327  51.293  1.00 51.98 LIG-0.35  N 
ATOM     32 H    LEU B  13      33.220  21.255  50.736  1.00 51.98 LIG 0.16  HD
BRANCH 31 33
ATOM     33  CA  LEU B  13      34.385  22.691  51.418  1.00 53.13 LIG 0.16  C 
BRANCH 33 34
ATOM     34  CB  LEU B  13      34.397  23.106  52.899  1.00 52.95 LIG 0.04  C 
BRANCH 34 35
ATOM     35  CG  LEU B  13      35.098  24.385  53.375  1.00 63.18 LIG-0.02  C 
ATOM     36  CD1 LEU B  13      34.716  25.566  52.497  1.00 59.33 LIG 0.01  C 
ATOM     37  CD2 LEU B  13      34.751  24.697  54.825  1.00 64.76 LIG 0.01  C 
ENDBRANCH 34 35
ENDBRANCH 33 34
BRANCH 33 38
ATOM     38  C   LEU B  13      35.782  22.828  50.809  1.00 54.04 LIG 0.22  C 
ATOM     39 O    LEU B  13      36.133  22.112  49.871  1.00 55.16 LIG-0.29  OA
ENDBRANCH 33 38
ENDBRANCH 31 33
ENDBRANCH 28 29
BRANCH 28 40
ATOM     40  CB  ASP B  12      34.289  18.113  50.736  1.00 42.16 LIG 0.15  C 
BRANCH 40 41
ATOM     41  CG  ASP B  12      33.287  17.283  49.946  1.00 44.94 LIG 0.17  C 
ATOM     42 OD2  ASP B  12      32.503  16.544  50.584  1.00 53.96 LIG-0.65  OA
ATOM     43 OD1  ASP B  12      33.278  17.372  48.694  1.00 32.79 LIG-0.65  OA
ENDBRANCH 40 41
ENDBRANCH 28 40
ENDBRANCH 26 28
ENDBRANCH 1 24
BRANCH 1 44
ATOM     44  CB  VAL B  11      29.073  20.150  53.312  1.00 40.95 LIG 0.01  C 
ATOM     45  CG2 VAL B  11      29.744  21.218  54.180  1.00 48.12 LIG 0.01  C 
ATOM     46  CG1 VAL B  11      28.795  18.882  54.111  1.00 38.34 LIG 0.01  C 
ENDBRANCH 1 44
TORSDOF 20
ENDMDL
MODEL 27
USER: ADFR SOLUTION from run 113
USER: SCORE 12.658749 LL:  -2.795 LR: -12.462 RR:   0.000 FEB:  -6.496
USER: RMSD 6.466605
USER: SEED 112
USER: STATUS no improvement in best in 11 clusters for 5 generations
USER: GENES 22
USER: genes 0 Translation |==|  0.40697 0.46120 0.54114
USER: genes 1 Rotation |==|  0.06581 0.27769 0.50578 0.60966
USER: genes 2 Torsion [CB]-CA--N-[C] |==|  0.31414
USER: genes 3 Torsion [N]-C--CA-[N] |==|  0.57222
USER: genes 4 Torsion [C]-CA--N-[C] |==|  0.44089
USER: genes 5 Torsion [N]-C--CA-[N] |==|  0.61041
USER: genes 6 Torsion [C]-CA--N-[C] |==|  0.68405
USER: genes 7 Torsion [N]-C--CA-[N] |==|  0.48666
USER: genes 8 Torsion [C]-CA--CB-[OG] |==|  0.44714
USER: genes 9 Torsion [CA]-CB--OG-[HG] |==|  0.84013
USER: genes 10 Torsion [C]-CA--CB-[OG] |==|  0.74354
USER: genes 11 Torsion [CA]-CB--OG-[HG] |==|  0.95256
USER: genes 12 Torsion [N]-CA--C-[N] |==|  0.36097
USER: genes 13 Torsion [C]-N--CA-[C] |==|  0.81499
USER: genes 14 Torsion [N]-CA--C-[N] |==|  0.92247
USER: genes 15 Torsion [C]-N--CA-[CB] |==|  0.86420
USER: genes 16 Torsion [N]-CA--CB-[CG] |==|  0.88576
USER: genes 17 Torsion [CA]-CB--CG-[CD1] |==|  0.34286
USER: genes 18 Torsion [N]-CA--C-[O] |==|  0.09243
USER: genes 19 Torsion [N]-CA--CB-[CG] |==|  0.91936
USER: genes 20 Torsion [CA]-CB--CG-[OD2] |==|  0.83776
USER: genes 21 Torsion [N]-CA--CB-[CG2] |==|  0.47401
ROOT
ATOM      1  CA  VAL B  11      30.761  18.725  51.365  1.00 37.38 LIG 0.18  C 
ENDROOT
BRANCH 1 2
ATOM      2  N   VAL B  11      29.861  17.794  52.041  1.00 31.05 LIG-0.35  N 
ATOM      3  C   GLY B  10      29.055  16.994  51.349  1.00 33.93 LIG 0.24  C 
ATOM      4 O    GLY B  10      29.039  16.958  50.118  1.00 34.12 LIG-0.27  OA
ATOM      5 H    VAL B  11      29.903  17.815  52.900  1.00 31.05 LIG 0.16  HD
BRANCH 3 6
ATOM      6  CA  GLY B  10      28.124  16.103  52.145  1.00 30.55 LIG 0.23  C 
BRANCH 6 7
ATOM      7  N   GLY B  10      27.787  14.922  51.372  1.00 34.58 LIG-0.35  N 
ATOM      8  C   SER B   9      27.348  13.808  51.953  1.00 38.05 LIG 0.24  C 
ATOM      9 O    SER B   9      27.290  13.664  53.169  1.00 29.17 LIG-0.27  OA
ATOM     10 H    GLY B  10      27.894  15.010  50.523  1.00 34.58 LIG 0.16  HD
BRANCH 8 11
ATOM     11  CA  SER B   9      26.906  12.689  51.019  1.00 34.70 LIG 0.20  C 
BRANCH 11 12
ATOM     12  N   SER B   9      25.708  12.011  51.508  1.00 35.55 LIG-0.34  N 
ATOM     13  C   SER B   8      25.745  10.742  51.899  1.00 40.46 LIG 0.26  C 
ATOM     14 O    SER B   8      26.789  10.090  51.939  1.00 45.68 LIG-0.27  OA
ATOM     15 H    SER B   9      25.000  12.499  51.517  1.00 35.55 LIG 0.16  HD
BRANCH 13 16
ATOM     16  CA  SER B   8      24.416  10.122  52.338  1.00 36.95 LIG 0.42  C 
ATOM     17  N   SER B   8      24.542   8.693  52.642  1.00 41.16 LIG 0.62  N 
BRANCH 16 18
ATOM     18  CB  SER B   8      23.882  10.888  53.547  1.00 41.03 LIG 0.21  C 
BRANCH 18 19
ATOM     19 OG   SER B   8      22.496  10.681  53.754  1.00 28.13 LIG-0.40  OA
ATOM     20 HG   SER B   8      22.073  10.906  53.065  1.00 28.13 LIG 0.21  HD
ENDBRANCH 18 19
ENDBRANCH 16 18
ENDBRANCH 13 16
ENDBRANCH 11 12
BRANCH 11 21
ATOM     21  CB  SER B   9      26.658  13.258  49.623  1.00 39.19 LIG 0.20  C 
BRANCH 21 22
ATOM     22 OG   SER B   9      25.294  13.627  49.470  1.00 46.55 LIG-0.40  OA
ATOM     23 HG   SER B   9      24.836  13.260  50.070  1.00 46.55 LIG 0.21  HD
ENDBRANCH 21 22
ENDBRANCH 11 21
ENDBRANCH 8 11
ENDBRANCH 6 7
ENDBRANCH 3 6
ENDBRANCH 1 2
BRANCH 1 24
ATOM     24  C   VAL B  11      32.223  18.509  51.784  1.00 38.72 LIG 0.24  C 
ATOM     25 O    VAL B  11      32.538  18.424  52.974  1.00 29.21 LIG-0.27  OA
ATOM     26  N   ASP B  12      33.114  18.394  50.804  1.00 41.61 LIG-0.34  N 
ATOM     27 H    ASP B  12      32.916  18.311  49.972  1.00 41.61 LIG 0.16  HD
BRANCH 26 28
ATOM     28  CA  ASP B  12      34.541  18.404  51.099  1.00 41.44 LIG 0.19  C 
BRANCH 28 29
ATOM     29  C   ASP B  12      34.965  19.774  51.625  1.00 45.77 LIG 0.24  C 
ATOM     30 O    ASP B  12      35.941  19.884  52.372  1.00 50.52 LIG-0.27  OA
ATOM     31  N   LEU B  13      34.234  20.806  51.206  1.00 51.98 LIG-0.35  N 
ATOM     32 H    LEU B  13      33.609  20.730  50.620  1.00 51.98 LIG 0.16  HD
BRANCH 31 33
ATOM     33  CA  LEU B  13      34.417  22.172  51.694  1.00 53.13 LIG 0.16  C 
BRANCH 33 34
ATOM     34  CB  LEU B  13      34.464  22.171  53.231  1.00 52.95 LIG 0.04  C 
BRANCH 34 35
ATOM     35  CG  LEU B  13      33.517  21.301  54.069  1.00 63.18 LIG-0.02  C 
ATOM     36  CD1 LEU B  13      34.305  20.388  54.994  1.00 59.33 LIG 0.01  C 
ATOM     37  CD2 LEU B  13      32.564  22.159  54.891  1.00 64.76 LIG 0.01  C 
ENDBRANCH 34 35
ENDBRANCH 33 34
BRANCH 33 38
ATOM     38  C   LEU B  13      35.681  22.813  51.117  1.00 54.04 LIG 0.22  C 
ATOM     39 O    LEU B  13      36.064  22.537  49.980  1.00 55.16 LIG-0.29  OA
ENDBRANCH 33 38
ENDBRANCH 31 33
ENDBRANCH 28 29
BRANCH 28 40
ATOM     40  CB  ASP B  12      35.368  18.030  49.868  1.00 42.16 LIG 0.15  C 
BRANCH 40 41
ATOM     41  CG  ASP B  12      34.615  17.104  48.923  1.00 44.94 LIG 0.17  C 
ATOM     42 OD2  ASP B  12      34.212  16.007  49.372  1.00 53.96 LIG-0.65  OA
ATOM     43 OD1  ASP B  12      34.422  17.472  47.738  1.00 32.79 LIG-0.65  OA
ENDBRANCH 40 41
ENDBRANCH 28 40
ENDBRANCH 26 28
ENDBRANCH 1 24
BRANCH 1 44
ATOM     44  CB  VAL B  11      30.340  20.195  51.639  1.00 40.95 LIG 0.01  C 
ATOM     45  CG2 VAL B  11      31.397  21.180  51.134  1.00 48.12 LIG 0.01  C 
ATOM     46  CG1 VAL B  11      30.046  20.410  53.120  1.00 38.34 LIG 0.01  C 
ENDBRANCH 1 44
TORSDOF 20
ENDMDL
MODEL 28
USER: ADFR SOLUTION from run 24
USER: SCORE 14.252735 LL:  -2.928 LR: -12.386 RR:   0.000 FEB:  -6.420
USER: RMSD 5.268430
USER: SEED 23
USER: STATUS no improvement in best in 3 clusters for 5 generations
USER: GENES 22
USER: genes 0 Translation |==|  0.56878 0.56783 0.48019
USER: genes 1 Rotation |==|  0.17456 0.16555 0.45210 0.67303
USER: genes 2 Torsion [CB]-CA--N-[C] |==|  0.51151
USER: genes 3 Torsion [N]-C--CA-[N] |==|  0.97440
USER: genes 4 Torsion [C]-CA--N-[C] |==|  0.26893
USER: genes 5 Torsion [N]-C--CA-[N] |==|  0.28455
USER: genes 6 Torsion [C]-CA--N-[C] |==|  0.66864
USER: genes 7 Torsion [N]-C--CA-[N] |==|  0.27150
USER: genes 8 Torsion [C]-CA--CB-[OG] |==|  0.56972
USER: genes 9 Torsion [CA]-CB--OG-[HG] |==|  0.82319
USER: genes 10 Torsion [C]-CA--CB-[OG] |==|  0.67992
USER: genes 11 Torsion [CA]-CB--OG-[HG] |==|  0.51542
USER: genes 12 Torsion [N]-CA--C-[N] |==|  0.39591
USER: genes 13 Torsion [C]-N--CA-[C] |==|  0.70101
USER: genes 14 Torsion [N]-CA--C-[N] |==|  0.97778
USER: genes 15 Torsion [C]-N--CA-[CB] |==|  0.88002
USER: genes 16 Torsion [N]-CA--CB-[CG] |==|  0.85069
USER: genes 17 Torsion [CA]-CB--CG-[CD1] |==|  0.52590
USER: genes 18 Torsion [N]-CA--C-[O] |==|  0.91130
USER: genes 19 Torsion [N]-CA--CB-[CG] |==|  0.03925
USER: genes 20 Torsion [CA]-CB--CG-[OD2] |==|  0.79839
USER: genes 21 Torsion [N]-CA--CB-[CG2] |==|  0.49113
ROOT
ATOM      1  CA  VAL B  11      35.130  21.204  50.451  1.00 37.38 LIG 0.18  C 
ENDROOT
BRANCH 1 2
ATOM      2  N   VAL B  11      34.836  19.774  50.496  1.00 31.05 LIG-0.35  N 
ATOM      3  C   GLY B  10      35.725  18.877  50.076  1.00 33.93 LIG 0.24  C 
ATOM      4 O    GLY B  10      36.844  19.183  49.662  1.00 34.12 LIG-0.27  OA
ATOM      5 H    VAL B  11      34.060  19.577  50.811  1.00 31.05 LIG 0.16  HD
BRANCH 3 6
ATOM      6  CA  GLY B  10      35.303  17.423  50.118  1.00 30.55 LIG 0.23  C 
BRANCH 6 7
ATOM      7  N   GLY B  10      34.046  17.292  50.832  1.00 34.58 LIG-0.35  N 
ATOM      8  C   SER B   9      32.882  17.231  50.191  1.00 38.05 LIG 0.24  C 
ATOM      9 O    SER B   9      32.775  17.377  48.979  1.00 29.17 LIG-0.27  OA
ATOM     10 H    GLY B  10      34.125  17.259  51.688  1.00 34.58 LIG 0.16  HD
BRANCH 8 11
ATOM     11  CA  SER B   9      31.652  16.964  51.050  1.00 34.70 LIG 0.20  C 
BRANCH 11 12
ATOM     12  N   SER B   9      30.880  18.180  51.291  1.00 35.55 LIG-0.34  N 
ATOM     13  C   SER B   8      30.683  18.638  52.522  1.00 40.46 LIG 0.26  C 
ATOM     14 O    SER B   8      31.189  18.114  53.515  1.00 45.68 LIG-0.27  OA
ATOM     15 H    SER B   9      30.576  18.558  50.581  1.00 35.55 LIG 0.16  HD
BRANCH 13 16
ATOM     16  CA  SER B   8      29.810  19.890  52.656  1.00 36.95 LIG 0.42  C 
ATOM     17  N   SER B   8      28.422  19.566  52.999  1.00 41.16 LIG 0.62  N 
BRANCH 16 18
ATOM     18  CB  SER B   8      30.425  20.817  53.704  1.00 41.03 LIG 0.21  C 
BRANCH 18 19
ATOM     19 OG   SER B   8      29.467  21.673  54.301  1.00 28.13 LIG-0.40  OA
ATOM     20 HG   SER B   8      29.147  22.185  53.719  1.00 28.13 LIG 0.21  HD
ENDBRANCH 18 19
ENDBRANCH 16 18
ENDBRANCH 13 16
ENDBRANCH 11 12
BRANCH 11 21
ATOM     21  CB  SER B   9      30.777  15.910  50.373  1.00 39.19 LIG 0.20  C 
BRANCH 21 22
ATOM     22 OG   SER B   9      29.525  16.467  49.998  1.00 46.55 LIG-0.40  OA
ATOM     23 HG   SER B   9      29.027  15.861  49.698  1.00 46.55 LIG 0.21  HD
ENDBRANCH 21 22
ENDBRANCH 11 21
ENDBRANCH 8 11
ENDBRANCH 6 7
ENDBRANCH 3 6
ENDBRANCH 1 2
BRANCH 1 24
ATOM     24  C   VAL B  11      36.460  21.535  51.144  1.00 38.72 LIG 0.24  C 
ATOM     25 O    VAL B  11      36.820  20.925  52.154  1.00 29.21 LIG-0.27  OA
ATOM     26  N   ASP B  12      37.204  22.485  50.586  1.00 41.61 LIG-0.34  N 
ATOM     27 H    ASP B  12      37.055  22.832  49.814  1.00 41.61 LIG 0.16  HD
BRANCH 26 28
ATOM     28  CA  ASP B  12      38.369  23.015  51.283  1.00 41.44 LIG 0.19  C 
BRANCH 28 29
ATOM     29  C   ASP B  12      38.087  24.430  51.784  1.00 45.77 LIG 0.24  C 
ATOM     30 O    ASP B  12      38.899  25.012  52.509  1.00 50.52 LIG-0.27  OA
ATOM     31  N   LEU B  13      36.945  24.975  51.369  1.00 51.98 LIG-0.35  N 
ATOM     32 H    LEU B  13      36.425  24.596  50.798  1.00 51.98 LIG 0.16  HD
BRANCH 31 33
ATOM     33  CA  LEU B  13      36.454  26.270  51.838  1.00 53.13 LIG 0.16  C 
BRANCH 33 34
ATOM     34  CB  LEU B  13      36.647  26.378  53.360  1.00 52.95 LIG 0.04  C 
BRANCH 34 35
ATOM     35  CG  LEU B  13      36.105  25.312  54.322  1.00 63.18 LIG-0.02  C 
ATOM     36  CD1 LEU B  13      36.232  25.776  55.764  1.00 59.33 LIG 0.01  C 
ATOM     37  CD2 LEU B  13      34.647  24.988  54.019  1.00 64.76 LIG 0.01  C 
ENDBRANCH 34 35
ENDBRANCH 33 34
BRANCH 33 38
ATOM     38  C   LEU B  13      37.149  27.430  51.123  1.00 54.04 LIG 0.22  C 
ATOM     39 O    LEU B  13      38.317  27.329  50.748  1.00 55.16 LIG-0.29  OA
ENDBRANCH 33 38
ENDBRANCH 31 33
ENDBRANCH 28 29
BRANCH 28 40
ATOM     40  CB  ASP B  12      39.608  23.008  50.386  1.00 42.16 LIG 0.15  C 
BRANCH 40 41
ATOM     41  CG  ASP B  12      39.260  22.786  48.920  1.00 44.94 LIG 0.17  C 
ATOM     42 OD2  ASP B  12      38.898  21.640  48.569  1.00 53.96 LIG-0.65  OA
ATOM     43 OD1  ASP B  12      39.343  23.752  48.123  1.00 32.79 LIG-0.65  OA
ENDBRANCH 40 41
ENDBRANCH 28 40
ENDBRANCH 26 28
ENDBRANCH 1 24
BRANCH 1 44
ATOM     44  CB  VAL B  11      33.976  22.023  51.093  1.00 40.95 LIG 0.01  C 
ATOM     45  CG2 VAL B  11      34.305  23.518  51.123  1.00 48.12 LIG 0.01  C 
ATOM     46  CG1 VAL B  11      33.648  21.501  52.487  1.00 38.34 LIG 0.01  C 
ENDBRANCH 1 44
TORSDOF 20
ENDMDL
MODEL 29
USER: ADFR SOLUTION from run 14
USER: SCORE 13.841685 LL:  -2.308 LR: -12.357 RR:   0.000 FEB:  -6.391
USER: RMSD 4.816892
USER: SEED 726161
USER: STATUS no improvement in best in 7 clusters for 5 generations
USER: GENES 22
USER: genes 0 Translation |==|  0.43284 0.49547 0.67043
USER: genes 1 Rotation |==|  0.13685 0.30116 0.52940 0.77878
USER: genes 2 Torsion [CB]-CA--N-[C] |==|  0.85993
USER: genes 3 Torsion [N]-C--CA-[N] |==|  0.09934
USER: genes 4 Torsion [C]-CA--N-[C] |==|  0.76227
USER: genes 5 Torsion [N]-C--CA-[N] |==|  0.39899
USER: genes 6 Torsion [C]-CA--N-[C] |==|  0.77489
USER: genes 7 Torsion [N]-C--CA-[N] |==|  0.61054
USER: genes 8 Torsion [C]-CA--CB-[OG] |==|  0.45124
USER: genes 9 Torsion [CA]-CB--OG-[HG] |==|  0.17716
USER: genes 10 Torsion [C]-CA--CB-[OG] |==|  0.78704
USER: genes 11 Torsion [CA]-CB--OG-[HG] |==|  0.82170
USER: genes 12 Torsion [N]-CA--C-[N] |==|  0.33889
USER: genes 13 Torsion [C]-N--CA-[C] |==|  0.64868
USER: genes 14 Torsion [N]-CA--C-[N] |==|  0.47010
USER: genes 15 Torsion [C]-N--CA-[CB] |==|  0.24378
USER: genes 16 Torsion [N]-CA--CB-[CG] |==|  0.68365
USER: genes 17 Torsion [CA]-CB--CG-[CD1] |==|  0.31936
USER: genes 18 Torsion [N]-CA--C-[O] |==|  0.21902
USER: genes 19 Torsion [N]-CA--CB-[CG] |==|  0.91264
USER: genes 20 Torsion [CA]-CB--CG-[OD2] |==|  0.26107
USER: genes 21 Torsion [N]-CA--CB-[CG2] |==|  0.77201
ROOT
ATOM      1  CA  VAL B  11      31.460  19.522  53.304  1.00 37.38 LIG 0.18  C 
ENDROOT
BRANCH 1 2
ATOM      2  N   VAL B  11      30.838  18.231  53.589  1.00 31.05 LIG-0.35  N 
ATOM      3  C   GLY B  10      31.097  17.578  54.719  1.00 33.93 LIG 0.24  C 
ATOM      4 O    GLY B  10      31.834  18.025  55.599  1.00 34.12 LIG-0.27  OA
ATOM      5 H    VAL B  11      30.307  17.945  52.975  1.00 31.05 LIG 0.16  HD
BRANCH 3 6
ATOM      6  CA  GLY B  10      30.441  16.225  54.895  1.00 30.55 LIG 0.23  C 
BRANCH 6 7
ATOM      7  N   GLY B  10      30.369  15.539  53.618  1.00 34.58 LIG-0.35  N 
ATOM      8  C   SER B   9      29.363  15.742  52.772  1.00 38.05 LIG 0.24  C 
ATOM      9 O    SER B   9      28.388  16.434  53.043  1.00 29.17 LIG-0.27  OA
ATOM     10 H    GLY B  10      31.024  15.003  53.465  1.00 34.58 LIG 0.16  HD
BRANCH 8 11
ATOM     11  CA  SER B   9      29.475  15.061  51.414  1.00 34.70 LIG 0.20  C 
BRANCH 11 12
ATOM     12  N   SER B   9      28.178  14.597  50.927  1.00 35.55 LIG-0.34  N 
ATOM     13  C   SER B   8      27.651  13.454  51.352  1.00 40.46 LIG 0.26  C 
ATOM     14 O    SER B   8      28.181  12.761  52.221  1.00 45.68 LIG-0.27  OA
ATOM     15 H    SER B   9      27.802  15.120  50.357  1.00 35.55 LIG 0.16  HD
BRANCH 13 16
ATOM     16  CA  SER B   8      26.314  13.043  50.729  1.00 36.95 LIG 0.42  C 
ATOM     17  N   SER B   8      25.398  12.459  51.713  1.00 41.16 LIG 0.62  N 
BRANCH 16 18
ATOM     18  CB  SER B   8      25.682  14.260  50.056  1.00 41.03 LIG 0.21  C 
BRANCH 18 19
ATOM     19 OG   SER B   8      24.668  13.905  49.132  1.00 28.13 LIG-0.40  OA
ATOM     20 HG   SER B   8      24.036  13.531  49.539  1.00 28.13 LIG 0.21  HD
ENDBRANCH 18 19
ENDBRANCH 16 18
ENDBRANCH 13 16
ENDBRANCH 11 12
BRANCH 11 21
ATOM     21  CB  SER B   9      30.101  16.026  50.409  1.00 39.19 LIG 0.20  C 
BRANCH 21 22
ATOM     22 OG   SER B   9      29.148  16.991  49.984  1.00 46.55 LIG-0.40  OA
ATOM     23 HG   SER B   9      28.527  16.606  49.569  1.00 46.55 LIG 0.21  HD
ENDBRANCH 21 22
ENDBRANCH 11 21
ENDBRANCH 8 11
ENDBRANCH 6 7
ENDBRANCH 3 6
ENDBRANCH 1 2
BRANCH 1 24
ATOM     24  C   VAL B  11      32.949  19.373  52.960  1.00 38.72 LIG 0.24  C 
ATOM     25 O    VAL B  11      33.731  18.826  53.741  1.00 29.21 LIG-0.27  OA
ATOM     26  N   ASP B  12      33.337  19.838  51.776  1.00 41.61 LIG-0.34  N 
ATOM     27 H    ASP B  12      32.803  20.097  51.154  1.00 41.61 LIG 0.16  HD
BRANCH 26 28
ATOM     28  CA  ASP B  12      34.754  19.937  51.450  1.00 41.44 LIG 0.19  C 
BRANCH 28 29
ATOM     29  C   ASP B  12      35.094  21.354  50.991  1.00 45.77 LIG 0.24  C 
ATOM     30 O    ASP B  12      34.198  22.173  50.768  1.00 50.52 LIG-0.27  OA
ATOM     31  N   LEU B  13      36.392  21.630  50.879  1.00 51.98 LIG-0.35  N 
ATOM     32 H    LEU B  13      37.011  21.081  51.116  1.00 51.98 LIG 0.16  HD
BRANCH 31 33
ATOM     33  CA  LEU B  13      36.903  22.890  50.343  1.00 53.13 LIG 0.16  C 
BRANCH 33 34
ATOM     34  CB  LEU B  13      37.025  23.924  51.476  1.00 52.95 LIG 0.04  C 
BRANCH 34 35
ATOM     35  CG  LEU B  13      36.154  25.187  51.516  1.00 63.18 LIG-0.02  C 
ATOM     36  CD1 LEU B  13      35.224  25.160  52.718  1.00 59.33 LIG 0.01  C 
ATOM     37  CD2 LEU B  13      37.011  26.445  51.564  1.00 64.76 LIG 0.01  C 
ENDBRANCH 34 35
ENDBRANCH 33 34
BRANCH 33 38
ATOM     38  C   LEU B  13      38.247  22.701  49.639  1.00 54.04 LIG 0.22  C 
ATOM     39 O    LEU B  13      38.302  22.243  48.498  1.00 55.16 LIG-0.29  OA
ENDBRANCH 33 38
ENDBRANCH 31 33
ENDBRANCH 28 29
BRANCH 28 40
ATOM     40  CB  ASP B  12      35.153  18.923  50.377  1.00 42.16 LIG 0.15  C 
BRANCH 40 41
ATOM     41  CG  ASP B  12      34.327  17.646  50.451  1.00 44.94 LIG 0.17  C 
ATOM     42 OD2  ASP B  12      33.307  17.562  49.731  1.00 53.96 LIG-0.65  OA
ATOM     43 OD1  ASP B  12      34.698  16.727  51.222  1.00 32.79 LIG-0.65  OA
ENDBRANCH 40 41
ENDBRANCH 28 40
ENDBRANCH 26 28
ENDBRANCH 1 24
BRANCH 1 44
ATOM     44  CB  VAL B  11      31.285  20.493  54.505  1.00 40.95 LIG 0.01  C 
ATOM     45  CG2 VAL B  11      29.910  21.164  54.481  1.00 48.12 LIG 0.01  C 
ATOM     46  CG1 VAL B  11      32.405  21.527  54.536  1.00 38.34 LIG 0.01  C 
ENDBRANCH 1 44
TORSDOF 20
ENDMDL
MODEL 30
USER: ADFR SOLUTION from run 88
USER: SCORE 12.606654 LL:  -2.056 LR: -12.322 RR:   0.000 FEB:  -6.356
USER: RMSD 6.111142
USER: SEED 87
USER: STATUS no improvement in best in 6 clusters for 5 generations
USER: GENES 22
USER: genes 0 Translation |==|  0.41547 0.37401 0.48055
USER: genes 1 Rotation |==|  0.14648 0.15610 0.48050 0.57986
USER: genes 2 Torsion [CB]-CA--N-[C] |==|  0.80227
USER: genes 3 Torsion [N]-C--CA-[N] |==|  0.87780
USER: genes 4 Torsion [C]-CA--N-[C] |==|  0.83767
USER: genes 5 Torsion [N]-C--CA-[N] |==|  0.19369
USER: genes 6 Torsion [C]-CA--N-[C] |==|  0.13348
USER: genes 7 Torsion [N]-C--CA-[N] |==|  0.80910
USER: genes 8 Torsion [C]-CA--CB-[OG] |==|  0.81303
USER: genes 9 Torsion [CA]-CB--OG-[HG] |==|  0.87823
USER: genes 10 Torsion [C]-CA--CB-[OG] |==|  0.52043
USER: genes 11 Torsion [CA]-CB--OG-[HG] |==|  0.35940
USER: genes 12 Torsion [N]-CA--C-[N] |==|  0.52778
USER: genes 13 Torsion [C]-N--CA-[C] |==|  0.57472
USER: genes 14 Torsion [N]-CA--C-[N] |==|  0.53968
USER: genes 15 Torsion [C]-N--CA-[CB] |==|  0.41360
USER: genes 16 Torsion [N]-CA--CB-[CG] |==|  0.47314
USER: genes 17 Torsion [CA]-CB--CG-[CD1] |==|  0.07530
USER: genes 18 Torsion [N]-CA--C-[O] |==|  0.94783
USER: genes 19 Torsion [N]-CA--CB-[CG] |==|  0.58638
USER: genes 20 Torsion [CA]-CB--CG-[OD2] |==|  0.23886
USER: genes 21 Torsion [N]-CA--CB-[CG2] |==|  0.25964
ROOT
ATOM      1  CA  VAL B  11      30.991  16.698  50.456  1.00 37.38 LIG 0.18  C 
ENDROOT
BRANCH 1 2
ATOM      2  N   VAL B  11      30.583  15.383  50.944  1.00 31.05 LIG-0.35  N 
ATOM      3  C   GLY B  10      30.367  15.168  52.240  1.00 33.93 LIG 0.24  C 
ATOM      4 O    GLY B  10      30.460  16.052  53.092  1.00 34.12 LIG-0.27  OA
ATOM      5 H    VAL B  11      30.499  14.784  50.333  1.00 31.05 LIG 0.16  HD
BRANCH 3 6
ATOM      6  CA  GLY B  10      29.997  13.757  52.648  1.00 30.55 LIG 0.23  C 
BRANCH 6 7
ATOM      7  N   GLY B  10      29.015  13.216  51.726  1.00 34.58 LIG-0.35  N 
ATOM      8  C   SER B   9      27.841  13.809  51.529  1.00 38.05 LIG 0.24  C 
ATOM      9 O    SER B   9      27.466  14.783  52.171  1.00 29.17 LIG-0.27  OA
ATOM     10 H    GLY B  10      29.261  12.493  51.329  1.00 34.58 LIG 0.16  HD
BRANCH 8 11
ATOM     11  CA  SER B   9      26.958  13.211  50.441  1.00 34.70 LIG 0.20  C 
BRANCH 11 12
ATOM     12  N   SER B   9      26.436  11.901  50.821  1.00 35.55 LIG-0.34  N 
ATOM     13  C   SER B   8      25.878  11.699  52.010  1.00 40.46 LIG 0.26  C 
ATOM     14 O    SER B   8      25.707  12.606  52.825  1.00 45.68 LIG-0.27  OA
ATOM     15 H    SER B   9      26.522  11.293  50.218  1.00 35.55 LIG 0.16  HD
BRANCH 13 16
ATOM     16  CA  SER B   8      25.419  10.271  52.317  1.00 36.95 LIG 0.42  C 
ATOM     17  N   SER B   8      24.273   9.867  51.498  1.00 41.16 LIG 0.62  N 
BRANCH 16 18
ATOM     18  CB  SER B   8      26.594   9.315  52.116  1.00 41.03 LIG 0.21  C 
BRANCH 18 19
ATOM     19 OG   SER B   8      26.988   9.217  50.758  1.00 28.13 LIG-0.40  OA
ATOM     20 HG   SER B   8      26.306   9.153  50.272  1.00 28.13 LIG 0.21  HD
ENDBRANCH 18 19
ENDBRANCH 16 18
ENDBRANCH 13 16
ENDBRANCH 11 12
BRANCH 11 21
ATOM     21  CB  SER B   9      25.807  14.169  50.135  1.00 39.19 LIG 0.20  C 
BRANCH 21 22
ATOM     22 OG   SER B   9      24.877  13.563  49.248  1.00 46.55 LIG-0.40  OA
ATOM     23 HG   SER B   9      24.101  13.639  49.561  1.00 46.55 LIG 0.21  HD
ENDBRANCH 21 22
ENDBRANCH 11 21
ENDBRANCH 8 11
ENDBRANCH 6 7
ENDBRANCH 3 6
ENDBRANCH 1 2
BRANCH 1 24
ATOM     24  C   VAL B  11      32.209  17.236  51.221  1.00 38.72 LIG 0.24  C 
ATOM     25 O    VAL B  11      32.857  16.510  51.979  1.00 29.21 LIG-0.27  OA
ATOM     26  N   ASP B  12      32.538  18.506  51.001  1.00 41.61 LIG-0.34  N 
ATOM     27 H    ASP B  12      32.200  18.998  50.383  1.00 41.61 LIG 0.16  HD
BRANCH 26 28
ATOM     28  CA  ASP B  12      33.537  19.164  51.833  1.00 41.44 LIG 0.19  C 
BRANCH 28 29
ATOM     29  C   ASP B  12      33.287  20.670  51.871  1.00 45.77 LIG 0.24  C 
ATOM     30 O    ASP B  12      32.207  21.136  51.498  1.00 50.52 LIG-0.27  OA
ATOM     31  N   LEU B  13      34.286  21.412  52.346  1.00 51.98 LIG-0.35  N 
ATOM     32 H    LEU B  13      35.003  21.073  52.681  1.00 51.98 LIG 0.16  HD
BRANCH 31 33
ATOM     33  CA  LEU B  13      34.273  22.873  52.348  1.00 53.13 LIG 0.16  C 
BRANCH 33 34
ATOM     34  CB  LEU B  13      35.071  23.398  53.553  1.00 52.95 LIG 0.04  C 
BRANCH 34 35
ATOM     35  CG  LEU B  13      35.422  24.883  53.707  1.00 63.18 LIG-0.02  C 
ATOM     36  CD1 LEU B  13      34.398  25.753  52.995  1.00 59.33 LIG 0.01  C 
ATOM     37  CD2 LEU B  13      35.496  25.283  55.175  1.00 64.76 LIG 0.01  C 
ENDBRANCH 34 35
ENDBRANCH 33 34
BRANCH 33 38
ATOM     38  C   LEU B  13      34.830  23.445  51.043  1.00 54.04 LIG 0.22  C 
ATOM     39 O    LEU B  13      35.527  22.755  50.299  1.00 55.16 LIG-0.29  OA
ENDBRANCH 33 38
ENDBRANCH 31 33
ENDBRANCH 28 29
BRANCH 28 40
ATOM     40  CB  ASP B  12      34.955  18.875  51.338  1.00 42.16 LIG 0.15  C 
BRANCH 40 41
ATOM     41  CG  ASP B  12      35.971  18.853  52.471  1.00 44.94 LIG 0.17  C 
ATOM     42 OD2  ASP B  12      36.135  17.779  53.094  1.00 53.96 LIG-0.65  OA
ATOM     43 OD1  ASP B  12      36.609  19.902  52.735  1.00 32.79 LIG-0.65  OA
ENDBRANCH 40 41
ENDBRANCH 28 40
ENDBRANCH 26 28
ENDBRANCH 1 24
BRANCH 1 44
ATOM     44  CB  VAL B  11      29.814  17.708  50.549  1.00 40.95 LIG 0.01  C 
ATOM     45  CG2 VAL B  11      29.856  18.491  51.864  1.00 48.12 LIG 0.01  C 
ATOM     46  CG1 VAL B  11      28.474  17.002  50.369  1.00 38.34 LIG 0.01  C 
ENDBRANCH 1 44
TORSDOF 20
ENDMDL
MODEL 31
USER: ADFR SOLUTION from run 23
USER: SCORE 13.376400 LL:  -2.808 LR: -12.306 RR:   0.000 FEB:  -6.340
USER: RMSD 4.836926
USER: SEED 22
USER: STATUS no improvement in best in 3 clusters for 5 generations
USER: GENES 22
USER: genes 0 Translation |==|  0.56529 0.68905 0.57571
USER: genes 1 Rotation |==|  0.06424 0.31678 0.48861 0.66253
USER: genes 2 Torsion [CB]-CA--N-[C] |==|  0.44665
USER: genes 3 Torsion [N]-C--CA-[N] |==|  0.46449
USER: genes 4 Torsion [C]-CA--N-[C] |==|  0.54481
USER: genes 5 Torsion [N]-C--CA-[N] |==|  0.10814
USER: genes 6 Torsion [C]-CA--N-[C] |==|  0.17193
USER: genes 7 Torsion [N]-C--CA-[N] |==|  0.37233
USER: genes 8 Torsion [C]-CA--CB-[OG] |==|  0.99485
USER: genes 9 Torsion [CA]-CB--OG-[HG] |==|  0.22100
USER: genes 10 Torsion [C]-CA--CB-[OG] |==|  0.42397
USER: genes 11 Torsion [CA]-CB--OG-[HG] |==|  0.26278
USER: genes 12 Torsion [N]-CA--C-[N] |==|  0.38912
USER: genes 13 Torsion [C]-N--CA-[C] |==|  0.68889
USER: genes 14 Torsion [N]-CA--C-[N] |==|  0.95576
USER: genes 15 Torsion [C]-N--CA-[CB] |==|  0.77157
USER: genes 16 Torsion [N]-CA--CB-[CG] |==|  0.19289
USER: genes 17 Torsion [CA]-CB--CG-[CD1] |==|  0.37779
USER: genes 18 Torsion [N]-CA--C-[O] |==|  0.21142
USER: genes 19 Torsion [N]-CA--CB-[CG] |==|  0.15537
USER: genes 20 Torsion [CA]-CB--CG-[OD2] |==|  0.71038
USER: genes 21 Torsion [N]-CA--CB-[CG2] |==|  0.50731
ROOT
ATOM      1  CA  VAL B  11      35.036  24.022  51.884  1.00 37.38 LIG 0.18  C 
ENDROOT
BRANCH 1 2
ATOM      2  N   VAL B  11      34.033  23.112  52.429  1.00 31.05 LIG-0.35  N 
ATOM      3  C   GLY B  10      33.728  21.975  51.809  1.00 33.93 LIG 0.24  C 
ATOM      4 O    GLY B  10      34.284  21.604  50.775  1.00 34.12 LIG-0.27  OA
ATOM      5 H    VAL B  11      33.672  23.374  53.165  1.00 31.05 LIG 0.16  HD
BRANCH 3 6
ATOM      6  CA  GLY B  10      32.639  21.125  52.431  1.00 30.55 LIG 0.23  C 
BRANCH 6 7
ATOM      7  N   GLY B  10      32.219  20.097  51.498  1.00 34.58 LIG-0.35  N 
ATOM      8  C   SER B   9      31.081  19.427  51.661  1.00 38.05 LIG 0.24  C 
ATOM      9 O    SER B   9      30.363  19.556  52.646  1.00 29.17 LIG-0.27  OA
ATOM     10 H    GLY B  10      32.763  19.966  50.845  1.00 34.58 LIG 0.16  HD
BRANCH 8 11
ATOM     11  CA  SER B   9      30.696  18.468  50.542  1.00 34.70 LIG 0.20  C 
BRANCH 11 12
ATOM     12  N   SER B   9      31.856  17.762  50.005  1.00 35.55 LIG-0.34  N 
ATOM     13  C   SER B   8      32.588  16.957  50.768  1.00 40.46 LIG 0.26  C 
ATOM     14 O    SER B   8      32.297  16.706  51.938  1.00 45.68 LIG-0.27  OA
ATOM     15 H    SER B   9      32.014  17.914  49.173  1.00 35.55 LIG 0.16  HD
BRANCH 13 16
ATOM     16  CA  SER B   8      33.813  16.317  50.110  1.00 36.95 LIG 0.42  C 
ATOM     17  N   SER B   8      35.007  16.401  50.957  1.00 41.16 LIG 0.62  N 
BRANCH 16 18
ATOM     18  CB  SER B   8      33.493  14.862  49.769  1.00 41.03 LIG 0.21  C 
BRANCH 18 19
ATOM     19 OG   SER B   8      32.191  14.482  50.180  1.00 28.13 LIG-0.40  OA
ATOM     20 HG   SER B   8      31.628  14.763  49.623  1.00 28.13 LIG 0.21  HD
ENDBRANCH 18 19
ENDBRANCH 16 18
ENDBRANCH 13 16
ENDBRANCH 11 12
BRANCH 11 21
ATOM     21  CB  SER B   9      29.664  17.468  51.060  1.00 39.19 LIG 0.20  C 
BRANCH 21 22
ATOM     22 OG   SER B   9      28.842  17.004  49.998  1.00 46.55 LIG-0.40  OA
ATOM     23 HG   SER B   9      29.154  16.285  49.696  1.00 46.55 LIG 0.21  HD
ENDBRANCH 21 22
ENDBRANCH 11 21
ENDBRANCH 8 11
ENDBRANCH 6 7
ENDBRANCH 3 6
ENDBRANCH 1 2
BRANCH 1 24
ATOM     24  C   VAL B  11      36.463  23.509  52.125  1.00 38.72 LIG 0.24  C 
ATOM     25 O    VAL B  11      36.770  22.955  53.183  1.00 29.21 LIG-0.27  OA
ATOM     26  N   ASP B  12      37.332  23.669  51.131  1.00 41.61 LIG-0.34  N 
ATOM     27 H    ASP B  12      37.122  23.922  50.336  1.00 41.61 LIG 0.16  HD
BRANCH 26 28
ATOM     28  CA  ASP B  12      38.750  23.413  51.341  1.00 41.44 LIG 0.19  C 
BRANCH 28 29
ATOM     29  C   ASP B  12      39.542  24.717  51.264  1.00 45.77 LIG 0.24  C 
ATOM     30 O    ASP B  12      40.703  24.771  51.677  1.00 50.52 LIG-0.27  OA
ATOM     31  N   LEU B  13      38.905  25.748  50.712  1.00 51.98 LIG-0.35  N 
ATOM     32 H    LEU B  13      38.126  25.681  50.352  1.00 51.98 LIG 0.16  HD
BRANCH 31 33
ATOM     33  CA  LEU B  13      39.459  27.100  50.660  1.00 53.13 LIG 0.16  C 
BRANCH 33 34
ATOM     34  CB  LEU B  13      39.205  27.817  51.997  1.00 52.95 LIG 0.04  C 
BRANCH 34 35
ATOM     35  CG  LEU B  13      39.925  27.402  53.286  1.00 63.18 LIG-0.02  C 
ATOM     36  CD1 LEU B  13      40.410  28.624  54.049  1.00 59.33 LIG 0.01  C 
ATOM     37  CD2 LEU B  13      39.014  26.572  54.182  1.00 64.76 LIG 0.01  C 
ENDBRANCH 34 35
ENDBRANCH 33 34
BRANCH 33 38
ATOM     38  C   LEU B  13      40.952  27.087  50.331  1.00 54.04 LIG 0.22  C 
ATOM     39 O    LEU B  13      41.342  26.879  49.182  1.00 55.16 LIG-0.29  OA
ENDBRANCH 33 38
ENDBRANCH 31 33
ENDBRANCH 28 29
BRANCH 28 40
ATOM     40  CB  ASP B  12      39.292  22.404  50.327  1.00 42.16 LIG 0.15  C 
BRANCH 40 41
ATOM     41  CG  ASP B  12      39.048  22.841  48.889  1.00 44.94 LIG 0.17  C 
ATOM     42 OD2  ASP B  12      38.134  22.272  48.249  1.00 53.96 LIG-0.65  OA
ATOM     43 OD1  ASP B  12      39.761  23.751  48.401  1.00 32.79 LIG-0.65  OA
ENDBRANCH 40 41
ENDBRANCH 28 40
ENDBRANCH 26 28
ENDBRANCH 1 24
BRANCH 1 44
ATOM     44  CB  VAL B  11      34.873  25.445  52.486  1.00 40.95 LIG 0.01  C 
ATOM     45  CG2 VAL B  11      35.876  26.426  51.875  1.00 48.12 LIG 0.01  C 
ATOM     46  CG1 VAL B  11      34.990  25.410  54.006  1.00 38.34 LIG 0.01  C 
ENDBRANCH 1 44
TORSDOF 20
ENDMDL
MODEL 32
USER: ADFR SOLUTION from run 105
USER: SCORE 12.523026 LL:  -2.229 LR: -12.276 RR:   0.000 FEB:  -6.310
USER: RMSD 12.882524
USER: SEED 104
USER: STATUS no improvement in best in 3 clusters for 5 generations
USER: GENES 22
USER: genes 0 Translation |==|  0.59732 0.67227 0.60396
USER: genes 1 Rotation |==|  0.41288 0.56855 0.03196 0.63658
USER: genes 2 Torsion [CB]-CA--N-[C] |==|  0.19981
USER: genes 3 Torsion [N]-C--CA-[N] |==|  0.75376
USER: genes 4 Torsion [C]-CA--N-[C] |==|  0.75045
USER: genes 5 Torsion [N]-C--CA-[N] |==|  0.29646
USER: genes 6 Torsion [C]-CA--N-[C] |==|  0.61194
USER: genes 7 Torsion [N]-C--CA-[N] |==|  0.29658
USER: genes 8 Torsion [C]-CA--CB-[OG] |==|  0.26107
USER: genes 9 Torsion [CA]-CB--OG-[HG] |==|  0.25858
USER: genes 10 Torsion [C]-CA--CB-[OG] |==|  0.38868
USER: genes 11 Torsion [CA]-CB--OG-[HG] |==|  0.80322
USER: genes 12 Torsion [N]-CA--C-[N] |==|  0.50797
USER: genes 13 Torsion [C]-N--CA-[C] |==|  0.64858
USER: genes 14 Torsion [N]-CA--C-[N] |==|  0.46085
USER: genes 15 Torsion [C]-N--CA-[CB] |==|  0.19842
USER: genes 16 Torsion [N]-CA--CB-[CG] |==|  0.64015
USER: genes 17 Torsion [CA]-CB--CG-[CD1] |==|  0.90916
USER: genes 18 Torsion [N]-CA--C-[O] |==|  0.70834
USER: genes 19 Torsion [N]-CA--CB-[CG] |==|  0.61971
USER: genes 20 Torsion [CA]-CB--CG-[OD2] |==|  0.29800
USER: genes 21 Torsion [N]-CA--CB-[CG2] |==|  0.05750
ROOT
ATOM      1  CA  VAL B  11      35.901  23.632  52.307  1.00 37.38 LIG 0.18  C 
ENDROOT
BRANCH 1 2
ATOM      2  N   VAL B  11      36.279  24.790  51.501  1.00 31.05 LIG-0.35  N 
ATOM      3  C   GLY B  10      36.961  25.802  52.031  1.00 33.93 LIG 0.24  C 
ATOM      4 O    GLY B  10      37.342  25.815  53.202  1.00 34.12 LIG-0.27  OA
ATOM      5 H    VAL B  11      36.027  24.753  50.680  1.00 31.05 LIG 0.16  HD
BRANCH 3 6
ATOM      6  CA  GLY B  10      37.260  26.977  51.123  1.00 30.55 LIG 0.23  C 
BRANCH 6 7
ATOM      7  N   GLY B  10      38.513  26.756  50.424  1.00 34.58 LIG-0.35  N 
ATOM      8  C   SER B   9      39.676  27.156  50.931  1.00 38.05 LIG 0.24  C 
ATOM      9 O    SER B   9      39.767  27.816  51.960  1.00 29.17 LIG-0.27  OA
ATOM     10 H    GLY B  10      38.432  26.352  49.669  1.00 34.58 LIG 0.16  HD
BRANCH 8 11
ATOM     11  CA  SER B   9      40.924  26.748  50.160  1.00 34.70 LIG 0.20  C 
BRANCH 11 12
ATOM     12  N   SER B   9      41.521  27.877  49.451  1.00 35.55 LIG-0.34  N 
ATOM     13  C   SER B   8      42.013  27.739  48.225  1.00 40.46 LIG 0.26  C 
ATOM     14 O    SER B   8      41.934  26.685  47.592  1.00 45.68 LIG-0.27  OA
ATOM     15 H    SER B   9      41.523  28.616  49.892  1.00 35.55 LIG 0.16  HD
BRANCH 13 16
ATOM     16  CA  SER B   8      42.665  28.978  47.605  1.00 36.95 LIG 0.42  C 
ATOM     17  N   SER B   8      44.126  28.871  47.554  1.00 41.16 LIG 0.62  N 
BRANCH 16 18
ATOM     18  CB  SER B   8      42.089  29.198  46.207  1.00 41.03 LIG 0.21  C 
BRANCH 18 19
ATOM     19 OG   SER B   8      40.995  30.099  46.206  1.00 28.13 LIG-0.40  OA
ATOM     20 HG   SER B   8      41.272  30.877  46.054  1.00 28.13 LIG 0.21  HD
ENDBRANCH 18 19
ENDBRANCH 16 18
ENDBRANCH 13 16
ENDBRANCH 11 12
BRANCH 11 21
ATOM     21  CB  SER B   9      41.939  26.132  51.121  1.00 39.19 LIG 0.20  C 
BRANCH 21 22
ATOM     22 OG   SER B   9      42.578  25.013  50.523  1.00 46.55 LIG-0.40  OA
ATOM     23 HG   SER B   9      42.031  24.378  50.463  1.00 46.55 LIG 0.21  HD
ENDBRANCH 21 22
ENDBRANCH 11 21
ENDBRANCH 8 11
ENDBRANCH 6 7
ENDBRANCH 3 6
ENDBRANCH 1 2
BRANCH 1 24
ATOM     24  C   VAL B  11      35.462  22.448  51.433  1.00 38.72 LIG 0.24  C 
ATOM     25 O    VAL B  11      35.526  22.507  50.203  1.00 29.21 LIG-0.27  OA
ATOM     26  N   ASP B  12      35.039  21.360  52.070  1.00 41.61 LIG-0.34  N 
ATOM     27 H    ASP B  12      35.110  21.232  52.917  1.00 41.61 LIG 0.16  HD
BRANCH 26 28
ATOM     28  CA  ASP B  12      34.405  20.274  51.335  1.00 41.44 LIG 0.19  C 
BRANCH 28 29
ATOM     29  C   ASP B  12      33.049  19.936  51.953  1.00 45.77 LIG 0.24  C 
ATOM     30 O    ASP B  12      32.738  20.377  53.063  1.00 50.52 LIG-0.27  OA
ATOM     31  N   LEU B  13      32.249  19.173  51.211  1.00 51.98 LIG-0.35  N 
ATOM     32 H    LEU B  13      32.439  18.939  50.405  1.00 51.98 LIG 0.16  HD
BRANCH 31 33
ATOM     33  CA  LEU B  13      30.967  18.653  51.685  1.00 53.13 LIG 0.16  C 
BRANCH 33 34
ATOM     34  CB  LEU B  13      29.947  19.800  51.784  1.00 52.95 LIG 0.04  C 
BRANCH 34 35
ATOM     35  CG  LEU B  13      29.117  20.037  53.053  1.00 63.18 LIG-0.02  C 
ATOM     36  CD1 LEU B  13      28.811  18.719  53.748  1.00 59.33 LIG 0.01  C 
ATOM     37  CD2 LEU B  13      29.842  20.964  54.020  1.00 64.76 LIG 0.01  C 
ENDBRANCH 34 35
ENDBRANCH 33 34
BRANCH 33 38
ATOM     38  C   LEU B  13      30.439  17.540  50.778  1.00 54.04 LIG 0.22  C 
ATOM     39 O    LEU B  13      29.510  17.750  49.998  1.00 55.16 LIG-0.29  OA
ENDBRANCH 33 38
ENDBRANCH 31 33
ENDBRANCH 28 29
BRANCH 28 40
ATOM     40  CB  ASP B  12      35.294  19.030  51.298  1.00 42.16 LIG 0.15  C 
BRANCH 40 41
ATOM     41  CG  ASP B  12      35.321  18.378  49.922  1.00 44.94 LIG 0.17  C 
ATOM     42 OD2  ASP B  12      36.362  18.494  49.236  1.00 53.96 LIG-0.65  OA
ATOM     43 OD1  ASP B  12      34.309  17.747  49.530  1.00 32.79 LIG-0.65  OA
ENDBRANCH 40 41
ENDBRANCH 28 40
ENDBRANCH 26 28
ENDBRANCH 1 24
BRANCH 1 44
ATOM     44  CB  VAL B  11      34.771  24.004  53.307  1.00 40.95 LIG 0.01  C 
ATOM     45  CG2 VAL B  11      34.023  25.262  52.858  1.00 48.12 LIG 0.01  C 
ATOM     46  CG1 VAL B  11      35.324  24.164  54.719  1.00 38.34 LIG 0.01  C 
ENDBRANCH 1 44
TORSDOF 20
ENDMDL
MODEL 33
USER: ADFR SOLUTION from run 1
USER: SCORE 13.421023 LL:  -2.636 LR: -12.264 RR:   0.000 FEB:  -6.298
USER: RMSD 3.970178
USER: SEED 774629
USER: STATUS no improvement in best in 2 clusters for 5 generations
USER: GENES 22
USER: genes 0 Translation |==|  0.47597 0.48805 0.55118
USER: genes 1 Rotation |==|  0.17943 0.24157 0.48950 0.78344
USER: genes 2 Torsion [CB]-CA--N-[C] |==|  0.49444
USER: genes 3 Torsion [N]-C--CA-[N] |==|  0.04572
USER: genes 4 Torsion [C]-CA--N-[C] |==|  0.20740
USER: genes 5 Torsion [N]-C--CA-[N] |==|  0.66693
USER: genes 6 Torsion [C]-CA--N-[C] |==|  0.15879
USER: genes 7 Torsion [N]-C--CA-[N] |==|  0.73284
USER: genes 8 Torsion [C]-CA--CB-[OG] |==|  0.47583
USER: genes 9 Torsion [CA]-CB--OG-[HG] |==|  0.29920
USER: genes 10 Torsion [C]-CA--CB-[OG] |==|  0.54551
USER: genes 11 Torsion [CA]-CB--OG-[HG] |==|  0.86898
USER: genes 12 Torsion [N]-CA--C-[N] |==|  0.38544
USER: genes 13 Torsion [C]-N--CA-[C] |==|  0.61286
USER: genes 14 Torsion [N]-CA--C-[N] |==|  0.40748
USER: genes 15 Torsion [C]-N--CA-[CB] |==|  0.26816
USER: genes 16 Torsion [N]-CA--CB-[CG] |==|  0.68587
USER: genes 17 Torsion [CA]-CB--CG-[CD1] |==|  0.91270
USER: genes 18 Torsion [N]-CA--C-[O] |==|  0.84258
USER: genes 19 Torsion [N]-CA--CB-[CG] |==|  0.45035
USER: genes 20 Torsion [CA]-CB--CG-[OD2] |==|  0.20168
USER: genes 21 Torsion [N]-CA--CB-[CG2] |==|  0.77451
ROOT
ATOM      1  CA  VAL B  11      32.624  19.349  51.516  1.00 37.38 LIG 0.18  C 
ENDROOT
BRANCH 1 2
ATOM      2  N   VAL B  11      32.185  17.959  51.423  1.00 31.05 LIG-0.35  N 
ATOM      3  C   GLY B  10      32.540  17.195  50.393  1.00 33.93 LIG 0.24  C 
ATOM      4 O    GLY B  10      33.275  17.587  49.487  1.00 34.12 LIG-0.27  OA
ATOM      5 H    VAL B  11      31.693  17.694  52.077  1.00 31.05 LIG 0.16  HD
BRANCH 3 6
ATOM      6  CA  GLY B  10      31.990  15.783  50.367  1.00 30.55 LIG 0.23  C 
BRANCH 6 7
ATOM      7  N   GLY B  10      30.871  15.670  51.283  1.00 34.58 LIG-0.35  N 
ATOM      8  C   SER B   9      29.679  16.185  50.998  1.00 38.05 LIG 0.24  C 
ATOM      9 O    SER B   9      29.464  16.868  50.002  1.00 29.17 LIG-0.27  OA
ATOM     10 H    GLY B  10      31.049  15.247  52.011  1.00 34.58 LIG 0.16  HD
BRANCH 8 11
ATOM     11  CA  SER B   9      28.559  15.883  51.985  1.00 34.70 LIG 0.20  C 
BRANCH 11 12
ATOM     12  N   SER B   9      27.454  15.165  51.354  1.00 35.55 LIG-0.34  N 
ATOM     13  C   SER B   8      27.649  14.005  50.737  1.00 40.46 LIG 0.26  C 
ATOM     14 O    SER B   8      28.742  13.438  50.718  1.00 45.68 LIG-0.27  OA
ATOM     15 H    SER B   9      26.690  15.554  51.420  1.00 35.55 LIG 0.16  HD
BRANCH 13 16
ATOM     16  CA  SER B   8      26.428  13.373  50.064  1.00 36.95 LIG 0.42  C 
ATOM     17  N   SER B   8      25.777  12.375  50.917  1.00 41.16 LIG 0.62  N 
BRANCH 16 18
ATOM     18  CB  SER B   8      25.445  14.477  49.675  1.00 41.03 LIG 0.21  C 
BRANCH 18 19
ATOM     19 OG   SER B   8      24.380  13.998  48.872  1.00 28.13 LIG-0.40  OA
ATOM     20 HG   SER B   8      23.673  13.985  49.324  1.00 28.13 LIG 0.21  HD
ENDBRANCH 18 19
ENDBRANCH 16 18
ENDBRANCH 13 16
ENDBRANCH 11 12
BRANCH 11 21
ATOM     21  CB  SER B   9      29.115  15.073  53.155  1.00 39.19 LIG 0.20  C 
BRANCH 21 22
ATOM     22 OG   SER B   9      28.060  14.462  53.884  1.00 46.55 LIG-0.40  OA
ATOM     23 HG   SER B   9      27.457  15.028  54.033  1.00 46.55 LIG 0.21  HD
ENDBRANCH 21 22
ENDBRANCH 11 21
ENDBRANCH 8 11
ENDBRANCH 6 7
ENDBRANCH 3 6
ENDBRANCH 1 2
BRANCH 1 24
ATOM     24  C   VAL B  11      34.156  19.463  51.522  1.00 38.72 LIG 0.24  C 
ATOM     25 O    VAL B  11      34.851  18.660  52.148  1.00 29.21 LIG-0.27  OA
ATOM     26  N   ASP B  12      34.684  20.449  50.803  1.00 41.61 LIG-0.34  N 
ATOM     27 H    ASP B  12      34.245  20.939  50.249  1.00 41.61 LIG 0.16  HD
BRANCH 26 28
ATOM     28  CA  ASP B  12      36.101  20.769  50.918  1.00 41.44 LIG 0.19  C 
BRANCH 28 29
ATOM     29  C   ASP B  12      36.304  22.283  50.912  1.00 45.77 LIG 0.24  C 
ATOM     30 O    ASP B  12      35.547  23.016  50.270  1.00 50.52 LIG-0.27  OA
ATOM     31  N   LEU B  13      37.316  22.734  51.652  1.00 51.98 LIG-0.35  N 
ATOM     32 H    LEU B  13      37.787  22.226  52.162  1.00 51.98 LIG 0.16  HD
BRANCH 31 33
ATOM     33  CA  LEU B  13      37.734  24.135  51.676  1.00 53.13 LIG 0.16  C 
BRANCH 33 34
ATOM     34  CB  LEU B  13      37.093  24.846  52.880  1.00 52.95 LIG 0.04  C 
BRANCH 34 35
ATOM     35  CG  LEU B  13      36.042  25.950  52.702  1.00 63.18 LIG-0.02  C 
ATOM     36  CD1 LEU B  13      36.290  26.727  51.419  1.00 59.33 LIG 0.01  C 
ATOM     37  CD2 LEU B  13      34.634  25.370  52.680  1.00 64.76 LIG 0.01  C 
ENDBRANCH 34 35
ENDBRANCH 33 34
BRANCH 33 38
ATOM     38  C   LEU B  13      39.257  24.270  51.718  1.00 54.04 LIG 0.22  C 
ATOM     39 O    LEU B  13      39.912  23.738  52.614  1.00 55.16 LIG-0.29  OA
ENDBRANCH 33 38
ENDBRANCH 31 33
ENDBRANCH 28 29
BRANCH 28 40
ATOM     40  CB  ASP B  12      36.912  20.122  49.794  1.00 42.16 LIG 0.15  C 
BRANCH 40 41
ATOM     41  CG  ASP B  12      38.281  20.767  49.623  1.00 44.94 LIG 0.17  C 
ATOM     42 OD2  ASP B  12      39.152  20.540  50.493  1.00 53.96 LIG-0.65  OA
ATOM     43 OD1  ASP B  12      38.489  21.493  48.620  1.00 32.79 LIG-0.65  OA
ENDBRANCH 40 41
ENDBRANCH 28 40
ENDBRANCH 26 28
ENDBRANCH 1 24
BRANCH 1 44
ATOM     44  CB  VAL B  11      32.034  20.029  52.782  1.00 40.95 LIG 0.01  C 
ATOM     45  CG2 VAL B  11      30.594  20.491  52.544  1.00 48.12 LIG 0.01  C 
ATOM     46  CG1 VAL B  11      32.917  21.184  53.241  1.00 38.34 LIG 0.01  C 
ENDBRANCH 1 44
TORSDOF 20
ENDMDL
MODEL 34
USER: ADFR SOLUTION from run 158
USER: SCORE 14.206339 LL:  -2.511 LR: -12.218 RR:   0.000 FEB:  -6.252
USER: RMSD 4.982621
USER: SEED 157
USER: STATUS 1 or 2 clusters left
USER: GENES 22
USER: genes 0 Translation |==|  0.38796 0.58989 0.78373
USER: genes 1 Rotation |==|  0.33811 0.31705 0.36790 0.91578
USER: genes 2 Torsion [CB]-CA--N-[C] |==|  0.85000
USER: genes 3 Torsion [N]-C--CA-[N] |==|  0.50504
USER: genes 4 Torsion [C]-CA--N-[C] |==|  0.60587
USER: genes 5 Torsion [N]-C--CA-[N] |==|  0.33458
USER: genes 6 Torsion [C]-CA--N-[C] |==|  0.74901
USER: genes 7 Torsion [N]-C--CA-[N] |==|  0.40334
USER: genes 8 Torsion [C]-CA--CB-[OG] |==|  0.48852
USER: genes 9 Torsion [CA]-CB--OG-[HG] |==|  0.27529
USER: genes 10 Torsion [C]-CA--CB-[OG] |==|  0.49332
USER: genes 11 Torsion [CA]-CB--OG-[HG] |==|  0.77997
USER: genes 12 Torsion [N]-CA--C-[N] |==|  0.92580
USER: genes 13 Torsion [C]-N--CA-[C] |==|  0.79155
USER: genes 14 Torsion [N]-CA--C-[N] |==|  0.39181
USER: genes 15 Torsion [C]-N--CA-[CB] |==|  0.42442
USER: genes 16 Torsion [N]-CA--CB-[CG] |==|  0.70348
USER: genes 17 Torsion [CA]-CB--CG-[CD1] |==|  0.73752
USER: genes 18 Torsion [N]-CA--C-[O] |==|  0.14068
USER: genes 19 Torsion [N]-CA--CB-[CG] |==|  0.17313
USER: genes 20 Torsion [CA]-CB--CG-[OD2] |==|  0.33551
USER: genes 21 Torsion [N]-CA--CB-[CG2] |==|  0.65158
ROOT
ATOM      1  CA  VAL B  11      30.248  21.717  55.004  1.00 37.38 LIG 0.18  C 
ENDROOT
BRANCH 1 2
ATOM      2  N   VAL B  11      29.574  21.078  53.876  1.00 31.05 LIG-0.35  N 
ATOM      3  C   GLY B  10      29.652  19.764  53.685  1.00 33.93 LIG 0.24  C 
ATOM      4 O    GLY B  10      30.253  19.008  54.450  1.00 34.12 LIG-0.27  OA
ATOM      5 H    VAL B  11      29.138  21.617  53.367  1.00 31.05 LIG 0.16  HD
BRANCH 3 6
ATOM      6  CA  GLY B  10      28.959  19.207  52.458  1.00 30.55 LIG 0.23  C 
BRANCH 6 7
ATOM      7  N   GLY B  10      29.102  17.764  52.421  1.00 34.58 LIG-0.35  N 
ATOM      8  C   SER B   9      29.298  17.110  51.279  1.00 38.05 LIG 0.24  C 
ATOM      9 O    SER B   9      29.274  17.656  50.182  1.00 29.17 LIG-0.27  OA
ATOM     10 H    GLY B  10      29.049  17.381  53.190  1.00 34.58 LIG 0.16  HD
BRANCH 8 11
ATOM     11  CA  SER B   9      29.560  15.614  51.394  1.00 34.70 LIG 0.20  C 
BRANCH 11 12
ATOM     12  N   SER B   9      28.562  14.828  50.674  1.00 35.55 LIG-0.34  N 
ATOM     13  C   SER B   8      27.451  14.410  51.272  1.00 40.46 LIG 0.26  C 
ATOM     14 O    SER B   8      27.167  14.713  52.431  1.00 45.68 LIG-0.27  OA
ATOM     15 H    SER B   9      28.757  14.667  49.852  1.00 35.55 LIG 0.16  HD
BRANCH 13 16
ATOM     16  CA  SER B   8      26.505  13.545  50.434  1.00 36.95 LIG 0.42  C 
ATOM     17  N   SER B   8      25.834  12.518  51.236  1.00 41.16 LIG 0.62  N 
BRANCH 16 18
ATOM     18  CB  SER B   8      25.484  14.448  49.745  1.00 41.03 LIG 0.21  C 
BRANCH 18 19
ATOM     19 OG   SER B   8      24.626  13.732  48.873  1.00 28.13 LIG-0.40  OA
ATOM     20 HG   SER B   8      23.897  13.579  49.260  1.00 28.13 LIG 0.21  HD
ENDBRANCH 18 19
ENDBRANCH 16 18
ENDBRANCH 13 16
ENDBRANCH 11 12
BRANCH 11 21
ATOM     21  CB  SER B   9      30.959  15.300  50.866  1.00 39.19 LIG 0.20  C 
BRANCH 21 22
ATOM     22 OG   SER B   9      31.249  13.917  51.014  1.00 46.55 LIG-0.40  OA
ATOM     23 HG   SER B   9      31.470  13.760  51.809  1.00 46.55 LIG 0.21  HD
ENDBRANCH 21 22
ENDBRANCH 11 21
ENDBRANCH 8 11
ENDBRANCH 6 7
ENDBRANCH 3 6
ENDBRANCH 1 2
BRANCH 1 24
ATOM     24  C   VAL B  11      31.775  21.686  54.847  1.00 38.72 LIG 0.24  C 
ATOM     25 O    VAL B  11      32.489  22.528  55.397  1.00 29.21 LIG-0.27  OA
ATOM     26  N   ASP B  12      32.281  20.697  54.116  1.00 41.61 LIG-0.34  N 
ATOM     27 H    ASP B  12      31.832  20.019  53.834  1.00 41.61 LIG 0.16  HD
BRANCH 26 28
ATOM     28  CA  ASP B  12      33.686  20.705  53.733  1.00 41.44 LIG 0.19  C 
BRANCH 28 29
ATOM     29  C   ASP B  12      33.926  21.720  52.617  1.00 45.77 LIG 0.24  C 
ATOM     30 O    ASP B  12      33.091  21.877  51.722  1.00 50.52 LIG-0.27  OA
ATOM     31  N   LEU B  13      35.060  22.414  52.700  1.00 51.98 LIG-0.35  N 
ATOM     32 H    LEU B  13      35.596  22.359  53.370  1.00 51.98 LIG 0.16  HD
BRANCH 31 33
ATOM     33  CA  LEU B  13      35.512  23.342  51.665  1.00 53.13 LIG 0.16  C 
BRANCH 33 34
ATOM     34  CB  LEU B  13      36.398  24.430  52.294  1.00 52.95 LIG 0.04  C 
BRANCH 34 35
ATOM     35  CG  LEU B  13      35.901  25.869  52.482  1.00 63.18 LIG-0.02  C 
ATOM     36  CD1 LEU B  13      36.321  26.741  51.309  1.00 59.33 LIG 0.01  C 
ATOM     37  CD2 LEU B  13      34.386  25.914  52.631  1.00 64.76 LIG 0.01  C 
ENDBRANCH 34 35
ENDBRANCH 33 34
BRANCH 33 38
ATOM     38  C   LEU B  13      36.262  22.618  50.545  1.00 54.04 LIG 0.22  C 
ATOM     39 O    LEU B  13      35.774  21.629  49.998  1.00 55.16 LIG-0.29  OA
ENDBRANCH 33 38
ENDBRANCH 31 33
ENDBRANCH 28 29
BRANCH 28 40
ATOM     40  CB  ASP B  12      34.154  19.316  53.295  1.00 42.16 LIG 0.15  C 
BRANCH 40 41
ATOM     41  CG  ASP B  12      33.410  18.816  52.064  1.00 44.94 LIG 0.17  C 
ATOM     42 OD2  ASP B  12      34.080  18.541  51.043  1.00 53.96 LIG-0.65  OA
ATOM     43 OD1  ASP B  12      32.162  18.692  52.117  1.00 32.79 LIG-0.65  OA
ENDBRANCH 40 41
ENDBRANCH 28 40
ENDBRANCH 26 28
ENDBRANCH 1 24
BRANCH 1 44
ATOM     44  CB  VAL B  11      29.836  21.045  56.343  1.00 40.95 LIG 0.01  C 
ATOM     45  CG2 VAL B  11      29.296  22.074  57.339  1.00 48.12 LIG 0.01  C 
ATOM     46  CG1 VAL B  11      31.000  20.258  56.937  1.00 38.34 LIG 0.01  C 
ENDBRANCH 1 44
TORSDOF 20
ENDMDL
MODEL 35
USER: ADFR SOLUTION from run 165
USER: SCORE 13.876511 LL:  -3.070 LR: -12.216 RR:   0.000 FEB:  -6.250
USER: RMSD 4.532040
USER: SEED 164
USER: STATUS no improvement in best in 4 clusters for 5 generations
USER: GENES 22
USER: genes 0 Translation |==|  0.57197 0.69010 0.59361
USER: genes 1 Rotation |==|  0.08658 0.34376 0.46633 0.73139
USER: genes 2 Torsion [CB]-CA--N-[C] |==|  0.48889
USER: genes 3 Torsion [N]-C--CA-[N] |==|  0.56166
USER: genes 4 Torsion [C]-CA--N-[C] |==|  0.19984
USER: genes 5 Torsion [N]-C--CA-[N] |==|  0.94786
USER: genes 6 Torsion [C]-CA--N-[C] |==|  0.74573
USER: genes 7 Torsion [N]-C--CA-[N] |==|  0.39945
USER: genes 8 Torsion [C]-CA--CB-[OG] |==|  0.42894
USER: genes 9 Torsion [CA]-CB--OG-[HG] |==|  0.14784
USER: genes 10 Torsion [C]-CA--CB-[OG] |==|  0.84864
USER: genes 11 Torsion [CA]-CB--OG-[HG] |==|  0.08080
USER: genes 12 Torsion [N]-CA--C-[N] |==|  0.37336
USER: genes 13 Torsion [C]-N--CA-[C] |==|  0.65650
USER: genes 14 Torsion [N]-CA--C-[N] |==|  0.89057
USER: genes 15 Torsion [C]-N--CA-[CB] |==|  0.82830
USER: genes 16 Torsion [N]-CA--CB-[CG] |==|  0.86529
USER: genes 17 Torsion [CA]-CB--CG-[CD1] |==|  0.93714
USER: genes 18 Torsion [N]-CA--C-[O] |==|  0.12568
USER: genes 19 Torsion [N]-CA--CB-[CG] |==|  0.04552
USER: genes 20 Torsion [CA]-CB--CG-[OD2] |==|  0.77994
USER: genes 21 Torsion [N]-CA--CB-[CG2] |==|  0.08432
ROOT
ATOM      1  CA  VAL B  11      35.216  24.047  52.152  1.00 37.38 LIG 0.18  C 
ENDROOT
BRANCH 1 2
ATOM      2  N   VAL B  11      34.158  23.091  52.469  1.00 31.05 LIG-0.35  N 
ATOM      3  C   GLY B  10      33.928  22.038  51.689  1.00 33.93 LIG 0.24  C 
ATOM      4 O    GLY B  10      34.599  21.784  50.688  1.00 34.12 LIG-0.27  OA
ATOM      5 H    VAL B  11      33.716  23.270  53.185  1.00 31.05 LIG 0.16  HD
BRANCH 3 6
ATOM      6  CA  GLY B  10      32.776  21.136  52.078  1.00 30.55 LIG 0.23  C 
BRANCH 6 7
ATOM      7  N   GLY B  10      32.960  19.818  51.498  1.00 34.58 LIG-0.35  N 
ATOM      8  C   SER B   9      33.889  18.980  51.949  1.00 38.05 LIG 0.24  C 
ATOM      9 O    SER B   9      34.710  19.287  52.807  1.00 29.17 LIG-0.27  OA
ATOM     10 H    GLY B  10      32.423  19.637  50.851  1.00 34.58 LIG 0.16  HD
BRANCH 8 11
ATOM     11  CA  SER B   9      33.891  17.584  51.340  1.00 34.70 LIG 0.20  C 
BRANCH 11 12
ATOM     12  N   SER B   9      32.619  17.268  50.695  1.00 35.55 LIG-0.34  N 
ATOM     13  C   SER B   8      31.639  16.666  51.360  1.00 40.46 LIG 0.26  C 
ATOM     14 O    SER B   8      31.715  16.403  52.560  1.00 45.68 LIG-0.27  OA
ATOM     15 H    SER B   9      32.568  17.504  49.869  1.00 35.55 LIG 0.16  HD
BRANCH 13 16
ATOM     16  CA  SER B   8      30.373  16.335  50.564  1.00 36.95 LIG 0.42  C 
ATOM     17  N   SER B   8      29.772  15.064  50.979  1.00 41.16 LIG 0.62  N 
BRANCH 16 18
ATOM     18  CB  SER B   8      29.375  17.482  50.714  1.00 41.03 LIG 0.21  C 
BRANCH 18 19
ATOM     19 OG   SER B   8      28.475  17.565  49.623  1.00 28.13 LIG-0.40  OA
ATOM     20 HG   SER B   8      28.106  16.820  49.506  1.00 28.13 LIG 0.21  HD
ENDBRANCH 18 19
ENDBRANCH 16 18
ENDBRANCH 13 16
ENDBRANCH 11 12
BRANCH 11 21
ATOM     21  CB  SER B   9      35.035  17.467  50.335  1.00 39.19 LIG 0.20  C 
BRANCH 21 22
ATOM     22 OG   SER B   9      34.955  18.502  49.366  1.00 46.55 LIG-0.40  OA
ATOM     23 HG   SER B   9      34.590  19.177  49.706  1.00 46.55 LIG 0.21  HD
ENDBRANCH 21 22
ENDBRANCH 11 21
ENDBRANCH 8 11
ENDBRANCH 6 7
ENDBRANCH 3 6
ENDBRANCH 1 2
BRANCH 1 24
ATOM     24  C   VAL B  11      36.599  23.380  52.132  1.00 38.72 LIG 0.24  C 
ATOM     25 O    VAL B  11      36.937  22.587  53.014  1.00 29.21 LIG-0.27  OA
ATOM     26  N   ASP B  12      37.392  23.681  51.107  1.00 41.61 LIG-0.34  N 
ATOM     27 H    ASP B  12      37.144  24.116  50.409  1.00 41.61 LIG 0.16  HD
BRANCH 26 28
ATOM     28  CA  ASP B  12      38.791  23.271  51.111  1.00 41.44 LIG 0.19  C 
BRANCH 28 29
ATOM     29  C   ASP B  12      39.699  24.486  50.934  1.00 45.77 LIG 0.24  C 
ATOM     30 O    ASP B  12      40.764  24.568  51.552  1.00 50.52 LIG-0.27  OA
ATOM     31  N   LEU B  13      39.274  25.406  50.069  1.00 51.98 LIG-0.35  N 
ATOM     32 H    LEU B  13      38.573  25.302  49.581  1.00 51.98 LIG 0.16  HD
BRANCH 31 33
ATOM     33  CA  LEU B  13      39.950  26.685  49.858  1.00 53.13 LIG 0.16  C 
BRANCH 33 34
ATOM     34  CB  LEU B  13      39.944  27.497  51.165  1.00 52.95 LIG 0.04  C 
BRANCH 34 35
ATOM     35  CG  LEU B  13      38.666  27.691  51.991  1.00 63.18 LIG-0.02  C 
ATOM     36  CD1 LEU B  13      37.432  27.501  51.123  1.00 59.33 LIG 0.01  C 
ATOM     37  CD2 LEU B  13      38.616  26.721  53.164  1.00 64.76 LIG 0.01  C 
ENDBRANCH 34 35
ENDBRANCH 33 34
BRANCH 33 38
ATOM     38  C   LEU B  13      41.380  26.491  49.351  1.00 54.04 LIG 0.22  C 
ATOM     39 O    LEU B  13      41.626  25.687  48.452  1.00 55.16 LIG-0.29  OA
ENDBRANCH 33 38
ENDBRANCH 31 33
ENDBRANCH 28 29
BRANCH 28 40
ATOM     40  CB  ASP B  12      39.072  22.237  50.020  1.00 42.16 LIG 0.15  C 
BRANCH 40 41
ATOM     41  CG  ASP B  12      37.970  22.186  48.971  1.00 44.94 LIG 0.17  C 
ATOM     42 OD2  ASP B  12      36.922  21.560  49.248  1.00 53.96 LIG-0.65  OA
ATOM     43 OD1  ASP B  12      38.148  22.774  47.876  1.00 32.79 LIG-0.65  OA
ENDBRANCH 40 41
ENDBRANCH 28 40
ENDBRANCH 26 28
ENDBRANCH 1 24
BRANCH 1 44
ATOM     44  CB  VAL B  11      35.210  25.229  53.161  1.00 40.95 LIG 0.01  C 
ATOM     45  CG2 VAL B  11      34.707  24.784  54.536  1.00 48.12 LIG 0.01  C 
ATOM     46  CG1 VAL B  11      34.390  26.398  52.624  1.00 38.34 LIG 0.01  C 
ENDBRANCH 1 44
TORSDOF 20
ENDMDL
MODEL 36
USER: ADFR SOLUTION from run 17
USER: SCORE 12.373578 LL:  -2.634 LR: -12.177 RR:   0.000 FEB:  -6.211
USER: RMSD 4.701420
USER: SEED 16
USER: STATUS no improvement in best in 27 clusters for 5 generations
USER: GENES 22
USER: genes 0 Translation |==|  0.60709 0.69407 0.56990
USER: genes 1 Rotation |==|  0.05749 0.32979 0.52899 0.65611
USER: genes 2 Torsion [CB]-CA--N-[C] |==|  0.37844
USER: genes 3 Torsion [N]-C--CA-[N] |==|  0.46832
USER: genes 4 Torsion [C]-CA--N-[C] |==|  0.46706
USER: genes 5 Torsion [N]-C--CA-[N] |==|  0.42418
USER: genes 6 Torsion [C]-CA--N-[C] |==|  0.53889
USER: genes 7 Torsion [N]-C--CA-[N] |==|  0.39864
USER: genes 8 Torsion [C]-CA--CB-[OG] |==|  0.97835
USER: genes 9 Torsion [CA]-CB--OG-[HG] |==|  0.82111
USER: genes 10 Torsion [C]-CA--CB-[OG] |==|  0.80571
USER: genes 11 Torsion [CA]-CB--OG-[HG] |==|  0.43236
USER: genes 12 Torsion [N]-CA--C-[N] |==|  0.36896
USER: genes 13 Torsion [C]-N--CA-[C] |==|  0.70965
USER: genes 14 Torsion [N]-CA--C-[N] |==|  0.94975
USER: genes 15 Torsion [C]-N--CA-[CB] |==|  0.84477
USER: genes 16 Torsion [N]-CA--CB-[CG] |==|  0.86884
USER: genes 17 Torsion [CA]-CB--CG-[CD1] |==|  0.48460
USER: genes 18 Torsion [N]-CA--C-[O] |==|  0.04561
USER: genes 19 Torsion [N]-CA--CB-[CG] |==|  0.01536
USER: genes 20 Torsion [CA]-CB--CG-[OD2] |==|  0.67238
USER: genes 21 Torsion [N]-CA--CB-[CG2] |==|  0.94224
ROOT
ATOM      1  CA  VAL B  11      36.164  24.139  51.796  1.00 37.38 LIG 0.18  C 
ENDROOT
BRANCH 1 2
ATOM      2  N   VAL B  11      35.257  23.291  52.564  1.00 31.05 LIG-0.35  N 
ATOM      3  C   GLY B  10      34.493  22.382  51.962  1.00 33.93 LIG 0.24  C 
ATOM      4 O    GLY B  10      34.525  22.175  50.749  1.00 34.12 LIG-0.27  OA
ATOM      5 H    VAL B  11      35.265  23.431  53.412  1.00 31.05 LIG 0.16  HD
BRANCH 3 6
ATOM      6  CA  GLY B  10      33.550  21.589  52.843  1.00 30.55 LIG 0.23  C 
BRANCH 6 7
ATOM      7  N   GLY B  10      32.611  20.847  52.021  1.00 34.58 LIG-0.35  N 
ATOM      8  C   SER B   9      31.832  19.898  52.533  1.00 38.05 LIG 0.24  C 
ATOM      9 O    SER B   9      31.916  19.516  53.695  1.00 29.17 LIG-0.27  OA
ATOM     10 H    GLY B  10      32.607  21.076  51.192  1.00 34.58 LIG 0.16  HD
BRANCH 8 11
ATOM     11  CA  SER B   9      30.802  19.288  51.590  1.00 34.70 LIG 0.20  C 
BRANCH 11 12
ATOM     12  N   SER B   9      30.462  17.918  51.966  1.00 35.55 LIG-0.34  N 
ATOM     13  C   SER B   8      29.805  17.119  51.134  1.00 40.46 LIG 0.26  C 
ATOM     14 O    SER B   8      29.506  17.454  49.987  1.00 45.68 LIG-0.27  OA
ATOM     15 H    SER B   9      30.722  17.688  52.753  1.00 35.55 LIG 0.16  HD
BRANCH 13 16
ATOM     16  CA  SER B   8      29.454  15.723  51.658  1.00 36.95 LIG 0.42  C 
ATOM     17  N   SER B   8      28.147  15.262  51.180  1.00 41.16 LIG 0.62  N 
BRANCH 16 18
ATOM     18  CB  SER B   8      30.555  14.746  51.251  1.00 41.03 LIG 0.21  C 
BRANCH 18 19
ATOM     19 OG   SER B   8      31.497  15.327  50.366  1.00 28.13 LIG-0.40  OA
ATOM     20 HG   SER B   8      31.118  15.526  49.644  1.00 28.13 LIG 0.21  HD
ENDBRANCH 18 19
ENDBRANCH 16 18
ENDBRANCH 13 16
ENDBRANCH 11 12
BRANCH 11 21
ATOM     21  CB  SER B   9      29.547  20.158  51.576  1.00 39.19 LIG 0.20  C 
BRANCH 21 22
ATOM     22 OG   SER B   9      28.859  20.062  52.816  1.00 46.55 LIG-0.40  OA
ATOM     23 HG   SER B   9      28.394  20.751  52.932  1.00 46.55 LIG 0.21  HD
ENDBRANCH 21 22
ENDBRANCH 11 21
ENDBRANCH 8 11
ENDBRANCH 6 7
ENDBRANCH 3 6
ENDBRANCH 1 2
BRANCH 1 24
ATOM     24  C   VAL B  11      37.613  23.635  51.868  1.00 38.72 LIG 0.24  C 
ATOM     25 O    VAL B  11      38.117  23.298  52.943  1.00 29.21 LIG-0.27  OA
ATOM     26  N   ASP B  12      38.277  23.558  50.718  1.00 41.61 LIG-0.34  N 
ATOM     27 H    ASP B  12      37.919  23.650  49.942  1.00 41.61 LIG 0.16  HD
BRANCH 26 28
ATOM     28  CA  ASP B  12      39.710  23.299  50.709  1.00 41.44 LIG 0.19  C 
BRANCH 28 29
ATOM     29  C   ASP B  12      40.478  24.582  50.397  1.00 45.77 LIG 0.24  C 
ATOM     30 O    ASP B  12      41.685  24.666  50.641  1.00 50.52 LIG-0.27  OA
ATOM     31  N   LEU B  13      39.768  25.560  49.837  1.00 51.98 LIG-0.35  N 
ATOM     32 H    LEU B  13      38.948  25.464  49.593  1.00 51.98 LIG 0.16  HD
BRANCH 31 33
ATOM     33  CA  LEU B  13      40.304  26.895  49.576  1.00 53.13 LIG 0.16  C 
BRANCH 33 34
ATOM     34  CB  LEU B  13      40.845  27.501  50.882  1.00 52.95 LIG 0.04  C 
BRANCH 34 35
ATOM     35  CG  LEU B  13      40.037  27.466  52.185  1.00 63.18 LIG-0.02  C 
ATOM     36  CD1 LEU B  13      40.859  28.010  53.343  1.00 59.33 LIG 0.01  C 
ATOM     37  CD2 LEU B  13      38.748  28.269  52.056  1.00 64.76 LIG 0.01  C 
ENDBRANCH 34 35
ENDBRANCH 33 34
BRANCH 33 38
ATOM     38  C   LEU B  13      41.394  26.866  48.503  1.00 54.04 LIG 0.22  C 
ATOM     39 O    LEU B  13      41.523  25.892  47.762  1.00 55.16 LIG-0.29  OA
ENDBRANCH 33 38
ENDBRANCH 31 33
ENDBRANCH 28 29
BRANCH 28 40
ATOM     40  CB  ASP B  12      40.074  22.206  49.703  1.00 42.16 LIG 0.15  C 
BRANCH 40 41
ATOM     41  CG  ASP B  12      38.878  21.761  48.873  1.00 44.94 LIG 0.17  C 
ATOM     42 OD2  ASP B  12      38.508  20.568  48.966  1.00 53.96 LIG-0.65  OA
ATOM     43 OD1  ASP B  12      38.305  22.600  48.135  1.00 32.79 LIG-0.65  OA
ENDBRANCH 40 41
ENDBRANCH 28 40
ENDBRANCH 26 28
ENDBRANCH 1 24
BRANCH 1 44
ATOM     44  CB  VAL B  11      36.088  25.612  52.287  1.00 40.95 LIG 0.01  C 
ATOM     45  CG2 VAL B  11      34.781  25.880  53.037  1.00 48.12 LIG 0.01  C 
ATOM     46  CG1 VAL B  11      36.269  26.583  51.125  1.00 38.34 LIG 0.01  C 
ENDBRANCH 1 44
TORSDOF 20
ENDMDL
