MODEL 1
USER: ADFR SOLUTION from run 47
USER: SCORE 18.716141 LL:  -3.326 LR: -15.724 RR:   0.000 FEB:  -8.565
USER: RMSD 9.716651
USER: SEED 46
USER: STATUS no improvement in best in 4 clusters for 5 generations
USER: GENES 26
USER: genes 0 Translation |==|  0.61107 0.58554 0.36364
USER: genes 1 Rotation |==|  0.70587 0.21816 0.79009 0.70984
USER: genes 2 Torsion [CB]-CA--N-[C] |==|  0.15045
USER: genes 3 Torsion [N]-C--CA-[N] |==|  0.46219
USER: genes 4 Torsion [C]-CA--N-[C] |==|  0.53920
USER: genes 5 Torsion [N]-C--CA-[N] |==|  0.92197
USER: genes 6 Torsion [C]-CA--CB-[CG] |==|  0.36435
USER: genes 7 Torsion [CA]-CB--CG-[CD] |==|  0.68322
USER: genes 8 Torsion [CB]-CG--CD-[OE1] |==|  0.29524
USER: genes 9 Torsion [C]-CA--CB-[CG2] |==|  0.92837
USER: genes 10 Torsion [CA]-CB--CG1-[CD1] |==|  0.21424
USER: genes 11 Torsion [N]-CA--CB-[CG] |==|  0.18426
USER: genes 12 Torsion [CA]-CB--CG-[CD] |==|  0.64200
USER: genes 13 Torsion [CB]-CG--CD-[CE] |==|  0.48952
USER: genes 14 Torsion [CG]-CD--CE-[NZ] |==|  0.54588
USER: genes 15 Torsion [CD]-CE--NZ-[HZ1] |==|  0.38352
USER: genes 16 Torsion [N]-CA--C-[N] |==|  0.10939
USER: genes 17 Torsion [C]-N--CA-[C] |==|  0.61452
USER: genes 18 Torsion [N]-CA--CB-[CG] |==|  0.22408
USER: genes 19 Torsion [CA]-CB--CG-[OD1] |==|  0.25560
USER: genes 20 Torsion [N]-CA--C-[N] |==|  0.42295
USER: genes 21 Torsion [N]-CA--C-[O] |==|  0.00785
USER: genes 22 Torsion [C]-N--CA-[C] |==|  0.74006
USER: genes 23 Torsion [N]-CA--CB-[CG2] |==|  0.40603
USER: genes 24 Torsion [CA]-CB--CG1-[CD1] |==|  0.28083
USER: genes 25 Torsion [N]-CA--C-[O] |==|  0.99486
ROOT
ATOM      1  CA  LYS C   4     -34.990  28.178 -24.818  1.00 55.66 LIG 0.18  C 
ENDROOT
BRANCH 1 2
ATOM      2  N   LYS C   4     -34.191  27.029 -25.228  1.00 52.22 LIG-0.35  N 
ATOM      3  C   ILE C   3     -33.413  27.048 -26.307  1.00 49.48 LIG 0.24  C 
ATOM      4 O    ILE C   3     -33.327  28.017 -27.061  1.00 46.52 LIG-0.27  OA
ATOM      5 H    LYS C   4     -34.270  26.346 -24.712  1.00 52.22 LIG 0.16  HD
BRANCH 3 6
ATOM      6  CA  ILE C   3     -32.622  25.771 -26.581  1.00 52.28 LIG 0.18  C 
BRANCH 6 7
ATOM      7  N   ILE C   3     -32.073  25.793 -27.932  1.00 58.50 LIG-0.34  N 
ATOM      8 H    ILE C   3     -32.094  26.565 -28.312  1.00 58.50 LIG 0.16  HD
ATOM      9  C   GLN C   2     -31.587  24.695 -28.501  1.00 66.26 LIG 0.26  C 
ATOM     10 O    GLN C   2     -31.571  23.602 -27.936  1.00 73.27 LIG-0.27  OA
BRANCH 9 11
ATOM     11  CA  GLN C   2     -31.044  24.848 -29.918  1.00 65.71 LIG 0.40  C 
ATOM     12  N   GLN C   2     -31.719  25.936 -30.615  1.00 61.11 LIG 0.61  N 
BRANCH 11 13
ATOM     13  CB  GLN C   2     -29.533  25.091 -29.878  1.00 69.09 LIG 0.06  C 
BRANCH 13 14
ATOM     14  CG  GLN C   2     -28.729  24.202 -30.825  1.00 69.91 LIG 0.10  C 
BRANCH 14 15
ATOM     15  CD  GLN C   2     -27.821  23.232 -30.093  1.00 70.47 LIG 0.21  C 
ATOM     16 OE1  GLN C   2     -28.093  22.033 -30.034  1.00 73.69 LIG-0.27  OA
ATOM     17  NE2 GLN C   2     -26.733  23.748 -29.532  1.00 67.69 LIG-0.37  N 
ATOM     18 21HE GLN C   2     -26.576  24.591 -29.595  1.00 67.69 LIG 0.16  HD
ATOM     19 22HE GLN C   2     -26.186  23.239 -29.107  1.00 67.69 LIG 0.16  HD
ENDBRANCH 14 15
ENDBRANCH 13 14
ENDBRANCH 11 13
ENDBRANCH 9 11
ENDBRANCH 6 7
BRANCH 6 20
ATOM     20  CB  ILE C   3     -31.514  25.613 -25.520  1.00 50.18 LIG 0.01  C 
ATOM     21  CG2 ILE C   3     -31.118  26.981 -24.953  1.00 50.82 LIG 0.01  C 
BRANCH 20 22
ATOM     22  CG1 ILE C   3     -31.985  24.668 -24.409  1.00 50.01 LIG 0.00  C 
ATOM     23  CD1 ILE C   3     -31.947  23.199 -24.775  1.00 50.06 LIG 0.01  C 
ENDBRANCH 20 22
ENDBRANCH 6 20
ENDBRANCH 3 6
ENDBRANCH 1 2
BRANCH 1 24
ATOM     24  CB  LYS C   4     -35.879  28.648 -25.971  1.00 61.43 LIG 0.04  C 
BRANCH 24 25
ATOM     25  CG  LYS C   4     -36.961  27.660 -26.377  1.00 66.58 LIG 0.00  C 
BRANCH 25 26
ATOM     26  CD  LYS C   4     -36.932  27.409 -27.879  1.00 73.00 LIG 0.03  C 
BRANCH 26 27
ATOM     27  CE  LYS C   4     -37.945  26.355 -28.295  1.00 75.18 LIG 0.23  C 
BRANCH 27 28
ATOM     28  NZ  LYS C   4     -37.662  25.824 -29.658  1.00 76.64 LIG-0.08  N 
ATOM     29 HZ3  LYS C   4     -36.822  26.015 -29.882  1.00 76.64 LIG 0.27  HD
ATOM     30 HZ2  LYS C   4     -38.217  26.199 -30.244  1.00 76.64 LIG 0.27  HD
ATOM     31 HZ1  LYS C   4     -37.777  24.942 -29.663  1.00 76.64 LIG 0.27  HD
ENDBRANCH 27 28
ENDBRANCH 26 27
ENDBRANCH 25 26
ENDBRANCH 24 25
ENDBRANCH 1 24
BRANCH 1 32
ATOM     32  C   LYS C   4     -35.835  27.818 -23.600  1.00 57.21 LIG 0.24  C 
ATOM     33  N   ASN C   5     -35.250  27.054 -22.683  1.00 57.25 LIG-0.35  N 
ATOM     34 H    ASN C   5     -34.442  26.764 -22.743  1.00 57.25 LIG 0.16  HD
ATOM     35 O    LYS C   4     -36.994  28.225 -23.496  1.00 57.68 LIG-0.27  OA
BRANCH 33 36
ATOM     36  CA  ASN C   5     -35.950  26.636 -21.475  1.00 58.26 LIG 0.18  C 
BRANCH 36 37
ATOM     37  CB  ASN C   5     -36.487  25.214 -21.639  1.00 53.49 LIG 0.14  C 
BRANCH 37 38
ATOM     38  CG  ASN C   5     -35.424  24.159 -21.402  1.00 47.90 LIG 0.22  C 
ATOM     39 OD1  ASN C   5     -35.257  23.669 -20.284  1.00 45.37 LIG-0.27  OA
ATOM     40  ND2 ASN C   5     -34.697  23.804 -22.454  1.00 45.09 LIG-0.37  N 
ATOM     41 22HD ASN C   5     -34.842  24.168 -23.219  1.00 45.09 LIG 0.16  HD
ATOM     42 21HD ASN C   5     -34.081  23.209 -22.370  1.00 45.09 LIG 0.16  HD
ENDBRANCH 37 38
ENDBRANCH 36 37
BRANCH 36 43
ATOM     43  C   ASN C   5     -35.046  26.707 -20.249  1.00 62.82 LIG 0.24  C 
ATOM     44 O    ASN C   5     -33.822  26.577 -20.367  1.00 59.04 LIG-0.27  OA
ATOM     45  N   PRO C   6     -35.646  26.913 -19.082  1.00 69.97 LIG-0.34  N 
ATOM     46  CA  PRO C   6     -34.887  27.002 -17.830  1.00 73.90 LIG 0.18  C 
ATOM     47  CD  PRO C   6     -37.080  27.188 -18.883  1.00 74.49 LIG 0.13  C 
ATOM     48  CB  PRO C   6     -35.981  27.019 -16.761  1.00 75.59 LIG 0.04  C 
ATOM     49  CG  PRO C   6     -37.164  27.612 -17.444  1.00 76.33 LIG 0.02  C 
BRANCH 46 50
ATOM     50  C   PRO C   6     -33.964  25.803 -17.626  1.00 72.73 LIG 0.24  C 
ATOM     51 O    PRO C   6     -33.885  24.932 -18.493  1.00 74.17 LIG-0.27  OA
ATOM     52  N   ILE C   7     -33.279  25.765 -16.488  1.00 69.55 LIG-0.35  N 
ATOM     53 H    ILE C   7     -33.330  26.368 -15.876  1.00 69.55 LIG 0.16  HD
BRANCH 52 54
ATOM     54  CA  ILE C   7     -32.366  24.671 -16.181  1.00 67.58 LIG 0.17  C 
BRANCH 54 55
ATOM     55  CB  ILE C   7     -31.145  25.168 -15.385  1.00 70.68 LIG 0.01  C 
ATOM     56  CG2 ILE C   7     -30.683  24.102 -14.403  1.00 70.33 LIG 0.01  C 
BRANCH 55 57
ATOM     57  CG1 ILE C   7     -30.008  25.542 -16.338  1.00 72.59 LIG 0.00  C 
ATOM     58  CD1 ILE C   7     -29.878  27.030 -16.576  1.00 73.15 LIG 0.01  C 
ENDBRANCH 55 57
ENDBRANCH 54 55
BRANCH 54 59
ATOM     59  C   ILE C   7     -33.072  23.589 -15.372  1.00 63.70 LIG 0.22  C 
ATOM     60 O    ILE C   7     -34.249  23.721 -15.034  1.00 60.54 LIG-0.29  OA
ENDBRANCH 54 59
ENDBRANCH 52 54
ENDBRANCH 46 50
ENDBRANCH 36 43
ENDBRANCH 33 36
ENDBRANCH 1 32
TORSDOF 24
ENDMDL
MODEL 2
USER: ADFR SOLUTION from run 128
USER: SCORE 17.092704 LL:  -4.138 LR: -15.677 RR:   0.000 FEB:  -8.517
USER: RMSD 5.479549
USER: SEED 127
USER: STATUS 1 or 2 clusters left
USER: GENES 26
USER: genes 0 Translation |==|  0.40804 0.35735 0.38625
USER: genes 1 Rotation |==|  0.48002 0.23244 0.56001 0.91762
USER: genes 2 Torsion [CB]-CA--N-[C] |==|  0.27018
USER: genes 3 Torsion [N]-C--CA-[N] |==|  0.93446
USER: genes 4 Torsion [C]-CA--N-[C] |==|  0.53333
USER: genes 5 Torsion [N]-C--CA-[N] |==|  0.55299
USER: genes 6 Torsion [C]-CA--CB-[CG] |==|  0.61995
USER: genes 7 Torsion [CA]-CB--CG-[CD] |==|  0.26493
USER: genes 8 Torsion [CB]-CG--CD-[OE1] |==|  0.70788
USER: genes 9 Torsion [C]-CA--CB-[CG2] |==|  0.02288
USER: genes 10 Torsion [CA]-CB--CG1-[CD1] |==|  0.51753
USER: genes 11 Torsion [N]-CA--CB-[CG] |==|  0.78904
USER: genes 12 Torsion [CA]-CB--CG-[CD] |==|  0.52063
USER: genes 13 Torsion [CB]-CG--CD-[CE] |==|  0.26443
USER: genes 14 Torsion [CG]-CD--CE-[NZ] |==|  0.35984
USER: genes 15 Torsion [CD]-CE--NZ-[HZ1] |==|  0.13822
USER: genes 16 Torsion [N]-CA--C-[N] |==|  0.30892
USER: genes 17 Torsion [C]-N--CA-[C] |==|  0.64489
USER: genes 18 Torsion [N]-CA--CB-[CG] |==|  0.80039
USER: genes 19 Torsion [CA]-CB--CG-[OD1] |==|  0.72086
USER: genes 20 Torsion [N]-CA--C-[N] |==|  0.84510
USER: genes 21 Torsion [N]-CA--C-[O] |==|  0.36369
USER: genes 22 Torsion [C]-N--CA-[C] |==|  0.67141
USER: genes 23 Torsion [N]-CA--CB-[CG2] |==|  0.53430
USER: genes 24 Torsion [CA]-CB--CG1-[CD1] |==|  0.32116
USER: genes 25 Torsion [N]-CA--C-[O] |==|  0.92821
ROOT
ATOM      1  CA  LYS C   4     -39.710  23.899 -24.377  1.00 55.66 LIG 0.18  C 
ENDROOT
BRANCH 1 2
ATOM      2  N   LYS C   4     -40.909  23.068 -24.358  1.00 52.22 LIG-0.35  N 
ATOM      3  C   ILE C   3     -40.942  21.850 -24.892  1.00 49.48 LIG 0.24  C 
ATOM      4 O    ILE C   3     -39.982  21.339 -25.469  1.00 46.52 LIG-0.27  OA
ATOM      5 H    LYS C   4     -41.583  23.437 -23.974  1.00 52.22 LIG 0.16  HD
BRANCH 3 6
ATOM      6  CA  ILE C   3     -42.267  21.103 -24.763  1.00 52.28 LIG 0.18  C 
BRANCH 6 7
ATOM      7  N   ILE C   3     -43.033  21.617 -23.635  1.00 58.50 LIG-0.34  N 
ATOM      8 H    ILE C   3     -42.732  22.353 -23.305  1.00 58.50 LIG 0.16  HD
ATOM      9  C   GLN C   2     -44.105  20.979 -23.174  1.00 66.26 LIG 0.26  C 
ATOM     10 O    GLN C   2     -44.513  19.926 -23.661  1.00 73.27 LIG-0.27  OA
BRANCH 9 11
ATOM     11  CA  GLN C   2     -44.819  21.619 -21.988  1.00 65.71 LIG 0.40  C 
ATOM     12  N   GLN C   2     -45.662  20.644 -21.307  1.00 61.11 LIG 0.61  N 
BRANCH 11 13
ATOM     13  CB  GLN C   2     -43.795  22.215 -21.018  1.00 69.09 LIG 0.06  C 
BRANCH 13 14
ATOM     14  CG  GLN C   2     -44.093  21.939 -19.545  1.00 69.91 LIG 0.10  C 
BRANCH 14 15
ATOM     15  CD  GLN C   2     -43.353  20.728 -19.012  1.00 70.47 LIG 0.21  C 
ATOM     16 OE1  GLN C   2     -43.940  19.665 -18.811  1.00 73.69 LIG-0.27  OA
ATOM     17  NE2 GLN C   2     -42.053  20.882 -18.781  1.00 67.69 LIG-0.37  N 
ATOM     18 21HE GLN C   2     -41.677  21.640 -18.934  1.00 67.69 LIG 0.16  HD
ATOM     19 22HE GLN C   2     -41.589  20.224 -18.479  1.00 67.69 LIG 0.16  HD
ENDBRANCH 14 15
ENDBRANCH 13 14
ENDBRANCH 11 13
ENDBRANCH 9 11
ENDBRANCH 6 7
BRANCH 6 20
ATOM     20  CB  ILE C   3     -43.055  21.216 -26.084  1.00 50.18 LIG 0.01  C 
ATOM     21  CG2 ILE C   3     -42.187  21.859 -27.171  1.00 50.82 LIG 0.01  C 
BRANCH 20 22
ATOM     22  CG1 ILE C   3     -43.550  19.832 -26.518  1.00 50.01 LIG 0.00  C 
ATOM     23  CD1 ILE C   3     -44.209  19.798 -27.881  1.00 50.06 LIG 0.01  C 
ENDBRANCH 20 22
ENDBRANCH 6 20
ENDBRANCH 3 6
ENDBRANCH 1 2
BRANCH 1 24
ATOM     24  CB  LYS C   4     -39.767  24.891 -25.541  1.00 61.43 LIG 0.04  C 
BRANCH 24 25
ATOM     25  CG  LYS C   4     -39.482  24.282 -26.904  1.00 66.58 LIG 0.00  C 
BRANCH 25 26
ATOM     26  CD  LYS C   4     -39.380  25.363 -27.972  1.00 73.00 LIG 0.03  C 
BRANCH 26 27
ATOM     27  CE  LYS C   4     -37.939  25.782 -28.215  1.00 75.18 LIG 0.23  C 
BRANCH 27 28
ATOM     28  NZ  LYS C   4     -37.594  25.759 -29.665  1.00 76.64 LIG-0.08  N 
ATOM     29 HZ3  LYS C   4     -37.560  24.916 -29.948  1.00 76.64 LIG 0.27  HD
ATOM     30 HZ2  LYS C   4     -36.802  26.146 -29.788  1.00 76.64 LIG 0.27  HD
ATOM     31 HZ1  LYS C   4     -38.215  26.200 -30.124  1.00 76.64 LIG 0.27  HD
ENDBRANCH 27 28
ENDBRANCH 26 27
ENDBRANCH 25 26
ENDBRANCH 24 25
ENDBRANCH 1 24
BRANCH 1 32
ATOM     32  C   LYS C   4     -39.566  24.638 -23.050  1.00 57.21 LIG 0.24  C 
ATOM     33  N   ASN C   5     -38.554  24.261 -22.274  1.00 57.25 LIG-0.35  N 
ATOM     34 H    ASN C   5     -37.995  23.641 -22.482  1.00 57.25 LIG 0.16  HD
ATOM     35 O    LYS C   4     -40.357  25.530 -22.737  1.00 57.68 LIG-0.27  OA
BRANCH 33 36
ATOM     36  CA  ASN C   5     -38.308  24.884 -20.980  1.00 58.26 LIG 0.18  C 
BRANCH 36 37
ATOM     37  CB  ASN C   5     -38.628  23.904 -19.851  1.00 53.49 LIG 0.14  C 
BRANCH 37 38
ATOM     38  CG  ASN C   5     -40.118  23.669 -19.688  1.00 47.90 LIG 0.22  C 
ATOM     39 OD1  ASN C   5     -40.755  24.241 -18.803  1.00 45.37 LIG-0.27  OA
ATOM     40  ND2 ASN C   5     -40.681  22.824 -20.543  1.00 45.09 LIG-0.37  N 
ATOM     41 22HD ASN C   5     -40.204  22.443 -21.148  1.00 45.09 LIG 0.16  HD
ATOM     42 21HD ASN C   5     -41.523  22.658 -20.491  1.00 45.09 LIG 0.16  HD
ENDBRANCH 37 38
ENDBRANCH 36 37
BRANCH 36 43
ATOM     43  C   ASN C   5     -36.867  25.364 -20.852  1.00 62.82 LIG 0.24  C 
ATOM     44 O    ASN C   5     -36.624  26.546 -20.579  1.00 59.04 LIG-0.27  OA
ATOM     45  N   PRO C   6     -35.920  24.454 -21.049  1.00 69.97 LIG-0.34  N 
ATOM     46  CA  PRO C   6     -34.495  24.791 -20.954  1.00 73.90 LIG 0.18  C 
ATOM     47  CD  PRO C   6     -36.136  23.012 -21.266  1.00 74.49 LIG 0.13  C 
ATOM     48  CB  PRO C   6     -33.804  23.524 -21.460  1.00 75.59 LIG 0.04  C 
ATOM     49  CG  PRO C   6     -34.759  22.424 -21.148  1.00 76.33 LIG 0.02  C 
BRANCH 46 50
ATOM     50  C   PRO C   6     -34.123  25.985 -21.829  1.00 72.73 LIG 0.24  C 
ATOM     51 O    PRO C   6     -33.468  26.915 -21.356  1.00 74.17 LIG-0.27  OA
ATOM     52  N   ILE C   7     -34.541  25.954 -23.089  1.00 69.55 LIG-0.35  N 
ATOM     53 H    ILE C   7     -35.000  25.309 -23.427  1.00 69.55 LIG 0.16  HD
BRANCH 52 54
ATOM     54  CA  ILE C   7     -34.247  27.036 -24.020  1.00 67.58 LIG 0.17  C 
BRANCH 54 55
ATOM     55  CB  ILE C   7     -33.450  26.529 -25.235  1.00 70.68 LIG 0.01  C 
ATOM     56  CG2 ILE C   7     -32.895  27.700 -26.031  1.00 70.33 LIG 0.01  C 
BRANCH 55 57
ATOM     57  CG1 ILE C   7     -32.315  25.610 -24.778  1.00 72.59 LIG 0.00  C 
ATOM     58  CD1 ILE C   7     -32.459  24.182 -25.254  1.00 73.15 LIG 0.01  C 
ENDBRANCH 55 57
ENDBRANCH 54 55
BRANCH 54 59
ATOM     59  C   ILE C   7     -35.534  27.688 -24.515  1.00 63.70 LIG 0.22  C 
ATOM     60 O    ILE C   7     -36.592  27.059 -24.537  1.00 60.54 LIG-0.29  OA
ENDBRANCH 54 59
ENDBRANCH 52 54
ENDBRANCH 46 50
ENDBRANCH 36 43
ENDBRANCH 33 36
ENDBRANCH 1 32
TORSDOF 24
ENDMDL
MODEL 3
USER: ADFR SOLUTION from run 169
USER: SCORE 17.973773 LL:  -3.746 LR: -15.066 RR:   0.000 FEB:  -7.907
USER: RMSD 9.331822
USER: SEED 168
USER: STATUS no improvement in best in 1 clusters for 5 generations
USER: GENES 26
USER: genes 0 Translation |==|  0.61723 0.58871 0.35185
USER: genes 1 Rotation |==|  0.80023 0.32642 0.83710 0.62686
USER: genes 2 Torsion [CB]-CA--N-[C] |==|  0.75022
USER: genes 3 Torsion [N]-C--CA-[N] |==|  0.82880
USER: genes 4 Torsion [C]-CA--N-[C] |==|  0.67722
USER: genes 5 Torsion [N]-C--CA-[N] |==|  0.93726
USER: genes 6 Torsion [C]-CA--CB-[CG] |==|  0.25961
USER: genes 7 Torsion [CA]-CB--CG-[CD] |==|  0.66580
USER: genes 8 Torsion [CB]-CG--CD-[OE1] |==|  0.96102
USER: genes 9 Torsion [C]-CA--CB-[CG2] |==|  0.08625
USER: genes 10 Torsion [CA]-CB--CG1-[CD1] |==|  0.64694
USER: genes 11 Torsion [N]-CA--CB-[CG] |==|  0.94276
USER: genes 12 Torsion [CA]-CB--CG-[CD] |==|  0.54055
USER: genes 13 Torsion [CB]-CG--CD-[CE] |==|  0.80054
USER: genes 14 Torsion [CG]-CD--CE-[NZ] |==|  0.65654
USER: genes 15 Torsion [CD]-CE--NZ-[HZ1] |==|  0.78581
USER: genes 16 Torsion [N]-CA--C-[N] |==|  0.19539
USER: genes 17 Torsion [C]-N--CA-[C] |==|  0.55378
USER: genes 18 Torsion [N]-CA--CB-[CG] |==|  0.66373
USER: genes 19 Torsion [CA]-CB--CG-[OD1] |==|  0.68617
USER: genes 20 Torsion [N]-CA--C-[N] |==|  0.45384
USER: genes 21 Torsion [N]-CA--C-[O] |==|  0.31331
USER: genes 22 Torsion [C]-N--CA-[C] |==|  0.83388
USER: genes 23 Torsion [N]-CA--CB-[CG2] |==|  0.55959
USER: genes 24 Torsion [CA]-CB--CG1-[CD1] |==|  0.64053
USER: genes 25 Torsion [N]-CA--C-[O] |==|  0.66720
ROOT
ATOM      1  CA  LYS C   4     -34.846  28.237 -25.048  1.00 55.66 LIG 0.18  C 
ENDROOT
BRANCH 1 2
ATOM      2  N   LYS C   4     -33.554  27.794 -25.557  1.00 52.22 LIG-0.35  N 
ATOM      3  C   ILE C   3     -33.078  26.572 -25.335  1.00 49.48 LIG 0.24  C 
ATOM      4 O    ILE C   3     -33.671  25.730 -24.660  1.00 46.52 LIG-0.27  OA
ATOM      5 H    LYS C   4     -33.133  28.392 -26.009  1.00 52.22 LIG 0.16  HD
BRANCH 3 6
ATOM      6  CA  ILE C   3     -31.722  26.260 -25.961  1.00 52.28 LIG 0.18  C 
BRANCH 6 7
ATOM      7  N   ILE C   3     -31.798  26.360 -27.414  1.00 58.50 LIG-0.34  N 
ATOM      8 H    ILE C   3     -31.978  27.149 -27.708  1.00 58.50 LIG 0.16  HD
ATOM      9  C   GLN C   2     -31.602  25.301 -28.194  1.00 66.26 LIG 0.26  C 
ATOM     10 O    GLN C   2     -31.350  24.182 -27.748  1.00 73.27 LIG-0.27  OA
BRANCH 9 11
ATOM     11  CA  GLN C   2     -31.711  25.535 -29.697  1.00 65.71 LIG 0.40  C 
ATOM     12  N   GLN C   2     -32.512  26.721 -29.978  1.00 61.11 LIG 0.61  N 
BRANCH 11 13
ATOM     13  CB  GLN C   2     -30.315  25.672 -30.310  1.00 69.09 LIG 0.06  C 
BRANCH 13 14
ATOM     14  CG  GLN C   2     -29.739  24.366 -30.854  1.00 69.91 LIG 0.10  C 
BRANCH 14 15
ATOM     15  CD  GLN C   2     -28.436  23.973 -30.185  1.00 70.47 LIG 0.21  C 
ATOM     16 OE1  GLN C   2     -27.811  24.778 -29.497  1.00 73.69 LIG-0.27  OA
ATOM     17  NE2 GLN C   2     -28.021  22.726 -30.384  1.00 67.69 LIG-0.37  N 
ATOM     18 21HE GLN C   2     -28.486  22.191 -30.871  1.00 67.69 LIG 0.16  HD
ATOM     19 22HE GLN C   2     -27.289  22.454 -30.025  1.00 67.69 LIG 0.16  HD
ENDBRANCH 14 15
ENDBRANCH 13 14
ENDBRANCH 11 13
ENDBRANCH 9 11
ENDBRANCH 6 7
BRANCH 6 20
ATOM     20  CB  ILE C   3     -30.654  27.210 -25.382  1.00 50.18 LIG 0.01  C 
ATOM     21  CG2 ILE C   3     -31.003  27.589 -23.938  1.00 50.82 LIG 0.01  C 
BRANCH 20 22
ATOM     22  CG1 ILE C   3     -29.271  26.554 -25.463  1.00 50.01 LIG 0.00  C 
ATOM     23  CD1 ILE C   3     -28.514  26.519 -24.152  1.00 50.06 LIG 0.01  C 
ENDBRANCH 20 22
ENDBRANCH 6 20
ENDBRANCH 3 6
ENDBRANCH 1 2
BRANCH 1 24
ATOM     24  CB  LYS C   4     -35.951  27.933 -26.062  1.00 61.43 LIG 0.04  C 
BRANCH 24 25
ATOM     25  CG  LYS C   4     -35.462  27.728 -27.487  1.00 66.58 LIG 0.00  C 
BRANCH 25 26
ATOM     26  CD  LYS C   4     -36.620  27.789 -28.473  1.00 73.00 LIG 0.03  C 
BRANCH 26 27
ATOM     27  CE  LYS C   4     -37.509  26.560 -28.377  1.00 75.18 LIG 0.23  C 
BRANCH 27 28
ATOM     28  NZ  LYS C   4     -37.634  25.865 -29.689  1.00 76.64 LIG-0.08  N 
ATOM     29 HZ3  LYS C   4     -37.941  25.039 -29.560  1.00 76.64 LIG 0.27  HD
ATOM     30 HZ2  LYS C   4     -36.836  25.826 -30.082  1.00 76.64 LIG 0.27  HD
ATOM     31 HZ1  LYS C   4     -38.200  26.312 -30.209  1.00 76.64 LIG 0.27  HD
ENDBRANCH 27 28
ENDBRANCH 26 27
ENDBRANCH 25 26
ENDBRANCH 24 25
ENDBRANCH 1 24
BRANCH 1 32
ATOM     32  C   LYS C   4     -35.142  27.560 -23.713  1.00 57.21 LIG 0.24  C 
ATOM     33  N   ASN C   5     -34.403  27.950 -22.679  1.00 57.25 LIG-0.35  N 
ATOM     34 H    ASN C   5     -33.787  28.549 -22.728  1.00 57.25 LIG 0.16  HD
ATOM     35 O    LYS C   4     -36.021  26.701 -23.624  1.00 57.68 LIG-0.27  OA
BRANCH 33 36
ATOM     36  CA  ASN C   5     -34.582  27.379 -21.351  1.00 58.26 LIG 0.18  C 
BRANCH 36 37
ATOM     37  CB  ASN C   5     -33.941  25.993 -21.279  1.00 53.49 LIG 0.14  C 
BRANCH 37 38
ATOM     38  CG  ASN C   5     -34.937  24.909 -20.915  1.00 47.90 LIG 0.22  C 
ATOM     39 OD1  ASN C   5     -34.858  24.313 -19.840  1.00 45.37 LIG-0.27  OA
ATOM     40  ND2 ASN C   5     -35.880  24.646 -21.810  1.00 45.09 LIG-0.37  N 
ATOM     41 22HD ASN C   5     -35.904  25.083 -22.551  1.00 45.09 LIG 0.16  HD
ATOM     42 21HD ASN C   5     -36.469  24.040 -21.650  1.00 45.09 LIG 0.16  HD
ENDBRANCH 37 38
ENDBRANCH 36 37
BRANCH 36 43
ATOM     43  C   ASN C   5     -33.992  28.277 -20.269  1.00 62.82 LIG 0.24  C 
ATOM     44 O    ASN C   5     -33.191  29.170 -20.567  1.00 59.04 LIG-0.27  OA
ATOM     45  N   PRO C   6     -34.387  28.040 -19.022  1.00 69.97 LIG-0.34  N 
ATOM     46  CA  PRO C   6     -33.892  28.834 -17.893  1.00 73.90 LIG 0.18  C 
ATOM     47  CD  PRO C   6     -35.418  27.071 -18.611  1.00 74.49 LIG 0.13  C 
ATOM     48  CB  PRO C   6     -34.430  28.081 -16.676  1.00 75.59 LIG 0.04  C 
ATOM     49  CG  PRO C   6     -35.664  27.406 -17.166  1.00 76.33 LIG 0.02  C 
BRANCH 46 50
ATOM     50  C   PRO C   6     -32.367  28.893 -17.850  1.00 72.73 LIG 0.24  C 
ATOM     51 O    PRO C   6     -31.786  29.959 -18.055  1.00 74.17 LIG-0.27  OA
ATOM     52  N   ILE C   7     -31.734  27.755 -17.589  1.00 69.55 LIG-0.35  N 
ATOM     53 H    ILE C   7     -32.132  27.006 -17.446  1.00 69.55 LIG 0.16  HD
BRANCH 52 54
ATOM     54  CA  ILE C   7     -30.279  27.686 -17.522  1.00 67.58 LIG 0.17  C 
BRANCH 54 55
ATOM     55  CB  ILE C   7     -29.801  26.263 -17.180  1.00 70.68 LIG 0.01  C 
ATOM     56  CG2 ILE C   7     -28.394  26.302 -16.604  1.00 70.33 LIG 0.01  C 
BRANCH 55 57
ATOM     57  CG1 ILE C   7     -30.764  25.604 -16.191  1.00 72.59 LIG 0.00  C 
ATOM     58  CD1 ILE C   7     -30.078  25.004 -14.983  1.00 73.15 LIG 0.01  C 
ENDBRANCH 55 57
ENDBRANCH 54 55
BRANCH 54 59
ATOM     59  C   ILE C   7     -29.656  28.110 -18.848  1.00 63.70 LIG 0.22  C 
ATOM     60 O    ILE C   7     -28.947  27.333 -19.487  1.00 60.54 LIG-0.29  OA
ENDBRANCH 54 59
ENDBRANCH 52 54
ENDBRANCH 46 50
ENDBRANCH 36 43
ENDBRANCH 33 36
ENDBRANCH 1 32
TORSDOF 24
ENDMDL
MODEL 4
USER: ADFR SOLUTION from run 149
USER: SCORE 17.064961 LL:  -4.016 LR: -14.815 RR:   0.000 FEB:  -7.656
USER: RMSD 2.800024
USER: SEED 148
USER: STATUS no improvement in best in 9 clusters for 5 generations
USER: GENES 26
USER: genes 0 Translation |==|  0.46092 0.47995 0.39987
USER: genes 1 Rotation |==|  0.42930 0.44406 0.52755 0.99103
USER: genes 2 Torsion [CB]-CA--N-[C] |==|  0.34503
USER: genes 3 Torsion [N]-C--CA-[N] |==|  0.37508
USER: genes 4 Torsion [C]-CA--N-[C] |==|  0.80218
USER: genes 5 Torsion [N]-C--CA-[N] |==|  0.86751
USER: genes 6 Torsion [C]-CA--CB-[CG] |==|  0.61464
USER: genes 7 Torsion [CA]-CB--CG-[CD] |==|  0.30536
USER: genes 8 Torsion [CB]-CG--CD-[OE1] |==|  0.42830
USER: genes 9 Torsion [C]-CA--CB-[CG2] |==|  0.61803
USER: genes 10 Torsion [CA]-CB--CG1-[CD1] |==|  0.39822
USER: genes 11 Torsion [N]-CA--CB-[CG] |==|  0.66338
USER: genes 12 Torsion [CA]-CB--CG-[CD] |==|  0.76681
USER: genes 13 Torsion [CB]-CG--CD-[CE] |==|  0.56933
USER: genes 14 Torsion [CG]-CD--CE-[NZ] |==|  0.67984
USER: genes 15 Torsion [CD]-CE--NZ-[HZ1] |==|  0.98821
USER: genes 16 Torsion [N]-CA--C-[N] |==|  0.17429
USER: genes 17 Torsion [C]-N--CA-[C] |==|  0.81981
USER: genes 18 Torsion [N]-CA--CB-[CG] |==|  0.16260
USER: genes 19 Torsion [CA]-CB--CG-[OD1] |==|  0.29822
USER: genes 20 Torsion [N]-CA--C-[N] |==|  0.42778
USER: genes 21 Torsion [N]-CA--C-[O] |==|  0.75028
USER: genes 22 Torsion [C]-N--CA-[C] |==|  0.75909
USER: genes 23 Torsion [N]-CA--CB-[CG2] |==|  0.40674
USER: genes 24 Torsion [CA]-CB--CG1-[CD1] |==|  0.96249
USER: genes 25 Torsion [N]-CA--C-[O] |==|  0.25039
ROOT
ATOM      1  CA  LYS C   4     -38.481  26.198 -24.112  1.00 55.66 LIG 0.18  C 
ENDROOT
BRANCH 1 2
ATOM      2  N   LYS C   4     -39.344  25.818 -23.000  1.00 52.22 LIG-0.35  N 
ATOM      3  C   ILE C   3     -39.570  24.549 -22.672  1.00 49.48 LIG 0.24  C 
ATOM      4 O    ILE C   3     -39.098  23.596 -23.293  1.00 46.52 LIG-0.27  OA
ATOM      5 H    LYS C   4     -39.690  26.485 -22.582  1.00 52.22 LIG 0.16  HD
BRANCH 3 6
ATOM      6  CA  ILE C   3     -40.477  24.324 -21.464  1.00 52.28 LIG 0.18  C 
BRANCH 6 7
ATOM      7  N   ILE C   3     -41.454  23.280 -21.750  1.00 58.50 LIG-0.34  N 
ATOM      8 H    ILE C   3     -41.319  22.541 -21.330  1.00 58.50 LIG 0.16  HD
ATOM      9  C   GLN C   2     -42.460  23.483 -22.595  1.00 66.26 LIG 0.26  C 
ATOM     10 O    GLN C   2     -42.629  24.549 -23.186  1.00 73.27 LIG-0.27  OA
BRANCH 9 11
ATOM     11  CA  GLN C   2     -43.413  22.312 -22.811  1.00 65.71 LIG 0.40  C 
ATOM     12  N   GLN C   2     -42.671  21.082 -23.060  1.00 61.11 LIG 0.61  N 
BRANCH 11 13
ATOM     13  CB  GLN C   2     -44.330  22.150 -21.597  1.00 69.09 LIG 0.06  C 
BRANCH 13 14
ATOM     14  CG  GLN C   2     -44.562  20.700 -21.175  1.00 69.91 LIG 0.10  C 
BRANCH 14 15
ATOM     15  CD  GLN C   2     -43.890  20.354 -19.861  1.00 70.47 LIG 0.21  C 
ATOM     16 OE1  GLN C   2     -44.322  19.449 -19.148  1.00 73.69 LIG-0.27  OA
ATOM     17  NE2 GLN C   2     -42.822  21.075 -19.534  1.00 67.69 LIG-0.37  N 
ATOM     18 21HE GLN C   2     -42.549  21.699 -20.059  1.00 67.69 LIG 0.16  HD
ATOM     19 22HE GLN C   2     -42.404  20.916 -18.799  1.00 67.69 LIG 0.16  HD
ENDBRANCH 14 15
ENDBRANCH 13 14
ENDBRANCH 11 13
ENDBRANCH 9 11
ENDBRANCH 6 7
BRANCH 6 20
ATOM     20  CB  ILE C   3     -39.619  23.977 -20.231  1.00 50.18 LIG 0.01  C 
ATOM     21  CG2 ILE C   3     -40.260  22.833 -19.438  1.00 50.82 LIG 0.01  C 
BRANCH 20 22
ATOM     22  CG1 ILE C   3     -38.195  23.616 -20.670  1.00 50.01 LIG 0.00  C 
ATOM     23  CD1 ILE C   3     -37.108  24.087 -19.726  1.00 50.06 LIG 0.01  C 
ENDBRANCH 20 22
ENDBRANCH 6 20
ENDBRANCH 3 6
ENDBRANCH 1 2
BRANCH 1 24
ATOM     24  CB  LYS C   4     -39.239  27.092 -25.094  1.00 61.43 LIG 0.04  C 
BRANCH 24 25
ATOM     25  CG  LYS C   4     -39.320  26.548 -26.511  1.00 66.58 LIG 0.00  C 
BRANCH 25 26
ATOM     26  CD  LYS C   4     -38.066  26.898 -27.300  1.00 73.00 LIG 0.03  C 
BRANCH 26 27
ATOM     27  CE  LYS C   4     -38.331  26.932 -28.797  1.00 75.18 LIG 0.23  C 
BRANCH 27 28
ATOM     28  NZ  LYS C   4     -37.572  25.871 -29.516  1.00 76.64 LIG-0.08  N 
ATOM     29 HZ3  LYS C   4     -37.073  26.242 -30.153  1.00 76.64 LIG 0.27  HD
ATOM     30 HZ2  LYS C   4     -38.142  25.295 -29.885  1.00 76.64 LIG 0.27  HD
ATOM     31 HZ1  LYS C   4     -37.046  25.441 -28.942  1.00 76.64 LIG 0.27  HD
ENDBRANCH 27 28
ENDBRANCH 26 27
ENDBRANCH 25 26
ENDBRANCH 24 25
ENDBRANCH 1 24
BRANCH 1 32
ATOM     32  C   LYS C   4     -37.238  26.911 -23.587  1.00 57.21 LIG 0.24  C 
ATOM     33  N   ASN C   5     -36.438  26.197 -22.801  1.00 57.25 LIG-0.35  N 
ATOM     34 H    ASN C   5     -36.584  25.378 -22.584  1.00 57.25 LIG 0.16  HD
ATOM     35 O    LYS C   4     -37.010  28.084 -23.890  1.00 57.68 LIG-0.27  OA
BRANCH 33 36
ATOM     36  CA  ASN C   5     -35.221  26.762 -22.232  1.00 58.26 LIG 0.18  C 
BRANCH 36 37
ATOM     37  CB  ASN C   5     -34.598  25.783 -21.236  1.00 53.49 LIG 0.14  C 
BRANCH 37 38
ATOM     38  CG  ASN C   5     -34.263  24.445 -21.867  1.00 47.90 LIG 0.22  C 
ATOM     39 OD1  ASN C   5     -33.094  24.127 -22.091  1.00 45.37 LIG-0.27  OA
ATOM     40  ND2 ASN C   5     -35.288  23.654 -22.159  1.00 45.09 LIG-0.37  N 
ATOM     41 22HD ASN C   5     -36.091  23.910 -21.988  1.00 45.09 LIG 0.16  HD
ATOM     42 21HD ASN C   5     -35.148  22.885 -22.519  1.00 45.09 LIG 0.16  HD
ENDBRANCH 37 38
ENDBRANCH 36 37
BRANCH 36 43
ATOM     43  C   ASN C   5     -34.205  27.113 -23.313  1.00 62.82 LIG 0.24  C 
ATOM     44 O    ASN C   5     -34.214  26.516 -24.396  1.00 59.04 LIG-0.27  OA
ATOM     45  N   PRO C   6     -33.337  28.075 -23.020  1.00 69.97 LIG-0.34  N 
ATOM     46  CA  PRO C   6     -32.310  28.504 -23.976  1.00 73.90 LIG 0.18  C 
ATOM     47  CD  PRO C   6     -33.340  28.901 -21.800  1.00 74.49 LIG 0.13  C 
ATOM     48  CB  PRO C   6     -31.434  29.444 -23.147  1.00 75.59 LIG 0.04  C 
ATOM     49  CG  PRO C   6     -32.348  29.988 -22.104  1.00 76.33 LIG 0.02  C 
BRANCH 46 50
ATOM     50  C   PRO C   6     -31.484  27.334 -24.503  1.00 72.73 LIG 0.24  C 
ATOM     51 O    PRO C   6     -30.459  26.989 -23.914  1.00 74.17 LIG-0.27  OA
ATOM     52  N   ILE C   7     -31.930  26.737 -25.603  1.00 69.55 LIG-0.35  N 
ATOM     53 H    ILE C   7     -32.643  26.973 -26.022  1.00 69.55 LIG 0.16  HD
BRANCH 52 54
ATOM     54  CA  ILE C   7     -31.226  25.608 -26.200  1.00 67.58 LIG 0.17  C 
BRANCH 54 55
ATOM     55  CB  ILE C   7     -32.193  24.687 -26.966  1.00 70.68 LIG 0.01  C 
ATOM     56  CG2 ILE C   7     -31.501  24.082 -28.177  1.00 70.33 LIG 0.01  C 
BRANCH 55 57
ATOM     57  CG1 ILE C   7     -32.716  23.584 -26.044  1.00 72.59 LIG 0.00  C 
ATOM     58  CD1 ILE C   7     -31.942  23.456 -24.749  1.00 73.15 LIG 0.01  C 
ENDBRANCH 55 57
ENDBRANCH 54 55
BRANCH 54 59
ATOM     59  C   ILE C   7     -30.145  26.092 -27.160  1.00 63.70 LIG 0.22  C 
ATOM     60 O    ILE C   7     -28.999  26.305 -26.763  1.00 60.54 LIG-0.29  OA
ENDBRANCH 54 59
ENDBRANCH 52 54
ENDBRANCH 46 50
ENDBRANCH 36 43
ENDBRANCH 33 36
ENDBRANCH 1 32
TORSDOF 24
ENDMDL
MODEL 5
USER: ADFR SOLUTION from run 88
USER: SCORE 17.431747 LL:  -4.635 LR: -14.796 RR:   0.000 FEB:  -7.637
USER: RMSD 9.593189
USER: SEED 87
USER: STATUS 1 or 2 clusters left
USER: GENES 26
USER: genes 0 Translation |==|  0.62669 0.57292 0.32397
USER: genes 1 Rotation |==|  0.76410 0.22564 0.73954 0.71817
USER: genes 2 Torsion [CB]-CA--N-[C] |==|  0.33770
USER: genes 3 Torsion [N]-C--CA-[N] |==|  0.38606
USER: genes 4 Torsion [C]-CA--N-[C] |==|  0.58333
USER: genes 5 Torsion [N]-C--CA-[N] |==|  0.49775
USER: genes 6 Torsion [C]-CA--CB-[CG] |==|  0.85646
USER: genes 7 Torsion [CA]-CB--CG-[CD] |==|  0.26289
USER: genes 8 Torsion [CB]-CG--CD-[OE1] |==|  0.62924
USER: genes 9 Torsion [C]-CA--CB-[CG2] |==|  0.87161
USER: genes 10 Torsion [CA]-CB--CG1-[CD1] |==|  0.53878
USER: genes 11 Torsion [N]-CA--CB-[CG] |==|  0.98890
USER: genes 12 Torsion [CA]-CB--CG-[CD] |==|  0.30869
USER: genes 13 Torsion [CB]-CG--CD-[CE] |==|  0.40060
USER: genes 14 Torsion [CG]-CD--CE-[NZ] |==|  0.30230
USER: genes 15 Torsion [CD]-CE--NZ-[HZ1] |==|  0.45044
USER: genes 16 Torsion [N]-CA--C-[N] |==|  0.08750
USER: genes 17 Torsion [C]-N--CA-[C] |==|  0.78515
USER: genes 18 Torsion [N]-CA--CB-[CG] |==|  0.50173
USER: genes 19 Torsion [CA]-CB--CG-[OD1] |==|  0.83266
USER: genes 20 Torsion [N]-CA--C-[N] |==|  0.36759
USER: genes 21 Torsion [N]-CA--C-[O] |==|  0.25475
USER: genes 22 Torsion [C]-N--CA-[C] |==|  0.46613
USER: genes 23 Torsion [N]-CA--CB-[CG2] |==|  0.21554
USER: genes 24 Torsion [CA]-CB--CG1-[CD1] |==|  0.25366
USER: genes 25 Torsion [N]-CA--C-[O] |==|  0.98266
ROOT
ATOM      1  CA  LYS C   4     -34.627  27.941 -25.592  1.00 55.66 LIG 0.18  C 
ENDROOT
BRANCH 1 2
ATOM      2  N   LYS C   4     -33.937  26.932 -26.387  1.00 52.22 LIG-0.35  N 
ATOM      3  C   ILE C   3     -32.641  27.011 -26.675  1.00 49.48 LIG 0.24  C 
ATOM      4 O    ILE C   3     -31.927  27.951 -26.323  1.00 46.52 LIG-0.27  OA
ATOM      5 H    LYS C   4     -34.443  26.289 -26.650  1.00 52.22 LIG 0.16  HD
BRANCH 3 6
ATOM      6  CA  ILE C   3     -32.068  25.858 -27.495  1.00 52.28 LIG 0.18  C 
BRANCH 6 7
ATOM      7  N   ILE C   3     -31.143  26.362 -28.503  1.00 58.50 LIG-0.34  N 
ATOM      8 H    ILE C   3     -30.733  27.085 -28.281  1.00 58.50 LIG 0.16  HD
ATOM      9  C   GLN C   2     -30.970  25.733 -29.662  1.00 66.26 LIG 0.26  C 
ATOM     10 O    GLN C   2     -31.572  24.702 -29.957  1.00 73.27 LIG-0.27  OA
BRANCH 9 11
ATOM     11  CA  GLN C   2     -29.976  26.361 -30.633  1.00 65.71 LIG 0.40  C 
ATOM     12  N   GLN C   2     -29.869  25.564 -31.849  1.00 61.11 LIG 0.61  N 
BRANCH 11 13
ATOM     13  CB  GLN C   2     -30.400  27.794 -30.966  1.00 69.09 LIG 0.06  C 
BRANCH 13 14
ATOM     14  CG  GLN C   2     -31.851  27.928 -31.427  1.00 69.91 LIG 0.10  C 
BRANCH 14 15
ATOM     15  CD  GLN C   2     -32.798  28.278 -30.296  1.00 70.47 LIG 0.21  C 
ATOM     16 OE1  GLN C   2     -33.863  27.677 -30.153  1.00 73.69 LIG-0.27  OA
ATOM     17  NE2 GLN C   2     -32.414  29.255 -29.482  1.00 67.69 LIG-0.37  N 
ATOM     18 21HE GLN C   2     -31.662  29.652 -29.613  1.00 67.69 LIG 0.16  HD
ATOM     19 22HE GLN C   2     -32.916  29.491 -28.824  1.00 67.69 LIG 0.16  HD
ENDBRANCH 14 15
ENDBRANCH 13 14
ENDBRANCH 11 13
ENDBRANCH 9 11
ENDBRANCH 6 7
BRANCH 6 20
ATOM     20  CB  ILE C   3     -31.386  24.844 -26.554  1.00 50.18 LIG 0.01  C 
ATOM     21  CG2 ILE C   3     -30.493  25.570 -25.542  1.00 50.82 LIG 0.01  C 
BRANCH 20 22
ATOM     22  CG1 ILE C   3     -32.446  23.993 -25.847  1.00 50.01 LIG 0.00  C 
ATOM     23  CD1 ILE C   3     -31.929  23.199 -24.665  1.00 50.06 LIG 0.01  C 
ENDBRANCH 20 22
ENDBRANCH 6 20
ENDBRANCH 3 6
ENDBRANCH 1 2
BRANCH 1 24
ATOM     24  CB  LYS C   4     -35.784  28.548 -26.387  1.00 61.43 LIG 0.04  C 
BRANCH 24 25
ATOM     25  CG  LYS C   4     -35.895  28.052 -27.820  1.00 66.58 LIG 0.00  C 
BRANCH 25 26
ATOM     26  CD  LYS C   4     -37.137  27.190 -28.002  1.00 73.00 LIG 0.03  C 
BRANCH 26 27
ATOM     27  CE  LYS C   4     -37.766  27.389 -29.371  1.00 75.18 LIG 0.23  C 
BRANCH 27 28
ATOM     28  NZ  LYS C   4     -37.572  26.199 -30.247  1.00 76.64 LIG-0.08  N 
ATOM     29 HZ3  LYS C   4     -37.707  25.458 -29.774  1.00 76.64 LIG 0.27  HD
ATOM     30 HZ2  LYS C   4     -36.742  26.199 -30.568  1.00 76.64 LIG 0.27  HD
ATOM     31 HZ1  LYS C   4     -38.151  26.230 -30.922  1.00 76.64 LIG 0.27  HD
ENDBRANCH 27 28
ENDBRANCH 26 27
ENDBRANCH 25 26
ENDBRANCH 24 25
ENDBRANCH 1 24
BRANCH 1 32
ATOM     32  C   LYS C   4     -35.134  27.324 -24.292  1.00 57.21 LIG 0.24  C 
ATOM     33  N   ASN C   5     -34.405  26.334 -23.787  1.00 57.25 LIG-0.35  N 
ATOM     34 H    ASN C   5     -33.682  26.038 -24.147  1.00 57.25 LIG 0.16  HD
ATOM     35 O    LYS C   4     -36.167  27.737 -23.760  1.00 57.68 LIG-0.27  OA
BRANCH 33 36
ATOM     36  CA  ASN C   5     -34.782  25.658 -22.552  1.00 58.26 LIG 0.18  C 
BRANCH 36 37
ATOM     37  CB  ASN C   5     -34.089  24.298 -22.460  1.00 53.49 LIG 0.14  C 
BRANCH 37 38
ATOM     38  CG  ASN C   5     -34.458  23.541 -21.199  1.00 47.90 LIG 0.22  C 
ATOM     39 OD1  ASN C   5     -34.217  24.010 -20.086  1.00 45.37 LIG-0.27  OA
ATOM     40  ND2 ASN C   5     -35.045  22.362 -21.366  1.00 45.09 LIG-0.37  N 
ATOM     41 22HD ASN C   5     -35.197  22.066 -22.159  1.00 45.09 LIG 0.16  HD
ATOM     42 21HD ASN C   5     -35.272  21.894 -20.681  1.00 45.09 LIG 0.16  HD
ENDBRANCH 37 38
ENDBRANCH 36 37
BRANCH 36 43
ATOM     43  C   ASN C   5     -34.440  26.495 -21.325  1.00 62.82 LIG 0.24  C 
ATOM     44 O    ASN C   5     -33.323  27.015 -21.216  1.00 59.04 LIG-0.27  OA
ATOM     45  N   PRO C   6     -35.395  26.623 -20.410  1.00 69.97 LIG-0.34  N 
ATOM     46  CA  PRO C   6     -35.188  27.403 -19.185  1.00 73.90 LIG 0.18  C 
ATOM     47  CD  PRO C   6     -36.777  26.127 -20.527  1.00 74.49 LIG 0.13  C 
ATOM     48  CB  PRO C   6     -36.437  27.091 -18.360  1.00 75.59 LIG 0.04  C 
ATOM     49  CG  PRO C   6     -37.485  26.773 -19.370  1.00 76.33 LIG 0.02  C 
BRANCH 46 50
ATOM     50  C   PRO C   6     -33.933  26.975 -18.430  1.00 72.73 LIG 0.24  C 
ATOM     51 O    PRO C   6     -32.859  27.536 -18.652  1.00 74.17 LIG-0.27  OA
ATOM     52  N   ILE C   7     -34.073  25.990 -17.550  1.00 69.55 LIG-0.35  N 
ATOM     53 H    ILE C   7     -34.819  25.592 -17.389  1.00 69.55 LIG 0.16  HD
BRANCH 52 54
ATOM     54  CA  ILE C   7     -32.946  25.495 -16.768  1.00 67.58 LIG 0.17  C 
BRANCH 54 55
ATOM     55  CB  ILE C   7     -32.133  26.654 -16.164  1.00 70.68 LIG 0.01  C 
ATOM     56  CG2 ILE C   7     -32.846  27.224 -14.948  1.00 70.33 LIG 0.01  C 
BRANCH 55 57
ATOM     57  CG1 ILE C   7     -30.730  26.175 -15.783  1.00 72.59 LIG 0.00  C 
ATOM     58  CD1 ILE C   7     -29.708  26.351 -16.884  1.00 73.15 LIG 0.01  C 
ENDBRANCH 55 57
ENDBRANCH 54 55
BRANCH 54 59
ATOM     59  C   ILE C   7     -33.427  24.590 -15.639  1.00 63.70 LIG 0.22  C 
ATOM     60 O    ILE C   7     -34.629  24.453 -15.410  1.00 60.54 LIG-0.29  OA
ENDBRANCH 54 59
ENDBRANCH 52 54
ENDBRANCH 46 50
ENDBRANCH 36 43
ENDBRANCH 33 36
ENDBRANCH 1 32
TORSDOF 24
ENDMDL
MODEL 6
USER: ADFR SOLUTION from run 43
USER: SCORE 18.276889 LL:  -4.936 LR: -14.742 RR:   0.000 FEB:  -7.583
USER: RMSD 5.341776
USER: SEED 42
USER: STATUS 1 or 2 clusters left
USER: GENES 26
USER: genes 0 Translation |==|  0.46308 0.47342 0.53235
USER: genes 1 Rotation |==|  0.94682 0.60880 0.57685 0.68057
USER: genes 2 Torsion [CB]-CA--N-[C] |==|  0.22121
USER: genes 3 Torsion [N]-C--CA-[N] |==|  0.84444
USER: genes 4 Torsion [C]-CA--N-[C] |==|  0.59644
USER: genes 5 Torsion [N]-C--CA-[N] |==|  0.38746
USER: genes 6 Torsion [C]-CA--CB-[CG] |==|  0.27420
USER: genes 7 Torsion [CA]-CB--CG-[CD] |==|  0.86123
USER: genes 8 Torsion [CB]-CG--CD-[OE1] |==|  0.25453
USER: genes 9 Torsion [C]-CA--CB-[CG2] |==|  0.09834
USER: genes 10 Torsion [CA]-CB--CG1-[CD1] |==|  0.63437
USER: genes 11 Torsion [N]-CA--CB-[CG] |==|  0.18406
USER: genes 12 Torsion [CA]-CB--CG-[CD] |==|  0.49107
USER: genes 13 Torsion [CB]-CG--CD-[CE] |==|  0.10286
USER: genes 14 Torsion [CG]-CD--CE-[NZ] |==|  0.17849
USER: genes 15 Torsion [CD]-CE--NZ-[HZ1] |==|  0.32187
USER: genes 16 Torsion [N]-CA--C-[N] |==|  0.96318
USER: genes 17 Torsion [C]-N--CA-[C] |==|  0.70146
USER: genes 18 Torsion [N]-CA--CB-[CG] |==|  0.82851
USER: genes 19 Torsion [CA]-CB--CG-[OD1] |==|  0.88815
USER: genes 20 Torsion [N]-CA--C-[N] |==|  0.36633
USER: genes 21 Torsion [N]-CA--C-[O] |==|  0.40542
USER: genes 22 Torsion [C]-N--CA-[C] |==|  0.15277
USER: genes 23 Torsion [N]-CA--CB-[CG2] |==|  0.39656
USER: genes 24 Torsion [CA]-CB--CG1-[CD1] |==|  0.08929
USER: genes 25 Torsion [N]-CA--C-[O] |==|  0.16175
ROOT
ATOM      1  CA  LYS C   4     -38.430  26.076 -21.528  1.00 55.66 LIG 0.18  C 
ENDROOT
BRANCH 1 2
ATOM      2  N   LYS C   4     -38.678  25.482 -22.837  1.00 52.22 LIG-0.35  N 
ATOM      3  C   ILE C   3     -39.851  25.582 -23.457  1.00 49.48 LIG 0.24  C 
ATOM      4 O    ILE C   3     -40.827  26.152 -22.968  1.00 46.52 LIG-0.27  OA
ATOM      5 H    LYS C   4     -38.001  25.067 -23.166  1.00 52.22 LIG 0.16  HD
BRANCH 3 6
ATOM      6  CA  ILE C   3     -39.935  24.928 -24.833  1.00 52.28 LIG 0.18  C 
BRANCH 6 7
ATOM      7  N   ILE C   3     -38.899  25.457 -25.711  1.00 58.50 LIG-0.34  N 
ATOM      8 H    ILE C   3     -38.158  25.646 -25.315  1.00 58.50 LIG 0.16  HD
ATOM      9  C   GLN C   2     -39.110  25.622 -27.014  1.00 66.26 LIG 0.26  C 
ATOM     10 O    GLN C   2     -40.179  25.346 -27.556  1.00 73.27 LIG-0.27  OA
BRANCH 9 11
ATOM     11  CA  GLN C   2     -37.947  26.185 -27.824  1.00 65.71 LIG 0.40  C 
ATOM     12  N   GLN C   2     -37.838  25.506 -29.110  1.00 61.11 LIG 0.61  N 
BRANCH 11 13
ATOM     13  CB  GLN C   2     -38.128  27.692 -28.025  1.00 69.09 LIG 0.06  C 
BRANCH 13 14
ATOM     14  CG  GLN C   2     -37.325  28.554 -27.053  1.00 69.91 LIG 0.10  C 
BRANCH 14 15
ATOM     15  CD  GLN C   2     -37.509  28.138 -25.606  1.00 70.47 LIG 0.21  C 
ATOM     16 OE1  GLN C   2     -36.751  27.324 -25.081  1.00 73.69 LIG-0.27  OA
ATOM     17  NE2 GLN C   2     -38.522  28.698 -24.953  1.00 67.69 LIG-0.37  N 
ATOM     18 21HE GLN C   2     -39.031  29.263 -25.353  1.00 67.69 LIG 0.16  HD
ATOM     19 22HE GLN C   2     -38.668  28.495 -24.130  1.00 67.69 LIG 0.16  HD
ENDBRANCH 14 15
ENDBRANCH 13 14
ENDBRANCH 11 13
ENDBRANCH 9 11
ENDBRANCH 6 7
BRANCH 6 20
ATOM     20  CB  ILE C   3     -39.828  23.397 -24.685  1.00 50.18 LIG 0.01  C 
ATOM     21  CG2 ILE C   3     -40.520  22.934 -23.398  1.00 50.82 LIG 0.01  C 
BRANCH 20 22
ATOM     22  CG1 ILE C   3     -40.429  22.709 -25.916  1.00 50.01 LIG 0.00  C 
ATOM     23  CD1 ILE C   3     -41.398  21.589 -25.599  1.00 50.06 LIG 0.01  C 
ENDBRANCH 20 22
ENDBRANCH 6 20
ENDBRANCH 3 6
ENDBRANCH 1 2
BRANCH 1 24
ATOM     24  CB  LYS C   4     -39.011  25.190 -20.424  1.00 61.43 LIG 0.04  C 
BRANCH 24 25
ATOM     25  CG  LYS C   4     -38.333  23.838 -20.275  1.00 66.58 LIG 0.00  C 
BRANCH 25 26
ATOM     26  CD  LYS C   4     -38.921  23.060 -19.106  1.00 73.00 LIG 0.03  C 
BRANCH 26 27
ATOM     27  CE  LYS C   4     -40.420  23.279 -18.980  1.00 75.18 LIG 0.23  C 
BRANCH 27 28
ATOM     28  NZ  LYS C   4     -41.157  22.750 -20.162  1.00 76.64 LIG-0.08  N 
ATOM     29 HZ3  LYS C   4     -40.575  22.449 -20.765  1.00 76.64 LIG 0.27  HD
ATOM     30 HZ2  LYS C   4     -41.647  23.400 -20.522  1.00 76.64 LIG 0.27  HD
ATOM     31 HZ1  LYS C   4     -41.689  22.084 -19.907  1.00 76.64 LIG 0.27  HD
ENDBRANCH 27 28
ENDBRANCH 26 27
ENDBRANCH 25 26
ENDBRANCH 24 25
ENDBRANCH 1 24
BRANCH 1 32
ATOM     32  C   LYS C   4     -36.932  26.278 -21.322  1.00 57.21 LIG 0.24  C 
ATOM     33  N   ASN C   5     -36.131  25.660 -22.184  1.00 57.25 LIG-0.35  N 
ATOM     34 H    ASN C   5     -36.411  25.169 -22.832  1.00 57.25 LIG 0.16  HD
ATOM     35 O    LYS C   4     -36.513  26.980 -20.399  1.00 57.68 LIG-0.27  OA
BRANCH 33 36
ATOM     36  CA  ASN C   5     -34.680  25.769 -22.095  1.00 58.26 LIG 0.18  C 
BRANCH 36 37
ATOM     37  CB  ASN C   5     -34.041  24.381 -22.150  1.00 53.49 LIG 0.14  C 
BRANCH 37 38
ATOM     38  CG  ASN C   5     -34.468  23.497 -20.994  1.00 47.90 LIG 0.22  C 
ATOM     39 OD1  ASN C   5     -34.578  23.953 -19.856  1.00 45.37 LIG-0.27  OA
ATOM     40  ND2 ASN C   5     -34.709  22.223 -21.281  1.00 45.09 LIG-0.37  N 
ATOM     41 22HD ASN C   5     -34.621  21.940 -22.088  1.00 45.09 LIG 0.16  HD
ATOM     42 21HD ASN C   5     -34.954  21.682 -20.659  1.00 45.09 LIG 0.16  HD
ENDBRANCH 37 38
ENDBRANCH 36 37
BRANCH 36 43
ATOM     43  C   ASN C   5     -34.113  26.643 -23.207  1.00 62.82 LIG 0.24  C 
ATOM     44 O    ASN C   5     -34.462  26.466 -24.380  1.00 59.04 LIG-0.27  OA
ATOM     45  N   PRO C   6     -33.245  27.580 -22.840  1.00 69.97 LIG-0.34  N 
ATOM     46  CA  PRO C   6     -32.628  28.484 -23.817  1.00 73.90 LIG 0.18  C 
ATOM     47  CD  PRO C   6     -32.871  27.918 -21.456  1.00 74.49 LIG 0.13  C 
ATOM     48  CB  PRO C   6     -31.568  29.216 -22.992  1.00 75.59 LIG 0.04  C 
ATOM     49  CG  PRO C   6     -32.098  29.199 -21.600  1.00 76.33 LIG 0.02  C 
BRANCH 46 50
ATOM     50  C   PRO C   6     -31.976  27.731 -24.973  1.00 72.73 LIG 0.24  C 
ATOM     51 O    PRO C   6     -31.979  28.216 -26.105  1.00 74.17 LIG-0.27  OA
ATOM     52  N   ILE C   7     -31.425  26.557 -24.684  1.00 69.55 LIG-0.35  N 
ATOM     53 H    ILE C   7     -31.420  26.210 -23.897  1.00 69.55 LIG 0.16  HD
BRANCH 52 54
ATOM     54  CA  ILE C   7     -30.772  25.746 -25.704  1.00 67.58 LIG 0.17  C 
BRANCH 54 55
ATOM     55  CB  ILE C   7     -31.783  25.239 -26.749  1.00 70.68 LIG 0.01  C 
ATOM     56  CG2 ILE C   7     -31.158  25.241 -28.135  1.00 70.33 LIG 0.01  C 
BRANCH 55 57
ATOM     57  CG1 ILE C   7     -32.265  23.834 -26.383  1.00 72.59 LIG 0.00  C 
ATOM     58  CD1 ILE C   7     -32.322  23.580 -24.892  1.00 73.15 LIG 0.01  C 
ENDBRANCH 55 57
ENDBRANCH 54 55
BRANCH 54 59
ATOM     59  C   ILE C   7     -29.687  26.545 -26.417  1.00 63.70 LIG 0.22  C 
ATOM     60 O    ILE C   7     -28.752  27.040 -25.788  1.00 60.54 LIG-0.29  OA
ENDBRANCH 54 59
ENDBRANCH 52 54
ENDBRANCH 46 50
ENDBRANCH 36 43
ENDBRANCH 33 36
ENDBRANCH 1 32
TORSDOF 24
ENDMDL
MODEL 7
USER: ADFR SOLUTION from run 168
USER: SCORE 18.534296 LL:  -4.514 LR: -14.626 RR:   0.000 FEB:  -7.467
USER: RMSD 5.239131
USER: SEED 167
USER: STATUS 1 or 2 clusters left
USER: GENES 26
USER: genes 0 Translation |==|  0.41144 0.41450 0.37048
USER: genes 1 Rotation |==|  0.41774 0.21169 0.45865 0.89800
USER: genes 2 Torsion [CB]-CA--N-[C] |==|  0.85548
USER: genes 3 Torsion [N]-C--CA-[N] |==|  0.90071
USER: genes 4 Torsion [C]-CA--N-[C] |==|  0.83948
USER: genes 5 Torsion [N]-C--CA-[N] |==|  0.45153
USER: genes 6 Torsion [C]-CA--CB-[CG] |==|  0.18380
USER: genes 7 Torsion [CA]-CB--CG-[CD] |==|  0.66022
USER: genes 8 Torsion [CB]-CG--CD-[OE1] |==|  0.99189
USER: genes 9 Torsion [C]-CA--CB-[CG2] |==|  0.41465
USER: genes 10 Torsion [CA]-CB--CG1-[CD1] |==|  0.29505
USER: genes 11 Torsion [N]-CA--CB-[CG] |==|  0.85529
USER: genes 12 Torsion [CA]-CB--CG-[CD] |==|  0.64452
USER: genes 13 Torsion [CB]-CG--CD-[CE] |==|  0.73132
USER: genes 14 Torsion [CG]-CD--CE-[NZ] |==|  0.63334
USER: genes 15 Torsion [CD]-CE--NZ-[HZ1] |==|  0.99008
USER: genes 16 Torsion [N]-CA--C-[N] |==|  0.35067
USER: genes 17 Torsion [C]-N--CA-[C] |==|  0.65684
USER: genes 18 Torsion [N]-CA--CB-[CG] |==|  0.85595
USER: genes 19 Torsion [CA]-CB--CG-[OD1] |==|  0.82735
USER: genes 20 Torsion [N]-CA--C-[N] |==|  0.82670
USER: genes 21 Torsion [N]-CA--C-[O] |==|  0.26859
USER: genes 22 Torsion [C]-N--CA-[C] |==|  0.77011
USER: genes 23 Torsion [N]-CA--CB-[CG2] |==|  0.70164
USER: genes 24 Torsion [CA]-CB--CG1-[CD1] |==|  0.71367
USER: genes 25 Torsion [N]-CA--C-[O] |==|  0.99432
ROOT
ATOM      1  CA  LYS C   4     -39.631  24.971 -24.685  1.00 55.66 LIG 0.18  C 
ENDROOT
BRANCH 1 2
ATOM      2  N   LYS C   4     -41.060  24.763 -24.887  1.00 52.22 LIG-0.35  N 
ATOM      3  C   ILE C   3     -41.910  25.771 -25.069  1.00 49.48 LIG 0.24  C 
ATOM      4 O    ILE C   3     -41.569  26.953 -25.050  1.00 46.52 LIG-0.27  OA
ATOM      5 H    LYS C   4     -41.298  23.937 -24.878  1.00 52.22 LIG 0.16  HD
BRANCH 3 6
ATOM      6  CA  ILE C   3     -43.368  25.380 -25.295  1.00 52.28 LIG 0.18  C 
BRANCH 6 7
ATOM      7  N   ILE C   3     -43.450  24.147 -26.068  1.00 58.50 LIG-0.34  N 
ATOM      8 H    ILE C   3     -43.879  23.510 -25.680  1.00 58.50 LIG 0.16  HD
ATOM      9  C   GLN C   2     -42.896  24.045 -27.273  1.00 66.26 LIG 0.26  C 
ATOM     10 O    GLN C   2     -42.284  24.970 -27.805  1.00 73.27 LIG-0.27  OA
BRANCH 9 11
ATOM     11  CA  GLN C   2     -43.049  22.702 -27.979  1.00 65.71 LIG 0.40  C 
ATOM     12  N   GLN C   2     -42.779  22.836 -29.406  1.00 61.11 LIG 0.61  N 
BRANCH 11 13
ATOM     13  CB  GLN C   2     -42.113  21.668 -27.350  1.00 69.09 LIG 0.06  C 
BRANCH 13 14
ATOM     14  CG  GLN C   2     -42.460  21.304 -25.907  1.00 69.91 LIG 0.10  C 
BRANCH 14 15
ATOM     15  CD  GLN C   2     -41.317  21.558 -24.944  1.00 70.47 LIG 0.21  C 
ATOM     16 OE1  GLN C   2     -40.227  21.961 -25.348  1.00 73.69 LIG-0.27  OA
ATOM     17  NE2 GLN C   2     -41.563  21.325 -23.659  1.00 67.69 LIG-0.37  N 
ATOM     18 21HE GLN C   2     -42.338  21.044 -23.414  1.00 67.69 LIG 0.16  HD
ATOM     19 22HE GLN C   2     -40.947  21.455 -23.073  1.00 67.69 LIG 0.16  HD
ENDBRANCH 14 15
ENDBRANCH 13 14
ENDBRANCH 11 13
ENDBRANCH 9 11
ENDBRANCH 6 7
BRANCH 6 20
ATOM     20  CB  ILE C   3     -44.083  25.246 -23.935  1.00 50.18 LIG 0.01  C 
ATOM     21  CG2 ILE C   3     -45.566  25.612 -24.072  1.00 50.82 LIG 0.01  C 
BRANCH 20 22
ATOM     22  CG1 ILE C   3     -43.912  23.823 -23.392  1.00 50.01 LIG 0.00  C 
ATOM     23  CD1 ILE C   3     -42.939  23.704 -22.238  1.00 50.06 LIG 0.01  C 
ENDBRANCH 20 22
ENDBRANCH 6 20
ENDBRANCH 3 6
ENDBRANCH 1 2
BRANCH 1 24
ATOM     24  CB  LYS C   4     -39.059  25.859 -25.792  1.00 61.43 LIG 0.04  C 
BRANCH 24 25
ATOM     25  CG  LYS C   4     -39.379  25.394 -27.203  1.00 66.58 LIG 0.00  C 
BRANCH 25 26
ATOM     26  CD  LYS C   4     -38.113  25.293 -28.042  1.00 73.00 LIG 0.03  C 
BRANCH 26 27
ATOM     27  CE  LYS C   4     -37.894  26.539 -28.886  1.00 75.18 LIG 0.23  C 
BRANCH 27 28
ATOM     28  NZ  LYS C   4     -37.579  26.199 -30.302  1.00 76.64 LIG-0.08  N 
ATOM     29 HZ3  LYS C   4     -36.802  26.567 -30.530  1.00 76.64 LIG 0.27  HD
ATOM     30 HZ2  LYS C   4     -38.222  26.512 -30.832  1.00 76.64 LIG 0.27  HD
ATOM     31 HZ1  LYS C   4     -37.525  25.315 -30.390  1.00 76.64 LIG 0.27  HD
ENDBRANCH 27 28
ENDBRANCH 26 27
ENDBRANCH 25 26
ENDBRANCH 24 25
ENDBRANCH 1 24
BRANCH 1 32
ATOM     32  C   LYS C   4     -39.383  25.595 -23.314  1.00 57.21 LIG 0.24  C 
ATOM     33  N   ASN C   5     -38.522  24.959 -22.526  1.00 57.25 LIG-0.35  N 
ATOM     34 H    ASN C   5     -38.110  24.237 -22.748  1.00 57.25 LIG 0.16  HD
ATOM     35 O    LYS C   4     -39.962  26.630 -22.980  1.00 57.68 LIG-0.27  OA
BRANCH 33 36
ATOM     36  CA  ASN C   5     -38.200  25.449 -21.192  1.00 58.26 LIG 0.18  C 
BRANCH 36 37
ATOM     37  CB  ASN C   5     -38.695  24.464 -20.132  1.00 53.49 LIG 0.14  C 
BRANCH 37 38
ATOM     38  CG  ASN C   5     -40.156  24.101 -20.312  1.00 47.90 LIG 0.22  C 
ATOM     39 OD1  ASN C   5     -41.035  24.960 -20.232  1.00 45.37 LIG-0.27  OA
ATOM     40  ND2 ASN C   5     -40.424  22.824 -20.556  1.00 45.09 LIG-0.37  N 
ATOM     41 22HD ASN C   5     -39.784  22.252 -20.605  1.00 45.09 LIG 0.16  HD
ATOM     42 21HD ASN C   5     -41.238  22.569 -20.665  1.00 45.09 LIG 0.16  HD
ENDBRANCH 37 38
ENDBRANCH 36 37
BRANCH 36 43
ATOM     43  C   ASN C   5     -36.702  25.677 -21.023  1.00 62.82 LIG 0.24  C 
ATOM     44 O    ASN C   5     -36.265  26.810 -20.790  1.00 59.04 LIG-0.27  OA
ATOM     45  N   PRO C   6     -35.923  24.607 -21.140  1.00 69.97 LIG-0.34  N 
ATOM     46  CA  PRO C   6     -34.465  24.696 -20.998  1.00 73.90 LIG 0.18  C 
ATOM     47  CD  PRO C   6     -36.382  23.217 -21.304  1.00 74.49 LIG 0.13  C 
ATOM     48  CB  PRO C   6     -33.990  23.305 -21.420  1.00 75.59 LIG 0.04  C 
ATOM     49  CG  PRO C   6     -35.133  22.405 -21.102  1.00 76.33 LIG 0.02  C 
BRANCH 46 50
ATOM     50  C   PRO C   6     -33.859  25.763 -21.906  1.00 72.73 LIG 0.24  C 
ATOM     51 O    PRO C   6     -33.620  26.886 -21.463  1.00 74.17 LIG-0.27  OA
ATOM     52  N   ILE C   7     -33.619  25.408 -23.164  1.00 69.55 LIG-0.35  N 
ATOM     53 H    ILE C   7     -33.784  24.626 -23.483  1.00 69.55 LIG 0.16  HD
BRANCH 52 54
ATOM     54  CA  ILE C   7     -33.041  26.340 -24.125  1.00 67.58 LIG 0.17  C 
BRANCH 54 55
ATOM     55  CB  ILE C   7     -32.327  25.595 -25.267  1.00 70.68 LIG 0.01  C 
ATOM     56  CG2 ILE C   7     -30.818  25.730 -25.125  1.00 70.33 LIG 0.01  C 
BRANCH 55 57
ATOM     57  CG1 ILE C   7     -32.731  24.120 -25.272  1.00 72.59 LIG 0.00  C 
ATOM     58  CD1 ILE C   7     -31.679  23.199 -24.694  1.00 73.15 LIG 0.01  C 
ENDBRANCH 55 57
ENDBRANCH 54 55
BRANCH 54 59
ATOM     59  C   ILE C   7     -34.120  27.238 -24.722  1.00 63.70 LIG 0.22  C 
ATOM     60 O    ILE C   7     -35.302  27.097 -24.409  1.00 60.54 LIG-0.29  OA
ENDBRANCH 54 59
ENDBRANCH 52 54
ENDBRANCH 46 50
ENDBRANCH 36 43
ENDBRANCH 33 36
ENDBRANCH 1 32
TORSDOF 24
ENDMDL
MODEL 8
USER: ADFR SOLUTION from run 164
USER: SCORE 18.085984 LL:  -4.526 LR: -14.484 RR:   0.000 FEB:  -7.325
USER: RMSD 4.857239
USER: SEED 163
USER: STATUS searching
USER: GENES 26
USER: genes 0 Translation |==|  0.43581 0.45518 0.32890
USER: genes 1 Rotation |==|  0.42436 0.42952 0.66682 0.95987
USER: genes 2 Torsion [CB]-CA--N-[C] |==|  0.19357
USER: genes 3 Torsion [N]-C--CA-[N] |==|  0.93916
USER: genes 4 Torsion [C]-CA--N-[C] |==|  0.80235
USER: genes 5 Torsion [N]-C--CA-[N] |==|  0.28847
USER: genes 6 Torsion [C]-CA--CB-[CG] |==|  0.69240
USER: genes 7 Torsion [CA]-CB--CG-[CD] |==|  0.24216
USER: genes 8 Torsion [CB]-CG--CD-[OE1] |==|  0.52510
USER: genes 9 Torsion [C]-CA--CB-[CG2] |==|  0.83513
USER: genes 10 Torsion [CA]-CB--CG1-[CD1] |==|  0.14729
USER: genes 11 Torsion [N]-CA--CB-[CG] |==|  0.69878
USER: genes 12 Torsion [CA]-CB--CG-[CD] |==|  0.90442
USER: genes 13 Torsion [CB]-CG--CD-[CE] |==|  0.80318
USER: genes 14 Torsion [CG]-CD--CE-[NZ] |==|  0.68535
USER: genes 15 Torsion [CD]-CE--NZ-[HZ1] |==|  0.96641
USER: genes 16 Torsion [N]-CA--C-[N] |==|  0.19998
USER: genes 17 Torsion [C]-N--CA-[C] |==|  0.64930
USER: genes 18 Torsion [N]-CA--CB-[CG] |==|  0.29402
USER: genes 19 Torsion [CA]-CB--CG-[OD1] |==|  0.85263
USER: genes 20 Torsion [N]-CA--C-[N] |==|  0.46936
USER: genes 21 Torsion [N]-CA--C-[O] |==|  0.75139
USER: genes 22 Torsion [C]-N--CA-[C] |==|  0.72624
USER: genes 23 Torsion [N]-CA--CB-[CG2] |==|  0.76442
USER: genes 24 Torsion [CA]-CB--CG1-[CD1] |==|  0.30913
USER: genes 25 Torsion [N]-CA--C-[O] |==|  0.32727
ROOT
ATOM      1  CA  LYS C   4     -39.064  25.734 -25.495  1.00 55.66 LIG 0.18  C 
ENDROOT
BRANCH 1 2
ATOM      2  N   LYS C   4     -39.611  25.056 -24.326  1.00 52.22 LIG-0.35  N 
ATOM      3  C   ILE C   3     -40.027  23.793 -24.361  1.00 49.48 LIG 0.24  C 
ATOM      4 O    ILE C   3     -40.014  23.106 -25.382  1.00 46.52 LIG-0.27  OA
ATOM      5 H    LYS C   4     -39.639  25.545 -23.619  1.00 52.22 LIG 0.16  HD
BRANCH 3 6
ATOM      6  CA  ILE C   3     -40.547  23.225 -23.042  1.00 52.28 LIG 0.18  C 
BRANCH 6 7
ATOM      7  N   ILE C   3     -40.018  23.988 -21.918  1.00 58.50 LIG-0.34  N 
ATOM      8 H    ILE C   3     -40.599  24.480 -21.516  1.00 58.50 LIG 0.16  HD
ATOM      9  C   GLN C   2     -38.739  23.908 -21.565  1.00 66.26 LIG 0.26  C 
ATOM     10 O    GLN C   2     -37.927  23.199 -22.158  1.00 73.27 LIG-0.27  OA
BRANCH 9 11
ATOM     11  CA  GLN C   2     -38.309  24.757 -20.373  1.00 65.71 LIG 0.40  C 
ATOM     12  N   GLN C   2     -38.145  23.930 -19.184  1.00 61.11 LIG 0.61  N 
BRANCH 11 13
ATOM     13  CB  GLN C   2     -37.008  25.497 -20.696  1.00 69.09 LIG 0.06  C 
BRANCH 13 14
ATOM     14  CG  GLN C   2     -35.794  25.001 -19.914  1.00 69.91 LIG 0.10  C 
BRANCH 14 15
ATOM     15  CD  GLN C   2     -35.091  23.840 -20.590  1.00 70.47 LIG 0.21  C 
ATOM     16 OE1  GLN C   2     -34.198  23.218 -20.015  1.00 73.69 LIG-0.27  OA
ATOM     17  NE2 GLN C   2     -35.493  23.540 -21.821  1.00 67.69 LIG-0.37  N 
ATOM     18 21HE GLN C   2     -36.120  23.997 -22.191  1.00 67.69 LIG 0.16  HD
ATOM     19 22HE GLN C   2     -35.126  22.889 -22.247  1.00 67.69 LIG 0.16  HD
ENDBRANCH 14 15
ENDBRANCH 13 14
ENDBRANCH 11 13
ENDBRANCH 9 11
ENDBRANCH 6 7
BRANCH 6 20
ATOM     20  CB  ILE C   3     -42.089  23.223 -23.053  1.00 50.18 LIG 0.01  C 
ATOM     21  CG2 ILE C   3     -42.624  24.647 -23.243  1.00 50.82 LIG 0.01  C 
BRANCH 20 22
ATOM     22  CG1 ILE C   3     -42.603  22.287 -24.152  1.00 50.01 LIG 0.00  C 
ATOM     23  CD1 ILE C   3     -42.037  20.883 -24.098  1.00 50.06 LIG 0.01  C 
ENDBRANCH 20 22
ENDBRANCH 6 20
ENDBRANCH 3 6
ENDBRANCH 1 2
BRANCH 1 24
ATOM     24  CB  LYS C   4     -40.164  25.984 -26.529  1.00 61.43 LIG 0.04  C 
BRANCH 24 25
ATOM     25  CG  LYS C   4     -40.071  25.116 -27.774  1.00 66.58 LIG 0.00  C 
BRANCH 25 26
ATOM     26  CD  LYS C   4     -38.618  24.845 -28.140  1.00 73.00 LIG 0.03  C 
BRANCH 26 27
ATOM     27  CE  LYS C   4     -37.930  26.090 -28.675  1.00 75.18 LIG 0.23  C 
BRANCH 27 28
ATOM     28  NZ  LYS C   4     -37.572  25.949 -30.114  1.00 76.64 LIG-0.08  N 
ATOM     29 HZ3  LYS C   4     -36.727  26.200 -30.236  1.00 76.64 LIG 0.27  HD
ATOM     30 HZ2  LYS C   4     -38.108  26.462 -30.606  1.00 76.64 LIG 0.27  HD
ATOM     31 HZ1  LYS C   4     -37.666  25.099 -30.361  1.00 76.64 LIG 0.27  HD
ENDBRANCH 27 28
ENDBRANCH 26 27
ENDBRANCH 25 26
ENDBRANCH 24 25
ENDBRANCH 1 24
BRANCH 1 32
ATOM     32  C   LYS C   4     -38.410  27.048 -25.079  1.00 57.21 LIG 0.24  C 
ATOM     33  N   ASN C   5     -37.261  26.949 -24.418  1.00 57.25 LIG-0.35  N 
ATOM     34 H    ASN C   5     -36.882  26.202 -24.223  1.00 57.25 LIG 0.16  HD
ATOM     35 O    LYS C   4     -38.938  28.128 -25.352  1.00 57.68 LIG-0.27  OA
BRANCH 33 36
ATOM     36  CA  ASN C   5     -36.537  28.129 -23.961  1.00 58.26 LIG 0.18  C 
BRANCH 36 37
ATOM     37  CB  ASN C   5     -36.569  28.212 -22.435  1.00 53.49 LIG 0.14  C 
BRANCH 37 38
ATOM     38  CG  ASN C   5     -35.241  27.844 -21.804  1.00 47.90 LIG 0.22  C 
ATOM     39 OD1  ASN C   5     -34.683  26.780 -22.078  1.00 45.37 LIG-0.27  OA
ATOM     40  ND2 ASN C   5     -34.726  28.722 -20.952  1.00 45.09 LIG-0.37  N 
ATOM     41 22HD ASN C   5     -35.144  29.454 -20.784  1.00 45.09 LIG 0.16  HD
ATOM     42 21HD ASN C   5     -33.974  28.558 -20.567  1.00 45.09 LIG 0.16  HD
ENDBRANCH 37 38
ENDBRANCH 36 37
BRANCH 36 43
ATOM     43  C   ASN C   5     -35.092  28.123 -24.447  1.00 62.82 LIG 0.24  C 
ATOM     44 O    ASN C   5     -34.610  27.108 -24.963  1.00 59.04 LIG-0.27  OA
ATOM     45  N   PRO C   6     -34.408  29.251 -24.282  1.00 69.97 LIG-0.34  N 
ATOM     46  CA  PRO C   6     -33.009  29.373 -24.708  1.00 73.90 LIG 0.18  C 
ATOM     47  CD  PRO C   6     -34.949  30.526 -23.781  1.00 74.49 LIG 0.13  C 
ATOM     48  CB  PRO C   6     -32.588  30.726 -24.133  1.00 75.59 LIG 0.04  C 
ATOM     49  CG  PRO C   6     -33.851  31.513 -24.059  1.00 76.33 LIG 0.02  C 
BRANCH 46 50
ATOM     50  C   PRO C   6     -32.132  28.259 -24.142  1.00 72.73 LIG 0.24  C 
ATOM     51 O    PRO C   6     -31.577  28.405 -23.053  1.00 74.17 LIG-0.27  OA
ATOM     52  N   ILE C   7     -32.012  27.161 -24.882  1.00 69.55 LIG-0.35  N 
ATOM     53 H    ILE C   7     -32.395  27.052 -25.644  1.00 69.55 LIG 0.16  HD
BRANCH 52 54
ATOM     54  CA  ILE C   7     -31.202  26.030 -24.446  1.00 67.58 LIG 0.17  C 
BRANCH 54 55
ATOM     55  CB  ILE C   7     -31.882  24.692 -24.784  1.00 70.68 LIG 0.01  C 
ATOM     56  CG2 ILE C   7     -32.871  24.310 -23.693  1.00 70.33 LIG 0.01  C 
BRANCH 55 57
ATOM     57  CG1 ILE C   7     -32.592  24.784 -26.136  1.00 72.59 LIG 0.00  C 
ATOM     58  CD1 ILE C   7     -31.948  23.945 -27.219  1.00 73.15 LIG 0.01  C 
ENDBRANCH 55 57
ENDBRANCH 54 55
BRANCH 54 59
ATOM     59  C   ILE C   7     -29.827  26.064 -25.107  1.00 63.70 LIG 0.22  C 
ATOM     60 O    ILE C   7     -28.805  26.174 -24.430  1.00 60.54 LIG-0.29  OA
ENDBRANCH 54 59
ENDBRANCH 52 54
ENDBRANCH 46 50
ENDBRANCH 36 43
ENDBRANCH 33 36
ENDBRANCH 1 32
TORSDOF 24
ENDMDL
MODEL 9
USER: ADFR SOLUTION from run 184
USER: SCORE 17.505498 LL:  -4.606 LR: -14.300 RR:   0.000 FEB:  -7.140
USER: RMSD 9.855526
USER: SEED 183
USER: STATUS 1 or 2 clusters left
USER: GENES 26
USER: genes 0 Translation |==|  0.64038 0.56634 0.32784
USER: genes 1 Rotation |==|  0.75426 0.18479 0.70370 0.71095
USER: genes 2 Torsion [CB]-CA--N-[C] |==|  0.25000
USER: genes 3 Torsion [N]-C--CA-[N] |==|  0.45072
USER: genes 4 Torsion [C]-CA--N-[C] |==|  0.73216
USER: genes 5 Torsion [N]-C--CA-[N] |==|  0.78674
USER: genes 6 Torsion [C]-CA--CB-[CG] |==|  0.12668
USER: genes 7 Torsion [CA]-CB--CG-[CD] |==|  0.68841
USER: genes 8 Torsion [CB]-CG--CD-[OE1] |==|  0.89860
USER: genes 9 Torsion [C]-CA--CB-[CG2] |==|  0.89255
USER: genes 10 Torsion [CA]-CB--CG1-[CD1] |==|  0.63378
USER: genes 11 Torsion [N]-CA--CB-[CG] |==|  0.16961
USER: genes 12 Torsion [CA]-CB--CG-[CD] |==|  0.73629
USER: genes 13 Torsion [CB]-CG--CD-[CE] |==|  0.56735
USER: genes 14 Torsion [CG]-CD--CE-[NZ] |==|  0.64480
USER: genes 15 Torsion [CD]-CE--NZ-[HZ1] |==|  0.23554
USER: genes 16 Torsion [N]-CA--C-[N] |==|  0.15002
USER: genes 17 Torsion [C]-N--CA-[C] |==|  0.80832
USER: genes 18 Torsion [N]-CA--CB-[CG] |==|  0.50300
USER: genes 19 Torsion [CA]-CB--CG-[OD1] |==|  0.79849
USER: genes 20 Torsion [N]-CA--C-[N] |==|  0.36835
USER: genes 21 Torsion [N]-CA--C-[O] |==|  0.25625
USER: genes 22 Torsion [C]-N--CA-[C] |==|  0.15300
USER: genes 23 Torsion [N]-CA--CB-[CG2] |==|  0.30008
USER: genes 24 Torsion [CA]-CB--CG1-[CD1] |==|  0.96296
USER: genes 25 Torsion [N]-CA--C-[O] |==|  0.17334
ROOT
ATOM      1  CA  LYS C   4     -34.308  27.818 -25.516  1.00 55.66 LIG 0.18  C 
ENDROOT
BRANCH 1 2
ATOM      2  N   LYS C   4     -33.749  26.845 -26.448  1.00 52.22 LIG-0.35  N 
ATOM      3  C   ILE C   3     -32.656  27.089 -27.165  1.00 49.48 LIG 0.24  C 
ATOM      4 O    ILE C   3     -32.048  28.159 -27.127  1.00 46.52 LIG-0.27  OA
ATOM      5 H    LYS C   4     -34.188  26.107 -26.488  1.00 52.22 LIG 0.16  HD
BRANCH 3 6
ATOM      6  CA  ILE C   3     -32.186  25.955 -28.072  1.00 52.28 LIG 0.18  C 
BRANCH 6 7
ATOM      7  N   ILE C   3     -31.272  26.461 -29.088  1.00 58.50 LIG-0.34  N 
ATOM      8 H    ILE C   3     -30.455  26.534 -28.828  1.00 58.50 LIG 0.16  HD
ATOM      9  C   GLN C   2     -31.696  26.776 -30.309  1.00 66.26 LIG 0.26  C 
ATOM     10 O    GLN C   2     -32.871  26.665 -30.655  1.00 73.27 LIG-0.27  OA
BRANCH 9 11
ATOM     11  CA  GLN C   2     -30.642  27.297 -31.280  1.00 65.71 LIG 0.40  C 
ATOM     12  N   GLN C   2     -30.309  28.685 -30.984  1.00 61.11 LIG 0.61  N 
BRANCH 11 13
ATOM     13  CB  GLN C   2     -29.390  26.419 -31.218  1.00 69.09 LIG 0.06  C 
BRANCH 13 14
ATOM     14  CG  GLN C   2     -29.675  24.919 -31.234  1.00 69.91 LIG 0.10  C 
BRANCH 14 15
ATOM     15  CD  GLN C   2     -29.333  24.240 -29.922  1.00 70.47 LIG 0.21  C 
ATOM     16 OE1  GLN C   2     -28.355  24.592 -29.264  1.00 73.69 LIG-0.27  OA
ATOM     17  NE2 GLN C   2     -30.141  23.259 -29.534  1.00 67.69 LIG-0.37  N 
ATOM     18 21HE GLN C   2     -30.816  23.041 -30.021  1.00 67.69 LIG 0.16  HD
ATOM     19 22HE GLN C   2     -29.991  22.844 -28.796  1.00 67.69 LIG 0.16  HD
ENDBRANCH 14 15
ENDBRANCH 13 14
ENDBRANCH 11 13
ENDBRANCH 9 11
ENDBRANCH 6 7
BRANCH 6 20
ATOM     20  CB  ILE C   3     -31.532  24.849 -27.219  1.00 50.18 LIG 0.01  C 
ATOM     21  CG2 ILE C   3     -30.704  25.467 -26.087  1.00 50.82 LIG 0.01  C 
BRANCH 20 22
ATOM     22  CG1 ILE C   3     -32.608  23.907 -26.668  1.00 50.01 LIG 0.00  C 
ATOM     23  CD1 ILE C   3     -32.491  23.616 -25.187  1.00 50.06 LIG 0.01  C 
ENDBRANCH 20 22
ENDBRANCH 6 20
ENDBRANCH 3 6
ENDBRANCH 1 2
BRANCH 1 24
ATOM     24  CB  LYS C   4     -35.324  28.714 -26.228  1.00 61.43 LIG 0.04  C 
BRANCH 24 25
ATOM     25  CG  LYS C   4     -36.518  27.975 -26.811  1.00 66.58 LIG 0.00  C 
BRANCH 25 26
ATOM     26  CD  LYS C   4     -36.288  27.645 -28.280  1.00 73.00 LIG 0.03  C 
BRANCH 26 27
ATOM     27  CE  LYS C   4     -37.599  27.466 -29.030  1.00 75.18 LIG 0.23  C 
BRANCH 27 28
ATOM     28  NZ  LYS C   4     -37.636  26.177 -29.776  1.00 76.64 LIG-0.08  N 
ATOM     29 HZ3  LYS C   4     -36.823  25.989 -30.084  1.00 76.64 LIG 0.27  HD
ATOM     30 HZ2  LYS C   4     -38.203  26.246 -30.459  1.00 76.64 LIG 0.27  HD
ATOM     31 HZ1  LYS C   4     -37.905  25.527 -29.232  1.00 76.64 LIG 0.27  HD
ENDBRANCH 27 28
ENDBRANCH 26 27
ENDBRANCH 25 26
ENDBRANCH 24 25
ENDBRANCH 1 24
BRANCH 1 32
ATOM     32  C   LYS C   4     -34.959  27.099 -24.338  1.00 57.21 LIG 0.24  C 
ATOM     33  N   ASN C   5     -34.195  26.228 -23.686  1.00 57.25 LIG-0.35  N 
ATOM     34 H    ASN C   5     -33.377  26.060 -23.890  1.00 57.25 LIG 0.16  HD
ATOM     35 O    LYS C   4     -36.130  27.329 -24.029  1.00 57.68 LIG-0.27  OA
BRANCH 33 36
ATOM     36  CA  ASN C   5     -34.697  25.473 -22.545  1.00 58.26 LIG 0.18  C 
BRANCH 36 37
ATOM     37  CB  ASN C   5     -33.716  24.362 -22.172  1.00 53.49 LIG 0.14  C 
BRANCH 37 38
ATOM     38  CG  ASN C   5     -34.201  23.524 -21.004  1.00 47.90 LIG 0.22  C 
ATOM     39 OD1  ASN C   5     -34.202  23.977 -19.859  1.00 45.37 LIG-0.27  OA
ATOM     40  ND2 ASN C   5     -34.615  22.296 -21.288  1.00 45.09 LIG-0.37  N 
ATOM     41 22HD ASN C   5     -34.600  22.014 -22.100  1.00 45.09 LIG 0.16  HD
ATOM     42 21HD ASN C   5     -34.899  21.782 -20.660  1.00 45.09 LIG 0.16  HD
ENDBRANCH 37 38
ENDBRANCH 36 37
BRANCH 36 43
ATOM     43  C   ASN C   5     -34.940  26.373 -21.339  1.00 62.82 LIG 0.24  C 
ATOM     44 O    ASN C   5     -34.081  27.188 -20.984  1.00 59.04 LIG-0.27  OA
ATOM     45  N   PRO C   6     -36.104  26.224 -20.714  1.00 69.97 LIG-0.34  N 
ATOM     46  CA  PRO C   6     -36.457  27.030 -19.540  1.00 73.90 LIG 0.18  C 
ATOM     47  CD  PRO C   6     -37.213  25.355 -21.146  1.00 74.49 LIG 0.13  C 
ATOM     48  CB  PRO C   6     -37.747  26.376 -19.045  1.00 75.59 LIG 0.04  C 
ATOM     49  CG  PRO C   6     -38.356  25.774 -20.264  1.00 76.33 LIG 0.02  C 
BRANCH 46 50
ATOM     50  C   PRO C   6     -35.384  26.976 -18.456  1.00 72.73 LIG 0.24  C 
ATOM     51 O    PRO C   6     -34.491  27.824 -18.430  1.00 74.17 LIG-0.27  OA
ATOM     52  N   ILE C   7     -35.475  25.984 -17.576  1.00 69.55 LIG-0.35  N 
ATOM     53 H    ILE C   7     -36.094  25.387 -17.588  1.00 69.55 LIG 0.16  HD
BRANCH 52 54
ATOM     54  CA  ILE C   7     -34.509  25.829 -16.496  1.00 67.58 LIG 0.17  C 
BRANCH 54 55
ATOM     55  CB  ILE C   7     -33.111  25.486 -17.040  1.00 70.68 LIG 0.01  C 
ATOM     56  CG2 ILE C   7     -32.176  26.677 -16.890  1.00 70.33 LIG 0.01  C 
BRANCH 55 57
ATOM     57  CG1 ILE C   7     -32.542  24.268 -16.310  1.00 72.59 LIG 0.00  C 
ATOM     58  CD1 ILE C   7     -33.304  23.900 -15.056  1.00 73.15 LIG 0.01  C 
ENDBRANCH 55 57
ENDBRANCH 54 55
BRANCH 54 59
ATOM     59  C   ILE C   7     -34.414  27.106 -15.667  1.00 63.70 LIG 0.22  C 
ATOM     60 O    ILE C   7     -35.391  27.531 -15.050  1.00 60.54 LIG-0.29  OA
ENDBRANCH 54 59
ENDBRANCH 52 54
ENDBRANCH 46 50
ENDBRANCH 36 43
ENDBRANCH 33 36
ENDBRANCH 1 32
TORSDOF 24
ENDMDL
MODEL 10
USER: ADFR SOLUTION from run 126
USER: SCORE 16.823392 LL:  -4.100 LR: -14.268 RR:   0.000 FEB:  -7.109
USER: RMSD 7.577324
USER: SEED 125
USER: STATUS no improvement in best in 7 clusters for 5 generations
USER: GENES 26
USER: genes 0 Translation |==|  0.46540 0.53652 0.27933
USER: genes 1 Rotation |==|  0.61302 0.36739 0.50377 0.96864
USER: genes 2 Torsion [CB]-CA--N-[C] |==|  0.36298
USER: genes 3 Torsion [N]-C--CA-[N] |==|  0.35146
USER: genes 4 Torsion [C]-CA--N-[C] |==|  0.76522
USER: genes 5 Torsion [N]-C--CA-[N] |==|  0.71684
USER: genes 6 Torsion [C]-CA--CB-[CG] |==|  0.46922
USER: genes 7 Torsion [CA]-CB--CG-[CD] |==|  0.40006
USER: genes 8 Torsion [CB]-CG--CD-[OE1] |==|  0.42719
USER: genes 9 Torsion [C]-CA--CB-[CG2] |==|  0.23464
USER: genes 10 Torsion [CA]-CB--CG1-[CD1] |==|  0.62653
USER: genes 11 Torsion [N]-CA--CB-[CG] |==|  0.75872
USER: genes 12 Torsion [CA]-CB--CG-[CD] |==|  0.01814
USER: genes 13 Torsion [CB]-CG--CD-[CE] |==|  0.73743
USER: genes 14 Torsion [CG]-CD--CE-[NZ] |==|  0.46723
USER: genes 15 Torsion [CD]-CE--NZ-[HZ1] |==|  0.76474
USER: genes 16 Torsion [N]-CA--C-[N] |==|  0.92870
USER: genes 17 Torsion [C]-N--CA-[C] |==|  0.63746
USER: genes 18 Torsion [N]-CA--CB-[CG] |==|  0.16948
USER: genes 19 Torsion [CA]-CB--CG-[OD1] |==|  0.23755
USER: genes 20 Torsion [N]-CA--C-[N] |==|  0.35570
USER: genes 21 Torsion [N]-CA--C-[O] |==|  0.81526
USER: genes 22 Torsion [C]-N--CA-[C] |==|  0.70506
USER: genes 23 Torsion [N]-CA--CB-[CG2] |==|  0.99035
USER: genes 24 Torsion [CA]-CB--CG1-[CD1] |==|  0.49449
USER: genes 25 Torsion [N]-CA--C-[O] |==|  0.96515
ROOT
ATOM      1  CA  LYS C   4     -38.376  27.259 -26.462  1.00 55.66 LIG 0.18  C 
ENDROOT
BRANCH 1 2
ATOM      2  N   LYS C   4     -39.427  26.285 -26.189  1.00 52.22 LIG-0.35  N 
ATOM      3  C   ILE C   3     -39.476  25.099 -26.790  1.00 49.48 LIG 0.24  C 
ATOM      4 O    ILE C   3     -38.663  24.739 -27.641  1.00 46.52 LIG-0.27  OA
ATOM      5 H    LYS C   4     -40.005  26.548 -25.610  1.00 52.22 LIG 0.16  HD
BRANCH 3 6
ATOM      6  CA  ILE C   3     -40.625  24.186 -26.370  1.00 52.28 LIG 0.18  C 
BRANCH 6 7
ATOM      7  N   ILE C   3     -41.372  23.739 -27.540  1.00 58.50 LIG-0.34  N 
ATOM      8 H    ILE C   3     -41.131  22.971 -27.845  1.00 58.50 LIG 0.16  HD
ATOM      9  C   GLN C   2     -42.340  24.481 -28.070  1.00 66.26 LIG 0.26  C 
ATOM     10 O    GLN C   2     -42.663  25.578 -27.617  1.00 73.27 LIG-0.27  OA
BRANCH 9 11
ATOM     11  CA  GLN C   2     -43.045  23.904 -29.294  1.00 65.71 LIG 0.40  C 
ATOM     12  N   GLN C   2     -42.557  24.534 -30.514  1.00 61.11 LIG 0.61  N 
BRANCH 11 13
ATOM     13  CB  GLN C   2     -42.840  22.388 -29.352  1.00 69.09 LIG 0.06  C 
BRANCH 13 14
ATOM     14  CG  GLN C   2     -43.718  21.676 -30.379  1.00 69.91 LIG 0.10  C 
BRANCH 14 15
ATOM     15  CD  GLN C   2     -43.015  20.511 -31.049  1.00 70.47 LIG 0.21  C 
ATOM     16 OE1  GLN C   2     -43.654  19.567 -31.511  1.00 73.69 LIG-0.27  OA
ATOM     17  NE2 GLN C   2     -41.689  20.574 -31.106  1.00 67.69 LIG-0.37  N 
ATOM     18 21HE GLN C   2     -41.276  21.251 -30.772  1.00 67.69 LIG 0.16  HD
ATOM     19 22HE GLN C   2     -41.243  19.938 -31.476  1.00 67.69 LIG 0.16  HD
ENDBRANCH 14 15
ENDBRANCH 13 14
ENDBRANCH 11 13
ENDBRANCH 9 11
ENDBRANCH 6 7
BRANCH 6 20
ATOM     20  CB  ILE C   3     -40.071  22.996 -25.562  1.00 50.18 LIG 0.01  C 
ATOM     21  CG2 ILE C   3     -39.904  23.382 -24.088  1.00 50.82 LIG 0.01  C 
BRANCH 20 22
ATOM     22  CG1 ILE C   3     -40.995  21.783 -25.715  1.00 50.01 LIG 0.00  C 
ATOM     23  CD1 ILE C   3     -41.309  21.064 -24.420  1.00 50.06 LIG 0.01  C 
ENDBRANCH 20 22
ENDBRANCH 6 20
ENDBRANCH 3 6
ENDBRANCH 1 2
BRANCH 1 24
ATOM     24  CB  LYS C   4     -38.985  28.633 -26.747  1.00 61.43 LIG 0.04  C 
BRANCH 24 25
ATOM     25  CG  LYS C   4     -39.370  28.865 -28.199  1.00 66.58 LIG 0.00  C 
BRANCH 25 26
ATOM     26  CD  LYS C   4     -39.201  27.592 -29.016  1.00 73.00 LIG 0.03  C 
BRANCH 26 27
ATOM     27  CE  LYS C   4     -37.847  27.538 -29.704  1.00 75.18 LIG 0.23  C 
BRANCH 27 28
ATOM     28  NZ  LYS C   4     -37.566  26.187 -30.266  1.00 76.64 LIG-0.08  N 
ATOM     29 HZ3  LYS C   4     -36.985  26.259 -30.936  1.00 76.64 LIG 0.27  HD
ATOM     30 HZ2  LYS C   4     -38.322  25.827 -30.567  1.00 76.64 LIG 0.27  HD
ATOM     31 HZ1  LYS C   4     -37.221  25.667 -29.631  1.00 76.64 LIG 0.27  HD
ENDBRANCH 27 28
ENDBRANCH 26 27
ENDBRANCH 25 26
ENDBRANCH 24 25
ENDBRANCH 1 24
BRANCH 1 32
ATOM     32  C   LYS C   4     -37.413  27.333 -25.281  1.00 57.21 LIG 0.24  C 
ATOM     33  N   ASN C   5     -37.908  26.988 -24.096  1.00 57.25 LIG-0.35  N 
ATOM     34 H    ASN C   5     -38.719  26.731 -23.971  1.00 57.25 LIG 0.16  HD
ATOM     35 O    LYS C   4     -36.246  27.696 -25.442  1.00 57.68 LIG-0.27  OA
BRANCH 33 36
ATOM     36  CA  ASN C   5     -37.093  27.018 -22.888  1.00 58.26 LIG 0.18  C 
BRANCH 36 37
ATOM     37  CB  ASN C   5     -37.506  28.193 -22.001  1.00 53.49 LIG 0.14  C 
BRANCH 37 38
ATOM     38  CG  ASN C   5     -38.951  28.103 -21.549  1.00 47.90 LIG 0.22  C 
ATOM     39 OD1  ASN C   5     -39.261  27.455 -20.549  1.00 45.37 LIG-0.27  OA
ATOM     40  ND2 ASN C   5     -39.843  28.752 -22.287  1.00 45.09 LIG-0.37  N 
ATOM     41 22HD ASN C   5     -39.589  29.195 -22.979  1.00 45.09 LIG 0.16  HD
ATOM     42 21HD ASN C   5     -40.676  28.731 -22.071  1.00 45.09 LIG 0.16  HD
ENDBRANCH 37 38
ENDBRANCH 36 37
BRANCH 36 43
ATOM     43  C   ASN C   5     -37.204  25.716 -22.103  1.00 62.82 LIG 0.24  C 
ATOM     44 O    ASN C   5     -38.313  25.259 -21.804  1.00 59.04 LIG-0.27  OA
ATOM     45  N   PRO C   6     -36.061  25.125 -21.773  1.00 69.97 LIG-0.34  N 
ATOM     46  CA  PRO C   6     -36.033  23.867 -21.018  1.00 73.90 LIG 0.18  C 
ATOM     47  CD  PRO C   6     -34.714  25.552 -22.191  1.00 74.49 LIG 0.13  C 
ATOM     48  CB  PRO C   6     -34.550  23.691 -20.690  1.00 75.59 LIG 0.04  C 
ATOM     49  CG  PRO C   6     -33.835  24.401 -21.787  1.00 76.33 LIG 0.02  C 
BRANCH 46 50
ATOM     50  C   PRO C   6     -36.856  23.944 -19.735  1.00 72.73 LIG 0.24  C 
ATOM     51 O    PRO C   6     -36.502  24.687 -18.820  1.00 74.17 LIG-0.27  OA
ATOM     52  N   ILE C   7     -37.941  23.178 -19.676  1.00 69.55 LIG-0.35  N 
ATOM     53 H    ILE C   7     -38.195  22.655 -20.310  1.00 69.55 LIG 0.16  HD
BRANCH 52 54
ATOM     54  CA  ILE C   7     -38.806  23.166 -18.503  1.00 67.58 LIG 0.17  C 
BRANCH 54 55
ATOM     55  CB  ILE C   7     -40.288  23.292 -18.899  1.00 70.68 LIG 0.01  C 
ATOM     56  CG2 ILE C   7     -40.420  23.479 -20.403  1.00 70.33 LIG 0.01  C 
BRANCH 55 57
ATOM     57  CG1 ILE C   7     -41.065  22.053 -18.446  1.00 72.59 LIG 0.00  C 
ATOM     58  CD1 ILE C   7     -42.544  22.117 -18.756  1.00 73.15 LIG 0.01  C 
ENDBRANCH 55 57
ENDBRANCH 54 55
BRANCH 54 59
ATOM     59  C   ILE C   7     -38.617  21.880 -17.705  1.00 63.70 LIG 0.22  C 
ATOM     60 O    ILE C   7     -38.001  20.927 -18.182  1.00 60.54 LIG-0.29  OA
ENDBRANCH 54 59
ENDBRANCH 52 54
ENDBRANCH 46 50
ENDBRANCH 36 43
ENDBRANCH 33 36
ENDBRANCH 1 32
TORSDOF 24
ENDMDL
MODEL 11
USER: ADFR SOLUTION from run 41
USER: SCORE 15.407623 LL:  -3.564 LR: -14.208 RR:   0.000 FEB:  -7.049
USER: RMSD 9.358828
USER: SEED 40
USER: STATUS no improvement in best in 10 clusters for 5 generations
USER: GENES 26
USER: genes 0 Translation |==|  0.59564 0.59685 0.27917
USER: genes 1 Rotation |==|  0.72878 0.29348 0.81766 0.73260
USER: genes 2 Torsion [CB]-CA--N-[C] |==|  0.48440
USER: genes 3 Torsion [N]-C--CA-[N] |==|  0.17430
USER: genes 4 Torsion [C]-CA--N-[C] |==|  0.55624
USER: genes 5 Torsion [N]-C--CA-[N] |==|  0.93635
USER: genes 6 Torsion [C]-CA--CB-[CG] |==|  0.10767
USER: genes 7 Torsion [CA]-CB--CG-[CD] |==|  0.39292
USER: genes 8 Torsion [CB]-CG--CD-[OE1] |==|  0.20670
USER: genes 9 Torsion [C]-CA--CB-[CG2] |==|  0.35298
USER: genes 10 Torsion [CA]-CB--CG1-[CD1] |==|  0.39339
USER: genes 11 Torsion [N]-CA--CB-[CG] |==|  0.78707
USER: genes 12 Torsion [CA]-CB--CG-[CD] |==|  0.37962
USER: genes 13 Torsion [CB]-CG--CD-[CE] |==|  0.06230
USER: genes 14 Torsion [CG]-CD--CE-[NZ] |==|  0.68640
USER: genes 15 Torsion [CD]-CE--NZ-[HZ1] |==|  0.85759
USER: genes 16 Torsion [N]-CA--C-[N] |==|  0.46269
USER: genes 17 Torsion [C]-N--CA-[C] |==|  0.15821
USER: genes 18 Torsion [N]-CA--CB-[CG] |==|  0.30402
USER: genes 19 Torsion [CA]-CB--CG-[OD1] |==|  0.26564
USER: genes 20 Torsion [N]-CA--C-[N] |==|  0.48127
USER: genes 21 Torsion [N]-CA--C-[O] |==|  0.40334
USER: genes 22 Torsion [C]-N--CA-[C] |==|  0.77919
USER: genes 23 Torsion [N]-CA--CB-[CG2] |==|  0.47833
USER: genes 24 Torsion [CA]-CB--CG1-[CD1] |==|  0.29546
USER: genes 25 Torsion [N]-CA--C-[O] |==|  0.06106
ROOT
ATOM      1  CA  LYS C   4     -35.348  28.390 -26.465  1.00 55.66 LIG 0.18  C 
ENDROOT
BRANCH 1 2
ATOM      2  N   LYS C   4     -34.425  27.303 -26.770  1.00 52.22 LIG-0.35  N 
ATOM      3  C   ILE C   3     -33.291  27.120 -26.100  1.00 49.48 LIG 0.24  C 
ATOM      4 O    ILE C   3     -32.913  27.864 -25.195  1.00 46.52 LIG-0.27  OA
ATOM      5 H    LYS C   4     -34.681  26.798 -27.417  1.00 52.22 LIG 0.16  HD
BRANCH 3 6
ATOM      6  CA  ILE C   3     -32.451  25.919 -26.527  1.00 52.28 LIG 0.18  C 
BRANCH 6 7
ATOM      7  N   ILE C   3     -32.010  26.072 -27.908  1.00 58.50 LIG-0.34  N 
ATOM      8 H    ILE C   3     -32.027  26.881 -28.200  1.00 58.50 LIG 0.16  HD
ATOM      9  C   GLN C   2     -31.620  25.027 -28.632  1.00 66.26 LIG 0.26  C 
ATOM     10 O    GLN C   2     -31.608  23.878 -28.192  1.00 73.27 LIG-0.27  OA
BRANCH 9 11
ATOM     11  CA  GLN C   2     -31.184  25.318 -30.064  1.00 65.71 LIG 0.40  C 
ATOM     12  N   GLN C   2     -31.769  26.566 -30.538  1.00 61.11 LIG 0.61  N 
BRANCH 11 13
ATOM     13  CB  GLN C   2     -29.657  25.374 -30.148  1.00 69.09 LIG 0.06  C 
BRANCH 13 14
ATOM     14  CG  GLN C   2     -28.943  24.335 -29.284  1.00 69.91 LIG 0.10  C 
BRANCH 14 15
ATOM     15  CD  GLN C   2     -27.718  23.750 -29.959  1.00 70.47 LIG 0.21  C 
ATOM     16 OE1  GLN C   2     -26.679  24.401 -30.060  1.00 73.69 LIG-0.27  OA
ATOM     17  NE2 GLN C   2     -27.834  22.510 -30.424  1.00 67.69 LIG-0.37  N 
ATOM     18 21HE GLN C   2     -28.576  22.085 -30.335  1.00 67.69 LIG 0.16  HD
ATOM     19 22HE GLN C   2     -27.166  22.133 -30.814  1.00 67.69 LIG 0.16  HD
ENDBRANCH 14 15
ENDBRANCH 13 14
ENDBRANCH 11 13
ENDBRANCH 9 11
ENDBRANCH 6 7
BRANCH 6 20
ATOM     20  CB  ILE C   3     -31.257  25.755 -25.564  1.00 50.18 LIG 0.01  C 
ATOM     21  CG2 ILE C   3     -31.209  24.327 -25.009  1.00 50.82 LIG 0.01  C 
BRANCH 20 22
ATOM     22  CG1 ILE C   3     -29.952  26.114 -26.284  1.00 50.01 LIG 0.00  C 
ATOM     23  CD1 ILE C   3     -28.949  26.861 -25.431  1.00 50.06 LIG 0.01  C 
ENDBRANCH 20 22
ENDBRANCH 6 20
ENDBRANCH 3 6
ENDBRANCH 1 2
BRANCH 1 24
ATOM     24  CB  LYS C   4     -36.486  28.425 -27.488  1.00 61.43 LIG 0.04  C 
BRANCH 24 25
ATOM     25  CG  LYS C   4     -36.107  29.019 -28.835  1.00 66.58 LIG 0.00  C 
BRANCH 25 26
ATOM     26  CD  LYS C   4     -36.677  28.186 -29.975  1.00 73.00 LIG 0.03  C 
BRANCH 26 27
ATOM     27  CE  LYS C   4     -37.871  27.359 -29.528  1.00 75.18 LIG 0.23  C 
BRANCH 27 28
ATOM     28  NZ  LYS C   4     -37.572  25.899 -29.554  1.00 76.64 LIG-0.08  N 
ATOM     29 HZ3  LYS C   4     -38.321  25.440 -29.412  1.00 76.64 LIG 0.27  HD
ATOM     30 HZ2  LYS C   4     -36.981  25.706 -28.917  1.00 76.64 LIG 0.27  HD
ATOM     31 HZ1  LYS C   4     -37.236  25.679 -30.347  1.00 76.64 LIG 0.27  HD
ENDBRANCH 27 28
ENDBRANCH 26 27
ENDBRANCH 25 26
ENDBRANCH 24 25
ENDBRANCH 1 24
BRANCH 1 32
ATOM     32  C   LYS C   4     -35.901  28.225 -25.053  1.00 57.21 LIG 0.24  C 
ATOM     33  N   ASN C   5     -36.533  29.277 -24.542  1.00 57.25 LIG-0.35  N 
ATOM     34 H    ASN C   5     -36.641  30.022 -24.959  1.00 57.25 LIG 0.16  HD
ATOM     35 O    LYS C   4     -35.757  27.165 -24.440  1.00 57.68 LIG-0.27  OA
BRANCH 33 36
ATOM     36  CA  ASN C   5     -37.104  29.251 -23.201  1.00 58.26 LIG 0.18  C 
BRANCH 36 37
ATOM     37  CB  ASN C   5     -38.248  28.239 -23.132  1.00 53.49 LIG 0.14  C 
BRANCH 37 38
ATOM     38  CG  ASN C   5     -37.894  27.015 -22.311  1.00 47.90 LIG 0.22  C 
ATOM     39 OD1  ASN C   5     -38.208  26.939 -21.122  1.00 45.37 LIG-0.27  OA
ATOM     40  ND2 ASN C   5     -37.237  26.049 -22.940  1.00 45.09 LIG-0.37  N 
ATOM     41 22HD ASN C   5     -37.034  26.137 -23.772  1.00 45.09 LIG 0.16  HD
ATOM     42 21HD ASN C   5     -37.013  25.335 -22.517  1.00 45.09 LIG 0.16  HD
ENDBRANCH 37 38
ENDBRANCH 36 37
BRANCH 36 43
ATOM     43  C   ASN C   5     -36.053  28.913 -22.149  1.00 62.82 LIG 0.24  C 
ATOM     44 O    ASN C   5     -34.912  28.581 -22.490  1.00 59.04 LIG-0.27  OA
ATOM     45  N   PRO C   6     -36.437  28.999 -20.880  1.00 69.97 LIG-0.34  N 
ATOM     46  CA  PRO C   6     -35.520  28.700 -19.775  1.00 73.90 LIG 0.18  C 
ATOM     47  CD  PRO C   6     -37.740  29.494 -20.402  1.00 74.49 LIG 0.13  C 
ATOM     48  CB  PRO C   6     -36.434  28.715 -18.550  1.00 75.59 LIG 0.04  C 
ATOM     49  CG  PRO C   6     -37.542  29.641 -18.919  1.00 76.33 LIG 0.02  C 
BRANCH 46 50
ATOM     50  C   PRO C   6     -34.858  27.333 -19.926  1.00 72.73 LIG 0.24  C 
ATOM     51 O    PRO C   6     -33.697  27.165 -19.549  1.00 74.17 LIG-0.27  OA
ATOM     52  N   ILE C   7     -35.593  26.371 -20.475  1.00 69.55 LIG-0.35  N 
ATOM     53 H    ILE C   7     -36.403  26.481 -20.742  1.00 69.55 LIG 0.16  HD
BRANCH 52 54
ATOM     54  CA  ILE C   7     -35.070  25.025 -20.671  1.00 67.58 LIG 0.17  C 
BRANCH 54 55
ATOM     55  CB  ILE C   7     -36.207  24.000 -20.827  1.00 70.68 LIG 0.01  C 
ATOM     56  CG2 ILE C   7     -35.646  22.642 -21.220  1.00 70.33 LIG 0.01  C 
BRANCH 55 57
ATOM     57  CG1 ILE C   7     -37.004  23.890 -19.526  1.00 72.59 LIG 0.00  C 
ATOM     58  CD1 ILE C   7     -38.366  24.546 -19.590  1.00 73.15 LIG 0.01  C 
ENDBRANCH 55 57
ENDBRANCH 54 55
BRANCH 54 59
ATOM     59  C   ILE C   7     -34.181  24.965 -21.909  1.00 63.70 LIG 0.22  C 
ATOM     60 O    ILE C   7     -33.658  25.985 -22.359  1.00 60.54 LIG-0.29  OA
ENDBRANCH 54 59
ENDBRANCH 52 54
ENDBRANCH 46 50
ENDBRANCH 36 43
ENDBRANCH 33 36
ENDBRANCH 1 32
TORSDOF 24
ENDMDL
MODEL 12
USER: ADFR SOLUTION from run 96
USER: SCORE 17.095325 LL:  -4.727 LR: -14.166 RR:   0.000 FEB:  -7.007
USER: RMSD 2.647334
USER: SEED 95
USER: STATUS no improvement in best in 2 clusters for 5 generations
USER: GENES 26
USER: genes 0 Translation |==|  0.44571 0.47247 0.38773
USER: genes 1 Rotation |==|  0.43781 0.42137 0.53072 0.98888
USER: genes 2 Torsion [CB]-CA--N-[C] |==|  0.42200
USER: genes 3 Torsion [N]-C--CA-[N] |==|  0.34224
USER: genes 4 Torsion [C]-CA--N-[C] |==|  0.78965
USER: genes 5 Torsion [N]-C--CA-[N] |==|  0.35043
USER: genes 6 Torsion [C]-CA--CB-[CG] |==|  0.10355
USER: genes 7 Torsion [CA]-CB--CG-[CD] |==|  0.72252
USER: genes 8 Torsion [CB]-CG--CD-[OE1] |==|  0.41422
USER: genes 9 Torsion [C]-CA--CB-[CG2] |==|  0.50834
USER: genes 10 Torsion [CA]-CB--CG1-[CD1] |==|  0.37467
USER: genes 11 Torsion [N]-CA--CB-[CG] |==|  0.71085
USER: genes 12 Torsion [CA]-CB--CG-[CD] |==|  0.71287
USER: genes 13 Torsion [CB]-CG--CD-[CE] |==|  0.31321
USER: genes 14 Torsion [CG]-CD--CE-[NZ] |==|  0.40549
USER: genes 15 Torsion [CD]-CE--NZ-[HZ1] |==|  0.26337
USER: genes 16 Torsion [N]-CA--C-[N] |==|  0.15878
USER: genes 17 Torsion [C]-N--CA-[C] |==|  0.82444
USER: genes 18 Torsion [N]-CA--CB-[CG] |==|  0.19516
USER: genes 19 Torsion [CA]-CB--CG-[OD1] |==|  0.29694
USER: genes 20 Torsion [N]-CA--C-[N] |==|  0.37019
USER: genes 21 Torsion [N]-CA--C-[O] |==|  0.74026
USER: genes 22 Torsion [C]-N--CA-[C] |==|  0.77567
USER: genes 23 Torsion [N]-CA--CB-[CG2] |==|  0.78953
USER: genes 24 Torsion [CA]-CB--CG1-[CD1] |==|  0.29117
USER: genes 25 Torsion [N]-CA--C-[O] |==|  0.29537
ROOT
ATOM      1  CA  LYS C   4     -38.834  26.058 -24.348  1.00 55.66 LIG 0.18  C 
ENDROOT
BRANCH 1 2
ATOM      2  N   LYS C   4     -39.778  25.613 -23.329  1.00 52.22 LIG-0.35  N 
ATOM      3  C   ILE C   3     -39.640  24.459 -22.682  1.00 49.48 LIG 0.24  C 
ATOM      4 O    ILE C   3     -38.729  23.662 -22.909  1.00 46.52 LIG-0.27  OA
ATOM      5 H    LYS C   4     -40.425  26.161 -23.189  1.00 52.22 LIG 0.16  HD
BRANCH 3 6
ATOM      6  CA  ILE C   3     -40.700  24.155 -21.626  1.00 52.28 LIG 0.18  C 
BRANCH 6 7
ATOM      7  N   ILE C   3     -41.353  22.884 -21.913  1.00 58.50 LIG-0.34  N 
ATOM      8 H    ILE C   3     -41.104  22.233 -21.409  1.00 58.50 LIG 0.16  HD
ATOM      9  C   GLN C   2     -42.257  22.772 -22.882  1.00 66.26 LIG 0.26  C 
ATOM     10 O    GLN C   2     -42.594  23.718 -23.593  1.00 73.27 LIG-0.27  OA
BRANCH 9 11
ATOM     11  CA  GLN C   2     -42.867  21.389 -23.085  1.00 65.71 LIG 0.40  C 
ATOM     12  N   GLN C   2     -44.322  21.455 -23.038  1.00 61.11 LIG 0.61  N 
BRANCH 11 13
ATOM     13  CB  GLN C   2     -42.398  20.797 -24.416  1.00 69.09 LIG 0.06  C 
BRANCH 13 14
ATOM     14  CG  GLN C   2     -40.947  21.120 -24.769  1.00 69.91 LIG 0.10  C 
BRANCH 14 15
ATOM     15  CD  GLN C   2     -40.821  22.260 -25.761  1.00 70.47 LIG 0.21  C 
ATOM     16 OE1  GLN C   2     -39.846  23.010 -25.742  1.00 73.69 LIG-0.27  OA
ATOM     17  NE2 GLN C   2     -41.811  22.395 -26.636  1.00 67.69 LIG-0.37  N 
ATOM     18 21HE GLN C   2     -42.477  21.851 -26.619  1.00 67.69 LIG 0.16  HD
ATOM     19 22HE GLN C   2     -41.786  23.026 -27.220  1.00 67.69 LIG 0.16  HD
ENDBRANCH 14 15
ENDBRANCH 13 14
ENDBRANCH 11 13
ENDBRANCH 9 11
ENDBRANCH 6 7
BRANCH 6 20
ATOM     20  CB  ILE C   3     -40.050  24.157 -20.228  1.00 50.18 LIG 0.01  C 
ATOM     21  CG2 ILE C   3     -41.082  23.781 -19.158  1.00 50.82 LIG 0.01  C 
BRANCH 20 22
ATOM     22  CG1 ILE C   3     -38.855  23.199 -20.205  1.00 50.01 LIG 0.00  C 
ATOM     23  CD1 ILE C   3     -37.615  23.756 -19.537  1.00 50.06 LIG 0.01  C 
ENDBRANCH 20 22
ENDBRANCH 6 20
ENDBRANCH 3 6
ENDBRANCH 1 2
BRANCH 1 24
ATOM     24  CB  LYS C   4     -39.534  26.966 -25.362  1.00 61.43 LIG 0.04  C 
BRANCH 24 25
ATOM     25  CG  LYS C   4     -39.837  26.306 -26.698  1.00 66.58 LIG 0.00  C 
BRANCH 25 26
ATOM     26  CD  LYS C   4     -38.850  26.760 -27.764  1.00 73.00 LIG 0.03  C 
BRANCH 26 27
ATOM     27  CE  LYS C   4     -37.947  25.624 -28.218  1.00 75.18 LIG 0.23  C 
BRANCH 27 28
ATOM     28  NZ  LYS C   4     -37.602  25.737 -29.663  1.00 76.64 LIG-0.08  N 
ATOM     29 HZ3  LYS C   4     -38.235  26.199 -30.085  1.00 76.64 LIG 0.27  HD
ATOM     30 HZ2  LYS C   4     -37.542  24.923 -30.019  1.00 76.64 LIG 0.27  HD
ATOM     31 HZ1  LYS C   4     -36.822  26.156 -29.750  1.00 76.64 LIG 0.27  HD
ENDBRANCH 27 28
ENDBRANCH 26 27
ENDBRANCH 25 26
ENDBRANCH 24 25
ENDBRANCH 1 24
BRANCH 1 32
ATOM     32  C   LYS C   4     -37.664  26.785 -23.694  1.00 57.21 LIG 0.24  C 
ATOM     33  N   ASN C   5     -36.983  26.101 -22.780  1.00 57.25 LIG-0.35  N 
ATOM     34 H    ASN C   5     -37.165  25.292 -22.551  1.00 57.25 LIG 0.16  HD
ATOM     35 O    LYS C   4     -37.386  27.944 -24.011  1.00 57.68 LIG-0.27  OA
BRANCH 33 36
ATOM     36  CA  ASN C   5     -35.845  26.682 -22.079  1.00 58.26 LIG 0.18  C 
BRANCH 36 37
ATOM     37  CB  ASN C   5     -35.344  25.724 -20.997  1.00 53.49 LIG 0.14  C 
BRANCH 37 38
ATOM     38  CG  ASN C   5     -34.670  24.495 -21.576  1.00 47.90 LIG 0.22  C 
ATOM     39 OD1  ASN C   5     -33.447  24.359 -21.519  1.00 45.37 LIG-0.27  OA
ATOM     40  ND2 ASN C   5     -35.464  23.593 -22.138  1.00 45.09 LIG-0.37  N 
ATOM     41 22HD ASN C   5     -36.314  23.722 -22.159  1.00 45.09 LIG 0.16  HD
ATOM     42 21HD ASN C   5     -35.129  22.879 -22.480  1.00 45.09 LIG 0.16  HD
ENDBRANCH 37 38
ENDBRANCH 36 37
BRANCH 36 43
ATOM     43  C   ASN C   5     -34.707  27.020 -23.036  1.00 62.82 LIG 0.24  C 
ATOM     44 O    ASN C   5     -34.341  26.199 -23.885  1.00 59.04 LIG-0.27  OA
ATOM     45  N   PRO C   6     -34.154  28.220 -22.898  1.00 69.97 LIG-0.34  N 
ATOM     46  CA  PRO C   6     -33.052  28.664 -23.758  1.00 73.90 LIG 0.18  C 
ATOM     47  CD  PRO C   6     -34.612  29.285 -21.988  1.00 74.49 LIG 0.13  C 
ATOM     48  CB  PRO C   6     -32.609  29.975 -23.107  1.00 75.59 LIG 0.04  C 
ATOM     49  CG  PRO C   6     -33.833  30.491 -22.431  1.00 76.33 LIG 0.02  C 
BRANCH 46 50
ATOM     50  C   PRO C   6     -31.897  27.666 -23.781  1.00 72.73 LIG 0.24  C 
ATOM     51 O    PRO C   6     -30.952  27.799 -23.003  1.00 74.17 LIG-0.27  OA
ATOM     52  N   ILE C   7     -31.978  26.681 -24.668  1.00 69.55 LIG-0.35  N 
ATOM     53 H    ILE C   7     -32.634  26.581 -25.217  1.00 69.55 LIG 0.16  HD
BRANCH 52 54
ATOM     54  CA  ILE C   7     -30.937  25.667 -24.784  1.00 67.58 LIG 0.17  C 
BRANCH 54 55
ATOM     55  CB  ILE C   7     -31.474  24.386 -25.447  1.00 70.68 LIG 0.01  C 
ATOM     56  CG2 ILE C   7     -32.322  23.595 -24.461  1.00 70.33 LIG 0.01  C 
BRANCH 55 57
ATOM     57  CG1 ILE C   7     -32.293  24.735 -26.691  1.00 72.59 LIG 0.00  C 
ATOM     58  CD1 ILE C   7     -31.572  24.453 -27.991  1.00 73.15 LIG 0.01  C 
ENDBRANCH 55 57
ENDBRANCH 54 55
BRANCH 54 59
ATOM     59  C   ILE C   7     -29.763  26.190 -25.605  1.00 63.70 LIG 0.22  C 
ATOM     60 O    ILE C   7     -28.701  26.497 -25.062  1.00 60.54 LIG-0.29  OA
ENDBRANCH 54 59
ENDBRANCH 52 54
ENDBRANCH 46 50
ENDBRANCH 36 43
ENDBRANCH 33 36
ENDBRANCH 1 32
TORSDOF 24
ENDMDL
MODEL 13
USER: ADFR SOLUTION from run 76
USER: SCORE 17.030825 LL:  -5.171 LR: -14.081 RR:   0.000 FEB:  -6.922
USER: RMSD 4.770491
USER: SEED 75
USER: STATUS no improvement in best in 3 clusters for 5 generations
USER: GENES 26
USER: genes 0 Translation |==|  0.41663 0.41870 0.35086
USER: genes 1 Rotation |==|  0.49248 0.26881 0.58851 0.93435
USER: genes 2 Torsion [CB]-CA--N-[C] |==|  0.47543
USER: genes 3 Torsion [N]-C--CA-[N] |==|  0.85556
USER: genes 4 Torsion [C]-CA--N-[C] |==|  0.71747
USER: genes 5 Torsion [N]-C--CA-[N] |==|  0.55394
USER: genes 6 Torsion [C]-CA--CB-[CG] |==|  0.31188
USER: genes 7 Torsion [CA]-CB--CG-[CD] |==|  0.80610
USER: genes 8 Torsion [CB]-CG--CD-[OE1] |==|  0.19739
USER: genes 9 Torsion [C]-CA--CB-[CG2] |==|  0.44345
USER: genes 10 Torsion [CA]-CB--CG1-[CD1] |==|  0.32455
USER: genes 11 Torsion [N]-CA--CB-[CG] |==|  0.70398
USER: genes 12 Torsion [CA]-CB--CG-[CD] |==|  0.72794
USER: genes 13 Torsion [CB]-CG--CD-[CE] |==|  0.62875
USER: genes 14 Torsion [CG]-CD--CE-[NZ] |==|  0.82106
USER: genes 15 Torsion [CD]-CE--NZ-[HZ1] |==|  0.71863
USER: genes 16 Torsion [N]-CA--C-[N] |==|  0.21246
USER: genes 17 Torsion [C]-N--CA-[C] |==|  0.67058
USER: genes 18 Torsion [N]-CA--CB-[CG] |==|  0.93852
USER: genes 19 Torsion [CA]-CB--CG-[OD1] |==|  0.81394
USER: genes 20 Torsion [N]-CA--C-[N] |==|  0.83442
USER: genes 21 Torsion [N]-CA--C-[O] |==|  0.28890
USER: genes 22 Torsion [C]-N--CA-[C] |==|  0.78420
USER: genes 23 Torsion [N]-CA--CB-[CG2] |==|  0.61304
USER: genes 24 Torsion [CA]-CB--CG1-[CD1] |==|  0.77624
USER: genes 25 Torsion [N]-CA--C-[O] |==|  0.00112
ROOT
ATOM      1  CA  LYS C   4     -39.510  25.050 -25.067  1.00 55.66 LIG 0.18  C 
ENDROOT
BRANCH 1 2
ATOM      2  N   LYS C   4     -40.590  24.099 -24.826  1.00 52.22 LIG-0.35  N 
ATOM      3  C   ILE C   3     -40.465  23.073 -23.988  1.00 49.48 LIG 0.24  C 
ATOM      4 O    ILE C   3     -39.427  22.824 -23.376  1.00 46.52 LIG-0.27  OA
ATOM      5 H    LYS C   4     -41.306  24.264 -25.271  1.00 52.22 LIG 0.16  HD
BRANCH 3 6
ATOM      6  CA  ILE C   3     -41.699  22.189 -23.828  1.00 52.28 LIG 0.18  C 
BRANCH 6 7
ATOM      7  N   ILE C   3     -42.868  23.001 -23.510  1.00 58.50 LIG-0.34  N 
ATOM      8 H    ILE C   3     -43.215  23.406 -24.185  1.00 58.50 LIG 0.16  HD
ATOM      9  C   GLN C   2     -43.335  23.088 -22.268  1.00 66.26 LIG 0.26  C 
ATOM     10 O    GLN C   2     -42.818  22.500 -21.319  1.00 73.27 LIG-0.27  OA
BRANCH 9 11
ATOM     11  CA  GLN C   2     -44.562  23.970 -22.064  1.00 65.71 LIG 0.40  C 
ATOM     12  N   GLN C   2     -44.698  24.349 -20.663  1.00 61.11 LIG 0.61  N 
BRANCH 11 13
ATOM     13  CB  GLN C   2     -44.467  25.215 -22.951  1.00 69.09 LIG 0.06  C 
BRANCH 13 14
ATOM     14  CG  GLN C   2     -45.502  25.265 -24.073  1.00 69.91 LIG 0.10  C 
BRANCH 14 15
ATOM     15  CD  GLN C   2     -45.249  24.232 -25.154  1.00 70.47 LIG 0.21  C 
ATOM     16 OE1  GLN C   2     -45.435  23.035 -24.941  1.00 73.69 LIG-0.27  OA
ATOM     17  NE2 GLN C   2     -44.823  24.693 -26.326  1.00 67.69 LIG-0.37  N 
ATOM     18 21HE GLN C   2     -44.704  25.538 -26.438  1.00 67.69 LIG 0.16  HD
ATOM     19 22HE GLN C   2     -44.666  24.147 -26.971  1.00 67.69 LIG 0.16  HD
ENDBRANCH 14 15
ENDBRANCH 13 14
ENDBRANCH 11 13
ENDBRANCH 9 11
ENDBRANCH 6 7
BRANCH 6 20
ATOM     20  CB  ILE C   3     -41.914  21.365 -25.114  1.00 50.18 LIG 0.01  C 
ATOM     21  CG2 ILE C   3     -42.791  20.142 -24.825  1.00 50.82 LIG 0.01  C 
BRANCH 20 22
ATOM     22  CG1 ILE C   3     -42.534  22.246 -26.204  1.00 50.01 LIG 0.00  C 
ATOM     23  CD1 ILE C   3     -41.664  22.436 -27.429  1.00 50.06 LIG 0.01  C 
ENDBRANCH 20 22
ENDBRANCH 6 20
ENDBRANCH 3 6
ENDBRANCH 1 2
BRANCH 1 24
ATOM     24  CB  LYS C   4     -39.868  25.979 -26.229  1.00 61.43 LIG 0.04  C 
BRANCH 24 25
ATOM     25  CG  LYS C   4     -39.113  25.698 -27.518  1.00 66.58 LIG 0.00  C 
BRANCH 25 26
ATOM     26  CD  LYS C   4     -37.924  26.636 -27.667  1.00 73.00 LIG 0.03  C 
BRANCH 26 27
ATOM     27  CE  LYS C   4     -37.847  27.233 -29.063  1.00 75.18 LIG 0.23  C 
BRANCH 27 28
ATOM     28  NZ  LYS C   4     -37.600  26.190 -30.097  1.00 76.64 LIG-0.08  N 
ATOM     29 HZ3  LYS C   4     -38.104  26.355 -30.812  1.00 76.64 LIG 0.27  HD
ATOM     30 HZ2  LYS C   4     -37.808  25.389 -29.768  1.00 76.64 LIG 0.27  HD
ATOM     31 HZ1  LYS C   4     -36.742  26.201 -30.331  1.00 76.64 LIG 0.27  HD
ENDBRANCH 27 28
ENDBRANCH 26 27
ENDBRANCH 25 26
ENDBRANCH 24 25
ENDBRANCH 1 24
BRANCH 1 32
ATOM     32  C   LYS C   4     -39.231  25.856 -23.802  1.00 57.21 LIG 0.24  C 
ATOM     33  N   ASN C   5     -38.550  25.232 -22.846  1.00 57.25 LIG-0.35  N 
ATOM     34 H    ASN C   5     -38.268  24.422 -22.908  1.00 57.25 LIG 0.16  HD
ATOM     35 O    LYS C   4     -39.626  27.018 -23.696  1.00 57.68 LIG-0.27  OA
BRANCH 33 36
ATOM     36  CA  ASN C   5     -38.221  25.889 -21.587  1.00 58.26 LIG 0.18  C 
BRANCH 36 37
ATOM     37  CB  ASN C   5     -38.853  25.136 -20.416  1.00 53.49 LIG 0.14  C 
BRANCH 37 38
ATOM     38  CG  ASN C   5     -40.037  24.288 -20.839  1.00 47.90 LIG 0.22  C 
ATOM     39 OD1  ASN C   5     -41.075  24.810 -21.245  1.00 45.37 LIG-0.27  OA
ATOM     40  ND2 ASN C   5     -39.886  22.972 -20.746  1.00 45.09 LIG-0.37  N 
ATOM     41 22HD ASN C   5     -39.146  22.643 -20.458  1.00 45.09 LIG 0.16  HD
ATOM     42 21HD ASN C   5     -40.530  22.449 -20.974  1.00 45.09 LIG 0.16  HD
ENDBRANCH 37 38
ENDBRANCH 36 37
BRANCH 36 43
ATOM     43  C   ASN C   5     -36.714  25.989 -21.383  1.00 62.82 LIG 0.24  C 
ATOM     44 O    ASN C   5     -36.173  27.093 -21.252  1.00 59.04 LIG-0.27  OA
ATOM     45  N   PRO C   6     -36.042  24.843 -21.355  1.00 69.97 LIG-0.34  N 
ATOM     46  CA  PRO C   6     -34.588  24.806 -21.164  1.00 73.90 LIG 0.18  C 
ATOM     47  CD  PRO C   6     -36.633  23.493 -21.392  1.00 74.49 LIG 0.13  C 
ATOM     48  CB  PRO C   6     -34.242  23.338 -21.419  1.00 75.59 LIG 0.04  C 
ATOM     49  CG  PRO C   6     -35.479  22.591 -21.055  1.00 76.33 LIG 0.02  C 
BRANCH 46 50
ATOM     50  C   PRO C   6     -33.851  25.704 -22.154  1.00 72.73 LIG 0.24  C 
ATOM     51 O    PRO C   6     -33.396  26.786 -21.782  1.00 74.17 LIG-0.27  OA
ATOM     52  N   ILE C   7     -33.742  25.256 -23.400  1.00 69.55 LIG-0.35  N 
ATOM     53 H    ILE C   7     -34.058  24.502 -23.668  1.00 69.55 LIG 0.16  HD
BRANCH 52 54
ATOM     54  CA  ILE C   7     -33.060  26.025 -24.433  1.00 67.58 LIG 0.17  C 
BRANCH 54 55
ATOM     55  CB  ILE C   7     -32.657  25.132 -25.621  1.00 70.68 LIG 0.01  C 
ATOM     56  CG2 ILE C   7     -31.269  25.506 -26.118  1.00 70.33 LIG 0.01  C 
BRANCH 55 57
ATOM     57  CG1 ILE C   7     -32.697  23.658 -25.214  1.00 72.59 LIG 0.00  C 
ATOM     58  CD1 ILE C   7     -31.470  23.204 -24.454  1.00 73.15 LIG 0.01  C 
ENDBRANCH 55 57
ENDBRANCH 54 55
BRANCH 54 59
ATOM     59  C   ILE C   7     -33.950  27.152 -24.944  1.00 63.70 LIG 0.22  C 
ATOM     60 O    ILE C   7     -35.079  27.322 -24.483  1.00 60.54 LIG-0.29  OA
ENDBRANCH 54 59
ENDBRANCH 52 54
ENDBRANCH 46 50
ENDBRANCH 36 43
ENDBRANCH 33 36
ENDBRANCH 1 32
TORSDOF 24
ENDMDL
MODEL 14
USER: ADFR SOLUTION from run 39
USER: SCORE 17.089831 LL:  -4.374 LR: -14.060 RR:   0.000 FEB:  -6.901
USER: RMSD 10.089900
USER: SEED 38
USER: STATUS no improvement in best in 5 clusters for 5 generations
USER: GENES 26
USER: genes 0 Translation |==|  0.62364 0.58093 0.38440
USER: genes 1 Rotation |==|  0.73653 0.21370 0.75350 0.71868
USER: genes 2 Torsion [CB]-CA--N-[C] |==|  0.19923
USER: genes 3 Torsion [N]-C--CA-[N] |==|  0.46633
USER: genes 4 Torsion [C]-CA--N-[C] |==|  0.54464
USER: genes 5 Torsion [N]-C--CA-[N] |==|  0.15631
USER: genes 6 Torsion [C]-CA--CB-[CG] |==|  0.64545
USER: genes 7 Torsion [CA]-CB--CG-[CD] |==|  0.26460
USER: genes 8 Torsion [CB]-CG--CD-[OE1] |==|  0.74081
USER: genes 9 Torsion [C]-CA--CB-[CG2] |==|  0.90537
USER: genes 10 Torsion [CA]-CB--CG1-[CD1] |==|  0.37966
USER: genes 11 Torsion [N]-CA--CB-[CG] |==|  0.14172
USER: genes 12 Torsion [CA]-CB--CG-[CD] |==|  0.67861
USER: genes 13 Torsion [CB]-CG--CD-[CE] |==|  0.55886
USER: genes 14 Torsion [CG]-CD--CE-[NZ] |==|  0.62651
USER: genes 15 Torsion [CD]-CE--NZ-[HZ1] |==|  0.50932
USER: genes 16 Torsion [N]-CA--C-[N] |==|  0.91106
USER: genes 17 Torsion [C]-N--CA-[C] |==|  0.14961
USER: genes 18 Torsion [N]-CA--CB-[CG] |==|  0.75059
USER: genes 19 Torsion [CA]-CB--CG-[OD1] |==|  0.54938
USER: genes 20 Torsion [N]-CA--C-[N] |==|  0.17684
USER: genes 21 Torsion [N]-CA--C-[O] |==|  0.41334
USER: genes 22 Torsion [C]-N--CA-[C] |==|  0.84137
USER: genes 23 Torsion [N]-CA--CB-[CG2] |==|  0.69325
USER: genes 24 Torsion [CA]-CB--CG1-[CD1] |==|  0.25871
USER: genes 25 Torsion [N]-CA--C-[O] |==|  0.85773
ROOT
ATOM      1  CA  LYS C   4     -34.697  28.091 -24.413  1.00 55.66 LIG 0.18  C 
ENDROOT
BRANCH 1 2
ATOM      2  N   LYS C   4     -33.999  26.997 -25.078  1.00 52.22 LIG-0.35  N 
ATOM      3  C   ILE C   3     -33.110  27.200 -26.046  1.00 49.48 LIG 0.24  C 
ATOM      4 O    ILE C   3     -32.827  28.317 -26.479  1.00 46.52 LIG-0.27  OA
ATOM      5 H    LYS C   4     -34.215  26.217 -24.788  1.00 52.22 LIG 0.16  HD
BRANCH 3 6
ATOM      6  CA  ILE C   3     -32.449  25.949 -26.618  1.00 52.28 LIG 0.18  C 
BRANCH 6 7
ATOM      7  N   ILE C   3     -31.725  26.270 -27.842  1.00 58.50 LIG-0.34  N 
ATOM      8 H    ILE C   3     -31.579  27.110 -27.959  1.00 58.50 LIG 0.16  HD
ATOM      9  C   GLN C   2     -31.337  25.321 -28.688  1.00 66.26 LIG 0.26  C 
ATOM     10 O    GLN C   2     -31.562  24.126 -28.499  1.00 73.27 LIG-0.27  OA
BRANCH 9 11
ATOM     11  CA  GLN C   2     -30.590  25.786 -29.934  1.00 65.71 LIG 0.40  C 
ATOM     12  N   GLN C   2     -29.416  26.569 -29.569  1.00 61.11 LIG 0.61  N 
BRANCH 11 13
ATOM     13  CB  GLN C   2     -30.188  24.579 -30.786  1.00 69.09 LIG 0.06  C 
BRANCH 13 14
ATOM     14  CG  GLN C   2     -28.706  24.538 -31.155  1.00 69.91 LIG 0.10  C 
BRANCH 14 15
ATOM     15  CD  GLN C   2     -27.887  23.685 -30.206  1.00 70.47 LIG 0.21  C 
ATOM     16 OE1  GLN C   2     -27.320  24.185 -29.235  1.00 73.69 LIG-0.27  OA
ATOM     17  NE2 GLN C   2     -27.822  22.387 -30.483  1.00 67.69 LIG-0.37  N 
ATOM     18 21HE GLN C   2     -28.232  22.073 -31.171  1.00 67.69 LIG 0.16  HD
ATOM     19 22HE GLN C   2     -27.371  21.861 -29.974  1.00 67.69 LIG 0.16  HD
ENDBRANCH 14 15
ENDBRANCH 13 14
ENDBRANCH 11 13
ENDBRANCH 9 11
ENDBRANCH 6 7
BRANCH 6 20
ATOM     20  CB  ILE C   3     -31.521  25.324 -25.556  1.00 50.18 LIG 0.01  C 
ATOM     21  CG2 ILE C   3     -30.879  26.419 -24.696  1.00 50.82 LIG 0.01  C 
BRANCH 20 22
ATOM     22  CG1 ILE C   3     -32.306  24.331 -24.693  1.00 50.01 LIG 0.00  C 
ATOM     23  CD1 ILE C   3     -31.581  23.032 -24.411  1.00 50.06 LIG 0.01  C 
ENDBRANCH 20 22
ENDBRANCH 6 20
ENDBRANCH 3 6
ENDBRANCH 1 2
BRANCH 1 24
ATOM     24  CB  LYS C   4     -35.727  28.717 -25.356  1.00 61.43 LIG 0.04  C 
BRANCH 24 25
ATOM     25  CG  LYS C   4     -36.670  27.721 -26.013  1.00 66.58 LIG 0.00  C 
BRANCH 25 26
ATOM     26  CD  LYS C   4     -36.471  27.699 -27.522  1.00 73.00 LIG 0.03  C 
BRANCH 26 27
ATOM     27  CE  LYS C   4     -37.687  27.142 -28.243  1.00 75.18 LIG 0.23  C 
BRANCH 27 28
ATOM     28  NZ  LYS C   4     -37.304  26.156 -29.293  1.00 76.64 LIG-0.08  N 
ATOM     29 HZ3  LYS C   4     -36.910  25.454 -28.912  1.00 76.64 LIG 0.27  HD
ATOM     30 HZ2  LYS C   4     -36.740  26.537 -29.866  1.00 76.64 LIG 0.27  HD
ATOM     31 HZ1  LYS C   4     -38.032  25.886 -29.727  1.00 76.64 LIG 0.27  HD
ENDBRANCH 27 28
ENDBRANCH 26 27
ENDBRANCH 25 26
ENDBRANCH 24 25
ENDBRANCH 1 24
BRANCH 1 32
ATOM     32  C   LYS C   4     -35.372  27.585 -23.142  1.00 57.21 LIG 0.24  C 
ATOM     33  N   ASN C   5     -35.802  26.327 -23.166  1.00 57.25 LIG-0.35  N 
ATOM     34 H    ASN C   5     -35.718  25.803 -23.843  1.00 57.25 LIG 0.16  HD
ATOM     35 O    LYS C   4     -35.500  28.320 -22.161  1.00 57.68 LIG-0.27  OA
BRANCH 33 36
ATOM     36  CA  ASN C   5     -36.466  25.723 -22.018  1.00 58.26 LIG 0.18  C 
BRANCH 36 37
ATOM     37  CB  ASN C   5     -35.475  25.542 -20.867  1.00 53.49 LIG 0.14  C 
BRANCH 37 38
ATOM     38  CG  ASN C   5     -34.768  24.202 -20.913  1.00 47.90 LIG 0.22  C 
ATOM     39 OD1  ASN C   5     -34.195  23.754 -19.919  1.00 45.37 LIG-0.27  OA
ATOM     40  ND2 ASN C   5     -34.802  23.554 -22.071  1.00 45.09 LIG-0.37  N 
ATOM     41 22HD ASN C   5     -35.211  23.898 -22.744  1.00 45.09 LIG 0.16  HD
ATOM     42 21HD ASN C   5     -34.414  22.790 -22.147  1.00 45.09 LIG 0.16  HD
ENDBRANCH 37 38
ENDBRANCH 36 37
BRANCH 36 43
ATOM     43  C   ASN C   5     -37.652  26.559 -21.550  1.00 62.82 LIG 0.24  C 
ATOM     44 O    ASN C   5     -37.649  27.074 -20.427  1.00 59.04 LIG-0.27  OA
ATOM     45  N   PRO C   6     -38.658  26.691 -22.408  1.00 69.97 LIG-0.34  N 
ATOM     46  CA  PRO C   6     -39.856  27.471 -22.077  1.00 73.90 LIG 0.18  C 
ATOM     47  CD  PRO C   6     -38.681  26.201 -23.798  1.00 74.49 LIG 0.13  C 
ATOM     48  CB  PRO C   6     -40.802  27.164 -23.239  1.00 75.59 LIG 0.04  C 
ATOM     49  CG  PRO C   6     -39.902  26.851 -24.384  1.00 76.33 LIG 0.02  C 
BRANCH 46 50
ATOM     50  C   PRO C   6     -40.482  27.038 -20.754  1.00 72.73 LIG 0.24  C 
ATOM     51 O    PRO C   6     -41.072  27.860 -20.054  1.00 74.17 LIG-0.27  OA
ATOM     52  N   ILE C   7     -40.347  25.758 -20.422  1.00 69.55 LIG-0.35  N 
ATOM     53 H    ILE C   7     -39.935  25.178 -20.905  1.00 69.55 LIG 0.16  HD
BRANCH 52 54
ATOM     54  CA  ILE C   7     -40.902  25.227 -19.183  1.00 67.58 LIG 0.17  C 
BRANCH 54 55
ATOM     55  CB  ILE C   7     -40.573  23.732 -19.018  1.00 70.68 LIG 0.01  C 
ATOM     56  CG2 ILE C   7     -41.831  22.892 -19.170  1.00 70.33 LIG 0.01  C 
BRANCH 55 57
ATOM     57  CG1 ILE C   7     -39.520  23.305 -20.043  1.00 72.59 LIG 0.00  C 
ATOM     58  CD1 ILE C   7     -38.101  23.386 -19.527  1.00 73.15 LIG 0.01  C 
ENDBRANCH 55 57
ENDBRANCH 54 55
BRANCH 54 59
ATOM     59  C   ILE C   7     -40.359  25.987 -17.978  1.00 63.70 LIG 0.22  C 
ATOM     60 O    ILE C   7     -39.148  26.152 -17.830  1.00 60.54 LIG-0.29  OA
ENDBRANCH 54 59
ENDBRANCH 52 54
ENDBRANCH 46 50
ENDBRANCH 36 43
ENDBRANCH 33 36
ENDBRANCH 1 32
TORSDOF 24
ENDMDL
MODEL 15
USER: ADFR SOLUTION from run 150
USER: SCORE 15.971389 LL:  -3.575 LR: -14.010 RR:   0.000 FEB:  -6.851
USER: RMSD 5.195686
USER: SEED 149
USER: STATUS no improvement in best in 10 clusters for 5 generations
USER: GENES 26
USER: genes 0 Translation |==|  0.40205 0.40016 0.35281
USER: genes 1 Rotation |==|  0.47037 0.24257 0.49809 0.92761
USER: genes 2 Torsion [CB]-CA--N-[C] |==|  0.45135
USER: genes 3 Torsion [N]-C--CA-[N] |==|  0.13373
USER: genes 4 Torsion [C]-CA--N-[C] |==|  0.13061
USER: genes 5 Torsion [N]-C--CA-[N] |==|  0.38406
USER: genes 6 Torsion [C]-CA--CB-[CG] |==|  0.55031
USER: genes 7 Torsion [CA]-CB--CG-[CD] |==|  0.28457
USER: genes 8 Torsion [CB]-CG--CD-[OE1] |==|  0.25356
USER: genes 9 Torsion [C]-CA--CB-[CG2] |==|  0.26855
USER: genes 10 Torsion [CA]-CB--CG1-[CD1] |==|  0.44113
USER: genes 11 Torsion [N]-CA--CB-[CG] |==|  0.47917
USER: genes 12 Torsion [CA]-CB--CG-[CD] |==|  0.40677
USER: genes 13 Torsion [CB]-CG--CD-[CE] |==|  0.89329
USER: genes 14 Torsion [CG]-CD--CE-[NZ] |==|  0.53881
USER: genes 15 Torsion [CD]-CE--NZ-[HZ1] |==|  0.18331
USER: genes 16 Torsion [N]-CA--C-[N] |==|  0.28831
USER: genes 17 Torsion [C]-N--CA-[C] |==|  0.78619
USER: genes 18 Torsion [N]-CA--CB-[CG] |==|  0.26394
USER: genes 19 Torsion [CA]-CB--CG-[OD1] |==|  0.28410
USER: genes 20 Torsion [N]-CA--C-[N] |==|  0.45967
USER: genes 21 Torsion [N]-CA--C-[O] |==|  0.75273
USER: genes 22 Torsion [C]-N--CA-[C] |==|  0.67109
USER: genes 23 Torsion [N]-CA--CB-[CG2] |==|  0.40848
USER: genes 24 Torsion [CA]-CB--CG1-[CD1] |==|  0.63072
USER: genes 25 Torsion [N]-CA--C-[O] |==|  0.30862
ROOT
ATOM      1  CA  LYS C   4     -39.849  24.702 -25.029  1.00 55.66 LIG 0.18  C 
ENDROOT
BRANCH 1 2
ATOM      2  N   LYS C   4     -41.208  24.172 -25.024  1.00 52.22 LIG-0.35  N 
ATOM      3  C   ILE C   3     -41.519  23.010 -24.457  1.00 49.48 LIG 0.24  C 
ATOM      4 O    ILE C   3     -40.689  22.276 -23.919  1.00 46.52 LIG-0.27  OA
ATOM      5 H    LYS C   4     -41.781  24.676 -25.419  1.00 52.22 LIG 0.16  HD
BRANCH 3 6
ATOM      6  CA  ILE C   3     -42.992  22.612 -24.516  1.00 52.28 LIG 0.18  C 
BRANCH 6 7
ATOM      7  N   ILE C   3     -43.508  22.774 -25.870  1.00 58.50 LIG-0.34  N 
ATOM      8 H    ILE C   3     -44.263  23.183 -25.917  1.00 58.50 LIG 0.16  HD
ATOM      9  C   GLN C   2     -42.841  22.317 -26.926  1.00 66.26 LIG 0.26  C 
ATOM     10 O    GLN C   2     -41.763  21.732 -26.831  1.00 73.27 LIG-0.27  OA
BRANCH 9 11
ATOM     11  CA  GLN C   2     -43.487  22.547 -28.288  1.00 65.71 LIG 0.40  C 
ATOM     12  N   GLN C   2     -42.489  22.952 -29.270  1.00 61.11 LIG 0.61  N 
BRANCH 11 13
ATOM     13  CB  GLN C   2     -44.210  21.278 -28.748  1.00 69.09 LIG 0.06  C 
BRANCH 13 14
ATOM     14  CG  GLN C   2     -44.512  21.236 -30.245  1.00 69.91 LIG 0.10  C 
BRANCH 14 15
ATOM     15  CD  GLN C   2     -43.555  20.347 -31.014  1.00 70.47 LIG 0.21  C 
ATOM     16 OE1  GLN C   2     -43.808  19.158 -31.203  1.00 73.69 LIG-0.27  OA
ATOM     17  NE2 GLN C   2     -42.445  20.922 -31.466  1.00 67.69 LIG-0.37  N 
ATOM     18 21HE GLN C   2     -42.302  21.757 -31.315  1.00 67.69 LIG 0.16  HD
ATOM     19 22HE GLN C   2     -41.871  20.460 -31.909  1.00 67.69 LIG 0.16  HD
ENDBRANCH 14 15
ENDBRANCH 13 14
ENDBRANCH 11 13
ENDBRANCH 9 11
ENDBRANCH 6 7
BRANCH 6 20
ATOM     20  CB  ILE C   3     -43.157  21.164 -24.015  1.00 50.18 LIG 0.01  C 
ATOM     21  CG2 ILE C   3     -43.562  21.152 -22.536  1.00 50.82 LIG 0.01  C 
BRANCH 20 22
ATOM     22  CG1 ILE C   3     -44.187  20.426 -24.877  1.00 50.01 LIG 0.00  C 
ATOM     23  CD1 ILE C   3     -44.079  18.916 -24.832  1.00 50.06 LIG 0.01  C 
ENDBRANCH 20 22
ENDBRANCH 6 20
ENDBRANCH 3 6
ENDBRANCH 1 2
BRANCH 1 24
ATOM     24  CB  LYS C   4     -39.707  25.792 -26.093  1.00 61.43 LIG 0.04  C 
BRANCH 24 25
ATOM     25  CG  LYS C   4     -38.382  26.536 -26.062  1.00 66.58 LIG 0.00  C 
BRANCH 25 26
ATOM     26  CD  LYS C   4     -37.952  26.940 -27.465  1.00 73.00 LIG 0.03  C 
BRANCH 26 27
ATOM     27  CE  LYS C   4     -38.276  25.863 -28.487  1.00 75.18 LIG 0.23  C 
BRANCH 27 28
ATOM     28  NZ  LYS C   4     -37.572  26.096 -29.779  1.00 76.64 LIG-0.08  N 
ATOM     29 HZ3  LYS C   4     -37.751  26.918 -30.070  1.00 76.64 LIG 0.27  HD
ATOM     30 HZ2  LYS C   4     -37.849  25.502 -30.381  1.00 76.64 LIG 0.27  HD
ATOM     31 HZ1  LYS C   4     -36.695  26.009 -29.659  1.00 76.64 LIG 0.27  HD
ENDBRANCH 27 28
ENDBRANCH 26 27
ENDBRANCH 25 26
ENDBRANCH 24 25
ENDBRANCH 1 24
BRANCH 1 32
ATOM     32  C   LYS C   4     -39.498  25.250 -23.649  1.00 57.21 LIG 0.24  C 
ATOM     33  N   ASN C   5     -38.698  24.495 -22.903  1.00 57.25 LIG-0.35  N 
ATOM     34 H    ASN C   5     -38.378  23.737 -23.157  1.00 57.25 LIG 0.16  HD
ATOM     35 O    LYS C   4     -39.944  26.334 -23.270  1.00 57.68 LIG-0.27  OA
BRANCH 33 36
ATOM     36  CA  ASN C   5     -38.289  24.901 -21.565  1.00 58.26 LIG 0.18  C 
BRANCH 36 37
ATOM     37  CB  ASN C   5     -37.794  23.691 -20.771  1.00 53.49 LIG 0.14  C 
BRANCH 37 38
ATOM     38  CG  ASN C   5     -36.288  23.529 -20.837  1.00 47.90 LIG 0.22  C 
ATOM     39 OD1  ASN C   5     -35.573  23.871 -19.894  1.00 45.37 LIG-0.27  OA
ATOM     40  ND2 ASN C   5     -35.797  23.006 -21.954  1.00 45.09 LIG-0.37  N 
ATOM     41 22HD ASN C   5     -36.327  22.779 -22.592  1.00 45.09 LIG 0.16  HD
ATOM     42 21HD ASN C   5     -34.948  22.895 -22.039  1.00 45.09 LIG 0.16  HD
ENDBRANCH 37 38
ENDBRANCH 36 37
BRANCH 36 43
ATOM     43  C   ASN C   5     -37.201  25.969 -21.609  1.00 62.82 LIG 0.24  C 
ATOM     44 O    ASN C   5     -36.588  26.192 -22.659  1.00 59.04 LIG-0.27  OA
ATOM     45  N   PRO C   6     -36.966  26.622 -20.476  1.00 69.97 LIG-0.34  N 
ATOM     46  CA  PRO C   6     -35.945  27.672 -20.390  1.00 73.90 LIG 0.18  C 
ATOM     47  CD  PRO C   6     -37.731  26.487 -19.224  1.00 74.49 LIG 0.13  C 
ATOM     48  CB  PRO C   6     -35.880  27.970 -18.891  1.00 75.59 LIG 0.04  C 
ATOM     49  CG  PRO C   6     -37.236  27.627 -18.380  1.00 76.33 LIG 0.02  C 
BRANCH 46 50
ATOM     50  C   PRO C   6     -34.585  27.200 -20.897  1.00 72.73 LIG 0.24  C 
ATOM     51 O    PRO C   6     -33.790  26.666 -20.123  1.00 74.17 LIG-0.27  OA
ATOM     52  N   ILE C   7     -34.327  27.401 -22.185  1.00 69.55 LIG-0.35  N 
ATOM     53 H    ILE C   7     -34.875  27.774 -22.732  1.00 69.55 LIG 0.16  HD
BRANCH 52 54
ATOM     54  CA  ILE C   7     -33.062  26.993 -22.784  1.00 67.58 LIG 0.17  C 
BRANCH 54 55
ATOM     55  CB  ILE C   7     -33.283  25.984 -23.926  1.00 70.68 LIG 0.01  C 
ATOM     56  CG2 ILE C   7     -32.230  26.168 -25.007  1.00 70.33 LIG 0.01  C 
BRANCH 55 57
ATOM     57  CG1 ILE C   7     -33.246  24.554 -23.384  1.00 72.59 LIG 0.00  C 
ATOM     58  CD1 ILE C   7     -32.384  23.617 -24.202  1.00 73.15 LIG 0.01  C 
ENDBRANCH 55 57
ENDBRANCH 54 55
BRANCH 54 59
ATOM     59  C   ILE C   7     -32.310  28.200 -23.334  1.00 63.70 LIG 0.22  C 
ATOM     60 O    ILE C   7     -31.267  28.587 -22.807  1.00 60.54 LIG-0.29  OA
ENDBRANCH 54 59
ENDBRANCH 52 54
ENDBRANCH 46 50
ENDBRANCH 36 43
ENDBRANCH 33 36
ENDBRANCH 1 32
TORSDOF 24
ENDMDL
MODEL 16
USER: ADFR SOLUTION from run 134
USER: SCORE 17.759301 LL:  -4.661 LR: -13.998 RR:   0.000 FEB:  -6.839
USER: RMSD 8.456613
USER: SEED 133
USER: STATUS 1 or 2 clusters left
USER: GENES 26
USER: genes 0 Translation |==|  0.47046 0.53449 0.38404
USER: genes 1 Rotation |==|  0.85629 0.43126 0.84267 0.53006
USER: genes 2 Torsion [CB]-CA--N-[C] |==|  0.23738
USER: genes 3 Torsion [N]-C--CA-[N] |==|  0.08793
USER: genes 4 Torsion [C]-CA--N-[C] |==|  0.66270
USER: genes 5 Torsion [N]-C--CA-[N] |==|  0.17143
USER: genes 6 Torsion [C]-CA--CB-[CG] |==|  0.44760
USER: genes 7 Torsion [CA]-CB--CG-[CD] |==|  0.82947
USER: genes 8 Torsion [CB]-CG--CD-[OE1] |==|  0.02482
USER: genes 9 Torsion [C]-CA--CB-[CG2] |==|  0.44960
USER: genes 10 Torsion [CA]-CB--CG1-[CD1] |==|  0.72102
USER: genes 11 Torsion [N]-CA--CB-[CG] |==|  0.82809
USER: genes 12 Torsion [CA]-CB--CG-[CD] |==|  0.37418
USER: genes 13 Torsion [CB]-CG--CD-[CE] |==|  0.78665
USER: genes 14 Torsion [CG]-CD--CE-[NZ] |==|  0.60993
USER: genes 15 Torsion [CD]-CE--NZ-[HZ1] |==|  0.41000
USER: genes 16 Torsion [N]-CA--C-[N] |==|  0.95556
USER: genes 17 Torsion [C]-N--CA-[C] |==|  0.82986
USER: genes 18 Torsion [N]-CA--CB-[CG] |==|  0.55460
USER: genes 19 Torsion [CA]-CB--CG-[OD1] |==|  0.76103
USER: genes 20 Torsion [N]-CA--C-[N] |==|  0.38806
USER: genes 21 Torsion [N]-CA--C-[O] |==|  0.40819
USER: genes 22 Torsion [C]-N--CA-[C] |==|  0.72594
USER: genes 23 Torsion [N]-CA--CB-[CG2] |==|  0.52556
USER: genes 24 Torsion [CA]-CB--CG1-[CD1] |==|  0.39138
USER: genes 25 Torsion [N]-CA--C-[O] |==|  0.92815
ROOT
ATOM      1  CA  LYS C   4     -38.259  27.221 -24.420  1.00 55.66 LIG 0.18  C 
ENDROOT
BRANCH 1 2
ATOM      2  N   LYS C   4     -37.005  27.574 -25.076  1.00 52.22 LIG-0.35  N 
ATOM      3  C   ILE C   3     -36.904  28.596 -25.922  1.00 49.48 LIG 0.24  C 
ATOM      4 O    ILE C   3     -37.859  29.303 -26.243  1.00 46.52 LIG-0.27  OA
ATOM      5 H    LYS C   4     -36.345  27.065 -24.866  1.00 52.22 LIG 0.16  HD
BRANCH 3 6
ATOM      6  CA  ILE C   3     -35.514  28.847 -26.500  1.00 52.28 LIG 0.18  C 
BRANCH 6 7
ATOM      7  N   ILE C   3     -34.784  27.592 -26.632  1.00 58.50 LIG-0.34  N 
ATOM      8 H    ILE C   3     -35.169  27.006 -27.131  1.00 58.50 LIG 0.16  HD
ATOM      9  C   GLN C   2     -33.620  27.399 -26.019  1.00 66.26 LIG 0.26  C 
ATOM     10 O    GLN C   2     -33.091  28.253 -25.308  1.00 73.27 LIG-0.27  OA
BRANCH 9 11
ATOM     11  CA  GLN C   2     -32.956  26.043 -26.234  1.00 65.71 LIG 0.40  C 
ATOM     12  N   GLN C   2     -32.646  25.838 -27.643  1.00 61.11 LIG 0.61  N 
BRANCH 11 13
ATOM     13  CB  GLN C   2     -31.687  25.938 -25.384  1.00 69.09 LIG 0.06  C 
BRANCH 13 14
ATOM     14  CG  GLN C   2     -31.197  24.508 -25.162  1.00 69.91 LIG 0.10  C 
BRANCH 14 15
ATOM     15  CD  GLN C   2     -32.206  23.648 -24.426  1.00 70.47 LIG 0.21  C 
ATOM     16 OE1  GLN C   2     -33.348  24.053 -24.213  1.00 73.69 LIG-0.27  OA
ATOM     17  NE2 GLN C   2     -31.787  22.449 -24.034  1.00 67.69 LIG-0.37  N 
ATOM     18 21HE GLN C   2     -30.982  22.200 -24.201  1.00 67.69 LIG 0.16  HD
ATOM     19 22HE GLN C   2     -32.322  21.923 -23.614  1.00 67.69 LIG 0.16  HD
ENDBRANCH 14 15
ENDBRANCH 13 14
ENDBRANCH 11 13
ENDBRANCH 9 11
ENDBRANCH 6 7
BRANCH 6 20
ATOM     20  CB  ILE C   3     -35.642  29.575 -27.854  1.00 50.18 LIG 0.01  C 
ATOM     21  CG2 ILE C   3     -34.311  30.232 -28.236  1.00 50.82 LIG 0.01  C 
BRANCH 20 22
ATOM     22  CG1 ILE C   3     -36.105  28.592 -28.935  1.00 50.01 LIG 0.00  C 
ATOM     23  CD1 ILE C   3     -34.998  28.074 -29.829  1.00 50.06 LIG 0.01  C 
ENDBRANCH 20 22
ENDBRANCH 6 20
ENDBRANCH 3 6
ENDBRANCH 1 2
BRANCH 1 24
ATOM     24  CB  LYS C   4     -39.093  26.308 -25.322  1.00 61.43 LIG 0.04  C 
BRANCH 24 25
ATOM     25  CG  LYS C   4     -39.507  26.934 -26.644  1.00 66.58 LIG 0.00  C 
BRANCH 25 26
ATOM     26  CD  LYS C   4     -39.284  25.965 -27.797  1.00 73.00 LIG 0.03  C 
BRANCH 26 27
ATOM     27  CE  LYS C   4     -37.817  25.875 -28.184  1.00 75.18 LIG 0.23  C 
BRANCH 27 28
ATOM     28  NZ  LYS C   4     -37.639  25.795 -29.661  1.00 76.64 LIG-0.08  N 
ATOM     29 HZ3  LYS C   4     -38.322  26.199 -30.065  1.00 76.64 LIG 0.27  HD
ATOM     30 HZ2  LYS C   4     -37.610  24.941 -29.911  1.00 76.64 LIG 0.27  HD
ATOM     31 HZ1  LYS C   4     -36.880  26.198 -29.891  1.00 76.64 LIG 0.27  HD
ENDBRANCH 27 28
ENDBRANCH 26 27
ENDBRANCH 25 26
ENDBRANCH 24 25
ENDBRANCH 1 24
BRANCH 1 32
ATOM     32  C   LYS C   4     -37.976  26.541 -23.084  1.00 57.21 LIG 0.24  C 
ATOM     33  N   ASN C   5     -36.736  26.096 -22.901  1.00 57.25 LIG-0.35  N 
ATOM     34 H    ASN C   5     -36.108  26.174 -23.483  1.00 57.25 LIG 0.16  HD
ATOM     35 O    LYS C   4     -38.864  26.422 -22.237  1.00 57.68 LIG-0.27  OA
BRANCH 33 36
ATOM     36  CA  ASN C   5     -36.337  25.425 -21.671  1.00 58.26 LIG 0.18  C 
BRANCH 36 37
ATOM     37  CB  ASN C   5     -34.888  24.947 -21.774  1.00 53.49 LIG 0.14  C 
BRANCH 37 38
ATOM     38  CG  ASN C   5     -34.561  23.860 -20.770  1.00 47.90 LIG 0.22  C 
ATOM     39 OD1  ASN C   5     -34.201  24.142 -19.626  1.00 45.37 LIG-0.27  OA
ATOM     40  ND2 ASN C   5     -34.683  22.607 -21.192  1.00 45.09 LIG-0.37  N 
ATOM     41 22HD ASN C   5     -34.937  22.448 -21.998  1.00 45.09 LIG 0.16  HD
ATOM     42 21HD ASN C   5     -34.508  21.955 -20.659  1.00 45.09 LIG 0.16  HD
ENDBRANCH 37 38
ENDBRANCH 36 37
BRANCH 36 43
ATOM     43  C   ASN C   5     -36.494  26.336 -20.458  1.00 62.82 LIG 0.24  C 
ATOM     44 O    ASN C   5     -36.185  27.531 -20.530  1.00 59.04 LIG-0.27  OA
ATOM     45  N   PRO C   6     -36.970  25.773 -19.353  1.00 69.97 LIG-0.34  N 
ATOM     46  CA  PRO C   6     -37.167  26.543 -18.119  1.00 73.90 LIG 0.18  C 
ATOM     47  CD  PRO C   6     -37.461  24.389 -19.229  1.00 74.49 LIG 0.13  C 
ATOM     48  CB  PRO C   6     -37.508  25.466 -17.089  1.00 75.59 LIG 0.04  C 
ATOM     49  CG  PRO C   6     -38.128  24.368 -17.882  1.00 76.33 LIG 0.02  C 
BRANCH 46 50
ATOM     50  C   PRO C   6     -35.909  27.299 -17.701  1.00 72.73 LIG 0.24  C 
ATOM     51 O    PRO C   6     -36.005  28.388 -17.135  1.00 74.17 LIG-0.27  OA
ATOM     52  N   ILE C   7     -34.746  26.723 -17.983  1.00 69.55 LIG-0.35  N 
ATOM     53 H    ILE C   7     -34.670  25.963 -18.380  1.00 69.55 LIG 0.16  HD
BRANCH 52 54
ATOM     54  CA  ILE C   7     -33.477  27.349 -17.633  1.00 67.58 LIG 0.17  C 
BRANCH 54 55
ATOM     55  CB  ILE C   7     -32.462  26.309 -17.122  1.00 70.68 LIG 0.01  C 
ATOM     56  CG2 ILE C   7     -31.235  27.003 -16.552  1.00 70.33 LIG 0.01  C 
BRANCH 55 57
ATOM     57  CG1 ILE C   7     -33.108  25.415 -16.062  1.00 72.59 LIG 0.00  C 
ATOM     58  CD1 ILE C   7     -32.697  23.962 -16.160  1.00 73.15 LIG 0.01  C 
ENDBRANCH 55 57
ENDBRANCH 54 55
BRANCH 54 59
ATOM     59  C   ILE C   7     -32.879  28.069 -18.837  1.00 63.70 LIG 0.22  C 
ATOM     60 O    ILE C   7     -33.153  27.715 -19.983  1.00 60.54 LIG-0.29  OA
ENDBRANCH 54 59
ENDBRANCH 52 54
ENDBRANCH 46 50
ENDBRANCH 36 43
ENDBRANCH 33 36
ENDBRANCH 1 32
TORSDOF 24
ENDMDL
MODEL 17
USER: ADFR SOLUTION from run 126
USER: SCORE 16.223794 LL:  -4.054 LR: -13.982 RR:   0.000 FEB:  -6.823
USER: RMSD 4.165515
USER: SEED 125
USER: STATUS no improvement in best in 7 clusters for 5 generations
USER: GENES 26
USER: genes 0 Translation |==|  0.45004 0.52423 0.30392
USER: genes 1 Rotation |==|  0.55683 0.37730 0.54651 0.97912
USER: genes 2 Torsion [CB]-CA--N-[C] |==|  0.30984
USER: genes 3 Torsion [N]-C--CA-[N] |==|  0.41060
USER: genes 4 Torsion [C]-CA--N-[C] |==|  0.78206
USER: genes 5 Torsion [N]-C--CA-[N] |==|  0.73706
USER: genes 6 Torsion [C]-CA--CB-[CG] |==|  0.31968
USER: genes 7 Torsion [CA]-CB--CG-[CD] |==|  0.60142
USER: genes 8 Torsion [CB]-CG--CD-[OE1] |==|  0.73757
USER: genes 9 Torsion [C]-CA--CB-[CG2] |==|  0.20500
USER: genes 10 Torsion [CA]-CB--CG1-[CD1] |==|  0.83366
USER: genes 11 Torsion [N]-CA--CB-[CG] |==|  0.68194
USER: genes 12 Torsion [CA]-CB--CG-[CD] |==|  0.06807
USER: genes 13 Torsion [CB]-CG--CD-[CE] |==|  0.67228
USER: genes 14 Torsion [CG]-CD--CE-[NZ] |==|  0.59854
USER: genes 15 Torsion [CD]-CE--NZ-[HZ1] |==|  0.13880
USER: genes 16 Torsion [N]-CA--C-[N] |==|  0.12248
USER: genes 17 Torsion [C]-N--CA-[C] |==|  0.80585
USER: genes 18 Torsion [N]-CA--CB-[CG] |==|  0.32515
USER: genes 19 Torsion [CA]-CB--CG-[OD1] |==|  0.18974
USER: genes 20 Torsion [N]-CA--C-[N] |==|  0.35003
USER: genes 21 Torsion [N]-CA--C-[O] |==|  0.75141
USER: genes 22 Torsion [C]-N--CA-[C] |==|  0.77542
USER: genes 23 Torsion [N]-CA--CB-[CG2] |==|  0.79265
USER: genes 24 Torsion [CA]-CB--CG1-[CD1] |==|  0.54044
USER: genes 25 Torsion [N]-CA--C-[O] |==|  0.35021
ROOT
ATOM      1  CA  LYS C   4     -38.734  27.028 -25.983  1.00 55.66 LIG 0.18  C 
ENDROOT
BRANCH 1 2
ATOM      2  N   LYS C   4     -39.673  26.054 -25.440  1.00 52.22 LIG-0.35  N 
ATOM      3  C   ILE C   3     -39.835  24.845 -25.971  1.00 49.48 LIG 0.24  C 
ATOM      4 O    ILE C   3     -39.233  24.462 -26.974  1.00 46.52 LIG-0.27  OA
ATOM      5 H    LYS C   4     -40.108  26.333 -24.753  1.00 52.22 LIG 0.16  HD
BRANCH 3 6
ATOM      6  CA  ILE C   3     -40.839  23.936 -25.265  1.00 52.28 LIG 0.18  C 
BRANCH 6 7
ATOM      7  N   ILE C   3     -41.492  23.057 -26.227  1.00 58.50 LIG-0.34  N 
ATOM      8 H    ILE C   3     -41.186  22.253 -26.241  1.00 58.50 LIG 0.16  HD
ATOM      9  C   GLN C   2     -42.478  23.492 -27.007  1.00 66.26 LIG 0.26  C 
ATOM     10 O    GLN C   2     -42.896  24.649 -26.971  1.00 73.27 LIG-0.27  OA
BRANCH 9 11
ATOM     11  CA  GLN C   2     -43.078  22.476 -27.973  1.00 65.71 LIG 0.40  C 
ATOM     12  N   GLN C   2     -42.444  22.573 -29.282  1.00 61.11 LIG 0.61  N 
BRANCH 11 13
ATOM     13  CB  GLN C   2     -42.930  21.061 -27.407  1.00 69.09 LIG 0.06  C 
BRANCH 13 14
ATOM     14  CG  GLN C   2     -44.255  20.376 -27.079  1.00 69.91 LIG 0.10  C 
BRANCH 14 15
ATOM     15  CD  GLN C   2     -44.180  19.512 -25.835  1.00 70.47 LIG 0.21  C 
ATOM     16 OE1  GLN C   2     -43.947  18.306 -25.916  1.00 73.69 LIG-0.27  OA
ATOM     17  NE2 GLN C   2     -44.375  20.127 -24.674  1.00 67.69 LIG-0.37  N 
ATOM     18 21HE GLN C   2     -44.535  20.972 -24.657  1.00 67.69 LIG 0.16  HD
ATOM     19 22HE GLN C   2     -44.341  19.681 -23.939  1.00 67.69 LIG 0.16  HD
ENDBRANCH 14 15
ENDBRANCH 13 14
ENDBRANCH 11 13
ENDBRANCH 9 11
ENDBRANCH 6 7
BRANCH 6 20
ATOM     20  CB  ILE C   3     -40.122  23.136 -24.160  1.00 50.18 LIG 0.01  C 
ATOM     21  CG2 ILE C   3     -39.801  24.041 -22.965  1.00 50.82 LIG 0.01  C 
BRANCH 20 22
ATOM     22  CG1 ILE C   3     -40.986  21.943 -23.733  1.00 50.01 LIG 0.00  C 
ATOM     23  CD1 ILE C   3     -42.348  22.317 -23.187  1.00 50.06 LIG 0.01  C 
ENDBRANCH 20 22
ENDBRANCH 6 20
ENDBRANCH 3 6
ENDBRANCH 1 2
BRANCH 1 24
ATOM     24  CB  LYS C   4     -39.487  28.206 -26.605  1.00 61.43 LIG 0.04  C 
BRANCH 24 25
ATOM     25  CG  LYS C   4     -39.319  28.340 -28.110  1.00 66.58 LIG 0.00  C 
BRANCH 25 26
ATOM     26  CD  LYS C   4     -38.964  26.999 -28.738  1.00 73.00 LIG 0.03  C 
BRANCH 26 27
ATOM     27  CE  LYS C   4     -37.601  27.035 -29.411  1.00 75.18 LIG 0.23  C 
BRANCH 27 28
ATOM     28  NZ  LYS C   4     -37.572  26.199 -30.644  1.00 76.64 LIG-0.08  N 
ATOM     29 HZ3  LYS C   4     -37.614  25.338 -30.421  1.00 76.64 LIG 0.27  HD
ATOM     30 HZ2  LYS C   4     -36.817  26.353 -31.090  1.00 76.64 LIG 0.27  HD
ATOM     31 HZ1  LYS C   4     -38.268  26.405 -31.159  1.00 76.64 LIG 0.27  HD
ENDBRANCH 27 28
ENDBRANCH 26 27
ENDBRANCH 25 26
ENDBRANCH 24 25
ENDBRANCH 1 24
BRANCH 1 32
ATOM     32  C   LYS C   4     -37.792  27.513 -24.884  1.00 57.21 LIG 0.24  C 
ATOM     33  N   ASN C   5     -37.295  26.579 -24.081  1.00 57.25 LIG-0.35  N 
ATOM     34 H    ASN C   5     -37.473  25.740 -24.151  1.00 57.25 LIG 0.16  HD
ATOM     35 O    LYS C   4     -37.524  28.711 -24.769  1.00 57.68 LIG-0.27  OA
BRANCH 33 36
ATOM     36  CA  ASN C   5     -36.387  26.910 -22.990  1.00 58.26 LIG 0.18  C 
BRANCH 36 37
ATOM     37  CB  ASN C   5     -36.216  25.709 -22.059  1.00 53.49 LIG 0.14  C 
BRANCH 37 38
ATOM     38  CG  ASN C   5     -34.789  25.198 -22.024  1.00 47.90 LIG 0.22  C 
ATOM     39 OD1  ASN C   5     -33.889  25.869 -21.517  1.00 45.37 LIG-0.27  OA
ATOM     40  ND2 ASN C   5     -34.574  24.005 -22.565  1.00 45.09 LIG-0.37  N 
ATOM     41 22HD ASN C   5     -35.227  23.565 -22.910  1.00 45.09 LIG 0.16  HD
ATOM     42 21HD ASN C   5     -33.781  23.672 -22.570  1.00 45.09 LIG 0.16  HD
ENDBRANCH 37 38
ENDBRANCH 36 37
BRANCH 36 43
ATOM     43  C   ASN C   5     -35.025  27.358 -23.509  1.00 62.82 LIG 0.24  C 
ATOM     44 O    ASN C   5     -34.390  26.643 -24.293  1.00 59.04 LIG-0.27  OA
ATOM     45  N   PRO C   6     -34.583  28.533 -23.074  1.00 69.97 LIG-0.34  N 
ATOM     46  CA  PRO C   6     -33.287  29.074 -23.500  1.00 73.90 LIG 0.18  C 
ATOM     47  CD  PRO C   6     -35.332  29.482 -22.232  1.00 74.49 LIG 0.13  C 
ATOM     48  CB  PRO C   6     -33.110  30.298 -22.600  1.00 75.59 LIG 0.04  C 
ATOM     49  CG  PRO C   6     -34.498  30.731 -22.276  1.00 76.33 LIG 0.02  C 
BRANCH 46 50
ATOM     50  C   PRO C   6     -32.146  28.084 -23.282  1.00 72.73 LIG 0.24  C 
ATOM     51 O    PRO C   6     -31.535  28.074 -22.212  1.00 74.17 LIG-0.27  OA
ATOM     52  N   ILE C   7     -31.866  27.266 -24.290  1.00 69.55 LIG-0.35  N 
ATOM     53 H    ILE C   7     -32.286  27.268 -25.041  1.00 69.55 LIG 0.16  HD
BRANCH 52 54
ATOM     54  CA  ILE C   7     -30.798  26.278 -24.200  1.00 67.58 LIG 0.17  C 
BRANCH 54 55
ATOM     55  CB  ILE C   7     -31.009  25.132 -25.207  1.00 70.68 LIG 0.01  C 
ATOM     56  CG2 ILE C   7     -32.121  24.209 -24.732  1.00 70.33 LIG 0.01  C 
BRANCH 55 57
ATOM     57  CG1 ILE C   7     -31.339  25.696 -26.590  1.00 72.59 LIG 0.00  C 
ATOM     58  CD1 ILE C   7     -31.899  24.668 -27.548  1.00 73.15 LIG 0.01  C 
ENDBRANCH 55 57
ENDBRANCH 54 55
BRANCH 54 59
ATOM     59  C   ILE C   7     -29.441  26.922 -24.466  1.00 63.70 LIG 0.22  C 
ATOM     60 O    ILE C   7     -28.519  26.804 -23.659  1.00 60.54 LIG-0.29  OA
ENDBRANCH 54 59
ENDBRANCH 52 54
ENDBRANCH 46 50
ENDBRANCH 36 43
ENDBRANCH 33 36
ENDBRANCH 1 32
TORSDOF 24
ENDMDL
MODEL 18
USER: ADFR SOLUTION from run 41
USER: SCORE 15.690787 LL:  -3.927 LR: -13.979 RR:   0.000 FEB:  -6.820
USER: RMSD 10.385583
USER: SEED 40
USER: STATUS no improvement in best in 10 clusters for 5 generations
USER: GENES 26
USER: genes 0 Translation |==|  0.59911 0.58500 0.28423
USER: genes 1 Rotation |==|  0.72809 0.27194 0.83361 0.68619
USER: genes 2 Torsion [CB]-CA--N-[C] |==|  0.40874
USER: genes 3 Torsion [N]-C--CA-[N] |==|  0.17703
USER: genes 4 Torsion [C]-CA--N-[C] |==|  0.60556
USER: genes 5 Torsion [N]-C--CA-[N] |==|  0.92089
USER: genes 6 Torsion [C]-CA--CB-[CG] |==|  0.07974
USER: genes 7 Torsion [CA]-CB--CG-[CD] |==|  0.42446
USER: genes 8 Torsion [CB]-CG--CD-[OE1] |==|  0.24703
USER: genes 9 Torsion [C]-CA--CB-[CG2] |==|  0.31883
USER: genes 10 Torsion [CA]-CB--CG1-[CD1] |==|  0.49833
USER: genes 11 Torsion [N]-CA--CB-[CG] |==|  0.80407
USER: genes 12 Torsion [CA]-CB--CG-[CD] |==|  0.42935
USER: genes 13 Torsion [CB]-CG--CD-[CE] |==|  0.03073
USER: genes 14 Torsion [CG]-CD--CE-[NZ] |==|  0.65962
USER: genes 15 Torsion [CD]-CE--NZ-[HZ1] |==|  0.58116
USER: genes 16 Torsion [N]-CA--C-[N] |==|  0.55780
USER: genes 17 Torsion [C]-N--CA-[C] |==|  0.82075
USER: genes 18 Torsion [N]-CA--CB-[CG] |==|  0.24960
USER: genes 19 Torsion [CA]-CB--CG-[OD1] |==|  0.26003
USER: genes 20 Torsion [N]-CA--C-[N] |==|  0.40238
USER: genes 21 Torsion [N]-CA--C-[O] |==|  0.78570
USER: genes 22 Torsion [C]-N--CA-[C] |==|  0.64935
USER: genes 23 Torsion [N]-CA--CB-[CG2] |==|  0.80607
USER: genes 24 Torsion [CA]-CB--CG1-[CD1] |==|  0.64361
USER: genes 25 Torsion [N]-CA--C-[O] |==|  0.27408
ROOT
ATOM      1  CA  LYS C   4     -35.268  28.168 -26.367  1.00 55.66 LIG 0.18  C 
ENDROOT
BRANCH 1 2
ATOM      2  N   LYS C   4     -34.192  27.221 -26.637  1.00 52.22 LIG-0.35  N 
ATOM      3  C   ILE C   3     -32.953  27.399 -26.189  1.00 49.48 LIG 0.24  C 
ATOM      4 O    ILE C   3     -32.606  28.386 -25.539  1.00 46.52 LIG-0.27  OA
ATOM      5 H    LYS C   4     -34.433  26.544 -27.110  1.00 52.22 LIG 0.16  HD
BRANCH 3 6
ATOM      6  CA  ILE C   3     -31.953  26.300 -26.538  1.00 52.28 LIG 0.18  C 
BRANCH 6 7
ATOM      7  N   ILE C   3     -31.765  26.225 -27.981  1.00 58.50 LIG-0.34  N 
ATOM      8 H    ILE C   3     -31.760  26.987 -28.381  1.00 58.50 LIG 0.16  HD
ATOM      9  C   GLN C   2     -31.615  25.058 -28.602  1.00 66.26 LIG 0.26  C 
ATOM     10 O    GLN C   2     -31.629  23.980 -28.007  1.00 73.27 LIG-0.27  OA
BRANCH 9 11
ATOM     11  CA  GLN C   2     -31.429  25.112 -30.114  1.00 65.71 LIG 0.40  C 
ATOM     12  N   GLN C   2     -32.087  26.286 -30.674  1.00 61.11 LIG 0.61  N 
BRANCH 11 13
ATOM     13  CB  GLN C   2     -29.937  25.115 -30.460  1.00 69.09 LIG 0.06  C 
BRANCH 13 14
ATOM     14  CG  GLN C   2     -29.055  24.402 -29.436  1.00 69.91 LIG 0.10  C 
BRANCH 14 15
ATOM     15  CD  GLN C   2     -27.783  23.843 -30.043  1.00 70.47 LIG 0.21  C 
ATOM     16 OE1  GLN C   2     -26.761  24.524 -30.110  1.00 73.69 LIG-0.27  OA
ATOM     17  NE2 GLN C   2     -27.840  22.592 -30.489  1.00 67.69 LIG-0.37  N 
ATOM     18 21HE GLN C   2     -28.573  22.146 -30.424  1.00 67.69 LIG 0.16  HD
ATOM     19 22HE GLN C   2     -27.145  22.229 -30.840  1.00 67.69 LIG 0.16  HD
ENDBRANCH 14 15
ENDBRANCH 13 14
ENDBRANCH 11 13
ENDBRANCH 9 11
ENDBRANCH 6 7
BRANCH 6 20
ATOM     20  CB  ILE C   3     -30.622  26.562 -25.804  1.00 50.18 LIG 0.01  C 
ATOM     21  CG2 ILE C   3     -30.346  25.451 -24.784  1.00 50.82 LIG 0.01  C 
BRANCH 20 22
ATOM     22  CG1 ILE C   3     -29.479  26.677 -26.819  1.00 50.01 LIG 0.00  C 
ATOM     23  CD1 ILE C   3     -28.120  26.949 -26.208  1.00 50.06 LIG 0.01  C 
ENDBRANCH 20 22
ENDBRANCH 6 20
ENDBRANCH 3 6
ENDBRANCH 1 2
BRANCH 1 24
ATOM     24  CB  LYS C   4     -36.247  28.213 -27.542  1.00 61.43 LIG 0.04  C 
BRANCH 24 25
ATOM     25  CG  LYS C   4     -35.697  28.870 -28.797  1.00 66.58 LIG 0.00  C 
BRANCH 25 26
ATOM     26  CD  LYS C   4     -36.409  28.351 -30.039  1.00 73.00 LIG 0.03  C 
BRANCH 26 27
ATOM     27  CE  LYS C   4     -37.641  27.535 -29.683  1.00 75.18 LIG 0.23  C 
BRANCH 27 28
ATOM     28  NZ  LYS C   4     -37.572  26.157 -30.246  1.00 76.64 LIG-0.08  N 
ATOM     29 HZ3  LYS C   4     -37.170  25.618 -29.663  1.00 76.64 LIG 0.27  HD
ATOM     30 HZ2  LYS C   4     -37.109  26.169 -31.006  1.00 76.64 LIG 0.27  HD
ATOM     31 HZ1  LYS C   4     -38.396  25.860 -30.405  1.00 76.64 LIG 0.27  HD
ENDBRANCH 27 28
ENDBRANCH 26 27
ENDBRANCH 25 26
ENDBRANCH 24 25
ENDBRANCH 1 24
BRANCH 1 32
ATOM     32  C   LYS C   4     -35.991  27.782 -25.080  1.00 57.21 LIG 0.24  C 
ATOM     33  N   ASN C   5     -37.220  28.265 -24.929  1.00 57.25 LIG-0.35  N 
ATOM     34 H    ASN C   5     -37.613  28.768 -25.506  1.00 57.25 LIG 0.16  HD
ATOM     35 O    LYS C   4     -35.445  27.062 -24.242  1.00 57.68 LIG-0.27  OA
BRANCH 33 36
ATOM     36  CA  ASN C   5     -38.017  27.975 -23.744  1.00 58.26 LIG 0.18  C 
BRANCH 36 37
ATOM     37  CB  ASN C   5     -39.310  28.791 -23.762  1.00 53.49 LIG 0.14  C 
BRANCH 37 38
ATOM     38  CG  ASN C   5     -40.446  28.068 -24.459  1.00 47.90 LIG 0.22  C 
ATOM     39 OD1  ASN C   5     -41.247  27.384 -23.821  1.00 45.37 LIG-0.27  OA
ATOM     40  ND2 ASN C   5     -40.521  28.215 -25.776  1.00 45.09 LIG-0.37  N 
ATOM     41 22HD ASN C   5     -39.944  28.700 -26.189  1.00 45.09 LIG 0.16  HD
ATOM     42 21HD ASN C   5     -41.148  27.823 -26.217  1.00 45.09 LIG 0.16  HD
ENDBRANCH 37 38
ENDBRANCH 36 37
BRANCH 36 43
ATOM     43  C   ASN C   5     -38.347  26.490 -23.638  1.00 62.82 LIG 0.24  C 
ATOM     44 O    ASN C   5     -38.557  25.823 -24.658  1.00 59.04 LIG-0.27  OA
ATOM     45  N   PRO C   6     -38.391  25.979 -22.413  1.00 69.97 LIG-0.34  N 
ATOM     46  CA  PRO C   6     -38.697  24.563 -22.179  1.00 73.90 LIG 0.18  C 
ATOM     47  CD  PRO C   6     -38.043  26.685 -21.167  1.00 74.49 LIG 0.13  C 
ATOM     48  CB  PRO C   6     -38.851  24.488 -20.659  1.00 75.59 LIG 0.04  C 
ATOM     49  CG  PRO C   6     -37.995  25.590 -20.139  1.00 76.33 LIG 0.02  C 
BRANCH 46 50
ATOM     50  C   PRO C   6     -39.989  24.129 -22.865  1.00 72.73 LIG 0.24  C 
ATOM     51 O    PRO C   6     -41.078  24.430 -22.376  1.00 74.17 LIG-0.27  OA
ATOM     52  N   ILE C   7     -39.862  23.426 -23.986  1.00 69.55 LIG-0.35  N 
ATOM     53 H    ILE C   7     -39.105  23.210 -24.333  1.00 69.55 LIG 0.16  HD
BRANCH 52 54
ATOM     54  CA  ILE C   7     -41.023  22.956 -24.731  1.00 67.58 LIG 0.17  C 
BRANCH 54 55
ATOM     55  CB  ILE C   7     -41.139  23.665 -26.092  1.00 70.68 LIG 0.01  C 
ATOM     56  CG2 ILE C   7     -41.520  25.124 -25.899  1.00 70.33 LIG 0.01  C 
BRANCH 55 57
ATOM     57  CG1 ILE C   7     -39.820  23.557 -26.860  1.00 72.59 LIG 0.00  C 
ATOM     58  CD1 ILE C   7     -39.298  24.885 -27.362  1.00 73.15 LIG 0.01  C 
ENDBRANCH 55 57
ENDBRANCH 54 55
BRANCH 54 59
ATOM     59  C   ILE C   7     -40.943  21.451 -24.965  1.00 63.70 LIG 0.22  C 
ATOM     60 O    ILE C   7     -41.556  20.667 -24.242  1.00 60.54 LIG-0.29  OA
ENDBRANCH 54 59
ENDBRANCH 52 54
ENDBRANCH 46 50
ENDBRANCH 36 43
ENDBRANCH 33 36
ENDBRANCH 1 32
TORSDOF 24
ENDMDL
MODEL 19
USER: ADFR SOLUTION from run 46
USER: SCORE 17.777425 LL:  -4.919 LR: -13.925 RR:   0.000 FEB:  -6.766
USER: RMSD 5.254946
USER: SEED 45
USER: STATUS no improvement in best in 1 clusters for 5 generations
USER: GENES 26
USER: genes 0 Translation |==|  0.45808 0.39843 0.56176
USER: genes 1 Rotation |==|  0.95209 0.68735 0.58827 0.55220
USER: genes 2 Torsion [CB]-CA--N-[C] |==|  0.16848
USER: genes 3 Torsion [N]-C--CA-[N] |==|  0.94049
USER: genes 4 Torsion [C]-CA--N-[C] |==|  0.77231
USER: genes 5 Torsion [N]-C--CA-[N] |==|  0.76044
USER: genes 6 Torsion [C]-CA--CB-[CG] |==|  0.14890
USER: genes 7 Torsion [CA]-CB--CG-[CD] |==|  0.17232
USER: genes 8 Torsion [CB]-CG--CD-[OE1] |==|  0.85470
USER: genes 9 Torsion [C]-CA--CB-[CG2] |==|  0.21792
USER: genes 10 Torsion [CA]-CB--CG1-[CD1] |==|  0.78057
USER: genes 11 Torsion [N]-CA--CB-[CG] |==|  0.53147
USER: genes 12 Torsion [CA]-CB--CG-[CD] |==|  0.34842
USER: genes 13 Torsion [CB]-CG--CD-[CE] |==|  0.82718
USER: genes 14 Torsion [CG]-CD--CE-[NZ] |==|  0.25252
USER: genes 15 Torsion [CD]-CE--NZ-[HZ1] |==|  0.54630
USER: genes 16 Torsion [N]-CA--C-[N] |==|  0.91539
USER: genes 17 Torsion [C]-N--CA-[C] |==|  0.65903
USER: genes 18 Torsion [N]-CA--CB-[CG] |==|  0.87012
USER: genes 19 Torsion [CA]-CB--CG-[OD1] |==|  0.81249
USER: genes 20 Torsion [N]-CA--C-[N] |==|  0.45957
USER: genes 21 Torsion [N]-CA--C-[O] |==|  0.40262
USER: genes 22 Torsion [C]-N--CA-[C] |==|  0.56941
USER: genes 23 Torsion [N]-CA--CB-[CG2] |==|  0.09732
USER: genes 24 Torsion [CA]-CB--CG1-[CD1] |==|  0.29655
USER: genes 25 Torsion [N]-CA--C-[O] |==|  0.98650
ROOT
ATOM      1  CA  LYS C   4     -38.547  24.670 -20.955  1.00 55.66 LIG 0.18  C 
ENDROOT
BRANCH 1 2
ATOM      2  N   LYS C   4     -38.925  24.563 -22.359  1.00 52.22 LIG-0.35  N 
ATOM      3  C   ILE C   3     -40.092  24.058 -22.749  1.00 49.48 LIG 0.24  C 
ATOM      4 O    ILE C   3     -40.931  23.613 -21.965  1.00 46.52 LIG-0.27  OA
ATOM      5 H    LYS C   4     -38.328  24.855 -22.905  1.00 52.22 LIG 0.16  HD
BRANCH 3 6
ATOM      6  CA  ILE C   3     -40.343  24.044 -24.254  1.00 52.28 LIG 0.18  C 
BRANCH 6 7
ATOM      7  N   ILE C   3     -39.494  25.024 -24.920  1.00 58.50 LIG-0.34  N 
ATOM      8 H    ILE C   3     -38.777  24.698 -25.267  1.00 58.50 LIG 0.16  HD
ATOM      9  C   GLN C   2     -39.827  26.310 -24.971  1.00 66.26 LIG 0.26  C 
ATOM     10 O    GLN C   2     -40.857  26.753 -24.465  1.00 73.27 LIG-0.27  OA
BRANCH 9 11
ATOM     11  CA  GLN C   2     -38.854  27.235 -25.694  1.00 65.71 LIG 0.40  C 
ATOM     12  N   GLN C   2     -37.810  27.697 -24.788  1.00 61.11 LIG 0.61  N 
BRANCH 11 13
ATOM     13  CB  GLN C   2     -38.241  26.516 -26.899  1.00 69.09 LIG 0.06  C 
BRANCH 13 14
ATOM     14  CG  GLN C   2     -39.267  25.918 -27.860  1.00 69.91 LIG 0.10  C 
BRANCH 14 15
ATOM     15  CD  GLN C   2     -40.164  26.965 -28.490  1.00 70.47 LIG 0.21  C 
ATOM     16 OE1  GLN C   2     -40.771  27.779 -27.796  1.00 73.69 LIG-0.27  OA
ATOM     17  NE2 GLN C   2     -40.251  26.950 -29.816  1.00 67.69 LIG-0.37  N 
ATOM     18 21HE GLN C   2     -39.812  26.366 -30.269  1.00 67.69 LIG 0.16  HD
ATOM     19 22HE GLN C   2     -40.747  27.524 -30.222  1.00 67.69 LIG 0.16  HD
ENDBRANCH 14 15
ENDBRANCH 13 14
ENDBRANCH 11 13
ENDBRANCH 9 11
ENDBRANCH 6 7
BRANCH 6 20
ATOM     20  CB  ILE C   3     -40.108  22.622 -24.804  1.00 50.18 LIG 0.01  C 
ATOM     21  CG2 ILE C   3     -41.314  21.726 -24.501  1.00 50.82 LIG 0.01  C 
BRANCH 20 22
ATOM     22  CG1 ILE C   3     -39.827  22.683 -26.309  1.00 50.01 LIG 0.00  C 
ATOM     23  CD1 ILE C   3     -41.060  22.848 -27.173  1.00 50.06 LIG 0.01  C 
ENDBRANCH 20 22
ENDBRANCH 6 20
ENDBRANCH 3 6
ENDBRANCH 1 2
BRANCH 1 24
ATOM     24  CB  LYS C   4     -38.513  23.285 -20.305  1.00 61.43 LIG 0.04  C 
BRANCH 24 25
ATOM     25  CG  LYS C   4     -38.397  23.300 -18.790  1.00 66.58 LIG 0.00  C 
BRANCH 25 26
ATOM     26  CD  LYS C   4     -39.519  22.494 -18.150  1.00 73.00 LIG 0.03  C 
BRANCH 26 27
ATOM     27  CE  LYS C   4     -40.886  23.081 -18.466  1.00 75.18 LIG 0.23  C 
BRANCH 27 28
ATOM     28  NZ  LYS C   4     -41.470  22.488 -19.702  1.00 76.64 LIG-0.08  N 
ATOM     29 HZ3  LYS C   4     -41.784  21.675 -19.521  1.00 76.64 LIG 0.27  HD
ATOM     30 HZ2  LYS C   4     -40.841  22.430 -20.329  1.00 76.64 LIG 0.27  HD
ATOM     31 HZ1  LYS C   4     -42.134  23.004 -19.993  1.00 76.64 LIG 0.27  HD
ENDBRANCH 27 28
ENDBRANCH 26 27
ENDBRANCH 25 26
ENDBRANCH 24 25
ENDBRANCH 1 24
BRANCH 1 32
ATOM     32  C   LYS C   4     -37.189  25.354 -20.830  1.00 57.21 LIG 0.24  C 
ATOM     33  N   ASN C   5     -36.342  25.168 -21.838  1.00 57.25 LIG-0.35  N 
ATOM     34 H    ASN C   5     -36.520  24.696 -22.534  1.00 57.25 LIG 0.16  HD
ATOM     35 O    LYS C   4     -36.916  26.035 -19.840  1.00 57.68 LIG-0.27  OA
BRANCH 33 36
ATOM     36  CA  ASN C   5     -35.012  25.763 -21.840  1.00 58.26 LIG 0.18  C 
BRANCH 36 37
ATOM     37  CB  ASN C   5     -33.942  24.672 -21.787  1.00 53.49 LIG 0.14  C 
BRANCH 37 38
ATOM     38  CG  ASN C   5     -34.235  23.621 -20.733  1.00 47.90 LIG 0.22  C 
ATOM     39 OD1  ASN C   5     -34.197  23.900 -19.534  1.00 45.37 LIG-0.27  OA
ATOM     40  ND2 ASN C   5     -34.528  22.405 -21.175  1.00 45.09 LIG-0.37  N 
ATOM     41 22HD ASN C   5     -34.546  22.246 -22.020  1.00 45.09 LIG 0.16  HD
ATOM     42 21HD ASN C   5     -34.702  21.774 -20.616  1.00 45.09 LIG 0.16  HD
ENDBRANCH 37 38
ENDBRANCH 36 37
BRANCH 36 43
ATOM     43  C   ASN C   5     -34.791  26.641 -23.067  1.00 62.82 LIG 0.24  C 
ATOM     44 O    ASN C   5     -35.561  26.571 -24.032  1.00 59.04 LIG-0.27  OA
ATOM     45  N   PRO C   6     -33.746  27.461 -23.028  1.00 69.97 LIG-0.34  N 
ATOM     46  CA  PRO C   6     -33.427  28.357 -24.146  1.00 73.90 LIG 0.18  C 
ATOM     47  CD  PRO C   6     -32.857  27.676 -21.873  1.00 74.49 LIG 0.13  C 
ATOM     48  CB  PRO C   6     -32.063  28.926 -23.756  1.00 75.59 LIG 0.04  C 
ATOM     49  CG  PRO C   6     -32.046  28.878 -22.267  1.00 76.33 LIG 0.02  C 
BRANCH 46 50
ATOM     50  C   PRO C   6     -33.333  27.613 -25.475  1.00 72.73 LIG 0.24  C 
ATOM     51 O    PRO C   6     -33.709  28.156 -26.514  1.00 74.17 LIG-0.27  OA
ATOM     52  N   ILE C   7     -32.836  26.381 -25.435  1.00 69.55 LIG-0.35  N 
ATOM     53 H    ILE C   7     -32.572  25.993 -24.713  1.00 69.55 LIG 0.16  HD
BRANCH 52 54
ATOM     54  CA  ILE C   7     -32.696  25.572 -26.639  1.00 67.58 LIG 0.17  C 
BRANCH 54 55
ATOM     55  CB  ILE C   7     -31.390  25.900 -27.385  1.00 70.68 LIG 0.01  C 
ATOM     56  CG2 ILE C   7     -30.284  26.230 -26.395  1.00 70.33 LIG 0.01  C 
BRANCH 55 57
ATOM     57  CG1 ILE C   7     -30.977  24.725 -28.273  1.00 72.59 LIG 0.00  C 
ATOM     58  CD1 ILE C   7     -31.192  24.973 -29.750  1.00 73.15 LIG 0.01  C 
ENDBRANCH 55 57
ENDBRANCH 54 55
BRANCH 54 59
ATOM     59  C   ILE C   7     -32.707  24.086 -26.297  1.00 63.70 LIG 0.22  C 
ATOM     60 O    ILE C   7     -32.733  23.709 -25.126  1.00 60.54 LIG-0.29  OA
ENDBRANCH 54 59
ENDBRANCH 52 54
ENDBRANCH 46 50
ENDBRANCH 36 43
ENDBRANCH 33 36
ENDBRANCH 1 32
TORSDOF 24
ENDMDL
MODEL 20
USER: ADFR SOLUTION from run 53
USER: SCORE 17.776293 LL:  -4.539 LR: -13.855 RR:   0.000 FEB:  -6.696
USER: RMSD 4.178719
USER: SEED 52
USER: STATUS no improvement in best in 6 clusters for 5 generations
USER: GENES 26
USER: genes 0 Translation |==|  0.43950 0.46292 0.32606
USER: genes 1 Rotation |==|  0.50090 0.44004 0.63541 0.97756
USER: genes 2 Torsion [CB]-CA--N-[C] |==|  0.21654
USER: genes 3 Torsion [N]-C--CA-[N] |==|  0.00863
USER: genes 4 Torsion [C]-CA--N-[C] |==|  0.76936
USER: genes 5 Torsion [N]-C--CA-[N] |==|  0.89823
USER: genes 6 Torsion [C]-CA--CB-[CG] |==|  0.84789
USER: genes 7 Torsion [CA]-CB--CG-[CD] |==|  0.49609
USER: genes 8 Torsion [CB]-CG--CD-[OE1] |==|  0.06233
USER: genes 9 Torsion [C]-CA--CB-[CG2] |==|  0.25243
USER: genes 10 Torsion [CA]-CB--CG1-[CD1] |==|  0.27286
USER: genes 11 Torsion [N]-CA--CB-[CG] |==|  0.64453
USER: genes 12 Torsion [CA]-CB--CG-[CD] |==|  0.82410
USER: genes 13 Torsion [CB]-CG--CD-[CE] |==|  0.27089
USER: genes 14 Torsion [CG]-CD--CE-[NZ] |==|  0.26332
USER: genes 15 Torsion [CD]-CE--NZ-[HZ1] |==|  0.65770
USER: genes 16 Torsion [N]-CA--C-[N] |==|  0.08404
USER: genes 17 Torsion [C]-N--CA-[C] |==|  0.77844
USER: genes 18 Torsion [N]-CA--CB-[CG] |==|  0.23623
USER: genes 19 Torsion [CA]-CB--CG-[OD1] |==|  0.28225
USER: genes 20 Torsion [N]-CA--C-[N] |==|  0.42517
USER: genes 21 Torsion [N]-CA--C-[O] |==|  0.73589
USER: genes 22 Torsion [C]-N--CA-[C] |==|  0.75263
USER: genes 23 Torsion [N]-CA--CB-[CG2] |==|  0.79887
USER: genes 24 Torsion [CA]-CB--CG1-[CD1] |==|  0.29562
USER: genes 25 Torsion [N]-CA--C-[O] |==|  0.31800
ROOT
ATOM      1  CA  LYS C   4     -38.979  25.879 -25.551  1.00 55.66 LIG 0.18  C 
ENDROOT
BRANCH 1 2
ATOM      2  N   LYS C   4     -39.465  24.930 -24.556  1.00 52.22 LIG-0.35  N 
ATOM      3  C   ILE C   3     -39.883  23.709 -24.878  1.00 49.48 LIG 0.24  C 
ATOM      4 O    ILE C   3     -39.923  23.291 -26.035  1.00 46.52 LIG-0.27  OA
ATOM      5 H    LYS C   4     -39.456  25.232 -23.751  1.00 52.22 LIG 0.16  HD
BRANCH 3 6
ATOM      6  CA  ILE C   3     -40.335  22.830 -23.714  1.00 52.28 LIG 0.18  C 
BRANCH 6 7
ATOM      7  N   ILE C   3     -40.274  23.575 -22.462  1.00 58.50 LIG-0.34  N 
ATOM      8 H    ILE C   3     -41.023  23.918 -22.214  1.00 58.50 LIG 0.16  HD
ATOM      9  C   GLN C   2     -39.138  23.697 -21.781  1.00 66.26 LIG 0.26  C 
ATOM     10 O    GLN C   2     -38.078  23.199 -22.159  1.00 73.27 LIG-0.27  OA
BRANCH 9 11
ATOM     11  CA  GLN C   2     -39.204  24.503 -20.488  1.00 65.71 LIG 0.40  C 
ATOM     12  N   GLN C   2     -40.118  25.629 -20.628  1.00 61.11 LIG 0.61  N 
BRANCH 11 13
ATOM     13  CB  GLN C   2     -39.635  23.601 -19.329  1.00 69.09 LIG 0.06  C 
BRANCH 13 14
ATOM     14  CG  GLN C   2     -40.947  22.856 -19.568  1.00 69.91 LIG 0.10  C 
BRANCH 14 15
ATOM     15  CD  GLN C   2     -41.327  21.946 -18.416  1.00 70.47 LIG 0.21  C 
ATOM     16 OE1  GLN C   2     -40.883  22.139 -17.285  1.00 73.69 LIG-0.27  OA
ATOM     17  NE2 GLN C   2     -42.157  20.948 -18.699  1.00 67.69 LIG-0.37  N 
ATOM     18 21HE GLN C   2     -42.447  20.845 -19.501  1.00 67.69 LIG 0.16  HD
ATOM     19 22HE GLN C   2     -42.403  20.405 -18.079  1.00 67.69 LIG 0.16  HD
ENDBRANCH 14 15
ENDBRANCH 13 14
ENDBRANCH 11 13
ENDBRANCH 9 11
ENDBRANCH 6 7
BRANCH 6 20
ATOM     20  CB  ILE C   3     -41.756  22.298 -23.989  1.00 50.18 LIG 0.01  C 
ATOM     21  CG2 ILE C   3     -41.691  20.951 -24.718  1.00 50.82 LIG 0.01  C 
BRANCH 20 22
ATOM     22  CG1 ILE C   3     -42.534  22.179 -22.674  1.00 50.01 LIG 0.00  C 
ATOM     23  CD1 ILE C   3     -43.460  23.342 -22.384  1.00 50.06 LIG 0.01  C 
ENDBRANCH 20 22
ENDBRANCH 6 20
ENDBRANCH 3 6
ENDBRANCH 1 2
BRANCH 1 24
ATOM     24  CB  LYS C   4     -40.152  26.514 -26.299  1.00 61.43 LIG 0.04  C 
BRANCH 24 25
ATOM     25  CG  LYS C   4     -40.050  26.438 -27.814  1.00 66.58 LIG 0.00  C 
BRANCH 25 26
ATOM     26  CD  LYS C   4     -38.844  27.218 -28.318  1.00 73.00 LIG 0.03  C 
BRANCH 26 27
ATOM     27  CE  LYS C   4     -37.650  26.311 -28.568  1.00 75.18 LIG 0.23  C 
BRANCH 27 28
ATOM     28  NZ  LYS C   4     -37.572  25.880 -29.992  1.00 76.64 LIG-0.08  N 
ATOM     29 HZ3  LYS C   4     -36.822  26.192 -30.357  1.00 76.64 LIG 0.27  HD
ATOM     30 HZ2  LYS C   4     -38.274  26.198 -30.438  1.00 76.64 LIG 0.27  HD
ATOM     31 HZ1  LYS C   4     -37.572  24.991 -30.034  1.00 76.64 LIG 0.27  HD
ENDBRANCH 27 28
ENDBRANCH 26 27
ENDBRANCH 25 26
ENDBRANCH 24 25
ENDBRANCH 1 24
BRANCH 1 32
ATOM     32  C   LYS C   4     -38.128  26.951 -24.877  1.00 57.21 LIG 0.24  C 
ATOM     33  N   ASN C   5     -37.466  26.577 -23.786  1.00 57.25 LIG-0.35  N 
ATOM     34 H    ASN C   5     -37.494  25.784 -23.456  1.00 57.25 LIG 0.16  HD
ATOM     35 O    LYS C   4     -38.074  28.093 -25.337  1.00 57.68 LIG-0.27  OA
BRANCH 33 36
ATOM     36  CA  ASN C   5     -36.621  27.507 -23.047  1.00 58.26 LIG 0.18  C 
BRANCH 36 37
ATOM     37  CB  ASN C   5     -36.434  27.023 -21.609  1.00 53.49 LIG 0.14  C 
BRANCH 37 38
ATOM     38  CG  ASN C   5     -35.301  26.024 -21.473  1.00 47.90 LIG 0.22  C 
ATOM     39 OD1  ASN C   5     -34.203  26.368 -21.034  1.00 45.37 LIG-0.27  OA
ATOM     40  ND2 ASN C   5     -35.562  24.779 -21.853  1.00 45.09 LIG-0.37  N 
ATOM     41 22HD ASN C   5     -36.340  24.575 -22.155  1.00 45.09 LIG 0.16  HD
ATOM     42 21HD ASN C   5     -34.951  24.175 -21.795  1.00 45.09 LIG 0.16  HD
ENDBRANCH 37 38
ENDBRANCH 36 37
BRANCH 36 43
ATOM     43  C   ASN C   5     -35.261  27.681 -23.713  1.00 62.82 LIG 0.24  C 
ATOM     44 O    ASN C   5     -34.786  26.777 -24.409  1.00 59.04 LIG-0.27  OA
ATOM     45  N   PRO C   6     -34.642  28.838 -23.501  1.00 69.97 LIG-0.34  N 
ATOM     46  CA  PRO C   6     -33.328  29.127 -24.087  1.00 73.90 LIG 0.18  C 
ATOM     47  CD  PRO C   6     -35.196  29.996 -22.779  1.00 74.49 LIG 0.13  C 
ATOM     48  CB  PRO C   6     -32.927  30.438 -23.408  1.00 75.59 LIG 0.04  C 
ATOM     49  CG  PRO C   6     -34.219  31.099 -23.074  1.00 76.33 LIG 0.02  C 
BRANCH 46 50
ATOM     50  C   PRO C   6     -32.305  28.036 -23.783  1.00 72.73 LIG 0.24  C 
ATOM     51 O    PRO C   6     -31.544  28.156 -22.822  1.00 74.17 LIG-0.27  OA
ATOM     52  N   ILE C   7     -32.291  26.988 -24.599  1.00 69.55 LIG-0.35  N 
ATOM     53 H    ILE C   7     -32.818  26.897 -25.273  1.00 69.55 LIG 0.16  HD
BRANCH 52 54
ATOM     54  CA  ILE C   7     -31.359  25.883 -24.409  1.00 67.58 LIG 0.17  C 
BRANCH 54 55
ATOM     55  CB  ILE C   7     -31.957  24.555 -24.908  1.00 70.68 LIG 0.01  C 
ATOM     56  CG2 ILE C   7     -33.045  24.075 -23.960  1.00 70.33 LIG 0.01  C 
BRANCH 55 57
ATOM     57  CG1 ILE C   7     -32.519  24.724 -26.321  1.00 72.59 LIG 0.00  C 
ATOM     58  CD1 ILE C   7     -31.671  24.075 -27.393  1.00 73.15 LIG 0.01  C 
ENDBRANCH 55 57
ENDBRANCH 54 55
BRANCH 54 59
ATOM     59  C   ILE C   7     -30.053  26.144 -25.152  1.00 63.70 LIG 0.22  C 
ATOM     60 O    ILE C   7     -28.999  26.303 -24.537  1.00 60.54 LIG-0.29  OA
ENDBRANCH 54 59
ENDBRANCH 52 54
ENDBRANCH 46 50
ENDBRANCH 36 43
ENDBRANCH 33 36
ENDBRANCH 1 32
TORSDOF 24
ENDMDL
MODEL 21
USER: ADFR SOLUTION from run 157
USER: SCORE 16.880310 LL:  -3.786 LR: -13.840 RR:   0.000 FEB:  -6.680
USER: RMSD 5.360169
USER: SEED 156
USER: STATUS no improvement in best in 9 clusters for 5 generations
USER: GENES 26
USER: genes 0 Translation |==|  0.38536 0.29597 0.39310
USER: genes 1 Rotation |==|  0.48898 0.25446 0.58116 0.92779
USER: genes 2 Torsion [CB]-CA--N-[C] |==|  0.85191
USER: genes 3 Torsion [N]-C--CA-[N] |==|  0.40170
USER: genes 4 Torsion [C]-CA--N-[C] |==|  0.53486
USER: genes 5 Torsion [N]-C--CA-[N] |==|  0.40314
USER: genes 6 Torsion [C]-CA--CB-[CG] |==|  0.06639
USER: genes 7 Torsion [CA]-CB--CG-[CD] |==|  0.66360
USER: genes 8 Torsion [CB]-CG--CD-[OE1] |==|  0.61251
USER: genes 9 Torsion [C]-CA--CB-[CG2] |==|  0.00616
USER: genes 10 Torsion [CA]-CB--CG1-[CD1] |==|  0.57312
USER: genes 11 Torsion [N]-CA--CB-[CG] |==|  0.73292
USER: genes 12 Torsion [CA]-CB--CG-[CD] |==|  0.54349
USER: genes 13 Torsion [CB]-CG--CD-[CE] |==|  0.27652
USER: genes 14 Torsion [CG]-CD--CE-[NZ] |==|  0.35558
USER: genes 15 Torsion [CD]-CE--NZ-[HZ1] |==|  0.51881
USER: genes 16 Torsion [N]-CA--C-[N] |==|  0.36840
USER: genes 17 Torsion [C]-N--CA-[C] |==|  0.70607
USER: genes 18 Torsion [N]-CA--CB-[CG] |==|  0.23198
USER: genes 19 Torsion [CA]-CB--CG-[OD1] |==|  0.30989
USER: genes 20 Torsion [N]-CA--C-[N] |==|  0.49988
USER: genes 21 Torsion [N]-CA--C-[O] |==|  0.37503
USER: genes 22 Torsion [C]-N--CA-[C] |==|  0.12422
USER: genes 23 Torsion [N]-CA--CB-[CG2] |==|  0.34908
USER: genes 24 Torsion [CA]-CB--CG1-[CD1] |==|  0.60620
USER: genes 25 Torsion [N]-CA--C-[O] |==|  0.19382
ROOT
ATOM      1  CA  LYS C   4     -40.237  22.748 -24.243  1.00 55.66 LIG 0.18  C 
ENDROOT
BRANCH 1 2
ATOM      2  N   LYS C   4     -41.355  21.825 -24.084  1.00 52.22 LIG-0.35  N 
ATOM      3  C   ILE C   3     -42.614  22.240 -23.967  1.00 49.48 LIG 0.24  C 
ATOM      4 O    ILE C   3     -42.934  23.428 -23.953  1.00 46.52 LIG-0.27  OA
ATOM      5 H    LYS C   4     -41.125  20.997 -24.072  1.00 52.22 LIG 0.16  HD
BRANCH 3 6
ATOM      6  CA  ILE C   3     -43.667  21.143 -23.835  1.00 52.28 LIG 0.18  C 
BRANCH 6 7
ATOM      7  N   ILE C   3     -44.737  21.571 -22.941  1.00 58.50 LIG-0.34  N 
ATOM      8 H    ILE C   3     -44.729  22.410 -22.752  1.00 58.50 LIG 0.16  HD
ATOM      9  C   GLN C   2     -45.637  20.711 -22.474  1.00 66.26 LIG 0.26  C 
ATOM     10 O    GLN C   2     -45.625  19.514 -22.758  1.00 73.27 LIG-0.27  OA
BRANCH 9 11
ATOM     11  CA  GLN C   2     -46.704  21.282 -21.547  1.00 65.71 LIG 0.40  C 
ATOM     12  N   GLN C   2     -47.978  20.603 -21.747  1.00 61.11 LIG 0.61  N 
BRANCH 11 13
ATOM     13  CB  GLN C   2     -46.253  21.160 -20.089  1.00 69.09 LIG 0.06  C 
BRANCH 13 14
ATOM     14  CG  GLN C   2     -44.739  21.074 -19.906  1.00 69.91 LIG 0.10  C 
BRANCH 14 15
ATOM     15  CD  GLN C   2     -44.302  19.803 -19.202  1.00 70.47 LIG 0.21  C 
ATOM     16 OE1  GLN C   2     -43.409  19.824 -18.356  1.00 73.69 LIG-0.27  OA
ATOM     17  NE2 GLN C   2     -44.934  18.687 -19.549  1.00 67.69 LIG-0.37  N 
ATOM     18 21HE GLN C   2     -45.554  18.712 -20.145  1.00 67.69 LIG 0.16  HD
ATOM     19 22HE GLN C   2     -44.724  17.940 -19.178  1.00 67.69 LIG 0.16  HD
ENDBRANCH 14 15
ENDBRANCH 13 14
ENDBRANCH 11 13
ENDBRANCH 9 11
ENDBRANCH 6 7
BRANCH 6 20
ATOM     20  CB  ILE C   3     -44.207  20.774 -25.231  1.00 50.18 LIG 0.01  C 
ATOM     21  CG2 ILE C   3     -43.481  21.580 -26.315  1.00 50.82 LIG 0.01  C 
BRANCH 20 22
ATOM     22  CG1 ILE C   3     -44.057  19.268 -25.469  1.00 50.01 LIG 0.00  C 
ATOM     23  CD1 ILE C   3     -43.945  18.869 -26.925  1.00 50.06 LIG 0.01  C 
ENDBRANCH 20 22
ENDBRANCH 6 20
ENDBRANCH 3 6
ENDBRANCH 1 2
BRANCH 1 24
ATOM     24  CB  LYS C   4     -40.495  23.699 -25.415  1.00 61.43 LIG 0.04  C 
BRANCH 24 25
ATOM     25  CG  LYS C   4     -39.860  23.270 -26.728  1.00 66.58 LIG 0.00  C 
BRANCH 25 26
ATOM     26  CD  LYS C   4     -39.829  24.424 -27.720  1.00 73.00 LIG 0.03  C 
BRANCH 26 27
ATOM     27  CE  LYS C   4     -38.465  25.094 -27.765  1.00 75.18 LIG 0.23  C 
BRANCH 27 28
ATOM     28  NZ  LYS C   4     -37.947  25.197 -29.158  1.00 76.64 LIG-0.08  N 
ATOM     29 HZ3  LYS C   4     -38.457  25.758 -29.624  1.00 76.64 LIG 0.27  HD
ATOM     30 HZ2  LYS C   4     -37.963  24.394 -29.542  1.00 76.64 LIG 0.27  HD
ATOM     31 HZ1  LYS C   4     -37.111  25.501 -29.142  1.00 76.64 LIG 0.27  HD
ENDBRANCH 27 28
ENDBRANCH 26 27
ENDBRANCH 25 26
ENDBRANCH 24 25
ENDBRANCH 1 24
BRANCH 1 32
ATOM     32  C   LYS C   4     -40.020  23.534 -22.953  1.00 57.21 LIG 0.24  C 
ATOM     33  N   ASN C   5     -38.768  23.609 -22.515  1.00 57.25 LIG-0.35  N 
ATOM     34 H    ASN C   5     -38.096  23.249 -22.914  1.00 57.25 LIG 0.16  HD
ATOM     35 O    LYS C   4     -40.970  24.058 -22.368  1.00 57.68 LIG-0.27  OA
BRANCH 33 36
ATOM     36  CA  ASN C   5     -38.426  24.327 -21.293  1.00 58.26 LIG 0.18  C 
BRANCH 36 37
ATOM     37  CB  ASN C   5     -37.523  23.466 -20.408  1.00 53.49 LIG 0.14  C 
BRANCH 37 38
ATOM     38  CG  ASN C   5     -36.062  23.555 -20.806  1.00 47.90 LIG 0.22  C 
ATOM     39 OD1  ASN C   5     -35.240  24.104 -20.072  1.00 45.37 LIG-0.27  OA
ATOM     40  ND2 ASN C   5     -35.732  23.016 -21.973  1.00 45.09 LIG-0.37  N 
ATOM     41 22HD ASN C   5     -36.334  22.641 -22.459  1.00 45.09 LIG 0.16  HD
ATOM     42 21HD ASN C   5     -34.916  23.042 -22.243  1.00 45.09 LIG 0.16  HD
ENDBRANCH 37 38
ENDBRANCH 36 37
BRANCH 36 43
ATOM     43  C   ASN C   5     -37.739  25.654 -21.594  1.00 62.82 LIG 0.24  C 
ATOM     44 O    ASN C   5     -37.535  26.001 -22.763  1.00 59.04 LIG-0.27  OA
ATOM     45  N   PRO C   6     -37.385  26.389 -20.545  1.00 69.97 LIG-0.34  N 
ATOM     46  CA  PRO C   6     -36.717  27.685 -20.702  1.00 73.90 LIG 0.18  C 
ATOM     47  CD  PRO C   6     -37.695  26.091 -19.135  1.00 74.49 LIG 0.13  C 
ATOM     48  CB  PRO C   6     -36.317  28.046 -19.271  1.00 75.59 LIG 0.04  C 
ATOM     49  CG  PRO C   6     -37.321  27.355 -18.415  1.00 76.33 LIG 0.02  C 
BRANCH 46 50
ATOM     50  C   PRO C   6     -35.481  27.596 -21.593  1.00 72.73 LIG 0.24  C 
ATOM     51 O    PRO C   6     -35.287  28.443 -22.465  1.00 74.17 LIG-0.27  OA
ATOM     52  N   ILE C   7     -34.660  26.575 -21.372  1.00 69.55 LIG-0.35  N 
ATOM     53 H    ILE C   7     -34.789  25.977 -20.767  1.00 69.55 LIG 0.16  HD
BRANCH 52 54
ATOM     54  CA  ILE C   7     -33.447  26.384 -22.158  1.00 67.58 LIG 0.17  C 
BRANCH 54 55
ATOM     55  CB  ILE C   7     -33.768  25.813 -23.552  1.00 70.68 LIG 0.01  C 
ATOM     56  CG2 ILE C   7     -33.169  26.696 -24.636  1.00 70.33 LIG 0.01  C 
BRANCH 55 57
ATOM     57  CG1 ILE C   7     -33.235  24.384 -23.675  1.00 72.59 LIG 0.00  C 
ATOM     58  CD1 ILE C   7     -32.660  24.066 -25.037  1.00 73.15 LIG 0.01  C 
ENDBRANCH 55 57
ENDBRANCH 54 55
BRANCH 54 59
ATOM     59  C   ILE C   7     -32.699  27.702 -22.326  1.00 63.70 LIG 0.22  C 
ATOM     60 O    ILE C   7     -32.137  28.234 -21.369  1.00 60.54 LIG-0.29  OA
ENDBRANCH 54 59
ENDBRANCH 52 54
ENDBRANCH 46 50
ENDBRANCH 36 43
ENDBRANCH 33 36
ENDBRANCH 1 32
TORSDOF 24
ENDMDL
MODEL 22
USER: ADFR SOLUTION from run 8
USER: SCORE 17.425995 LL:  -4.415 LR: -13.817 RR:   0.000 FEB:  -6.658
USER: RMSD 6.200684
USER: SEED 616639
USER: STATUS no improvement in best in 3 clusters for 5 generations
USER: GENES 26
USER: genes 0 Translation |==|  0.46773 0.48482 0.31391
USER: genes 1 Rotation |==|  0.47201 0.25702 0.52718 0.93524
USER: genes 2 Torsion [CB]-CA--N-[C] |==|  0.20314
USER: genes 3 Torsion [N]-C--CA-[N] |==|  0.39850
USER: genes 4 Torsion [C]-CA--N-[C] |==|  0.82527
USER: genes 5 Torsion [N]-C--CA-[N] |==|  0.70769
USER: genes 6 Torsion [C]-CA--CB-[CG] |==|  0.63841
USER: genes 7 Torsion [CA]-CB--CG-[CD] |==|  0.35499
USER: genes 8 Torsion [CB]-CG--CD-[OE1] |==|  0.13178
USER: genes 9 Torsion [C]-CA--CB-[CG2] |==|  0.90808
USER: genes 10 Torsion [CA]-CB--CG1-[CD1] |==|  0.37839
USER: genes 11 Torsion [N]-CA--CB-[CG] |==|  0.54172
USER: genes 12 Torsion [CA]-CB--CG-[CD] |==|  0.40907
USER: genes 13 Torsion [CB]-CG--CD-[CE] |==|  0.92965
USER: genes 14 Torsion [CG]-CD--CE-[NZ] |==|  0.74504
USER: genes 15 Torsion [CD]-CE--NZ-[HZ1] |==|  0.41308
USER: genes 16 Torsion [N]-CA--C-[N] |==|  0.94077
USER: genes 17 Torsion [C]-N--CA-[C] |==|  0.82778
USER: genes 18 Torsion [N]-CA--CB-[CG] |==|  0.04101
USER: genes 19 Torsion [CA]-CB--CG-[OD1] |==|  0.82600
USER: genes 20 Torsion [N]-CA--C-[N] |==|  0.88457
USER: genes 21 Torsion [N]-CA--C-[O] |==|  0.40596
USER: genes 22 Torsion [C]-N--CA-[C] |==|  0.75652
USER: genes 23 Torsion [N]-CA--CB-[CG2] |==|  0.32556
USER: genes 24 Torsion [CA]-CB--CG1-[CD1] |==|  0.52942
USER: genes 25 Torsion [N]-CA--C-[O] |==|  0.98052
ROOT
ATOM      1  CA  LYS C   4     -38.322  26.289 -25.788  1.00 55.66 LIG 0.18  C 
ENDROOT
BRANCH 1 2
ATOM      2  N   LYS C   4     -39.616  25.630 -25.656  1.00 52.22 LIG-0.35  N 
ATOM      3  C   ILE C   3     -40.058  24.739 -26.540  1.00 49.48 LIG 0.24  C 
ATOM      4 O    ILE C   3     -39.430  24.422 -27.550  1.00 46.52 LIG-0.27  OA
ATOM      5 H    LYS C   4     -40.062  25.870 -24.961  1.00 52.22 LIG 0.16  HD
BRANCH 3 6
ATOM      6  CA  ILE C   3     -41.421  24.122 -26.240  1.00 52.28 LIG 0.18  C 
BRANCH 6 7
ATOM      7  N   ILE C   3     -42.166  23.910 -27.475  1.00 58.50 LIG-0.34  N 
ATOM      8 H    ILE C   3     -42.344  23.086 -27.647  1.00 58.50 LIG 0.16  HD
ATOM      9  C   GLN C   2     -42.526  24.927 -28.252  1.00 66.26 LIG 0.26  C 
ATOM     10 O    GLN C   2     -42.256  26.098 -27.985  1.00 73.27 LIG-0.27  OA
BRANCH 9 11
ATOM     11  CA  GLN C   2     -43.299  24.575 -29.518  1.00 65.71 LIG 0.40  C 
ATOM     12  N   GLN C   2     -42.447  24.698 -30.694  1.00 61.11 LIG 0.61  N 
BRANCH 11 13
ATOM     13  CB  GLN C   2     -43.865  23.156 -29.410  1.00 69.09 LIG 0.06  C 
BRANCH 13 14
ATOM     14  CG  GLN C   2     -43.571  22.270 -30.619  1.00 69.91 LIG 0.10  C 
BRANCH 14 15
ATOM     15  CD  GLN C   2     -42.942  20.944 -30.238  1.00 70.47 LIG 0.21  C 
ATOM     16 OE1  GLN C   2     -43.410  20.259 -29.330  1.00 73.69 LIG-0.27  OA
ATOM     17  NE2 GLN C   2     -41.872  20.574 -30.935  1.00 67.69 LIG-0.37  N 
ATOM     18 21HE GLN C   2     -41.574  21.079 -31.564  1.00 67.69 LIG 0.16  HD
ATOM     19 22HE GLN C   2     -41.480  19.830 -30.758  1.00 67.69 LIG 0.16  HD
ENDBRANCH 14 15
ENDBRANCH 13 14
ENDBRANCH 11 13
ENDBRANCH 9 11
ENDBRANCH 6 7
BRANCH 6 20
ATOM     20  CB  ILE C   3     -41.232  22.806 -25.458  1.00 50.18 LIG 0.01  C 
ATOM     21  CG2 ILE C   3     -39.942  22.104 -25.896  1.00 50.82 LIG 0.01  C 
BRANCH 20 22
ATOM     22  CG1 ILE C   3     -41.224  23.090 -23.951  1.00 50.01 LIG 0.00  C 
ATOM     23  CD1 ILE C   3     -42.038  22.117 -23.124  1.00 50.06 LIG 0.01  C 
ENDBRANCH 20 22
ENDBRANCH 6 20
ENDBRANCH 3 6
ENDBRANCH 1 2
BRANCH 1 24
ATOM     24  CB  LYS C   4     -38.365  27.327 -26.911  1.00 61.43 LIG 0.04  C 
BRANCH 24 25
ATOM     25  CG  LYS C   4     -37.001  27.814 -27.374  1.00 66.58 LIG 0.00  C 
BRANCH 25 26
ATOM     26  CD  LYS C   4     -37.017  28.141 -28.861  1.00 73.00 LIG 0.03  C 
BRANCH 26 27
ATOM     27  CE  LYS C   4     -38.094  27.362 -29.599  1.00 75.18 LIG 0.23  C 
BRANCH 27 28
ATOM     28  NZ  LYS C   4     -37.572  26.075 -30.139  1.00 76.64 LIG-0.08  N 
ATOM     29 HZ3  LYS C   4     -36.906  25.785 -29.624  1.00 76.64 LIG 0.27  HD
ATOM     30 HZ2  LYS C   4     -37.273  26.200 -30.968  1.00 76.64 LIG 0.27  HD
ATOM     31 HZ1  LYS C   4     -38.225  25.470 -30.146  1.00 76.64 LIG 0.27  HD
ENDBRANCH 27 28
ENDBRANCH 26 27
ENDBRANCH 25 26
ENDBRANCH 24 25
ENDBRANCH 1 24
BRANCH 1 32
ATOM     32  C   LYS C   4     -37.933  26.945 -24.466  1.00 57.21 LIG 0.24  C 
ATOM     33  N   ASN C   5     -38.928  27.202 -23.622  1.00 57.25 LIG-0.35  N 
ATOM     34 H    ASN C   5     -39.753  27.019 -23.782  1.00 57.25 LIG 0.16  HD
ATOM     35 O    LYS C   4     -36.756  27.211 -24.218  1.00 57.68 LIG-0.27  OA
BRANCH 33 36
ATOM     36  CA  ASN C   5     -38.691  27.829 -22.328  1.00 58.26 LIG 0.18  C 
BRANCH 36 37
ATOM     37  CB  ASN C   5     -40.019  28.098 -21.619  1.00 53.49 LIG 0.14  C 
BRANCH 37 38
ATOM     38  CG  ASN C   5     -41.177  27.347 -22.247  1.00 47.90 LIG 0.22  C 
ATOM     39 OD1  ASN C   5     -41.516  27.565 -23.410  1.00 45.37 LIG-0.27  OA
ATOM     40  ND2 ASN C   5     -41.791  26.456 -21.478  1.00 45.09 LIG-0.37  N 
ATOM     41 22HD ASN C   5     -41.526  26.330 -20.669  1.00 45.09 LIG 0.16  HD
ATOM     42 21HD ASN C   5     -42.454  26.004 -21.788  1.00 45.09 LIG 0.16  HD
ENDBRANCH 37 38
ENDBRANCH 36 37
BRANCH 36 43
ATOM     43  C   ASN C   5     -37.799  26.967 -21.441  1.00 62.82 LIG 0.24  C 
ATOM     44 O    ASN C   5     -36.907  27.486 -20.760  1.00 59.04 LIG-0.27  OA
ATOM     45  N   PRO C   6     -38.040  25.660 -21.450  1.00 69.97 LIG-0.34  N 
ATOM     46  CA  PRO C   6     -37.252  24.726 -20.639  1.00 73.90 LIG 0.18  C 
ATOM     47  CD  PRO C   6     -39.152  24.990 -22.147  1.00 74.49 LIG 0.13  C 
ATOM     48  CB  PRO C   6     -37.726  23.357 -21.128  1.00 75.59 LIG 0.04  C 
ATOM     49  CG  PRO C   6     -39.118  23.589 -21.604  1.00 76.33 LIG 0.02  C 
BRANCH 46 50
ATOM     50  C   PRO C   6     -35.751  24.882 -20.871  1.00 72.73 LIG 0.24  C 
ATOM     51 O    PRO C   6     -34.962  24.699 -19.943  1.00 74.17 LIG-0.27  OA
ATOM     52  N   ILE C   7     -35.369  25.218 -22.098  1.00 69.55 LIG-0.35  N 
ATOM     53 H    ILE C   7     -35.913  25.349 -22.751  1.00 69.55 LIG 0.16  HD
BRANCH 52 54
ATOM     54  CA  ILE C   7     -33.963  25.396 -22.440  1.00 67.58 LIG 0.17  C 
BRANCH 54 55
ATOM     55  CB  ILE C   7     -33.704  25.074 -23.923  1.00 70.68 LIG 0.01  C 
ATOM     56  CG2 ILE C   7     -33.209  26.313 -24.655  1.00 70.33 LIG 0.01  C 
BRANCH 55 57
ATOM     57  CG1 ILE C   7     -32.685  23.939 -24.049  1.00 72.59 LIG 0.00  C 
ATOM     58  CD1 ILE C   7     -32.182  23.729 -25.460  1.00 73.15 LIG 0.01  C 
ENDBRANCH 55 57
ENDBRANCH 54 55
BRANCH 54 59
ATOM     59  C   ILE C   7     -33.516  26.827 -22.162  1.00 63.70 LIG 0.22  C 
ATOM     60 O    ILE C   7     -34.330  27.689 -21.830  1.00 60.54 LIG-0.29  OA
ENDBRANCH 54 59
ENDBRANCH 52 54
ENDBRANCH 46 50
ENDBRANCH 36 43
ENDBRANCH 33 36
ENDBRANCH 1 32
TORSDOF 24
ENDMDL
MODEL 23
USER: ADFR SOLUTION from run 194
USER: SCORE 16.959498 LL:  -4.536 LR: -13.780 RR:   0.000 FEB:  -6.621
USER: RMSD 4.809626
USER: SEED 193
USER: STATUS no improvement in best in 2 clusters for 5 generations
USER: GENES 26
USER: genes 0 Translation |==|  0.39880 0.33712 0.40709
USER: genes 1 Rotation |==|  0.44572 0.26837 0.52339 0.93915
USER: genes 2 Torsion [CB]-CA--N-[C] |==|  0.27822
USER: genes 3 Torsion [N]-C--CA-[N] |==|  0.99672
USER: genes 4 Torsion [C]-CA--N-[C] |==|  0.70556
USER: genes 5 Torsion [N]-C--CA-[N] |==|  0.32383
USER: genes 6 Torsion [C]-CA--CB-[CG] |==|  0.17865
USER: genes 7 Torsion [CA]-CB--CG-[CD] |==|  0.66490
USER: genes 8 Torsion [CB]-CG--CD-[OE1] |==|  0.71197
USER: genes 9 Torsion [C]-CA--CB-[CG2] |==|  0.24254
USER: genes 10 Torsion [CA]-CB--CG1-[CD1] |==|  0.37379
USER: genes 11 Torsion [N]-CA--CB-[CG] |==|  0.76505
USER: genes 12 Torsion [CA]-CB--CG-[CD] |==|  0.51331
USER: genes 13 Torsion [CB]-CG--CD-[CE] |==|  0.23525
USER: genes 14 Torsion [CG]-CD--CE-[NZ] |==|  0.38911
USER: genes 15 Torsion [CD]-CE--NZ-[HZ1] |==|  0.81953
USER: genes 16 Torsion [N]-CA--C-[N] |==|  0.33892
USER: genes 17 Torsion [C]-N--CA-[C] |==|  0.76155
USER: genes 18 Torsion [N]-CA--CB-[CG] |==|  0.25616
USER: genes 19 Torsion [CA]-CB--CG-[OD1] |==|  0.28163
USER: genes 20 Torsion [N]-CA--C-[N] |==|  0.44461
USER: genes 21 Torsion [N]-CA--C-[O] |==|  0.73232
USER: genes 22 Torsion [C]-N--CA-[C] |==|  0.70881
USER: genes 23 Torsion [N]-CA--CB-[CG2] |==|  0.41076
USER: genes 24 Torsion [CA]-CB--CG1-[CD1] |==|  0.62218
USER: genes 25 Torsion [N]-CA--C-[O] |==|  0.20338
ROOT
ATOM      1  CA  LYS C   4     -39.925  23.520 -23.971  1.00 55.66 LIG 0.18  C 
ENDROOT
BRANCH 1 2
ATOM      2  N   LYS C   4     -41.253  22.965 -23.734  1.00 52.22 LIG-0.35  N 
ATOM      3  C   ILE C   3     -41.598  21.743 -24.129  1.00 49.48 LIG 0.24  C 
ATOM      4 O    ILE C   3     -40.842  20.995 -24.749  1.00 46.52 LIG-0.27  OA
ATOM      5 H    LYS C   4     -41.785  23.498 -23.319  1.00 52.22 LIG 0.16  HD
BRANCH 3 6
ATOM      6  CA  ILE C   3     -43.017  21.305 -23.778  1.00 52.28 LIG 0.18  C 
BRANCH 6 7
ATOM      7  N   ILE C   3     -43.703  22.354 -23.033  1.00 58.50 LIG-0.34  N 
ATOM      8 H    ILE C   3     -43.945  23.029 -23.509  1.00 58.50 LIG 0.16  HD
ATOM      9  C   GLN C   2     -43.922  22.247 -21.726  1.00 66.26 LIG 0.26  C 
ATOM     10 O    GLN C   2     -43.563  21.272 -21.067  1.00 73.27 LIG-0.27  OA
BRANCH 9 11
ATOM     11  CA  GLN C   2     -44.648  23.413 -21.062  1.00 65.71 LIG 0.40  C 
ATOM     12  N   GLN C   2     -45.931  22.981 -20.523  1.00 61.11 LIG 0.61  N 
BRANCH 11 13
ATOM     13  CB  GLN C   2     -43.775  24.014 -19.957  1.00 69.09 LIG 0.06  C 
BRANCH 13 14
ATOM     14  CG  GLN C   2     -42.478  24.646 -20.457  1.00 69.91 LIG 0.10  C 
BRANCH 14 15
ATOM     15  CD  GLN C   2     -41.241  24.009 -19.852  1.00 70.47 LIG 0.21  C 
ATOM     16 OE1  GLN C   2     -40.611  24.574 -18.959  1.00 73.69 LIG-0.27  OA
ATOM     17  NE2 GLN C   2     -40.887  22.824 -20.339  1.00 67.69 LIG-0.37  N 
ATOM     18 21HE GLN C   2     -41.353  22.460 -20.964  1.00 67.69 LIG 0.16  HD
ATOM     19 22HE GLN C   2     -40.194  22.421 -20.028  1.00 67.69 LIG 0.16  HD
ENDBRANCH 14 15
ENDBRANCH 13 14
ENDBRANCH 11 13
ENDBRANCH 9 11
ENDBRANCH 6 7
BRANCH 6 20
ATOM     20  CB  ILE C   3     -43.777  20.934 -25.067  1.00 50.18 LIG 0.01  C 
ATOM     21  CG2 ILE C   3     -43.536  19.463 -25.426  1.00 50.82 LIG 0.01  C 
BRANCH 20 22
ATOM     22  CG1 ILE C   3     -45.272  21.224 -24.896  1.00 50.01 LIG 0.00  C 
ATOM     23  CD1 ILE C   3     -45.912  21.939 -26.067  1.00 50.06 LIG 0.01  C 
ENDBRANCH 20 22
ENDBRANCH 6 20
ENDBRANCH 3 6
ENDBRANCH 1 2
BRANCH 1 24
ATOM     24  CB  LYS C   4     -39.948  24.460 -25.178  1.00 61.43 LIG 0.04  C 
BRANCH 24 25
ATOM     25  CG  LYS C   4     -39.791  23.767 -26.522  1.00 66.58 LIG 0.00  C 
BRANCH 25 26
ATOM     26  CD  LYS C   4     -39.707  24.784 -27.651  1.00 73.00 LIG 0.03  C 
BRANCH 26 27
ATOM     27  CE  LYS C   4     -38.290  25.301 -27.842  1.00 75.18 LIG 0.23  C 
BRANCH 27 28
ATOM     28  NZ  LYS C   4     -37.947  25.453 -29.284  1.00 76.64 LIG-0.08  N 
ATOM     29 HZ3  LYS C   4     -37.141  25.822 -29.360  1.00 76.64 LIG 0.27  HD
ATOM     30 HZ2  LYS C   4     -38.550  25.974 -29.680  1.00 76.64 LIG 0.27  HD
ATOM     31 HZ1  LYS C   4     -37.944  24.653 -29.674  1.00 76.64 LIG 0.27  HD
ENDBRANCH 27 28
ENDBRANCH 26 27
ENDBRANCH 25 26
ENDBRANCH 24 25
ENDBRANCH 1 24
BRANCH 1 32
ATOM     32  C   LYS C   4     -39.437  24.256 -22.727  1.00 57.21 LIG 0.24  C 
ATOM     33  N   ASN C   5     -38.292  23.829 -22.203  1.00 57.25 LIG-0.35  N 
ATOM     34 H    ASN C   5     -37.829  23.180 -22.524  1.00 57.25 LIG 0.16  HD
ATOM     35 O    LYS C   4     -40.086  25.190 -22.252  1.00 57.68 LIG-0.27  OA
BRANCH 33 36
ATOM     36  CA  ASN C   5     -37.718  24.444 -21.012  1.00 58.26 LIG 0.18  C 
BRANCH 36 37
ATOM     37  CB  ASN C   5     -36.877  23.425 -20.242  1.00 53.49 LIG 0.14  C 
BRANCH 37 38
ATOM     38  CG  ASN C   5     -35.417  23.450 -20.650  1.00 47.90 LIG 0.22  C 
ATOM     39 OD1  ASN C   5     -34.575  24.017 -19.953  1.00 45.37 LIG-0.27  OA
ATOM     40  ND2 ASN C   5     -35.108  22.833 -21.784  1.00 45.09 LIG-0.37  N 
ATOM     41 22HD ASN C   5     -35.723  22.447 -22.245  1.00 45.09 LIG 0.16  HD
ATOM     42 21HD ASN C   5     -34.293  22.820 -22.058  1.00 45.09 LIG 0.16  HD
ENDBRANCH 37 38
ENDBRANCH 36 37
BRANCH 36 43
ATOM     43  C   ASN C   5     -36.865  25.658 -21.362  1.00 62.82 LIG 0.24  C 
ATOM     44 O    ASN C   5     -36.425  25.802 -22.509  1.00 59.04 LIG-0.27  OA
ATOM     45  N   PRO C   6     -36.634  26.523 -20.380  1.00 69.97 LIG-0.34  N 
ATOM     46  CA  PRO C   6     -35.827  27.730 -20.591  1.00 73.90 LIG 0.18  C 
ATOM     47  CD  PRO C   6     -37.216  26.472 -19.028  1.00 74.49 LIG 0.13  C 
ATOM     48  CB  PRO C   6     -35.655  28.283 -19.175  1.00 75.59 LIG 0.04  C 
ATOM     49  CG  PRO C   6     -36.856  27.805 -18.436  1.00 76.33 LIG 0.02  C 
BRANCH 46 50
ATOM     50  C   PRO C   6     -34.467  27.418 -21.208  1.00 72.73 LIG 0.24  C 
ATOM     51 O    PRO C   6     -33.476  27.298 -20.487  1.00 74.17 LIG-0.27  OA
ATOM     52  N   ILE C   7     -34.427  27.291 -22.530  1.00 69.55 LIG-0.35  N 
ATOM     53 H    ILE C   7     -35.115  27.374 -23.041  1.00 69.55 LIG 0.16  HD
BRANCH 52 54
ATOM     54  CA  ILE C   7     -33.186  26.992 -23.234  1.00 67.58 LIG 0.17  C 
BRANCH 54 55
ATOM     55  CB  ILE C   7     -33.389  25.882 -24.280  1.00 70.68 LIG 0.01  C 
ATOM     56  CG2 ILE C   7     -32.463  26.097 -25.468  1.00 70.33 LIG 0.01  C 
BRANCH 55 57
ATOM     57  CG1 ILE C   7     -33.138  24.509 -23.652  1.00 72.59 LIG 0.00  C 
ATOM     58  CD1 ILE C   7     -32.309  23.587 -24.519  1.00 73.15 LIG 0.01  C 
ENDBRANCH 55 57
ENDBRANCH 54 55
BRANCH 54 59
ATOM     59  C   ILE C   7     -32.650  28.236 -23.935  1.00 63.70 LIG 0.22  C 
ATOM     60 O    ILE C   7     -32.137  29.151 -23.290  1.00 60.54 LIG-0.29  OA
ENDBRANCH 54 59
ENDBRANCH 52 54
ENDBRANCH 46 50
ENDBRANCH 36 43
ENDBRANCH 33 36
ENDBRANCH 1 32
TORSDOF 24
ENDMDL
MODEL 24
USER: ADFR SOLUTION from run 131
USER: SCORE 16.466312 LL:  -4.161 LR: -13.748 RR:   0.000 FEB:  -6.588
USER: RMSD 9.459840
USER: SEED 130
USER: STATUS no improvement in best in 9 clusters for 5 generations
USER: GENES 26
USER: genes 0 Translation |==|  0.62014 0.60767 0.30155
USER: genes 1 Rotation |==|  0.72678 0.42025 0.86346 0.74517
USER: genes 2 Torsion [CB]-CA--N-[C] |==|  0.78330
USER: genes 3 Torsion [N]-C--CA-[N] |==|  0.93187
USER: genes 4 Torsion [C]-CA--N-[C] |==|  0.69242
USER: genes 5 Torsion [N]-C--CA-[N] |==|  0.07470
USER: genes 6 Torsion [C]-CA--CB-[CG] |==|  0.59666
USER: genes 7 Torsion [CA]-CB--CG-[CD] |==|  0.31898
USER: genes 8 Torsion [CB]-CG--CD-[OE1] |==|  0.76067
USER: genes 9 Torsion [C]-CA--CB-[CG2] |==|  0.59058
USER: genes 10 Torsion [CA]-CB--CG1-[CD1] |==|  0.72447
USER: genes 11 Torsion [N]-CA--CB-[CG] |==|  0.70615
USER: genes 12 Torsion [CA]-CB--CG-[CD] |==|  0.49545
USER: genes 13 Torsion [CB]-CG--CD-[CE] |==|  0.59924
USER: genes 14 Torsion [CG]-CD--CE-[NZ] |==|  0.36724
USER: genes 15 Torsion [CD]-CE--NZ-[HZ1] |==|  0.03948
USER: genes 16 Torsion [N]-CA--C-[N] |==|  0.72231
USER: genes 17 Torsion [C]-N--CA-[C] |==|  0.73985
USER: genes 18 Torsion [N]-CA--CB-[CG] |==|  0.24820
USER: genes 19 Torsion [CA]-CB--CG-[OD1] |==|  0.34754
USER: genes 20 Torsion [N]-CA--C-[N] |==|  0.36906
USER: genes 21 Torsion [N]-CA--C-[O] |==|  0.42363
USER: genes 22 Torsion [C]-N--CA-[C] |==|  0.19688
USER: genes 23 Torsion [N]-CA--CB-[CG2] |==|  0.52206
USER: genes 24 Torsion [CA]-CB--CG1-[CD1] |==|  0.36646
USER: genes 25 Torsion [N]-CA--C-[O] |==|  0.88755
ROOT
ATOM      1  CA  LYS C   4     -34.779  28.593 -26.029  1.00 55.66 LIG 0.18  C 
ENDROOT
BRANCH 1 2
ATOM      2  N   LYS C   4     -33.602  27.733 -26.087  1.00 52.22 LIG-0.35  N 
ATOM      3  C   ILE C   3     -33.434  26.696 -25.272  1.00 49.48 LIG 0.24  C 
ATOM      4 O    ILE C   3     -34.235  26.395 -24.388  1.00 46.52 LIG-0.27  OA
ATOM      5 H    LYS C   4     -33.034  27.959 -26.692  1.00 52.22 LIG 0.16  HD
BRANCH 3 6
ATOM      6  CA  ILE C   3     -32.160  25.882 -25.484  1.00 52.28 LIG 0.18  C 
BRANCH 6 7
ATOM      7  N   ILE C   3     -31.681  26.034 -26.853  1.00 58.50 LIG-0.34  N 
ATOM      8 H    ILE C   3     -31.375  26.816 -27.038  1.00 58.50 LIG 0.16  HD
ATOM      9  C   GLN C   2     -31.728  25.027 -27.720  1.00 66.26 LIG 0.26  C 
ATOM     10 O    GLN C   2     -32.174  23.918 -27.431  1.00 73.27 LIG-0.27  OA
BRANCH 9 11
ATOM     11  CA  GLN C   2     -31.199  25.313 -29.122  1.00 65.71 LIG 0.40  C 
ATOM     12  N   GLN C   2     -30.199  26.374 -29.089  1.00 61.11 LIG 0.61  N 
BRANCH 11 13
ATOM     13  CB  GLN C   2     -30.611  24.038 -29.732  1.00 69.09 LIG 0.06  C 
BRANCH 13 14
ATOM     14  CG  GLN C   2     -29.397  24.275 -30.629  1.00 69.91 LIG 0.10  C 
BRANCH 14 15
ATOM     15  CD  GLN C   2     -28.126  23.662 -30.073  1.00 70.47 LIG 0.21  C 
ATOM     16 OE1  GLN C   2     -27.425  24.278 -29.271  1.00 73.69 LIG-0.27  OA
ATOM     17  NE2 GLN C   2     -27.822  22.440 -30.499  1.00 67.69 LIG-0.37  N 
ATOM     18 21HE GLN C   2     -28.337  22.041 -31.060  1.00 67.69 LIG 0.16  HD
ATOM     19 22HE GLN C   2     -27.112  22.049 -30.213  1.00 67.69 LIG 0.16  HD
ENDBRANCH 14 15
ENDBRANCH 13 14
ENDBRANCH 11 13
ENDBRANCH 9 11
ENDBRANCH 6 7
BRANCH 6 20
ATOM     20  CB  ILE C   3     -31.094  26.315 -24.458  1.00 50.18 LIG 0.01  C 
ATOM     21  CG2 ILE C   3     -29.690  26.195 -25.062  1.00 50.82 LIG 0.01  C 
BRANCH 20 22
ATOM     22  CG1 ILE C   3     -31.373  27.747 -23.986  1.00 50.01 LIG 0.00  C 
ATOM     23  CD1 ILE C   3     -30.537  28.808 -24.670  1.00 50.06 LIG 0.01  C 
ENDBRANCH 20 22
ENDBRANCH 6 20
ENDBRANCH 3 6
ENDBRANCH 1 2
BRANCH 1 24
ATOM     24  CB  LYS C   4     -35.970  27.912 -26.706  1.00 61.43 LIG 0.04  C 
BRANCH 24 25
ATOM     25  CG  LYS C   4     -36.332  28.481 -28.069  1.00 66.58 LIG 0.00  C 
BRANCH 25 26
ATOM     26  CD  LYS C   4     -37.498  27.720 -28.683  1.00 73.00 LIG 0.03  C 
BRANCH 26 27
ATOM     27  CE  LYS C   4     -37.358  27.595 -30.192  1.00 75.18 LIG 0.23  C 
BRANCH 27 28
ATOM     28  NZ  LYS C   4     -37.598  26.199 -30.655  1.00 76.64 LIG-0.08  N 
ATOM     29 HZ3  LYS C   4     -36.822  25.822 -30.876  1.00 76.64 LIG 0.27  HD
ATOM     30 HZ2  LYS C   4     -38.135  26.209 -31.365  1.00 76.64 LIG 0.27  HD
ATOM     31 HZ1  LYS C   4     -37.978  25.731 -30.001  1.00 76.64 LIG 0.27  HD
ENDBRANCH 27 28
ENDBRANCH 26 27
ENDBRANCH 25 26
ENDBRANCH 24 25
ENDBRANCH 1 24
BRANCH 1 32
ATOM     32  C   LYS C   4     -35.107  28.930 -24.577  1.00 57.21 LIG 0.24  C 
ATOM     33  N   ASN C   5     -36.085  28.225 -24.017  1.00 57.25 LIG-0.35  N 
ATOM     34 H    ASN C   5     -36.524  27.606 -24.422  1.00 57.25 LIG 0.16  HD
ATOM     35 O    LYS C   4     -34.487  29.812 -23.980  1.00 57.68 LIG-0.27  OA
BRANCH 33 36
ATOM     36  CA  ASN C   5     -36.498  28.450 -22.638  1.00 58.26 LIG 0.18  C 
BRANCH 36 37
ATOM     37  CB  ASN C   5     -38.010  28.267 -22.501  1.00 53.49 LIG 0.14  C 
BRANCH 37 38
ATOM     38  CG  ASN C   5     -38.396  26.835 -22.185  1.00 47.90 LIG 0.22  C 
ATOM     39 OD1  ASN C   5     -39.088  26.569 -21.202  1.00 45.37 LIG-0.27  OA
ATOM     40  ND2 ASN C   5     -37.949  25.903 -23.018  1.00 45.09 LIG-0.37  N 
ATOM     41 22HD ASN C   5     -37.468  26.127 -23.695  1.00 45.09 LIG 0.16  HD
ATOM     42 21HD ASN C   5     -38.141  25.076 -22.881  1.00 45.09 LIG 0.16  HD
ENDBRANCH 37 38
ENDBRANCH 36 37
BRANCH 36 43
ATOM     43  C   ASN C   5     -35.776  27.515 -21.674  1.00 62.82 LIG 0.24  C 
ATOM     44 O    ASN C   5     -35.693  26.307 -21.921  1.00 59.04 LIG-0.27  OA
ATOM     45  N   PRO C   6     -35.259  28.072 -20.584  1.00 69.97 LIG-0.34  N 
ATOM     46  CA  PRO C   6     -34.540  27.279 -19.581  1.00 73.90 LIG 0.18  C 
ATOM     47  CD  PRO C   6     -35.223  29.514 -20.283  1.00 74.49 LIG 0.13  C 
ATOM     48  CB  PRO C   6     -34.329  28.274 -18.438  1.00 75.59 LIG 0.04  C 
ATOM     49  CG  PRO C   6     -34.299  29.608 -19.101  1.00 76.33 LIG 0.02  C 
BRANCH 46 50
ATOM     50  C   PRO C   6     -35.353  26.081 -19.098  1.00 72.73 LIG 0.24  C 
ATOM     51 O    PRO C   6     -34.779  25.073 -18.685  1.00 74.17 LIG-0.27  OA
ATOM     52  N   ILE C   7     -36.676  26.196 -19.156  1.00 69.55 LIG-0.35  N 
ATOM     53 H    ILE C   7     -37.085  26.896 -19.445  1.00 69.55 LIG 0.16  HD
BRANCH 52 54
ATOM     54  CA  ILE C   7     -37.557  25.118 -18.724  1.00 67.58 LIG 0.17  C 
BRANCH 54 55
ATOM     55  CB  ILE C   7     -37.158  23.777 -19.365  1.00 70.68 LIG 0.01  C 
ATOM     56  CG2 ILE C   7     -38.200  22.712 -19.058  1.00 70.33 LIG 0.01  C 
BRANCH 55 57
ATOM     57  CG1 ILE C   7     -36.993  23.941 -20.877  1.00 72.59 LIG 0.00  C 
ATOM     58  CD1 ILE C   7     -35.713  23.342 -21.418  1.00 73.15 LIG 0.01  C 
ENDBRANCH 55 57
ENDBRANCH 54 55
BRANCH 54 59
ATOM     59  C   ILE C   7     -37.522  24.968 -17.207  1.00 63.70 LIG 0.22  C 
ATOM     60 O    ILE C   7     -36.462  25.065 -16.588  1.00 60.54 LIG-0.29  OA
ENDBRANCH 54 59
ENDBRANCH 52 54
ENDBRANCH 46 50
ENDBRANCH 36 43
ENDBRANCH 33 36
ENDBRANCH 1 32
TORSDOF 24
ENDMDL
MODEL 25
USER: ADFR SOLUTION from run 134
USER: SCORE 17.295351 LL:  -4.749 LR: -13.746 RR:   0.000 FEB:  -6.587
USER: RMSD 8.170804
USER: SEED 133
USER: STATUS 1 or 2 clusters left
USER: GENES 26
USER: genes 0 Translation |==|  0.50835 0.55673 0.37380
USER: genes 1 Rotation |==|  0.86778 0.45531 0.82887 0.56774
USER: genes 2 Torsion [CB]-CA--N-[C] |==|  0.24334
USER: genes 3 Torsion [N]-C--CA-[N] |==|  0.09438
USER: genes 4 Torsion [C]-CA--N-[C] |==|  0.63337
USER: genes 5 Torsion [N]-C--CA-[N] |==|  0.19798
USER: genes 6 Torsion [C]-CA--CB-[CG] |==|  0.25920
USER: genes 7 Torsion [CA]-CB--CG-[CD] |==|  0.07315
USER: genes 8 Torsion [CB]-CG--CD-[OE1] |==|  0.81031
USER: genes 9 Torsion [C]-CA--CB-[CG2] |==|  0.40434
USER: genes 10 Torsion [CA]-CB--CG1-[CD1] |==|  0.71766
USER: genes 11 Torsion [N]-CA--CB-[CG] |==|  0.78072
USER: genes 12 Torsion [CA]-CB--CG-[CD] |==|  0.36135
USER: genes 13 Torsion [CB]-CG--CD-[CE] |==|  0.80987
USER: genes 14 Torsion [CG]-CD--CE-[NZ] |==|  0.54399
USER: genes 15 Torsion [CD]-CE--NZ-[HZ1] |==|  0.14190
USER: genes 16 Torsion [N]-CA--C-[N] |==|  0.87212
USER: genes 17 Torsion [C]-N--CA-[C] |==|  0.83908
USER: genes 18 Torsion [N]-CA--CB-[CG] |==|  0.57050
USER: genes 19 Torsion [CA]-CB--CG-[OD1] |==|  0.83584
USER: genes 20 Torsion [N]-CA--C-[N] |==|  0.37630
USER: genes 21 Torsion [N]-CA--C-[O] |==|  0.75235
USER: genes 22 Torsion [C]-N--CA-[C] |==|  0.75433
USER: genes 23 Torsion [N]-CA--CB-[CG2] |==|  0.52400
USER: genes 24 Torsion [CA]-CB--CG1-[CD1] |==|  0.35709
USER: genes 25 Torsion [N]-CA--C-[O] |==|  0.94645
ROOT
ATOM      1  CA  LYS C   4     -37.378  27.638 -24.620  1.00 55.66 LIG 0.18  C 
ENDROOT
BRANCH 1 2
ATOM      2  N   LYS C   4     -36.187  27.831 -25.440  1.00 52.22 LIG-0.35  N 
ATOM      3  C   ILE C   3     -36.133  28.728 -26.421  1.00 49.48 LIG 0.24  C 
ATOM      4 O    ILE C   3     -37.085  29.442 -26.736  1.00 46.52 LIG-0.27  OA
ATOM      5 H    LYS C   4     -35.532  27.316 -25.232  1.00 52.22 LIG 0.16  HD
BRANCH 3 6
ATOM      6  CA  ILE C   3     -34.804  28.823 -27.165  1.00 52.28 LIG 0.18  C 
BRANCH 6 7
ATOM      7  N   ILE C   3     -34.173  27.511 -27.248  1.00 58.50 LIG-0.34  N 
ATOM      8 H    ILE C   3     -34.696  26.880 -27.511  1.00 58.50 LIG 0.16  HD
ATOM      9  C   GLN C   2     -32.893  27.335 -26.937  1.00 66.26 LIG 0.26  C 
ATOM     10 O    GLN C   2     -32.166  28.254 -26.560  1.00 73.27 LIG-0.27  OA
BRANCH 9 11
ATOM     11  CA  GLN C   2     -32.352  25.915 -27.063  1.00 65.71 LIG 0.40  C 
ATOM     12  N   GLN C   2     -32.232  25.531 -28.464  1.00 61.11 LIG 0.61  N 
BRANCH 11 13
ATOM     13  CB  GLN C   2     -30.998  25.804 -26.357  1.00 69.09 LIG 0.06  C 
BRANCH 13 14
ATOM     14  CG  GLN C   2     -31.083  25.330 -24.907  1.00 69.91 LIG 0.10  C 
BRANCH 14 15
ATOM     15  CD  GLN C   2     -32.312  24.485 -24.635  1.00 70.47 LIG 0.21  C 
ATOM     16 OE1  GLN C   2     -33.439  24.979 -24.660  1.00 73.69 LIG-0.27  OA
ATOM     17  NE2 GLN C   2     -32.100  23.199 -24.375  1.00 67.69 LIG-0.37  N 
ATOM     18 21HE GLN C   2     -31.299  22.889 -24.366  1.00 67.69 LIG 0.16  HD
ATOM     19 22HE GLN C   2     -32.765  22.677 -24.215  1.00 67.69 LIG 0.16  HD
ENDBRANCH 14 15
ENDBRANCH 13 14
ENDBRANCH 11 13
ENDBRANCH 9 11
ENDBRANCH 6 7
BRANCH 6 20
ATOM     20  CB  ILE C   3     -35.036  29.431 -28.562  1.00 50.18 LIG 0.01  C 
ATOM     21  CG2 ILE C   3     -33.841  30.299 -28.974  1.00 50.82 LIG 0.01  C 
BRANCH 20 22
ATOM     22  CG1 ILE C   3     -35.289  28.316 -29.583  1.00 50.01 LIG 0.00  C 
ATOM     23  CD1 ILE C   3     -34.096  27.979 -30.453  1.00 50.06 LIG 0.01  C 
ENDBRANCH 20 22
ENDBRANCH 6 20
ENDBRANCH 3 6
ENDBRANCH 1 2
BRANCH 1 24
ATOM     24  CB  LYS C   4     -38.319  26.626 -25.277  1.00 61.43 LIG 0.04  C 
BRANCH 24 25
ATOM     25  CG  LYS C   4     -39.158  27.189 -26.413  1.00 66.58 LIG 0.00  C 
BRANCH 25 26
ATOM     26  CD  LYS C   4     -39.065  26.304 -27.648  1.00 73.00 LIG 0.03  C 
BRANCH 26 27
ATOM     27  CE  LYS C   4     -37.680  26.348 -28.271  1.00 75.18 LIG 0.23  C 
BRANCH 27 28
ATOM     28  NZ  LYS C   4     -37.680  25.805 -29.659  1.00 76.64 LIG-0.08  N 
ATOM     29 HZ3  LYS C   4     -37.829  24.928 -29.635  1.00 76.64 LIG 0.27  HD
ATOM     30 HZ2  LYS C   4     -36.891  25.962 -30.040  1.00 76.64 LIG 0.27  HD
ATOM     31 HZ1  LYS C   4     -38.322  26.201 -30.132  1.00 76.64 LIG 0.27  HD
ENDBRANCH 27 28
ENDBRANCH 26 27
ENDBRANCH 25 26
ENDBRANCH 24 25
ENDBRANCH 1 24
BRANCH 1 32
ATOM     32  C   LYS C   4     -36.979  27.171 -23.223  1.00 57.21 LIG 0.24  C 
ATOM     33  N   ASN C   5     -36.074  26.199 -23.164  1.00 57.25 LIG-0.35  N 
ATOM     34 H    ASN C   5     -35.714  25.835 -23.855  1.00 57.25 LIG 0.16  HD
ATOM     35 O    LYS C   4     -37.483  27.682 -22.221  1.00 57.68 LIG-0.27  OA
BRANCH 33 36
ATOM     36  CA  ASN C   5     -35.611  25.661 -21.891  1.00 58.26 LIG 0.18  C 
BRANCH 36 37
ATOM     37  CB  ASN C   5     -34.580  24.556 -22.127  1.00 53.49 LIG 0.14  C 
BRANCH 37 38
ATOM     38  CG  ASN C   5     -34.514  23.567 -20.980  1.00 47.90 LIG 0.22  C 
ATOM     39 OD1  ASN C   5     -34.237  23.940 -19.839  1.00 45.37 LIG-0.27  OA
ATOM     40  ND2 ASN C   5     -34.767  22.298 -21.276  1.00 45.09 LIG-0.37  N 
ATOM     41 22HD ASN C   5     -34.957  22.075 -22.084  1.00 45.09 LIG 0.16  HD
ATOM     42 21HD ASN C   5     -34.741  21.699 -20.659  1.00 45.09 LIG 0.16  HD
ENDBRANCH 37 38
ENDBRANCH 36 37
BRANCH 36 43
ATOM     43  C   ASN C   5     -35.008  26.747 -21.008  1.00 62.82 LIG 0.24  C 
ATOM     44 O    ASN C   5     -34.230  27.580 -21.485  1.00 59.04 LIG-0.27  OA
ATOM     45  N   PRO C   6     -35.368  26.737 -19.728  1.00 69.97 LIG-0.34  N 
ATOM     46  CA  PRO C   6     -34.857  27.729 -18.776  1.00 73.90 LIG 0.18  C 
ATOM     47  CD  PRO C   6     -36.372  25.847 -19.119  1.00 74.49 LIG 0.13  C 
ATOM     48  CB  PRO C   6     -35.351  27.203 -17.428  1.00 75.59 LIG 0.04  C 
ATOM     49  CG  PRO C   6     -36.586  26.436 -17.753  1.00 76.33 LIG 0.02  C 
BRANCH 46 50
ATOM     50  C   PRO C   6     -33.333  27.813 -18.788  1.00 72.73 LIG 0.24  C 
ATOM     51 O    PRO C   6     -32.671  27.086 -18.047  1.00 74.17 LIG-0.27  OA
ATOM     52  N   ILE C   7     -32.790  28.694 -19.621  1.00 69.55 LIG-0.35  N 
ATOM     53 H    ILE C   7     -33.246  29.207 -20.140  1.00 69.55 LIG 0.16  HD
BRANCH 52 54
ATOM     54  CA  ILE C   7     -31.346  28.864 -19.721  1.00 67.58 LIG 0.17  C 
BRANCH 54 55
ATOM     55  CB  ILE C   7     -30.933  29.317 -21.133  1.00 70.68 LIG 0.01  C 
ATOM     56  CG2 ILE C   7     -29.419  29.283 -21.278  1.00 70.33 LIG 0.01  C 
BRANCH 55 57
ATOM     57  CG1 ILE C   7     -31.588  28.425 -22.189  1.00 72.59 LIG 0.00  C 
ATOM     58  CD1 ILE C   7     -32.317  29.196 -23.268  1.00 73.15 LIG 0.01  C 
ENDBRANCH 55 57
ENDBRANCH 54 55
BRANCH 54 59
ATOM     59  C   ILE C   7     -30.852  29.894 -18.710  1.00 63.70 LIG 0.22  C 
ATOM     60 O    ILE C   7     -31.629  30.703 -18.204  1.00 60.54 LIG-0.29  OA
ENDBRANCH 54 59
ENDBRANCH 52 54
ENDBRANCH 46 50
ENDBRANCH 36 43
ENDBRANCH 33 36
ENDBRANCH 1 32
TORSDOF 24
ENDMDL
MODEL 26
USER: ADFR SOLUTION from run 103
USER: SCORE 17.553967 LL:  -4.532 LR: -13.748 RR:   0.000 FEB:  -6.589
USER: RMSD 9.668249
USER: SEED 102
USER: STATUS no improvement in best in 29 clusters for 5 generations
USER: GENES 26
USER: genes 0 Translation |==|  0.48403 0.54945 0.41440
USER: genes 1 Rotation |==|  0.62738 0.15313 0.83467 0.53811
USER: genes 2 Torsion [CB]-CA--N-[C] |==|  0.24444
USER: genes 3 Torsion [N]-C--CA-[N] |==|  0.37469
USER: genes 4 Torsion [C]-CA--N-[C] |==|  0.85666
USER: genes 5 Torsion [N]-C--CA-[N] |==|  0.84546
USER: genes 6 Torsion [C]-CA--CB-[CG] |==|  0.16992
USER: genes 7 Torsion [CA]-CB--CG-[CD] |==|  0.73872
USER: genes 8 Torsion [CB]-CG--CD-[OE1] |==|  0.89020
USER: genes 9 Torsion [C]-CA--CB-[CG2] |==|  0.08100
USER: genes 10 Torsion [CA]-CB--CG1-[CD1] |==|  0.69347
USER: genes 11 Torsion [N]-CA--CB-[CG] |==|  0.24130
USER: genes 12 Torsion [CA]-CB--CG-[CD] |==|  0.65038
USER: genes 13 Torsion [CB]-CG--CD-[CE] |==|  0.40851
USER: genes 14 Torsion [CG]-CD--CE-[NZ] |==|  0.42159
USER: genes 15 Torsion [CD]-CE--NZ-[HZ1] |==|  0.46119
USER: genes 16 Torsion [N]-CA--C-[N] |==|  0.97376
USER: genes 17 Torsion [C]-N--CA-[C] |==|  0.80749
USER: genes 18 Torsion [N]-CA--CB-[CG] |==|  0.75847
USER: genes 19 Torsion [CA]-CB--CG-[OD1] |==|  0.10101
USER: genes 20 Torsion [N]-CA--C-[N] |==|  0.43962
USER: genes 21 Torsion [N]-CA--C-[O] |==|  0.42059
USER: genes 22 Torsion [C]-N--CA-[C] |==|  0.20419
USER: genes 23 Torsion [N]-CA--CB-[CG2] |==|  0.50547
USER: genes 24 Torsion [CA]-CB--CG1-[CD1] |==|  0.85969
USER: genes 25 Torsion [N]-CA--C-[O] |==|  0.14766
ROOT
ATOM      1  CA  LYS C   4     -37.943  27.501 -23.828  1.00 55.66 LIG 0.18  C 
ENDROOT
BRANCH 1 2
ATOM      2  N   LYS C   4     -36.823  26.579 -23.679  1.00 52.22 LIG-0.35  N 
ATOM      3  C   ILE C   3     -35.633  26.967 -23.230  1.00 49.48 LIG 0.24  C 
ATOM      4 O    ILE C   3     -35.370  28.132 -22.934  1.00 46.52 LIG-0.27  OA
ATOM      5 H    LYS C   4     -37.004  25.770 -23.907  1.00 52.22 LIG 0.16  HD
BRANCH 3 6
ATOM      6  CA  ILE C   3     -34.577  25.871 -23.107  1.00 52.28 LIG 0.18  C 
BRANCH 6 7
ATOM      7  N   ILE C   3     -33.304  26.329 -23.650  1.00 58.50 LIG-0.34  N 
ATOM      8 H    ILE C   3     -32.633  26.226 -23.122  1.00 58.50 LIG 0.16  HD
ATOM      9  C   GLN C   2     -33.219  26.858 -24.867  1.00 66.26 LIG 0.26  C 
ATOM     10 O    GLN C   2     -34.195  26.998 -25.604  1.00 73.27 LIG-0.27  OA
BRANCH 9 11
ATOM     11  CA  GLN C   2     -31.831  27.301 -25.320  1.00 65.71 LIG 0.40  C 
ATOM     12  N   GLN C   2     -31.255  28.242 -24.368  1.00 61.11 LIG 0.61  N 
BRANCH 11 13
ATOM     13  CB  GLN C   2     -30.921  26.082 -25.490  1.00 69.09 LIG 0.06  C 
BRANCH 13 14
ATOM     14  CG  GLN C   2     -31.401  25.083 -26.541  1.00 69.91 LIG 0.10  C 
BRANCH 14 15
ATOM     15  CD  GLN C   2     -32.233  23.961 -25.949  1.00 70.47 LIG 0.21  C 
ATOM     16 OE1  GLN C   2     -31.934  23.453 -24.870  1.00 73.69 LIG-0.27  OA
ATOM     17  NE2 GLN C   2     -33.287  23.570 -26.657  1.00 67.69 LIG-0.37  N 
ATOM     18 21HE GLN C   2     -33.465  23.949 -27.408  1.00 67.69 LIG 0.16  HD
ATOM     19 22HE GLN C   2     -33.792  22.938 -26.364  1.00 67.69 LIG 0.16  HD
ENDBRANCH 14 15
ENDBRANCH 13 14
ENDBRANCH 11 13
ENDBRANCH 9 11
ENDBRANCH 6 7
BRANCH 6 20
ATOM     20  CB  ILE C   3     -34.445  25.444 -21.632  1.00 50.18 LIG 0.01  C 
ATOM     21  CG2 ILE C   3     -35.775  25.642 -20.896  1.00 50.82 LIG 0.01  C 
BRANCH 20 22
ATOM     22  CG1 ILE C   3     -33.977  23.987 -21.548  1.00 50.01 LIG 0.00  C 
ATOM     23  CD1 ILE C   3     -35.024  23.019 -21.039  1.00 50.06 LIG 0.01  C 
ENDBRANCH 20 22
ENDBRANCH 6 20
ENDBRANCH 3 6
ENDBRANCH 1 2
BRANCH 1 24
ATOM     24  CB  LYS C   4     -37.910  28.161 -25.208  1.00 61.43 LIG 0.04  C 
BRANCH 24 25
ATOM     25  CG  LYS C   4     -38.609  27.371 -26.303  1.00 66.58 LIG 0.00  C 
BRANCH 25 26
ATOM     26  CD  LYS C   4     -37.677  27.136 -27.484  1.00 73.00 LIG 0.03  C 
BRANCH 26 27
ATOM     27  CE  LYS C   4     -37.952  25.805 -28.164  1.00 75.18 LIG 0.23  C 
BRANCH 27 28
ATOM     28  NZ  LYS C   4     -37.589  25.837 -29.609  1.00 76.64 LIG-0.08  N 
ATOM     29 HZ3  LYS C   4     -36.788  26.213 -29.706  1.00 76.64 LIG 0.27  HD
ATOM     30 HZ2  LYS C   4     -38.195  26.312 -30.056  1.00 76.64 LIG 0.27  HD
ATOM     31 HZ1  LYS C   4     -37.567  25.007 -29.928  1.00 76.64 LIG 0.27  HD
ENDBRANCH 27 28
ENDBRANCH 26 27
ENDBRANCH 25 26
ENDBRANCH 24 25
ENDBRANCH 1 24
BRANCH 1 32
ATOM     32  C   LYS C   4     -39.261  26.761 -23.619  1.00 57.21 LIG 0.24  C 
ATOM     33  N   ASN C   5     -39.185  25.436 -23.543  1.00 57.25 LIG-0.35  N 
ATOM     34 H    ASN C   5     -38.451  24.992 -23.602  1.00 57.25 LIG 0.16  HD
ATOM     35 O    LYS C   4     -40.323  27.379 -23.529  1.00 57.68 LIG-0.27  OA
BRANCH 33 36
ATOM     36  CA  ASN C   5     -40.371  24.611 -23.348  1.00 58.26 LIG 0.18  C 
BRANCH 36 37
ATOM     37  CB  ASN C   5     -40.036  23.138 -23.584  1.00 53.49 LIG 0.14  C 
BRANCH 37 38
ATOM     38  CG  ASN C   5     -40.160  22.739 -25.042  1.00 47.90 LIG 0.22  C 
ATOM     39 OD1  ASN C   5     -39.842  23.519 -25.940  1.00 45.37 LIG-0.27  OA
ATOM     40  ND2 ASN C   5     -40.626  21.520 -25.285  1.00 45.09 LIG-0.37  N 
ATOM     41 22HD ASN C   5     -40.838  21.003 -24.632  1.00 45.09 LIG 0.16  HD
ATOM     42 21HD ASN C   5     -40.715  21.248 -26.096  1.00 45.09 LIG 0.16  HD
ENDBRANCH 37 38
ENDBRANCH 36 37
BRANCH 36 43
ATOM     43  C   ASN C   5     -40.956  24.789 -21.951  1.00 62.82 LIG 0.24  C 
ATOM     44 O    ASN C   5     -40.252  25.217 -21.029  1.00 59.04 LIG-0.27  OA
ATOM     45  N   PRO C   6     -42.235  24.463 -21.799  1.00 69.97 LIG-0.34  N 
ATOM     46  CA  PRO C   6     -42.914  24.589 -20.504  1.00 73.90 LIG 0.18  C 
ATOM     47  CD  PRO C   6     -43.158  24.055 -22.873  1.00 74.49 LIG 0.13  C 
ATOM     48  CB  PRO C   6     -44.262  23.910 -20.752  1.00 75.59 LIG 0.04  C 
ATOM     49  CG  PRO C   6     -44.507  24.081 -22.211  1.00 76.33 LIG 0.02  C 
BRANCH 46 50
ATOM     50  C   PRO C   6     -42.159  23.880 -19.383  1.00 72.73 LIG 0.24  C 
ATOM     51 O    PRO C   6     -42.252  24.287 -18.225  1.00 74.17 LIG-0.27  OA
ATOM     52  N   ILE C   7     -41.421  22.832 -19.732  1.00 69.55 LIG-0.35  N 
ATOM     53 H    ILE C   7     -41.349  22.542 -20.538  1.00 69.55 LIG 0.16  HD
BRANCH 52 54
ATOM     54  CA  ILE C   7     -40.656  22.074 -18.749  1.00 67.58 LIG 0.17  C 
BRANCH 54 55
ATOM     55  CB  ILE C   7     -39.848  23.007 -17.829  1.00 70.68 LIG 0.01  C 
ATOM     56  CG2 ILE C   7     -39.021  22.194 -16.845  1.00 70.33 LIG 0.01  C 
BRANCH 55 57
ATOM     57  CG1 ILE C   7     -38.941  23.917 -18.660  1.00 72.59 LIG 0.00  C 
ATOM     58  CD1 ILE C   7     -38.101  23.174 -19.676  1.00 73.15 LIG 0.01  C 
ENDBRANCH 55 57
ENDBRANCH 54 55
BRANCH 54 59
ATOM     59  C   ILE C   7     -41.578  21.216 -17.891  1.00 63.70 LIG 0.22  C 
ATOM     60 O    ILE C   7     -42.382  20.441 -18.410  1.00 60.54 LIG-0.29  OA
ENDBRANCH 54 59
ENDBRANCH 52 54
ENDBRANCH 46 50
ENDBRANCH 36 43
ENDBRANCH 33 36
ENDBRANCH 1 32
TORSDOF 24
ENDMDL
