MODEL 1
USER: ADFR SOLUTION from run 52
USER: SCORE 17.007880 LL:  -4.117 LR: -12.972 RR:   0.000 FEB:  -9.392
USER: RMSD 1.633502
USER: SEED 51
USER: STATUS no improvement in best in 9 clusters for 5 generations
USER: GENES 14
USER: genes 0 Translation |==|  0.51965 0.48596 0.44088
USER: genes 1 Rotation |==|  0.52672 0.56897 0.59267 0.98574
USER: genes 2 Torsion [N]-CA--C-[O] |==|  0.63971
USER: genes 3 Torsion [C]-N--CA-[CB] |==|  0.35657
USER: genes 4 Torsion [N]-CA--CB-[CG] |==|  0.91377
USER: genes 5 Torsion [CA]-CB--CG-[CD2] |==|  0.90799
USER: genes 6 Torsion [N]-CA--C-[O] |==|  0.10897
USER: genes 7 Torsion [N]-C--CA-[N] |==|  0.35649
USER: genes 8 Torsion [C]-CA--CB-[CG2] |==|  0.59225
USER: genes 9 Torsion [CA]-CB--CG1-[CD1] |==|  0.57888
USER: genes 10 Torsion [C]-CA--N-[C] |==|  0.76290
USER: genes 11 Torsion [N]-C--CA-[N] |==|  0.05052
USER: genes 12 Torsion [C]-CA--CB-[CG] |==|  0.80183
USER: genes 13 Torsion [CA]-CB--CG-[OD2] |==|  0.90036
ROOT
ATOM      1  C   ILE D 175      86.038  44.109  29.843  1.00 46.12 LIG 0.24  C 
ATOM      2 O    ILE D 175      86.936  44.624  29.170  1.00 42.41 LIG-0.27  OA
ATOM      3  N   PRO D 176      85.959  42.778  30.037  1.00 41.83 LIG-0.34  N 
ATOM      4  CA  PRO D 176      87.040  41.891  29.600  1.00 39.90 LIG 0.18  C 
ATOM      5  CB  PRO D 176      86.868  40.699  30.535  1.00 38.91 LIG 0.04  C 
ATOM      6  CG  PRO D 176      85.384  40.595  30.680  1.00 40.22 LIG 0.02  C 
ATOM      7  CD  PRO D 176      84.849  42.008  30.630  1.00 41.02 LIG 0.13  C 
ENDROOT
BRANCH 4 8
ATOM      8  C   PRO D 176      86.936  41.456  28.125  1.00 41.09 LIG 0.24  C 
ATOM      9  N   PHE D 177      86.751  42.419  27.227  1.00 41.46 LIG-0.34  N 
ATOM     10 H    PHE D 177      86.603  43.241  27.431  1.00 41.46 LIG 0.16  HD
ATOM     11 O    PRO D 176      87.019  40.258  27.812  1.00 40.08 LIG-0.27  OA
BRANCH 9 12
ATOM     12  CA  PHE D 177      86.785  42.153  25.793  1.00 42.13 LIG 0.19  C 
BRANCH 12 13
ATOM     13  CB  PHE D 177      85.534  42.711  25.103  1.00 40.75 LIG 0.07  C 
BRANCH 13 14
ATOM     14  CG  PHE D 177      84.304  42.713  25.969  1.00 38.35 LIG-0.06  A 
ATOM     15  CD1 PHE D 177      83.330  43.698  25.823  1.00 38.94 LIG 0.01  A 
ATOM     16  CE1 PHE D 177      82.196  43.696  26.617  1.00 37.83 LIG 0.00  A 
ATOM     17  CZ  PHE D 177      82.013  42.701  27.558  1.00 37.53 LIG 0.00  A 
ATOM     18  CE2 PHE D 177      82.966  41.708  27.708  1.00 36.58 LIG 0.00  A 
ATOM     19  CD2 PHE D 177      84.103  41.716  26.915  1.00 37.89 LIG 0.01  A 
ENDBRANCH 13 14
ENDBRANCH 12 13
BRANCH 12 20
ATOM     20  C   PHE D 177      88.044  42.754  25.189  1.00 42.35 LIG 0.20  C 
ATOM     21 OXT  PHE D 177      88.016  43.302  24.094  1.00 44.55 LIG-0.65  OA
ATOM     22 O    PHE D 177      89.118  42.707  25.790  1.00 42.35 LIG-0.65  OA
ENDBRANCH 12 20
ENDBRANCH 9 12
ENDBRANCH 4 8
BRANCH 1 23
ATOM     23  CA  ILE D 175      84.966  44.993  30.519  1.00 50.15 LIG 0.18  C 
BRANCH 23 24
ATOM     24  CB  ILE D 175      83.943  45.569  29.506  1.00 52.56 LIG 0.01  C 
ATOM     25  CG2 ILE D 175      83.451  46.957  29.915  1.00 53.60 LIG 0.01  C 
BRANCH 24 26
ATOM     26  CG1 ILE D 175      84.540  45.596  28.090  1.00 53.43 LIG 0.00  C 
ATOM     27  CD1 ILE D 175      83.973  46.689  27.206  1.00 54.83 LIG 0.01  C 
ENDBRANCH 24 26
ENDBRANCH 23 24
BRANCH 23 28
ATOM     28  N   ILE D 175      85.657  46.046  31.264  1.00 52.48 LIG-0.34  N 
ATOM     29 H    ILE D 175      85.751  46.786  30.835  1.00 52.48 LIG 0.16  HD
ATOM     30  C   ASP D 174      86.092  45.838  32.506  1.00 53.52 LIG 0.26  C 
ATOM     31 O    ASP D 174      85.743  44.868  33.177  1.00 50.42 LIG-0.27  OA
BRANCH 30 32
ATOM     32  CA  ASP D 174      87.015  46.894  33.119  1.00 56.25 LIG 0.41  C 
ATOM     33  N   ASP D 174      86.982  48.224  32.429  1.00 55.41 LIG 0.61  N 
BRANCH 32 34
ATOM     34  CB  ASP D 174      86.673  47.029  34.599  1.00 59.33 LIG 0.16  C 
BRANCH 34 35
ATOM     35  CG  ASP D 174      85.335  47.715  34.816  1.00 62.66 LIG 0.17  C 
ATOM     36 OD2  ASP D 174      84.993  48.636  34.040  1.00 62.95 LIG-0.65  OA
ATOM     37 OD1  ASP D 174      84.618  47.310  35.760  1.00 63.24 LIG-0.65  OA
ENDBRANCH 34 35
ENDBRANCH 32 34
ENDBRANCH 30 32
ENDBRANCH 23 28
ENDBRANCH 1 23
TORSDOF 12
ENDMDL
MODEL 2
USER: ADFR SOLUTION from run 34
USER: SCORE 15.365601 LL:  -3.667 LR: -12.848 RR:   0.000 FEB:  -9.269
USER: RMSD 7.104417
USER: SEED 33
USER: STATUS no improvement in best in 5 clusters for 5 generations
USER: GENES 14
USER: genes 0 Translation |==|  0.39020 0.45498 0.40736
USER: genes 1 Rotation |==|  0.42356 0.15956 0.80462 0.68831
USER: genes 2 Torsion [N]-CA--C-[O] |==|  0.67971
USER: genes 3 Torsion [C]-N--CA-[CB] |==|  0.45344
USER: genes 4 Torsion [N]-CA--CB-[CG] |==|  0.97387
USER: genes 5 Torsion [CA]-CB--CG-[CD2] |==|  0.27473
USER: genes 6 Torsion [N]-CA--C-[O] |==|  0.19672
USER: genes 7 Torsion [N]-C--CA-[N] |==|  0.87572
USER: genes 8 Torsion [C]-CA--CB-[CG2] |==|  0.86429
USER: genes 9 Torsion [CA]-CB--CG1-[CD1] |==|  0.08565
USER: genes 10 Torsion [C]-CA--N-[C] |==|  0.51667
USER: genes 11 Torsion [N]-C--CA-[N] |==|  0.44606
USER: genes 12 Torsion [C]-CA--CB-[CG] |==|  0.63312
USER: genes 13 Torsion [CA]-CB--CG-[OD2] |==|  0.32083
ROOT
ATOM      1  C   ILE D 175      84.096  43.598  29.164  1.00 46.12 LIG 0.24  C 
ATOM      2 O    ILE D 175      83.590  44.681  29.474  1.00 42.41 LIG-0.27  OA
ATOM      3  N   PRO D 176      84.641  42.772  30.079  1.00 41.83 LIG-0.34  N 
ATOM      4  CA  PRO D 176      84.503  43.043  31.512  1.00 39.90 LIG 0.18  C 
ATOM      5  CB  PRO D 176      84.651  41.649  32.113  1.00 38.91 LIG 0.04  C 
ATOM      6  CG  PRO D 176      85.676  41.010  31.233  1.00 40.22 LIG 0.02  C 
ATOM      7  CD  PRO D 176      85.455  41.564  29.845  1.00 41.02 LIG 0.13  C 
ENDROOT
BRANCH 4 8
ATOM      8  C   PRO D 176      85.569  44.004  32.073  1.00 41.09 LIG 0.24  C 
ATOM      9  N   PHE D 177      85.559  45.249  31.609  1.00 41.46 LIG-0.34  N 
ATOM     10 H    PHE D 177      85.056  45.515  30.963  1.00 41.46 LIG 0.16  HD
ATOM     11 O    PRO D 176      86.393  43.612  32.915  1.00 40.08 LIG-0.27  OA
BRANCH 9 12
ATOM     12  CA  PHE D 177      86.418  46.288  32.167  1.00 42.13 LIG 0.19  C 
BRANCH 12 13
ATOM     13  CB  PHE D 177      86.521  47.485  31.214  1.00 40.75 LIG 0.07  C 
BRANCH 13 14
ATOM     14  CG  PHE D 177      85.920  47.241  29.855  1.00 38.35 LIG-0.06  A 
ATOM     15  CD1 PHE D 177      86.622  46.532  28.884  1.00 38.94 LIG 0.01  A 
ATOM     16  CE1 PHE D 177      86.067  46.304  27.635  1.00 37.83 LIG 0.00  A 
ATOM     17  CZ  PHE D 177      84.798  46.769  27.348  1.00 37.53 LIG 0.00  A 
ATOM     18  CE2 PHE D 177      84.083  47.465  28.308  1.00 36.58 LIG 0.00  A 
ATOM     19  CD2 PHE D 177      84.644  47.697  29.554  1.00 37.89 LIG 0.01  A 
ENDBRANCH 13 14
ENDBRANCH 12 13
BRANCH 12 20
ATOM     20  C   PHE D 177      85.881  46.725  33.521  1.00 42.35 LIG 0.20  C 
ATOM     21 OXT  PHE D 177      85.361  47.825  33.665  1.00 44.55 LIG-0.65  OA
ATOM     22 O    PHE D 177      85.952  45.981  34.499  1.00 42.35 LIG-0.65  OA
ENDBRANCH 12 20
ENDBRANCH 9 12
ENDBRANCH 4 8
BRANCH 1 23
ATOM     23  CA  ILE D 175      84.099  43.132  27.691  1.00 50.15 LIG 0.18  C 
BRANCH 23 24
ATOM     24  CB  ILE D 175      82.967  42.118  27.385  1.00 52.56 LIG 0.01  C 
ATOM     25  CG2 ILE D 175      82.917  40.989  28.415  1.00 53.60 LIG 0.01  C 
BRANCH 24 26
ATOM     26  CG1 ILE D 175      81.610  42.832  27.290  1.00 53.43 LIG 0.00  C 
ATOM     27  CD1 ILE D 175      81.700  44.255  26.779  1.00 54.83 LIG 0.01  C 
ENDBRANCH 24 26
ENDBRANCH 23 24
BRANCH 23 28
ATOM     28  N   ILE D 175      85.424  42.586  27.395  1.00 52.48 LIG-0.34  N 
ATOM     29 H    ILE D 175      85.949  42.531  28.074  1.00 52.48 LIG 0.16  HD
ATOM     30  C   ASP D 174      85.754  42.215  26.159  1.00 53.52 LIG 0.26  C 
ATOM     31 O    ASP D 174      84.924  42.081  25.262  1.00 50.42 LIG-0.27  OA
BRANCH 30 32
ATOM     32  CA  ASP D 174      87.226  41.891  25.887  1.00 56.25 LIG 0.41  C 
ATOM     33  N   ASP D 174      87.463  41.063  24.660  1.00 55.41 LIG 0.61  N 
BRANCH 32 34
ATOM     34  CB  ASP D 174      88.003  43.201  25.829  1.00 59.33 LIG 0.16  C 
BRANCH 34 35
ATOM     35  CG  ASP D 174      88.913  43.274  24.615  1.00 62.66 LIG 0.17  C 
ATOM     36 OD2  ASP D 174      88.689  44.142  23.741  1.00 62.95 LIG-0.65  OA
ATOM     37 OD1  ASP D 174      89.868  42.466  24.552  1.00 63.24 LIG-0.65  OA
ENDBRANCH 34 35
ENDBRANCH 32 34
ENDBRANCH 30 32
ENDBRANCH 23 28
ENDBRANCH 1 23
TORSDOF 12
ENDMDL
MODEL 3
USER: ADFR SOLUTION from run 96
USER: SCORE 15.167097 LL:  -2.683 LR: -12.691 RR:   0.000 FEB:  -9.112
USER: RMSD 5.624374
USER: SEED 95
USER: STATUS no improvement in best in 7 clusters for 5 generations
USER: GENES 14
USER: genes 0 Translation |==|  0.55040 0.30552 0.41831
USER: genes 1 Rotation |==|  0.79973 0.30249 0.27965 0.76944
USER: genes 2 Torsion [N]-CA--C-[O] |==|  0.97084
USER: genes 3 Torsion [C]-N--CA-[CB] |==|  0.50942
USER: genes 4 Torsion [N]-CA--CB-[CG] |==|  0.75785
USER: genes 5 Torsion [CA]-CB--CG-[CD2] |==|  0.95546
USER: genes 6 Torsion [N]-CA--C-[O] |==|  0.39675
USER: genes 7 Torsion [N]-C--CA-[N] |==|  0.86162
USER: genes 8 Torsion [C]-CA--CB-[CG2] |==|  0.42399
USER: genes 9 Torsion [CA]-CB--CG1-[CD1] |==|  0.31296
USER: genes 10 Torsion [C]-CA--N-[C] |==|  0.80012
USER: genes 11 Torsion [N]-C--CA-[N] |==|  0.78232
USER: genes 12 Torsion [C]-CA--CB-[CG] |==|  0.14427
USER: genes 13 Torsion [CA]-CB--CG-[OD2] |==|  0.69685
ROOT
ATOM      1  C   ILE D 175      86.499  41.132  29.386  1.00 46.12 LIG 0.24  C 
ATOM      2 O    ILE D 175      87.240  40.146  29.341  1.00 42.41 LIG-0.27  OA
ATOM      3  N   PRO D 176      86.090  41.774  28.274  1.00 41.83 LIG-0.34  N 
ATOM      4  CA  PRO D 176      86.368  41.224  26.945  1.00 39.90 LIG 0.18  C 
ATOM      5  CB  PRO D 176      85.251  41.840  26.108  1.00 38.91 LIG 0.04  C 
ATOM      6  CG  PRO D 176      85.102  43.205  26.697  1.00 40.22 LIG 0.02  C 
ATOM      7  CD  PRO D 176      85.388  43.068  28.175  1.00 41.02 LIG 0.13  C 
ENDROOT
BRANCH 4 8
ATOM      8  C   PRO D 176      87.752  41.606  26.385  1.00 41.09 LIG 0.24  C 
ATOM      9  N   PHE D 177      88.154  40.967  25.291  1.00 41.46 LIG-0.34  N 
ATOM     10 H    PHE D 177      87.729  40.307  24.940  1.00 41.46 LIG 0.16  HD
ATOM     11 O    PRO D 176      88.445  42.468  26.947  1.00 40.08 LIG-0.27  OA
BRANCH 9 12
ATOM     12  CA  PHE D 177      89.373  41.342  24.584  1.00 42.13 LIG 0.19  C 
BRANCH 12 13
ATOM     13  CB  PHE D 177      89.552  40.498  23.315  1.00 40.75 LIG 0.07  C 
BRANCH 13 14
ATOM     14  CG  PHE D 177      90.269  39.195  23.540  1.00 38.35 LIG-0.06  A 
ATOM     15  CD1 PHE D 177      90.242  38.191  22.575  1.00 38.94 LIG 0.01  A 
ATOM     16  CE1 PHE D 177      90.907  36.993  22.780  1.00 37.83 LIG 0.00  A 
ATOM     17  CZ  PHE D 177      91.619  36.789  23.947  1.00 37.53 LIG 0.00  A 
ATOM     18  CE2 PHE D 177      91.665  37.782  24.910  1.00 36.58 LIG 0.00  A 
ATOM     19  CD2 PHE D 177      90.994  38.978  24.704  1.00 37.89 LIG 0.01  A 
ENDBRANCH 13 14
ENDBRANCH 12 13
BRANCH 12 20
ATOM     20  C   PHE D 177      89.334  42.823  24.241  1.00 42.35 LIG 0.20  C 
ATOM     21 OXT  PHE D 177      88.284  43.365  23.915  1.00 44.55 LIG-0.65  OA
ATOM     22 O    PHE D 177      90.355  43.510  24.290  1.00 42.35 LIG-0.65  OA
ENDBRANCH 12 20
ENDBRANCH 9 12
ENDBRANCH 4 8
BRANCH 1 23
ATOM     23  CA  ILE D 175      85.984  41.660  30.744  1.00 50.15 LIG 0.18  C 
BRANCH 23 24
ATOM     24  CB  ILE D 175      84.499  41.295  30.999  1.00 52.56 LIG 0.01  C 
ATOM     25  CG2 ILE D 175      84.182  41.194  32.491  1.00 53.60 LIG 0.01  C 
BRANCH 24 26
ATOM     26  CG1 ILE D 175      83.567  42.305  30.310  1.00 53.43 LIG 0.00  C 
ATOM     27  CD1 ILE D 175      82.767  41.718  29.165  1.00 54.83 LIG 0.01  C 
ENDBRANCH 24 26
ENDBRANCH 23 24
BRANCH 23 28
ATOM     28  N   ILE D 175      86.212  43.104  30.780  1.00 52.48 LIG-0.34  N 
ATOM     29 H    ILE D 175      85.500  43.581  30.711  1.00 52.48 LIG 0.16  HD
ATOM     30  C   ASP D 174      87.440  43.604  30.908  1.00 53.52 LIG 0.26  C 
ATOM     31 O    ASP D 174      88.405  42.916  31.238  1.00 50.42 LIG-0.27  OA
BRANCH 30 32
ATOM     32  CA  ASP D 174      87.619  45.108  30.688  1.00 56.25 LIG 0.41  C 
ATOM     33  N   ASP D 174      87.647  45.527  29.249  1.00 55.41 LIG 0.61  N 
BRANCH 32 34
ATOM     34  CB  ASP D 174      86.523  45.839  31.456  1.00 59.33 LIG 0.16  C 
BRANCH 34 35
ATOM     35  CG  ASP D 174      86.455  45.405  32.910  1.00 62.66 LIG 0.17  C 
ATOM     36 OD2  ASP D 174      85.482  44.715  33.291  1.00 62.95 LIG-0.65  OA
ATOM     37 OD1  ASP D 174      87.395  45.744  33.665  1.00 63.24 LIG-0.65  OA
ENDBRANCH 34 35
ENDBRANCH 32 34
ENDBRANCH 30 32
ENDBRANCH 23 28
ENDBRANCH 1 23
TORSDOF 12
ENDMDL
MODEL 4
USER: ADFR SOLUTION from run 125
USER: SCORE 15.435618 LL:  -3.277 LR: -12.460 RR:   0.000 FEB:  -8.880
USER: RMSD 6.282589
USER: SEED 124
USER: STATUS no improvement in best in 8 clusters for 5 generations
USER: GENES 14
USER: genes 0 Translation |==|  0.50257 0.29435 0.32831
USER: genes 1 Rotation |==|  0.80959 0.28224 0.18493 0.58642
USER: genes 2 Torsion [N]-CA--C-[O] |==|  0.90213
USER: genes 3 Torsion [C]-N--CA-[CB] |==|  0.50132
USER: genes 4 Torsion [N]-CA--CB-[CG] |==|  0.72305
USER: genes 5 Torsion [CA]-CB--CG-[CD2] |==|  0.92792
USER: genes 6 Torsion [N]-CA--C-[O] |==|  0.90862
USER: genes 7 Torsion [N]-C--CA-[N] |==|  0.86244
USER: genes 8 Torsion [C]-CA--CB-[CG2] |==|  0.66664
USER: genes 9 Torsion [CA]-CB--CG1-[CD1] |==|  0.63944
USER: genes 10 Torsion [C]-CA--N-[C] |==|  0.74124
USER: genes 11 Torsion [N]-C--CA-[N] |==|  0.88075
USER: genes 12 Torsion [C]-CA--CB-[CG] |==|  0.75108
USER: genes 13 Torsion [CA]-CB--CG-[OD2] |==|  0.56637
ROOT
ATOM      1  C   ILE D 175      85.782  40.948  27.563  1.00 46.12 LIG 0.24  C 
ATOM      2 O    ILE D 175      85.944  39.895  26.939  1.00 42.41 LIG-0.27  OA
ATOM      3  N   PRO D 176      86.049  42.152  27.021  1.00 41.83 LIG-0.34  N 
ATOM      4  CA  PRO D 176      86.382  42.279  25.601  1.00 39.90 LIG 0.18  C 
ATOM      5  CB  PRO D 176      85.971  43.718  25.307  1.00 38.91 LIG 0.04  C 
ATOM      6  CG  PRO D 176      86.336  44.437  26.565  1.00 40.22 LIG 0.02  C 
ATOM      7  CD  PRO D 176      86.106  43.463  27.697  1.00 41.02 LIG 0.13  C 
ENDROOT
BRANCH 4 8
ATOM      8  C   PRO D 176      87.874  42.055  25.285  1.00 41.09 LIG 0.24  C 
ATOM      9  N   PHE D 177      88.160  41.450  24.136  1.00 41.46 LIG-0.34  N 
ATOM     10 H    PHE D 177      87.567  41.108  23.615  1.00 41.46 LIG 0.16  HD
ATOM     11 O    PRO D 176      88.752  42.425  26.080  1.00 40.08 LIG-0.27  OA
BRANCH 9 12
ATOM     12  CA  PHE D 177      89.531  41.314  23.656  1.00 42.13 LIG 0.19  C 
BRANCH 12 13
ATOM     13  CB  PHE D 177      89.568  40.589  22.305  1.00 40.75 LIG 0.07  C 
BRANCH 13 14
ATOM     14  CG  PHE D 177      89.921  39.129  22.401  1.00 38.35 LIG-0.06  A 
ATOM     15  CD1 PHE D 177      89.519  38.232  21.414  1.00 38.94 LIG 0.01  A 
ATOM     16  CE1 PHE D 177      89.847  36.889  21.501  1.00 37.83 LIG 0.00  A 
ATOM     17  CZ  PHE D 177      90.595  36.429  22.568  1.00 37.53 LIG 0.00  A 
ATOM     18  CE2 PHE D 177      91.013  37.310  23.551  1.00 36.58 LIG 0.00  A 
ATOM     19  CD2 PHE D 177      90.677  38.652  23.464  1.00 37.89 LIG 0.01  A 
ENDBRANCH 13 14
ENDBRANCH 12 13
BRANCH 12 20
ATOM     20  C   PHE D 177      90.174  42.687  23.545  1.00 42.35 LIG 0.20  C 
ATOM     21 OXT  PHE D 177      91.373  42.838  23.747  1.00 44.55 LIG-0.65  OA
ATOM     22 O    PHE D 177      89.505  43.676  23.244  1.00 42.35 LIG-0.65  OA
ENDBRANCH 12 20
ENDBRANCH 9 12
ENDBRANCH 4 8
BRANCH 1 23
ATOM     23  CA  ILE D 175      85.232  40.922  29.007  1.00 50.15 LIG 0.18  C 
BRANCH 23 24
ATOM     24  CB  ILE D 175      83.745  41.355  29.085  1.00 52.56 LIG 0.01  C 
ATOM     25  CG2 ILE D 175      83.553  42.586  29.970  1.00 53.60 LIG 0.01  C 
BRANCH 24 26
ATOM     26  CG1 ILE D 175      83.176  41.599  27.679  1.00 53.43 LIG 0.00  C 
ATOM     27  CD1 ILE D 175      82.464  42.928  27.527  1.00 54.83 LIG 0.01  C 
ENDBRANCH 24 26
ENDBRANCH 23 24
BRANCH 23 28
ATOM     28  N   ILE D 175      86.096  41.766  29.832  1.00 52.48 LIG-0.34  N 
ATOM     29 H    ILE D 175      85.883  42.598  29.840  1.00 52.48 LIG 0.16  HD
ATOM     30  C   ASP D 174      87.124  41.248  30.504  1.00 53.52 LIG 0.26  C 
ATOM     31 O    ASP D 174      87.267  40.037  30.667  1.00 50.42 LIG-0.27  OA
BRANCH 30 32
ATOM     32  CA  ASP D 174      88.119  42.224  31.137  1.00 56.25 LIG 0.41  C 
ATOM     33  N   ASP D 174      88.498  43.380  30.262  1.00 55.41 LIG 0.61  N 
BRANCH 32 34
ATOM     34  CB  ASP D 174      87.543  42.702  32.466  1.00 59.33 LIG 0.16  C 
BRANCH 34 35
ATOM     35  CG  ASP D 174      86.688  43.947  32.304  1.00 62.66 LIG 0.17  C 
ATOM     36 OD2  ASP D 174      86.526  44.702  33.290  1.00 62.95 LIG-0.65  OA
ATOM     37 OD1  ASP D 174      86.194  44.174  31.176  1.00 63.24 LIG-0.65  OA
ENDBRANCH 34 35
ENDBRANCH 32 34
ENDBRANCH 30 32
ENDBRANCH 23 28
ENDBRANCH 1 23
TORSDOF 12
ENDMDL
MODEL 5
USER: ADFR SOLUTION from run 39
USER: SCORE 16.431452 LL:  -4.390 LR: -12.458 RR:   0.000 FEB:  -8.879
USER: RMSD 4.382059
USER: SEED 38
USER: STATUS 1 or 2 clusters left
USER: GENES 14
USER: genes 0 Translation |==|  0.54953 0.30901 0.38437
USER: genes 1 Rotation |==|  0.77100 0.51939 0.23494 0.82546
USER: genes 2 Torsion [N]-CA--C-[O] |==|  0.59604
USER: genes 3 Torsion [C]-N--CA-[CB] |==|  0.26157
USER: genes 4 Torsion [N]-CA--CB-[CG] |==|  0.90220
USER: genes 5 Torsion [CA]-CB--CG-[CD2] |==|  0.26060
USER: genes 6 Torsion [N]-CA--C-[O] |==|  0.92797
USER: genes 7 Torsion [N]-C--CA-[N] |==|  0.83447
USER: genes 8 Torsion [C]-CA--CB-[CG2] |==|  0.27476
USER: genes 9 Torsion [CA]-CB--CG1-[CD1] |==|  0.30945
USER: genes 10 Torsion [C]-CA--N-[C] |==|  0.76984
USER: genes 11 Torsion [N]-C--CA-[N] |==|  0.67335
USER: genes 12 Torsion [C]-CA--CB-[CG] |==|  0.22991
USER: genes 13 Torsion [CA]-CB--CG-[OD2] |==|  0.11126
ROOT
ATOM      1  C   ILE D 175      86.486  41.190  28.699  1.00 46.12 LIG 0.24  C 
ATOM      2 O    ILE D 175      87.253  40.735  27.845  1.00 42.41 LIG-0.27  OA
ATOM      3  N   PRO D 176      85.235  41.591  28.399  1.00 41.83 LIG-0.34  N 
ATOM      4  CA  PRO D 176      84.665  41.345  27.072  1.00 39.90 LIG 0.18  C 
ATOM      5  CB  PRO D 176      83.168  41.341  27.368  1.00 38.91 LIG 0.04  C 
ATOM      6  CG  PRO D 176      83.029  42.394  28.419  1.00 40.22 LIG 0.02  C 
ATOM      7  CD  PRO D 176      84.289  42.337  29.251  1.00 41.02 LIG 0.13  C 
ENDROOT
BRANCH 4 8
ATOM      8  C   PRO D 176      85.020  42.420  26.028  1.00 41.09 LIG 0.24  C 
ATOM      9  N   PHE D 177      86.222  42.978  26.126  1.00 41.46 LIG-0.34  N 
ATOM     10 H    PHE D 177      86.764  42.835  26.778  1.00 41.46 LIG 0.16  HD
ATOM     11 O    PRO D 176      84.205  42.740  25.148  1.00 40.08 LIG-0.27  OA
BRANCH 9 12
ATOM     12  CA  PHE D 177      86.731  43.897  25.113  1.00 42.13 LIG 0.19  C 
BRANCH 12 13
ATOM     13  CB  PHE D 177      86.442  45.353  25.501  1.00 40.75 LIG 0.07  C 
BRANCH 13 14
ATOM     14  CG  PHE D 177      85.134  45.550  26.218  1.00 38.35 LIG-0.06  A 
ATOM     15  CD1 PHE D 177      83.948  45.709  25.505  1.00 38.94 LIG 0.01  A 
ATOM     16  CE1 PHE D 177      82.743  45.885  26.165  1.00 37.83 LIG 0.00  A 
ATOM     17  CZ  PHE D 177      82.706  45.889  27.547  1.00 37.53 LIG 0.00  A 
ATOM     18  CE2 PHE D 177      83.875  45.719  28.269  1.00 36.58 LIG 0.00  A 
ATOM     19  CD2 PHE D 177      85.080  45.550  27.606  1.00 37.89 LIG 0.01  A 
ENDBRANCH 13 14
ENDBRANCH 12 13
BRANCH 12 20
ATOM     20  C   PHE D 177      88.224  43.679  24.925  1.00 42.35 LIG 0.20  C 
ATOM     21 OXT  PHE D 177      88.772  43.964  23.866  1.00 44.55 LIG-0.65  OA
ATOM     22 O    PHE D 177      88.914  43.216  25.833  1.00 42.35 LIG-0.65  OA
ENDBRANCH 12 20
ENDBRANCH 9 12
ENDBRANCH 4 8
BRANCH 1 23
ATOM     23  CA  ILE D 175      86.934  41.293  30.174  1.00 50.15 LIG 0.18  C 
BRANCH 23 24
ATOM     24  CB  ILE D 175      86.121  40.361  31.109  1.00 52.56 LIG 0.01  C 
ATOM     25  CG2 ILE D 175      86.868  39.063  31.415  1.00 53.60 LIG 0.01  C 
BRANCH 24 26
ATOM     26  CG1 ILE D 175      85.741  41.092  32.406  1.00 53.43 LIG 0.00  C 
ATOM     27  CD1 ILE D 175      84.258  41.373  32.540  1.00 54.83 LIG 0.01  C 
ENDBRANCH 24 26
ENDBRANCH 23 24
BRANCH 23 28
ATOM     28  N   ILE D 175      86.839  42.696  30.575  1.00 52.48 LIG-0.34  N 
ATOM     29 H    ILE D 175      86.116  42.902  30.992  1.00 52.48 LIG 0.16  HD
ATOM     30  C   ASP D 174      87.816  43.559  30.297  1.00 53.52 LIG 0.26  C 
ATOM     31 O    ASP D 174      88.929  43.200  29.916  1.00 50.42 LIG-0.27  OA
BRANCH 30 32
ATOM     32  CA  ASP D 174      87.534  45.046  30.526  1.00 56.25 LIG 0.41  C 
ATOM     33  N   ASP D 174      87.594  45.888  29.288  1.00 55.41 LIG 0.61  N 
BRANCH 32 34
ATOM     34  CB  ASP D 174      86.181  45.176  31.218  1.00 59.33 LIG 0.16  C 
BRANCH 34 35
ATOM     35  CG  ASP D 174      86.285  44.977  32.720  1.00 62.66 LIG 0.17  C 
ATOM     36 OD2  ASP D 174      87.263  45.466  33.330  1.00 62.95 LIG-0.65  OA
ATOM     37 OD1  ASP D 174      85.368  44.341  33.290  1.00 63.24 LIG-0.65  OA
ENDBRANCH 34 35
ENDBRANCH 32 34
ENDBRANCH 30 32
ENDBRANCH 23 28
ENDBRANCH 1 23
TORSDOF 12
ENDMDL
MODEL 6
USER: ADFR SOLUTION from run 28
USER: SCORE 15.746401 LL:  -3.504 LR: -12.351 RR:   0.000 FEB:  -8.771
USER: RMSD 7.524858
USER: SEED 27
USER: STATUS no improvement in best in 6 clusters for 5 generations
USER: GENES 14
USER: genes 0 Translation |==|  0.45884 0.51957 0.33910
USER: genes 1 Rotation |==|  0.03148 0.55113 0.42319 0.64824
USER: genes 2 Torsion [N]-CA--C-[O] |==|  0.63594
USER: genes 3 Torsion [C]-N--CA-[CB] |==|  0.46917
USER: genes 4 Torsion [N]-CA--CB-[CG] |==|  0.08904
USER: genes 5 Torsion [CA]-CB--CG-[CD2] |==|  0.23291
USER: genes 6 Torsion [N]-CA--C-[O] |==|  0.83249
USER: genes 7 Torsion [N]-C--CA-[N] |==|  0.47778
USER: genes 8 Torsion [C]-CA--CB-[CG2] |==|  0.37140
USER: genes 9 Torsion [CA]-CB--CG1-[CD1] |==|  0.38836
USER: genes 10 Torsion [C]-CA--N-[C] |==|  0.76371
USER: genes 11 Torsion [N]-C--CA-[N] |==|  0.10930
USER: genes 12 Torsion [C]-CA--CB-[CG] |==|  0.21477
USER: genes 13 Torsion [CA]-CB--CG-[OD2] |==|  0.18405
ROOT
ATOM      1  C   ILE D 175      85.126  44.664  27.782  1.00 46.12 LIG 0.24  C 
ATOM      2 O    ILE D 175      86.059  44.070  28.330  1.00 42.41 LIG-0.27  OA
ATOM      3  N   PRO D 176      84.750  45.904  28.150  1.00 41.83 LIG-0.34  N 
ATOM      4  CA  PRO D 176      85.547  46.677  29.106  1.00 39.90 LIG 0.18  C 
ATOM      5  CB  PRO D 176      85.177  48.111  28.739  1.00 38.91 LIG 0.04  C 
ATOM      6  CG  PRO D 176      83.730  48.006  28.383  1.00 40.22 LIG 0.02  C 
ATOM      7  CD  PRO D 176      83.544  46.650  27.742  1.00 41.02 LIG 0.13  C 
ENDROOT
BRANCH 4 8
ATOM      8  C   PRO D 176      85.215  46.381  30.581  1.00 41.09 LIG 0.24  C 
ATOM      9  N   PHE D 177      85.160  45.102  30.940  1.00 41.46 LIG-0.34  N 
ATOM     10 H    PHE D 177      85.213  44.448  30.384  1.00 41.46 LIG 0.16  HD
ATOM     11 O    PRO D 176      85.008  47.308  31.381  1.00 40.08 LIG-0.27  OA
BRANCH 9 12
ATOM     12  CA  PHE D 177      85.003  44.697  32.332  1.00 42.13 LIG 0.19  C 
BRANCH 12 13
ATOM     13  CB  PHE D 177      84.696  43.197  32.435  1.00 40.75 LIG 0.07  C 
BRANCH 13 14
ATOM     14  CG  PHE D 177      85.333  42.365  31.355  1.00 38.35 LIG-0.06  A 
ATOM     15  CD1 PHE D 177      84.628  42.038  30.199  1.00 38.94 LIG 0.01  A 
ATOM     16  CE1 PHE D 177      85.216  41.276  29.203  1.00 37.83 LIG 0.00  A 
ATOM     17  CZ  PHE D 177      86.521  40.844  29.343  1.00 37.53 LIG 0.00  A 
ATOM     18  CE2 PHE D 177      87.239  41.172  30.481  1.00 36.58 LIG 0.00  A 
ATOM     19  CD2 PHE D 177      86.646  41.930  31.478  1.00 37.89 LIG 0.01  A 
ENDBRANCH 13 14
ENDBRANCH 12 13
BRANCH 12 20
ATOM     20  C   PHE D 177      86.262  45.042  33.112  1.00 42.35 LIG 0.20  C 
ATOM     21 OXT  PHE D 177      86.219  45.805  34.070  1.00 44.55 LIG-0.65  OA
ATOM     22 O    PHE D 177      87.350  44.557  32.802  1.00 42.35 LIG-0.65  OA
ENDBRANCH 12 20
ENDBRANCH 9 12
ENDBRANCH 4 8
BRANCH 1 23
ATOM     23  CA  ILE D 175      84.357  44.003  26.615  1.00 50.15 LIG 0.18  C 
BRANCH 23 24
ATOM     24  CB  ILE D 175      82.862  43.763  26.948  1.00 52.56 LIG 0.01  C 
ATOM     25  CG2 ILE D 175      81.944  44.210  25.811  1.00 53.60 LIG 0.01  C 
BRANCH 24 26
ATOM     26  CG1 ILE D 175      82.615  42.288  27.303  1.00 53.43 LIG 0.00  C 
ATOM     27  CD1 ILE D 175      81.653  42.088  28.456  1.00 54.83 LIG 0.01  C 
ENDBRANCH 24 26
ENDBRANCH 23 24
BRANCH 23 28
ATOM     28  N   ILE D 175      85.051  42.762  26.267  1.00 52.48 LIG-0.34  N 
ATOM     29 H    ILE D 175      84.735  42.057  26.645  1.00 52.48 LIG 0.16  HD
ATOM     30  C   ASP D 174      86.085  42.766  25.428  1.00 53.52 LIG 0.26  C 
ATOM     31 O    ASP D 174      86.367  43.735  24.725  1.00 50.42 LIG-0.27  OA
BRANCH 30 32
ATOM     32  CA  ASP D 174      86.905  41.478  25.310  1.00 56.25 LIG 0.41  C 
ATOM     33  N   ASP D 174      86.092  40.219  25.331  1.00 55.41 LIG 0.61  N 
BRANCH 32 34
ATOM     34  CB  ASP D 174      87.757  41.565  24.048  1.00 59.33 LIG 0.16  C 
BRANCH 34 35
ATOM     35  CG  ASP D 174      88.972  42.456  24.238  1.00 62.66 LIG 0.17  C 
ATOM     36 OD2  ASP D 174      89.868  42.097  25.036  1.00 62.95 LIG-0.65  OA
ATOM     37 OD1  ASP D 174      89.033  43.512  23.567  1.00 63.24 LIG-0.65  OA
ENDBRANCH 34 35
ENDBRANCH 32 34
ENDBRANCH 30 32
ENDBRANCH 23 28
ENDBRANCH 1 23
TORSDOF 12
ENDMDL
MODEL 7
USER: ADFR SOLUTION from run 94
USER: SCORE 15.576392 LL:  -3.997 LR: -12.215 RR:   0.000 FEB:  -8.636
USER: RMSD 6.769663
USER: SEED 93
USER: STATUS no improvement in best in 4 clusters for 5 generations
USER: GENES 14
USER: genes 0 Translation |==|  0.43194 0.44270 0.43902
USER: genes 1 Rotation |==|  0.40260 0.49735 0.01159 0.54433
USER: genes 2 Torsion [N]-CA--C-[O] |==|  0.38920
USER: genes 3 Torsion [C]-N--CA-[CB] |==|  0.85816
USER: genes 4 Torsion [N]-CA--CB-[CG] |==|  0.88524
USER: genes 5 Torsion [CA]-CB--CG-[CD2] |==|  0.36278
USER: genes 6 Torsion [N]-CA--C-[O] |==|  0.02678
USER: genes 7 Torsion [N]-C--CA-[N] |==|  0.81496
USER: genes 8 Torsion [C]-CA--CB-[CG2] |==|  0.09582
USER: genes 9 Torsion [CA]-CB--CG1-[CD1] |==|  0.84486
USER: genes 10 Torsion [C]-CA--N-[C] |==|  0.60000
USER: genes 11 Torsion [N]-C--CA-[N] |==|  0.66563
USER: genes 12 Torsion [C]-CA--CB-[CG] |==|  0.41858
USER: genes 13 Torsion [CA]-CB--CG-[OD2] |==|  0.85830
ROOT
ATOM      1  C   ILE D 175      84.722  43.396  29.805  1.00 46.12 LIG 0.24  C 
ATOM      2 O    ILE D 175      83.521  43.117  29.866  1.00 42.41 LIG-0.27  OA
ATOM      3  N   PRO D 176      85.165  44.668  29.813  1.00 41.83 LIG-0.34  N 
ATOM      4  CA  PRO D 176      84.248  45.781  30.071  1.00 39.90 LIG 0.18  C 
ATOM      5  CB  PRO D 176      85.192  46.849  30.614  1.00 38.91 LIG 0.04  C 
ATOM      6  CG  PRO D 176      86.433  46.644  29.808  1.00 40.22 LIG 0.02  C 
ATOM      7  CD  PRO D 176      86.530  45.160  29.541  1.00 41.02 LIG 0.13  C 
ENDROOT
BRANCH 4 8
ATOM      8  C   PRO D 176      83.506  46.284  28.818  1.00 41.09 LIG 0.24  C 
ATOM      9  N   PHE D 177      84.209  46.354  27.692  1.00 41.46 LIG-0.34  N 
ATOM     10 H    PHE D 177      85.057  46.219  27.649  1.00 41.46 LIG 0.16  HD
ATOM     11 O    PRO D 176      82.309  46.607  28.879  1.00 40.08 LIG-0.27  OA
BRANCH 9 12
ATOM     12  CA  PHE D 177      83.585  46.672  26.412  1.00 42.13 LIG 0.19  C 
BRANCH 12 13
ATOM     13  CB  PHE D 177      82.368  45.772  26.158  1.00 40.75 LIG 0.07  C 
BRANCH 13 14
ATOM     14  CG  PHE D 177      82.575  44.334  26.549  1.00 38.35 LIG-0.06  A 
ATOM     15  CD1 PHE D 177      83.720  43.646  26.153  1.00 38.94 LIG 0.01  A 
ATOM     16  CE1 PHE D 177      83.913  42.324  26.517  1.00 37.83 LIG 0.00  A 
ATOM     17  CZ  PHE D 177      82.970  41.677  27.294  1.00 37.53 LIG 0.00  A 
ATOM     18  CE2 PHE D 177      81.834  42.351  27.706  1.00 36.58 LIG 0.00  A 
ATOM     19  CD2 PHE D 177      81.641  43.672  27.334  1.00 37.89 LIG 0.01  A 
ENDBRANCH 13 14
ENDBRANCH 12 13
BRANCH 12 20
ATOM     20  C   PHE D 177      83.182  48.138  26.387  1.00 42.35 LIG 0.20  C 
ATOM     21 OXT  PHE D 177      82.481  48.582  25.486  1.00 44.55 LIG-0.65  OA
ATOM     22 O    PHE D 177      83.547  48.909  27.275  1.00 42.35 LIG-0.65  OA
ENDBRANCH 12 20
ENDBRANCH 9 12
ENDBRANCH 4 8
BRANCH 1 23
ATOM     23  CA  ILE D 175      85.781  42.272  29.741  1.00 50.15 LIG 0.18  C 
BRANCH 23 24
ATOM     24  CB  ILE D 175      86.794  42.341  30.913  1.00 52.56 LIG 0.01  C 
ATOM     25  CG2 ILE D 175      86.141  42.834  32.205  1.00 53.60 LIG 0.01  C 
BRANCH 24 26
ATOM     26  CG1 ILE D 175      87.469  40.978  31.128  1.00 53.43 LIG 0.00  C 
ATOM     27  CD1 ILE D 175      86.494  39.841  31.360  1.00 54.83 LIG 0.01  C 
ENDBRANCH 24 26
ENDBRANCH 23 24
BRANCH 23 28
ATOM     28  N   ILE D 175      86.440  42.350  28.437  1.00 52.48 LIG-0.34  N 
ATOM     29 H    ILE D 175      86.552  43.149  28.139  1.00 52.48 LIG 0.16  HD
ATOM     30  C   ASP D 174      86.822  41.249  27.793  1.00 53.52 LIG 0.26  C 
ATOM     31 O    ASP D 174      86.868  40.145  28.334  1.00 50.42 LIG-0.27  OA
BRANCH 30 32
ATOM     32  CA  ASP D 174      87.274  41.401  26.338  1.00 56.25 LIG 0.41  C 
ATOM     33  N   ASP D 174      86.468  40.611  25.351  1.00 55.41 LIG 0.61  N 
BRANCH 32 34
ATOM     34  CB  ASP D 174      87.276  42.885  25.989  1.00 59.33 LIG 0.16  C 
BRANCH 34 35
ATOM     35  CG  ASP D 174      88.313  43.223  24.931  1.00 62.66 LIG 0.17  C 
ATOM     36 OD2  ASP D 174      89.493  42.838  25.095  1.00 62.95 LIG-0.65  OA
ATOM     37 OD1  ASP D 174      87.932  43.861  23.923  1.00 63.24 LIG-0.65  OA
ENDBRANCH 34 35
ENDBRANCH 32 34
ENDBRANCH 30 32
ENDBRANCH 23 28
ENDBRANCH 1 23
TORSDOF 12
ENDMDL
MODEL 8
USER: ADFR SOLUTION from run 33
USER: SCORE 15.244233 LL:  -3.748 LR: -12.126 RR:   0.000 FEB:  -8.546
USER: RMSD 6.340448
USER: SEED 32
USER: STATUS no improvement in best in 10 clusters for 5 generations
USER: GENES 14
USER: genes 0 Translation |==|  0.37547 0.53941 0.38854
USER: genes 1 Rotation |==|  0.42485 0.06344 0.54632 0.72721
USER: genes 2 Torsion [N]-CA--C-[O] |==|  0.61494
USER: genes 3 Torsion [C]-N--CA-[CB] |==|  0.22806
USER: genes 4 Torsion [N]-CA--CB-[CG] |==|  0.98685
USER: genes 5 Torsion [CA]-CB--CG-[CD2] |==|  0.72654
USER: genes 6 Torsion [N]-CA--C-[O] |==|  0.68946
USER: genes 7 Torsion [N]-C--CA-[N] |==|  0.86138
USER: genes 8 Torsion [C]-CA--CB-[CG2] |==|  0.62020
USER: genes 9 Torsion [CA]-CB--CG1-[CD1] |==|  0.70037
USER: genes 10 Torsion [C]-CA--N-[C] |==|  0.60624
USER: genes 11 Torsion [N]-C--CA-[N] |==|  0.78262
USER: genes 12 Torsion [C]-CA--CB-[CG] |==|  0.47159
USER: genes 13 Torsion [CA]-CB--CG-[OD2] |==|  0.73484
ROOT
ATOM      1  C   ILE D 175      83.875  44.991  28.783  1.00 46.12 LIG 0.24  C 
ATOM      2 O    ILE D 175      83.595  45.463  29.889  1.00 42.41 LIG-0.27  OA
ATOM      3  N   PRO D 176      83.809  43.670  28.528  1.00 41.83 LIG-0.34  N 
ATOM      4  CA  PRO D 176      83.231  42.745  29.506  1.00 39.90 LIG 0.18  C 
ATOM      5  CB  PRO D 176      82.777  41.590  28.619  1.00 38.91 LIG 0.04  C 
ATOM      6  CG  PRO D 176      83.846  41.524  27.578  1.00 40.22 LIG 0.02  C 
ATOM      7  CD  PRO D 176      84.303  42.944  27.342  1.00 41.02 LIG 0.13  C 
ENDROOT
BRANCH 4 8
ATOM      8  C   PRO D 176      84.230  42.261  30.576  1.00 41.09 LIG 0.24  C 
ATOM      9  N   PHE D 177      85.066  43.168  31.071  1.00 41.46 LIG-0.34  N 
ATOM     10 H    PHE D 177      85.134  43.970  30.769  1.00 41.46 LIG 0.16  HD
ATOM     11 O    PRO D 176      84.239  41.074  30.941  1.00 40.08 LIG-0.27  OA
BRANCH 9 12
ATOM     12  CA  PHE D 177      85.953  42.869  32.189  1.00 42.13 LIG 0.19  C 
BRANCH 12 13
ATOM     13  CB  PHE D 177      87.218  42.146  31.707  1.00 40.75 LIG 0.07  C 
BRANCH 13 14
ATOM     14  CG  PHE D 177      87.211  41.810  30.240  1.00 38.35 LIG-0.06  A 
ATOM     15  CD1 PHE D 177      87.579  42.760  29.291  1.00 38.94 LIG 0.01  A 
ATOM     16  CE1 PHE D 177      87.577  42.450  27.940  1.00 37.83 LIG 0.00  A 
ATOM     17  CZ  PHE D 177      87.222  41.181  27.524  1.00 37.53 LIG 0.00  A 
ATOM     18  CE2 PHE D 177      86.867  40.222  28.457  1.00 36.58 LIG 0.00  A 
ATOM     19  CD2 PHE D 177      86.863  40.538  29.807  1.00 37.89 LIG 0.01  A 
ENDBRANCH 13 14
ENDBRANCH 12 13
BRANCH 12 20
ATOM     20  C   PHE D 177      86.315  44.156  32.915  1.00 42.35 LIG 0.20  C 
ATOM     21 OXT  PHE D 177      85.473  44.776  33.553  1.00 44.55 LIG-0.65  OA
ATOM     22 O    PHE D 177      87.464  44.598  32.882  1.00 42.35 LIG-0.65  OA
ENDBRANCH 12 20
ENDBRANCH 9 12
ENDBRANCH 4 8
BRANCH 1 23
ATOM     23  CA  ILE D 175      84.296  45.921  27.623  1.00 50.15 LIG 0.18  C 
BRANCH 23 24
ATOM     24  CB  ILE D 175      83.170  46.110  26.574  1.00 52.56 LIG 0.01  C 
ATOM     25  CG2 ILE D 175      83.701  46.033  25.143  1.00 53.60 LIG 0.01  C 
BRANCH 24 26
ATOM     26  CG1 ILE D 175      82.045  45.087  26.795  1.00 53.43 LIG 0.00  C 
ATOM     27  CD1 ILE D 175      81.993  43.995  25.745  1.00 54.83 LIG 0.01  C 
ENDBRANCH 24 26
ENDBRANCH 23 24
BRANCH 23 28
ATOM     28  N   ILE D 175      85.516  45.374  27.029  1.00 52.48 LIG-0.34  N 
ATOM     29 H    ILE D 175      85.538  44.516  26.981  1.00 52.48 LIG 0.16  HD
ATOM     30  C   ASP D 174      86.494  46.175  26.609  1.00 53.52 LIG 0.26  C 
ATOM     31 O    ASP D 174      86.346  47.388  26.470  1.00 50.42 LIG-0.27  OA
BRANCH 30 32
ATOM     32  CA  ASP D 174      87.829  45.525  26.233  1.00 56.25 LIG 0.41  C 
ATOM     33  N   ASP D 174      88.691  45.155  27.403  1.00 55.41 LIG 0.61  N 
BRANCH 32 34
ATOM     34  CB  ASP D 174      87.542  44.313  25.353  1.00 59.33 LIG 0.16  C 
BRANCH 34 35
ATOM     35  CG  ASP D 174      88.805  43.749  24.727  1.00 62.66 LIG 0.17  C 
ATOM     36 OD2  ASP D 174      89.119  44.107  23.568  1.00 62.95 LIG-0.65  OA
ATOM     37 OD1  ASP D 174      89.493  42.957  25.411  1.00 63.24 LIG-0.65  OA
ENDBRANCH 34 35
ENDBRANCH 32 34
ENDBRANCH 30 32
ENDBRANCH 23 28
ENDBRANCH 1 23
TORSDOF 12
ENDMDL
MODEL 9
USER: ADFR SOLUTION from run 84
USER: SCORE 15.125868 LL:  -3.653 LR: -12.058 RR:   0.000 FEB:  -8.478
USER: RMSD 4.090143
USER: SEED 83
USER: STATUS no improvement in best in 8 clusters for 5 generations
USER: GENES 14
USER: genes 0 Translation |==|  0.59430 0.37404 0.45487
USER: genes 1 Rotation |==|  0.78297 0.46055 0.46368 0.90872
USER: genes 2 Torsion [N]-CA--C-[O] |==|  0.16329
USER: genes 3 Torsion [C]-N--CA-[CB] |==|  0.83638
USER: genes 4 Torsion [N]-CA--CB-[CG] |==|  0.86430
USER: genes 5 Torsion [CA]-CB--CG-[CD2] |==|  0.92728
USER: genes 6 Torsion [N]-CA--C-[O] |==|  0.52019
USER: genes 7 Torsion [N]-C--CA-[N] |==|  0.78782
USER: genes 8 Torsion [C]-CA--CB-[CG2] |==|  0.33573
USER: genes 9 Torsion [CA]-CB--CG1-[CD1] |==|  0.64444
USER: genes 10 Torsion [C]-CA--N-[C] |==|  0.67411
USER: genes 11 Torsion [N]-C--CA-[N] |==|  0.64214
USER: genes 12 Torsion [C]-CA--CB-[CG] |==|  0.49810
USER: genes 13 Torsion [CA]-CB--CG-[OD2] |==|  0.66358
ROOT
ATOM      1  C   ILE D 175      87.158  42.263  30.126  1.00 46.12 LIG 0.24  C 
ATOM      2 O    ILE D 175      88.382  42.419  30.096  1.00 42.41 LIG-0.27  OA
ATOM      3  N   PRO D 176      86.471  41.768  29.078  1.00 41.83 LIG-0.34  N 
ATOM      4  CA  PRO D 176      87.170  41.229  27.909  1.00 39.90 LIG 0.18  C 
ATOM      5  CB  PRO D 176      86.138  40.259  27.343  1.00 38.91 LIG 0.04  C 
ATOM      6  CG  PRO D 176      84.843  40.962  27.591  1.00 40.22 LIG 0.02  C 
ATOM      7  CD  PRO D 176      85.008  41.719  28.888  1.00 41.02 LIG 0.13  C 
ENDROOT
BRANCH 4 8
ATOM      8  C   PRO D 176      87.560  42.293  26.865  1.00 41.09 LIG 0.24  C 
ATOM      9  N   PHE D 177      87.078  42.133  25.637  1.00 41.46 LIG-0.34  N 
ATOM     10 H    PHE D 177      86.643  41.437  25.381  1.00 41.46 LIG 0.16  HD
ATOM     11 O    PRO D 176      88.293  43.245  27.176  1.00 40.08 LIG-0.27  OA
BRANCH 9 12
ATOM     12  CA  PHE D 177      87.252  43.147  24.602  1.00 42.13 LIG 0.19  C 
BRANCH 12 13
ATOM     13  CB  PHE D 177      86.636  44.484  25.036  1.00 40.75 LIG 0.07  C 
BRANCH 13 14
ATOM     14  CG  PHE D 177      85.233  44.369  25.570  1.00 38.35 LIG-0.06  A 
ATOM     15  CD1 PHE D 177      84.727  45.320  26.452  1.00 38.94 LIG 0.01  A 
ATOM     16  CE1 PHE D 177      83.435  45.216  26.940  1.00 37.83 LIG 0.00  A 
ATOM     17  CZ  PHE D 177      82.627  44.168  26.540  1.00 37.53 LIG 0.00  A 
ATOM     18  CE2 PHE D 177      83.112  43.222  25.654  1.00 36.58 LIG 0.00  A 
ATOM     19  CD2 PHE D 177      84.408  43.325  25.173  1.00 37.89 LIG 0.01  A 
ENDBRANCH 13 14
ENDBRANCH 12 13
BRANCH 12 20
ATOM     20  C   PHE D 177      88.731  43.315  24.291  1.00 42.35 LIG 0.20  C 
ATOM     21 OXT  PHE D 177      89.564  42.557  24.774  1.00 44.55 LIG-0.65  OA
ATOM     22 O    PHE D 177      89.121  44.211  23.543  1.00 42.35 LIG-0.65  OA
ENDBRANCH 12 20
ENDBRANCH 9 12
ENDBRANCH 4 8
BRANCH 1 23
ATOM     23  CA  ILE D 175      86.358  42.612  31.402  1.00 50.15 LIG 0.18  C 
BRANCH 23 24
ATOM     24  CB  ILE D 175      85.392  41.477  31.827  1.00 52.56 LIG 0.01  C 
ATOM     25  CG2 ILE D 175      85.694  40.966  33.236  1.00 53.60 LIG 0.01  C 
BRANCH 24 26
ATOM     26  CG1 ILE D 175      83.930  41.938  31.715  1.00 53.43 LIG 0.00  C 
ATOM     27  CD1 ILE D 175      83.118  41.716  32.975  1.00 54.83 LIG 0.01  C 
ENDBRANCH 24 26
ENDBRANCH 23 24
BRANCH 23 28
ATOM     28  N   ILE D 175      85.656  43.873  31.160  1.00 52.48 LIG-0.34  N 
ATOM     29 H    ILE D 175      85.077  43.845  30.524  1.00 52.48 LIG 0.16  HD
ATOM     30  C   ASP D 174      85.920  44.957  31.888  1.00 53.52 LIG 0.26  C 
ATOM     31 O    ASP D 174      86.569  44.913  32.932  1.00 50.42 LIG-0.27  OA
BRANCH 30 32
ATOM     32  CA  ASP D 174      85.330  46.288  31.414  1.00 56.25 LIG 0.41  C 
ATOM     33  N   ASP D 174      86.324  47.404  31.305  1.00 55.41 LIG 0.61  N 
BRANCH 32 34
ATOM     34  CB  ASP D 174      84.616  46.051  30.088  1.00 59.33 LIG 0.16  C 
BRANCH 34 35
ATOM     35  CG  ASP D 174      83.980  47.320  29.546  1.00 62.66 LIG 0.17  C 
ATOM     36 OD2  ASP D 174      82.745  47.339  29.342  1.00 62.95 LIG-0.65  OA
ATOM     37 OD1  ASP D 174      84.726  48.306  29.343  1.00 63.24 LIG-0.65  OA
ENDBRANCH 34 35
ENDBRANCH 32 34
ENDBRANCH 30 32
ENDBRANCH 23 28
ENDBRANCH 1 23
TORSDOF 12
ENDMDL
MODEL 10
USER: ADFR SOLUTION from run 135
USER: SCORE 15.912137 LL:  -4.020 LR: -12.013 RR:   0.000 FEB:  -8.433
USER: RMSD 5.148954
USER: SEED 134
USER: STATUS no improvement in best in 7 clusters for 5 generations
USER: GENES 14
USER: genes 0 Translation |==|  0.55875 0.34593 0.34436
USER: genes 1 Rotation |==|  0.84862 0.43651 0.62744 0.82893
USER: genes 2 Torsion [N]-CA--C-[O] |==|  0.34511
USER: genes 3 Torsion [C]-N--CA-[CB] |==|  0.79259
USER: genes 4 Torsion [N]-CA--CB-[CG] |==|  0.80702
USER: genes 5 Torsion [CA]-CB--CG-[CD2] |==|  0.06302
USER: genes 6 Torsion [N]-CA--C-[O] |==|  0.60170
USER: genes 7 Torsion [N]-C--CA-[N] |==|  0.47719
USER: genes 8 Torsion [C]-CA--CB-[CG2] |==|  0.40442
USER: genes 9 Torsion [CA]-CB--CG1-[CD1] |==|  0.17537
USER: genes 10 Torsion [C]-CA--N-[C] |==|  0.80000
USER: genes 11 Torsion [N]-C--CA-[N] |==|  0.74628
USER: genes 12 Torsion [C]-CA--CB-[CG] |==|  0.74537
USER: genes 13 Torsion [CA]-CB--CG-[OD2] |==|  0.79572
ROOT
ATOM      1  C   ILE D 175      86.624  41.799  27.888  1.00 46.12 LIG 0.24  C 
ATOM      2 O    ILE D 175      87.488  42.381  28.550  1.00 42.41 LIG-0.27  OA
ATOM      3  N   PRO D 176      86.753  41.593  26.563  1.00 41.83 LIG-0.34  N 
ATOM      4  CA  PRO D 176      88.009  41.898  25.874  1.00 39.90 LIG 0.18  C 
ATOM      5  CB  PRO D 176      87.943  40.966  24.669  1.00 38.91 LIG 0.04  C 
ATOM      6  CG  PRO D 176      86.492  40.977  24.313  1.00 40.22 LIG 0.02  C 
ATOM      7  CD  PRO D 176      85.733  41.108  25.613  1.00 41.02 LIG 0.13  C 
ENDROOT
BRANCH 4 8
ATOM      8  C   PRO D 176      88.140  43.368  25.431  1.00 41.09 LIG 0.24  C 
ATOM      9  N   PHE D 177      87.174  43.848  24.654  1.00 41.46 LIG-0.34  N 
ATOM     10 H    PHE D 177      86.543  43.366  24.323  1.00 41.46 LIG 0.16  HD
ATOM     11 O    PRO D 176      89.110  44.053  25.790  1.00 40.08 LIG-0.27  OA
BRANCH 9 12
ATOM     12  CA  PHE D 177      87.107  45.259  24.291  1.00 42.13 LIG 0.19  C 
BRANCH 12 13
ATOM     13  CB  PHE D 177      86.619  46.106  25.474  1.00 40.75 LIG 0.07  C 
BRANCH 13 14
ATOM     14  CG  PHE D 177      85.173  45.889  25.830  1.00 38.35 LIG-0.06  A 
ATOM     15  CD1 PHE D 177      84.450  46.872  26.499  1.00 38.94 LIG 0.01  A 
ATOM     16  CE1 PHE D 177      83.117  46.675  26.823  1.00 37.83 LIG 0.00  A 
ATOM     17  CZ  PHE D 177      82.488  45.497  26.467  1.00 37.53 LIG 0.00  A 
ATOM     18  CE2 PHE D 177      83.190  44.515  25.789  1.00 36.58 LIG 0.00  A 
ATOM     19  CD2 PHE D 177      84.525  44.714  25.473  1.00 37.89 LIG 0.01  A 
ENDBRANCH 13 14
ENDBRANCH 12 13
BRANCH 12 20
ATOM     20  C   PHE D 177      88.472  45.734  23.818  1.00 42.35 LIG 0.20  C 
ATOM     21 OXT  PHE D 177      89.198  45.000  23.158  1.00 44.55 LIG-0.65  OA
ATOM     22 O    PHE D 177      88.873  46.867  24.083  1.00 42.35 LIG-0.65  OA
ENDBRANCH 12 20
ENDBRANCH 9 12
ENDBRANCH 4 8
BRANCH 1 23
ATOM     23  CA  ILE D 175      85.351  41.254  28.575  1.00 50.15 LIG 0.18  C 
BRANCH 23 24
ATOM     24  CB  ILE D 175      84.058  41.935  28.055  1.00 52.56 LIG 0.01  C 
ATOM     25  CG2 ILE D 175      82.876  40.966  28.020  1.00 53.60 LIG 0.01  C 
BRANCH 24 26
ATOM     26  CG1 ILE D 175      83.723  43.176  28.896  1.00 53.43 LIG 0.00  C 
ATOM     27  CD1 ILE D 175      84.771  44.268  28.822  1.00 54.83 LIG 0.01  C 
ENDBRANCH 24 26
ENDBRANCH 23 24
BRANCH 23 28
ATOM     28  N   ILE D 175      85.517  41.415  30.019  1.00 52.48 LIG-0.34  N 
ATOM     29 H    ILE D 175      85.030  42.031  30.370  1.00 52.48 LIG 0.16  HD
ATOM     30  C   ASP D 174      86.365  40.648  30.703  1.00 53.52 LIG 0.26  C 
ATOM     31 O    ASP D 174      86.868  39.630  30.231  1.00 50.42 LIG-0.27  OA
BRANCH 30 32
ATOM     32  CA  ASP D 174      86.662  41.041  32.153  1.00 56.25 LIG 0.41  C 
ATOM     33  N   ASP D 174      87.843  41.949  32.321  1.00 55.41 LIG 0.61  N 
BRANCH 32 34
ATOM     34  CB  ASP D 174      85.402  41.656  32.751  1.00 59.33 LIG 0.16  C 
BRANCH 34 35
ATOM     35  CG  ASP D 174      85.365  43.165  32.582  1.00 62.66 LIG 0.17  C 
ATOM     36 OD2  ASP D 174      86.118  43.873  33.289  1.00 62.95 LIG-0.65  OA
ATOM     37 OD1  ASP D 174      84.589  43.637  31.719  1.00 63.24 LIG-0.65  OA
ENDBRANCH 34 35
ENDBRANCH 32 34
ENDBRANCH 30 32
ENDBRANCH 23 28
ENDBRANCH 1 23
TORSDOF 12
ENDMDL
MODEL 11
USER: ADFR SOLUTION from run 44
USER: SCORE 14.856128 LL:  -3.502 LR: -12.004 RR:   0.000 FEB:  -8.425
USER: RMSD 3.699864
USER: SEED 43
USER: STATUS no improvement in best in 6 clusters for 5 generations
USER: GENES 14
USER: genes 0 Translation |==|  0.59715 0.36785 0.46699
USER: genes 1 Rotation |==|  0.80059 0.45365 0.38478 0.87977
USER: genes 2 Torsion [N]-CA--C-[O] |==|  0.10694
USER: genes 3 Torsion [C]-N--CA-[CB] |==|  0.85700
USER: genes 4 Torsion [N]-CA--CB-[CG] |==|  0.88272
USER: genes 5 Torsion [CA]-CB--CG-[CD2] |==|  0.86406
USER: genes 6 Torsion [N]-CA--C-[O] |==|  0.44931
USER: genes 7 Torsion [N]-C--CA-[N] |==|  0.81667
USER: genes 8 Torsion [C]-CA--CB-[CG2] |==|  0.67971
USER: genes 9 Torsion [CA]-CB--CG1-[CD1] |==|  0.19556
USER: genes 10 Torsion [C]-CA--N-[C] |==|  0.84074
USER: genes 11 Torsion [N]-C--CA-[N] |==|  0.95697
USER: genes 12 Torsion [C]-CA--CB-[CG] |==|  0.77746
USER: genes 13 Torsion [CA]-CB--CG-[OD2] |==|  0.66584
ROOT
ATOM      1  C   ILE D 175      87.200  42.161  30.371  1.00 46.12 LIG 0.24  C 
ATOM      2 O    ILE D 175      88.406  41.994  30.165  1.00 42.41 LIG-0.27  OA
ATOM      3  N   PRO D 176      86.282  42.042  29.393  1.00 41.83 LIG-0.34  N 
ATOM      4  CA  PRO D 176      86.655  41.536  28.070  1.00 39.90 LIG 0.18  C 
ATOM      5  CB  PRO D 176      85.331  40.976  27.560  1.00 38.91 LIG 0.04  C 
ATOM      6  CG  PRO D 176      84.327  41.944  28.097  1.00 40.22 LIG 0.02  C 
ATOM      7  CD  PRO D 176      84.853  42.409  29.435  1.00 41.02 LIG 0.13  C 
ENDROOT
BRANCH 4 8
ATOM      8  C   PRO D 176      87.202  42.617  27.118  1.00 41.09 LIG 0.24  C 
ATOM      9  N   PHE D 177      86.846  42.527  25.840  1.00 41.46 LIG-0.34  N 
ATOM     10 H    PHE D 177      86.409  41.863  25.511  1.00 41.46 LIG 0.16  HD
ATOM     11 O    PRO D 176      87.941  43.519  27.543  1.00 40.08 LIG-0.27  OA
BRANCH 9 12
ATOM     12  CA  PHE D 177      87.176  43.568  24.873  1.00 42.13 LIG 0.19  C 
BRANCH 12 13
ATOM     13  CB  PHE D 177      86.740  44.948  25.384  1.00 40.75 LIG 0.07  C 
BRANCH 13 14
ATOM     14  CG  PHE D 177      85.386  44.961  26.039  1.00 38.35 LIG-0.06  A 
ATOM     15  CD1 PHE D 177      85.195  45.586  27.268  1.00 38.94 LIG 0.01  A 
ATOM     16  CE1 PHE D 177      83.947  45.602  27.870  1.00 37.83 LIG 0.00  A 
ATOM     17  CZ  PHE D 177      82.871  45.004  27.242  1.00 37.53 LIG 0.00  A 
ATOM     18  CE2 PHE D 177      83.042  44.389  26.013  1.00 36.58 LIG 0.00  A 
ATOM     19  CD2 PHE D 177      84.293  44.370  25.418  1.00 37.89 LIG 0.01  A 
ENDBRANCH 13 14
ENDBRANCH 12 13
BRANCH 12 20
ATOM     20  C   PHE D 177      88.669  43.550  24.586  1.00 42.35 LIG 0.20  C 
ATOM     21 OXT  PHE D 177      89.448  42.988  25.348  1.00 44.55 LIG-0.65  OA
ATOM     22 O    PHE D 177      89.126  44.093  23.581  1.00 42.35 LIG-0.65  OA
ENDBRANCH 12 20
ENDBRANCH 9 12
ENDBRANCH 4 8
BRANCH 1 23
ATOM     23  CA  ILE D 175      86.691  42.494  31.792  1.00 50.15 LIG 0.18  C 
BRANCH 23 24
ATOM     24  CB  ILE D 175      85.682  41.443  32.324  1.00 52.56 LIG 0.01  C 
ATOM     25  CG2 ILE D 175      84.290  42.039  32.532  1.00 53.60 LIG 0.01  C 
BRANCH 24 26
ATOM     26  CG1 ILE D 175      85.621  40.227  31.386  1.00 53.43 LIG 0.00  C 
ATOM     27  CD1 ILE D 175      86.869  39.367  31.415  1.00 54.83 LIG 0.01  C 
ENDBRANCH 24 26
ENDBRANCH 23 24
BRANCH 23 28
ATOM     28  N   ILE D 175      86.118  43.840  31.759  1.00 52.48 LIG-0.34  N 
ATOM     29 H    ILE D 175      85.297  43.887  32.009  1.00 52.48 LIG 0.16  HD
ATOM     30  C   ASP D 174      86.844  44.886  31.365  1.00 53.52 LIG 0.26  C 
ATOM     31 O    ASP D 174      88.067  44.836  31.240  1.00 50.42 LIG-0.27  OA
BRANCH 30 32
ATOM     32  CA  ASP D 174      86.108  46.206  31.123  1.00 56.25 LIG 0.41  C 
ATOM     33  N   ASP D 174      84.620  46.076  31.006  1.00 55.41 LIG 0.61  N 
BRANCH 32 34
ATOM     34  CB  ASP D 174      86.493  47.180  32.232  1.00 59.33 LIG 0.16  C 
BRANCH 34 35
ATOM     35  CG  ASP D 174      85.716  46.925  33.512  1.00 62.66 LIG 0.17  C 
ATOM     36 OD2  ASP D 174      84.997  47.839  33.977  1.00 62.95 LIG-0.65  OA
ATOM     37 OD1  ASP D 174      85.815  45.794  34.040  1.00 63.24 LIG-0.65  OA
ENDBRANCH 34 35
ENDBRANCH 32 34
ENDBRANCH 30 32
ENDBRANCH 23 28
ENDBRANCH 1 23
TORSDOF 12
ENDMDL
MODEL 12
USER: ADFR SOLUTION from run 105
USER: SCORE 15.343852 LL:  -3.641 LR: -11.983 RR:   0.000 FEB:  -8.403
USER: RMSD 8.099529
USER: SEED 104
USER: STATUS no improvement in best in 6 clusters for 5 generations
USER: GENES 14
USER: genes 0 Translation |==|  0.59458 0.39710 0.30509
USER: genes 1 Rotation |==|  0.06969 0.54740 0.29988 0.65014
USER: genes 2 Torsion [N]-CA--C-[O] |==|  0.95571
USER: genes 3 Torsion [C]-N--CA-[CB] |==|  0.27742
USER: genes 4 Torsion [N]-CA--CB-[CG] |==|  0.88709
USER: genes 5 Torsion [CA]-CB--CG-[CD2] |==|  0.27969
USER: genes 6 Torsion [N]-CA--C-[O] |==|  0.71075
USER: genes 7 Torsion [N]-C--CA-[N] |==|  0.38895
USER: genes 8 Torsion [C]-CA--CB-[CG2] |==|  0.95158
USER: genes 9 Torsion [CA]-CB--CG1-[CD1] |==|  0.71074
USER: genes 10 Torsion [C]-CA--N-[C] |==|  0.56719
USER: genes 11 Torsion [N]-C--CA-[N] |==|  0.40183
USER: genes 12 Torsion [C]-CA--CB-[CG] |==|  0.97416
USER: genes 13 Torsion [CA]-CB--CG-[OD2] |==|  0.71350
ROOT
ATOM      1  C   ILE D 175      87.162  42.643  27.093  1.00 46.12 LIG 0.24  C 
ATOM      2 O    ILE D 175      87.628  41.943  27.996  1.00 42.41 LIG-0.27  OA
ATOM      3  N   PRO D 176      86.837  43.937  27.283  1.00 41.83 LIG-0.34  N 
ATOM      4  CA  PRO D 176      87.185  44.623  28.530  1.00 39.90 LIG 0.18  C 
ATOM      5  CB  PRO D 176      87.241  46.080  28.083  1.00 38.91 LIG 0.04  C 
ATOM      6  CG  PRO D 176      86.138  46.169  27.079  1.00 40.22 LIG 0.02  C 
ATOM      7  CD  PRO D 176      86.088  44.831  26.378  1.00 41.02 LIG 0.13  C 
ENDROOT
BRANCH 4 8
ATOM      8  C   PRO D 176      86.155  44.431  29.659  1.00 41.09 LIG 0.24  C 
ATOM      9  N   PHE D 177      86.551  44.735  30.891  1.00 41.46 LIG-0.34  N 
ATOM     10 H    PHE D 177      87.360  44.945  31.095  1.00 41.46 LIG 0.16  HD
ATOM     11 O    PRO D 176      85.015  44.007  29.410  1.00 40.08 LIG-0.27  OA
BRANCH 9 12
ATOM     12  CA  PHE D 177      85.627  44.737  32.020  1.00 42.13 LIG 0.19  C 
BRANCH 12 13
ATOM     13  CB  PHE D 177      85.756  43.444  32.835  1.00 40.75 LIG 0.07  C 
BRANCH 13 14
ATOM     14  CG  PHE D 177      85.922  42.204  31.998  1.00 38.35 LIG-0.06  A 
ATOM     15  CD1 PHE D 177      84.827  41.620  31.366  1.00 38.94 LIG 0.01  A 
ATOM     16  CE1 PHE D 177      84.981  40.482  30.592  1.00 37.83 LIG 0.00  A 
ATOM     17  CZ  PHE D 177      86.234  39.922  30.428  1.00 37.53 LIG 0.00  A 
ATOM     18  CE2 PHE D 177      87.333  40.498  31.040  1.00 36.58 LIG 0.00  A 
ATOM     19  CD2 PHE D 177      87.175  41.634  31.819  1.00 37.89 LIG 0.01  A 
ENDBRANCH 13 14
ENDBRANCH 12 13
BRANCH 12 20
ATOM     20  C   PHE D 177      85.890  45.952  32.896  1.00 42.35 LIG 0.20  C 
ATOM     21 OXT  PHE D 177      85.514  47.067  32.555  1.00 44.55 LIG-0.65  OA
ATOM     22 O    PHE D 177      86.482  45.840  33.970  1.00 42.35 LIG-0.65  OA
ENDBRANCH 12 20
ENDBRANCH 9 12
ENDBRANCH 4 8
BRANCH 1 23
ATOM     23  CA  ILE D 175      86.954  42.056  25.679  1.00 50.15 LIG 0.18  C 
BRANCH 23 24
ATOM     24  CB  ILE D 175      85.597  41.318  25.535  1.00 52.56 LIG 0.01  C 
ATOM     25  CG2 ILE D 175      84.987  40.973  26.893  1.00 53.60 LIG 0.01  C 
BRANCH 24 26
ATOM     26  CG1 ILE D 175      84.617  42.145  24.689  1.00 53.43 LIG 0.00  C 
ATOM     27  CD1 ILE D 175      83.543  42.841  25.500  1.00 54.83 LIG 0.01  C 
ENDBRANCH 24 26
ENDBRANCH 23 24
BRANCH 23 28
ATOM     28  N   ILE D 175      88.091  41.183  25.384  1.00 52.48 LIG-0.34  N 
ATOM     29 H    ILE D 175      88.491  40.869  26.077  1.00 52.48 LIG 0.16  HD
ATOM     30  C   ASP D 174      88.447  40.920  24.127  1.00 53.52 LIG 0.26  C 
ATOM     31 O    ASP D 174      87.728  41.183  23.165  1.00 50.42 LIG-0.27  OA
BRANCH 30 32
ATOM     32  CA  ASP D 174      89.784  40.208  23.905  1.00 56.25 LIG 0.41  C 
ATOM     33  N   ASP D 174      89.791  39.243  22.758  1.00 55.41 LIG 0.61  N 
BRANCH 32 34
ATOM     34  CB  ASP D 174      90.870  41.267  23.744  1.00 59.33 LIG 0.16  C 
BRANCH 34 35
ATOM     35  CG  ASP D 174      90.292  42.666  23.622  1.00 62.66 LIG 0.17  C 
ATOM     36 OD2  ASP D 174      90.243  43.205  22.493  1.00 62.95 LIG-0.65  OA
ATOM     37 OD1  ASP D 174      89.868  43.216  24.665  1.00 63.24 LIG-0.65  OA
ENDBRANCH 34 35
ENDBRANCH 32 34
ENDBRANCH 30 32
ENDBRANCH 23 28
ENDBRANCH 1 23
TORSDOF 12
ENDMDL
MODEL 13
USER: ADFR SOLUTION from run 16
USER: SCORE 15.394996 LL:  -3.778 LR: -11.972 RR:   0.000 FEB:  -8.392
USER: RMSD 3.890649
USER: SEED 406434
USER: STATUS no improvement in best in 7 clusters for 5 generations
USER: GENES 14
USER: genes 0 Translation |==|  0.48498 0.53885 0.30252
USER: genes 1 Rotation |==|  0.40418 0.68591 0.80472 0.83675
USER: genes 2 Torsion [N]-CA--C-[O] |==|  0.29854
USER: genes 3 Torsion [C]-N--CA-[CB] |==|  0.81805
USER: genes 4 Torsion [N]-CA--CB-[CG] |==|  0.91949
USER: genes 5 Torsion [CA]-CB--CG-[CD2] |==|  0.84028
USER: genes 6 Torsion [N]-CA--C-[O] |==|  0.09456
USER: genes 7 Torsion [N]-C--CA-[N] |==|  0.11109
USER: genes 8 Torsion [C]-CA--CB-[CG2] |==|  0.86205
USER: genes 9 Torsion [CA]-CB--CG1-[CD1] |==|  0.20415
USER: genes 10 Torsion [C]-CA--N-[C] |==|  0.64099
USER: genes 11 Torsion [N]-C--CA-[N] |==|  0.75423
USER: genes 12 Torsion [C]-CA--CB-[CG] |==|  0.42512
USER: genes 13 Torsion [CA]-CB--CG-[OD2] |==|  0.59012
ROOT
ATOM      1  C   ILE D 175      85.518  44.982  27.041  1.00 46.12 LIG 0.24  C 
ATOM      2 O    ILE D 175      85.325  45.489  25.932  1.00 42.41 LIG-0.27  OA
ATOM      3  N   PRO D 176      86.724  44.513  27.417  1.00 41.83 LIG-0.34  N 
ATOM      4  CA  PRO D 176      87.909  44.741  26.587  1.00 39.90 LIG 0.18  C 
ATOM      5  CB  PRO D 176      89.034  44.657  27.614  1.00 38.91 LIG 0.04  C 
ATOM      6  CG  PRO D 176      88.563  43.587  28.544  1.00 40.22 LIG 0.02  C 
ATOM      7  CD  PRO D 176      87.058  43.706  28.606  1.00 41.02 LIG 0.13  C 
ENDROOT
BRANCH 4 8
ATOM      8  C   PRO D 176      88.102  43.699  25.469  1.00 41.09 LIG 0.24  C 
ATOM      9  N   PHE D 177      88.500  42.486  25.841  1.00 41.46 LIG-0.34  N 
ATOM     10 H    PHE D 177      88.733  42.285  26.644  1.00 41.46 LIG 0.16  HD
ATOM     11 O    PRO D 176      87.894  43.998  24.283  1.00 40.08 LIG-0.27  OA
BRANCH 9 12
ATOM     12  CA  PHE D 177      88.574  41.376  24.898  1.00 42.13 LIG 0.19  C 
BRANCH 12 13
ATOM     13  CB  PHE D 177      87.178  40.997  24.387  1.00 40.75 LIG 0.07  C 
BRANCH 13 14
ATOM     14  CG  PHE D 177      86.069  41.280  25.364  1.00 38.35 LIG-0.06  A 
ATOM     15  CD1 PHE D 177      84.994  42.089  25.006  1.00 38.94 LIG 0.01  A 
ATOM     16  CE1 PHE D 177      83.970  42.346  25.904  1.00 37.83 LIG 0.00  A 
ATOM     17  CZ  PHE D 177      84.003  41.784  27.167  1.00 37.53 LIG 0.00  A 
ATOM     18  CE2 PHE D 177      85.058  40.967  27.533  1.00 36.58 LIG 0.00  A 
ATOM     19  CD2 PHE D 177      86.084  40.717  26.634  1.00 37.89 LIG 0.01  A 
ENDBRANCH 13 14
ENDBRANCH 12 13
BRANCH 12 20
ATOM     20  C   PHE D 177      89.486  41.746  23.739  1.00 42.35 LIG 0.20  C 
ATOM     21 OXT  PHE D 177      89.258  41.341  22.606  1.00 44.55 LIG-0.65  OA
ATOM     22 O    PHE D 177      90.470  42.466  23.915  1.00 42.35 LIG-0.65  OA
ENDBRANCH 12 20
ENDBRANCH 9 12
ENDBRANCH 4 8
BRANCH 1 23
ATOM     23  CA  ILE D 175      84.365  44.889  28.066  1.00 50.15 LIG 0.18  C 
BRANCH 23 24
ATOM     24  CB  ILE D 175      83.160  45.788  27.689  1.00 52.56 LIG 0.01  C 
ATOM     25  CG2 ILE D 175      83.592  47.217  27.360  1.00 53.60 LIG 0.01  C 
BRANCH 24 26
ATOM     26  CG1 ILE D 175      82.368  45.174  26.524  1.00 53.43 LIG 0.00  C 
ATOM     27  CD1 ILE D 175      81.540  43.966  26.914  1.00 54.83 LIG 0.01  C 
ENDBRANCH 24 26
ENDBRANCH 23 24
BRANCH 23 28
ATOM     28  N   ILE D 175      84.909  45.218  29.384  1.00 52.48 LIG-0.34  N 
ATOM     29 H    ILE D 175      85.359  45.950  29.413  1.00 52.48 LIG 0.16  HD
ATOM     30  C   ASP D 174      84.701  44.422  30.432  1.00 53.52 LIG 0.26  C 
ATOM     31 O    ASP D 174      83.868  43.517  30.423  1.00 50.42 LIG-0.27  OA
BRANCH 30 32
ATOM     32  CA  ASP D 174      85.504  44.704  31.705  1.00 56.25 LIG 0.41  C 
ATOM     33  N   ASP D 174      86.833  44.014  31.768  1.00 55.41 LIG 0.61  N 
BRANCH 32 34
ATOM     34  CB  ASP D 174      85.658  46.215  31.850  1.00 59.33 LIG 0.16  C 
BRANCH 34 35
ATOM     35  CG  ASP D 174      85.825  46.636  33.299  1.00 62.66 LIG 0.17  C 
ATOM     36 OD2  ASP D 174      85.368  47.744  33.664  1.00 62.95 LIG-0.65  OA
ATOM     37 OD1  ASP D 174      86.401  45.841  34.077  1.00 63.24 LIG-0.65  OA
ENDBRANCH 34 35
ENDBRANCH 32 34
ENDBRANCH 30 32
ENDBRANCH 23 28
ENDBRANCH 1 23
TORSDOF 12
ENDMDL
MODEL 14
USER: ADFR SOLUTION from run 139
USER: SCORE 15.598494 LL:  -3.636 LR: -11.968 RR:   0.000 FEB:  -8.389
USER: RMSD 7.461883
USER: SEED 138
USER: STATUS no improvement in best in 5 clusters for 5 generations
USER: GENES 14
USER: genes 0 Translation |==|  0.49429 0.52084 0.29275
USER: genes 1 Rotation |==|  0.09285 0.31628 0.50707 0.72455
USER: genes 2 Torsion [N]-CA--C-[O] |==|  0.84846
USER: genes 3 Torsion [C]-N--CA-[CB] |==|  0.27554
USER: genes 4 Torsion [N]-CA--CB-[CG] |==|  0.77280
USER: genes 5 Torsion [CA]-CB--CG-[CD2] |==|  0.40266
USER: genes 6 Torsion [N]-CA--C-[O] |==|  0.05218
USER: genes 7 Torsion [N]-C--CA-[N] |==|  0.41078
USER: genes 8 Torsion [C]-CA--CB-[CG2] |==|  0.61932
USER: genes 9 Torsion [CA]-CB--CG1-[CD1] |==|  0.48836
USER: genes 10 Torsion [C]-CA--N-[C] |==|  0.81426
USER: genes 11 Torsion [N]-C--CA-[N] |==|  0.55959
USER: genes 12 Torsion [C]-CA--CB-[CG] |==|  0.22893
USER: genes 13 Torsion [CA]-CB--CG-[OD2] |==|  0.13226
ROOT
ATOM      1  C   ILE D 175      85.657  44.685  26.843  1.00 46.12 LIG 0.24  C 
ATOM      2 O    ILE D 175      86.687  45.078  27.400  1.00 42.41 LIG-0.27  OA
ATOM      3  N   PRO D 176      84.437  44.859  27.387  1.00 41.83 LIG-0.34  N 
ATOM      4  CA  PRO D 176      84.259  45.681  28.586  1.00 39.90 LIG 0.18  C 
ATOM      5  CB  PRO D 176      82.804  46.120  28.456  1.00 38.91 LIG 0.04  C 
ATOM      6  CG  PRO D 176      82.140  44.917  27.869  1.00 40.22 LIG 0.02  C 
ATOM      7  CD  PRO D 176      83.154  44.272  26.953  1.00 41.02 LIG 0.13  C 
ENDROOT
BRANCH 4 8
ATOM      8  C   PRO D 176      84.491  44.921  29.906  1.00 41.09 LIG 0.24  C 
ATOM      9  N   PHE D 177      85.383  45.436  30.746  1.00 41.46 LIG-0.34  N 
ATOM     10 H    PHE D 177      85.887  46.107  30.557  1.00 41.46 LIG 0.16  HD
ATOM     11 O    PRO D 176      83.868  43.876  30.152  1.00 40.08 LIG-0.27  OA
BRANCH 9 12
ATOM     12  CA  PHE D 177      85.583  44.894  32.086  1.00 42.13 LIG 0.19  C 
BRANCH 12 13
ATOM     13  CB  PHE D 177      86.804  43.966  32.125  1.00 40.75 LIG 0.07  C 
BRANCH 13 14
ATOM     14  CG  PHE D 177      86.528  42.568  31.640  1.00 38.35 LIG-0.06  A 
ATOM     15  CD1 PHE D 177      85.290  41.970  31.859  1.00 38.94 LIG 0.01  A 
ATOM     16  CE1 PHE D 177      85.035  40.685  31.408  1.00 37.83 LIG 0.00  A 
ATOM     17  CZ  PHE D 177      86.010  39.988  30.720  1.00 37.53 LIG 0.00  A 
ATOM     18  CE2 PHE D 177      87.241  40.575  30.483  1.00 36.58 LIG 0.00  A 
ATOM     19  CD2 PHE D 177      87.495  41.858  30.941  1.00 37.89 LIG 0.01  A 
ENDBRANCH 13 14
ENDBRANCH 12 13
BRANCH 12 20
ATOM     20  C   PHE D 177      85.743  46.032  33.082  1.00 42.35 LIG 0.20  C 
ATOM     21 OXT  PHE D 177      86.257  45.841  34.178  1.00 44.55 LIG-0.65  OA
ATOM     22 O    PHE D 177      85.366  47.171  32.805  1.00 42.35 LIG-0.65  OA
ENDBRANCH 12 20
ENDBRANCH 9 12
ENDBRANCH 4 8
BRANCH 1 23
ATOM     23  CA  ILE D 175      85.732  43.988  25.466  1.00 50.15 LIG 0.18  C 
BRANCH 23 24
ATOM     24  CB  ILE D 175      85.815  42.444  25.585  1.00 52.56 LIG 0.01  C 
ATOM     25  CG2 ILE D 175      86.841  41.850  24.620  1.00 53.60 LIG 0.01  C 
BRANCH 24 26
ATOM     26  CG1 ILE D 175      86.120  42.027  27.032  1.00 53.43 LIG 0.00  C 
ATOM     27  CD1 ILE D 175      86.119  40.527  27.252  1.00 54.83 LIG 0.01  C 
ENDBRANCH 24 26
ENDBRANCH 23 24
BRANCH 23 28
ATOM     28  N   ILE D 175      86.873  44.547  24.741  1.00 52.48 LIG-0.34  N 
ATOM     29 H    ILE D 175      87.518  43.995  24.605  1.00 52.48 LIG 0.16  HD
ATOM     30  C   ASP D 174      86.877  45.818  24.341  1.00 53.52 LIG 0.26  C 
ATOM     31 O    ASP D 174      85.863  46.515  24.336  1.00 50.42 LIG-0.27  OA
BRANCH 30 32
ATOM     32  CA  ASP D 174      88.196  46.390  23.814  1.00 56.25 LIG 0.41  C 
ATOM     33  N   ASP D 174      88.286  47.886  23.859  1.00 55.41 LIG 0.61  N 
BRANCH 32 34
ATOM     34  CB  ASP D 174      89.341  45.744  24.587  1.00 59.33 LIG 0.16  C 
BRANCH 34 35
ATOM     35  CG  ASP D 174      89.713  44.382  24.026  1.00 62.66 LIG 0.17  C 
ATOM     36 OD2  ASP D 174      89.869  44.258  22.789  1.00 62.95 LIG-0.65  OA
ATOM     37 OD1  ASP D 174      89.867  43.439  24.836  1.00 63.24 LIG-0.65  OA
ENDBRANCH 34 35
ENDBRANCH 32 34
ENDBRANCH 30 32
ENDBRANCH 23 28
ENDBRANCH 1 23
TORSDOF 12
ENDMDL
MODEL 15
USER: ADFR SOLUTION from run 188
USER: SCORE 15.808729 LL:  -4.063 LR: -11.861 RR:   0.000 FEB:  -8.282
USER: RMSD 7.714630
USER: SEED 187
USER: STATUS no improvement in best in 2 clusters for 5 generations
USER: GENES 14
USER: genes 0 Translation |==|  0.44954 0.46064 0.34890
USER: genes 1 Rotation |==|  0.00680 0.44732 0.47141 0.55627
USER: genes 2 Torsion [N]-CA--C-[O] |==|  0.70985
USER: genes 3 Torsion [C]-N--CA-[CB] |==|  0.48143
USER: genes 4 Torsion [N]-CA--CB-[CG] |==|  0.89819
USER: genes 5 Torsion [CA]-CB--CG-[CD2] |==|  0.78855
USER: genes 6 Torsion [N]-CA--C-[O] |==|  0.43274
USER: genes 7 Torsion [N]-C--CA-[N] |==|  0.40888
USER: genes 8 Torsion [C]-CA--CB-[CG2] |==|  0.00279
USER: genes 9 Torsion [CA]-CB--CG1-[CD1] |==|  0.74808
USER: genes 10 Torsion [C]-CA--N-[C] |==|  0.70303
USER: genes 11 Torsion [N]-C--CA-[N] |==|  0.48186
USER: genes 12 Torsion [C]-CA--CB-[CG] |==|  0.70120
USER: genes 13 Torsion [CA]-CB--CG-[OD2] |==|  0.67541
ROOT
ATOM      1  C   ILE D 175      84.986  43.692  27.980  1.00 46.12 LIG 0.24  C 
ATOM      2 O    ILE D 175      86.092  43.763  28.525  1.00 42.41 LIG-0.27  OA
ATOM      3  N   PRO D 176      84.148  44.745  27.917  1.00 41.83 LIG-0.34  N 
ATOM      4  CA  PRO D 176      84.584  46.077  28.341  1.00 39.90 LIG 0.18  C 
ATOM      5  CB  PRO D 176      83.657  46.984  27.537  1.00 38.91 LIG 0.04  C 
ATOM      6  CG  PRO D 176      82.369  46.226  27.528  1.00 40.22 LIG 0.02  C 
ATOM      7  CD  PRO D 176      82.734  44.761  27.493  1.00 41.02 LIG 0.13  C 
ENDROOT
BRANCH 4 8
ATOM      8  C   PRO D 176      84.433  46.334  29.853  1.00 41.09 LIG 0.24  C 
ATOM      9  N   PHE D 177      85.324  45.755  30.652  1.00 41.46 LIG-0.34  N 
ATOM     10 H    PHE D 177      85.912  45.189  30.381  1.00 41.46 LIG 0.16  HD
ATOM     11 O    PRO D 176      83.514  47.047  30.285  1.00 40.08 LIG-0.27  OA
BRANCH 9 12
ATOM     12  CA  PHE D 177      85.377  46.039  32.082  1.00 42.13 LIG 0.19  C 
BRANCH 12 13
ATOM     13  CB  PHE D 177      86.382  45.118  32.786  1.00 40.75 LIG 0.07  C 
BRANCH 13 14
ATOM     14  CG  PHE D 177      86.422  43.718  32.236  1.00 38.35 LIG-0.06  A 
ATOM     15  CD1 PHE D 177      87.479  43.298  31.433  1.00 38.94 LIG 0.01  A 
ATOM     16  CE1 PHE D 177      87.517  42.007  30.930  1.00 37.83 LIG 0.00  A 
ATOM     17  CZ  PHE D 177      86.506  41.117  31.236  1.00 37.53 LIG 0.00  A 
ATOM     18  CE2 PHE D 177      85.455  41.515  32.044  1.00 36.58 LIG 0.00  A 
ATOM     19  CD2 PHE D 177      85.417  42.809  32.540  1.00 37.89 LIG 0.01  A 
ENDBRANCH 13 14
ENDBRANCH 12 13
BRANCH 12 20
ATOM     20  C   PHE D 177      85.743  47.499  32.302  1.00 42.35 LIG 0.20  C 
ATOM     21 OXT  PHE D 177      86.353  48.130  31.447  1.00 44.55 LIG-0.65  OA
ATOM     22 O    PHE D 177      85.429  48.079  33.342  1.00 42.35 LIG-0.65  OA
ENDBRANCH 12 20
ENDBRANCH 9 12
ENDBRANCH 4 8
BRANCH 1 23
ATOM     23  CA  ILE D 175      84.526  42.374  27.318  1.00 50.15 LIG 0.18  C 
BRANCH 23 24
ATOM     24  CB  ILE D 175      83.713  41.474  28.285  1.00 52.56 LIG 0.01  C 
ATOM     25  CG2 ILE D 175      83.540  42.121  29.659  1.00 53.60 LIG 0.01  C 
BRANCH 24 26
ATOM     26  CG1 ILE D 175      82.349  41.115  27.673  1.00 53.43 LIG 0.00  C 
ATOM     27  CD1 ILE D 175      81.244  42.091  28.024  1.00 54.83 LIG 0.01  C 
ENDBRANCH 24 26
ENDBRANCH 23 24
BRANCH 23 28
ATOM     28  N   ILE D 175      85.713  41.694  26.799  1.00 52.48 LIG-0.34  N 
ATOM     29 H    ILE D 175      86.216  41.341  27.401  1.00 52.48 LIG 0.16  HD
ATOM     30  C   ASP D 174      85.962  41.647  25.491  1.00 53.52 LIG 0.26  C 
ATOM     31 O    ASP D 174      85.122  41.946  24.645  1.00 50.42 LIG-0.27  OA
BRANCH 30 32
ATOM     32  CA  ASP D 174      87.338  41.139  25.050  1.00 56.25 LIG 0.41  C 
ATOM     33  N   ASP D 174      87.492  40.969  23.569  1.00 55.41 LIG 0.61  N 
BRANCH 32 34
ATOM     34  CB  ASP D 174      88.399  42.080  25.612  1.00 59.33 LIG 0.16  C 
BRANCH 34 35
ATOM     35  CG  ASP D 174      89.022  42.949  24.533  1.00 62.66 LIG 0.17  C 
ATOM     36 OD2  ASP D 174      90.245  42.829  24.290  1.00 62.95 LIG-0.65  OA
ATOM     37 OD1  ASP D 174      88.274  43.740  23.915  1.00 63.24 LIG-0.65  OA
ENDBRANCH 34 35
ENDBRANCH 32 34
ENDBRANCH 30 32
ENDBRANCH 23 28
ENDBRANCH 1 23
TORSDOF 12
ENDMDL
MODEL 16
USER: ADFR SOLUTION from run 23
USER: SCORE 15.270541 LL:  -3.910 LR: -11.780 RR:   0.000 FEB:  -8.200
USER: RMSD 4.665244
USER: SEED 22
USER: STATUS no improvement in best in 8 clusters for 5 generations
USER: GENES 14
USER: genes 0 Translation |==|  0.58923 0.31964 0.47043
USER: genes 1 Rotation |==|  0.64276 0.36895 0.20650 0.85539
USER: genes 2 Torsion [N]-CA--C-[O] |==|  0.44343
USER: genes 3 Torsion [C]-N--CA-[CB] |==|  0.23521
USER: genes 4 Torsion [N]-CA--CB-[CG] |==|  0.05589
USER: genes 5 Torsion [CA]-CB--CG-[CD2] |==|  0.71263
USER: genes 6 Torsion [N]-CA--C-[O] |==|  0.48875
USER: genes 7 Torsion [N]-C--CA-[N] |==|  0.83334
USER: genes 8 Torsion [C]-CA--CB-[CG2] |==|  0.71393
USER: genes 9 Torsion [CA]-CB--CG1-[CD1] |==|  0.66697
USER: genes 10 Torsion [C]-CA--N-[C] |==|  0.75740
USER: genes 11 Torsion [N]-C--CA-[N] |==|  0.12649
USER: genes 12 Torsion [C]-CA--CB-[CG] |==|  0.43355
USER: genes 13 Torsion [CA]-CB--CG-[OD2] |==|  0.61908
ROOT
ATOM      1  C   ILE D 175      87.081  41.365  30.441  1.00 46.12 LIG 0.24  C 
ATOM      2 O    ILE D 175      87.617  40.271  30.241  1.00 42.41 LIG-0.27  OA
ATOM      3  N   PRO D 176      86.005  41.776  29.743  1.00 41.83 LIG-0.34  N 
ATOM      4  CA  PRO D 176      85.312  40.866  28.828  1.00 39.90 LIG 0.18  C 
ATOM      5  CB  PRO D 176      83.909  41.464  28.790  1.00 38.91 LIG 0.04  C 
ATOM      6  CG  PRO D 176      84.167  42.934  28.853  1.00 40.22 LIG 0.02  C 
ATOM      7  CD  PRO D 176      85.390  43.118  29.721  1.00 41.02 LIG 0.13  C 
ENDROOT
BRANCH 4 8
ATOM      8  C   PRO D 176      85.926  40.809  27.416  1.00 41.09 LIG 0.24  C 
ATOM      9  N   PHE D 177      86.689  41.835  27.051  1.00 41.46 LIG-0.34  N 
ATOM     10 H    PHE D 177      86.782  42.550  27.519  1.00 41.46 LIG 0.16  HD
ATOM     11 O    PRO D 176      85.704  39.843  26.668  1.00 40.08 LIG-0.27  OA
BRANCH 9 12
ATOM     12  CA  PHE D 177      87.444  41.829  25.803  1.00 42.13 LIG 0.19  C 
BRANCH 12 13
ATOM     13  CB  PHE D 177      86.568  42.293  24.631  1.00 40.75 LIG 0.07  C 
BRANCH 13 14
ATOM     14  CG  PHE D 177      85.354  43.079  25.046  1.00 38.35 LIG-0.06  A 
ATOM     15  CD1 PHE D 177      85.464  44.417  25.415  1.00 38.94 LIG 0.01  A 
ATOM     16  CE1 PHE D 177      84.345  45.142  25.792  1.00 37.83 LIG 0.00  A 
ATOM     17  CZ  PHE D 177      83.101  44.542  25.791  1.00 37.53 LIG 0.00  A 
ATOM     18  CE2 PHE D 177      82.973  43.216  25.415  1.00 36.58 LIG 0.00  A 
ATOM     19  CD2 PHE D 177      84.095  42.492  25.044  1.00 37.89 LIG 0.01  A 
ENDBRANCH 13 14
ENDBRANCH 12 13
BRANCH 12 20
ATOM     20  C   PHE D 177      88.669  42.718  25.940  1.00 42.35 LIG 0.20  C 
ATOM     21 OXT  PHE D 177      88.866  43.364  26.963  1.00 44.55 LIG-0.65  OA
ATOM     22 O    PHE D 177      89.493  42.804  25.029  1.00 42.35 LIG-0.65  OA
ENDBRANCH 12 20
ENDBRANCH 9 12
ENDBRANCH 4 8
BRANCH 1 23
ATOM     23  CA  ILE D 175      87.622  42.309  31.538  1.00 50.15 LIG 0.18  C 
BRANCH 23 24
ATOM     24  CB  ILE D 175      86.608  42.523  32.692  1.00 52.56 LIG 0.01  C 
ATOM     25  CG2 ILE D 175      85.908  43.878  32.595  1.00 53.60 LIG 0.01  C 
BRANCH 24 26
ATOM     26  CG1 ILE D 175      85.583  41.379  32.731  1.00 53.43 LIG 0.00  C 
ATOM     27  CD1 ILE D 175      84.149  41.834  32.546  1.00 54.83 LIG 0.01  C 
ENDBRANCH 24 26
ENDBRANCH 23 24
BRANCH 23 28
ATOM     28  N   ILE D 175      88.004  43.568  30.899  1.00 52.48 LIG-0.34  N 
ATOM     29 H    ILE D 175      87.388  44.168  30.891  1.00 52.48 LIG 0.16  HD
ATOM     30  C   ASP D 174      89.220  43.736  30.382  1.00 53.52 LIG 0.26  C 
ATOM     31 O    ASP D 174      90.151  42.964  30.611  1.00 50.42 LIG-0.27  OA
BRANCH 30 32
ATOM     32  CA  ASP D 174      89.458  44.977  29.518  1.00 56.25 LIG 0.41  C 
ATOM     33  N   ASP D 174      88.916  46.249  30.097  1.00 55.41 LIG 0.61  N 
BRANCH 32 34
ATOM     34  CB  ASP D 174      90.953  45.089  29.240  1.00 59.33 LIG 0.16  C 
BRANCH 34 35
ATOM     35  CG  ASP D 174      91.242  45.884  27.978  1.00 62.66 LIG 0.17  C 
ATOM     36 OD2  ASP D 174      92.118  45.466  27.187  1.00 62.95 LIG-0.65  OA
ATOM     37 OD1  ASP D 174      90.572  46.922  27.775  1.00 63.24 LIG-0.65  OA
ENDBRANCH 34 35
ENDBRANCH 32 34
ENDBRANCH 30 32
ENDBRANCH 23 28
ENDBRANCH 1 23
TORSDOF 12
ENDMDL
MODEL 17
USER: ADFR SOLUTION from run 112
USER: SCORE 15.192047 LL:  -3.544 LR: -11.765 RR:   0.000 FEB:  -8.186
USER: RMSD 8.010389
USER: SEED 111
USER: STATUS no improvement in best in 13 clusters for 5 generations
USER: GENES 14
USER: genes 0 Translation |==|  0.57051 0.41628 0.27605
USER: genes 1 Rotation |==|  0.00867 0.44312 0.43410 0.53187
USER: genes 2 Torsion [N]-CA--C-[O] |==|  0.44405
USER: genes 3 Torsion [C]-N--CA-[CB] |==|  0.82360
USER: genes 4 Torsion [N]-CA--CB-[CG] |==|  0.76198
USER: genes 5 Torsion [CA]-CB--CG-[CD2] |==|  0.32470
USER: genes 6 Torsion [N]-CA--C-[O] |==|  0.19356
USER: genes 7 Torsion [N]-C--CA-[N] |==|  0.38383
USER: genes 8 Torsion [C]-CA--CB-[CG2] |==|  0.82292
USER: genes 9 Torsion [CA]-CB--CG1-[CD1] |==|  0.68276
USER: genes 10 Torsion [C]-CA--N-[C] |==|  0.72226
USER: genes 11 Torsion [N]-C--CA-[N] |==|  0.34359
USER: genes 12 Torsion [C]-CA--CB-[CG] |==|  0.07465
USER: genes 13 Torsion [CA]-CB--CG-[OD2] |==|  0.63463
ROOT
ATOM      1  C   ILE D 175      86.801  42.960  26.505  1.00 46.12 LIG 0.24  C 
ATOM      2 O    ILE D 175      87.806  43.076  27.211  1.00 42.41 LIG-0.27  OA
ATOM      3  N   PRO D 176      85.996  44.003  26.225  1.00 41.83 LIG-0.34  N 
ATOM      4  CA  PRO D 176      86.374  45.366  26.605  1.00 39.90 LIG 0.18  C 
ATOM      5  CB  PRO D 176      85.597  46.203  25.594  1.00 38.91 LIG 0.04  C 
ATOM      6  CG  PRO D 176      84.318  45.446  25.440  1.00 40.22 LIG 0.02  C 
ATOM      7  CD  PRO D 176      84.667  43.983  25.582  1.00 41.02 LIG 0.13  C 
ENDROOT
BRANCH 4 8
ATOM      8  C   PRO D 176      85.988  45.744  28.049  1.00 41.09 LIG 0.24  C 
ATOM      9  N   PHE D 177      85.034  45.018  28.624  1.00 41.46 LIG-0.34  N 
ATOM     10 H    PHE D 177      84.573  44.420  28.212  1.00 41.46 LIG 0.16  HD
ATOM     11 O    PRO D 176      86.549  46.687  28.627  1.00 40.08 LIG-0.27  OA
BRANCH 9 12
ATOM     12  CA  PHE D 177      84.685  45.180  30.031  1.00 42.13 LIG 0.19  C 
BRANCH 12 13
ATOM     13  CB  PHE D 177      85.868  44.808  30.935  1.00 40.75 LIG 0.07  C 
BRANCH 13 14
ATOM     14  CG  PHE D 177      85.959  43.340  31.254  1.00 38.35 LIG-0.06  A 
ATOM     15  CD1 PHE D 177      84.935  42.697  31.946  1.00 38.94 LIG 0.01  A 
ATOM     16  CE1 PHE D 177      85.017  41.344  32.235  1.00 37.83 LIG 0.00  A 
ATOM     17  CZ  PHE D 177      86.116  40.615  31.823  1.00 37.53 LIG 0.00  A 
ATOM     18  CE2 PHE D 177      87.135  41.238  31.123  1.00 36.58 LIG 0.00  A 
ATOM     19  CD2 PHE D 177      87.053  42.592  30.841  1.00 37.89 LIG 0.01  A 
ENDBRANCH 13 14
ENDBRANCH 12 13
BRANCH 12 20
ATOM     20  C   PHE D 177      84.244  46.612  30.289  1.00 42.35 LIG 0.20  C 
ATOM     21 OXT  PHE D 177      84.941  47.376  30.946  1.00 44.55 LIG-0.65  OA
ATOM     22 O    PHE D 177      83.179  47.036  29.839  1.00 42.35 LIG-0.65  OA
ENDBRANCH 12 20
ENDBRANCH 9 12
ENDBRANCH 4 8
BRANCH 1 23
ATOM     23  CA  ILE D 175      86.437  41.592  25.885  1.00 50.15 LIG 0.18  C 
BRANCH 23 24
ATOM     24  CB  ILE D 175      85.656  40.682  26.869  1.00 52.56 LIG 0.01  C 
ATOM     25  CG2 ILE D 175      86.493  40.311  28.093  1.00 53.60 LIG 0.01  C 
BRANCH 24 26
ATOM     26  CG1 ILE D 175      84.336  41.346  27.290  1.00 53.43 LIG 0.00  C 
ATOM     27  CD1 ILE D 175      84.275  41.712  28.759  1.00 54.83 LIG 0.01  C 
ENDBRANCH 24 26
ENDBRANCH 23 24
BRANCH 23 28
ATOM     28  N   ILE D 175      87.675  40.966  25.420  1.00 52.48 LIG-0.34  N 
ATOM     29 H    ILE D 175      88.138  40.585  26.037  1.00 52.48 LIG 0.16  HD
ATOM     30  C   ASP D 174      88.024  41.004  24.135  1.00 53.52 LIG 0.26  C 
ATOM     31 O    ASP D 174      87.244  41.341  23.245  1.00 50.42 LIG-0.27  OA
BRANCH 30 32
ATOM     32  CA  ASP D 174      89.440  40.550  23.772  1.00 56.25 LIG 0.41  C 
ATOM     33  N   ASP D 174      89.498  39.444  22.762  1.00 55.41 LIG 0.61  N 
BRANCH 32 34
ATOM     34  CB  ASP D 174      90.230  41.767  23.305  1.00 59.33 LIG 0.16  C 
BRANCH 34 35
ATOM     35  CG  ASP D 174      89.707  43.057  23.914  1.00 62.66 LIG 0.17  C 
ATOM     36 OD2  ASP D 174      89.493  44.037  23.165  1.00 62.95 LIG-0.65  OA
ATOM     37 OD1  ASP D 174      89.493  43.076  25.148  1.00 63.24 LIG-0.65  OA
ENDBRANCH 34 35
ENDBRANCH 32 34
ENDBRANCH 30 32
ENDBRANCH 23 28
ENDBRANCH 1 23
TORSDOF 12
ENDMDL
MODEL 18
USER: ADFR SOLUTION from run 54
USER: SCORE 15.251242 LL:  -3.960 LR: -11.760 RR:   0.000 FEB:  -8.180
USER: RMSD 6.804388
USER: SEED 53
USER: STATUS no improvement in best in 6 clusters for 5 generations
USER: GENES 14
USER: genes 0 Translation |==|  0.42592 0.42649 0.32768
USER: genes 1 Rotation |==|  0.50078 0.09733 0.79130 0.55475
USER: genes 2 Torsion [N]-CA--C-[O] |==|  0.44193
USER: genes 3 Torsion [C]-N--CA-[CB] |==|  0.82547
USER: genes 4 Torsion [N]-CA--CB-[CG] |==|  0.87568
USER: genes 5 Torsion [CA]-CB--CG-[CD2] |==|  0.85074
USER: genes 6 Torsion [N]-CA--C-[O] |==|  0.16273
USER: genes 7 Torsion [N]-C--CA-[N] |==|  0.82846
USER: genes 8 Torsion [C]-CA--CB-[CG2] |==|  0.35844
USER: genes 9 Torsion [CA]-CB--CG1-[CD1] |==|  0.68123
USER: genes 10 Torsion [C]-CA--N-[C] |==|  0.67494
USER: genes 11 Torsion [N]-C--CA-[N] |==|  0.76909
USER: genes 12 Torsion [C]-CA--CB-[CG] |==|  0.15870
USER: genes 13 Torsion [CA]-CB--CG-[OD2] |==|  0.05751
ROOT
ATOM      1  C   ILE D 175      84.632  43.128  27.551  1.00 46.12 LIG 0.24  C 
ATOM      2 O    ILE D 175      83.561  43.680  27.822  1.00 42.41 LIG-0.27  OA
ATOM      3  N   PRO D 176      85.346  42.455  28.474  1.00 41.83 LIG-0.34  N 
ATOM      4  CA  PRO D 176      84.798  42.198  29.807  1.00 39.90 LIG 0.18  C 
ATOM      5  CB  PRO D 176      85.569  40.953  30.232  1.00 38.91 LIG 0.04  C 
ATOM      6  CG  PRO D 176      86.928  41.185  29.655  1.00 40.22 LIG 0.02  C 
ATOM      7  CD  PRO D 176      86.721  41.929  28.357  1.00 41.02 LIG 0.13  C 
ENDROOT
BRANCH 4 8
ATOM      8  C   PRO D 176      85.015  43.351  30.806  1.00 41.09 LIG 0.24  C 
ATOM      9  N   PHE D 177      85.994  44.207  30.531  1.00 41.46 LIG-0.34  N 
ATOM     10 H    PHE D 177      86.554  44.102  29.887  1.00 41.46 LIG 0.16  HD
ATOM     11 O    PRO D 176      84.301  43.456  31.816  1.00 40.08 LIG-0.27  OA
BRANCH 9 12
ATOM     12  CA  PHE D 177      86.203  45.419  31.317  1.00 42.13 LIG 0.19  C 
BRANCH 12 13
ATOM     13  CB  PHE D 177      84.993  46.356  31.210  1.00 40.75 LIG 0.07  C 
BRANCH 13 14
ATOM     14  CG  PHE D 177      84.466  46.520  29.810  1.00 38.35 LIG-0.06  A 
ATOM     15  CD1 PHE D 177      83.118  46.313  29.527  1.00 38.94 LIG 0.01  A 
ATOM     16  CE1 PHE D 177      82.632  46.469  28.239  1.00 37.83 LIG 0.00  A 
ATOM     17  CZ  PHE D 177      83.485  46.849  27.221  1.00 37.53 LIG 0.00  A 
ATOM     18  CE2 PHE D 177      84.825  47.071  27.488  1.00 36.58 LIG 0.00  A 
ATOM     19  CD2 PHE D 177      85.309  46.908  28.777  1.00 37.89 LIG 0.01  A 
ENDBRANCH 13 14
ENDBRANCH 12 13
BRANCH 12 20
ATOM     20  C   PHE D 177      86.469  45.050  32.768  1.00 42.35 LIG 0.20  C 
ATOM     21 OXT  PHE D 177      85.744  45.466  33.664  1.00 44.55 LIG-0.65  OA
ATOM     22 O    PHE D 177      87.415  44.323  33.072  1.00 42.35 LIG-0.65  OA
ENDBRANCH 12 20
ENDBRANCH 9 12
ENDBRANCH 4 8
BRANCH 1 23
ATOM     23  CA  ILE D 175      85.187  43.170  26.109  1.00 50.15 LIG 0.18  C 
BRANCH 23 24
ATOM     24  CB  ILE D 175      85.280  41.761  25.466  1.00 52.56 LIG 0.01  C 
ATOM     25  CG2 ILE D 175      84.617  41.716  24.090  1.00 53.60 LIG 0.01  C 
BRANCH 24 26
ATOM     26  CG1 ILE D 175      86.743  41.298  25.384  1.00 53.43 LIG 0.00  C 
ATOM     27  CD1 ILE D 175      87.258  41.142  23.968  1.00 54.83 LIG 0.01  C 
ENDBRANCH 24 26
ENDBRANCH 23 24
BRANCH 23 28
ATOM     28  N   ILE D 175      86.485  43.845  26.148  1.00 52.48 LIG-0.34  N 
ATOM     29 H    ILE D 175      87.086  43.441  26.612  1.00 52.48 LIG 0.16  HD
ATOM     30  C   ASP D 174      86.682  44.993  25.502  1.00 53.52 LIG 0.26  C 
ATOM     31 O    ASP D 174      85.894  45.425  24.662  1.00 50.42 LIG-0.27  OA
BRANCH 30 32
ATOM     32  CA  ASP D 174      87.977  45.756  25.793  1.00 56.25 LIG 0.41  C 
ATOM     33  N   ASP D 174      87.929  46.618  27.018  1.00 55.41 LIG 0.61  N 
BRANCH 32 34
ATOM     34  CB  ASP D 174      89.120  44.748  25.871  1.00 59.33 LIG 0.16  C 
BRANCH 34 35
ATOM     35  CG  ASP D 174      89.245  43.926  24.600  1.00 62.66 LIG 0.17  C 
ATOM     36 OD2  ASP D 174      88.743  44.367  23.541  1.00 62.95 LIG-0.65  OA
ATOM     37 OD1  ASP D 174      89.868  42.841  24.665  1.00 63.24 LIG-0.65  OA
ENDBRANCH 34 35
ENDBRANCH 32 34
ENDBRANCH 30 32
ENDBRANCH 23 28
ENDBRANCH 1 23
TORSDOF 12
ENDMDL
MODEL 19
USER: ADFR SOLUTION from run 9
USER: SCORE 15.499264 LL:  -3.894 LR: -11.752 RR:   0.000 FEB:  -8.172
USER: RMSD 3.314493
USER: SEED 799713
USER: STATUS no improvement in best in 4 clusters for 5 generations
USER: GENES 14
USER: genes 0 Translation |==|  0.53338 0.46375 0.49250
USER: genes 1 Rotation |==|  0.47526 0.75959 0.86007 0.72881
USER: genes 2 Torsion [N]-CA--C-[O] |==|  0.94313
USER: genes 3 Torsion [C]-N--CA-[CB] |==|  0.29731
USER: genes 4 Torsion [N]-CA--CB-[CG] |==|  0.87008
USER: genes 5 Torsion [CA]-CB--CG-[CD2] |==|  0.35047
USER: genes 6 Torsion [N]-CA--C-[O] |==|  0.26247
USER: genes 7 Torsion [N]-C--CA-[N] |==|  0.32225
USER: genes 8 Torsion [C]-CA--CB-[CG2] |==|  0.88686
USER: genes 9 Torsion [CA]-CB--CG1-[CD1] |==|  0.76306
USER: genes 10 Torsion [C]-CA--N-[C] |==|  0.79444
USER: genes 11 Torsion [N]-C--CA-[N] |==|  0.28121
USER: genes 12 Torsion [C]-CA--CB-[CG] |==|  0.50329
USER: genes 13 Torsion [CA]-CB--CG-[OD2] |==|  0.49721
ROOT
ATOM      1  C   ILE D 175      86.244  43.743  30.888  1.00 46.12 LIG 0.24  C 
ATOM      2 O    ILE D 175      85.364  44.120  30.109  1.00 42.41 LIG-0.27  OA
ATOM      3  N   PRO D 176      87.528  43.602  30.506  1.00 41.83 LIG-0.34  N 
ATOM      4  CA  PRO D 176      87.974  44.058  29.187  1.00 39.90 LIG 0.18  C 
ATOM      5  CB  PRO D 176      89.459  44.310  29.425  1.00 38.91 LIG 0.04  C 
ATOM      6  CG  PRO D 176      89.840  43.216  30.369  1.00 40.22 LIG 0.02  C 
ATOM      7  CD  PRO D 176      88.637  42.973  31.251  1.00 41.02 LIG 0.13  C 
ENDROOT
BRANCH 4 8
ATOM      8  C   PRO D 176      87.761  43.026  28.063  1.00 41.09 LIG 0.24  C 
ATOM      9  N   PHE D 177      87.735  43.492  26.818  1.00 41.46 LIG-0.34  N 
ATOM     10 H    PHE D 177      87.743  44.329  26.621  1.00 41.46 LIG 0.16  HD
ATOM     11 O    PRO D 176      87.618  41.822  28.328  1.00 40.08 LIG-0.27  OA
BRANCH 9 12
ATOM     12  CA  PHE D 177      87.689  42.602  25.663  1.00 42.13 LIG 0.19  C 
BRANCH 12 13
ATOM     13  CB  PHE D 177      86.300  42.623  25.010  1.00 40.75 LIG 0.07  C 
BRANCH 13 14
ATOM     14  CG  PHE D 177      85.161  42.497  25.986  1.00 38.35 LIG-0.06  A 
ATOM     15  CD1 PHE D 177      85.125  41.454  26.907  1.00 38.94 LIG 0.01  A 
ATOM     16  CE1 PHE D 177      84.079  41.341  27.808  1.00 37.83 LIG 0.00  A 
ATOM     17  CZ  PHE D 177      83.064  42.279  27.809  1.00 37.53 LIG 0.00  A 
ATOM     18  CE2 PHE D 177      83.092  43.329  26.907  1.00 36.58 LIG 0.00  A 
ATOM     19  CD2 PHE D 177      84.137  43.435  26.003  1.00 37.89 LIG 0.01  A 
ENDBRANCH 13 14
ENDBRANCH 12 13
BRANCH 12 20
ATOM     20  C   PHE D 177      88.758  43.006  24.661  1.00 42.35 LIG 0.20  C 
ATOM     21 OXT  PHE D 177      88.543  43.882  23.831  1.00 44.55 LIG-0.65  OA
ATOM     22 O    PHE D 177      89.865  42.466  24.665  1.00 42.35 LIG-0.65  OA
ENDBRANCH 12 20
ENDBRANCH 9 12
ENDBRANCH 4 8
BRANCH 1 23
ATOM     23  CA  ILE D 175      85.901  43.438  32.363  1.00 50.15 LIG 0.18  C 
BRANCH 23 24
ATOM     24  CB  ILE D 175      84.868  42.289  32.509  1.00 52.56 LIG 0.01  C 
ATOM     25  CG2 ILE D 175      83.760  42.380  31.461  1.00 53.60 LIG 0.01  C 
BRANCH 24 26
ATOM     26  CG1 ILE D 175      85.567  40.922  32.448  1.00 53.43 LIG 0.00  C 
ATOM     27  CD1 ILE D 175      85.780  40.403  31.040  1.00 54.83 LIG 0.01  C 
ENDBRANCH 24 26
ENDBRANCH 23 24
BRANCH 23 28
ATOM     28  N   ILE D 175      85.435  44.679  32.982  1.00 52.48 LIG-0.34  N 
ATOM     29 H    ILE D 175      84.587  44.714  33.122  1.00 52.48 LIG 0.16  HD
ATOM     30  C   ASP D 174      86.287  45.655  33.290  1.00 53.52 LIG 0.26  C 
ATOM     31 O    ASP D 174      87.507  45.493  33.301  1.00 50.42 LIG-0.27  OA
BRANCH 30 32
ATOM     32  CA  ASP D 174      85.697  47.007  33.700  1.00 56.25 LIG 0.41  C 
ATOM     33  N   ASP D 174      85.691  47.260  35.178  1.00 55.41 LIG 0.61  N 
BRANCH 32 34
ATOM     34  CB  ASP D 174      86.449  48.105  32.954  1.00 59.33 LIG 0.16  C 
BRANCH 34 35
ATOM     35  CG  ASP D 174      85.949  49.491  33.321  1.00 62.66 LIG 0.17  C 
ATOM     36 OD2  ASP D 174      86.492  50.490  32.796  1.00 62.95 LIG-0.65  OA
ATOM     37 OD1  ASP D 174      84.993  49.574  34.127  1.00 63.24 LIG-0.65  OA
ENDBRANCH 34 35
ENDBRANCH 32 34
ENDBRANCH 30 32
ENDBRANCH 23 28
ENDBRANCH 1 23
TORSDOF 12
ENDMDL
MODEL 20
USER: ADFR SOLUTION from run 163
USER: SCORE 15.072519 LL:  -3.770 LR: -11.694 RR:   0.000 FEB:  -8.114
USER: RMSD 7.117689
USER: SEED 162
USER: STATUS no improvement in best in 6 clusters for 5 generations
USER: GENES 14
USER: genes 0 Translation |==|  0.38730 0.48191 0.41820
USER: genes 1 Rotation |==|  0.40785 0.14237 0.77466 0.69538
USER: genes 2 Torsion [N]-CA--C-[O] |==|  0.69078
USER: genes 3 Torsion [C]-N--CA-[CB] |==|  0.25338
USER: genes 4 Torsion [N]-CA--CB-[CG] |==|  0.86697
USER: genes 5 Torsion [CA]-CB--CG-[CD2] |==|  0.25899
USER: genes 6 Torsion [N]-CA--C-[O] |==|  0.77558
USER: genes 7 Torsion [N]-C--CA-[N] |==|  0.86027
USER: genes 8 Torsion [C]-CA--CB-[CG2] |==|  0.96734
USER: genes 9 Torsion [CA]-CB--CG1-[CD1] |==|  0.00278
USER: genes 10 Torsion [C]-CA--N-[C] |==|  0.68889
USER: genes 11 Torsion [N]-C--CA-[N] |==|  0.16427
USER: genes 12 Torsion [C]-CA--CB-[CG] |==|  0.68725
USER: genes 13 Torsion [CA]-CB--CG-[OD2] |==|  0.82633
ROOT
ATOM      1  C   ILE D 175      84.052  44.043  29.383  1.00 46.12 LIG 0.24  C 
ATOM      2 O    ILE D 175      83.628  45.133  29.778  1.00 42.41 LIG-0.27  OA
ATOM      3  N   PRO D 176      84.456  43.079  30.235  1.00 41.83 LIG-0.34  N 
ATOM      4  CA  PRO D 176      84.247  43.217  31.678  1.00 39.90 LIG 0.18  C 
ATOM      5  CB  PRO D 176      84.226  41.761  32.134  1.00 38.91 LIG 0.04  C 
ATOM      6  CG  PRO D 176      85.246  41.117  31.253  1.00 40.22 LIG 0.02  C 
ATOM      7  CD  PRO D 176      85.171  41.827  29.921  1.00 41.02 LIG 0.13  C 
ENDROOT
BRANCH 4 8
ATOM      8  C   PRO D 176      85.355  44.007  32.400  1.00 41.09 LIG 0.24  C 
ATOM      9  N   PHE D 177      85.438  45.306  32.132  1.00 41.46 LIG-0.34  N 
ATOM     10 H    PHE D 177      84.972  45.700  31.526  1.00 41.46 LIG 0.16  HD
ATOM     11 O    PRO D 176      86.128  43.437  33.187  1.00 40.08 LIG-0.27  OA
BRANCH 9 12
ATOM     12  CA  PHE D 177      86.345  46.188  32.859  1.00 42.13 LIG 0.19  C 
BRANCH 12 13
ATOM     13  CB  PHE D 177      87.704  46.278  32.153  1.00 40.75 LIG 0.07  C 
BRANCH 13 14
ATOM     14  CG  PHE D 177      88.282  44.946  31.760  1.00 38.35 LIG-0.06  A 
ATOM     15  CD1 PHE D 177      89.033  44.201  32.666  1.00 38.94 LIG 0.01  A 
ATOM     16  CE1 PHE D 177      89.562  42.972  32.305  1.00 37.83 LIG 0.00  A 
ATOM     17  CZ  PHE D 177      89.332  42.466  31.040  1.00 37.53 LIG 0.00  A 
ATOM     18  CE2 PHE D 177      88.576  43.189  30.133  1.00 36.58 LIG 0.00  A 
ATOM     19  CD2 PHE D 177      88.055  44.421  30.495  1.00 37.89 LIG 0.01  A 
ENDBRANCH 13 14
ENDBRANCH 12 13
BRANCH 12 20
ATOM     20  C   PHE D 177      85.719  47.567  32.998  1.00 42.35 LIG 0.20  C 
ATOM     21 OXT  PHE D 177      85.163  47.903  34.037  1.00 44.55 LIG-0.65  OA
ATOM     22 O    PHE D 177      85.763  48.376  32.071  1.00 42.35 LIG-0.65  OA
ENDBRANCH 12 20
ENDBRANCH 9 12
ENDBRANCH 4 8
BRANCH 1 23
ATOM     23  CA  ILE D 175      84.114  43.730  27.872  1.00 50.15 LIG 0.18  C 
BRANCH 23 24
ATOM     24  CB  ILE D 175      82.995  42.754  27.420  1.00 52.56 LIG 0.01  C 
ATOM     25  CG2 ILE D 175      82.282  42.112  28.610  1.00 53.60 LIG 0.01  C 
BRANCH 24 26
ATOM     26  CG1 ILE D 175      81.992  43.468  26.501  1.00 53.43 LIG 0.00  C 
ATOM     27  CD1 ILE D 175      82.331  44.921  26.233  1.00 54.83 LIG 0.01  C 
ENDBRANCH 24 26
ENDBRANCH 23 24
BRANCH 23 28
ATOM     28  N   ILE D 175      85.449  43.213  27.574  1.00 52.48 LIG-0.34  N 
ATOM     29 H    ILE D 175      85.619  42.441  27.913  1.00 52.48 LIG 0.16  HD
ATOM     30  C   ASP D 174      86.307  43.912  26.832  1.00 53.52 LIG 0.26  C 
ATOM     31 O    ASP D 174      85.967  44.891  26.169  1.00 50.42 LIG-0.27  OA
BRANCH 30 32
ATOM     32  CA  ASP D 174      87.756  43.422  26.774  1.00 56.25 LIG 0.41  C 
ATOM     33  N   ASP D 174      87.920  42.028  26.248  1.00 55.41 LIG 0.61  N 
BRANCH 32 34
ATOM     34  CB  ASP D 174      88.569  44.420  25.957  1.00 59.33 LIG 0.16  C 
BRANCH 34 35
ATOM     35  CG  ASP D 174      89.048  43.829  24.643  1.00 62.66 LIG 0.17  C 
ATOM     36 OD2  ASP D 174      89.828  42.849  24.668  1.00 62.95 LIG-0.65  OA
ATOM     37 OD1  ASP D 174      88.623  44.341  23.582  1.00 63.24 LIG-0.65  OA
ENDBRANCH 34 35
ENDBRANCH 32 34
ENDBRANCH 30 32
ENDBRANCH 23 28
ENDBRANCH 1 23
TORSDOF 12
ENDMDL
MODEL 21
USER: ADFR SOLUTION from run 141
USER: SCORE 15.075754 LL:  -3.889 LR: -11.649 RR:   0.000 FEB:  -8.069
USER: RMSD 3.648605
USER: SEED 140
USER: STATUS no improvement in best in 4 clusters for 5 generations
USER: GENES 14
USER: genes 0 Translation |==|  0.56031 0.45228 0.44066
USER: genes 1 Rotation |==|  0.48410 0.73960 0.93068 0.58280
USER: genes 2 Torsion [N]-CA--C-[O] |==|  0.50085
USER: genes 3 Torsion [C]-N--CA-[CB] |==|  0.85591
USER: genes 4 Torsion [N]-CA--CB-[CG] |==|  0.88030
USER: genes 5 Torsion [CA]-CB--CG-[CD2] |==|  0.88008
USER: genes 6 Torsion [N]-CA--C-[O] |==|  0.07431
USER: genes 7 Torsion [N]-C--CA-[N] |==|  0.20735
USER: genes 8 Torsion [C]-CA--CB-[CG2] |==|  0.80791
USER: genes 9 Torsion [CA]-CB--CG1-[CD1] |==|  0.29117
USER: genes 10 Torsion [C]-CA--N-[C] |==|  0.71207
USER: genes 11 Torsion [N]-C--CA-[N] |==|  0.55372
USER: genes 12 Torsion [C]-CA--CB-[CG] |==|  0.26112
USER: genes 13 Torsion [CA]-CB--CG-[OD2] |==|  0.41011
ROOT
ATOM      1  C   ILE D 175      86.648  43.554  29.838  1.00 46.12 LIG 0.24  C 
ATOM      2 O    ILE D 175      85.489  43.475  29.419  1.00 42.41 LIG-0.27  OA
ATOM      3  N   PRO D 176      87.625  44.162  29.138  1.00 41.83 LIG-0.34  N 
ATOM      4  CA  PRO D 176      87.318  44.914  27.919  1.00 39.90 LIG 0.18  C 
ATOM      5  CB  PRO D 176      88.482  45.898  27.853  1.00 38.91 LIG 0.04  C 
ATOM      6  CG  PRO D 176      89.634  45.091  28.357  1.00 40.22 LIG 0.02  C 
ATOM      7  CD  PRO D 176      89.077  44.155  29.404  1.00 41.02 LIG 0.13  C 
ENDROOT
BRANCH 4 8
ATOM      8  C   PRO D 176      87.255  44.046  26.647  1.00 41.09 LIG 0.24  C 
ATOM      9  N   PHE D 177      87.479  42.745  26.797  1.00 41.46 LIG-0.34  N 
ATOM     10 H    PHE D 177      87.736  42.386  27.535  1.00 41.46 LIG 0.16  HD
ATOM     11 O    PRO D 176      87.010  44.559  25.543  1.00 40.08 LIG-0.27  OA
BRANCH 9 12
ATOM     12  CA  PHE D 177      87.302  41.800  25.699  1.00 42.13 LIG 0.19  C 
BRANCH 12 13
ATOM     13  CB  PHE D 177      85.917  41.960  25.057  1.00 40.75 LIG 0.07  C 
BRANCH 13 14
ATOM     14  CG  PHE D 177      84.797  42.128  26.048  1.00 38.35 LIG-0.06  A 
ATOM     15  CD1 PHE D 177      83.784  43.057  25.826  1.00 38.94 LIG 0.01  A 
ATOM     16  CE1 PHE D 177      82.750  43.209  26.736  1.00 37.83 LIG 0.00  A 
ATOM     17  CZ  PHE D 177      82.709  42.421  27.871  1.00 37.53 LIG 0.00  A 
ATOM     18  CE2 PHE D 177      83.702  41.484  28.099  1.00 36.58 LIG 0.00  A 
ATOM     19  CD2 PHE D 177      84.738  41.340  27.189  1.00 37.89 LIG 0.01  A 
ENDBRANCH 13 14
ENDBRANCH 12 13
BRANCH 12 20
ATOM     20  C   PHE D 177      88.398  42.003  24.665  1.00 42.35 LIG 0.20  C 
ATOM     21 OXT  PHE D 177      88.214  41.716  23.488  1.00 44.55 LIG-0.65  OA
ATOM     22 O    PHE D 177      89.493  42.466  24.988  1.00 42.35 LIG-0.65  OA
ENDBRANCH 12 20
ENDBRANCH 9 12
ENDBRANCH 4 8
BRANCH 1 23
ATOM     23  CA  ILE D 175      87.019  42.967  31.219  1.00 50.15 LIG 0.18  C 
BRANCH 23 24
ATOM     24  CB  ILE D 175      85.992  41.915  31.714  1.00 52.56 LIG 0.01  C 
ATOM     25  CG2 ILE D 175      84.648  42.550  32.069  1.00 53.60 LIG 0.01  C 
BRANCH 24 26
ATOM     26  CG1 ILE D 175      85.812  40.801  30.671  1.00 53.43 LIG 0.00  C 
ATOM     27  CD1 ILE D 175      86.495  39.500  31.039  1.00 54.83 LIG 0.01  C 
ENDBRANCH 24 26
ENDBRANCH 23 24
BRANCH 23 28
ATOM     28  N   ILE D 175      87.162  44.081  32.156  1.00 52.48 LIG-0.34  N 
ATOM     29 H    ILE D 175      86.419  44.421  32.426  1.00 52.48 LIG 0.16  HD
ATOM     30  C   ASP D 174      88.365  44.509  32.538  1.00 53.52 LIG 0.26  C 
ATOM     31 O    ASP D 174      89.393  43.867  32.329  1.00 50.42 LIG-0.27  OA
BRANCH 30 32
ATOM     32  CA  ASP D 174      88.434  45.825  33.317  1.00 56.25 LIG 0.41  C 
ATOM     33  N   ASP D 174      89.785  46.475  33.319  1.00 55.41 LIG 0.61  N 
BRANCH 32 34
ATOM     34  CB  ASP D 174      87.368  46.766  32.764  1.00 59.33 LIG 0.16  C 
BRANCH 34 35
ATOM     35  CG  ASP D 174      86.072  46.686  33.551  1.00 62.66 LIG 0.17  C 
ATOM     36 OD2  ASP D 174      85.368  47.716  33.665  1.00 62.95 LIG-0.65  OA
ATOM     37 OD1  ASP D 174      85.752  45.578  34.040  1.00 63.24 LIG-0.65  OA
ENDBRANCH 34 35
ENDBRANCH 32 34
ENDBRANCH 30 32
ENDBRANCH 23 28
ENDBRANCH 1 23
TORSDOF 12
ENDMDL
MODEL 22
USER: ADFR SOLUTION from run 100
USER: SCORE 15.362516 LL:  -3.849 LR: -11.614 RR:   0.000 FEB:  -8.035
USER: RMSD 5.257930
USER: SEED 99
USER: STATUS no improvement in best in 6 clusters for 5 generations
USER: GENES 14
USER: genes 0 Translation |==|  0.47586 0.38593 0.34364
USER: genes 1 Rotation |==|  0.78217 0.29420 0.54973 0.85433
USER: genes 2 Torsion [N]-CA--C-[O] |==|  0.47951
USER: genes 3 Torsion [C]-N--CA-[CB] |==|  0.81500
USER: genes 4 Torsion [N]-CA--CB-[CG] |==|  0.83011
USER: genes 5 Torsion [CA]-CB--CG-[CD2] |==|  0.93165
USER: genes 6 Torsion [N]-CA--C-[O] |==|  0.22892
USER: genes 7 Torsion [N]-C--CA-[N] |==|  0.46620
USER: genes 8 Torsion [C]-CA--CB-[CG2] |==|  0.37834
USER: genes 9 Torsion [CA]-CB--CG1-[CD1] |==|  0.60975
USER: genes 10 Torsion [C]-CA--N-[C] |==|  0.81092
USER: genes 11 Torsion [N]-C--CA-[N] |==|  0.45530
USER: genes 12 Torsion [C]-CA--CB-[CG] |==|  0.26989
USER: genes 13 Torsion [CA]-CB--CG-[OD2] |==|  0.37215
ROOT
ATOM      1  C   ILE D 175      85.381  42.459  27.874  1.00 46.12 LIG 0.24  C 
ATOM      2 O    ILE D 175      86.283  42.467  28.717  1.00 42.41 LIG-0.27  OA
ATOM      3  N   PRO D 176      85.587  42.050  26.607  1.00 41.83 LIG-0.34  N 
ATOM      4  CA  PRO D 176      86.855  41.430  26.214  1.00 39.90 LIG 0.18  C 
ATOM      5  CB  PRO D 176      86.437  40.590  25.011  1.00 38.91 LIG 0.04  C 
ATOM      6  CG  PRO D 176      85.406  41.443  24.346  1.00 40.22 LIG 0.02  C 
ATOM      7  CD  PRO D 176      84.679  42.176  25.449  1.00 41.02 LIG 0.13  C 
ENDROOT
BRANCH 4 8
ATOM      8  C   PRO D 176      87.953  42.439  25.829  1.00 41.09 LIG 0.24  C 
ATOM      9  N   PHE D 177      87.592  43.716  25.744  1.00 41.46 LIG-0.34  N 
ATOM     10 H    PHE D 177      86.778  43.987  25.806  1.00 41.46 LIG 0.16  HD
ATOM     11 O    PRO D 176      89.114  42.058  25.609  1.00 40.08 LIG-0.27  OA
BRANCH 9 12
ATOM     12  CA  PHE D 177      88.567  44.781  25.535  1.00 42.13 LIG 0.19  C 
BRANCH 12 13
ATOM     13  CB  PHE D 177      89.493  44.922  26.750  1.00 40.75 LIG 0.07  C 
BRANCH 13 14
ATOM     14  CG  PHE D 177      88.781  45.277  28.027  1.00 38.35 LIG-0.06  A 
ATOM     15  CD1 PHE D 177      89.346  44.980  29.264  1.00 38.94 LIG 0.01  A 
ATOM     16  CE1 PHE D 177      88.693  45.311  30.440  1.00 37.83 LIG 0.00  A 
ATOM     17  CZ  PHE D 177      87.472  45.958  30.392  1.00 37.53 LIG 0.00  A 
ATOM     18  CE2 PHE D 177      86.903  46.272  29.170  1.00 36.58 LIG 0.00  A 
ATOM     19  CD2 PHE D 177      87.557  45.933  27.996  1.00 37.89 LIG 0.01  A 
ENDBRANCH 13 14
ENDBRANCH 12 13
BRANCH 12 20
ATOM     20  C   PHE D 177      89.373  44.499  24.276  1.00 42.35 LIG 0.20  C 
ATOM     21 OXT  PHE D 177      90.474  43.966  24.342  1.00 44.55 LIG-0.65  OA
ATOM     22 O    PHE D 177      88.933  44.795  23.165  1.00 42.35 LIG-0.65  OA
ENDBRANCH 12 20
ENDBRANCH 9 12
ENDBRANCH 4 8
BRANCH 1 23
ATOM     23  CA  ILE D 175      83.951  42.902  28.257  1.00 50.15 LIG 0.18  C 
BRANCH 23 24
ATOM     24  CB  ILE D 175      83.525  44.214  27.548  1.00 52.56 LIG 0.01  C 
ATOM     25  CG2 ILE D 175      82.098  44.136  27.008  1.00 53.60 LIG 0.01  C 
BRANCH 24 26
ATOM     26  CG1 ILE D 175      83.687  45.417  28.491  1.00 53.43 LIG 0.00  C 
ATOM     27  CD1 ILE D 175      82.570  46.435  28.385  1.00 54.83 LIG 0.01  C 
ENDBRANCH 24 26
ENDBRANCH 23 24
BRANCH 23 28
ATOM     28  N   ILE D 175      83.892  43.018  29.714  1.00 52.48 LIG-0.34  N 
ATOM     29 H    ILE D 175      83.801  43.821  30.007  1.00 52.48 LIG 0.16  HD
ATOM     30  C   ASP D 174      83.978  41.941  30.493  1.00 53.52 LIG 0.26  C 
ATOM     31 O    ASP D 174      83.870  40.796  30.057  1.00 50.42 LIG-0.27  OA
BRANCH 30 32
ATOM     32  CA  ASP D 174      84.157  42.167  31.997  1.00 56.25 LIG 0.41  C 
ATOM     33  N   ASP D 174      83.869  40.965  32.845  1.00 55.41 LIG 0.61  N 
BRANCH 32 34
ATOM     34  CB  ASP D 174      85.570  42.688  32.238  1.00 59.33 LIG 0.16  C 
BRANCH 34 35
ATOM     35  CG  ASP D 174      85.610  44.202  32.358  1.00 62.66 LIG 0.17  C 
ATOM     36 OD2  ASP D 174      86.268  44.718  33.290  1.00 62.95 LIG-0.65  OA
ATOM     37 OD1  ASP D 174      84.992  44.872  31.499  1.00 63.24 LIG-0.65  OA
ENDBRANCH 34 35
ENDBRANCH 32 34
ENDBRANCH 30 32
ENDBRANCH 23 28
ENDBRANCH 1 23
TORSDOF 12
ENDMDL
MODEL 23
USER: ADFR SOLUTION from run 33
USER: SCORE 14.871556 LL:  -3.732 LR: -11.577 RR:   0.000 FEB:  -7.997
USER: RMSD 7.203720
USER: SEED 32
USER: STATUS no improvement in best in 10 clusters for 5 generations
USER: GENES 14
USER: genes 0 Translation |==|  0.36159 0.54689 0.35952
USER: genes 1 Rotation |==|  0.46441 0.12523 0.75382 0.70943
USER: genes 2 Torsion [N]-CA--C-[O] |==|  0.69775
USER: genes 3 Torsion [C]-N--CA-[CB] |==|  0.44328
USER: genes 4 Torsion [N]-CA--CB-[CG] |==|  0.89484
USER: genes 5 Torsion [CA]-CB--CG-[CD2] |==|  0.73768
USER: genes 6 Torsion [N]-CA--C-[O] |==|  0.70687
USER: genes 7 Torsion [N]-C--CA-[N] |==|  0.85172
USER: genes 8 Torsion [C]-CA--CB-[CG2] |==|  0.70182
USER: genes 9 Torsion [CA]-CB--CG1-[CD1] |==|  0.68910
USER: genes 10 Torsion [C]-CA--N-[C] |==|  0.65557
USER: genes 11 Torsion [N]-C--CA-[N] |==|  0.71701
USER: genes 12 Torsion [C]-CA--CB-[CG] |==|  0.46935
USER: genes 13 Torsion [CA]-CB--CG-[OD2] |==|  0.38655
ROOT
ATOM      1  C   ILE D 175      83.667  45.115  28.195  1.00 46.12 LIG 0.24  C 
ATOM      2 O    ILE D 175      83.193  46.051  28.845  1.00 42.41 LIG-0.27  OA
ATOM      3  N   PRO D 176      84.272  44.066  28.786  1.00 41.83 LIG-0.34  N 
ATOM      4  CA  PRO D 176      84.243  43.903  30.241  1.00 39.90 LIG 0.18  C 
ATOM      5  CB  PRO D 176      84.426  42.397  30.394  1.00 38.91 LIG 0.04  C 
ATOM      6  CG  PRO D 176      85.379  42.059  29.294  1.00 40.22 LIG 0.02  C 
ATOM      7  CD  PRO D 176      85.059  42.991  28.149  1.00 41.02 LIG 0.13  C 
ENDROOT
BRANCH 4 8
ATOM      8  C   PRO D 176      85.354  44.673  30.980  1.00 41.09 LIG 0.24  C 
ATOM      9  N   PHE D 177      85.245  45.997  31.016  1.00 41.46 LIG-0.34  N 
ATOM     10 H    PHE D 177      84.647  46.440  30.583  1.00 41.46 LIG 0.16  HD
ATOM     11 O    PRO D 176      86.301  44.067  31.507  1.00 40.08 LIG-0.27  OA
BRANCH 9 12
ATOM     12  CA  PHE D 177      86.149  46.825  31.807  1.00 42.13 LIG 0.19  C 
BRANCH 12 13
ATOM     13  CB  PHE D 177      86.149  48.273  31.302  1.00 40.75 LIG 0.07  C 
BRANCH 13 14
ATOM     14  CG  PHE D 177      86.061  48.402  29.805  1.00 38.35 LIG-0.06  A 
ATOM     15  CD1 PHE D 177      84.825  48.422  29.164  1.00 38.94 LIG 0.01  A 
ATOM     16  CE1 PHE D 177      84.744  48.544  27.786  1.00 37.83 LIG 0.00  A 
ATOM     17  CZ  PHE D 177      85.897  48.663  27.035  1.00 37.53 LIG 0.00  A 
ATOM     18  CE2 PHE D 177      87.133  48.658  27.659  1.00 36.58 LIG 0.00  A 
ATOM     19  CD2 PHE D 177      87.210  48.528  29.037  1.00 37.89 LIG 0.01  A 
ENDBRANCH 13 14
ENDBRANCH 12 13
BRANCH 12 20
ATOM     20  C   PHE D 177      85.746  46.768  33.273  1.00 42.35 LIG 0.20  C 
ATOM     21 OXT  PHE D 177      85.983  45.776  33.952  1.00 44.55 LIG-0.65  OA
ATOM     22 O    PHE D 177      85.179  47.720  33.809  1.00 42.35 LIG-0.65  OA
ENDBRANCH 12 20
ENDBRANCH 9 12
ENDBRANCH 4 8
BRANCH 1 23
ATOM     23  CA  ILE D 175      83.558  45.101  26.654  1.00 50.15 LIG 0.18  C 
BRANCH 23 24
ATOM     24  CB  ILE D 175      82.546  44.045  26.139  1.00 52.56 LIG 0.01  C 
ATOM     25  CG2 ILE D 175      83.245  42.851  25.489  1.00 53.60 LIG 0.01  C 
BRANCH 24 26
ATOM     26  CG1 ILE D 175      81.619  43.583  27.274  1.00 53.43 LIG 0.00  C 
ATOM     27  CD1 ILE D 175      81.834  42.143  27.694  1.00 54.83 LIG 0.01  C 
ENDBRANCH 24 26
ENDBRANCH 23 24
BRANCH 23 28
ATOM     28  N   ILE D 175      84.900  44.890  26.111  1.00 52.48 LIG-0.34  N 
ATOM     29 H    ILE D 175      85.295  44.181  26.396  1.00 52.48 LIG 0.16  HD
ATOM     30  C   ASP D 174      85.434  45.750  25.245  1.00 53.52 LIG 0.26  C 
ATOM     31 O    ASP D 174      84.772  46.617  24.676  1.00 50.42 LIG-0.27  OA
BRANCH 30 32
ATOM     32  CA  ASP D 174      86.922  45.594  24.919  1.00 56.25 LIG 0.41  C 
ATOM     33  N   ASP D 174      87.817  46.572  25.618  1.00 55.41 LIG 0.61  N 
BRANCH 32 34
ATOM     34  CB  ASP D 174      87.331  44.156  25.221  1.00 59.33 LIG 0.16  C 
BRANCH 34 35
ATOM     35  CG  ASP D 174      88.713  43.829  24.681  1.00 62.66 LIG 0.17  C 
ATOM     36 OD2  ASP D 174      89.489  43.140  25.382  1.00 62.95 LIG-0.65  OA
ATOM     37 OD1  ASP D 174      89.009  44.251  23.540  1.00 63.24 LIG-0.65  OA
ENDBRANCH 34 35
ENDBRANCH 32 34
ENDBRANCH 30 32
ENDBRANCH 23 28
ENDBRANCH 1 23
TORSDOF 12
ENDMDL
MODEL 24
USER: ADFR SOLUTION from run 23
USER: SCORE 14.701828 LL:  -3.196 LR: -11.558 RR:   0.000 FEB:  -7.978
USER: RMSD 7.178053
USER: SEED 22
USER: STATUS no improvement in best in 8 clusters for 5 generations
USER: GENES 14
USER: genes 0 Translation |==|  0.42416 0.44352 0.37232
USER: genes 1 Rotation |==|  0.60418 0.06671 0.60309 0.70194
USER: genes 2 Torsion [N]-CA--C-[O] |==|  0.60208
USER: genes 3 Torsion [C]-N--CA-[CB] |==|  0.26024
USER: genes 4 Torsion [N]-CA--CB-[CG] |==|  0.65041
USER: genes 5 Torsion [CA]-CB--CG-[CD2] |==|  0.48768
USER: genes 6 Torsion [N]-CA--C-[O] |==|  0.12679
USER: genes 7 Torsion [N]-C--CA-[N] |==|  0.88418
USER: genes 8 Torsion [C]-CA--CB-[CG2] |==|  0.80714
USER: genes 9 Torsion [CA]-CB--CG1-[CD1] |==|  0.74680
USER: genes 10 Torsion [C]-CA--N-[C] |==|  0.83279
USER: genes 11 Torsion [N]-C--CA-[N] |==|  0.62387
USER: genes 12 Torsion [C]-CA--CB-[CG] |==|  0.59349
USER: genes 13 Torsion [CA]-CB--CG-[OD2] |==|  0.16328
ROOT
ATOM      1  C   ILE D 175      84.605  43.409  28.454  1.00 46.12 LIG 0.24  C 
ATOM      2 O    ILE D 175      84.144  43.451  29.598  1.00 42.41 LIG-0.27  OA
ATOM      3  N   PRO D 176      85.444  42.433  28.054  1.00 41.83 LIG-0.34  N 
ATOM      4  CA  PRO D 176      85.712  41.276  28.911  1.00 39.90 LIG 0.18  C 
ATOM      5  CB  PRO D 176      86.118  40.216  27.891  1.00 38.91 LIG 0.04  C 
ATOM      6  CG  PRO D 176      86.882  41.001  26.875  1.00 40.22 LIG 0.02  C 
ATOM      7  CD  PRO D 176      86.231  42.363  26.808  1.00 41.02 LIG 0.13  C 
ENDROOT
BRANCH 4 8
ATOM      8  C   PRO D 176      86.832  41.506  29.944  1.00 41.09 LIG 0.24  C 
ATOM      9  N   PHE D 177      86.908  42.718  30.486  1.00 41.46 LIG-0.34  N 
ATOM     10 H    PHE D 177      86.431  43.386  30.231  1.00 41.46 LIG 0.16  HD
ATOM     11 O    PRO D 176      87.618  40.592  30.239  1.00 40.08 LIG-0.27  OA
BRANCH 9 12
ATOM     12  CA  PHE D 177      87.826  43.017  31.580  1.00 42.13 LIG 0.19  C 
BRANCH 12 13
ATOM     13  CB  PHE D 177      89.151  43.576  31.045  1.00 40.75 LIG 0.07  C 
BRANCH 13 14
ATOM     14  CG  PHE D 177      90.369  42.831  31.522  1.00 38.35 LIG-0.06  A 
ATOM     15  CD1 PHE D 177      90.251  41.778  32.425  1.00 38.94 LIG 0.01  A 
ATOM     16  CE1 PHE D 177      91.371  41.089  32.861  1.00 37.83 LIG 0.00  A 
ATOM     17  CZ  PHE D 177      92.622  41.436  32.386  1.00 37.53 LIG 0.00  A 
ATOM     18  CE2 PHE D 177      92.754  42.473  31.479  1.00 36.58 LIG 0.00  A 
ATOM     19  CD2 PHE D 177      91.631  43.164  31.050  1.00 37.89 LIG 0.01  A 
ENDBRANCH 13 14
ENDBRANCH 12 13
BRANCH 12 20
ATOM     20  C   PHE D 177      87.177  44.001  32.540  1.00 42.35 LIG 0.20  C 
ATOM     21 OXT  PHE D 177      87.795  44.974  32.956  1.00 44.55 LIG-0.65  OA
ATOM     22 O    PHE D 177      86.014  43.845  32.915  1.00 42.35 LIG-0.65  OA
ENDBRANCH 12 20
ENDBRANCH 9 12
ENDBRANCH 4 8
BRANCH 1 23
ATOM     23  CA  ILE D 175      84.210  44.481  27.414  1.00 50.15 LIG 0.18  C 
BRANCH 23 24
ATOM     24  CB  ILE D 175      83.053  44.016  26.491  1.00 52.56 LIG 0.01  C 
ATOM     25  CG2 ILE D 175      83.493  42.906  25.538  1.00 53.60 LIG 0.01  C 
BRANCH 24 26
ATOM     26  CG1 ILE D 175      81.840  43.573  27.324  1.00 53.43 LIG 0.00  C 
ATOM     27  CD1 ILE D 175      81.837  42.096  27.665  1.00 54.83 LIG 0.01  C 
ENDBRANCH 24 26
ENDBRANCH 23 24
BRANCH 23 28
ATOM     28  N   ILE D 175      85.410  44.836  26.657  1.00 52.48 LIG-0.34  N 
ATOM     29 H    ILE D 175      85.358  44.688  25.812  1.00 52.48 LIG 0.16  HD
ATOM     30  C   ASP D 174      86.480  45.347  27.265  1.00 53.52 LIG 0.26  C 
ATOM     31 O    ASP D 174      86.449  45.767  28.421  1.00 50.42 LIG-0.27  OA
BRANCH 30 32
ATOM     32  CA  ASP D 174      87.771  45.458  26.450  1.00 56.25 LIG 0.41  C 
ATOM     33  N   ASP D 174      89.004  45.009  27.175  1.00 55.41 LIG 0.61  N 
BRANCH 32 34
ATOM     34  CB  ASP D 174      87.584  44.687  25.147  1.00 59.33 LIG 0.16  C 
BRANCH 34 35
ATOM     35  CG  ASP D 174      88.874  44.038  24.676  1.00 62.66 LIG 0.17  C 
ATOM     36 OD2  ASP D 174      89.450  43.218  25.428  1.00 62.95 LIG-0.65  OA
ATOM     37 OD1  ASP D 174      89.299  44.341  23.537  1.00 63.24 LIG-0.65  OA
ENDBRANCH 34 35
ENDBRANCH 32 34
ENDBRANCH 30 32
ENDBRANCH 23 28
ENDBRANCH 1 23
TORSDOF 12
ENDMDL
MODEL 25
USER: ADFR SOLUTION from run 52
USER: SCORE 15.404928 LL:  -4.202 LR: -11.548 RR:   0.000 FEB:  -7.969
USER: RMSD 6.849715
USER: SEED 51
USER: STATUS no improvement in best in 9 clusters for 5 generations
USER: GENES 14
USER: genes 0 Translation |==|  0.43641 0.38810 0.44079
USER: genes 1 Rotation |==|  0.57333 0.45532 0.97989 0.61104
USER: genes 2 Torsion [N]-CA--C-[O] |==|  0.91483
USER: genes 3 Torsion [C]-N--CA-[CB] |==|  0.27900
USER: genes 4 Torsion [N]-CA--CB-[CG] |==|  0.87545
USER: genes 5 Torsion [CA]-CB--CG-[CD2] |==|  0.74778
USER: genes 6 Torsion [N]-CA--C-[O] |==|  0.07958
USER: genes 7 Torsion [N]-C--CA-[N] |==|  0.84685
USER: genes 8 Torsion [C]-CA--CB-[CG2] |==|  0.69477
USER: genes 9 Torsion [CA]-CB--CG1-[CD1] |==|  0.22855
USER: genes 10 Torsion [C]-CA--N-[C] |==|  0.83889
USER: genes 11 Torsion [N]-C--CA-[N] |==|  0.38645
USER: genes 12 Torsion [C]-CA--CB-[CG] |==|  0.55518
USER: genes 13 Torsion [CA]-CB--CG-[OD2] |==|  0.18766
ROOT
ATOM      1  C   ILE D 175      84.789  42.495  29.841  1.00 46.12 LIG 0.24  C 
ATOM      2 O    ILE D 175      83.664  43.002  29.820  1.00 42.41 LIG-0.27  OA
ATOM      3  N   PRO D 176      85.907  43.233  29.987  1.00 41.83 LIG-0.34  N 
ATOM      4  CA  PRO D 176      85.827  44.661  30.303  1.00 39.90 LIG 0.18  C 
ATOM      5  CB  PRO D 176      87.169  44.909  30.985  1.00 38.91 LIG 0.04  C 
ATOM      6  CG  PRO D 176      88.103  44.027  30.223  1.00 40.22 LIG 0.02  C 
ATOM      7  CD  PRO D 176      87.310  42.804  29.825  1.00 41.02 LIG 0.13  C 
ENDROOT
BRANCH 4 8
ATOM      8  C   PRO D 176      85.659  45.567  29.068  1.00 41.09 LIG 0.24  C 
ATOM      9  N   PHE D 177      84.978  46.696  29.240  1.00 41.46 LIG-0.34  N 
ATOM     10 H    PHE D 177      84.562  46.897  29.965  1.00 41.46 LIG 0.16  HD
ATOM     11 O    PRO D 176      86.142  45.239  27.973  1.00 40.08 LIG-0.27  OA
BRANCH 9 12
ATOM     12  CA  PHE D 177      84.878  47.703  28.190  1.00 42.13 LIG 0.19  C 
BRANCH 12 13
ATOM     13  CB  PHE D 177      83.532  47.602  27.461  1.00 40.75 LIG 0.07  C 
BRANCH 13 14
ATOM     14  CG  PHE D 177      83.128  46.196  27.109  1.00 38.35 LIG-0.06  A 
ATOM     15  CD1 PHE D 177      82.367  45.432  27.990  1.00 38.94 LIG 0.01  A 
ATOM     16  CE1 PHE D 177      81.991  44.139  27.665  1.00 37.83 LIG 0.00  A 
ATOM     17  CZ  PHE D 177      82.360  43.599  26.447  1.00 37.53 LIG 0.00  A 
ATOM     18  CE2 PHE D 177      83.106  44.350  25.555  1.00 36.58 LIG 0.00  A 
ATOM     19  CD2 PHE D 177      83.485  45.641  25.887  1.00 37.89 LIG 0.01  A 
ENDBRANCH 13 14
ENDBRANCH 12 13
BRANCH 12 20
ATOM     20  C   PHE D 177      85.060  49.089  28.789  1.00 42.35 LIG 0.20  C 
ATOM     21 OXT  PHE D 177      84.526  50.068  28.282  1.00 44.55 LIG-0.65  OA
ATOM     22 O    PHE D 177      85.743  49.255  29.800  1.00 42.35 LIG-0.65  OA
ENDBRANCH 12 20
ENDBRANCH 9 12
ENDBRANCH 4 8
BRANCH 1 23
ATOM     23  CA  ILE D 175      84.956  40.963  29.723  1.00 50.15 LIG 0.18  C 
BRANCH 23 24
ATOM     24  CB  ILE D 175      85.428  40.312  31.050  1.00 52.56 LIG 0.01  C 
ATOM     25  CG2 ILE D 175      86.867  39.806  30.959  1.00 53.60 LIG 0.01  C 
BRANCH 24 26
ATOM     26  CG1 ILE D 175      85.266  41.293  32.222  1.00 53.43 LIG 0.00  C 
ATOM     27  CD1 ILE D 175      83.863  41.340  32.793  1.00 54.83 LIG 0.01  C 
ENDBRANCH 24 26
ENDBRANCH 23 24
BRANCH 23 28
ATOM     28  N   ILE D 175      85.878  40.696  28.619  1.00 52.48 LIG-0.34  N 
ATOM     29 H    ILE D 175      86.579  40.247  28.838  1.00 52.48 LIG 0.16  HD
ATOM     30  C   ASP D 174      85.620  41.130  27.387  1.00 53.52 LIG 0.26  C 
ATOM     31 O    ASP D 174      84.516  41.558  27.052  1.00 50.42 LIG-0.27  OA
BRANCH 30 32
ATOM     32  CA  ASP D 174      86.741  41.027  26.350  1.00 56.25 LIG 0.41  C 
ATOM     33  N   ASP D 174      86.292  40.586  24.990  1.00 55.41 LIG 0.61  N 
BRANCH 32 34
ATOM     34  CB  ASP D 174      87.460  42.371  26.286  1.00 59.33 LIG 0.16  C 
BRANCH 34 35
ATOM     35  CG  ASP D 174      88.242  42.540  24.995  1.00 62.66 LIG 0.17  C 
ATOM     36 OD2  ASP D 174      87.615  42.643  23.916  1.00 62.95 LIG-0.65  OA
ATOM     37 OD1  ASP D 174      89.492  42.589  25.071  1.00 63.24 LIG-0.65  OA
ENDBRANCH 34 35
ENDBRANCH 32 34
ENDBRANCH 30 32
ENDBRANCH 23 28
ENDBRANCH 1 23
TORSDOF 12
ENDMDL
MODEL 26
USER: ADFR SOLUTION from run 96
USER: SCORE 15.287180 LL:  -3.932 LR: -11.539 RR:   0.000 FEB:  -7.959
USER: RMSD 7.705816
USER: SEED 95
USER: STATUS no improvement in best in 7 clusters for 5 generations
USER: GENES 14
USER: genes 0 Translation |==|  0.57494 0.41292 0.29141
USER: genes 1 Rotation |==|  0.97757 0.51950 0.64672 0.50467
USER: genes 2 Torsion [N]-CA--C-[O] |==|  0.19093
USER: genes 3 Torsion [C]-N--CA-[CB] |==|  0.83719
USER: genes 4 Torsion [N]-CA--CB-[CG] |==|  0.89532
USER: genes 5 Torsion [CA]-CB--CG-[CD2] |==|  0.39363
USER: genes 6 Torsion [N]-CA--C-[O] |==|  0.65398
USER: genes 7 Torsion [N]-C--CA-[N] |==|  0.30603
USER: genes 8 Torsion [C]-CA--CB-[CG2] |==|  0.82646
USER: genes 9 Torsion [CA]-CB--CG1-[CD1] |==|  0.68147
USER: genes 10 Torsion [C]-CA--N-[C] |==|  0.71731
USER: genes 11 Torsion [N]-C--CA-[N] |==|  0.38629
USER: genes 12 Torsion [C]-CA--CB-[CG] |==|  0.03711
USER: genes 13 Torsion [CA]-CB--CG-[OD2] |==|  0.70429
ROOT
ATOM      1  C   ILE D 175      86.867  42.904  26.816  1.00 46.12 LIG 0.24  C 
ATOM      2 O    ILE D 175      87.599  42.933  27.810  1.00 42.41 LIG-0.27  OA
ATOM      3  N   PRO D 176      86.408  44.027  26.230  1.00 41.83 LIG-0.34  N 
ATOM      4  CA  PRO D 176      86.898  45.344  26.643  1.00 39.90 LIG 0.18  C 
ATOM      5  CB  PRO D 176      86.659  46.178  25.389  1.00 38.91 LIG 0.04  C 
ATOM      6  CG  PRO D 176      85.376  45.627  24.857  1.00 40.22 LIG 0.02  C 
ATOM      7  CD  PRO D 176      85.375  44.152  25.183  1.00 41.02 LIG 0.13  C 
ENDROOT
BRANCH 4 8
ATOM      8  C   PRO D 176      86.153  45.939  27.853  1.00 41.09 LIG 0.24  C 
ATOM      9  N   PHE D 177      85.393  47.006  27.625  1.00 41.46 LIG-0.34  N 
ATOM     10 H    PHE D 177      85.367  47.422  26.873  1.00 41.46 LIG 0.16  HD
ATOM     11 O    PRO D 176      86.272  45.433  28.981  1.00 40.08 LIG-0.27  OA
BRANCH 9 12
ATOM     12  CA  PHE D 177      84.525  47.568  28.654  1.00 42.13 LIG 0.19  C 
BRANCH 12 13
ATOM     13  CB  PHE D 177      83.514  46.525  29.147  1.00 40.75 LIG 0.07  C 
BRANCH 13 14
ATOM     14  CG  PHE D 177      82.986  45.622  28.066  1.00 38.35 LIG-0.06  A 
ATOM     15  CD1 PHE D 177      82.738  46.113  26.786  1.00 38.94 LIG 0.01  A 
ATOM     16  CE1 PHE D 177      82.256  45.280  25.789  1.00 37.83 LIG 0.00  A 
ATOM     17  CZ  PHE D 177      82.031  43.943  26.056  1.00 37.53 LIG 0.00  A 
ATOM     18  CE2 PHE D 177      82.285  43.437  27.319  1.00 36.58 LIG 0.00  A 
ATOM     19  CD2 PHE D 177      82.760  44.275  28.316  1.00 37.89 LIG 0.01  A 
ENDBRANCH 13 14
ENDBRANCH 12 13
BRANCH 12 20
ATOM     20  C   PHE D 177      85.367  48.087  29.809  1.00 42.35 LIG 0.20  C 
ATOM     21 OXT  PHE D 177      86.255  48.910  29.619  1.00 44.55 LIG-0.65  OA
ATOM     22 O    PHE D 177      85.170  47.696  30.960  1.00 42.35 LIG-0.65  OA
ENDBRANCH 12 20
ENDBRANCH 9 12
ENDBRANCH 4 8
BRANCH 1 23
ATOM     23  CA  ILE D 175      86.465  41.553  26.183  1.00 50.15 LIG 0.18  C 
BRANCH 23 24
ATOM     24  CB  ILE D 175      85.796  40.594  27.201  1.00 52.56 LIG 0.01  C 
ATOM     25  CG2 ILE D 175      86.742  40.219  28.341  1.00 53.60 LIG 0.01  C 
BRANCH 24 26
ATOM     26  CG1 ILE D 175      84.496  41.206  27.748  1.00 53.43 LIG 0.00  C 
ATOM     27  CD1 ILE D 175      84.543  41.522  29.229  1.00 54.83 LIG 0.01  C 
ENDBRANCH 24 26
ENDBRANCH 23 24
BRANCH 23 28
ATOM     28  N   ILE D 175      87.662  40.967  25.578  1.00 52.48 LIG-0.34  N 
ATOM     29 H    ILE D 175      88.199  40.594  26.136  1.00 52.48 LIG 0.16  HD
ATOM     30  C   ASP D 174      87.868  41.028  24.263  1.00 53.52 LIG 0.26  C 
ATOM     31 O    ASP D 174      86.987  41.351  23.468  1.00 50.42 LIG-0.27  OA
BRANCH 30 32
ATOM     32  CA  ASP D 174      89.248  40.617  23.743  1.00 56.25 LIG 0.41  C 
ATOM     33  N   ASP D 174      89.221  39.804  22.485  1.00 55.41 LIG 0.61  N 
BRANCH 32 34
ATOM     34  CB  ASP D 174      90.090  41.876  23.569  1.00 59.33 LIG 0.16  C 
BRANCH 34 35
ATOM     35  CG  ASP D 174      89.463  43.082  24.248  1.00 62.66 LIG 0.17  C 
ATOM     36 OD2  ASP D 174      88.928  43.966  23.540  1.00 62.95 LIG-0.65  OA
ATOM     37 OD1  ASP D 174      89.492  43.129  25.499  1.00 63.24 LIG-0.65  OA
ENDBRANCH 34 35
ENDBRANCH 32 34
ENDBRANCH 30 32
ENDBRANCH 23 28
ENDBRANCH 1 23
TORSDOF 12
ENDMDL
MODEL 27
USER: ADFR SOLUTION from run 13
USER: SCORE 14.750241 LL:  -3.618 LR: -11.520 RR:   0.000 FEB:  -7.941
USER: RMSD 5.288133
USER: SEED 534557
USER: STATUS no improvement in best in 6 clusters for 5 generations
USER: GENES 14
USER: genes 0 Translation |==|  0.40978 0.48127 0.27326
USER: genes 1 Rotation |==|  0.86614 0.32287 0.22616 0.59786
USER: genes 2 Torsion [N]-CA--C-[O] |==|  0.58563
USER: genes 3 Torsion [C]-N--CA-[CB] |==|  0.47183
USER: genes 4 Torsion [N]-CA--CB-[CG] |==|  0.09915
USER: genes 5 Torsion [CA]-CB--CG-[CD2] |==|  0.13001
USER: genes 6 Torsion [N]-CA--C-[O] |==|  0.16803
USER: genes 7 Torsion [N]-C--CA-[N] |==|  0.86454
USER: genes 8 Torsion [C]-CA--CB-[CG2] |==|  0.96608
USER: genes 9 Torsion [CA]-CB--CG1-[CD1] |==|  0.00268
USER: genes 10 Torsion [C]-CA--N-[C] |==|  0.68572
USER: genes 11 Torsion [N]-C--CA-[N] |==|  0.06923
USER: genes 12 Torsion [C]-CA--CB-[CG] |==|  0.51576
USER: genes 13 Torsion [CA]-CB--CG-[OD2] |==|  0.63057
ROOT
ATOM      1  C   ILE D 175      84.390  44.032  26.449  1.00 46.12 LIG 0.24  C 
ATOM      2 O    ILE D 175      84.932  43.097  25.853  1.00 42.41 LIG-0.27  OA
ATOM      3  N   PRO D 176      84.436  45.298  25.990  1.00 41.83 LIG-0.34  N 
ATOM      4  CA  PRO D 176      84.987  45.597  24.666  1.00 39.90 LIG 0.18  C 
ATOM      5  CB  PRO D 176      84.283  46.905  24.319  1.00 38.91 LIG 0.04  C 
ATOM      6  CG  PRO D 176      84.207  47.607  25.635  1.00 40.22 LIG 0.02  C 
ATOM      7  CD  PRO D 176      84.025  46.534  26.683  1.00 41.02 LIG 0.13  C 
ENDROOT
BRANCH 4 8
ATOM      8  C   PRO D 176      86.518  45.773  24.650  1.00 41.09 LIG 0.24  C 
ATOM      9  N   PHE D 177      87.212  45.074  25.543  1.00 41.46 LIG-0.34  N 
ATOM     10 H    PHE D 177      86.852  44.608  26.170  1.00 41.46 LIG 0.16  HD
ATOM     11 O    PRO D 176      87.058  46.539  23.836  1.00 40.08 LIG-0.27  OA
BRANCH 9 12
ATOM     12  CA  PHE D 177      88.670  45.040  25.531  1.00 42.13 LIG 0.19  C 
BRANCH 12 13
ATOM     13  CB  PHE D 177      89.213  44.375  26.803  1.00 40.75 LIG 0.07  C 
BRANCH 13 14
ATOM     14  CG  PHE D 177      88.367  43.238  27.309  1.00 38.35 LIG-0.06  A 
ATOM     15  CD1 PHE D 177      88.008  43.160  28.653  1.00 38.94 LIG 0.01  A 
ATOM     16  CE1 PHE D 177      87.226  42.116  29.118  1.00 37.83 LIG 0.00  A 
ATOM     17  CZ  PHE D 177      86.779  41.144  28.242  1.00 37.53 LIG 0.00  A 
ATOM     18  CE2 PHE D 177      87.117  41.215  26.901  1.00 36.58 LIG 0.00  A 
ATOM     19  CD2 PHE D 177      87.905  42.258  26.441  1.00 37.89 LIG 0.01  A 
ENDBRANCH 13 14
ENDBRANCH 12 13
BRANCH 12 20
ATOM     20  C   PHE D 177      89.157  44.305  24.293  1.00 42.35 LIG 0.20  C 
ATOM     21 OXT  PHE D 177      89.830  43.286  24.390  1.00 44.55 LIG-0.65  OA
ATOM     22 O    PHE D 177      88.881  44.716  23.165  1.00 42.35 LIG-0.65  OA
ENDBRANCH 12 20
ENDBRANCH 9 12
ENDBRANCH 4 8
BRANCH 1 23
ATOM     23  CA  ILE D 175      83.603  43.774  27.753  1.00 50.15 LIG 0.18  C 
BRANCH 23 24
ATOM     24  CB  ILE D 175      82.067  43.799  27.537  1.00 52.56 LIG 0.01  C 
ATOM     25  CG2 ILE D 175      81.692  44.362  26.166  1.00 53.60 LIG 0.01  C 
BRANCH 24 26
ATOM     26  CG1 ILE D 175      81.469  42.398  27.735  1.00 53.43 LIG 0.00  C 
ATOM     27  CD1 ILE D 175      82.490  41.343  28.111  1.00 54.83 LIG 0.01  C 
ENDBRANCH 24 26
ENDBRANCH 23 24
BRANCH 23 28
ATOM     28  N   ILE D 175      84.036  44.762  28.741  1.00 52.48 LIG-0.34  N 
ATOM     29 H    ILE D 175      83.821  45.574  28.556  1.00 52.48 LIG 0.16  HD
ATOM     30  C   ASP D 174      84.710  44.395  29.831  1.00 53.52 LIG 0.26  C 
ATOM     31 O    ASP D 174      84.799  43.223  30.192  1.00 50.42 LIG-0.27  OA
BRANCH 30 32
ATOM     32  CA  ASP D 174      85.339  45.502  30.681  1.00 56.25 LIG 0.41  C 
ATOM     33  N   ASP D 174      84.671  46.838  30.554  1.00 55.41 LIG 0.61  N 
BRANCH 32 34
ATOM     34  CB  ASP D 174      85.368  45.034  32.132  1.00 59.33 LIG 0.16  C 
BRANCH 34 35
ATOM     35  CG  ASP D 174      85.850  46.123  33.075  1.00 62.66 LIG 0.17  C 
ATOM     36 OD2  ASP D 174      86.716  45.841  33.934  1.00 62.95 LIG-0.65  OA
ATOM     37 OD1  ASP D 174      85.368  47.271  32.937  1.00 63.24 LIG-0.65  OA
ENDBRANCH 34 35
ENDBRANCH 32 34
ENDBRANCH 30 32
ENDBRANCH 23 28
ENDBRANCH 1 23
TORSDOF 12
ENDMDL
MODEL 28
USER: ADFR SOLUTION from run 13
USER: SCORE 15.925322 LL:  -4.430 LR: -11.508 RR:   0.000 FEB:  -7.928
USER: RMSD 6.654229
USER: SEED 534557
USER: STATUS no improvement in best in 6 clusters for 5 generations
USER: GENES 14
USER: genes 0 Translation |==|  0.43655 0.59792 0.28196
USER: genes 1 Rotation |==|  0.24600 0.56433 0.68894 0.88164
USER: genes 2 Torsion [N]-CA--C-[O] |==|  0.65486
USER: genes 3 Torsion [C]-N--CA-[CB] |==|  0.27084
USER: genes 4 Torsion [N]-CA--CB-[CG] |==|  0.86961
USER: genes 5 Torsion [CA]-CB--CG-[CD2] |==|  0.27352
USER: genes 6 Torsion [N]-CA--C-[O] |==|  0.87493
USER: genes 7 Torsion [N]-C--CA-[N] |==|  0.39117
USER: genes 8 Torsion [C]-CA--CB-[CG2] |==|  0.97261
USER: genes 9 Torsion [CA]-CB--CG1-[CD1] |==|  0.66476
USER: genes 10 Torsion [C]-CA--N-[C] |==|  0.80855
USER: genes 11 Torsion [N]-C--CA-[N] |==|  0.97036
USER: genes 12 Torsion [C]-CA--CB-[CG] |==|  0.70070
USER: genes 13 Torsion [CA]-CB--CG-[OD2] |==|  0.82876
ROOT
ATOM      1  C   ILE D 175      84.791  45.957  26.625  1.00 46.12 LIG 0.24  C 
ATOM      2 O    ILE D 175      85.616  46.128  25.723  1.00 42.41 LIG-0.27  OA
ATOM      3  N   PRO D 176      85.159  45.652  27.885  1.00 41.83 LIG-0.34  N 
ATOM      4  CA  PRO D 176      86.568  45.680  28.284  1.00 39.90 LIG 0.18  C 
ATOM      5  CB  PRO D 176      86.466  45.922  29.786  1.00 38.91 LIG 0.04  C 
ATOM      6  CG  PRO D 176      85.255  45.138  30.173  1.00 40.22 LIG 0.02  C 
ATOM      7  CD  PRO D 176      84.300  45.219  29.005  1.00 41.02 LIG 0.13  C 
ENDROOT
BRANCH 4 8
ATOM      8  C   PRO D 176      87.329  44.374  27.985  1.00 41.09 LIG 0.24  C 
ATOM      9  N   PHE D 177      87.310  43.942  26.728  1.00 41.46 LIG-0.34  N 
ATOM     10 H    PHE D 177      86.833  44.299  26.107  1.00 41.46 LIG 0.16  HD
ATOM     11 O    PRO D 176      87.923  43.767  28.890  1.00 40.08 LIG-0.27  OA
BRANCH 9 12
ATOM     12  CA  PHE D 177      88.112  42.805  26.290  1.00 42.13 LIG 0.19  C 
BRANCH 12 13
ATOM     13  CB  PHE D 177      87.275  41.520  26.271  1.00 40.75 LIG 0.07  C 
BRANCH 13 14
ATOM     14  CG  PHE D 177      86.451  41.304  27.511  1.00 38.35 LIG-0.06  A 
ATOM     15  CD1 PHE D 177      87.027  40.785  28.667  1.00 38.94 LIG 0.01  A 
ATOM     16  CE1 PHE D 177      86.270  40.591  29.811  1.00 37.83 LIG 0.00  A 
ATOM     17  CZ  PHE D 177      84.930  40.929  29.817  1.00 37.53 LIG 0.00  A 
ATOM     18  CE2 PHE D 177      84.345  41.458  28.679  1.00 36.58 LIG 0.00  A 
ATOM     19  CD2 PHE D 177      85.105  41.645  27.535  1.00 37.89 LIG 0.01  A 
ENDBRANCH 13 14
ENDBRANCH 12 13
BRANCH 12 20
ATOM     20  C   PHE D 177      88.695  43.086  24.914  1.00 42.35 LIG 0.20  C 
ATOM     21 OXT  PHE D 177      89.868  42.835  24.665  1.00 44.55 LIG-0.65  OA
ATOM     22 O    PHE D 177      87.999  43.568  24.020  1.00 42.35 LIG-0.65  OA
ENDBRANCH 12 20
ENDBRANCH 9 12
ENDBRANCH 4 8
BRANCH 1 23
ATOM     23  CA  ILE D 175      83.281  46.114  26.340  1.00 50.15 LIG 0.18  C 
BRANCH 23 24
ATOM     24  CB  ILE D 175      82.638  44.809  25.801  1.00 52.56 LIG 0.01  C 
ATOM     25  CG2 ILE D 175      83.689  43.755  25.452  1.00 53.60 LIG 0.01  C 
BRANCH 24 26
ATOM     26  CG1 ILE D 175      81.618  44.252  26.806  1.00 53.43 LIG 0.00  C 
ATOM     27  CD1 ILE D 175      81.936  42.851  27.290  1.00 54.83 LIG 0.01  C 
ENDBRANCH 24 26
ENDBRANCH 23 24
BRANCH 23 28
ATOM     28  N   ILE D 175      83.112  47.234  25.415  1.00 52.48 LIG-0.34  N 
ATOM     29 H    ILE D 175      82.852  47.012  24.626  1.00 52.48 LIG 0.16  HD
ATOM     30  C   ASP D 174      83.353  48.486  25.801  1.00 53.52 LIG 0.26  C 
ATOM     31 O    ASP D 174      83.493  48.802  26.982  1.00 50.42 LIG-0.27  OA
BRANCH 30 32
ATOM     32  CA  ASP D 174      83.395  49.566  24.716  1.00 56.25 LIG 0.41  C 
ATOM     33  N   ASP D 174      83.405  49.037  23.314  1.00 55.41 LIG 0.61  N 
BRANCH 32 34
ATOM     34  CB  ASP D 174      82.224  50.517  24.940  1.00 59.33 LIG 0.16  C 
BRANCH 34 35
ATOM     35  CG  ASP D 174      81.136  50.341  23.895  1.00 62.66 LIG 0.17  C 
ATOM     36 OD2  ASP D 174      81.411  50.556  22.693  1.00 62.95 LIG-0.65  OA
ATOM     37 OD1  ASP D 174      80.006  49.966  24.285  1.00 63.24 LIG-0.65  OA
ENDBRANCH 34 35
ENDBRANCH 32 34
ENDBRANCH 30 32
ENDBRANCH 23 28
ENDBRANCH 1 23
TORSDOF 12
ENDMDL
MODEL 29
USER: ADFR SOLUTION from run 116
USER: SCORE 14.788416 LL:  -3.696 LR: -11.498 RR:   0.000 FEB:  -7.919
USER: RMSD 4.424462
USER: SEED 115
USER: STATUS no improvement in best in 11 clusters for 5 generations
USER: GENES 14
USER: genes 0 Translation |==|  0.36250 0.51057 0.31058
USER: genes 1 Rotation |==|  0.29585 0.85144 0.79112 0.50770
USER: genes 2 Torsion [N]-CA--C-[O] |==|  0.37200
USER: genes 3 Torsion [C]-N--CA-[CB] |==|  0.87085
USER: genes 4 Torsion [N]-CA--CB-[CG] |==|  0.82349
USER: genes 5 Torsion [CA]-CB--CG-[CD2] |==|  0.76666
USER: genes 6 Torsion [N]-CA--C-[O] |==|  0.28061
USER: genes 7 Torsion [N]-C--CA-[N] |==|  0.84286
USER: genes 8 Torsion [C]-CA--CB-[CG2] |==|  0.68243
USER: genes 9 Torsion [CA]-CB--CG1-[CD1] |==|  0.67253
USER: genes 10 Torsion [C]-CA--N-[C] |==|  0.72778
USER: genes 11 Torsion [N]-C--CA-[N] |==|  0.78741
USER: genes 12 Torsion [C]-CA--CB-[CG] |==|  0.23868
USER: genes 13 Torsion [CA]-CB--CG-[OD2] |==|  0.63159
ROOT
ATOM      1  C   ILE D 175      83.680  44.515  27.204  1.00 46.12 LIG 0.24  C 
ATOM      2 O    ILE D 175      83.057  43.526  26.809  1.00 42.41 LIG-0.27  OA
ATOM      3  N   PRO D 176      84.681  45.066  26.489  1.00 41.83 LIG-0.34  N 
ATOM      4  CA  PRO D 176      84.962  44.618  25.123  1.00 39.90 LIG 0.18  C 
ATOM      5  CB  PRO D 176      85.637  45.846  24.521  1.00 38.91 LIG 0.04  C 
ATOM      6  CG  PRO D 176      86.438  46.384  25.661  1.00 40.22 LIG 0.02  C 
ATOM      7  CD  PRO D 176      85.643  46.102  26.915  1.00 41.02 LIG 0.13  C 
ENDROOT
BRANCH 4 8
ATOM      8  C   PRO D 176      85.884  43.386  25.044  1.00 41.09 LIG 0.24  C 
ATOM      9  N   PHE D 177      86.974  43.403  25.804  1.00 41.46 LIG-0.34  N 
ATOM     10 H    PHE D 177      87.230  44.087  26.259  1.00 41.46 LIG 0.16  HD
ATOM     11 O    PRO D 176      85.606  42.434  24.297  1.00 40.08 LIG-0.27  OA
BRANCH 9 12
ATOM     12  CA  PHE D 177      87.845  42.239  25.930  1.00 42.13 LIG 0.19  C 
BRANCH 12 13
ATOM     13  CB  PHE D 177      87.025  40.966  26.177  1.00 40.75 LIG 0.07  C 
BRANCH 13 14
ATOM     14  CG  PHE D 177      86.256  40.973  27.470  1.00 38.35 LIG-0.06  A 
ATOM     15  CD1 PHE D 177      84.909  41.328  27.496  1.00 38.94 LIG 0.01  A 
ATOM     16  CE1 PHE D 177      84.200  41.330  28.686  1.00 37.83 LIG 0.00  A 
ATOM     17  CZ  PHE D 177      84.824  40.961  29.862  1.00 37.53 LIG 0.00  A 
ATOM     18  CE2 PHE D 177      86.159  40.593  29.851  1.00 36.58 LIG 0.00  A 
ATOM     19  CD2 PHE D 177      86.867  40.599  28.659  1.00 37.89 LIG 0.01  A 
ENDBRANCH 13 14
ENDBRANCH 12 13
BRANCH 12 20
ATOM     20  C   PHE D 177      88.694  42.095  24.677  1.00 42.35 LIG 0.20  C 
ATOM     21 OXT  PHE D 177      88.226  41.612  23.652  1.00 44.55 LIG-0.65  OA
ATOM     22 O    PHE D 177      89.868  42.466  24.663  1.00 42.35 LIG-0.65  OA
ENDBRANCH 12 20
ENDBRANCH 9 12
ENDBRANCH 4 8
BRANCH 1 23
ATOM     23  CA  ILE D 175      83.312  45.185  28.547  1.00 50.15 LIG 0.18  C 
BRANCH 23 24
ATOM     24  CB  ILE D 175      82.684  46.591  28.358  1.00 52.56 LIG 0.01  C 
ATOM     25  CG2 ILE D 175      83.575  47.696  28.925  1.00 53.60 LIG 0.01  C 
BRANCH 24 26
ATOM     26  CG1 ILE D 175      82.368  46.849  26.877  1.00 53.43 LIG 0.00  C 
ATOM     27  CD1 ILE D 175      83.129  48.016  26.282  1.00 54.83 LIG 0.01  C 
ENDBRANCH 24 26
ENDBRANCH 23 24
BRANCH 23 28
ATOM     28  N   ILE D 175      84.517  45.226  29.375  1.00 52.48 LIG-0.34  N 
ATOM     29 H    ILE D 175      85.049  45.879  29.202  1.00 52.48 LIG 0.16  HD
ATOM     30  C   ASP D 174      84.740  44.305  30.311  1.00 53.52 LIG 0.26  C 
ATOM     31 O    ASP D 174      83.868  43.528  30.698  1.00 50.42 LIG-0.27  OA
BRANCH 30 32
ATOM     32  CA  ASP D 174      86.127  44.273  30.957  1.00 56.25 LIG 0.41  C 
ATOM     33  N   ASP D 174      87.195  43.656  30.106  1.00 55.41 LIG 0.61  N 
BRANCH 32 34
ATOM     34  CB  ASP D 174      86.499  45.695  31.366  1.00 59.33 LIG 0.16  C 
BRANCH 34 35
ATOM     35  CG  ASP D 174      85.961  46.054  32.741  1.00 62.66 LIG 0.17  C 
ATOM     36 OD2  ASP D 174      85.369  47.147  32.893  1.00 62.95 LIG-0.65  OA
ATOM     37 OD1  ASP D 174      86.118  45.223  33.665  1.00 63.24 LIG-0.65  OA
ENDBRANCH 34 35
ENDBRANCH 32 34
ENDBRANCH 30 32
ENDBRANCH 23 28
ENDBRANCH 1 23
TORSDOF 12
ENDMDL
MODEL 30
USER: ADFR SOLUTION from run 114
USER: SCORE 15.609188 LL:  -4.129 LR: -11.503 RR:   0.000 FEB:  -7.924
USER: RMSD 5.968833
USER: SEED 113
USER: STATUS no improvement in best in 4 clusters for 5 generations
USER: GENES 14
USER: genes 0 Translation |==|  0.50497 0.54899 0.39790
USER: genes 1 Rotation |==|  0.19065 0.68274 0.45368 0.84462
USER: genes 2 Torsion [N]-CA--C-[O] |==|  0.72489
USER: genes 3 Torsion [C]-N--CA-[CB] |==|  0.28727
USER: genes 4 Torsion [N]-CA--CB-[CG] |==|  0.09681
USER: genes 5 Torsion [CA]-CB--CG-[CD2] |==|  0.12206
USER: genes 6 Torsion [N]-CA--C-[O] |==|  0.95133
USER: genes 7 Torsion [N]-C--CA-[N] |==|  0.41984
USER: genes 8 Torsion [C]-CA--CB-[CG2] |==|  0.25429
USER: genes 9 Torsion [CA]-CB--CG1-[CD1] |==|  0.34268
USER: genes 10 Torsion [C]-CA--N-[C] |==|  0.82043
USER: genes 11 Torsion [N]-C--CA-[N] |==|  0.48008
USER: genes 12 Torsion [C]-CA--CB-[CG] |==|  0.61131
USER: genes 13 Torsion [CA]-CB--CG-[OD2] |==|  0.85061
ROOT
ATOM      1  C   ILE D 175      85.818  45.149  28.972  1.00 46.12 LIG 0.24  C 
ATOM      2 O    ILE D 175      86.374  44.165  28.477  1.00 42.41 LIG-0.27  OA
ATOM      3  N   PRO D 176      85.901  45.435  30.287  1.00 41.83 LIG-0.34  N 
ATOM      4  CA  PRO D 176      86.804  44.684  31.162  1.00 39.90 LIG 0.18  C 
ATOM      5  CB  PRO D 176      87.061  45.684  32.284  1.00 38.91 LIG 0.04  C 
ATOM      6  CG  PRO D 176      85.742  46.370  32.434  1.00 40.22 LIG 0.02  C 
ATOM      7  CD  PRO D 176      85.135  46.437  31.052  1.00 41.02 LIG 0.13  C 
ENDROOT
BRANCH 4 8
ATOM      8  C   PRO D 176      86.200  43.378  31.713  1.00 41.09 LIG 0.24  C 
ATOM      9  N   PHE D 177      86.216  42.322  30.907  1.00 41.46 LIG-0.34  N 
ATOM     10 H    PHE D 177      86.461  42.353  30.083  1.00 41.46 LIG 0.16  HD
ATOM     11 O    PRO D 176      85.721  43.337  32.858  1.00 40.08 LIG-0.27  OA
BRANCH 9 12
ATOM     12  CA  PHE D 177      85.811  40.997  31.363  1.00 42.13 LIG 0.19  C 
BRANCH 12 13
ATOM     13  CB  PHE D 177      84.407  40.646  30.851  1.00 40.75 LIG 0.07  C 
BRANCH 13 14
ATOM     14  CG  PHE D 177      84.102  41.186  29.480  1.00 38.35 LIG-0.06  A 
ATOM     15  CD1 PHE D 177      82.885  41.808  29.214  1.00 38.94 LIG 0.01  A 
ATOM     16  CE1 PHE D 177      82.606  42.309  27.952  1.00 37.83 LIG 0.00  A 
ATOM     17  CZ  PHE D 177      83.547  42.207  26.946  1.00 37.53 LIG 0.00  A 
ATOM     18  CE2 PHE D 177      84.767  41.603  27.198  1.00 36.58 LIG 0.00  A 
ATOM     19  CD2 PHE D 177      85.040  41.097  28.459  1.00 37.89 LIG 0.01  A 
ENDBRANCH 13 14
ENDBRANCH 12 13
BRANCH 12 20
ATOM     20  C   PHE D 177      86.824  39.962  30.900  1.00 42.35 LIG 0.20  C 
ATOM     21 OXT  PHE D 177      86.868  38.851  31.415  1.00 44.55 LIG-0.65  OA
ATOM     22 O    PHE D 177      87.618  40.216  29.994  1.00 42.35 LIG-0.65  OA
ENDBRANCH 12 20
ENDBRANCH 9 12
ENDBRANCH 4 8
BRANCH 1 23
ATOM     23  CA  ILE D 175      85.010  46.120  28.082  1.00 50.15 LIG 0.18  C 
BRANCH 23 24
ATOM     24  CB  ILE D 175      83.491  45.808  28.087  1.00 52.56 LIG 0.01  C 
ATOM     25  CG2 ILE D 175      82.750  46.591  29.170  1.00 53.60 LIG 0.01  C 
BRANCH 24 26
ATOM     26  CG1 ILE D 175      82.878  46.074  26.703  1.00 53.43 LIG 0.00  C 
ATOM     27  CD1 ILE D 175      82.173  44.874  26.103  1.00 54.83 LIG 0.01  C 
ENDBRANCH 24 26
ENDBRANCH 23 24
BRANCH 23 28
ATOM     28  N   ILE D 175      85.579  46.071  26.734  1.00 52.48 LIG-0.34  N 
ATOM     29 H    ILE D 175      85.049  45.760  26.133  1.00 52.48 LIG 0.16  HD
ATOM     30  C   ASP D 174      86.823  46.484  26.498  1.00 53.52 LIG 0.26  C 
ATOM     31 O    ASP D 174      87.472  47.137  27.314  1.00 50.42 LIG-0.27  OA
BRANCH 30 32
ATOM     32  CA  ASP D 174      87.423  46.171  25.125  1.00 56.25 LIG 0.41  C 
ATOM     33  N   ASP D 174      88.756  46.809  24.869  1.00 55.41 LIG 0.61  N 
BRANCH 32 34
ATOM     34  CB  ASP D 174      87.497  44.656  24.967  1.00 59.33 LIG 0.16  C 
BRANCH 34 35
ATOM     35  CG  ASP D 174      88.782  44.212  24.290  1.00 62.66 LIG 0.17  C 
ATOM     36 OD2  ASP D 174      89.090  44.716  23.186  1.00 62.95 LIG-0.65  OA
ATOM     37 OD1  ASP D 174      89.493  43.368  24.883  1.00 63.24 LIG-0.65  OA
ENDBRANCH 34 35
ENDBRANCH 32 34
ENDBRANCH 30 32
ENDBRANCH 23 28
ENDBRANCH 1 23
TORSDOF 12
ENDMDL
MODEL 31
USER: ADFR SOLUTION from run 7
USER: SCORE 15.073903 LL:  -3.764 LR: -11.410 RR:   0.000 FEB:  -7.830
USER: RMSD 7.687774
USER: SEED 245179
USER: STATUS no improvement in best in 4 clusters for 5 generations
USER: GENES 14
USER: genes 0 Translation |==|  0.47851 0.38023 0.33260
USER: genes 1 Rotation |==|  0.92736 0.72154 0.38793 0.57569
USER: genes 2 Torsion [N]-CA--C-[O] |==|  0.59582
USER: genes 3 Torsion [C]-N--CA-[CB] |==|  0.46443
USER: genes 4 Torsion [N]-CA--CB-[CG] |==|  0.86918
USER: genes 5 Torsion [CA]-CB--CG-[CD2] |==|  0.94252
USER: genes 6 Torsion [N]-CA--C-[O] |==|  0.68139
USER: genes 7 Torsion [N]-C--CA-[N] |==|  0.35597
USER: genes 8 Torsion [C]-CA--CB-[CG2] |==|  0.93546
USER: genes 9 Torsion [CA]-CB--CG1-[CD1] |==|  0.36581
USER: genes 10 Torsion [C]-CA--N-[C] |==|  0.86658
USER: genes 11 Torsion [N]-C--CA-[N] |==|  0.54486
USER: genes 12 Torsion [C]-CA--CB-[CG] |==|  0.69703
USER: genes 13 Torsion [CA]-CB--CG-[OD2] |==|  0.09211
ROOT
ATOM      1  C   ILE D 175      85.421  42.365  27.650  1.00 46.12 LIG 0.24  C 
ATOM      2 O    ILE D 175      86.163  43.320  27.405  1.00 42.41 LIG-0.27  OA
ATOM      3  N   PRO D 176      84.080  42.493  27.700  1.00 41.83 LIG-0.34  N 
ATOM      4  CA  PRO D 176      83.429  43.740  27.292  1.00 39.90 LIG 0.18  C 
ATOM      5  CB  PRO D 176      82.039  43.255  26.893  1.00 38.91 LIG 0.04  C 
ATOM      6  CG  PRO D 176      81.762  42.172  27.886  1.00 40.22 LIG 0.02  C 
ATOM      7  CD  PRO D 176      83.088  41.510  28.178  1.00 41.02 LIG 0.13  C 
ENDROOT
BRANCH 4 8
ATOM      8  C   PRO D 176      83.347  44.798  28.409  1.00 41.09 LIG 0.24  C 
ATOM      9  N   PHE D 177      84.359  44.843  29.269  1.00 41.46 LIG-0.34  N 
ATOM     10 H    PHE D 177      84.999  44.268  29.285  1.00 41.46 LIG 0.16  HD
ATOM     11 O    PRO D 176      82.370  45.560  28.487  1.00 40.08 LIG-0.27  OA
BRANCH 9 12
ATOM     12  CA  PHE D 177      84.469  45.892  30.277  1.00 42.13 LIG 0.19  C 
BRANCH 12 13
ATOM     13  CB  PHE D 177      85.534  45.537  31.323  1.00 40.75 LIG 0.07  C 
BRANCH 13 14
ATOM     14  CG  PHE D 177      85.431  44.131  31.850  1.00 38.35 LIG-0.06  A 
ATOM     15  CD1 PHE D 177      86.517  43.524  32.476  1.00 38.94 LIG 0.01  A 
ATOM     16  CE1 PHE D 177      86.421  42.232  32.966  1.00 37.83 LIG 0.00  A 
ATOM     17  CZ  PHE D 177      85.233  41.535  32.848  1.00 37.53 LIG 0.00  A 
ATOM     18  CE2 PHE D 177      84.141  42.129  32.239  1.00 36.58 LIG 0.00  A 
ATOM     19  CD2 PHE D 177      84.243  43.421  31.745  1.00 37.89 LIG 0.01  A 
ENDBRANCH 13 14
ENDBRANCH 12 13
BRANCH 12 20
ATOM     20  C   PHE D 177      84.799  47.216  29.605  1.00 42.35 LIG 0.20  C 
ATOM     21 OXT  PHE D 177      83.998  47.753  28.849  1.00 44.55 LIG-0.65  OA
ATOM     22 O    PHE D 177      85.874  47.779  29.812  1.00 42.35 LIG-0.65  OA
ENDBRANCH 12 20
ENDBRANCH 9 12
ENDBRANCH 4 8
BRANCH 1 23
ATOM     23  CA  ILE D 175      86.012  40.958  27.889  1.00 50.15 LIG 0.18  C 
BRANCH 23 24
ATOM     24  CB  ILE D 175      86.714  40.834  29.267  1.00 52.56 LIG 0.01  C 
ATOM     25  CG2 ILE D 175      87.160  42.193  29.806  1.00 53.60 LIG 0.01  C 
BRANCH 24 26
ATOM     26  CG1 ILE D 175      85.804  40.117  30.276  1.00 53.43 LIG 0.00  C 
ATOM     27  CD1 ILE D 175      86.493  39.004  31.040  1.00 54.83 LIG 0.01  C 
ENDBRANCH 24 26
ENDBRANCH 23 24
BRANCH 23 28
ATOM     28  N   ILE D 175      86.918  40.657  26.780  1.00 52.48 LIG-0.34  N 
ATOM     29 H    ILE D 175      87.687  40.354  27.017  1.00 52.48 LIG 0.16  HD
ATOM     30  C   ASP D 174      86.545  40.851  25.516  1.00 53.52 LIG 0.26  C 
ATOM     31 O    ASP D 174      85.376  41.057  25.194  1.00 50.42 LIG-0.27  OA
BRANCH 30 32
ATOM     32  CA  ASP D 174      87.625  40.751  24.436  1.00 56.25 LIG 0.41  C 
ATOM     33  N   ASP D 174      87.238  41.341  23.114  1.00 55.41 LIG 0.61  N 
BRANCH 32 34
ATOM     34  CB  ASP D 174      88.902  41.388  24.974  1.00 59.33 LIG 0.16  C 
BRANCH 34 35
ATOM     35  CG  ASP D 174      89.214  42.708  24.290  1.00 62.66 LIG 0.17  C 
ATOM     36 OD2  ASP D 174      88.266  43.435  23.915  1.00 62.95 LIG-0.65  OA
ATOM     37 OD1  ASP D 174      90.419  43.021  24.147  1.00 63.24 LIG-0.65  OA
ENDBRANCH 34 35
ENDBRANCH 32 34
ENDBRANCH 30 32
ENDBRANCH 23 28
ENDBRANCH 1 23
TORSDOF 12
ENDMDL
MODEL 32
USER: ADFR SOLUTION from run 7
USER: SCORE 15.031765 LL:  -3.839 LR: -11.398 RR:   0.000 FEB:  -7.819
USER: RMSD 7.316568
USER: SEED 245179
USER: STATUS no improvement in best in 4 clusters for 5 generations
USER: GENES 14
USER: genes 0 Translation |==|  0.47100 0.45769 0.30184
USER: genes 1 Rotation |==|  0.17114 0.17777 0.56246 0.68470
USER: genes 2 Torsion [N]-CA--C-[O] |==|  0.76131
USER: genes 3 Torsion [C]-N--CA-[CB] |==|  0.21080
USER: genes 4 Torsion [N]-CA--CB-[CG] |==|  0.18548
USER: genes 5 Torsion [CA]-CB--CG-[CD2] |==|  0.34331
USER: genes 6 Torsion [N]-CA--C-[O] |==|  0.01476
USER: genes 7 Torsion [N]-C--CA-[N] |==|  0.48305
USER: genes 8 Torsion [C]-CA--CB-[CG2] |==|  0.50425
USER: genes 9 Torsion [CA]-CB--CG1-[CD1] |==|  0.31981
USER: genes 10 Torsion [C]-CA--N-[C] |==|  0.80097
USER: genes 11 Torsion [N]-C--CA-[N] |==|  0.67370
USER: genes 12 Torsion [C]-CA--CB-[CG] |==|  0.17103
USER: genes 13 Torsion [CA]-CB--CG-[OD2] |==|  0.13392
ROOT
ATOM      1  C   ILE D 175      85.308  43.643  27.027  1.00 46.12 LIG 0.24  C 
ATOM      2 O    ILE D 175      85.779  44.608  27.636  1.00 42.41 LIG-0.27  OA
ATOM      3  N   PRO D 176      84.186  43.017  27.433  1.00 41.83 LIG-0.34  N 
ATOM      4  CA  PRO D 176      83.373  43.563  28.522  1.00 39.90 LIG 0.18  C 
ATOM      5  CB  PRO D 176      81.997  42.982  28.212  1.00 38.91 LIG 0.04  C 
ATOM      6  CG  PRO D 176      82.317  41.619  27.689  1.00 40.22 LIG 0.02  C 
ATOM      7  CD  PRO D 176      83.624  41.743  26.941  1.00 41.02 LIG 0.13  C 
ENDROOT
BRANCH 4 8
ATOM      8  C   PRO D 176      83.846  43.145  29.927  1.00 41.09 LIG 0.24  C 
ATOM      9  N   PHE D 177      84.674  43.975  30.554  1.00 41.46 LIG-0.34  N 
ATOM     10 H    PHE D 177      85.018  44.673  30.189  1.00 41.46 LIG 0.16  HD
ATOM     11 O    PRO D 176      83.465  42.076  30.431  1.00 40.08 LIG-0.27  OA
BRANCH 9 12
ATOM     12  CA  PHE D 177      85.073  43.764  31.942  1.00 42.13 LIG 0.19  C 
BRANCH 12 13
ATOM     13  CB  PHE D 177      86.111  42.639  32.048  1.00 40.75 LIG 0.07  C 
BRANCH 13 14
ATOM     14  CG  PHE D 177      87.436  42.964  31.414  1.00 38.35 LIG-0.06  A 
ATOM     15  CD1 PHE D 177      87.509  43.361  30.081  1.00 38.94 LIG 0.01  A 
ATOM     16  CE1 PHE D 177      88.729  43.665  29.499  1.00 37.83 LIG 0.00  A 
ATOM     17  CZ  PHE D 177      89.889  43.590  30.246  1.00 37.53 LIG 0.00  A 
ATOM     18  CE2 PHE D 177      89.831  43.209  31.576  1.00 36.58 LIG 0.00  A 
ATOM     19  CD2 PHE D 177      88.609  42.899  32.153  1.00 37.89 LIG 0.01  A 
ENDBRANCH 13 14
ENDBRANCH 12 13
BRANCH 12 20
ATOM     20  C   PHE D 177      85.625  45.058  32.519  1.00 42.35 LIG 0.20  C 
ATOM     21 OXT  PHE D 177      86.116  45.087  33.642  1.00 44.55 LIG-0.65  OA
ATOM     22 O    PHE D 177      85.595  46.104  31.869  1.00 42.35 LIG-0.65  OA
ENDBRANCH 12 20
ENDBRANCH 9 12
ENDBRANCH 4 8
BRANCH 1 23
ATOM     23  CA  ILE D 175      85.988  43.125  25.740  1.00 50.15 LIG 0.18  C 
BRANCH 23 24
ATOM     24  CB  ILE D 175      86.465  41.655  25.869  1.00 52.56 LIG 0.01  C 
ATOM     25  CG2 ILE D 175      87.169  41.169  24.603  1.00 53.60 LIG 0.01  C 
BRANCH 24 26
ATOM     26  CG1 ILE D 175      87.372  41.485  27.098  1.00 53.43 LIG 0.00  C 
ATOM     27  CD1 ILE D 175      86.792  40.582  28.168  1.00 54.83 LIG 0.01  C 
ENDBRANCH 24 26
ENDBRANCH 23 24
BRANCH 23 28
ATOM     28  N   ILE D 175      87.087  44.035  25.416  1.00 52.48 LIG-0.34  N 
ATOM     29 H    ILE D 175      87.872  43.711  25.548  1.00 52.48 LIG 0.16  HD
ATOM     30  C   ASP D 174      86.850  45.262  24.954  1.00 53.52 LIG 0.26  C 
ATOM     31 O    ASP D 174      85.743  45.618  24.553  1.00 50.42 LIG-0.27  OA
BRANCH 30 32
ATOM     32  CA  ASP D 174      88.033  46.230  24.877  1.00 56.25 LIG 0.41  C 
ATOM     33  N   ASP D 174      87.899  47.447  25.741  1.00 55.41 LIG 0.61  N 
BRANCH 32 34
ATOM     34  CB  ASP D 174      89.307  45.458  25.203  1.00 59.33 LIG 0.16  C 
BRANCH 34 35
ATOM     35  CG  ASP D 174      89.568  44.338  24.211  1.00 62.66 LIG 0.17  C 
ATOM     36 OD2  ASP D 174      89.496  44.586  22.985  1.00 62.95 LIG-0.65  OA
ATOM     37 OD1  ASP D 174      89.865  43.210  24.667  1.00 63.24 LIG-0.65  OA
ENDBRANCH 34 35
ENDBRANCH 32 34
ENDBRANCH 30 32
ENDBRANCH 23 28
ENDBRANCH 1 23
TORSDOF 12
ENDMDL
MODEL 33
USER: ADFR SOLUTION from run 147
USER: SCORE 14.878741 LL:  -4.012 LR: -11.370 RR:   0.000 FEB:  -7.790
USER: RMSD 5.177893
USER: SEED 146
USER: STATUS no improvement in best in 9 clusters for 5 generations
USER: GENES 14
USER: genes 0 Translation |==|  0.47882 0.29852 0.32719
USER: genes 1 Rotation |==|  0.80118 0.36235 0.18405 0.70128
USER: genes 2 Torsion [N]-CA--C-[O] |==|  0.33364
USER: genes 3 Torsion [C]-N--CA-[CB] |==|  0.45305
USER: genes 4 Torsion [N]-CA--CB-[CG] |==|  0.96147
USER: genes 5 Torsion [CA]-CB--CG-[CD2] |==|  0.27478
USER: genes 6 Torsion [N]-CA--C-[O] |==|  0.34036
USER: genes 7 Torsion [N]-C--CA-[N] |==|  0.82021
USER: genes 8 Torsion [C]-CA--CB-[CG2] |==|  0.68155
USER: genes 9 Torsion [CA]-CB--CG1-[CD1] |==|  0.64010
USER: genes 10 Torsion [C]-CA--N-[C] |==|  0.69955
USER: genes 11 Torsion [N]-C--CA-[N] |==|  0.92104
USER: genes 12 Torsion [C]-CA--CB-[CG] |==|  0.78462
USER: genes 13 Torsion [CA]-CB--CG-[OD2] |==|  0.50502
ROOT
ATOM      1  C   ILE D 175      85.425  41.017  27.541  1.00 46.12 LIG 0.24  C 
ATOM      2 O    ILE D 175      85.899  40.064  26.915  1.00 42.41 LIG-0.27  OA
ATOM      3  N   PRO D 176      84.957  42.119  26.923  1.00 41.83 LIG-0.34  N 
ATOM      4  CA  PRO D 176      84.830  42.166  25.465  1.00 39.90 LIG 0.18  C 
ATOM      5  CB  PRO D 176      83.737  43.213  25.277  1.00 38.91 LIG 0.04  C 
ATOM      6  CG  PRO D 176      84.023  44.199  26.364  1.00 40.22 LIG 0.02  C 
ATOM      7  CD  PRO D 176      84.561  43.405  27.531  1.00 41.02 LIG 0.13  C 
ENDROOT
BRANCH 4 8
ATOM      8  C   PRO D 176      86.123  42.580  24.736  1.00 41.09 LIG 0.24  C 
ATOM      9  N   PHE D 177      86.620  43.778  25.029  1.00 41.46 LIG-0.34  N 
ATOM     10 H    PHE D 177      86.219  44.353  25.526  1.00 41.46 LIG 0.16  HD
ATOM     11 O    PRO D 176      86.657  41.818  23.915  1.00 40.08 LIG-0.27  OA
BRANCH 9 12
ATOM     12  CA  PHE D 177      87.913  44.221  24.519  1.00 42.13 LIG 0.19  C 
BRANCH 12 13
ATOM     13  CB  PHE D 177      88.058  45.744  24.646  1.00 40.75 LIG 0.07  C 
BRANCH 13 14
ATOM     14  CG  PHE D 177      86.768  46.461  24.938  1.00 38.35 LIG-0.06  A 
ATOM     15  CD1 PHE D 177      85.857  46.731  23.919  1.00 38.94 LIG 0.01  A 
ATOM     16  CE1 PHE D 177      84.667  47.387  24.188  1.00 37.83 LIG 0.00  A 
ATOM     17  CZ  PHE D 177      84.366  47.769  25.482  1.00 37.53 LIG 0.00  A 
ATOM     18  CE2 PHE D 177      85.256  47.497  26.507  1.00 36.58 LIG 0.00  A 
ATOM     19  CD2 PHE D 177      86.448  46.845  26.233  1.00 37.89 LIG 0.01  A 
ENDBRANCH 13 14
ENDBRANCH 12 13
BRANCH 12 20
ATOM     20  C   PHE D 177      89.031  43.513  25.268  1.00 42.35 LIG 0.20  C 
ATOM     21 OXT  PHE D 177      89.118  43.590  26.488  1.00 44.55 LIG-0.65  OA
ATOM     22 O    PHE D 177      89.868  42.841  24.665  1.00 42.35 LIG-0.65  OA
ENDBRANCH 12 20
ENDBRANCH 9 12
ENDBRANCH 4 8
BRANCH 1 23
ATOM     23  CA  ILE D 175      85.328  40.966  29.082  1.00 50.15 LIG 0.18  C 
BRANCH 23 24
ATOM     24  CB  ILE D 175      83.867  41.082  29.589  1.00 52.56 LIG 0.01  C 
ATOM     25  CG2 ILE D 175      83.638  42.367  30.384  1.00 53.60 LIG 0.01  C 
BRANCH 24 26
ATOM     26  CG1 ILE D 175      82.876  40.979  28.419  1.00 53.43 LIG 0.00  C 
ATOM     27  CD1 ILE D 175      81.847  42.091  28.387  1.00 54.83 LIG 0.01  C 
ENDBRANCH 24 26
ENDBRANCH 23 24
BRANCH 23 28
ATOM     28  N   ILE D 175      86.185  42.022  29.621  1.00 52.48 LIG-0.34  N 
ATOM     29 H    ILE D 175      85.886  42.820  29.506  1.00 52.48 LIG 0.16  HD
ATOM     30  C   ASP D 174      87.331  41.731  30.235  1.00 53.52 LIG 0.26  C 
ATOM     31 O    ASP D 174      87.620  40.591  30.594  1.00 50.42 LIG-0.27  OA
BRANCH 30 32
ATOM     32  CA  ASP D 174      88.281  42.891  30.546  1.00 56.25 LIG 0.41  C 
ATOM     33  N   ASP D 174      88.179  44.049  29.600  1.00 55.41 LIG 0.61  N 
BRANCH 32 34
ATOM     34  CB  ASP D 174      88.044  43.331  31.987  1.00 59.33 LIG 0.16  C 
BRANCH 34 35
ATOM     35  CG  ASP D 174      86.791  44.178  32.128  1.00 62.66 LIG 0.17  C 
ATOM     36 OD2  ASP D 174      86.494  44.637  33.254  1.00 62.95 LIG-0.65  OA
ATOM     37 OD1  ASP D 174      86.115  44.396  31.096  1.00 63.24 LIG-0.65  OA
ENDBRANCH 34 35
ENDBRANCH 32 34
ENDBRANCH 30 32
ENDBRANCH 23 28
ENDBRANCH 1 23
TORSDOF 12
ENDMDL
MODEL 34
USER: ADFR SOLUTION from run 4
USER: SCORE 14.636298 LL:  -3.621 LR: -11.326 RR:   0.000 FEB:  -7.746
USER: RMSD 5.107431
USER: SEED 745681
USER: STATUS no improvement in best in 4 clusters for 5 generations
USER: GENES 14
USER: genes 0 Translation |==|  0.54794 0.33518 0.38552
USER: genes 1 Rotation |==|  0.79808 0.49929 0.24221 0.80772
USER: genes 2 Torsion [N]-CA--C-[O] |==|  0.66204
USER: genes 3 Torsion [C]-N--CA-[CB] |==|  0.24559
USER: genes 4 Torsion [N]-CA--CB-[CG] |==|  0.25135
USER: genes 5 Torsion [CA]-CB--CG-[CD2] |==|  0.28935
USER: genes 6 Torsion [N]-CA--C-[O] |==|  0.43913
USER: genes 7 Torsion [N]-C--CA-[N] |==|  0.85005
USER: genes 8 Torsion [C]-CA--CB-[CG2] |==|  0.24544
USER: genes 9 Torsion [CA]-CB--CG1-[CD1] |==|  0.30728
USER: genes 10 Torsion [C]-CA--N-[C] |==|  0.78355
USER: genes 11 Torsion [N]-C--CA-[N] |==|  0.67729
USER: genes 12 Torsion [C]-CA--CB-[CG] |==|  0.35515
USER: genes 13 Torsion [CA]-CB--CG-[OD2] |==|  0.26652
ROOT
ATOM      1  C   ILE D 175      86.462  41.621  28.722  1.00 46.12 LIG 0.24  C 
ATOM      2 O    ILE D 175      87.300  41.169  27.936  1.00 42.41 LIG-0.27  OA
ATOM      3  N   PRO D 176      85.286  42.128  28.303  1.00 41.83 LIG-0.34  N 
ATOM      4  CA  PRO D 176      84.871  42.007  26.904  1.00 39.90 LIG 0.18  C 
ATOM      5  CB  PRO D 176      83.352  42.090  27.016  1.00 38.91 LIG 0.04  C 
ATOM      6  CG  PRO D 176      83.149  43.081  28.115  1.00 40.22 LIG 0.02  C 
ATOM      7  CD  PRO D 176      84.289  42.884  29.087  1.00 41.02 LIG 0.13  C 
ENDROOT
BRANCH 4 8
ATOM      8  C   PRO D 176      85.420  43.119  25.989  1.00 41.09 LIG 0.24  C 
ATOM      9  N   PHE D 177      86.741  43.250  25.930  1.00 41.46 LIG-0.34  N 
ATOM     10 H    PHE D 177      87.288  42.814  26.430  1.00 41.46 LIG 0.16  HD
ATOM     11 O    PRO D 176      84.647  43.850  25.349  1.00 40.08 LIG-0.27  OA
BRANCH 9 12
ATOM     12  CA  PHE D 177      87.384  44.163  24.991  1.00 42.13 LIG 0.19  C 
BRANCH 12 13
ATOM     13  CB  PHE D 177      87.530  45.563  25.602  1.00 40.75 LIG 0.07  C 
BRANCH 13 14
ATOM     14  CG  PHE D 177      88.824  45.778  26.341  1.00 38.35 LIG-0.06  A 
ATOM     15  CD1 PHE D 177      89.031  45.209  27.594  1.00 38.94 LIG 0.01  A 
ATOM     16  CE1 PHE D 177      90.223  45.404  28.272  1.00 37.83 LIG 0.00  A 
ATOM     17  CZ  PHE D 177      91.229  46.158  27.698  1.00 37.53 LIG 0.00  A 
ATOM     18  CE2 PHE D 177      91.043  46.720  26.446  1.00 36.58 LIG 0.00  A 
ATOM     19  CD2 PHE D 177      89.846  46.528  25.774  1.00 37.89 LIG 0.01  A 
ENDBRANCH 13 14
ENDBRANCH 12 13
BRANCH 12 20
ATOM     20  C   PHE D 177      88.742  43.611  24.586  1.00 42.35 LIG 0.20  C 
ATOM     21 OXT  PHE D 177      89.323  42.793  25.289  1.00 44.55 LIG-0.65  OA
ATOM     22 O    PHE D 177      89.283  43.969  23.540  1.00 42.35 LIG-0.65  OA
ENDBRANCH 12 20
ENDBRANCH 9 12
ENDBRANCH 4 8
BRANCH 1 23
ATOM     23  CA  ILE D 175      86.729  41.599  30.244  1.00 50.15 LIG 0.18  C 
BRANCH 23 24
ATOM     24  CB  ILE D 175      85.842  40.567  30.988  1.00 52.56 LIG 0.01  C 
ATOM     25  CG2 ILE D 175      86.493  39.185  31.038  1.00 53.60 LIG 0.01  C 
BRANCH 24 26
ATOM     26  CG1 ILE D 175      85.502  41.063  32.402  1.00 53.43 LIG 0.00  C 
ATOM     27  CD1 ILE D 175      84.045  41.437  32.587  1.00 54.83 LIG 0.01  C 
ENDBRANCH 24 26
ENDBRANCH 23 24
BRANCH 23 28
ATOM     28  N   ILE D 175      86.538  42.958  30.753  1.00 52.48 LIG-0.34  N 
ATOM     29 H    ILE D 175      85.790  43.088  31.155  1.00 52.48 LIG 0.16  HD
ATOM     30  C   ASP D 174      87.474  43.891  30.586  1.00 53.52 LIG 0.26  C 
ATOM     31 O    ASP D 174      88.619  43.626  30.223  1.00 50.42 LIG-0.27  OA
BRANCH 30 32
ATOM     32  CA  ASP D 174      87.099  45.337  30.923  1.00 56.25 LIG 0.41  C 
ATOM     33  N   ASP D 174      87.124  46.274  29.753  1.00 55.41 LIG 0.61  N 
BRANCH 32 34
ATOM     34  CB  ASP D 174      85.732  45.333  31.599  1.00 59.33 LIG 0.16  C 
BRANCH 34 35
ATOM     35  CG  ASP D 174      85.744  46.087  32.917  1.00 62.66 LIG 0.17  C 
ATOM     36 OD2  ASP D 174      85.376  47.284  32.933  1.00 62.95 LIG-0.65  OA
ATOM     37 OD1  ASP D 174      86.105  45.466  33.943  1.00 63.24 LIG-0.65  OA
ENDBRANCH 34 35
ENDBRANCH 32 34
ENDBRANCH 30 32
ENDBRANCH 23 28
ENDBRANCH 1 23
TORSDOF 12
ENDMDL
MODEL 35
USER: ADFR SOLUTION from run 104
USER: SCORE 14.981388 LL:  -3.882 LR: -11.321 RR:   0.000 FEB:  -7.741
USER: RMSD 7.305672
USER: SEED 103
USER: STATUS no improvement in best in 4 clusters for 5 generations
USER: GENES 14
USER: genes 0 Translation |==|  0.44039 0.54358 0.30534
USER: genes 1 Rotation |==|  0.07485 0.63051 0.39078 0.70071
USER: genes 2 Torsion [N]-CA--C-[O] |==|  0.74283
USER: genes 3 Torsion [C]-N--CA-[CB] |==|  0.45818
USER: genes 4 Torsion [N]-CA--CB-[CG] |==|  0.98611
USER: genes 5 Torsion [CA]-CB--CG-[CD2] |==|  0.75939
USER: genes 6 Torsion [N]-CA--C-[O] |==|  0.33311
USER: genes 7 Torsion [N]-C--CA-[N] |==|  0.25811
USER: genes 8 Torsion [C]-CA--CB-[CG2] |==|  0.79590
USER: genes 9 Torsion [CA]-CB--CG1-[CD1] |==|  0.14055
USER: genes 10 Torsion [C]-CA--N-[C] |==|  0.74457
USER: genes 11 Torsion [N]-C--CA-[N] |==|  0.48197
USER: genes 12 Torsion [C]-CA--CB-[CG] |==|  0.29061
USER: genes 13 Torsion [CA]-CB--CG-[OD2] |==|  0.78731
ROOT
ATOM      1  C   ILE D 175      84.849  45.060  27.098  1.00 46.12 LIG 0.24  C 
ATOM      2 O    ILE D 175      85.486  44.073  27.477  1.00 42.41 LIG-0.27  OA
ATOM      3  N   PRO D 176      84.826  46.211  27.799  1.00 41.83 LIG-0.34  N 
ATOM      4  CA  PRO D 176      85.699  46.401  28.959  1.00 39.90 LIG 0.18  C 
ATOM      5  CB  PRO D 176      85.828  47.920  29.012  1.00 38.91 LIG 0.04  C 
ATOM      6  CG  PRO D 176      84.470  48.388  28.600  1.00 40.22 LIG 0.02  C 
ATOM      7  CD  PRO D 176      83.960  47.388  27.589  1.00 41.02 LIG 0.13  C 
ENDROOT
BRANCH 4 8
ATOM      8  C   PRO D 176      85.120  45.849  30.276  1.00 41.09 LIG 0.24  C 
ATOM      9  N   PHE D 177      85.359  44.570  30.547  1.00 41.46 LIG-0.34  N 
ATOM     10 H    PHE D 177      85.736  44.027  29.997  1.00 41.46 LIG 0.16  HD
ATOM     11 O    PRO D 176      84.461  46.580  31.032  1.00 40.08 LIG-0.27  OA
BRANCH 9 12
ATOM     12  CA  PHE D 177      84.993  43.972  31.827  1.00 42.13 LIG 0.19  C 
BRANCH 12 13
ATOM     13  CB  PHE D 177      85.032  42.440  31.746  1.00 40.75 LIG 0.07  C 
BRANCH 13 14
ATOM     14  CG  PHE D 177      85.313  41.905  30.368  1.00 38.35 LIG-0.06  A 
ATOM     15  CD1 PHE D 177      86.610  41.579  29.981  1.00 38.94 LIG 0.01  A 
ATOM     16  CE1 PHE D 177      86.868  41.082  28.714  1.00 37.83 LIG 0.00  A 
ATOM     17  CZ  PHE D 177      85.829  40.891  27.822  1.00 37.53 LIG 0.00  A 
ATOM     18  CE2 PHE D 177      84.532  41.199  28.196  1.00 36.58 LIG 0.00  A 
ATOM     19  CD2 PHE D 177      84.279  41.702  29.463  1.00 37.89 LIG 0.01  A 
ENDBRANCH 13 14
ENDBRANCH 12 13
BRANCH 12 20
ATOM     20  C   PHE D 177      85.928  44.475  32.915  1.00 42.35 LIG 0.20  C 
ATOM     21 OXT  PHE D 177      87.136  44.282  32.844  1.00 44.55 LIG-0.65  OA
ATOM     22 O    PHE D 177      85.493  45.091  33.888  1.00 42.35 LIG-0.65  OA
ENDBRANCH 12 20
ENDBRANCH 9 12
ENDBRANCH 4 8
BRANCH 1 23
ATOM     23  CA  ILE D 175      84.061  45.018  25.769  1.00 50.15 LIG 0.18  C 
BRANCH 23 24
ATOM     24  CB  ILE D 175      83.381  43.646  25.525  1.00 52.56 LIG 0.01  C 
ATOM     25  CG2 ILE D 175      84.391  42.566  25.138  1.00 53.60 LIG 0.01  C 
BRANCH 24 26
ATOM     26  CG1 ILE D 175      82.567  43.217  26.756  1.00 53.43 LIG 0.00  C 
ATOM     27  CD1 ILE D 175      81.618  44.283  27.266  1.00 54.83 LIG 0.01  C 
ENDBRANCH 24 26
ENDBRANCH 23 24
BRANCH 23 28
ATOM     28  N   ILE D 175      84.982  45.377  24.690  1.00 52.48 LIG-0.34  N 
ATOM     29 H    ILE D 175      85.417  44.715  24.355  1.00 52.48 LIG 0.16  HD
ATOM     30  C   ASP D 174      85.108  46.640  24.287  1.00 53.52 LIG 0.26  C 
ATOM     31 O    ASP D 174      84.315  47.523  24.611  1.00 50.42 LIG-0.27  OA
BRANCH 30 32
ATOM     32  CA  ASP D 174      86.261  46.967  23.334  1.00 56.25 LIG 0.41  C 
ATOM     33  N   ASP D 174      86.251  48.368  22.804  1.00 55.41 LIG 0.61  N 
BRANCH 32 34
ATOM     34  CB  ASP D 174      87.574  46.654  24.045  1.00 59.33 LIG 0.16  C 
BRANCH 34 35
ATOM     35  CG  ASP D 174      88.207  45.369  23.540  1.00 62.66 LIG 0.17  C 
ATOM     36 OD2  ASP D 174      87.734  44.273  23.916  1.00 62.95 LIG-0.65  OA
ATOM     37 OD1  ASP D 174      89.172  45.466  22.747  1.00 63.24 LIG-0.65  OA
ENDBRANCH 34 35
ENDBRANCH 32 34
ENDBRANCH 30 32
ENDBRANCH 23 28
ENDBRANCH 1 23
TORSDOF 12
ENDMDL
MODEL 36
USER: ADFR SOLUTION from run 134
USER: SCORE 14.584883 LL:  -3.741 LR: -11.325 RR:   0.000 FEB:  -7.745
USER: RMSD 5.086460
USER: SEED 133
USER: STATUS no improvement in best in 4 clusters for 5 generations
USER: GENES 14
USER: genes 0 Translation |==|  0.50407 0.31382 0.35974
USER: genes 1 Rotation |==|  0.85089 0.37925 0.19187 0.63172
USER: genes 2 Torsion [N]-CA--C-[O] |==|  0.10681
USER: genes 3 Torsion [C]-N--CA-[CB] |==|  0.85502
USER: genes 4 Torsion [N]-CA--CB-[CG] |==|  0.88117
USER: genes 5 Torsion [CA]-CB--CG-[CD2] |==|  0.35338
USER: genes 6 Torsion [N]-CA--C-[O] |==|  0.29622
USER: genes 7 Torsion [N]-C--CA-[N] |==|  0.82243
USER: genes 8 Torsion [C]-CA--CB-[CG2] |==|  0.70758
USER: genes 9 Torsion [CA]-CB--CG1-[CD1] |==|  0.63805
USER: genes 10 Torsion [C]-CA--N-[C] |==|  0.73105
USER: genes 11 Torsion [N]-C--CA-[N] |==|  0.60927
USER: genes 12 Torsion [C]-CA--CB-[CG] |==|  0.25548
USER: genes 13 Torsion [CA]-CB--CG-[OD2] |==|  0.83803
ROOT
ATOM      1  C   ILE D 175      85.804  41.269  28.200  1.00 46.12 LIG 0.24  C 
ATOM      2 O    ILE D 175      86.356  40.481  27.426  1.00 42.41 LIG-0.27  OA
ATOM      3  N   PRO D 176      85.513  42.537  27.847  1.00 41.83 LIG-0.34  N 
ATOM      4  CA  PRO D 176      85.683  42.989  26.464  1.00 39.90 LIG 0.18  C 
ATOM      5  CB  PRO D 176      84.691  44.145  26.386  1.00 38.91 LIG 0.04  C 
ATOM      6  CG  PRO D 176      84.793  44.768  27.741  1.00 40.22 LIG 0.02  C 
ATOM      7  CD  PRO D 176      85.054  43.641  28.712  1.00 41.02 LIG 0.13  C 
ENDROOT
BRANCH 4 8
ATOM      8  C   PRO D 176      87.111  43.461  26.130  1.00 41.09 LIG 0.24  C 
ATOM      9  N   PHE D 177      87.222  44.515  25.329  1.00 41.46 LIG-0.34  N 
ATOM     10 H    PHE D 177      86.556  44.884  24.928  1.00 41.46 LIG 0.16  HD
ATOM     11 O    PRO D 176      88.098  42.868  26.594  1.00 40.08 LIG-0.27  OA
BRANCH 9 12
ATOM     12  CA  PHE D 177      88.509  45.146  25.058  1.00 42.13 LIG 0.19  C 
BRANCH 12 13
ATOM     13  CB  PHE D 177      89.237  45.488  26.365  1.00 40.75 LIG 0.07  C 
BRANCH 13 14
ATOM     14  CG  PHE D 177      88.349  46.081  27.425  1.00 38.35 LIG-0.06  A 
ATOM     15  CD1 PHE D 177      87.530  47.171  27.140  1.00 38.94 LIG 0.01  A 
ATOM     16  CE1 PHE D 177      86.709  47.715  28.114  1.00 37.83 LIG 0.00  A 
ATOM     17  CZ  PHE D 177      86.686  47.166  29.383  1.00 37.53 LIG 0.00  A 
ATOM     18  CE2 PHE D 177      87.485  46.075  29.678  1.00 36.58 LIG 0.00  A 
ATOM     19  CD2 PHE D 177      88.310  45.538  28.702  1.00 37.89 LIG 0.01  A 
ENDBRANCH 13 14
ENDBRANCH 12 13
BRANCH 12 20
ATOM     20  C   PHE D 177      89.360  44.228  24.195  1.00 42.35 LIG 0.20  C 
ATOM     21 OXT  PHE D 177      89.868  43.216  24.665  1.00 44.55 LIG-0.65  OA
ATOM     22 O    PHE D 177      89.552  44.478  23.005  1.00 42.35 LIG-0.65  OA
ENDBRANCH 12 20
ENDBRANCH 9 12
ENDBRANCH 4 8
BRANCH 1 23
ATOM     23  CA  ILE D 175      85.398  40.812  29.619  1.00 50.15 LIG 0.18  C 
BRANCH 23 24
ATOM     24  CB  ILE D 175      83.868  40.905  29.858  1.00 52.56 LIG 0.01  C 
ATOM     25  CG2 ILE D 175      83.499  42.091  30.749  1.00 53.60 LIG 0.01  C 
BRANCH 24 26
ATOM     26  CG1 ILE D 175      83.113  40.969  28.521  1.00 53.43 LIG 0.00  C 
ATOM     27  CD1 ILE D 175      82.099  42.092  28.443  1.00 54.83 LIG 0.01  C 
ENDBRANCH 24 26
ENDBRANCH 23 24
BRANCH 23 28
ATOM     28  N   ILE D 175      86.156  41.611  30.582  1.00 52.48 LIG-0.34  N 
ATOM     29 H    ILE D 175      85.816  42.381  30.756  1.00 52.48 LIG 0.16  HD
ATOM     30  C   ASP D 174      87.280  41.147  31.125  1.00 53.52 LIG 0.26  C 
ATOM     31 O    ASP D 174      87.618  39.967  31.046  1.00 50.42 LIG-0.27  OA
BRANCH 30 32
ATOM     32  CA  ASP D 174      88.139  42.132  31.924  1.00 56.25 LIG 0.41  C 
ATOM     33  N   ASP D 174      89.616  41.970  31.727  1.00 55.41 LIG 0.61  N 
BRANCH 32 34
ATOM     34  CB  ASP D 174      87.687  43.548  31.584  1.00 59.33 LIG 0.16  C 
BRANCH 34 35
ATOM     35  CG  ASP D 174      86.620  44.053  32.540  1.00 62.66 LIG 0.17  C 
ATOM     36 OD2  ASP D 174      85.551  43.410  32.650  1.00 62.95 LIG-0.65  OA
ATOM     37 OD1  ASP D 174      86.868  45.091  33.196  1.00 63.24 LIG-0.65  OA
ENDBRANCH 34 35
ENDBRANCH 32 34
ENDBRANCH 30 32
ENDBRANCH 23 28
ENDBRANCH 1 23
TORSDOF 12
ENDMDL
MODEL 37
USER: ADFR SOLUTION from run 136
USER: SCORE 14.930459 LL:  -4.083 LR: -11.288 RR:   0.000 FEB:  -7.709
USER: RMSD 5.720480
USER: SEED 135
USER: STATUS no improvement in best in 7 clusters for 5 generations
USER: GENES 14
USER: genes 0 Translation |==|  0.58819 0.34490 0.43568
USER: genes 1 Rotation |==|  0.51492 0.44890 0.15576 0.85869
USER: genes 2 Torsion [N]-CA--C-[O] |==|  0.49901
USER: genes 3 Torsion [C]-N--CA-[CB] |==|  0.25815
USER: genes 4 Torsion [N]-CA--CB-[CG] |==|  0.98993
USER: genes 5 Torsion [CA]-CB--CG-[CD2] |==|  0.73814
USER: genes 6 Torsion [N]-CA--C-[O] |==|  0.09963
USER: genes 7 Torsion [N]-C--CA-[N] |==|  0.83892
USER: genes 8 Torsion [C]-CA--CB-[CG2] |==|  0.04257
USER: genes 9 Torsion [CA]-CB--CG1-[CD1] |==|  0.07870
USER: genes 10 Torsion [C]-CA--N-[C] |==|  0.85861
USER: genes 11 Torsion [N]-C--CA-[N] |==|  0.21212
USER: genes 12 Torsion [C]-CA--CB-[CG] |==|  0.73317
USER: genes 13 Torsion [CA]-CB--CG-[OD2] |==|  0.13168
ROOT
ATOM      1  C   ILE D 175      87.066  41.782  29.738  1.00 46.12 LIG 0.24  C 
ATOM      2 O    ILE D 175      87.240  40.590  29.469  1.00 42.41 LIG-0.27  OA
ATOM      3  N   PRO D 176      85.849  42.359  29.685  1.00 41.83 LIG-0.34  N 
ATOM      4  CA  PRO D 176      84.645  41.553  29.472  1.00 39.90 LIG 0.18  C 
ATOM      5  CB  PRO D 176      83.566  42.425  30.107  1.00 38.91 LIG 0.04  C 
ATOM      6  CG  PRO D 176      84.006  43.811  29.763  1.00 40.22 LIG 0.02  C 
ATOM      7  CD  PRO D 176      85.517  43.795  29.772  1.00 41.02 LIG 0.13  C 
ENDROOT
BRANCH 4 8
ATOM      8  C   PRO D 176      84.330  41.275  27.990  1.00 41.09 LIG 0.24  C 
ATOM      9  N   PHE D 177      85.161  41.795  27.092  1.00 41.46 LIG-0.34  N 
ATOM     10 H    PHE D 177      85.798  42.338  27.289  1.00 41.46 LIG 0.16  HD
ATOM     11 O    PRO D 176      83.340  40.598  27.670  1.00 40.08 LIG-0.27  OA
BRANCH 9 12
ATOM     12  CA  PHE D 177      85.056  41.482  25.671  1.00 42.13 LIG 0.19  C 
BRANCH 12 13
ATOM     13  CB  PHE D 177      84.186  42.516  24.945  1.00 40.75 LIG 0.07  C 
BRANCH 13 14
ATOM     14  CG  PHE D 177      83.576  43.551  25.852  1.00 38.35 LIG-0.06  A 
ATOM     15  CD1 PHE D 177      84.272  44.711  26.178  1.00 38.94 LIG 0.01  A 
ATOM     16  CE1 PHE D 177      83.709  45.666  27.009  1.00 37.83 LIG 0.00  A 
ATOM     17  CZ  PHE D 177      82.436  45.478  27.513  1.00 37.53 LIG 0.00  A 
ATOM     18  CE2 PHE D 177      81.726  44.335  27.187  1.00 36.58 LIG 0.00  A 
ATOM     19  CD2 PHE D 177      82.295  43.379  26.360  1.00 37.89 LIG 0.01  A 
ENDBRANCH 13 14
ENDBRANCH 12 13
BRANCH 12 20
ATOM     20  C   PHE D 177      86.445  41.422  25.055  1.00 42.35 LIG 0.20  C 
ATOM     21 OXT  PHE D 177      86.643  41.821  23.913  1.00 44.55 LIG-0.65  OA
ATOM     22 O    PHE D 177      87.400  40.976  25.691  1.00 42.35 LIG-0.65  OA
ENDBRANCH 12 20
ENDBRANCH 9 12
ENDBRANCH 4 8
BRANCH 1 23
ATOM     23  CA  ILE D 175      88.256  42.664  30.176  1.00 50.15 LIG 0.18  C 
BRANCH 23 24
ATOM     24  CB  ILE D 175      88.145  43.120  31.655  1.00 52.56 LIG 0.01  C 
ATOM     25  CG2 ILE D 175      87.111  42.304  32.429  1.00 53.60 LIG 0.01  C 
BRANCH 24 26
ATOM     26  CG1 ILE D 175      89.516  43.061  32.345  1.00 53.43 LIG 0.00  C 
ATOM     27  CD1 ILE D 175      90.686  43.257  31.402  1.00 54.83 LIG 0.01  C 
ENDBRANCH 24 26
ENDBRANCH 23 24
BRANCH 23 28
ATOM     28  N   ILE D 175      88.338  43.798  29.255  1.00 52.48 LIG-0.34  N 
ATOM     29 H    ILE D 175      88.378  44.568  29.636  1.00 52.48 LIG 0.16  HD
ATOM     30  C   ASP D 174      88.347  43.612  27.936  1.00 53.52 LIG 0.26  C 
ATOM     31 O    ASP D 174      88.526  42.508  27.422  1.00 50.42 LIG-0.27  OA
BRANCH 30 32
ATOM     32  CA  ASP D 174      88.184  44.847  27.046  1.00 56.25 LIG 0.41  C 
ATOM     33  N   ASP D 174      89.414  45.697  26.932  1.00 55.41 LIG 0.61  N 
BRANCH 32 34
ATOM     34  CB  ASP D 174      87.700  44.389  25.674  1.00 59.33 LIG 0.16  C 
BRANCH 34 35
ATOM     35  CG  ASP D 174      88.844  44.226  24.688  1.00 62.66 LIG 0.17  C 
ATOM     36 OD2  ASP D 174      89.868  43.600  25.046  1.00 62.95 LIG-0.65  OA
ATOM     37 OD1  ASP D 174      88.703  44.714  23.543  1.00 63.24 LIG-0.65  OA
ENDBRANCH 34 35
ENDBRANCH 32 34
ENDBRANCH 30 32
ENDBRANCH 23 28
ENDBRANCH 1 23
TORSDOF 12
ENDMDL
MODEL 38
USER: ADFR SOLUTION from run 121
USER: SCORE 14.989029 LL:  -3.839 LR: -11.278 RR:   0.000 FEB:  -7.698
USER: RMSD 4.936888
USER: SEED 120
USER: STATUS no improvement in best in 4 clusters for 5 generations
USER: GENES 14
USER: genes 0 Translation |==|  0.52870 0.40171 0.36804
USER: genes 1 Rotation |==|  0.79015 0.63342 0.71104 0.82167
USER: genes 2 Torsion [N]-CA--C-[O] |==|  0.83302
USER: genes 3 Torsion [C]-N--CA-[CB] |==|  0.28220
USER: genes 4 Torsion [N]-CA--CB-[CG] |==|  0.86090
USER: genes 5 Torsion [CA]-CB--CG-[CD2] |==|  0.33369
USER: genes 6 Torsion [N]-CA--C-[O] |==|  0.14770
USER: genes 7 Torsion [N]-C--CA-[N] |==|  0.37421
USER: genes 8 Torsion [C]-CA--CB-[CG2] |==|  0.19616
USER: genes 9 Torsion [CA]-CB--CG1-[CD1] |==|  0.25979
USER: genes 10 Torsion [C]-CA--N-[C] |==|  0.71113
USER: genes 11 Torsion [N]-C--CA-[N] |==|  0.56469
USER: genes 12 Torsion [C]-CA--CB-[CG] |==|  0.27606
USER: genes 13 Torsion [CA]-CB--CG-[OD2] |==|  0.34175
ROOT
ATOM      1  C   ILE D 175      86.173  42.719  28.368  1.00 46.12 LIG 0.24  C 
ATOM      2 O    ILE D 175      86.398  43.923  28.522  1.00 42.41 LIG-0.27  OA
ATOM      3  N   PRO D 176      86.333  42.107  27.178  1.00 41.83 LIG-0.34  N 
ATOM      4  CA  PRO D 176      86.948  42.807  26.049  1.00 39.90 LIG 0.18  C 
ATOM      5  CB  PRO D 176      87.497  41.650  25.220  1.00 38.91 LIG 0.04  C 
ATOM      6  CG  PRO D 176      86.457  40.591  25.390  1.00 40.22 LIG 0.02  C 
ATOM      7  CD  PRO D 176      85.912  40.746  26.791  1.00 41.02 LIG 0.13  C 
ENDROOT
BRANCH 4 8
ATOM      8  C   PRO D 176      85.962  43.658  25.226  1.00 41.09 LIG 0.24  C 
ATOM      9  N   PHE D 177      86.207  44.962  25.157  1.00 41.46 LIG-0.34  N 
ATOM     10 H    PHE D 177      86.822  45.358  25.609  1.00 41.46 LIG 0.16  HD
ATOM     11 O    PRO D 176      84.988  43.131  24.665  1.00 40.08 LIG-0.27  OA
BRANCH 9 12
ATOM     12  CA  PHE D 177      85.435  45.847  24.291  1.00 42.13 LIG 0.19  C 
BRANCH 12 13
ATOM     13  CB  PHE D 177      84.391  46.630  25.099  1.00 40.75 LIG 0.07  C 
BRANCH 13 14
ATOM     14  CG  PHE D 177      83.542  45.773  25.999  1.00 38.35 LIG-0.06  A 
ATOM     15  CD1 PHE D 177      82.771  44.738  25.477  1.00 38.94 LIG 0.01  A 
ATOM     16  CE1 PHE D 177      81.993  43.946  26.306  1.00 37.83 LIG 0.00  A 
ATOM     17  CZ  PHE D 177      81.989  44.170  27.669  1.00 37.53 LIG 0.00  A 
ATOM     18  CE2 PHE D 177      82.760  45.187  28.205  1.00 36.58 LIG 0.00  A 
ATOM     19  CD2 PHE D 177      83.532  45.982  27.372  1.00 37.89 LIG 0.01  A 
ENDBRANCH 13 14
ENDBRANCH 12 13
BRANCH 12 20
ATOM     20  C   PHE D 177      86.371  46.798  23.562  1.00 42.35 LIG 0.20  C 
ATOM     21 OXT  PHE D 177      86.196  48.010  23.607  1.00 44.55 LIG-0.65  OA
ATOM     22 O    PHE D 177      87.328  46.370  22.917  1.00 42.35 LIG-0.65  OA
ENDBRANCH 12 20
ENDBRANCH 9 12
ENDBRANCH 4 8
BRANCH 1 23
ATOM     23  CA  ILE D 175      85.717  41.851  29.562  1.00 50.15 LIG 0.18  C 
BRANCH 23 24
ATOM     24  CB  ILE D 175      84.204  42.007  29.866  1.00 52.56 LIG 0.01  C 
ATOM     25  CG2 ILE D 175      83.334  41.363  28.787  1.00 53.60 LIG 0.01  C 
BRANCH 24 26
ATOM     26  CG1 ILE D 175      83.869  41.436  31.253  1.00 53.43 LIG 0.00  C 
ATOM     27  CD1 ILE D 175      83.894  42.466  32.363  1.00 54.83 LIG 0.01  C 
ENDBRANCH 24 26
ENDBRANCH 23 24
BRANCH 23 28
ATOM     28  N   ILE D 175      86.550  42.199  30.714  1.00 52.48 LIG-0.34  N 
ATOM     29 H    ILE D 175      86.349  42.946  31.089  1.00 52.48 LIG 0.16  HD
ATOM     30  C   ASP D 174      87.533  41.395  31.118  1.00 53.52 LIG 0.26  C 
ATOM     31 O    ASP D 174      87.649  40.237  30.721  1.00 50.42 LIG-0.27  OA
BRANCH 30 32
ATOM     32  CA  ASP D 174      88.508  41.942  32.164  1.00 56.25 LIG 0.41  C 
ATOM     33  N   ASP D 174      89.847  41.267  32.178  1.00 55.41 LIG 0.61  N 
BRANCH 32 34
ATOM     34  CB  ASP D 174      88.649  43.445  31.949  1.00 59.33 LIG 0.16  C 
BRANCH 34 35
ATOM     35  CG  ASP D 174      87.790  44.244  32.915  1.00 62.66 LIG 0.17  C 
ATOM     36 OD2  ASP D 174      88.340  45.091  33.656  1.00 62.95 LIG-0.65  OA
ATOM     37 OD1  ASP D 174      86.556  44.030  32.913  1.00 63.24 LIG-0.65  OA
ENDBRANCH 34 35
ENDBRANCH 32 34
ENDBRANCH 30 32
ENDBRANCH 23 28
ENDBRANCH 1 23
TORSDOF 12
ENDMDL
MODEL 39
USER: ADFR SOLUTION from run 59
USER: SCORE 14.599067 LL:  -4.094 LR: -11.164 RR:   0.000 FEB:  -7.584
USER: RMSD 5.062723
USER: SEED 58
USER: STATUS no improvement in best in 6 clusters for 5 generations
USER: GENES 14
USER: genes 0 Translation |==|  0.46783 0.53765 0.40389
USER: genes 1 Rotation |==|  0.44966 0.76698 0.87671 0.68515
USER: genes 2 Torsion [N]-CA--C-[O] |==|  0.42522
USER: genes 3 Torsion [C]-N--CA-[CB] |==|  0.85756
USER: genes 4 Torsion [N]-CA--CB-[CG] |==|  0.87460
USER: genes 5 Torsion [CA]-CB--CG-[CD2] |==|  0.37223
USER: genes 6 Torsion [N]-CA--C-[O] |==|  0.60110
USER: genes 7 Torsion [N]-C--CA-[N] |==|  0.79151
USER: genes 8 Torsion [C]-CA--CB-[CG2] |==|  0.17684
USER: genes 9 Torsion [CA]-CB--CG1-[CD1] |==|  0.55650
USER: genes 10 Torsion [C]-CA--N-[C] |==|  0.60113
USER: genes 11 Torsion [N]-C--CA-[N] |==|  0.79837
USER: genes 12 Torsion [C]-CA--CB-[CG] |==|  0.63655
USER: genes 13 Torsion [CA]-CB--CG-[OD2] |==|  0.74948
ROOT
ATOM      1  C   ILE D 175      85.261  44.962  29.094  1.00 46.12 LIG 0.24  C 
ATOM      2 O    ILE D 175      84.299  45.114  28.335  1.00 42.41 LIG-0.27  OA
ATOM      3  N   PRO D 176      86.535  45.072  28.669  1.00 41.83 LIG-0.34  N 
ATOM      4  CA  PRO D 176      86.837  45.549  27.318  1.00 39.90 LIG 0.18  C 
ATOM      5  CB  PRO D 176      88.244  46.112  27.489  1.00 38.91 LIG 0.04  C 
ATOM      6  CG  PRO D 176      88.871  45.164  28.460  1.00 40.22 LIG 0.02  C 
ATOM      7  CD  PRO D 176      87.771  44.719  29.394  1.00 41.02 LIG 0.13  C 
ENDROOT
BRANCH 4 8
ATOM      8  C   PRO D 176      86.810  44.446  26.243  1.00 41.09 LIG 0.24  C 
ATOM      9  N   PHE D 177      87.078  43.208  26.646  1.00 41.46 LIG-0.34  N 
ATOM     10 H    PHE D 177      87.345  43.011  27.440  1.00 41.46 LIG 0.16  HD
ATOM     11 O    PRO D 176      86.551  44.721  25.060  1.00 40.08 LIG-0.27  OA
BRANCH 9 12
ATOM     12  CA  PHE D 177      86.939  42.060  25.757  1.00 42.13 LIG 0.19  C 
BRANCH 12 13
ATOM     13  CB  PHE D 177      85.558  42.048  25.089  1.00 40.75 LIG 0.07  C 
BRANCH 13 14
ATOM     14  CG  PHE D 177      84.418  42.329  26.030  1.00 38.35 LIG-0.06  A 
ATOM     15  CD1 PHE D 177      84.358  41.716  27.279  1.00 38.94 LIG 0.01  A 
ATOM     16  CE1 PHE D 177      83.311  41.978  28.148  1.00 37.83 LIG 0.00  A 
ATOM     17  CZ  PHE D 177      82.319  42.869  27.784  1.00 37.53 LIG 0.00  A 
ATOM     18  CE2 PHE D 177      82.372  43.496  26.551  1.00 36.58 LIG 0.00  A 
ATOM     19  CD2 PHE D 177      83.417  43.226  25.682  1.00 37.89 LIG 0.01  A 
ENDBRANCH 13 14
ENDBRANCH 12 13
BRANCH 12 20
ATOM     20  C   PHE D 177      88.042  42.085  24.710  1.00 42.35 LIG 0.20  C 
ATOM     21 OXT  PHE D 177      89.171  42.467  24.995  1.00 44.55 LIG-0.65  OA
ATOM     22 O    PHE D 177      87.824  41.716  23.555  1.00 42.35 LIG-0.65  OA
ENDBRANCH 12 20
ENDBRANCH 9 12
ENDBRANCH 4 8
BRANCH 1 23
ATOM     23  CA  ILE D 175      85.031  44.660  30.592  1.00 50.15 LIG 0.18  C 
BRANCH 23 24
ATOM     24  CB  ILE D 175      85.848  45.598  31.519  1.00 52.56 LIG 0.01  C 
ATOM     25  CG2 ILE D 175      85.421  47.058  31.376  1.00 53.60 LIG 0.01  C 
BRANCH 24 26
ATOM     26  CG1 ILE D 175      85.743  45.138  32.982  1.00 53.43 LIG 0.00  C 
ATOM     27  CD1 ILE D 175      86.078  46.220  33.990  1.00 54.83 LIG 0.01  C 
ENDBRANCH 24 26
ENDBRANCH 23 24
BRANCH 23 28
ATOM     28  N   ILE D 175      85.346  43.249  30.818  1.00 52.48 LIG-0.34  N 
ATOM     29 H    ILE D 175      86.005  42.950  30.355  1.00 52.48 LIG 0.16  HD
ATOM     30  C   ASP D 174      84.643  42.519  31.683  1.00 53.52 LIG 0.26  C 
ATOM     31 O    ASP D 174      83.870  43.018  32.499  1.00 50.42 LIG-0.27  OA
BRANCH 30 32
ATOM     32  CA  ASP D 174      84.871  41.005  31.680  1.00 56.25 LIG 0.41  C 
ATOM     33  N   ASP D 174      84.294  40.292  30.494  1.00 55.41 LIG 0.61  N 
BRANCH 32 34
ATOM     34  CB  ASP D 174      86.368  40.745  31.806  1.00 59.33 LIG 0.16  C 
BRANCH 34 35
ATOM     35  CG  ASP D 174      86.868  39.757  30.766  1.00 62.66 LIG 0.17  C 
ATOM     36 OD2  ASP D 174      86.868  38.535  31.041  1.00 62.95 LIG-0.65  OA
ATOM     37 OD1  ASP D 174      87.242  40.212  29.661  1.00 63.24 LIG-0.65  OA
ENDBRANCH 34 35
ENDBRANCH 32 34
ENDBRANCH 30 32
ENDBRANCH 23 28
ENDBRANCH 1 23
TORSDOF 12
ENDMDL
MODEL 40
USER: ADFR SOLUTION from run 168
USER: SCORE 15.660767 LL:  -4.764 LR: -11.164 RR:   0.000 FEB:  -7.585
USER: RMSD 5.548044
USER: SEED 167
USER: STATUS no improvement in best in 5 clusters for 5 generations
USER: GENES 14
USER: genes 0 Translation |==|  0.57360 0.34444 0.33553
USER: genes 1 Rotation |==|  0.85280 0.42524 0.61109 0.82803
USER: genes 2 Torsion [N]-CA--C-[O] |==|  0.44390
USER: genes 3 Torsion [C]-N--CA-[CB] |==|  0.85446
USER: genes 4 Torsion [N]-CA--CB-[CG] |==|  0.87691
USER: genes 5 Torsion [CA]-CB--CG-[CD2] |==|  0.35051
USER: genes 6 Torsion [N]-CA--C-[O] |==|  0.89256
USER: genes 7 Torsion [N]-C--CA-[N] |==|  0.49815
USER: genes 8 Torsion [C]-CA--CB-[CG2] |==|  0.54554
USER: genes 9 Torsion [CA]-CB--CG1-[CD1] |==|  0.41713
USER: genes 10 Torsion [C]-CA--N-[C] |==|  0.78884
USER: genes 11 Torsion [N]-C--CA-[N] |==|  0.75694
USER: genes 12 Torsion [C]-CA--CB-[CG] |==|  0.72998
USER: genes 13 Torsion [CA]-CB--CG-[OD2] |==|  0.76756
ROOT
ATOM      1  C   ILE D 175      86.847  41.774  27.709  1.00 46.12 LIG 0.24  C 
ATOM      2 O    ILE D 175      87.763  42.271  28.372  1.00 42.41 LIG-0.27  OA
ATOM      3  N   PRO D 176      86.936  41.604  26.376  1.00 41.83 LIG-0.34  N 
ATOM      4  CA  PRO D 176      88.198  41.843  25.671  1.00 39.90 LIG 0.18  C 
ATOM      5  CB  PRO D 176      88.043  40.960  24.437  1.00 38.91 LIG 0.04  C 
ATOM      6  CG  PRO D 176      86.590  41.086  24.112  1.00 40.22 LIG 0.02  C 
ATOM      7  CD  PRO D 176      85.867  41.226  25.432  1.00 41.02 LIG 0.13  C 
ENDROOT
BRANCH 4 8
ATOM      8  C   PRO D 176      88.425  43.314  25.273  1.00 41.09 LIG 0.24  C 
ATOM      9  N   PHE D 177      87.350  44.093  25.214  1.00 41.46 LIG-0.34  N 
ATOM     10 H    PHE D 177      86.544  43.803  25.300  1.00 41.46 LIG 0.16  HD
ATOM     11 O    PRO D 176      89.566  43.732  25.020  1.00 40.08 LIG-0.27  OA
BRANCH 9 12
ATOM     12  CA  PHE D 177      87.450  45.532  24.995  1.00 42.13 LIG 0.19  C 
BRANCH 12 13
ATOM     13  CB  PHE D 177      88.418  46.172  25.999  1.00 40.75 LIG 0.07  C 
BRANCH 13 14
ATOM     14  CG  PHE D 177      88.243  45.690  27.414  1.00 38.35 LIG-0.06  A 
ATOM     15  CD1 PHE D 177      86.993  45.722  28.027  1.00 38.94 LIG 0.01  A 
ATOM     16  CE1 PHE D 177      86.831  45.275  29.328  1.00 37.83 LIG 0.00  A 
ATOM     17  CZ  PHE D 177      87.914  44.776  30.027  1.00 37.53 LIG 0.00  A 
ATOM     18  CE2 PHE D 177      89.160  44.725  29.426  1.00 36.58 LIG 0.00  A 
ATOM     19  CD2 PHE D 177      89.320  45.180  28.126  1.00 37.89 LIG 0.01  A 
ENDBRANCH 13 14
ENDBRANCH 12 13
BRANCH 12 20
ATOM     20  C   PHE D 177      87.900  45.804  23.569  1.00 42.35 LIG 0.20  C 
ATOM     21 OXT  PHE D 177      87.435  46.741  22.931  1.00 44.55 LIG-0.65  OA
ATOM     22 O    PHE D 177      88.744  45.091  23.026  1.00 42.35 LIG-0.65  OA
ENDBRANCH 12 20
ENDBRANCH 9 12
ENDBRANCH 4 8
BRANCH 1 23
ATOM     23  CA  ILE D 175      85.551  41.299  28.404  1.00 50.15 LIG 0.18  C 
BRANCH 23 24
ATOM     24  CB  ILE D 175      84.280  41.952  27.803  1.00 52.56 LIG 0.01  C 
ATOM     25  CG2 ILE D 175      83.069  41.803  28.724  1.00 53.60 LIG 0.01  C 
BRANCH 24 26
ATOM     26  CG1 ILE D 175      84.535  43.431  27.472  1.00 53.43 LIG 0.00  C 
ATOM     27  CD1 ILE D 175      83.716  43.949  26.307  1.00 54.83 LIG 0.01  C 
ENDBRANCH 24 26
ENDBRANCH 23 24
BRANCH 23 28
ATOM     28  N   ILE D 175      85.685  41.567  29.836  1.00 52.48 LIG-0.34  N 
ATOM     29 H    ILE D 175      85.241  42.247  30.117  1.00 52.48 LIG 0.16  HD
ATOM     30  C   ASP D 174      86.446  40.795  30.612  1.00 53.52 LIG 0.26  C 
ATOM     31 O    ASP D 174      86.877  39.704  30.243  1.00 50.42 LIG-0.27  OA
BRANCH 30 32
ATOM     32  CA  ASP D 174      86.730  41.284  32.034  1.00 56.25 LIG 0.41  C 
ATOM     33  N   ASP D 174      87.925  42.180  32.157  1.00 55.41 LIG 0.61  N 
BRANCH 32 34
ATOM     34  CB  ASP D 174      85.473  41.963  32.569  1.00 59.33 LIG 0.16  C 
BRANCH 34 35
ATOM     35  CG  ASP D 174      85.528  43.473  32.413  1.00 62.66 LIG 0.17  C 
ATOM     36 OD2  ASP D 174      86.123  44.150  33.283  1.00 62.95 LIG-0.65  OA
ATOM     37 OD1  ASP D 174      84.988  43.976  31.402  1.00 63.24 LIG-0.65  OA
ENDBRANCH 34 35
ENDBRANCH 32 34
ENDBRANCH 30 32
ENDBRANCH 23 28
ENDBRANCH 1 23
TORSDOF 12
ENDMDL
MODEL 41
USER: ADFR SOLUTION from run 76
USER: SCORE 15.134821 LL:  -4.004 LR: -11.157 RR:   0.000 FEB:  -7.578
USER: RMSD 6.957879
USER: SEED 75
USER: STATUS no improvement in best in 9 clusters for 5 generations
USER: GENES 14
USER: genes 0 Translation |==|  0.49802 0.57148 0.31222
USER: genes 1 Rotation |==|  0.07483 0.34680 0.50115 0.71391
USER: genes 2 Torsion [N]-CA--C-[O] |==|  0.50243
USER: genes 3 Torsion [C]-N--CA-[CB] |==|  0.49504
USER: genes 4 Torsion [N]-CA--CB-[CG] |==|  0.93299
USER: genes 5 Torsion [CA]-CB--CG-[CD2] |==|  0.35563
USER: genes 6 Torsion [N]-CA--C-[O] |==|  0.87200
USER: genes 7 Torsion [N]-C--CA-[N] |==|  0.40679
USER: genes 8 Torsion [C]-CA--CB-[CG2] |==|  0.41448
USER: genes 9 Torsion [CA]-CB--CG1-[CD1] |==|  0.61977
USER: genes 10 Torsion [C]-CA--N-[C] |==|  0.83022
USER: genes 11 Torsion [N]-C--CA-[N] |==|  0.55358
USER: genes 12 Torsion [C]-CA--CB-[CG] |==|  0.23499
USER: genes 13 Torsion [CA]-CB--CG-[OD2] |==|  0.60203
ROOT
ATOM      1  C   ILE D 175      85.713  45.520  27.237  1.00 46.12 LIG 0.24  C 
ATOM      2 O    ILE D 175      86.799  45.801  27.753  1.00 42.41 LIG-0.27  OA
ATOM      3  N   PRO D 176      84.540  45.891  27.787  1.00 41.83 LIG-0.34  N 
ATOM      4  CA  PRO D 176      84.503  46.798  28.936  1.00 39.90 LIG 0.18  C 
ATOM      5  CB  PRO D 176      83.118  47.423  28.801  1.00 38.91 LIG 0.04  C 
ATOM      6  CG  PRO D 176      82.284  46.289  28.299  1.00 40.22 LIG 0.02  C 
ATOM      7  CD  PRO D 176      83.180  45.460  27.409  1.00 41.02 LIG 0.13  C 
ENDROOT
BRANCH 4 8
ATOM      8  C   PRO D 176      84.660  46.092  30.297  1.00 41.09 LIG 0.24  C 
ATOM      9  N   PHE D 177      84.822  44.773  30.273  1.00 41.46 LIG-0.34  N 
ATOM     10 H    PHE D 177      84.758  44.296  29.561  1.00 41.46 LIG 0.16  HD
ATOM     11 O    PRO D 176      84.631  46.742  31.354  1.00 40.08 LIG-0.27  OA
BRANCH 9 12
ATOM     12  CA  PHE D 177      85.129  44.012  31.480  1.00 42.13 LIG 0.19  C 
BRANCH 12 13
ATOM     13  CB  PHE D 177      85.219  42.512  31.172  1.00 40.75 LIG 0.07  C 
BRANCH 13 14
ATOM     14  CG  PHE D 177      84.452  42.089  29.949  1.00 38.35 LIG-0.06  A 
ATOM     15  CD1 PHE D 177      83.118  42.454  29.783  1.00 38.94 LIG 0.01  A 
ATOM     16  CE1 PHE D 177      82.413  42.068  28.655  1.00 37.83 LIG 0.00  A 
ATOM     17  CZ  PHE D 177      83.038  41.326  27.671  1.00 37.53 LIG 0.00  A 
ATOM     18  CE2 PHE D 177      84.367  40.966  27.815  1.00 36.58 LIG 0.00  A 
ATOM     19  CD2 PHE D 177      85.067  41.348  28.948  1.00 37.89 LIG 0.01  A 
ENDBRANCH 13 14
ENDBRANCH 12 13
BRANCH 12 20
ATOM     20  C   PHE D 177      86.430  44.514  32.086  1.00 42.35 LIG 0.20  C 
ATOM     21 OXT  PHE D 177      86.522  44.727  33.289  1.00 44.55 LIG-0.65  OA
ATOM     22 O    PHE D 177      87.421  44.711  31.382  1.00 42.35 LIG-0.65  OA
ENDBRANCH 12 20
ENDBRANCH 9 12
ENDBRANCH 4 8
BRANCH 1 23
ATOM     23  CA  ILE D 175      85.662  44.740  25.905  1.00 50.15 LIG 0.18  C 
BRANCH 23 24
ATOM     24  CB  ILE D 175      85.574  43.206  26.116  1.00 52.56 LIG 0.01  C 
ATOM     25  CG2 ILE D 175      84.802  42.517  24.992  1.00 53.60 LIG 0.01  C 
BRANCH 24 26
ATOM     26  CG1 ILE D 175      86.977  42.599  26.269  1.00 53.43 LIG 0.00  C 
ATOM     27  CD1 ILE D 175      87.173  41.306  25.503  1.00 54.83 LIG 0.01  C 
ENDBRANCH 24 26
ENDBRANCH 23 24
BRANCH 23 28
ATOM     28  N   ILE D 175      86.833  45.122  25.116  1.00 52.48 LIG-0.34  N 
ATOM     29 H    ILE D 175      87.368  44.474  24.930  1.00 52.48 LIG 0.16  HD
ATOM     30  C   ASP D 174      87.023  46.384  24.733  1.00 53.52 LIG 0.26  C 
ATOM     31 O    ASP D 174      86.141  47.238  24.803  1.00 50.42 LIG-0.27  OA
BRANCH 30 32
ATOM     32  CA  ASP D 174      88.384  46.744  24.131  1.00 56.25 LIG 0.41  C 
ATOM     33  N   ASP D 174      88.701  48.209  24.145  1.00 55.41 LIG 0.61  N 
BRANCH 32 34
ATOM     34  CB  ASP D 174      89.457  45.939  24.856  1.00 59.33 LIG 0.16  C 
BRANCH 34 35
ATOM     35  CG  ASP D 174      89.625  44.549  24.267  1.00 62.66 LIG 0.17  C 
ATOM     36 OD2  ASP D 174      89.868  43.591  25.036  1.00 62.95 LIG-0.65  OA
ATOM     37 OD1  ASP D 174      89.494  44.420  23.028  1.00 63.24 LIG-0.65  OA
ENDBRANCH 34 35
ENDBRANCH 32 34
ENDBRANCH 30 32
ENDBRANCH 23 28
ENDBRANCH 1 23
TORSDOF 12
ENDMDL
MODEL 42
USER: ADFR SOLUTION from run 195
USER: SCORE 14.583542 LL:  -3.982 LR: -11.114 RR:   0.000 FEB:  -7.534
USER: RMSD 5.035316
USER: SEED 194
USER: STATUS no improvement in best in 2 clusters for 5 generations
USER: GENES 14
USER: genes 0 Translation |==|  0.56680 0.30240 0.37715
USER: genes 1 Rotation |==|  0.76056 0.51198 0.22263 0.82409
USER: genes 2 Torsion [N]-CA--C-[O] |==|  0.58402
USER: genes 3 Torsion [C]-N--CA-[CB] |==|  0.26725
USER: genes 4 Torsion [N]-CA--CB-[CG] |==|  0.91617
USER: genes 5 Torsion [CA]-CB--CG-[CD2] |==|  0.75893
USER: genes 6 Torsion [N]-CA--C-[O] |==|  0.95504
USER: genes 7 Torsion [N]-C--CA-[N] |==|  0.81687
USER: genes 8 Torsion [C]-CA--CB-[CG2] |==|  0.27429
USER: genes 9 Torsion [CA]-CB--CG1-[CD1] |==|  0.33610
USER: genes 10 Torsion [C]-CA--N-[C] |==|  0.66229
USER: genes 11 Torsion [N]-C--CA-[N] |==|  0.44282
USER: genes 12 Torsion [C]-CA--CB-[CG] |==|  0.77955
USER: genes 13 Torsion [CA]-CB--CG-[OD2] |==|  0.97371
ROOT
ATOM      1  C   ILE D 175      86.745  41.081  28.552  1.00 46.12 LIG 0.24  C 
ATOM      2 O    ILE D 175      87.462  40.553  27.697  1.00 42.41 LIG-0.27  OA
ATOM      3  N   PRO D 176      85.507  41.532  28.272  1.00 41.83 LIG-0.34  N 
ATOM      4  CA  PRO D 176      84.885  41.259  26.974  1.00 39.90 LIG 0.18  C 
ATOM      5  CB  PRO D 176      83.400  41.343  27.312  1.00 38.91 LIG 0.04  C 
ATOM      6  CG  PRO D 176      83.344  42.444  28.321  1.00 40.22 LIG 0.02  C 
ATOM      7  CD  PRO D 176      84.625  42.358  29.119  1.00 41.02 LIG 0.13  C 
ENDROOT
BRANCH 4 8
ATOM      8  C   PRO D 176      85.259  42.272  25.875  1.00 41.09 LIG 0.24  C 
ATOM      9  N   PHE D 177      86.458  42.839  25.965  1.00 41.46 LIG-0.34  N 
ATOM     10 H    PHE D 177      86.986  42.737  26.636  1.00 41.46 LIG 0.16  HD
ATOM     11 O    PRO D 176      84.463  42.536  24.960  1.00 40.08 LIG-0.27  OA
BRANCH 9 12
ATOM     12  CA  PHE D 177      86.986  43.698  24.910  1.00 42.13 LIG 0.19  C 
BRANCH 12 13
ATOM     13  CB  PHE D 177      86.730  45.177  25.229  1.00 40.75 LIG 0.07  C 
BRANCH 13 14
ATOM     14  CG  PHE D 177      85.486  45.424  26.040  1.00 38.35 LIG-0.06  A 
ATOM     15  CD1 PHE D 177      85.549  45.525  27.427  1.00 38.94 LIG 0.01  A 
ATOM     16  CE1 PHE D 177      84.404  45.757  28.173  1.00 37.83 LIG 0.00  A 
ATOM     17  CZ  PHE D 177      83.185  45.905  27.539  1.00 37.53 LIG 0.00  A 
ATOM     18  CE2 PHE D 177      83.109  45.819  26.159  1.00 36.58 LIG 0.00  A 
ATOM     19  CD2 PHE D 177      84.255  45.581  25.417  1.00 37.89 LIG 0.01  A 
ENDBRANCH 13 14
ENDBRANCH 12 13
BRANCH 12 20
ATOM     20  C   PHE D 177      88.474  43.438  24.733  1.00 42.35 LIG 0.20  C 
ATOM     21 OXT  PHE D 177      89.063  43.823  23.730  1.00 44.55 LIG-0.65  OA
ATOM     22 O    PHE D 177      89.118  42.841  25.595  1.00 42.35 LIG-0.65  OA
ENDBRANCH 12 20
ENDBRANCH 9 12
ENDBRANCH 4 8
BRANCH 1 23
ATOM     23  CA  ILE D 175      87.243  41.222  30.008  1.00 50.15 LIG 0.18  C 
BRANCH 23 24
ATOM     24  CB  ILE D 175      86.322  40.498  31.025  1.00 52.56 LIG 0.01  C 
ATOM     25  CG2 ILE D 175      86.868  39.125  31.415  1.00 53.60 LIG 0.01  C 
BRANCH 24 26
ATOM     26  CG1 ILE D 175      86.096  41.371  32.269  1.00 53.43 LIG 0.00  C 
ATOM     27  CD1 ILE D 175      84.641  41.699  32.533  1.00 54.83 LIG 0.01  C 
ENDBRANCH 24 26
ENDBRANCH 23 24
BRANCH 23 28
ATOM     28  N   ILE D 175      87.374  42.649  30.302  1.00 52.48 LIG-0.34  N 
ATOM     29 H    ILE D 175      86.649  43.102  30.209  1.00 52.48 LIG 0.16  HD
ATOM     30  C   ASP D 174      88.541  43.169  30.680  1.00 53.52 LIG 0.26  C 
ATOM     31 O    ASP D 174      89.494  42.475  31.031  1.00 50.42 LIG-0.27  OA
BRANCH 30 32
ATOM     32  CA  ASP D 174      88.654  44.695  30.726  1.00 56.25 LIG 0.41  C 
ATOM     33  N   ASP D 174      89.766  45.210  31.589  1.00 55.41 LIG 0.61  N 
BRANCH 32 34
ATOM     34  CB  ASP D 174      88.781  45.210  29.296  1.00 59.33 LIG 0.16  C 
BRANCH 34 35
ATOM     35  CG  ASP D 174      90.192  45.054  28.755  1.00 62.66 LIG 0.17  C 
ATOM     36 OD2  ASP D 174      91.108  44.717  29.540  1.00 62.95 LIG-0.65  OA
ATOM     37 OD1  ASP D 174      90.375  45.254  27.532  1.00 63.24 LIG-0.65  OA
ENDBRANCH 34 35
ENDBRANCH 32 34
ENDBRANCH 30 32
ENDBRANCH 23 28
ENDBRANCH 1 23
TORSDOF 12
ENDMDL
MODEL 43
USER: ADFR SOLUTION from run 40
USER: SCORE 14.616954 LL:  -3.896 LR: -11.085 RR:   0.000 FEB:  -7.506
USER: RMSD 4.447576
USER: SEED 39
USER: STATUS no improvement in best in 12 clusters for 5 generations
USER: GENES 14
USER: genes 0 Translation |==|  0.42844 0.53273 0.31972
USER: genes 1 Rotation |==|  0.20701 0.72844 0.79720 0.65375
USER: genes 2 Torsion [N]-CA--C-[O] |==|  0.74304
USER: genes 3 Torsion [C]-N--CA-[CB] |==|  0.37409
USER: genes 4 Torsion [N]-CA--CB-[CG] |==|  0.91355
USER: genes 5 Torsion [CA]-CB--CG-[CD2] |==|  0.75211
USER: genes 6 Torsion [N]-CA--C-[O] |==|  0.98057
USER: genes 7 Torsion [N]-C--CA-[N] |==|  0.86905
USER: genes 8 Torsion [C]-CA--CB-[CG2] |==|  0.71434
USER: genes 9 Torsion [CA]-CB--CG1-[CD1] |==|  0.70208
USER: genes 10 Torsion [C]-CA--N-[C] |==|  0.69578
USER: genes 11 Torsion [N]-C--CA-[N] |==|  0.57051
USER: genes 12 Torsion [C]-CA--CB-[CG] |==|  0.37499
USER: genes 13 Torsion [CA]-CB--CG-[OD2] |==|  0.95627
ROOT
ATOM      1  C   ILE D 175      84.670  44.881  27.389  1.00 46.12 LIG 0.24  C 
ATOM      2 O    ILE D 175      84.641  44.287  26.308  1.00 42.41 LIG-0.27  OA
ATOM      3  N   PRO D 176      85.708  45.659  27.753  1.00 41.83 LIG-0.34  N 
ATOM      4  CA  PRO D 176      86.778  45.975  26.805  1.00 39.90 LIG 0.18  C 
ATOM      5  CB  PRO D 176      87.314  47.291  27.360  1.00 38.91 LIG 0.04  C 
ATOM      6  CG  PRO D 176      87.210  47.100  28.839  1.00 40.22 LIG 0.02  C 
ATOM      7  CD  PRO D 176      85.980  46.255  29.076  1.00 41.02 LIG 0.13  C 
ENDROOT
BRANCH 4 8
ATOM      8  C   PRO D 176      87.890  44.910  26.736  1.00 41.09 LIG 0.24  C 
ATOM      9  N   PHE D 177      87.703  43.901  25.891  1.00 41.46 LIG-0.34  N 
ATOM     10 H    PHE D 177      86.972  43.770  25.457  1.00 41.46 LIG 0.16  HD
ATOM     11 O    PRO D 176      88.902  45.006  27.448  1.00 40.08 LIG-0.27  OA
BRANCH 9 12
ATOM     12  CA  PHE D 177      88.743  42.913  25.628  1.00 42.13 LIG 0.19  C 
BRANCH 12 13
ATOM     13  CB  PHE D 177      88.167  41.491  25.652  1.00 40.75 LIG 0.07  C 
BRANCH 13 14
ATOM     14  CG  PHE D 177      87.006  41.315  26.593  1.00 38.35 LIG-0.06  A 
ATOM     15  CD1 PHE D 177      85.697  41.483  26.147  1.00 38.94 LIG 0.01  A 
ATOM     16  CE1 PHE D 177      84.628  41.317  27.012  1.00 37.83 LIG 0.00  A 
ATOM     17  CZ  PHE D 177      84.853  40.966  28.329  1.00 37.53 LIG 0.00  A 
ATOM     18  CE2 PHE D 177      86.148  40.784  28.784  1.00 36.58 LIG 0.00  A 
ATOM     19  CD2 PHE D 177      87.216  40.957  27.917  1.00 37.89 LIG 0.01  A 
ENDBRANCH 13 14
ENDBRANCH 12 13
BRANCH 12 20
ATOM     20  C   PHE D 177      89.398  43.203  24.286  1.00 42.35 LIG 0.20  C 
ATOM     21 OXT  PHE D 177      90.381  42.571  23.917  1.00 44.55 LIG-0.65  OA
ATOM     22 O    PHE D 177      88.951  44.074  23.540  1.00 42.35 LIG-0.65  OA
ENDBRANCH 12 20
ENDBRANCH 9 12
ENDBRANCH 4 8
BRANCH 1 23
ATOM     23  CA  ILE D 175      83.482  44.771  28.371  1.00 50.15 LIG 0.18  C 
BRANCH 23 24
ATOM     24  CB  ILE D 175      82.567  46.023  28.341  1.00 52.56 LIG 0.01  C 
ATOM     25  CG2 ILE D 175      82.810  46.939  29.540  1.00 53.60 LIG 0.01  C 
BRANCH 24 26
ATOM     26  CG1 ILE D 175      82.743  46.791  27.022  1.00 53.43 LIG 0.00  C 
ATOM     27  CD1 ILE D 175      83.503  48.094  27.167  1.00 54.83 LIG 0.01  C 
ENDBRANCH 24 26
ENDBRANCH 23 24
BRANCH 23 28
ATOM     28  N   ILE D 175      84.025  44.517  29.706  1.00 52.48 LIG-0.34  N 
ATOM     29 H    ILE D 175      84.435  45.185  30.059  1.00 52.48 LIG 0.16  HD
ATOM     30  C   ASP D 174      83.875  43.332  30.295  1.00 53.52 LIG 0.26  C 
ATOM     31 O    ASP D 174      83.092  42.479  29.880  1.00 50.42 LIG-0.27  OA
BRANCH 30 32
ATOM     32  CA  ASP D 174      84.678  43.069  31.572  1.00 56.25 LIG 0.41  C 
ATOM     33  N   ASP D 174      84.950  41.621  31.848  1.00 55.41 LIG 0.61  N 
BRANCH 32 34
ATOM     34  CB  ASP D 174      85.974  43.871  31.497  1.00 59.33 LIG 0.16  C 
BRANCH 34 35
ATOM     35  CG  ASP D 174      86.279  44.588  32.800  1.00 62.66 LIG 0.17  C 
ATOM     36 OD2  ASP D 174      85.368  44.715  33.650  1.00 62.95 LIG-0.65  OA
ATOM     37 OD1  ASP D 174      87.446  45.007  32.977  1.00 63.24 LIG-0.65  OA
ENDBRANCH 34 35
ENDBRANCH 32 34
ENDBRANCH 30 32
ENDBRANCH 23 28
ENDBRANCH 1 23
TORSDOF 12
ENDMDL
MODEL 44
USER: ADFR SOLUTION from run 80
USER: SCORE 15.399966 LL:  -4.335 LR: -11.076 RR:   0.000 FEB:  -7.496
USER: RMSD 6.587544
USER: SEED 79
USER: STATUS no improvement in best in 5 clusters for 5 generations
USER: GENES 14
USER: genes 0 Translation |==|  0.43557 0.57506 0.28145
USER: genes 1 Rotation |==|  0.23103 0.54985 0.67317 0.88103
USER: genes 2 Torsion [N]-CA--C-[O] |==|  0.62349
USER: genes 3 Torsion [C]-N--CA-[CB] |==|  0.26964
USER: genes 4 Torsion [N]-CA--CB-[CG] |==|  0.87854
USER: genes 5 Torsion [CA]-CB--CG-[CD2] |==|  0.75622
USER: genes 6 Torsion [N]-CA--C-[O] |==|  0.79357
USER: genes 7 Torsion [N]-C--CA-[N] |==|  0.41620
USER: genes 8 Torsion [C]-CA--CB-[CG2] |==|  0.95544
USER: genes 9 Torsion [CA]-CB--CG1-[CD1] |==|  0.65850
USER: genes 10 Torsion [C]-CA--N-[C] |==|  0.80000
USER: genes 11 Torsion [N]-C--CA-[N] |==|  0.57674
USER: genes 12 Torsion [C]-CA--CB-[CG] |==|  0.78173
USER: genes 13 Torsion [CA]-CB--CG-[OD2] |==|  0.99373
ROOT
ATOM      1  C   ILE D 175      84.777  45.580  26.614  1.00 46.12 LIG 0.24  C 
ATOM      2 O    ILE D 175      85.688  45.713  25.793  1.00 42.41 LIG-0.27  OA
ATOM      3  N   PRO D 176      85.015  45.314  27.914  1.00 41.83 LIG-0.34  N 
ATOM      4  CA  PRO D 176      86.378  45.343  28.448  1.00 39.90 LIG 0.18  C 
ATOM      5  CB  PRO D 176      86.132  45.637  29.925  1.00 38.91 LIG 0.04  C 
ATOM      6  CG  PRO D 176      84.879  44.876  30.216  1.00 40.22 LIG 0.02  C 
ATOM      7  CD  PRO D 176      84.045  44.926  28.957  1.00 41.02 LIG 0.13  C 
ENDROOT
BRANCH 4 8
ATOM      8  C   PRO D 176      87.150  44.022  28.269  1.00 41.09 LIG 0.24  C 
ATOM      9  N   PHE D 177      87.056  43.429  27.083  1.00 41.46 LIG-0.34  N 
ATOM     10 H    PHE D 177      86.530  43.693  26.457  1.00 41.46 LIG 0.16  HD
ATOM     11 O    PRO D 176      87.819  43.549  29.201  1.00 40.08 LIG-0.27  OA
BRANCH 9 12
ATOM     12  CA  PHE D 177      87.855  42.257  26.742  1.00 42.13 LIG 0.19  C 
BRANCH 12 13
ATOM     13  CB  PHE D 177      87.054  40.966  26.959  1.00 40.75 LIG 0.07  C 
BRANCH 13 14
ATOM     14  CG  PHE D 177      86.269  40.939  28.243  1.00 38.35 LIG-0.06  A 
ATOM     15  CD1 PHE D 177      84.938  41.345  28.272  1.00 38.94 LIG 0.01  A 
ATOM     16  CE1 PHE D 177      84.214  41.316  29.452  1.00 37.83 LIG 0.00  A 
ATOM     17  CZ  PHE D 177      84.808  40.866  30.616  1.00 37.53 LIG 0.00  A 
ATOM     18  CE2 PHE D 177      86.128  40.447  30.600  1.00 36.58 LIG 0.00  A 
ATOM     19  CD2 PHE D 177      86.851  40.483  29.418  1.00 37.89 LIG 0.01  A 
ENDBRANCH 13 14
ENDBRANCH 12 13
BRANCH 12 20
ATOM     20  C   PHE D 177      88.326  42.359  25.300  1.00 42.35 LIG 0.20  C 
ATOM     21 OXT  PHE D 177      89.493  42.627  25.037  1.00 44.55 LIG-0.65  OA
ATOM     22 O    PHE D 177      87.547  42.169  24.365  1.00 42.35 LIG-0.65  OA
ENDBRANCH 12 20
ENDBRANCH 9 12
ENDBRANCH 4 8
BRANCH 1 23
ATOM     23  CA  ILE D 175      83.303  45.740  26.177  1.00 50.15 LIG 0.18  C 
BRANCH 23 24
ATOM     24  CB  ILE D 175      82.635  44.384  25.831  1.00 52.56 LIG 0.01  C 
ATOM     25  CG2 ILE D 175      83.665  43.274  25.623  1.00 53.60 LIG 0.01  C 
BRANCH 24 26
ATOM     26  CG1 ILE D 175      81.618  43.989  26.914  1.00 53.43 LIG 0.00  C 
ATOM     27  CD1 ILE D 175      81.890  42.639  27.548  1.00 54.83 LIG 0.01  C 
ENDBRANCH 24 26
ENDBRANCH 23 24
BRANCH 23 28
ATOM     28  N   ILE D 175      83.268  46.675  25.052  1.00 52.48 LIG-0.34  N 
ATOM     29 H    ILE D 175      83.098  46.313  24.291  1.00 52.48 LIG 0.16  HD
ATOM     30  C   ASP D 174      83.486  47.976  25.233  1.00 53.52 LIG 0.26  C 
ATOM     31 O    ASP D 174      83.491  48.500  26.347  1.00 50.42 LIG-0.27  OA
BRANCH 30 32
ATOM     32  CA  ASP D 174      83.677  48.842  23.985  1.00 56.25 LIG 0.41  C 
ATOM     33  N   ASP D 174      84.523  50.061  24.199  1.00 55.41 LIG 0.61  N 
BRANCH 32 34
ATOM     34  CB  ASP D 174      84.243  47.964  22.874  1.00 59.33 LIG 0.16  C 
BRANCH 34 35
ATOM     35  CG  ASP D 174      85.734  47.723  23.039  1.00 62.66 LIG 0.17  C 
ATOM     36 OD2  ASP D 174      86.335  48.272  23.991  1.00 62.95 LIG-0.65  OA
ATOM     37 OD1  ASP D 174      86.297  46.963  22.218  1.00 63.24 LIG-0.65  OA
ENDBRANCH 34 35
ENDBRANCH 32 34
ENDBRANCH 30 32
ENDBRANCH 23 28
ENDBRANCH 1 23
TORSDOF 12
ENDMDL
MODEL 45
USER: ADFR SOLUTION from run 154
USER: SCORE 15.224910 LL:  -4.265 LR: -11.050 RR:   0.000 FEB:  -7.471
USER: RMSD 5.320362
USER: SEED 153
USER: STATUS no improvement in best in 7 clusters for 5 generations
USER: GENES 14
USER: genes 0 Translation |==|  0.58265 0.36911 0.33319
USER: genes 1 Rotation |==|  0.84555 0.41010 0.58096 0.84052
USER: genes 2 Torsion [N]-CA--C-[O] |==|  0.68336
USER: genes 3 Torsion [C]-N--CA-[CB] |==|  0.31129
USER: genes 4 Torsion [N]-CA--CB-[CG] |==|  0.86337
USER: genes 5 Torsion [CA]-CB--CG-[CD2] |==|  0.22822
USER: genes 6 Torsion [N]-CA--C-[O] |==|  0.24452
USER: genes 7 Torsion [N]-C--CA-[N] |==|  0.46770
USER: genes 8 Torsion [C]-CA--CB-[CG2] |==|  0.40459
USER: genes 9 Torsion [CA]-CB--CG1-[CD1] |==|  0.50908
USER: genes 10 Torsion [C]-CA--N-[C] |==|  0.80000
USER: genes 11 Torsion [N]-C--CA-[N] |==|  0.73508
USER: genes 12 Torsion [C]-CA--CB-[CG] |==|  0.74659
USER: genes 13 Torsion [CA]-CB--CG-[OD2] |==|  0.06403
ROOT
ATOM      1  C   ILE D 175      86.983  42.181  27.662  1.00 46.12 LIG 0.24  C 
ATOM      2 O    ILE D 175      87.988  42.560  28.270  1.00 42.41 LIG-0.27  OA
ATOM      3  N   PRO D 176      86.984  41.975  26.331  1.00 41.83 LIG-0.34  N 
ATOM      4  CA  PRO D 176      88.232  42.024  25.565  1.00 39.90 LIG 0.18  C 
ATOM      5  CB  PRO D 176      87.899  41.146  24.362  1.00 38.91 LIG 0.04  C 
ATOM      6  CG  PRO D 176      86.463  41.465  24.099  1.00 40.22 LIG 0.02  C 
ATOM      7  CD  PRO D 176      85.829  41.729  25.445  1.00 41.02 LIG 0.13  C 
ENDROOT
BRANCH 4 8
ATOM      8  C   PRO D 176      88.638  43.442  25.119  1.00 41.09 LIG 0.24  C 
ATOM      9  N   PHE D 177      88.958  44.304  26.078  1.00 41.46 LIG-0.34  N 
ATOM     10 H    PHE D 177      88.868  44.140  26.918  1.00 41.46 LIG 0.16  HD
ATOM     11 O    PRO D 176      88.655  43.746  23.916  1.00 40.08 LIG-0.27  OA
BRANCH 9 12
ATOM     12  CA  PHE D 177      89.500  45.625  25.779  1.00 42.13 LIG 0.19  C 
BRANCH 12 13
ATOM     13  CB  PHE D 177      88.500  46.725  26.159  1.00 40.75 LIG 0.07  C 
BRANCH 13 14
ATOM     14  CG  PHE D 177      87.107  46.494  25.639  1.00 38.35 LIG-0.06  A 
ATOM     15  CD1 PHE D 177      86.679  47.093  24.457  1.00 38.94 LIG 0.01  A 
ATOM     16  CE1 PHE D 177      85.398  46.877  23.977  1.00 37.83 LIG 0.00  A 
ATOM     17  CZ  PHE D 177      84.533  46.047  24.665  1.00 37.53 LIG 0.00  A 
ATOM     18  CE2 PHE D 177      84.948  45.434  25.835  1.00 36.58 LIG 0.00  A 
ATOM     19  CD2 PHE D 177      86.229  45.658  26.316  1.00 37.89 LIG 0.01  A 
ENDBRANCH 13 14
ENDBRANCH 12 13
BRANCH 12 20
ATOM     20  C   PHE D 177      90.816  45.819  26.516  1.00 42.35 LIG 0.20  C 
ATOM     21 OXT  PHE D 177      90.843  46.327  27.631  1.00 44.55 LIG-0.65  OA
ATOM     22 O    PHE D 177      91.881  45.466  26.010  1.00 42.35 LIG-0.65  OA
ENDBRANCH 12 20
ENDBRANCH 9 12
ENDBRANCH 4 8
BRANCH 1 23
ATOM     23  CA  ILE D 175      85.669  41.902  28.426  1.00 50.15 LIG 0.18  C 
BRANCH 23 24
ATOM     24  CB  ILE D 175      84.541  42.899  28.054  1.00 52.56 LIG 0.01  C 
ATOM     25  CG2 ILE D 175      83.163  42.237  28.072  1.00 53.60 LIG 0.01  C 
BRANCH 24 26
ATOM     26  CG1 ILE D 175      84.572  44.123  28.981  1.00 53.43 LIG 0.00  C 
ATOM     27  CD1 ILE D 175      83.449  45.110  28.732  1.00 54.83 LIG 0.01  C 
ENDBRANCH 24 26
ENDBRANCH 23 24
BRANCH 23 28
ATOM     28  N   ILE D 175      85.970  41.919  29.858  1.00 52.48 LIG-0.34  N 
ATOM     29 H    ILE D 175      85.669  42.606  30.279  1.00 52.48 LIG 0.16  HD
ATOM     30  C   ASP D 174      86.658  40.931  30.427  1.00 53.52 LIG 0.26  C 
ATOM     31 O    ASP D 174      86.870  39.859  29.863  1.00 50.42 LIG-0.27  OA
BRANCH 30 32
ATOM     32  CA  ASP D 174      87.142  41.142  31.864  1.00 56.25 LIG 0.41  C 
ATOM     33  N   ASP D 174      88.549  41.648  31.978  1.00 55.41 LIG 0.61  N 
BRANCH 32 34
ATOM     34  CB  ASP D 174      86.161  42.074  32.569  1.00 59.33 LIG 0.16  C 
BRANCH 34 35
ATOM     35  CG  ASP D 174      86.565  43.532  32.441  1.00 62.66 LIG 0.17  C 
ATOM     36 OD2  ASP D 174      87.305  43.875  31.491  1.00 62.95 LIG-0.65  OA
ATOM     37 OD1  ASP D 174      86.118  44.339  33.289  1.00 63.24 LIG-0.65  OA
ENDBRANCH 34 35
ENDBRANCH 32 34
ENDBRANCH 30 32
ENDBRANCH 23 28
ENDBRANCH 1 23
TORSDOF 12
ENDMDL
MODEL 46
USER: ADFR SOLUTION from run 28
USER: SCORE 15.532892 LL:  -4.550 LR: -11.039 RR:   0.000 FEB:  -7.459
USER: RMSD 4.060261
USER: SEED 27
USER: STATUS no improvement in best in 6 clusters for 5 generations
USER: GENES 14
USER: genes 0 Translation |==|  0.51917 0.58389 0.37684
USER: genes 1 Rotation |==|  0.41875 0.55021 0.57734 0.98466
USER: genes 2 Torsion [N]-CA--C-[O] |==|  0.62979
USER: genes 3 Torsion [C]-N--CA-[CB] |==|  0.31360
USER: genes 4 Torsion [N]-CA--CB-[CG] |==|  0.94249
USER: genes 5 Torsion [CA]-CB--CG-[CD2] |==|  0.33348
USER: genes 6 Torsion [N]-CA--C-[O] |==|  0.21614
USER: genes 7 Torsion [N]-C--CA-[N] |==|  0.45840
USER: genes 8 Torsion [C]-CA--CB-[CG2] |==|  0.36670
USER: genes 9 Torsion [CA]-CB--CG1-[CD1] |==|  0.20717
USER: genes 10 Torsion [C]-CA--N-[C] |==|  0.78262
USER: genes 11 Torsion [N]-C--CA-[N] |==|  0.97103
USER: genes 12 Torsion [C]-CA--CB-[CG] |==|  0.81636
USER: genes 13 Torsion [CA]-CB--CG-[OD2] |==|  0.94347
ROOT
ATOM      1  C   ILE D 175      86.030  45.725  28.546  1.00 46.12 LIG 0.24  C 
ATOM      2 O    ILE D 175      87.033  45.949  27.862  1.00 42.41 LIG-0.27  OA
ATOM      3  N   PRO D 176      85.880  44.584  29.247  1.00 41.83 LIG-0.34  N 
ATOM      4  CA  PRO D 176      86.981  43.626  29.368  1.00 39.90 LIG 0.18  C 
ATOM      5  CB  PRO D 176      86.635  42.910  30.669  1.00 38.91 LIG 0.04  C 
ATOM      6  CG  PRO D 176      85.143  42.832  30.625  1.00 40.22 LIG 0.02  C 
ATOM      7  CD  PRO D 176      84.670  44.088  29.931  1.00 41.02 LIG 0.13  C 
ENDROOT
BRANCH 4 8
ATOM      8  C   PRO D 176      87.077  42.630  28.196  1.00 41.09 LIG 0.24  C 
ATOM      9  N   PHE D 177      86.984  43.135  26.970  1.00 41.46 LIG-0.34  N 
ATOM     10 H    PHE D 177      86.790  43.956  26.805  1.00 41.46 LIG 0.16  HD
ATOM     11 O    PRO D 176      87.230  41.417  28.409  1.00 40.08 LIG-0.27  OA
BRANCH 9 12
ATOM     12  CA  PHE D 177      87.207  42.319  25.781  1.00 42.13 LIG 0.19  C 
BRANCH 12 13
ATOM     13  CB  PHE D 177      85.908  42.149  24.983  1.00 40.75 LIG 0.07  C 
BRANCH 13 14
ATOM     14  CG  PHE D 177      84.658  42.395  25.784  1.00 38.35 LIG-0.06  A 
ATOM     15  CD1 PHE D 177      84.384  41.644  26.924  1.00 38.94 LIG 0.01  A 
ATOM     16  CE1 PHE D 177      83.235  41.873  27.664  1.00 37.83 LIG 0.00  A 
ATOM     17  CZ  PHE D 177      82.355  42.867  27.282  1.00 37.53 LIG 0.00  A 
ATOM     18  CE2 PHE D 177      82.620  43.631  26.158  1.00 36.58 LIG 0.00  A 
ATOM     19  CD2 PHE D 177      83.767  43.394  25.416  1.00 37.89 LIG 0.01  A 
ENDBRANCH 13 14
ENDBRANCH 12 13
BRANCH 12 20
ATOM     20  C   PHE D 177      88.287  42.954  24.919  1.00 42.35 LIG 0.20  C 
ATOM     21 OXT  PHE D 177      87.994  43.593  23.915  1.00 44.55 LIG-0.65  OA
ATOM     22 O    PHE D 177      89.477  42.843  25.214  1.00 42.35 LIG-0.65  OA
ENDBRANCH 12 20
ENDBRANCH 9 12
ENDBRANCH 4 8
BRANCH 1 23
ATOM     23  CA  ILE D 175      84.903  46.777  28.644  1.00 50.15 LIG 0.18  C 
BRANCH 23 24
ATOM     24  CB  ILE D 175      83.608  46.330  27.916  1.00 52.56 LIG 0.01  C 
ATOM     25  CG2 ILE D 175      82.366  46.527  28.785  1.00 53.60 LIG 0.01  C 
BRANCH 24 26
ATOM     26  CG1 ILE D 175      83.459  47.065  26.575  1.00 53.43 LIG 0.00  C 
ATOM     27  CD1 ILE D 175      84.394  46.563  25.493  1.00 54.83 LIG 0.01  C 
ENDBRANCH 24 26
ENDBRANCH 23 24
BRANCH 23 28
ATOM     28  N   ILE D 175      85.421  48.041  28.121  1.00 52.48 LIG-0.34  N 
ATOM     29 H    ILE D 175      85.169  48.228  27.321  1.00 52.48 LIG 0.16  HD
ATOM     30  C   ASP D 174      86.219  48.813  28.857  1.00 53.52 LIG 0.26  C 
ATOM     31 O    ASP D 174      86.374  48.647  30.066  1.00 50.42 LIG-0.27  OA
BRANCH 30 32
ATOM     32  CA  ASP D 174      86.913  49.984  28.156  1.00 56.25 LIG 0.41  C 
ATOM     33  N   ASP D 174      86.798  49.971  26.661  1.00 55.41 LIG 0.61  N 
BRANCH 32 34
ATOM     34  CB  ASP D 174      86.370  51.284  28.741  1.00 59.33 LIG 0.16  C 
BRANCH 34 35
ATOM     35  CG  ASP D 174      84.901  51.488  28.415  1.00 62.66 LIG 0.17  C 
ATOM     36 OD2  ASP D 174      84.402  50.865  27.450  1.00 62.95 LIG-0.65  OA
ATOM     37 OD1  ASP D 174      84.243  52.264  29.145  1.00 63.24 LIG-0.65  OA
ENDBRANCH 34 35
ENDBRANCH 32 34
ENDBRANCH 30 32
ENDBRANCH 23 28
ENDBRANCH 1 23
TORSDOF 12
ENDMDL
MODEL 47
USER: ADFR SOLUTION from run 183
USER: SCORE 14.632687 LL:  -4.038 LR: -11.002 RR:   0.000 FEB:  -7.422
USER: RMSD 4.420628
USER: SEED 182
USER: STATUS no improvement in best in 9 clusters for 5 generations
USER: GENES 14
USER: genes 0 Translation |==|  0.45974 0.55034 0.32123
USER: genes 1 Rotation |==|  0.37060 0.76841 0.84276 0.70911
USER: genes 2 Torsion [N]-CA--C-[O] |==|  0.43045
USER: genes 3 Torsion [C]-N--CA-[CB] |==|  0.79448
USER: genes 4 Torsion [N]-CA--CB-[CG] |==|  0.89438
USER: genes 5 Torsion [CA]-CB--CG-[CD2] |==|  0.33421
USER: genes 6 Torsion [N]-CA--C-[O] |==|  0.11197
USER: genes 7 Torsion [N]-C--CA-[N] |==|  0.87478
USER: genes 8 Torsion [C]-CA--CB-[CG2] |==|  0.30820
USER: genes 9 Torsion [CA]-CB--CG1-[CD1] |==|  0.28514
USER: genes 10 Torsion [C]-CA--N-[C] |==|  0.66745
USER: genes 11 Torsion [N]-C--CA-[N] |==|  0.90376
USER: genes 12 Torsion [C]-CA--CB-[CG] |==|  0.80828
USER: genes 13 Torsion [CA]-CB--CG-[OD2] |==|  0.87228
ROOT
ATOM      1  C   ILE D 175      85.139  45.172  27.420  1.00 46.12 LIG 0.24  C 
ATOM      2 O    ILE D 175      84.448  45.118  26.399  1.00 42.41 LIG-0.27  OA
ATOM      3  N   PRO D 176      86.480  45.298  27.373  1.00 41.83 LIG-0.34  N 
ATOM      4  CA  PRO D 176      87.166  45.553  26.104  1.00 39.90 LIG 0.18  C 
ATOM      5  CB  PRO D 176      88.447  46.238  26.570  1.00 38.91 LIG 0.04  C 
ATOM      6  CG  PRO D 176      88.769  45.522  27.841  1.00 40.22 LIG 0.02  C 
ATOM      7  CD  PRO D 176      87.447  45.168  28.481  1.00 41.02 LIG 0.13  C 
ENDROOT
BRANCH 4 8
ATOM      8  C   PRO D 176      87.482  44.280  25.296  1.00 41.09 LIG 0.24  C 
ATOM      9  N   PHE D 177      87.600  43.147  25.982  1.00 41.46 LIG-0.34  N 
ATOM     10 H    PHE D 177      87.596  43.106  26.841  1.00 41.46 LIG 0.16  HD
ATOM     11 O    PRO D 176      87.621  44.331  24.064  1.00 40.08 LIG-0.27  OA
BRANCH 9 12
ATOM     12  CA  PHE D 177      87.750  41.856  25.320  1.00 42.13 LIG 0.19  C 
BRANCH 12 13
ATOM     13  CB  PHE D 177      86.421  41.399  24.704  1.00 40.75 LIG 0.07  C 
BRANCH 13 14
ATOM     14  CG  PHE D 177      85.213  41.724  25.540  1.00 38.35 LIG-0.06  A 
ATOM     15  CD1 PHE D 177      85.099  41.247  26.843  1.00 38.94 LIG 0.01  A 
ATOM     16  CE1 PHE D 177      83.989  41.550  27.614  1.00 37.83 LIG 0.00  A 
ATOM     17  CZ  PHE D 177      82.986  42.348  27.096  1.00 37.53 LIG 0.00  A 
ATOM     18  CE2 PHE D 177      83.091  42.841  25.807  1.00 36.58 LIG 0.00  A 
ATOM     19  CD2 PHE D 177      84.200  42.530  25.036  1.00 37.89 LIG 0.01  A 
ENDBRANCH 13 14
ENDBRANCH 12 13
BRANCH 12 20
ATOM     20  C   PHE D 177      88.831  41.949  24.254  1.00 42.35 LIG 0.20  C 
ATOM     21 OXT  PHE D 177      88.690  41.401  23.167  1.00 44.55 LIG-0.65  OA
ATOM     22 O    PHE D 177      89.868  42.580  24.459  1.00 42.35 LIG-0.65  OA
ENDBRANCH 12 20
ENDBRANCH 9 12
ENDBRANCH 4 8
BRANCH 1 23
ATOM     23  CA  ILE D 175      84.476  45.120  28.814  1.00 50.15 LIG 0.18  C 
BRANCH 23 24
ATOM     24  CB  ILE D 175      84.330  46.524  29.457  1.00 52.56 LIG 0.01  C 
ATOM     25  CG2 ILE D 175      82.869  46.966  29.540  1.00 53.60 LIG 0.01  C 
BRANCH 24 26
ATOM     26  CG1 ILE D 175      84.992  46.557  30.843  1.00 53.43 LIG 0.00  C 
ATOM     27  CD1 ILE D 175      86.344  47.242  30.861  1.00 54.83 LIG 0.01  C 
ENDBRANCH 24 26
ENDBRANCH 23 24
BRANCH 23 28
ATOM     28  N   ILE D 175      85.259  44.210  29.650  1.00 52.48 LIG-0.34  N 
ATOM     29 H    ILE D 175      86.079  44.442  29.762  1.00 52.48 LIG 0.16  HD
ATOM     30  C   ASP D 174      84.710  43.117  30.179  1.00 53.52 LIG 0.26  C 
ATOM     31 O    ASP D 174      83.494  42.931  30.203  1.00 50.42 LIG-0.27  OA
BRANCH 30 32
ATOM     32  CA  ASP D 174      85.648  42.096  30.828  1.00 56.25 LIG 0.41  C 
ATOM     33  N   ASP D 174      86.982  41.964  30.158  1.00 55.41 LIG 0.61  N 
BRANCH 32 34
ATOM     34  CB  ASP D 174      85.803  42.456  32.302  1.00 59.33 LIG 0.16  C 
BRANCH 34 35
ATOM     35  CG  ASP D 174      86.583  43.745  32.497  1.00 62.66 LIG 0.17  C 
ATOM     36 OD2  ASP D 174      87.642  43.916  31.850  1.00 62.95 LIG-0.65  OA
ATOM     37 OD1  ASP D 174      86.118  44.595  33.290  1.00 63.24 LIG-0.65  OA
ENDBRANCH 34 35
ENDBRANCH 32 34
ENDBRANCH 30 32
ENDBRANCH 23 28
ENDBRANCH 1 23
TORSDOF 12
ENDMDL
MODEL 48
USER: ADFR SOLUTION from run 159
USER: SCORE 13.973537 LL:  -3.152 LR: -10.989 RR:   0.000 FEB:  -7.410
USER: RMSD 7.371855
USER: SEED 158
USER: STATUS no improvement in best in 17 clusters for 5 generations
USER: GENES 14
USER: genes 0 Translation |==|  0.47625 0.66437 0.27926
USER: genes 1 Rotation |==|  0.18162 0.23298 0.60299 0.75832
USER: genes 2 Torsion [N]-CA--C-[O] |==|  0.22000
USER: genes 3 Torsion [C]-N--CA-[CB] |==|  0.85315
USER: genes 4 Torsion [N]-CA--CB-[CG] |==|  0.70716
USER: genes 5 Torsion [CA]-CB--CG-[CD2] |==|  0.28070
USER: genes 6 Torsion [N]-CA--C-[O] |==|  0.48712
USER: genes 7 Torsion [N]-C--CA-[N] |==|  0.86111
USER: genes 8 Torsion [C]-CA--CB-[CG2] |==|  0.03388
USER: genes 9 Torsion [CA]-CB--CG1-[CD1] |==|  0.02653
USER: genes 10 Torsion [C]-CA--N-[C] |==|  0.82263
USER: genes 11 Torsion [N]-C--CA-[N] |==|  0.09557
USER: genes 12 Torsion [C]-CA--CB-[CG] |==|  0.80401
USER: genes 13 Torsion [CA]-CB--CG-[OD2] |==|  0.86547
ROOT
ATOM      1  C   ILE D 175      85.387  47.053  26.570  1.00 46.12 LIG 0.24  C 
ATOM      2 O    ILE D 175      86.152  47.917  27.009  1.00 42.41 LIG-0.27  OA
ATOM      3  N   PRO D 176      84.435  46.482  27.334  1.00 41.83 LIG-0.34  N 
ATOM      4  CA  PRO D 176      84.150  46.986  28.679  1.00 39.90 LIG 0.18  C 
ATOM      5  CB  PRO D 176      82.703  46.546  28.881  1.00 38.91 LIG 0.04  C 
ATOM      6  CG  PRO D 176      82.656  45.217  28.198  1.00 40.22 LIG 0.02  C 
ATOM      7  CD  PRO D 176      83.597  45.308  27.020  1.00 41.02 LIG 0.13  C 
ENDROOT
BRANCH 4 8
ATOM      8  C   PRO D 176      85.063  46.401  29.774  1.00 41.09 LIG 0.24  C 
ATOM      9  N   PHE D 177      84.556  45.427  30.522  1.00 41.46 LIG-0.34  N 
ATOM     10 H    PHE D 177      83.735  45.173  30.484  1.00 41.46 LIG 0.16  HD
ATOM     11 O    PRO D 176      86.215  46.837  29.936  1.00 40.08 LIG-0.27  OA
BRANCH 9 12
ATOM     12  CA  PHE D 177      85.367  44.694  31.488  1.00 42.13 LIG 0.19  C 
BRANCH 12 13
ATOM     13  CB  PHE D 177      86.634  44.134  30.827  1.00 40.75 LIG 0.07  C 
BRANCH 13 14
ATOM     14  CG  PHE D 177      86.593  42.650  30.581  1.00 38.35 LIG-0.06  A 
ATOM     15  CD1 PHE D 177      86.808  41.750  31.622  1.00 38.94 LIG 0.01  A 
ATOM     16  CE1 PHE D 177      86.766  40.383  31.397  1.00 37.83 LIG 0.00  A 
ATOM     17  CZ  PHE D 177      86.493  39.900  30.131  1.00 37.53 LIG 0.00  A 
ATOM     18  CE2 PHE D 177      86.265  40.782  29.089  1.00 36.58 LIG 0.00  A 
ATOM     19  CD2 PHE D 177      86.314  42.149  29.316  1.00 37.89 LIG 0.01  A 
ENDBRANCH 13 14
ENDBRANCH 12 13
BRANCH 12 20
ATOM     20  C   PHE D 177      85.728  45.604  32.651  1.00 42.35 LIG 0.20  C 
ATOM     21 OXT  PHE D 177      85.413  46.788  32.644  1.00 44.55 LIG-0.65  OA
ATOM     22 O    PHE D 177      86.340  45.170  33.627  1.00 42.35 LIG-0.65  OA
ENDBRANCH 12 20
ENDBRANCH 9 12
ENDBRANCH 4 8
BRANCH 1 23
ATOM     23  CA  ILE D 175      85.480  46.607  25.094  1.00 50.15 LIG 0.18  C 
BRANCH 23 24
ATOM     24  CB  ILE D 175      84.333  47.186  24.224  1.00 52.56 LIG 0.01  C 
ATOM     25  CG2 ILE D 175      83.564  48.288  24.952  1.00 53.60 LIG 0.01  C 
BRANCH 24 26
ATOM     26  CG1 ILE D 175      84.877  47.695  22.880  1.00 53.43 LIG 0.00  C 
ATOM     27  CD1 ILE D 175      86.321  47.316  22.619  1.00 54.83 LIG 0.01  C 
ENDBRANCH 24 26
ENDBRANCH 23 24
BRANCH 23 28
ATOM     28  N   ILE D 175      85.506  45.144  25.067  1.00 52.48 LIG-0.34  N 
ATOM     29 H    ILE D 175      84.832  44.780  24.677  1.00 52.48 LIG 0.16  HD
ATOM     30  C   ASP D 174      86.513  44.465  25.616  1.00 53.52 LIG 0.26  C 
ATOM     31 O    ASP D 174      87.568  45.000  25.954  1.00 50.42 LIG-0.27  OA
BRANCH 30 32
ATOM     32  CA  ASP D 174      86.346  42.951  25.767  1.00 56.25 LIG 0.41  C 
ATOM     33  N   ASP D 174      85.566  42.299  24.665  1.00 55.41 LIG 0.61  N 
BRANCH 32 34
ATOM     34  CB  ASP D 174      87.731  42.328  25.908  1.00 59.33 LIG 0.16  C 
BRANCH 34 35
ATOM     35  CG  ASP D 174      88.516  42.379  24.609  1.00 62.66 LIG 0.17  C 
ATOM     36 OD2  ASP D 174      87.963  42.001  23.551  1.00 62.95 LIG-0.65  OA
ATOM     37 OD1  ASP D 174      89.688  42.821  24.652  1.00 63.24 LIG-0.65  OA
ENDBRANCH 34 35
ENDBRANCH 32 34
ENDBRANCH 30 32
ENDBRANCH 23 28
ENDBRANCH 1 23
TORSDOF 12
ENDMDL
MODEL 49
USER: ADFR SOLUTION from run 49
USER: SCORE 14.443023 LL:  -3.815 LR: -10.986 RR:   0.000 FEB:  -7.406
USER: RMSD 6.740523
USER: SEED 48
USER: STATUS no improvement in best in 7 clusters for 5 generations
USER: GENES 14
USER: genes 0 Translation |==|  0.40432 0.44798 0.41747
USER: genes 1 Rotation |==|  0.52323 0.11385 0.72174 0.72622
USER: genes 2 Torsion [N]-CA--C-[O] |==|  0.58962
USER: genes 3 Torsion [C]-N--CA-[CB] |==|  0.40350
USER: genes 4 Torsion [N]-CA--CB-[CG] |==|  0.18135
USER: genes 5 Torsion [CA]-CB--CG-[CD2] |==|  0.36025
USER: genes 6 Torsion [N]-CA--C-[O] |==|  0.54295
USER: genes 7 Torsion [N]-C--CA-[N] |==|  0.85731
USER: genes 8 Torsion [C]-CA--CB-[CG2] |==|  0.05746
USER: genes 9 Torsion [CA]-CB--CG1-[CD1] |==|  0.99407
USER: genes 10 Torsion [C]-CA--N-[C] |==|  0.71230
USER: genes 11 Torsion [N]-C--CA-[N] |==|  0.78098
USER: genes 12 Torsion [C]-CA--CB-[CG] |==|  0.51396
USER: genes 13 Torsion [CA]-CB--CG-[OD2] |==|  0.22475
ROOT
ATOM      1  C   ILE D 175      84.308  43.483  29.369  1.00 46.12 LIG 0.24  C 
ATOM      2 O    ILE D 175      83.868  44.202  30.270  1.00 42.41 LIG-0.27  OA
ATOM      3  N   PRO D 176      85.072  42.402  29.622  1.00 41.83 LIG-0.34  N 
ATOM      4  CA  PRO D 176      85.274  41.930  30.993  1.00 39.90 LIG 0.18  C 
ATOM      5  CB  PRO D 176      85.591  40.454  30.776  1.00 38.91 LIG 0.04  C 
ATOM      6  CG  PRO D 176      86.390  40.463  29.513  1.00 40.22 LIG 0.02  C 
ATOM      7  CD  PRO D 176      85.833  41.579  28.661  1.00 41.02 LIG 0.13  C 
ENDROOT
BRANCH 4 8
ATOM      8  C   PRO D 176      86.423  42.638  31.737  1.00 41.09 LIG 0.24  C 
ATOM      9  N   PHE D 177      86.649  43.909  31.421  1.00 41.46 LIG-0.34  N 
ATOM     10 H    PHE D 177      86.253  44.320  30.777  1.00 41.46 LIG 0.16  HD
ATOM     11 O    PRO D 176      87.097  42.031  32.584  1.00 40.08 LIG-0.27  OA
BRANCH 9 12
ATOM     12  CA  PHE D 177      87.606  44.728  32.157  1.00 42.13 LIG 0.19  C 
BRANCH 12 13
ATOM     13  CB  PHE D 177      88.312  45.719  31.221  1.00 40.75 LIG 0.07  C 
BRANCH 13 14
ATOM     14  CG  PHE D 177      87.399  46.756  30.624  1.00 38.35 LIG-0.06  A 
ATOM     15  CD1 PHE D 177      86.197  46.387  30.025  1.00 38.94 LIG 0.01  A 
ATOM     16  CE1 PHE D 177      85.355  47.342  29.480  1.00 37.83 LIG 0.00  A 
ATOM     17  CZ  PHE D 177      85.698  48.680  29.540  1.00 37.53 LIG 0.00  A 
ATOM     18  CE2 PHE D 177      86.883  49.063  30.143  1.00 36.58 LIG 0.00  A 
ATOM     19  CD2 PHE D 177      87.726  48.104  30.682  1.00 37.89 LIG 0.01  A 
ENDBRANCH 13 14
ENDBRANCH 12 13
BRANCH 12 20
ATOM     20  C   PHE D 177      86.894  45.466  33.280  1.00 42.35 LIG 0.20  C 
ATOM     21 OXT  PHE D 177      85.776  45.124  33.647  1.00 44.55 LIG-0.65  OA
ATOM     22 O    PHE D 177      87.429  46.419  33.849  1.00 42.35 LIG-0.65  OA
ENDBRANCH 12 20
ENDBRANCH 9 12
ENDBRANCH 4 8
BRANCH 1 23
ATOM     23  CA  ILE D 175      83.970  43.787  27.892  1.00 50.15 LIG 0.18  C 
BRANCH 23 24
ATOM     24  CB  ILE D 175      82.936  42.794  27.301  1.00 52.56 LIG 0.01  C 
ATOM     25  CG2 ILE D 175      82.129  42.091  28.393  1.00 53.60 LIG 0.01  C 
BRANCH 24 26
ATOM     26  CG1 ILE D 175      82.006  43.506  26.307  1.00 53.43 LIG 0.00  C 
ATOM     27  CD1 ILE D 175      82.273  44.992  26.174  1.00 54.83 LIG 0.01  C 
ENDBRANCH 24 26
ENDBRANCH 23 24
BRANCH 23 28
ATOM     28  N   ILE D 175      85.222  43.794  27.137  1.00 52.48 LIG-0.34  N 
ATOM     29 H    ILE D 175      85.545  43.014  26.970  1.00 52.48 LIG 0.16  HD
ATOM     30  C   ASP D 174      85.789  44.938  26.756  1.00 53.52 LIG 0.26  C 
ATOM     31 O    ASP D 174      85.200  46.016  26.797  1.00 50.42 LIG-0.27  OA
BRANCH 30 32
ATOM     32  CA  ASP D 174      87.211  44.870  26.193  1.00 56.25 LIG 0.41  C 
ATOM     33  N   ASP D 174      88.285  44.745  27.231  1.00 55.41 LIG 0.61  N 
BRANCH 32 34
ATOM     34  CB  ASP D 174      87.276  43.722  25.190  1.00 59.33 LIG 0.16  C 
BRANCH 34 35
ATOM     35  CG  ASP D 174      88.684  43.498  24.667  1.00 62.66 LIG 0.17  C 
ATOM     36 OD2  ASP D 174      89.493  42.844  25.365  1.00 62.95 LIG-0.65  OA
ATOM     37 OD1  ASP D 174      88.970  43.966  23.541  1.00 63.24 LIG-0.65  OA
ENDBRANCH 34 35
ENDBRANCH 32 34
ENDBRANCH 30 32
ENDBRANCH 23 28
ENDBRANCH 1 23
TORSDOF 12
ENDMDL
MODEL 50
USER: ADFR SOLUTION from run 3
USER: SCORE 15.008674 LL:  -4.397 LR: -10.978 RR:   0.000 FEB:  -7.398
USER: RMSD 4.589494
USER: SEED 314702
USER: STATUS no improvement in best in 4 clusters for 5 generations
USER: GENES 14
USER: genes 0 Translation |==|  0.56532 0.34468 0.40674
USER: genes 1 Rotation |==|  0.72957 0.48901 0.26891 0.87918
USER: genes 2 Torsion [N]-CA--C-[O] |==|  0.55023
USER: genes 3 Torsion [C]-N--CA-[CB] |==|  0.33412
USER: genes 4 Torsion [N]-CA--CB-[CG] |==|  0.86856
USER: genes 5 Torsion [CA]-CB--CG-[CD2] |==|  0.93893
USER: genes 6 Torsion [N]-CA--C-[O] |==|  0.47367
USER: genes 7 Torsion [N]-C--CA-[N] |==|  0.84444
USER: genes 8 Torsion [C]-CA--CB-[CG2] |==|  0.68887
USER: genes 9 Torsion [CA]-CB--CG1-[CD1] |==|  0.22775
USER: genes 10 Torsion [C]-CA--N-[C] |==|  0.85386
USER: genes 11 Torsion [N]-C--CA-[N] |==|  0.50660
USER: genes 12 Torsion [C]-CA--CB-[CG] |==|  0.46807
USER: genes 13 Torsion [CA]-CB--CG-[OD2] |==|  0.05028
ROOT
ATOM      1  C   ILE D 175      86.723  41.778  29.152  1.00 46.12 LIG 0.24  C 
ATOM      2 O    ILE D 175      87.618  41.228  28.504  1.00 42.41 LIG-0.27  OA
ATOM      3  N   PRO D 176      85.463  41.888  28.685  1.00 41.83 LIG-0.34  N 
ATOM      4  CA  PRO D 176      85.055  41.203  27.456  1.00 39.90 LIG 0.18  C 
ATOM      5  CB  PRO D 176      83.551  41.054  27.662  1.00 38.91 LIG 0.04  C 
ATOM      6  CG  PRO D 176      83.179  42.322  28.361  1.00 40.22 LIG 0.02  C 
ATOM      7  CD  PRO D 176      84.353  42.687  29.239  1.00 41.02 LIG 0.13  C 
ENDROOT
BRANCH 4 8
ATOM      8  C   PRO D 176      85.362  41.992  26.169  1.00 41.09 LIG 0.24  C 
ATOM      9  N   PHE D 177      86.252  42.975  26.264  1.00 41.46 LIG-0.34  N 
ATOM     10 H    PHE D 177      86.591  43.242  27.008  1.00 41.46 LIG 0.16  HD
ATOM     11 O    PRO D 176      84.791  41.710  25.103  1.00 40.08 LIG-0.27  OA
BRANCH 9 12
ATOM     12  CA  PHE D 177      86.735  43.694  25.091  1.00 42.13 LIG 0.19  C 
BRANCH 12 13
ATOM     13  CB  PHE D 177      86.419  45.192  25.198  1.00 40.75 LIG 0.07  C 
BRANCH 13 14
ATOM     14  CG  PHE D 177      85.003  45.492  25.609  1.00 38.35 LIG-0.06  A 
ATOM     15  CD1 PHE D 177      84.668  46.727  26.159  1.00 38.94 LIG 0.01  A 
ATOM     16  CE1 PHE D 177      83.363  47.005  26.533  1.00 37.83 LIG 0.00  A 
ATOM     17  CZ  PHE D 177      82.374  46.058  26.346  1.00 37.53 LIG 0.00  A 
ATOM     18  CE2 PHE D 177      82.690  44.831  25.788  1.00 36.58 LIG 0.00  A 
ATOM     19  CD2 PHE D 177      83.997  44.553  25.422  1.00 37.89 LIG 0.01  A 
ENDBRANCH 13 14
ENDBRANCH 12 13
BRANCH 12 20
ATOM     20  C   PHE D 177      88.231  43.472  24.932  1.00 42.35 LIG 0.20  C 
ATOM     21 OXT  PHE D 177      88.880  42.917  25.810  1.00 44.55 LIG-0.65  OA
ATOM     22 O    PHE D 177      88.820  43.841  23.916  1.00 42.35 LIG-0.65  OA
ENDBRANCH 12 20
ENDBRANCH 9 12
ENDBRANCH 4 8
BRANCH 1 23
ATOM     23  CA  ILE D 175      87.015  42.349  30.557  1.00 50.15 LIG 0.18  C 
BRANCH 23 24
ATOM     24  CB  ILE D 175      86.318  41.542  31.684  1.00 52.56 LIG 0.01  C 
ATOM     25  CG2 ILE D 175      85.214  42.350  32.366  1.00 53.60 LIG 0.01  C 
BRANCH 24 26
ATOM     26  CG1 ILE D 175      85.768  40.215  31.139  1.00 53.43 LIG 0.00  C 
ATOM     27  CD1 ILE D 175      86.805  39.115  31.043  1.00 54.83 LIG 0.01  C 
ENDBRANCH 24 26
ENDBRANCH 23 24
BRANCH 23 28
ATOM     28  N   ILE D 175      86.619  43.757  30.561  1.00 52.48 LIG-0.34  N 
ATOM     29 H    ILE D 175      86.087  43.978  31.200  1.00 52.48 LIG 0.16  HD
ATOM     30  C   ASP D 174      87.069  44.600  29.633  1.00 53.52 LIG 0.26  C 
ATOM     31 O    ASP D 174      88.002  44.323  28.881  1.00 50.42 LIG-0.27  OA
BRANCH 30 32
ATOM     32  CA  ASP D 174      86.418  45.984  29.559  1.00 56.25 LIG 0.41  C 
ATOM     33  N   ASP D 174      86.936  46.856  28.455  1.00 55.41 LIG 0.61  N 
BRANCH 32 34
ATOM     34  CB  ASP D 174      84.908  45.800  29.456  1.00 59.33 LIG 0.16  C 
BRANCH 34 35
ATOM     35  CG  ASP D 174      84.157  47.105  29.658  1.00 62.66 LIG 0.17  C 
ATOM     36 OD2  ASP D 174      84.778  48.186  29.536  1.00 62.95 LIG-0.65  OA
ATOM     37 OD1  ASP D 174      82.934  47.040  29.921  1.00 63.24 LIG-0.65  OA
ENDBRANCH 34 35
ENDBRANCH 32 34
ENDBRANCH 30 32
ENDBRANCH 23 28
ENDBRANCH 1 23
TORSDOF 12
ENDMDL
