MODEL 1
USER: ADFR SOLUTION from run 90
USER: SCORE 26.896796 LL:  -3.952 LR: -23.464 RR:   0.000 FEB: -13.918
USER: RMSD 4.028762
USER: SEED 89
USER: STATUS no improvement in best in 4 clusters for 5 generations
USER: GENES 34
USER: genes 0 Translation |==|  0.58274 0.59379 0.50002
USER: genes 1 Rotation |==|  0.46881 0.47946 0.46775 0.99756
USER: genes 2 Torsion [C]-CA--N-[C] |==|  0.78335
USER: genes 3 Torsion [N]-C--CA-[N] |==|  0.31232
USER: genes 4 Torsion [C]-CA--N-[C] |==|  0.61671
USER: genes 5 Torsion [N]-C--CA-[N] |==|  0.79482
USER: genes 6 Torsion [C]-CA--CB-[CG] |==|  0.22684
USER: genes 7 Torsion [CA]-CB--CG-[CD] |==|  0.71706
USER: genes 8 Torsion [CB]-CG--CD-[NE] |==|  0.96326
USER: genes 9 Torsion [CG]-CD--NE-[HE] |==|  0.12683
USER: genes 10 Torsion [C]-CA--CB-[CG] |==|  0.20167
USER: genes 11 Torsion [CA]-CB--CG-[CD] |==|  0.43377
USER: genes 12 Torsion [CB]-CG--CD-[NE] |==|  0.87056
USER: genes 13 Torsion [CG]-CD--NE-[CZ] |==|  0.79423
USER: genes 14 Torsion [N]-CA--C-[N] |==|  0.38735
USER: genes 15 Torsion [C]-N--CA-[C] |==|  0.83004
USER: genes 16 Torsion [N]-CA--CB-[CG] |==|  0.77219
USER: genes 17 Torsion [CA]-CB--CG-[CD2] |==|  0.72869
USER: genes 18 Torsion [N]-CA--C-[N] |==|  0.39622
USER: genes 19 Torsion [N]-CA--C-[O] |==|  0.03519
USER: genes 20 Torsion [C]-N--CA-[CB] |==|  0.53943
USER: genes 21 Torsion [N]-CA--C-[N] |==|  0.45269
USER: genes 22 Torsion [C]-N--CA-[CB] |==|  0.45826
USER: genes 23 Torsion [N]-CA--C-[O] |==|  0.35797
USER: genes 24 Torsion [N]-CA--CB-[CG2] |==|  0.39637
USER: genes 25 Torsion [CA]-CB--CG1-[CD1] |==|  0.76241
USER: genes 26 Torsion [N]-CA--CB-[CG] |==|  0.14924
USER: genes 27 Torsion [CA]-CB--CG-[CD] |==|  0.76219
USER: genes 28 Torsion [CB]-CG--CD-[OE2] |==|  0.84927
USER: genes 29 Torsion [N]-CA--CB-[CG] |==|  0.17289
USER: genes 30 Torsion [CA]-CB--CG-[CD] |==|  0.55463
USER: genes 31 Torsion [CB]-CG--CD-[CE] |==|  0.31478
USER: genes 32 Torsion [CG]-CD--CE-[NZ] |==|  0.89795
USER: genes 33 Torsion [CD]-CE--NZ-[HZ2] |==|  0.04990
ROOT
ATOM      1  CA  LYS V 154      23.979  16.312 -65.013  1.00 29.23 LIG 0.18  C 
ENDROOT
BRANCH 1 2
ATOM      2  N   LYS V 154      23.389  17.542 -64.466  1.00 29.36 LIG-0.35  N 
ATOM      3 H    LYS V 154      23.087  17.459 -63.665  1.00 29.36 LIG 0.16  HD
ATOM      4  C   ARG V 153      23.334  18.680 -65.162  1.00 28.75 LIG 0.24  C 
ATOM      5 O    ARG V 153      23.901  18.847 -66.235  1.00 27.33 LIG-0.27  OA
BRANCH 4 6
ATOM      6  CA  ARG V 153      22.473  19.787 -64.578  1.00 29.80 LIG 0.18  C 
BRANCH 6 7
ATOM      7  N   ARG V 153      23.260  20.938 -64.127  1.00 31.02 LIG-0.35  N 
ATOM      8 H    ARG V 153      23.892  21.157 -64.668  1.00 31.02 LIG 0.16  HD
ATOM      9  C   ARG V 152      23.018  21.587 -62.982  1.00 33.76 LIG 0.26  C 
ATOM     10 O    ARG V 152      22.109  21.277 -62.198  1.00 32.85 LIG-0.27  OA
BRANCH 9 11
ATOM     11  CA  ARG V 152      23.970  22.757 -62.672  1.00 35.90 LIG 0.40  C 
ATOM     12  N   ARG V 152      25.322  22.283 -62.241  1.00 37.25 LIG 0.61  N 
BRANCH 11 13
ATOM     13  CB  ARG V 152      24.109  23.696 -63.868  1.00 38.16 LIG 0.05  C 
BRANCH 13 14
ATOM     14  CG  ARG V 152      22.962  24.690 -63.970  1.00 40.06 LIG 0.02  C 
BRANCH 14 15
ATOM     15  CD  ARG V 152      21.941  24.299 -65.022  1.00 42.07 LIG 0.14  C 
BRANCH 15 16
ATOM     16  NE  ARG V 152      22.428  23.240 -65.911  1.00 44.48 LIG-0.23  N 
ATOM     17  CZ  ARG V 152      22.321  23.228 -67.241  1.00 45.58 LIG 0.67  C 
ATOM     18  NH1 ARG V 152      21.741  24.226 -67.906  1.00 44.25 LIG-0.23  N 
ATOM     19  NH2 ARG V 152      22.803  22.194 -67.922  1.00 47.95 LIG-0.23  N 
ATOM     20 1HH1 ARG V 152      21.424  24.901 -67.477  1.00 44.25 LIG 0.17  HD
ATOM     21 2HH1 ARG V 152      21.684  24.196 -68.763  1.00 44.25 LIG 0.17  HD
ATOM     22 2HH2 ARG V 152      22.739  22.177 -68.779  1.00 47.95 LIG 0.17  HD
ATOM     23 1HH2 ARG V 152      23.179  21.543 -67.505  1.00 47.95 LIG 0.17  HD
ATOM     24 HE   ARG V 152      22.817  22.568 -65.543  1.00 44.48 LIG 0.18  HD
ENDBRANCH 15 16
ENDBRANCH 14 15
ENDBRANCH 13 14
ENDBRANCH 11 13
ENDBRANCH 9 11
ENDBRANCH 6 7
BRANCH 6 25
ATOM     25  CB  ARG V 153      21.452  20.202 -65.660  1.00 29.44 LIG 0.04  C 
BRANCH 25 26
ATOM     26  CG  ARG V 153      20.358  19.181 -65.888  1.00 30.46 LIG 0.02  C 
BRANCH 26 27
ATOM     27  CD  ARG V 153      19.090  19.782 -66.477  1.00 30.98 LIG 0.14  C 
BRANCH 27 28
ATOM     28  NE  ARG V 153      18.766  20.987 -65.731  1.00 31.91 LIG-0.23  N 
ATOM     29  CZ  ARG V 153      18.258  20.995 -64.502  1.00 32.21 LIG 0.67  C 
ATOM     30  NH2 ARG V 153      18.045  19.866 -63.824  1.00 31.04 LIG-0.23  N 
ATOM     31  NH1 ARG V 153      17.983  22.155 -63.933  1.00 34.14 LIG-0.23  N 
ATOM     32 2HH2 ARG V 153      17.715  19.897 -63.030  1.00 31.04 LIG 0.17  HD
ATOM     33 1HH2 ARG V 153      18.236  19.108 -64.181  1.00 31.04 LIG 0.17  HD
ATOM     34 2HH1 ARG V 153      17.655  22.177 -63.138  1.00 34.14 LIG 0.17  HD
ATOM     35 1HH1 ARG V 153      18.133  22.888 -64.357  1.00 34.14 LIG 0.17  HD
ATOM     36 HE   ARG V 153      18.911  21.744 -66.110  1.00 31.91 LIG 0.18  HD
ENDBRANCH 27 28
ENDBRANCH 26 27
ENDBRANCH 25 26
ENDBRANCH 6 25
ENDBRANCH 4 6
ENDBRANCH 1 2
BRANCH 1 37
ATOM     37  C   LYS V 154      23.047  15.582 -65.992  1.00 29.43 LIG 0.24  C 
ATOM     38 O    LYS V 154      21.843  15.443 -65.763  1.00 29.02 LIG-0.27  OA
ATOM     39  N   LEU V 155      23.644  15.079 -67.063  1.00 29.02 LIG-0.35  N 
ATOM     40 H    LEU V 155      24.477  15.196 -67.240  1.00 29.02 LIG 0.16  HD
BRANCH 39 41
ATOM     41  CA  LEU V 155      22.939  14.272 -68.050  1.00 29.55 LIG 0.18  C 
BRANCH 41 42
ATOM     42  CB  LEU V 155      23.918  13.903 -69.164  1.00 29.70 LIG 0.04  C 
BRANCH 42 43
ATOM     43  CG  LEU V 155      24.105  15.001 -70.212  1.00 30.04 LIG-0.02  C 
ATOM     44  CD1 LEU V 155      25.565  15.143 -70.636  1.00 30.27 LIG 0.01  C 
ATOM     45  CD2 LEU V 155      23.213  14.693 -71.406  1.00 30.44 LIG 0.01  C 
ENDBRANCH 42 43
ENDBRANCH 41 42
BRANCH 41 46
ATOM     46  C   LEU V 155      22.361  12.986 -67.442  1.00 29.88 LIG 0.24  C 
ATOM     47  N   PRO V 156      21.157  12.566 -67.888  1.00 30.63 LIG-0.34  N 
ATOM     48  CD  PRO V 156      20.140  13.274 -68.690  1.00 31.41 LIG 0.13  C 
ATOM     49  CA  PRO V 156      20.686  11.266 -67.435  1.00 30.89 LIG 0.18  C 
ATOM     50  CG  PRO V 156      19.122  12.204 -68.994  1.00 32.36 LIG 0.02  C 
ATOM     51  CB  PRO V 156      19.204  11.266 -67.838  1.00 32.27 LIG 0.04  C 
ATOM     52 O    LEU V 155      22.990  12.378 -66.573  1.00 29.02 LIG-0.27  OA
BRANCH 49 53
ATOM     53  C   PRO V 156      21.438  10.134 -68.124  1.00 31.44 LIG 0.24  C 
ATOM     54 O    PRO V 156      22.464  10.369 -68.763  1.00 31.00 LIG-0.27  OA
ATOM     55  N   GLU V 157      20.936   8.913 -67.959  1.00 32.40 LIG-0.35  N 
ATOM     56 H    GLU V 157      20.310   8.729 -67.400  1.00 32.40 LIG 0.16  HD
BRANCH 55 57
ATOM     57  CA  GLU V 157      21.409   7.758 -68.725  1.00 33.20 LIG 0.18  C 
BRANCH 57 58
ATOM     58  C   GLU V 157      21.513   8.118 -70.200  1.00 33.95 LIG 0.24  C 
ATOM     59 O    GLU V 157      20.925   9.100 -70.641  1.00 33.71 LIG-0.27  OA
ATOM     60  N   ILE V 158      22.245   7.308 -70.954  1.00 34.74 LIG-0.35  N 
ATOM     61 H    ILE V 158      22.665   6.623 -70.648  1.00 34.74 LIG 0.16  HD
BRANCH 60 62
ATOM     62  CA  ILE V 158      22.403   7.511 -72.391  1.00 36.41 LIG 0.17  C 
BRANCH 62 63
ATOM     63  C   ILE V 158      21.083   7.172 -73.099  1.00 36.37 LIG 0.22  C 
ATOM     64 O    ILE V 158      20.553   7.948 -73.894  1.00 37.57 LIG-0.29  OA
ENDBRANCH 62 63
BRANCH 62 65
ATOM     65  CB  ILE V 158      23.579   6.670 -72.935  1.00 38.09 LIG 0.01  C 
ATOM     66  CG2 ILE V 158      23.252   6.123 -74.316  1.00 39.83 LIG 0.01  C 
BRANCH 65 67
ATOM     67  CG1 ILE V 158      24.857   7.516 -73.005  1.00 37.40 LIG 0.00  C 
ATOM     68  CD1 ILE V 158      24.992   8.319 -74.278  1.00 39.06 LIG 0.01  C 
ENDBRANCH 65 67
ENDBRANCH 62 65
ENDBRANCH 60 62
ENDBRANCH 57 58
BRANCH 57 69
ATOM     69  CB  GLU V 157      20.431   6.581 -68.587  1.00 33.67 LIG 0.04  C 
BRANCH 69 70
ATOM     70  CG  GLU V 157      18.987   6.906 -68.936  1.00 33.36 LIG 0.12  C 
BRANCH 70 71
ATOM     71  CD  GLU V 157      18.213   7.489 -67.770  1.00 33.78 LIG 0.17  C 
ATOM     72 OE2  GLU V 157      18.183   6.856 -66.691  1.00 33.85 LIG-0.65  OA
ATOM     73 OE1  GLU V 157      17.639   8.587 -67.931  1.00 33.73 LIG-0.65  OA
ENDBRANCH 70 71
ENDBRANCH 69 70
ENDBRANCH 57 69
ENDBRANCH 55 57
ENDBRANCH 49 53
ENDBRANCH 41 46
ENDBRANCH 39 41
ENDBRANCH 1 37
BRANCH 1 74
ATOM     74  CB  LYS V 154      24.346  15.333 -63.900  1.00 30.73 LIG 0.04  C 
BRANCH 74 75
ATOM     75  CG  LYS V 154      23.178  14.827 -63.057  1.00 31.37 LIG 0.00  C 
BRANCH 75 76
ATOM     76  CD  LYS V 154      23.657  14.269 -61.721  1.00 32.31 LIG 0.03  C 
BRANCH 76 77
ATOM     77  CE  LYS V 154      23.185  15.115 -60.546  1.00 33.00 LIG 0.23  C 
BRANCH 77 78
ATOM     78  NZ  LYS V 154      23.179  16.566 -60.853  1.00 34.35 LIG-0.08  N 
ATOM     79 HZ3  LYS V 154      22.440  16.937 -60.523  1.00 34.35 LIG 0.27  HD
ATOM     80 HZ2  LYS V 154      23.200  16.683 -61.735  1.00 34.35 LIG 0.27  HD
ATOM     81 HZ1  LYS V 154      23.893  16.950 -60.487  1.00 34.35 LIG 0.27  HD
ENDBRANCH 77 78
ENDBRANCH 76 77
ENDBRANCH 75 76
ENDBRANCH 74 75
ENDBRANCH 1 74
TORSDOF 32
ENDMDL
MODEL 2
USER: ADFR SOLUTION from run 71
USER: SCORE 26.241750 LL:  -4.919 LR: -22.808 RR:   0.000 FEB: -13.262
USER: RMSD 6.572152
USER: SEED 70
USER: STATUS no improvement in best in 3 clusters for 5 generations
USER: GENES 34
USER: genes 0 Translation |==|  0.48316 0.71050 0.53409
USER: genes 1 Rotation |==|  0.47494 0.08585 0.31301 0.70710
USER: genes 2 Torsion [C]-CA--N-[C] |==|  0.56196
USER: genes 3 Torsion [N]-C--CA-[N] |==|  0.89525
USER: genes 4 Torsion [C]-CA--N-[C] |==|  0.64265
USER: genes 5 Torsion [N]-C--CA-[N] |==|  0.87207
USER: genes 6 Torsion [C]-CA--CB-[CG] |==|  0.06595
USER: genes 7 Torsion [CA]-CB--CG-[CD] |==|  0.66237
USER: genes 8 Torsion [CB]-CG--CD-[NE] |==|  0.13514
USER: genes 9 Torsion [CG]-CD--NE-[HE] |==|  0.96619
USER: genes 10 Torsion [C]-CA--CB-[CG] |==|  0.20766
USER: genes 11 Torsion [CA]-CB--CG-[CD] |==|  0.74017
USER: genes 12 Torsion [CB]-CG--CD-[NE] |==|  0.41414
USER: genes 13 Torsion [CG]-CD--NE-[CZ] |==|  0.20918
USER: genes 14 Torsion [N]-CA--C-[N] |==|  0.41667
USER: genes 15 Torsion [C]-N--CA-[C] |==|  0.79679
USER: genes 16 Torsion [N]-CA--CB-[CG] |==|  0.90590
USER: genes 17 Torsion [CA]-CB--CG-[CD2] |==|  0.80186
USER: genes 18 Torsion [N]-CA--C-[N] |==|  0.40819
USER: genes 19 Torsion [N]-CA--C-[O] |==|  0.20186
USER: genes 20 Torsion [C]-N--CA-[CB] |==|  0.88565
USER: genes 21 Torsion [N]-CA--C-[N] |==|  0.81324
USER: genes 22 Torsion [C]-N--CA-[CB] |==|  0.38300
USER: genes 23 Torsion [N]-CA--C-[O] |==|  0.00348
USER: genes 24 Torsion [N]-CA--CB-[CG2] |==|  0.59735
USER: genes 25 Torsion [CA]-CB--CG1-[CD1] |==|  0.75495
USER: genes 26 Torsion [N]-CA--CB-[CG] |==|  0.75408
USER: genes 27 Torsion [CA]-CB--CG-[CD] |==|  0.19008
USER: genes 28 Torsion [CB]-CG--CD-[OE2] |==|  0.77624
USER: genes 29 Torsion [N]-CA--CB-[CG] |==|  0.04745
USER: genes 30 Torsion [CA]-CB--CG-[CD] |==|  0.55056
USER: genes 31 Torsion [CB]-CG--CD-[CE] |==|  0.18246
USER: genes 32 Torsion [CG]-CD--CE-[NZ] |==|  0.76568
USER: genes 33 Torsion [CD]-CE--NZ-[HZ2] |==|  0.27557
ROOT
ATOM      1  CA  LYS V 154      22.112  19.726 -64.118  1.00 29.23 LIG 0.18  C 
ENDROOT
BRANCH 1 2
ATOM      2  N   LYS V 154      22.496  21.135 -64.279  1.00 29.36 LIG-0.35  N 
ATOM      3 H    LYS V 154      22.995  21.287 -64.963  1.00 29.36 LIG 0.16  HD
ATOM      4  C   ARG V 153      22.099  22.087 -63.430  1.00 28.75 LIG 0.24  C 
ATOM      5 O    ARG V 153      21.265  21.906 -62.551  1.00 27.33 LIG-0.27  OA
BRANCH 4 6
ATOM      6  CA  ARG V 153      22.776  23.439 -63.568  1.00 29.80 LIG 0.18  C 
BRANCH 6 7
ATOM      7  N   ARG V 153      24.201  23.329 -63.889  1.00 31.02 LIG-0.35  N 
ATOM      8 H    ARG V 153      24.365  22.818 -64.561  1.00 31.02 LIG 0.16  HD
ATOM      9  C   ARG V 152      25.157  23.963 -63.200  1.00 33.76 LIG 0.26  C 
ATOM     10 O    ARG V 152      24.929  24.700 -62.229  1.00 32.85 LIG-0.27  OA
BRANCH 9 11
ATOM     11  CA  ARG V 152      26.598  23.702 -63.676  1.00 35.90 LIG 0.40  C 
ATOM     12  N   ARG V 152      26.857  22.248 -63.915  1.00 37.25 LIG 0.61  N 
BRANCH 11 13
ATOM     13  CB  ARG V 152      26.923  24.498 -64.938  1.00 38.16 LIG 0.05  C 
BRANCH 13 14
ATOM     14  CG  ARG V 152      26.045  25.731 -65.095  1.00 40.06 LIG 0.02  C 
BRANCH 14 15
ATOM     15  CD  ARG V 152      25.256  25.726 -66.391  1.00 42.07 LIG 0.14  C 
BRANCH 15 16
ATOM     16  NE  ARG V 152      24.566  24.455 -66.625  1.00 44.48 LIG-0.23  N 
ATOM     17  CZ  ARG V 152      23.627  24.234 -67.546  1.00 45.58 LIG 0.67  C 
ATOM     18  NH1 ARG V 152      23.222  25.194 -68.376  1.00 44.25 LIG-0.23  N 
ATOM     19  NH2 ARG V 152      23.080  23.028 -67.640  1.00 47.95 LIG-0.23  N 
ATOM     20 1HH1 ARG V 152      23.568  25.980 -68.325  1.00 44.25 LIG 0.17  HD
ATOM     21 2HH1 ARG V 152      22.615  25.029 -68.962  1.00 44.25 LIG 0.17  HD
ATOM     22 2HH2 ARG V 152      22.474  22.876 -68.231  1.00 47.95 LIG 0.17  HD
ATOM     23 1HH2 ARG V 152      23.331  22.399 -67.110  1.00 47.95 LIG 0.17  HD
ATOM     24 HE   ARG V 152      24.786  23.792 -66.123  1.00 44.48 LIG 0.18  HD
ENDBRANCH 15 16
ENDBRANCH 14 15
ENDBRANCH 13 14
ENDBRANCH 11 13
ENDBRANCH 9 11
ENDBRANCH 6 7
BRANCH 6 25
ATOM     25  CB  ARG V 153      22.021  24.228 -64.660  1.00 29.44 LIG 0.04  C 
BRANCH 25 26
ATOM     26  CG  ARG V 153      20.678  24.761 -64.207  1.00 30.46 LIG 0.02  C 
BRANCH 26 27
ATOM     27  CD  ARG V 153      19.521  23.828 -64.534  1.00 30.98 LIG 0.14  C 
BRANCH 27 28
ATOM     28  NE  ARG V 153      18.500  23.990 -63.512  1.00 31.91 LIG-0.23  N 
ATOM     29  CZ  ARG V 153      17.676  25.031 -63.433  1.00 32.21 LIG 0.67  C 
ATOM     30  NH2 ARG V 153      17.695  26.010 -64.338  1.00 31.04 LIG-0.23  N 
ATOM     31  NH1 ARG V 153      16.802  25.079 -62.444  1.00 34.14 LIG-0.23  N 
ATOM     32 2HH2 ARG V 153      17.152  26.673 -64.266  1.00 31.04 LIG 0.17  HD
ATOM     33 1HH2 ARG V 153      18.250  25.979 -64.994  1.00 31.04 LIG 0.17  HD
ATOM     34 2HH1 ARG V 153      16.262  25.745 -62.379  1.00 34.14 LIG 0.17  HD
ATOM     35 1HH1 ARG V 153      16.772  24.444 -61.865  1.00 34.14 LIG 0.17  HD
ATOM     36 HE   ARG V 153      18.424  23.372 -62.919  1.00 31.91 LIG 0.18  HD
ENDBRANCH 27 28
ENDBRANCH 26 27
ENDBRANCH 25 26
ENDBRANCH 6 25
ENDBRANCH 4 6
ENDBRANCH 1 2
BRANCH 1 37
ATOM     37  C   LYS V 154      23.071  18.758 -64.828  1.00 29.43 LIG 0.24  C 
ATOM     38 O    LYS V 154      23.652  19.065 -65.872  1.00 29.02 LIG-0.27  OA
ATOM     39  N   LEU V 155      23.183  17.564 -64.262  1.00 29.02 LIG-0.35  N 
ATOM     40 H    LEU V 155      22.802  17.355 -63.520  1.00 29.02 LIG 0.16  HD
BRANCH 39 41
ATOM     41  CA  LEU V 155      23.969  16.487 -64.846  1.00 29.55 LIG 0.18  C 
BRANCH 41 42
ATOM     42  CB  LEU V 155      24.164  15.400 -63.790  1.00 29.70 LIG 0.04  C 
BRANCH 42 43
ATOM     43  CG  LEU V 155      24.286  15.938 -62.364  1.00 30.04 LIG-0.02  C 
ATOM     44  CD1 LEU V 155      24.122  14.835 -61.321  1.00 30.27 LIG 0.01  C 
ATOM     45  CD2 LEU V 155      25.631  16.636 -62.219  1.00 30.44 LIG 0.01  C 
ENDBRANCH 42 43
ENDBRANCH 41 42
BRANCH 41 46
ATOM     46  C   LEU V 155      23.287  15.874 -66.079  1.00 29.88 LIG 0.24  C 
ATOM     47  N   PRO V 156      24.079  15.416 -67.072  1.00 30.63 LIG-0.34  N 
ATOM     48  CD  PRO V 156      25.517  15.636 -67.320  1.00 31.41 LIG 0.13  C 
ATOM     49  CA  PRO V 156      23.443  14.690 -68.161  1.00 30.89 LIG 0.18  C 
ATOM     50  CG  PRO V 156      25.822  14.716 -68.475  1.00 32.36 LIG 0.02  C 
ATOM     51  CB  PRO V 156      24.540  14.627 -69.233  1.00 32.27 LIG 0.04  C 
ATOM     52 O    LEU V 155      22.057  15.819 -66.138  1.00 29.02 LIG-0.27  OA
BRANCH 49 53
ATOM     53  C   PRO V 156      23.027  13.291 -67.724  1.00 31.44 LIG 0.24  C 
ATOM     54 O    PRO V 156      22.067  13.136 -66.967  1.00 31.00 LIG-0.27  OA
ATOM     55  N   GLU V 157      23.735  12.284 -68.230  1.00 32.40 LIG-0.35  N 
ATOM     56 H    GLU V 157      24.307  12.379 -68.865  1.00 32.40 LIG 0.16  HD
BRANCH 55 57
ATOM     57  CA  GLU V 157      23.605  10.909 -67.746  1.00 33.20 LIG 0.18  C 
BRANCH 57 58
ATOM     58  C   GLU V 157      22.350  10.270 -68.324  1.00 33.95 LIG 0.24  C 
ATOM     59 O    GLU V 157      22.437   9.357 -69.139  1.00 33.71 LIG-0.27  OA
ATOM     60  N   ILE V 158      21.192  10.770 -67.912  1.00 34.74 LIG-0.35  N 
ATOM     61 H    ILE V 158      21.125  11.404 -67.336  1.00 34.74 LIG 0.16  HD
BRANCH 60 62
ATOM     62  CA  ILE V 158      19.909  10.280 -68.410  1.00 36.41 LIG 0.17  C 
BRANCH 62 63
ATOM     63  C   ILE V 158      19.403  11.218 -69.515  1.00 36.37 LIG 0.22  C 
ATOM     64 O    ILE V 158      20.051  12.198 -69.884  1.00 37.57 LIG-0.29  OA
ENDBRANCH 62 63
BRANCH 62 65
ATOM     65  CB  ILE V 158      18.891  10.149 -67.256  1.00 38.09 LIG 0.01  C 
ATOM     66  CG2 ILE V 158      17.978   8.953 -67.481  1.00 39.83 LIG 0.01  C 
BRANCH 65 67
ATOM     67  CG1 ILE V 158      19.618   9.996 -65.914  1.00 37.40 LIG 0.00  C 
ATOM     68  CD1 ILE V 158      19.947   8.565 -65.553  1.00 39.06 LIG 0.01  C 
ENDBRANCH 65 67
ENDBRANCH 62 65
ENDBRANCH 60 62
ENDBRANCH 57 58
BRANCH 57 69
ATOM     69  CB  GLU V 157      23.494  10.883 -66.214  1.00 33.67 LIG 0.04  C 
BRANCH 69 70
ATOM     70  CG  GLU V 157      24.823  10.812 -65.478  1.00 33.36 LIG 0.12  C 
BRANCH 70 71
ATOM     71  CD  GLU V 157      25.643  12.079 -65.615  1.00 33.78 LIG 0.17  C 
ATOM     72 OE2  GLU V 157      26.309  12.256 -66.659  1.00 33.85 LIG-0.65  OA
ATOM     73 OE1  GLU V 157      25.614  12.907 -64.679  1.00 33.73 LIG-0.65  OA
ENDBRANCH 70 71
ENDBRANCH 69 70
ENDBRANCH 57 69
ENDBRANCH 55 57
ENDBRANCH 49 53
ENDBRANCH 41 46
ENDBRANCH 39 41
ENDBRANCH 1 37
BRANCH 1 74
ATOM     74  CB  LYS V 154      20.707  19.470 -64.658  1.00 30.73 LIG 0.04  C 
BRANCH 74 75
ATOM     75  CG  LYS V 154      20.154  20.546 -65.591  1.00 31.37 LIG 0.00  C 
BRANCH 75 76
ATOM     76  CD  LYS V 154      18.638  20.447 -65.718  1.00 32.31 LIG 0.03  C 
BRANCH 76 77
ATOM     77  CE  LYS V 154      17.933  20.753 -64.404  1.00 33.00 LIG 0.23  C 
BRANCH 77 78
ATOM     78  NZ  LYS V 154      17.846  19.570 -63.513  1.00 34.35 LIG-0.08  N 
ATOM     79 HZ3  LYS V 154      17.053  19.560 -63.108  1.00 34.35 LIG 0.27  HD
ATOM     80 HZ2  LYS V 154      18.491  19.610 -62.901  1.00 34.35 LIG 0.27  HD
ATOM     81 HZ1  LYS V 154      17.941  18.828 -63.995  1.00 34.35 LIG 0.27  HD
ENDBRANCH 77 78
ENDBRANCH 76 77
ENDBRANCH 75 76
ENDBRANCH 74 75
ENDBRANCH 1 74
TORSDOF 32
ENDMDL
MODEL 3
USER: ADFR SOLUTION from run 134
USER: SCORE 26.387207 LL:  -4.517 LR: -22.592 RR:   0.000 FEB: -13.046
USER: RMSD 4.160073
USER: SEED 133
USER: STATUS searching
USER: GENES 34
USER: genes 0 Translation |==|  0.57694 0.59232 0.50346
USER: genes 1 Rotation |==|  0.45054 0.46125 0.46724 0.99495
USER: genes 2 Torsion [C]-CA--N-[C] |==|  0.76696
USER: genes 3 Torsion [N]-C--CA-[N] |==|  0.30083
USER: genes 4 Torsion [C]-CA--N-[C] |==|  0.63939
USER: genes 5 Torsion [N]-C--CA-[N] |==|  0.83724
USER: genes 6 Torsion [C]-CA--CB-[CG] |==|  0.16863
USER: genes 7 Torsion [CA]-CB--CG-[CD] |==|  0.65656
USER: genes 8 Torsion [CB]-CG--CD-[NE] |==|  0.06542
USER: genes 9 Torsion [CG]-CD--NE-[HE] |==|  0.04825
USER: genes 10 Torsion [C]-CA--CB-[CG] |==|  0.46159
USER: genes 11 Torsion [CA]-CB--CG-[CD] |==|  0.64349
USER: genes 12 Torsion [CB]-CG--CD-[NE] |==|  0.26273
USER: genes 13 Torsion [CG]-CD--NE-[CZ] |==|  0.16021
USER: genes 14 Torsion [N]-CA--C-[N] |==|  0.39844
USER: genes 15 Torsion [C]-N--CA-[C] |==|  0.83206
USER: genes 16 Torsion [N]-CA--CB-[CG] |==|  0.72226
USER: genes 17 Torsion [CA]-CB--CG-[CD2] |==|  0.28528
USER: genes 18 Torsion [N]-CA--C-[N] |==|  0.38551
USER: genes 19 Torsion [N]-CA--C-[O] |==|  0.47590
USER: genes 20 Torsion [C]-N--CA-[CB] |==|  0.79444
USER: genes 21 Torsion [N]-CA--C-[N] |==|  0.22017
USER: genes 22 Torsion [C]-N--CA-[CB] |==|  0.27854
USER: genes 23 Torsion [N]-CA--C-[O] |==|  0.91564
USER: genes 24 Torsion [N]-CA--CB-[CG2] |==|  0.61146
USER: genes 25 Torsion [CA]-CB--CG1-[CD1] |==|  0.67738
USER: genes 26 Torsion [N]-CA--CB-[CG] |==|  0.62545
USER: genes 27 Torsion [CA]-CB--CG-[CD] |==|  0.09561
USER: genes 28 Torsion [CB]-CG--CD-[OE2] |==|  0.67393
USER: genes 29 Torsion [N]-CA--CB-[CG] |==|  0.92385
USER: genes 30 Torsion [CA]-CB--CG-[CD] |==|  0.47498
USER: genes 31 Torsion [CB]-CG--CD-[CE] |==|  0.77706
USER: genes 32 Torsion [CG]-CD--CE-[NZ] |==|  0.80225
USER: genes 33 Torsion [CD]-CE--NZ-[HZ2] |==|  0.87973
ROOT
ATOM      1  CA  LYS V 154      23.871  16.269 -64.922  1.00 29.23 LIG 0.18  C 
ENDROOT
BRANCH 1 2
ATOM      2  N   LYS V 154      23.249  17.537 -64.515  1.00 29.36 LIG-0.35  N 
ATOM      3 H    LYS V 154      22.824  17.494 -63.769  1.00 29.36 LIG 0.16  HD
ATOM      4  C   ARG V 153      23.344  18.649 -65.248  1.00 28.75 LIG 0.24  C 
ATOM      5 O    ARG V 153      24.076  18.757 -66.224  1.00 27.33 LIG-0.27  OA
BRANCH 4 6
ATOM      6  CA  ARG V 153      22.446  19.804 -64.841  1.00 29.80 LIG 0.18  C 
BRANCH 6 7
ATOM      7  N   ARG V 153      23.186  20.906 -64.222  1.00 31.02 LIG-0.35  N 
ATOM      8 H    ARG V 153      23.869  21.162 -64.677  1.00 31.02 LIG 0.16  HD
ATOM      9  C   ARG V 152      22.831  21.463 -63.058  1.00 33.76 LIG 0.26  C 
ATOM     10 O    ARG V 152      21.848  21.100 -62.396  1.00 32.85 LIG-0.27  OA
BRANCH 9 11
ATOM     11  CA  ARG V 152      23.750  22.594 -62.560  1.00 35.90 LIG 0.40  C 
ATOM     12  N   ARG V 152      25.163  22.135 -62.383  1.00 37.25 LIG 0.61  N 
BRANCH 11 13
ATOM     13  CB  ARG V 152      23.713  23.798 -63.499  1.00 38.16 LIG 0.05  C 
BRANCH 13 14
ATOM     14  CG  ARG V 152      22.323  24.403 -63.622  1.00 40.06 LIG 0.02  C 
BRANCH 14 15
ATOM     15  CD  ARG V 152      21.835  24.462 -65.058  1.00 42.07 LIG 0.14  C 
BRANCH 15 16
ATOM     16  NE  ARG V 152      22.499  23.478 -65.917  1.00 44.48 LIG-0.23  N 
ATOM     17  CZ  ARG V 152      22.529  23.502 -67.251  1.00 45.58 LIG 0.67  C 
ATOM     18  NH1 ARG V 152      21.936  24.470 -67.947  1.00 44.25 LIG-0.23  N 
ATOM     19  NH2 ARG V 152      23.165  22.535 -67.903  1.00 47.95 LIG-0.23  N 
ATOM     20 1HH1 ARG V 152      21.521  25.101 -67.537  1.00 44.25 LIG 0.17  HD
ATOM     21 2HH1 ARG V 152      21.969  24.464 -68.806  1.00 44.25 LIG 0.17  HD
ATOM     22 2HH2 ARG V 152      23.190  22.541 -68.763  1.00 47.95 LIG 0.17  HD
ATOM     23 1HH2 ARG V 152      23.551  21.903 -67.466  1.00 47.95 LIG 0.17  HD
ATOM     24 HE   ARG V 152      22.905  22.828 -65.528  1.00 44.48 LIG 0.18  HD
ENDBRANCH 15 16
ENDBRANCH 14 15
ENDBRANCH 13 14
ENDBRANCH 11 13
ENDBRANCH 9 11
ENDBRANCH 6 7
BRANCH 6 25
ATOM     25  CB  ARG V 153      21.698  20.279 -66.106  1.00 29.44 LIG 0.04  C 
BRANCH 25 26
ATOM     26  CG  ARG V 153      20.529  21.195 -65.813  1.00 30.46 LIG 0.02  C 
BRANCH 26 27
ATOM     27  CD  ARG V 153      19.235  20.749 -66.480  1.00 30.98 LIG 0.14  C 
BRANCH 27 28
ATOM     28  NE  ARG V 153      18.482  19.949 -65.529  1.00 31.91 LIG-0.23  N 
ATOM     29  CZ  ARG V 153      18.094  20.376 -64.330  1.00 32.21 LIG 0.67  C 
ATOM     30  NH2 ARG V 153      18.337  21.621 -63.918  1.00 31.04 LIG-0.23  N 
ATOM     31  NH1 ARG V 153      17.433  19.549 -63.541  1.00 34.14 LIG-0.23  N 
ATOM     32 2HH2 ARG V 153      18.076  21.874 -63.138  1.00 31.04 LIG 0.17  HD
ATOM     33 1HH2 ARG V 153      18.753  22.170 -64.431  1.00 31.04 LIG 0.17  HD
ATOM     34 2HH1 ARG V 153      17.175  19.810 -62.763  1.00 34.14 LIG 0.17  HD
ATOM     35 1HH1 ARG V 153      17.258  18.749 -63.806  1.00 34.14 LIG 0.17  HD
ATOM     36 HE   ARG V 153      18.273  19.146 -65.755  1.00 31.91 LIG 0.18  HD
ENDBRANCH 27 28
ENDBRANCH 26 27
ENDBRANCH 25 26
ENDBRANCH 6 25
ENDBRANCH 4 6
ENDBRANCH 1 2
BRANCH 1 37
ATOM     37  C   LYS V 154      23.005  15.463 -65.903  1.00 29.43 LIG 0.24  C 
ATOM     38 O    LYS V 154      21.778  15.400 -65.788  1.00 29.02 LIG-0.27  OA
ATOM     39  N   LEU V 155      23.679  14.811 -66.840  1.00 29.02 LIG-0.35  N 
ATOM     40 H    LEU V 155      24.531  14.874 -66.941  1.00 29.02 LIG 0.16  HD
BRANCH 39 41
ATOM     41  CA  LEU V 155      23.036  13.920 -67.796  1.00 29.55 LIG 0.18  C 
BRANCH 41 42
ATOM     42  CB  LEU V 155      24.103  13.367 -68.738  1.00 29.70 LIG 0.04  C 
BRANCH 42 43
ATOM     43  CG  LEU V 155      24.162  14.078 -70.091  1.00 30.04 LIG-0.02  C 
ATOM     44  CD1 LEU V 155      22.864  14.819 -70.403  1.00 30.27 LIG 0.01  C 
ATOM     45  CD2 LEU V 155      25.351  15.028 -70.092  1.00 30.44 LIG 0.01  C 
ENDBRANCH 42 43
ENDBRANCH 41 42
BRANCH 41 46
ATOM     46  C   LEU V 155      22.318  12.750 -67.106  1.00 29.88 LIG 0.24  C 
ATOM     47  N   PRO V 156      21.108  12.385 -67.582  1.00 30.63 LIG-0.34  N 
ATOM     48  CD  PRO V 156      20.199  13.090 -68.507  1.00 31.41 LIG 0.13  C 
ATOM     49  CA  PRO V 156      20.505  11.178 -67.039  1.00 30.89 LIG 0.18  C 
ATOM     50  CG  PRO V 156      19.111  12.080 -68.771  1.00 32.36 LIG 0.02  C 
ATOM     51  CB  PRO V 156      19.052  11.257 -67.529  1.00 32.27 LIG 0.04  C 
ATOM     52 O    LEU V 155      22.847  12.182 -66.148  1.00 29.02 LIG-0.27  OA
BRANCH 49 53
ATOM     53  C   PRO V 156      21.193   9.928 -67.572  1.00 31.44 LIG 0.24  C 
ATOM     54 O    PRO V 156      20.924   8.822 -67.102  1.00 31.00 LIG-0.27  OA
ATOM     55  N   GLU V 157      22.053  10.114 -68.570  1.00 32.40 LIG-0.35  N 
ATOM     56 H    GLU V 157      22.134  10.858 -68.994  1.00 32.40 LIG 0.16  HD
BRANCH 55 57
ATOM     57  CA  GLU V 157      22.950   9.058 -69.044  1.00 33.20 LIG 0.18  C 
BRANCH 57 58
ATOM     58  C   GLU V 157      22.182   7.752 -69.194  1.00 33.95 LIG 0.24  C 
ATOM     59 O    GLU V 157      22.278   6.876 -68.340  1.00 33.71 LIG-0.27  OA
ATOM     60  N   ILE V 158      21.443   7.625 -70.288  1.00 34.74 LIG-0.35  N 
ATOM     61 H    ILE V 158      21.367   8.239 -70.885  1.00 34.74 LIG 0.16  HD
BRANCH 60 62
ATOM     62  CA  ILE V 158      20.683   6.413 -70.580  1.00 36.41 LIG 0.17  C 
BRANCH 62 63
ATOM     63  C   ILE V 158      20.865   6.045 -72.059  1.00 36.37 LIG 0.22  C 
ATOM     64 O    ILE V 158      21.055   6.901 -72.924  1.00 37.57 LIG-0.29  OA
ENDBRANCH 62 63
BRANCH 62 65
ATOM     65  CB  ILE V 158      19.194   6.601 -70.213  1.00 38.09 LIG 0.01  C 
ATOM     66  CG2 ILE V 158      18.637   5.341 -69.569  1.00 39.83 LIG 0.01  C 
BRANCH 65 67
ATOM     67  CG1 ILE V 158      19.024   7.788 -69.255  1.00 37.40 LIG 0.00  C 
ATOM     68  CD1 ILE V 158      18.497   7.404 -67.891  1.00 39.06 LIG 0.01  C 
ENDBRANCH 65 67
ENDBRANCH 62 65
ENDBRANCH 60 62
ENDBRANCH 57 58
BRANCH 57 69
ATOM     69  CB  GLU V 157      24.093   8.831 -68.043  1.00 33.67 LIG 0.04  C 
BRANCH 69 70
ATOM     70  CG  GLU V 157      25.474   8.710 -68.668  1.00 33.36 LIG 0.12  C 
BRANCH 70 71
ATOM     71  CD  GLU V 157      25.649   9.588 -69.892  1.00 33.78 LIG 0.17  C 
ATOM     72 OE2  GLU V 157      25.871   9.045 -70.997  1.00 33.85 LIG-0.65  OA
ATOM     73 OE1  GLU V 157      25.555  10.826 -69.750  1.00 33.73 LIG-0.65  OA
ENDBRANCH 70 71
ENDBRANCH 69 70
ENDBRANCH 57 69
ENDBRANCH 55 57
ENDBRANCH 49 53
ENDBRANCH 41 46
ENDBRANCH 39 41
ENDBRANCH 1 37
BRANCH 1 74
ATOM     74  CB  LYS V 154      24.157  15.380 -63.715  1.00 30.73 LIG 0.04  C 
BRANCH 74 75
ATOM     75  CG  LYS V 154      24.389  16.114 -62.396  1.00 31.37 LIG 0.00  C 
BRANCH 75 76
ATOM     76  CD  LYS V 154      24.445  15.144 -61.221  1.00 32.31 LIG 0.03  C 
BRANCH 76 77
ATOM     77  CE  LYS V 154      23.057  14.725 -60.759  1.00 33.00 LIG 0.23  C 
BRANCH 77 78
ATOM     78  NZ  LYS V 154      22.328  15.819 -60.072  1.00 34.35 LIG-0.08  N 
ATOM     79 HZ3  LYS V 154      22.021  16.397 -60.676  1.00 34.35 LIG 0.27  HD
ATOM     80 HZ2  LYS V 154      22.879  16.239 -59.514  1.00 34.35 LIG 0.27  HD
ATOM     81 HZ1  LYS V 154      21.645  15.479 -59.615  1.00 34.35 LIG 0.27  HD
ENDBRANCH 77 78
ENDBRANCH 76 77
ENDBRANCH 75 76
ENDBRANCH 74 75
ENDBRANCH 1 74
TORSDOF 32
ENDMDL
MODEL 4
USER: ADFR SOLUTION from run 157
USER: SCORE 26.129529 LL:  -4.812 LR: -22.516 RR:   0.000 FEB: -12.970
USER: RMSD 8.639748
USER: SEED 156
USER: STATUS no improvement in best in 4 clusters for 5 generations
USER: GENES 34
USER: genes 0 Translation |==|  0.50259 0.84161 0.54390
USER: genes 1 Rotation |==|  0.73765 0.91262 0.65158 0.51715
USER: genes 2 Torsion [C]-CA--N-[C] |==|  0.64110
USER: genes 3 Torsion [N]-C--CA-[N] |==|  0.92438
USER: genes 4 Torsion [C]-CA--N-[C] |==|  0.82104
USER: genes 5 Torsion [N]-C--CA-[N] |==|  0.75071
USER: genes 6 Torsion [C]-CA--CB-[CG] |==|  0.41276
USER: genes 7 Torsion [CA]-CB--CG-[CD] |==|  0.21663
USER: genes 8 Torsion [CB]-CG--CD-[NE] |==|  0.22650
USER: genes 9 Torsion [CG]-CD--NE-[HE] |==|  0.06278
USER: genes 10 Torsion [C]-CA--CB-[CG] |==|  0.97636
USER: genes 11 Torsion [CA]-CB--CG-[CD] |==|  0.68336
USER: genes 12 Torsion [CB]-CG--CD-[NE] |==|  0.23069
USER: genes 13 Torsion [CG]-CD--NE-[CZ] |==|  0.34083
USER: genes 14 Torsion [N]-CA--C-[N] |==|  0.84031
USER: genes 15 Torsion [C]-N--CA-[C] |==|  0.58480
USER: genes 16 Torsion [N]-CA--CB-[CG] |==|  0.01006
USER: genes 17 Torsion [CA]-CB--CG-[CD2] |==|  0.61801
USER: genes 18 Torsion [N]-CA--C-[N] |==|  0.36272
USER: genes 19 Torsion [N]-CA--C-[O] |==|  0.90030
USER: genes 20 Torsion [C]-N--CA-[CB] |==|  0.57783
USER: genes 21 Torsion [N]-CA--C-[N] |==|  0.33334
USER: genes 22 Torsion [C]-N--CA-[CB] |==|  0.46296
USER: genes 23 Torsion [N]-CA--C-[O] |==|  0.86808
USER: genes 24 Torsion [N]-CA--CB-[CG2] |==|  0.85408
USER: genes 25 Torsion [CA]-CB--CG1-[CD1] |==|  0.28255
USER: genes 26 Torsion [N]-CA--CB-[CG] |==|  0.69741
USER: genes 27 Torsion [CA]-CB--CG-[CD] |==|  0.90597
USER: genes 28 Torsion [CB]-CG--CD-[OE2] |==|  0.68795
USER: genes 29 Torsion [N]-CA--CB-[CG] |==|  0.50680
USER: genes 30 Torsion [CA]-CB--CG-[CD] |==|  0.25667
USER: genes 31 Torsion [CB]-CG--CD-[CE] |==|  0.51561
USER: genes 32 Torsion [CG]-CD--CE-[NZ] |==|  0.16515
USER: genes 33 Torsion [CD]-CE--NZ-[HZ2] |==|  0.14365
ROOT
ATOM      1  CA  LYS V 154      22.476  23.561 -63.861  1.00 29.23 LIG 0.18  C 
ENDROOT
BRANCH 1 2
ATOM      2  N   LYS V 154      23.921  23.745 -64.056  1.00 29.36 LIG-0.35  N 
ATOM      3 H    LYS V 154      24.261  23.233 -64.658  1.00 29.36 LIG 0.16  HD
ATOM      4  C   ARG V 153      24.632  24.631 -63.354  1.00 28.75 LIG 0.24  C 
ATOM      5 O    ARG V 153      24.130  25.467 -62.613  1.00 27.33 LIG-0.27  OA
BRANCH 4 6
ATOM      6  CA  ARG V 153      26.142  24.532 -63.475  1.00 29.80 LIG 0.18  C 
BRANCH 6 7
ATOM      7  N   ARG V 153      26.598  23.177 -63.794  1.00 31.02 LIG-0.35  N 
ATOM      8 H    ARG V 153      26.981  23.112 -64.561  1.00 31.02 LIG 0.16  HD
ATOM      9  C   ARG V 152      26.432  22.136 -62.969  1.00 33.76 LIG 0.26  C 
ATOM     10 O    ARG V 152      25.880  22.220 -61.862  1.00 32.85 LIG-0.27  OA
BRANCH 9 11
ATOM     11  CA  ARG V 152      26.957  20.787 -63.493  1.00 35.90 LIG 0.40  C 
ATOM     12  N   ARG V 152      25.916  20.038 -64.263  1.00 37.25 LIG 0.61  N 
BRANCH 11 13
ATOM     13  CB  ARG V 152      28.204  20.970 -64.356  1.00 38.16 LIG 0.05  C 
BRANCH 13 14
ATOM     14  CG  ARG V 152      29.158  19.789 -64.265  1.00 40.06 LIG 0.02  C 
BRANCH 14 15
ATOM     15  CD  ARG V 152      28.703  18.604 -65.097  1.00 42.07 LIG 0.14  C 
BRANCH 15 16
ATOM     16  NE  ARG V 152      29.060  18.740 -66.511  1.00 44.48 LIG-0.23  N 
ATOM     17  CZ  ARG V 152      28.462  18.120 -67.530  1.00 45.58 LIG 0.67  C 
ATOM     18  NH1 ARG V 152      27.438  17.290 -67.339  1.00 44.25 LIG-0.23  N 
ATOM     19  NH2 ARG V 152      28.897  18.333 -68.766  1.00 47.95 LIG-0.23  N 
ATOM     20 1HH1 ARG V 152      27.146  17.143 -66.544  1.00 44.25 LIG 0.17  HD
ATOM     21 2HH1 ARG V 152      27.068  16.902 -68.012  1.00 44.25 LIG 0.17  HD
ATOM     22 2HH2 ARG V 152      28.518  17.939 -69.430  1.00 47.95 LIG 0.17  HD
ATOM     23 1HH2 ARG V 152      29.558  18.867 -68.903  1.00 47.95 LIG 0.17  HD
ATOM     24 HE   ARG V 152      29.712  19.267 -66.702  1.00 44.48 LIG 0.18  HD
ENDBRANCH 15 16
ENDBRANCH 14 15
ENDBRANCH 13 14
ENDBRANCH 11 13
ENDBRANCH 9 11
ENDBRANCH 6 7
BRANCH 6 25
ATOM     25  CB  ARG V 153      26.588  25.536 -64.561  1.00 29.44 LIG 0.04  C 
BRANCH 25 26
ATOM     26  CG  ARG V 153      25.438  26.161 -65.321  1.00 30.46 LIG 0.02  C 
BRANCH 26 27
ATOM     27  CD  ARG V 153      25.402  25.762 -66.789  1.00 30.98 LIG 0.14  C 
BRANCH 27 28
ATOM     28  NE  ARG V 153      24.738  24.474 -66.897  1.00 31.91 LIG-0.23  N 
ATOM     29  CZ  ARG V 153      23.656  24.246 -67.637  1.00 32.21 LIG 0.67  C 
ATOM     30  NH2 ARG V 153      23.111  25.200 -68.392  1.00 31.04 LIG-0.23  N 
ATOM     31  NH1 ARG V 153      23.127  23.036 -67.638  1.00 34.14 LIG-0.23  N 
ATOM     32 2HH2 ARG V 153      22.411  25.029 -68.863  1.00 31.04 LIG 0.17  HD
ATOM     33 1HH2 ARG V 153      23.458  25.986 -68.410  1.00 31.04 LIG 0.17  HD
ATOM     34 2HH1 ARG V 153      22.428  22.873 -68.111  1.00 34.14 LIG 0.17  HD
ATOM     35 1HH1 ARG V 153      23.482  22.411 -67.166  1.00 34.14 LIG 0.17  HD
ATOM     36 HE   ARG V 153      25.066  23.815 -66.452  1.00 31.91 LIG 0.18  HD
ENDBRANCH 27 28
ENDBRANCH 26 27
ENDBRANCH 25 26
ENDBRANCH 6 25
ENDBRANCH 4 6
ENDBRANCH 1 2
BRANCH 1 37
ATOM     37  C   LYS V 154      22.080  22.091 -63.652  1.00 29.43 LIG 0.24  C 
ATOM     38 O    LYS V 154      21.515  21.709 -62.624  1.00 29.02 LIG-0.27  OA
ATOM     39  N   LEU V 155      22.433  21.271 -64.632  1.00 29.02 LIG-0.35  N 
ATOM     40 H    LEU V 155      22.803  21.537 -65.362  1.00 29.02 LIG 0.16  HD
BRANCH 39 41
ATOM     41  CA  LEU V 155      22.228  19.831 -64.565  1.00 29.55 LIG 0.18  C 
BRANCH 41 42
ATOM     42  CB  LEU V 155      20.851  19.509 -65.144  1.00 29.70 LIG 0.04  C 
BRANCH 42 43
ATOM     43  CG  LEU V 155      20.116  20.728 -65.704  1.00 30.04 LIG-0.02  C 
ATOM     44  CD1 LEU V 155      20.244  20.824 -67.223  1.00 30.27 LIG 0.01  C 
ATOM     45  CD2 LEU V 155      18.656  20.655 -65.279  1.00 30.44 LIG 0.01  C 
ENDBRANCH 42 43
ENDBRANCH 41 42
BRANCH 41 46
ATOM     46  C   LEU V 155      23.297  19.056 -65.350  1.00 29.88 LIG 0.24  C 
ATOM     47  N   PRO V 156      23.913  18.029 -64.726  1.00 30.63 LIG-0.34  N 
ATOM     48  CD  PRO V 156      23.938  17.662 -63.296  1.00 31.41 LIG 0.13  C 
ATOM     49  CA  PRO V 156      24.803  17.194 -65.518  1.00 30.89 LIG 0.18  C 
ATOM     50  CG  PRO V 156      24.646  16.330 -63.285  1.00 32.36 LIG 0.02  C 
ATOM     51  CB  PRO V 156      25.563  16.382 -64.459  1.00 32.27 LIG 0.04  C 
ATOM     52 O    LEU V 155      23.570  19.383 -66.507  1.00 29.02 LIG-0.27  OA
BRANCH 49 53
ATOM     53  C   PRO V 156      24.019  16.277 -66.449  1.00 31.44 LIG 0.24  C 
ATOM     54 O    PRO V 156      22.945  15.795 -66.087  1.00 31.00 LIG-0.27  OA
ATOM     55  N   GLU V 157      24.549  16.073 -67.652  1.00 32.40 LIG-0.35  N 
ATOM     56 H    GLU V 157      25.218  16.519 -67.958  1.00 32.40 LIG 0.16  HD
BRANCH 55 57
ATOM     57  CA  GLU V 157      24.038  15.058 -68.575  1.00 33.20 LIG 0.18  C 
BRANCH 57 58
ATOM     58  C   GLU V 157      23.501  13.866 -67.794  1.00 33.95 LIG 0.24  C 
ATOM     59 O    GLU V 157      24.244  13.218 -67.064  1.00 33.71 LIG-0.27  OA
ATOM     60  N   ILE V 158      22.219  13.576 -67.970  1.00 34.74 LIG-0.35  N 
ATOM     61 H    ILE V 158      21.692  14.032 -68.475  1.00 34.74 LIG 0.16  HD
BRANCH 60 62
ATOM     62  CA  ILE V 158      21.579  12.440 -67.313  1.00 36.41 LIG 0.17  C 
BRANCH 62 63
ATOM     63  C   ILE V 158      22.116  11.136 -67.921  1.00 36.37 LIG 0.22  C 
ATOM     64 O    ILE V 158      22.195  10.969 -69.138  1.00 37.57 LIG-0.29  OA
ENDBRANCH 62 63
BRANCH 62 65
ATOM     65  CB  ILE V 158      20.041  12.537 -67.430  1.00 38.09 LIG 0.01  C 
ATOM     66  CG2 ILE V 158      19.553  13.893 -66.943  1.00 39.83 LIG 0.01  C 
BRANCH 65 67
ATOM     67  CG1 ILE V 158      19.599  12.322 -68.884  1.00 37.40 LIG 0.00  C 
ATOM     68  CD1 ILE V 158      19.053  10.940 -69.161  1.00 39.06 LIG 0.01  C 
ENDBRANCH 65 67
ENDBRANCH 62 65
ENDBRANCH 60 62
ENDBRANCH 57 58
BRANCH 57 69
ATOM     69  CB  GLU V 157      25.157  14.558 -69.502  1.00 33.67 LIG 0.04  C 
BRANCH 69 70
ATOM     70  CG  GLU V 157      25.035  15.008 -70.950  1.00 33.36 LIG 0.12  C 
BRANCH 70 71
ATOM     71  CD  GLU V 157      23.597  15.121 -71.415  1.00 33.78 LIG 0.17  C 
ATOM     72 OE2  GLU V 157      23.178  14.319 -72.279  1.00 33.85 LIG-0.65  OA
ATOM     73 OE1  GLU V 157      22.879  16.010 -70.908  1.00 33.73 LIG-0.65  OA
ENDBRANCH 70 71
ENDBRANCH 69 70
ENDBRANCH 57 69
ENDBRANCH 55 57
ENDBRANCH 49 53
ENDBRANCH 41 46
ENDBRANCH 39 41
ENDBRANCH 1 37
BRANCH 1 74
ATOM     74  CB  LYS V 154      21.685  24.091 -65.054  1.00 30.73 LIG 0.04  C 
BRANCH 74 75
ATOM     75  CG  LYS V 154      20.165  24.003 -64.928  1.00 31.37 LIG 0.00  C 
BRANCH 75 76
ATOM     76  CD  LYS V 154      19.579  25.284 -64.345  1.00 32.31 LIG 0.03  C 
BRANCH 76 77
ATOM     77  CE  LYS V 154      18.084  25.162 -64.086  1.00 33.00 LIG 0.23  C 
BRANCH 77 78
ATOM     78  NZ  LYS V 154      17.756  24.069 -63.138  1.00 34.35 LIG-0.08  N 
ATOM     79 HZ3  LYS V 154      16.893  24.110 -62.924  1.00 34.35 LIG 0.27  HD
ATOM     80 HZ2  LYS V 154      18.248  24.156 -62.402  1.00 34.35 LIG 0.27  HD
ATOM     81 HZ1  LYS V 154      17.929  23.284 -63.519  1.00 34.35 LIG 0.27  HD
ENDBRANCH 77 78
ENDBRANCH 76 77
ENDBRANCH 75 76
ENDBRANCH 74 75
ENDBRANCH 1 74
TORSDOF 32
ENDMDL
MODEL 5
USER: ADFR SOLUTION from run 31
USER: SCORE 25.526994 LL:  -3.927 LR: -22.277 RR:   0.000 FEB: -12.731
USER: RMSD 6.866569
USER: SEED 30
USER: STATUS searching
USER: GENES 34
USER: genes 0 Translation |==|  0.51206 0.69436 0.50483
USER: genes 1 Rotation |==|  0.54503 0.89409 0.80406 0.51461
USER: genes 2 Torsion [C]-CA--N-[C] |==|  0.76936
USER: genes 3 Torsion [N]-C--CA-[N] |==|  0.05290
USER: genes 4 Torsion [C]-CA--N-[C] |==|  0.20261
USER: genes 5 Torsion [N]-C--CA-[N] |==|  0.00564
USER: genes 6 Torsion [C]-CA--CB-[CG] |==|  0.15835
USER: genes 7 Torsion [CA]-CB--CG-[CD] |==|  0.62578
USER: genes 8 Torsion [CB]-CG--CD-[NE] |==|  0.80011
USER: genes 9 Torsion [CG]-CD--NE-[HE] |==|  0.74144
USER: genes 10 Torsion [C]-CA--CB-[CG] |==|  0.17614
USER: genes 11 Torsion [CA]-CB--CG-[CD] |==|  0.67952
USER: genes 12 Torsion [CB]-CG--CD-[NE] |==|  0.01452
USER: genes 13 Torsion [CG]-CD--NE-[CZ] |==|  0.38119
USER: genes 14 Torsion [N]-CA--C-[N] |==|  0.32569
USER: genes 15 Torsion [C]-N--CA-[C] |==|  0.69185
USER: genes 16 Torsion [N]-CA--CB-[CG] |==|  0.94491
USER: genes 17 Torsion [CA]-CB--CG-[CD2] |==|  0.75207
USER: genes 18 Torsion [N]-CA--C-[N] |==|  0.35423
USER: genes 19 Torsion [N]-CA--C-[O] |==|  0.84339
USER: genes 20 Torsion [C]-N--CA-[CB] |==|  0.86111
USER: genes 21 Torsion [N]-CA--C-[N] |==|  0.38004
USER: genes 22 Torsion [C]-N--CA-[CB] |==|  0.51471
USER: genes 23 Torsion [N]-CA--C-[O] |==|  0.28799
USER: genes 24 Torsion [N]-CA--CB-[CG2] |==|  0.78983
USER: genes 25 Torsion [CA]-CB--CG1-[CD1] |==|  0.64630
USER: genes 26 Torsion [N]-CA--CB-[CG] |==|  0.64731
USER: genes 27 Torsion [CA]-CB--CG-[CD] |==|  0.93378
USER: genes 28 Torsion [CB]-CG--CD-[OE2] |==|  0.24054
USER: genes 29 Torsion [N]-CA--CB-[CG] |==|  0.75373
USER: genes 30 Torsion [CA]-CB--CG-[CD] |==|  0.81010
USER: genes 31 Torsion [CB]-CG--CD-[CE] |==|  0.42334
USER: genes 32 Torsion [CG]-CD--CE-[NZ] |==|  0.59088
USER: genes 33 Torsion [CD]-CE--NZ-[HZ2] |==|  0.03619
ROOT
ATOM      1  CA  LYS V 154      22.654  19.254 -64.886  1.00 29.23 LIG 0.18  C 
ENDROOT
BRANCH 1 2
ATOM      2  N   LYS V 154      23.557  20.101 -64.094  1.00 29.36 LIG-0.35  N 
ATOM      3 H    LYS V 154      23.925  20.735 -64.543  1.00 29.36 LIG 0.16  HD
ATOM      4  C   ARG V 153      23.777  19.893 -62.794  1.00 28.75 LIG 0.24  C 
ATOM      5 O    ARG V 153      23.139  19.095 -62.118  1.00 27.33 LIG-0.27  OA
BRANCH 4 6
ATOM      6  CA  ARG V 153      24.919  20.675 -62.169  1.00 29.80 LIG 0.18  C 
BRANCH 6 7
ATOM      7  N   ARG V 153      25.308  21.842 -62.965  1.00 31.02 LIG-0.35  N 
ATOM      8 H    ARG V 153      26.059  21.746 -63.374  1.00 31.02 LIG 0.16  HD
ATOM      9  C   ARG V 152      24.566  22.952 -63.047  1.00 33.76 LIG 0.26  C 
ATOM     10 O    ARG V 152      23.483  23.098 -62.460  1.00 32.85 LIG-0.27  OA
BRANCH 9 11
ATOM     11  CA  ARG V 152      25.156  24.079 -63.914  1.00 35.90 LIG 0.40  C 
ATOM     12  N   ARG V 152      26.451  23.683 -64.547  1.00 37.25 LIG 0.61  N 
BRANCH 11 13
ATOM     13  CB  ARG V 152      24.171  24.528 -64.992  1.00 38.16 LIG 0.05  C 
BRANCH 13 14
ATOM     14  CG  ARG V 152      22.841  24.989 -64.415  1.00 40.06 LIG 0.02  C 
BRANCH 14 15
ATOM     15  CD  ARG V 152      21.650  24.427 -65.169  1.00 42.07 LIG 0.14  C 
BRANCH 15 16
ATOM     16  NE  ARG V 152      21.483  25.037 -66.491  1.00 44.48 LIG-0.23  N 
ATOM     17  CZ  ARG V 152      22.074  24.633 -67.617  1.00 45.58 LIG 0.67  C 
ATOM     18  NH1 ARG V 152      22.899  23.589 -67.638  1.00 44.25 LIG-0.23  N 
ATOM     19  NH2 ARG V 152      21.834  25.289 -68.747  1.00 47.95 LIG-0.23  N 
ATOM     20 1HH1 ARG V 152      23.063  23.156 -66.914  1.00 44.25 LIG 0.17  HD
ATOM     21 2HH1 ARG V 152      23.268  23.347 -68.376  1.00 44.25 LIG 0.17  HD
ATOM     22 2HH2 ARG V 152      22.210  25.037 -69.478  1.00 47.95 LIG 0.17  HD
ATOM     23 1HH2 ARG V 152      21.303  25.966 -68.747  1.00 47.95 LIG 0.17  HD
ATOM     24 HE   ARG V 152      20.957  25.715 -66.546  1.00 44.48 LIG 0.18  HD
ENDBRANCH 15 16
ENDBRANCH 14 15
ENDBRANCH 13 14
ENDBRANCH 11 13
ENDBRANCH 9 11
ENDBRANCH 6 7
BRANCH 6 25
ATOM     25  CB  ARG V 153      24.475  21.093 -60.751  1.00 29.44 LIG 0.04  C 
BRANCH 25 26
ATOM     26  CG  ARG V 153      24.225  19.924 -59.822  1.00 30.46 LIG 0.02  C 
BRANCH 26 27
ATOM     27  CD  ARG V 153      22.772  19.808 -59.383  1.00 30.98 LIG 0.14  C 
BRANCH 27 28
ATOM     28  NE  ARG V 153      21.997  20.809 -60.096  1.00 31.91 LIG-0.23  N 
ATOM     29  CZ  ARG V 153      20.801  20.588 -60.637  1.00 32.21 LIG 0.67  C 
ATOM     30  NH2 ARG V 153      20.188  19.409 -60.523  1.00 31.04 LIG-0.23  N 
ATOM     31  NH1 ARG V 153      20.201  21.571 -61.282  1.00 34.14 LIG-0.23  N 
ATOM     32 2HH2 ARG V 153      19.415  19.290 -60.881  1.00 31.04 LIG 0.17  HD
ATOM     33 1HH2 ARG V 153      20.564  18.768 -60.091  1.00 31.04 LIG 0.17  HD
ATOM     34 2HH1 ARG V 153      19.428  21.444 -61.637  1.00 34.14 LIG 0.17  HD
ATOM     35 1HH1 ARG V 153      20.583  22.339 -61.347  1.00 34.14 LIG 0.17  HD
ATOM     36 HE   ARG V 153      22.333  21.596 -60.174  1.00 31.91 LIG 0.18  HD
ENDBRANCH 27 28
ENDBRANCH 26 27
ENDBRANCH 25 26
ENDBRANCH 6 25
ENDBRANCH 4 6
ENDBRANCH 1 2
BRANCH 1 37
ATOM     37  C   LYS V 154      23.325  17.966 -65.388  1.00 29.43 LIG 0.24  C 
ATOM     38 O    LYS V 154      24.258  17.989 -66.194  1.00 29.02 LIG-0.27  OA
ATOM     39  N   LEU V 155      22.794  16.842 -64.927  1.00 29.02 LIG-0.35  N 
ATOM     40 H    LEU V 155      22.162  16.821 -64.344  1.00 29.02 LIG 0.16  HD
BRANCH 39 41
ATOM     41  CA  LEU V 155      23.235  15.525 -65.367  1.00 29.55 LIG 0.18  C 
BRANCH 41 42
ATOM     42  CB  LEU V 155      23.548  14.680 -64.133  1.00 29.70 LIG 0.04  C 
BRANCH 42 43
ATOM     43  CG  LEU V 155      23.794  15.502 -62.867  1.00 30.04 LIG-0.02  C 
ATOM     44  CD1 LEU V 155      23.328  14.770 -61.611  1.00 30.27 LIG 0.01  C 
ATOM     45  CD2 LEU V 155      25.275  15.843 -62.787  1.00 30.44 LIG 0.01  C 
ENDBRANCH 42 43
ENDBRANCH 41 42
BRANCH 41 46
ATOM     46  C   LEU V 155      22.169  14.809 -66.210  1.00 29.88 LIG 0.24  C 
ATOM     47  N   PRO V 156      22.540  14.328 -67.416  1.00 30.63 LIG-0.34  N 
ATOM     48  CD  PRO V 156      23.752  14.598 -68.215  1.00 31.41 LIG 0.13  C 
ATOM     49  CA  PRO V 156      21.581  13.509 -68.141  1.00 30.89 LIG 0.18  C 
ATOM     50  CG  PRO V 156      23.643  13.624 -69.362  1.00 32.36 LIG 0.02  C 
ATOM     51  CB  PRO V 156      22.176  13.431 -69.554  1.00 32.27 LIG 0.04  C 
ATOM     52 O    LEU V 155      21.019  14.694 -65.781  1.00 29.02 LIG-0.27  OA
BRANCH 49 53
ATOM     53  C   PRO V 156      21.460  12.121 -67.522  1.00 31.44 LIG 0.24  C 
ATOM     54 O    PRO V 156      22.457  11.410 -67.391  1.00 31.00 LIG-0.27  OA
ATOM     55  N   GLU V 157      20.243  11.764 -67.121  1.00 32.40 LIG-0.35  N 
ATOM     56 H    GLU V 157      19.578  12.308 -67.079  1.00 32.40 LIG 0.16  HD
BRANCH 55 57
ATOM     57  CA  GLU V 157      19.919  10.396 -66.711  1.00 33.20 LIG 0.18  C 
BRANCH 57 58
ATOM     58  C   GLU V 157      20.606  10.072 -65.392  1.00 33.95 LIG 0.24  C 
ATOM     59 O    GLU V 157      21.778  10.386 -65.209  1.00 33.71 LIG-0.27  OA
ATOM     60  N   ILE V 158      19.877   9.428 -64.490  1.00 34.74 LIG-0.35  N 
ATOM     61 H    ILE V 158      19.053   9.212 -64.610  1.00 34.74 LIG 0.16  HD
BRANCH 60 62
ATOM     62  CA  ILE V 158      20.417   9.021 -63.196  1.00 36.41 LIG 0.17  C 
BRANCH 62 63
ATOM     63  C   ILE V 158      21.730   8.257 -63.413  1.00 36.37 LIG 0.22  C 
ATOM     64 O    ILE V 158      22.827   8.774 -63.202  1.00 37.57 LIG-0.29  OA
ENDBRANCH 62 63
BRANCH 62 65
ATOM     65  CB  ILE V 158      19.384   8.179 -62.414  1.00 38.09 LIG 0.01  C 
ATOM     66  CG2 ILE V 158      18.293   9.069 -61.839  1.00 39.83 LIG 0.01  C 
BRANCH 65 67
ATOM     67  CG1 ILE V 158      18.755   7.119 -63.328  1.00 37.40 LIG 0.00  C 
ATOM     68  CD1 ILE V 158      17.243   7.133 -63.335  1.00 39.06 LIG 0.01  C 
ENDBRANCH 65 67
ENDBRANCH 62 65
ENDBRANCH 60 62
ENDBRANCH 57 58
BRANCH 57 69
ATOM     69  CB  GLU V 157      20.403   9.387 -67.764  1.00 33.67 LIG 0.04  C 
BRANCH 69 70
ATOM     70  CG  GLU V 157      19.339   8.419 -68.257  1.00 33.36 LIG 0.12  C 
BRANCH 70 71
ATOM     71  CD  GLU V 157      18.208   8.228 -67.265  1.00 33.78 LIG 0.17  C 
ATOM     72 OE2  GLU V 157      17.244   9.025 -67.291  1.00 33.85 LIG-0.65  OA
ATOM     73 OE1  GLU V 157      18.279   7.272 -66.463  1.00 33.73 LIG-0.65  OA
ENDBRANCH 70 71
ENDBRANCH 69 70
ENDBRANCH 57 69
ENDBRANCH 55 57
ENDBRANCH 49 53
ENDBRANCH 41 46
ENDBRANCH 39 41
ENDBRANCH 1 37
BRANCH 1 74
ATOM     74  CB  LYS V 154      22.117  20.004 -66.103  1.00 30.73 LIG 0.04  C 
BRANCH 74 75
ATOM     75  CG  LYS V 154      20.832  20.797 -65.874  1.00 31.37 LIG 0.00  C 
BRANCH 75 76
ATOM     76  CD  LYS V 154      19.644  19.873 -65.628  1.00 32.31 LIG 0.03  C 
BRANCH 76 77
ATOM     77  CE  LYS V 154      18.574  20.535 -64.771  1.00 33.00 LIG 0.23  C 
BRANCH 77 78
ATOM     78  NZ  LYS V 154      17.860  19.569 -63.901  1.00 34.35 LIG-0.08  N 
ATOM     79 HZ3  LYS V 154      17.809  19.895 -63.074  1.00 34.35 LIG 0.27  HD
ATOM     80 HZ2  LYS V 154      18.303  18.797 -63.888  1.00 34.35 LIG 0.27  HD
ATOM     81 HZ1  LYS V 154      17.040  19.434 -64.218  1.00 34.35 LIG 0.27  HD
ENDBRANCH 77 78
ENDBRANCH 76 77
ENDBRANCH 75 76
ENDBRANCH 74 75
ENDBRANCH 1 74
TORSDOF 32
ENDMDL
MODEL 6
USER: ADFR SOLUTION from run 16
USER: SCORE 23.881831 LL:  -4.184 LR: -22.232 RR:   0.000 FEB: -12.686
USER: RMSD 7.613406
USER: SEED 364273
USER: STATUS no improvement in best in 14 clusters for 5 generations
USER: GENES 34
USER: genes 0 Translation |==|  0.50714 0.71435 0.52155
USER: genes 1 Rotation |==|  0.53024 0.09789 0.29080 0.70888
USER: genes 2 Torsion [C]-CA--N-[C] |==|  0.56767
USER: genes 3 Torsion [N]-C--CA-[N] |==|  0.02499
USER: genes 4 Torsion [C]-CA--N-[C] |==|  0.57004
USER: genes 5 Torsion [N]-C--CA-[N] |==|  0.73364
USER: genes 6 Torsion [C]-CA--CB-[CG] |==|  0.52518
USER: genes 7 Torsion [CA]-CB--CG-[CD] |==|  0.72227
USER: genes 8 Torsion [CB]-CG--CD-[NE] |==|  0.97312
USER: genes 9 Torsion [CG]-CD--NE-[HE] |==|  0.25134
USER: genes 10 Torsion [C]-CA--CB-[CG] |==|  0.78614
USER: genes 11 Torsion [CA]-CB--CG-[CD] |==|  0.27351
USER: genes 12 Torsion [CB]-CG--CD-[NE] |==|  0.16620
USER: genes 13 Torsion [CG]-CD--NE-[CZ] |==|  0.24116
USER: genes 14 Torsion [N]-CA--C-[N] |==|  0.22980
USER: genes 15 Torsion [C]-N--CA-[C] |==|  0.83016
USER: genes 16 Torsion [N]-CA--CB-[CG] |==|  0.76498
USER: genes 17 Torsion [CA]-CB--CG-[CD2] |==|  0.23501
USER: genes 18 Torsion [N]-CA--C-[N] |==|  0.86691
USER: genes 19 Torsion [N]-CA--C-[O] |==|  0.84696
USER: genes 20 Torsion [C]-N--CA-[CB] |==|  0.51465
USER: genes 21 Torsion [N]-CA--C-[N] |==|  0.76448
USER: genes 22 Torsion [C]-N--CA-[CB] |==|  0.29296
USER: genes 23 Torsion [N]-CA--C-[O] |==|  0.07961
USER: genes 24 Torsion [N]-CA--CB-[CG2] |==|  0.97904
USER: genes 25 Torsion [CA]-CB--CG1-[CD1] |==|  0.30376
USER: genes 26 Torsion [N]-CA--CB-[CG] |==|  0.75662
USER: genes 27 Torsion [CA]-CB--CG-[CD] |==|  0.22531
USER: genes 28 Torsion [CB]-CG--CD-[OE2] |==|  0.54999
USER: genes 29 Torsion [N]-CA--CB-[CG] |==|  0.01887
USER: genes 30 Torsion [CA]-CB--CG-[CD] |==|  0.54974
USER: genes 31 Torsion [CB]-CG--CD-[CE] |==|  0.26663
USER: genes 32 Torsion [CG]-CD--CE-[NZ] |==|  0.72168
USER: genes 33 Torsion [CD]-CE--NZ-[HZ2] |==|  0.03370
ROOT
ATOM      1  CA  LYS V 154      22.562  19.839 -64.447  1.00 29.23 LIG 0.18  C 
ENDROOT
BRANCH 1 2
ATOM      2  N   LYS V 154      22.735  21.293 -64.326  1.00 29.36 LIG-0.35  N 
ATOM      3 H    LYS V 154      23.214  21.642 -64.949  1.00 29.36 LIG 0.16  HD
ATOM      4  C   ARG V 153      22.192  21.998 -63.331  1.00 28.75 LIG 0.24  C 
ATOM      5 O    ARG V 153      21.384  21.536 -62.535  1.00 27.33 LIG-0.27  OA
BRANCH 4 6
ATOM      6  CA  ARG V 153      22.663  23.434 -63.186  1.00 29.80 LIG 0.18  C 
BRANCH 6 7
ATOM      7  N   ARG V 153      23.496  23.873 -64.309  1.00 31.02 LIG-0.35  N 
ATOM      8 H    ARG V 153      23.349  23.441 -65.038  1.00 31.02 LIG 0.16  HD
ATOM      9  C   ARG V 152      24.402  24.853 -64.209  1.00 33.76 LIG 0.26  C 
ATOM     10 O    ARG V 152      24.621  25.481 -63.162  1.00 32.85 LIG-0.27  OA
BRANCH 9 11
ATOM     11  CA  ARG V 152      25.196  25.152 -65.494  1.00 35.90 LIG 0.40  C 
ATOM     12  N   ARG V 152      26.513  24.444 -65.520  1.00 37.25 LIG 0.61  N 
BRANCH 11 13
ATOM     13  CB  ARG V 152      24.393  24.794 -66.743  1.00 38.16 LIG 0.05  C 
BRANCH 13 14
ATOM     14  CG  ARG V 152      25.224  24.869 -68.015  1.00 40.06 LIG 0.02  C 
BRANCH 14 15
ATOM     15  CD  ARG V 152      24.996  26.155 -68.788  1.00 42.07 LIG 0.14  C 
BRANCH 15 16
ATOM     16  NE  ARG V 152      23.870  26.933 -68.264  1.00 44.48 LIG-0.23  N 
ATOM     17  CZ  ARG V 152      22.597  26.819 -68.649  1.00 45.58 LIG 0.67  C 
ATOM     18  NH1 ARG V 152      22.224  25.944 -69.581  1.00 44.25 LIG-0.23  N 
ATOM     19  NH2 ARG V 152      21.678  27.598 -68.091  1.00 47.95 LIG-0.23  N 
ATOM     20 1HH1 ARG V 152      22.809  25.434 -69.951  1.00 44.25 LIG 0.17  HD
ATOM     21 2HH1 ARG V 152      21.398  25.889 -69.813  1.00 44.25 LIG 0.17  HD
ATOM     22 2HH2 ARG V 152      20.855  27.533 -68.332  1.00 47.95 LIG 0.17  HD
ATOM     23 1HH2 ARG V 152      21.906  28.169 -67.488  1.00 47.95 LIG 0.17  HD
ATOM     24 HE   ARG V 152      24.045  27.514 -67.655  1.00 44.48 LIG 0.18  HD
ENDBRANCH 15 16
ENDBRANCH 14 15
ENDBRANCH 13 14
ENDBRANCH 11 13
ENDBRANCH 9 11
ENDBRANCH 6 7
BRANCH 6 25
ATOM     25  CB  ARG V 153      21.408  24.324 -63.046  1.00 29.44 LIG 0.04  C 
BRANCH 25 26
ATOM     26  CG  ARG V 153      20.689  24.571 -64.355  1.00 30.46 LIG 0.02  C 
BRANCH 26 27
ATOM     27  CD  ARG V 153      19.489  23.657 -64.562  1.00 30.98 LIG 0.14  C 
BRANCH 27 28
ATOM     28  NE  ARG V 153      18.551  23.881 -63.475  1.00 31.91 LIG-0.23  N 
ATOM     29  CZ  ARG V 153      17.609  24.820 -63.478  1.00 32.21 LIG 0.67  C 
ATOM     30  NH2 ARG V 153      17.422  25.621 -64.528  1.00 31.04 LIG-0.23  N 
ATOM     31  NH1 ARG V 153      16.827  24.944 -62.421  1.00 34.14 LIG-0.23  N 
ATOM     32 2HH2 ARG V 153      16.806  26.222 -64.507  1.00 31.04 LIG 0.17  HD
ATOM     33 1HH2 ARG V 153      17.916  25.537 -65.226  1.00 31.04 LIG 0.17  HD
ATOM     34 2HH1 ARG V 153      16.213  25.547 -62.408  1.00 34.14 LIG 0.17  HD
ATOM     35 1HH1 ARG V 153      16.931  24.421 -61.746  1.00 34.14 LIG 0.17  HD
ATOM     36 HE   ARG V 153      18.608  23.373 -62.784  1.00 31.91 LIG 0.18  HD
ENDBRANCH 27 28
ENDBRANCH 26 27
ENDBRANCH 25 26
ENDBRANCH 6 25
ENDBRANCH 4 6
ENDBRANCH 1 2
BRANCH 1 37
ATOM     37  C   LYS V 154      23.688  19.164 -65.245  1.00 29.43 LIG 0.24  C 
ATOM     38 O    LYS V 154      23.553  18.860 -66.433  1.00 29.02 LIG-0.27  OA
ATOM     39  N   LEU V 155      24.784  18.895 -64.550  1.00 29.02 LIG-0.35  N 
ATOM     40 H    LEU V 155      24.894  19.129 -63.729  1.00 29.02 LIG 0.16  HD
BRANCH 39 41
ATOM     41  CA  LEU V 155      25.916  18.171 -65.113  1.00 29.55 LIG 0.18  C 
BRANCH 41 42
ATOM     42  CB  LEU V 155      27.011  18.082 -64.051  1.00 29.70 LIG 0.04  C 
BRANCH 42 43
ATOM     43  CG  LEU V 155      27.918  19.312 -63.994  1.00 30.04 LIG-0.02  C 
ATOM     44  CD1 LEU V 155      28.221  19.863 -65.386  1.00 30.27 LIG 0.01  C 
ATOM     45  CD2 LEU V 155      27.258  20.365 -63.117  1.00 30.44 LIG 0.01  C 
ENDBRANCH 42 43
ENDBRANCH 41 42
BRANCH 41 46
ATOM     46  C   LEU V 155      25.533  16.753 -65.561  1.00 29.88 LIG 0.24  C 
ATOM     47  N   PRO V 156      24.825  15.991 -64.700  1.00 30.63 LIG-0.34  N 
ATOM     48  CD  PRO V 156      24.565  16.177 -63.259  1.00 31.41 LIG 0.13  C 
ATOM     49  CA  PRO V 156      24.322  14.715 -65.184  1.00 30.89 LIG 0.18  C 
ATOM     50  CG  PRO V 156      23.574  15.087 -62.935  1.00 32.36 LIG 0.02  C 
ATOM     51  CB  PRO V 156      23.889  13.994 -63.899  1.00 32.27 LIG 0.04  C 
ATOM     52 O    LEU V 155      25.876  16.345 -66.673  1.00 29.02 LIG-0.27  OA
BRANCH 49 53
ATOM     53  C   PRO V 156      23.141  14.907 -66.126  1.00 31.44 LIG 0.24  C 
ATOM     54 O    PRO V 156      22.153  15.547 -65.763  1.00 31.00 LIG-0.27  OA
ATOM     55  N   GLU V 157      23.268  14.377 -67.340  1.00 32.40 LIG-0.35  N 
ATOM     56 H    GLU V 157      24.007  14.058 -67.643  1.00 32.40 LIG 0.16  HD
BRANCH 55 57
ATOM     57  CA  GLU V 157      22.150  14.286 -68.281  1.00 33.20 LIG 0.18  C 
BRANCH 57 58
ATOM     58  C   GLU V 157      20.985  13.549 -67.635  1.00 33.95 LIG 0.24  C 
ATOM     59 O    GLU V 157      20.090  14.174 -67.075  1.00 33.71 LIG-0.27  OA
ATOM     60  N   ILE V 158      21.018  12.224 -67.700  1.00 34.74 LIG-0.35  N 
ATOM     61 H    ILE V 158      21.638  11.782 -68.098  1.00 34.74 LIG 0.16  HD
BRANCH 60 62
ATOM     62  CA  ILE V 158      19.986  11.388 -67.093  1.00 36.41 LIG 0.17  C 
BRANCH 62 63
ATOM     63  C   ILE V 158      20.654  10.287 -66.256  1.00 36.37 LIG 0.22  C 
ATOM     64 O    ILE V 158      21.756  10.448 -65.730  1.00 37.57 LIG-0.29  OA
ENDBRANCH 62 63
BRANCH 62 65
ATOM     65  CB  ILE V 158      19.053  10.800 -68.175  1.00 38.09 LIG 0.01  C 
ATOM     66  CG2 ILE V 158      19.362  11.407 -69.535  1.00 39.83 LIG 0.01  C 
BRANCH 65 67
ATOM     67  CG1 ILE V 158      19.207   9.275 -68.245  1.00 37.40 LIG 0.00  C 
ATOM     68  CD1 ILE V 158      18.011   8.513 -67.719  1.00 39.06 LIG 0.01  C 
ENDBRANCH 65 67
ENDBRANCH 62 65
ENDBRANCH 60 62
ENDBRANCH 57 58
BRANCH 57 69
ATOM     69  CB  GLU V 157      22.566  13.513 -69.542  1.00 33.67 LIG 0.04  C 
BRANCH 69 70
ATOM     70  CG  GLU V 157      23.192  14.364 -70.635  1.00 33.36 LIG 0.12  C 
BRANCH 70 71
ATOM     71  CD  GLU V 157      24.661  14.653 -70.391  1.00 33.78 LIG 0.17  C 
ATOM     72 OE2  GLU V 157      25.200  15.598 -71.009  1.00 33.85 LIG-0.65  OA
ATOM     73 OE1  GLU V 157      25.277  13.937 -69.572  1.00 33.73 LIG-0.65  OA
ENDBRANCH 70 71
ENDBRANCH 69 70
ENDBRANCH 57 69
ENDBRANCH 55 57
ENDBRANCH 49 53
ENDBRANCH 41 46
ENDBRANCH 39 41
ENDBRANCH 1 37
BRANCH 1 74
ATOM     74  CB  LYS V 154      21.239  19.494 -65.127  1.00 30.73 LIG 0.04  C 
BRANCH 74 75
ATOM     75  CG  LYS V 154      20.454  20.682 -65.681  1.00 31.37 LIG 0.00  C 
BRANCH 75 76
ATOM     76  CD  LYS V 154      18.996  20.316 -65.934  1.00 32.31 LIG 0.03  C 
BRANCH 76 77
ATOM     77  CE  LYS V 154      18.098  20.711 -64.770  1.00 33.00 LIG 0.23  C 
BRANCH 77 78
ATOM     78  NZ  LYS V 154      17.773  19.565 -63.885  1.00 34.35 LIG-0.08  N 
ATOM     79 HZ3  LYS V 154      17.901  19.800 -63.035  1.00 34.35 LIG 0.27  HD
ATOM     80 HZ2  LYS V 154      18.299  18.876 -64.085  1.00 34.35 LIG 0.27  HD
ATOM     81 HZ1  LYS V 154      16.922  19.332 -64.002  1.00 34.35 LIG 0.27  HD
ENDBRANCH 77 78
ENDBRANCH 76 77
ENDBRANCH 75 76
ENDBRANCH 74 75
ENDBRANCH 1 74
TORSDOF 32
ENDMDL
MODEL 7
USER: ADFR SOLUTION from run 146
USER: SCORE 26.184086 LL:  -5.090 LR: -22.167 RR:   0.000 FEB: -12.621
USER: RMSD 6.340366
USER: SEED 145
USER: STATUS no improvement in best in 6 clusters for 5 generations
USER: GENES 34
USER: genes 0 Translation |==|  0.49935 0.69347 0.50816
USER: genes 1 Rotation |==|  0.47086 0.08352 0.23567 0.57633
USER: genes 2 Torsion [C]-CA--N-[C] |==|  0.64811
USER: genes 3 Torsion [N]-C--CA-[N] |==|  0.92618
USER: genes 4 Torsion [C]-CA--N-[C] |==|  0.84365
USER: genes 5 Torsion [N]-C--CA-[N] |==|  0.24401
USER: genes 6 Torsion [C]-CA--CB-[CG] |==|  0.55873
USER: genes 7 Torsion [CA]-CB--CG-[CD] |==|  0.75275
USER: genes 8 Torsion [CB]-CG--CD-[NE] |==|  0.16913
USER: genes 9 Torsion [CG]-CD--NE-[HE] |==|  0.72101
USER: genes 10 Torsion [C]-CA--CB-[CG] |==|  0.01129
USER: genes 11 Torsion [CA]-CB--CG-[CD] |==|  0.67250
USER: genes 12 Torsion [CB]-CG--CD-[NE] |==|  0.20730
USER: genes 13 Torsion [CG]-CD--NE-[CZ] |==|  0.48227
USER: genes 14 Torsion [N]-CA--C-[N] |==|  0.36850
USER: genes 15 Torsion [C]-N--CA-[C] |==|  0.76643
USER: genes 16 Torsion [N]-CA--CB-[CG] |==|  0.88963
USER: genes 17 Torsion [CA]-CB--CG-[CD2] |==|  0.83976
USER: genes 18 Torsion [N]-CA--C-[N] |==|  0.32395
USER: genes 19 Torsion [N]-CA--C-[O] |==|  0.51370
USER: genes 20 Torsion [C]-N--CA-[CB] |==|  0.58333
USER: genes 21 Torsion [N]-CA--C-[N] |==|  0.85533
USER: genes 22 Torsion [C]-N--CA-[CB] |==|  0.29784
USER: genes 23 Torsion [N]-CA--C-[O] |==|  0.99233
USER: genes 24 Torsion [N]-CA--CB-[CG2] |==|  0.60357
USER: genes 25 Torsion [CA]-CB--CG1-[CD1] |==|  0.62478
USER: genes 26 Torsion [N]-CA--CB-[CG] |==|  0.71398
USER: genes 27 Torsion [CA]-CB--CG-[CD] |==|  0.15908
USER: genes 28 Torsion [CB]-CG--CD-[OE2] |==|  0.10950
USER: genes 29 Torsion [N]-CA--CB-[CG] |==|  0.67647
USER: genes 30 Torsion [CA]-CB--CG-[CD] |==|  0.25904
USER: genes 31 Torsion [CB]-CG--CD-[CE] |==|  0.50115
USER: genes 32 Torsion [CG]-CD--CE-[NZ] |==|  0.17003
USER: genes 33 Torsion [CD]-CE--NZ-[HZ2] |==|  0.77704
ROOT
ATOM      1  CA  LYS V 154      22.416  19.228 -64.799  1.00 29.23 LIG 0.18  C 
ENDROOT
BRANCH 1 2
ATOM      2  N   LYS V 154      23.198  20.403 -64.389  1.00 29.36 LIG-0.35  N 
ATOM      3 H    LYS V 154      23.735  20.694 -64.993  1.00 29.36 LIG 0.16  HD
ATOM      4  C   ARG V 153      23.074  20.959 -63.181  1.00 28.75 LIG 0.24  C 
ATOM      5 O    ARG V 153      22.202  20.649 -62.378  1.00 27.33 LIG-0.27  OA
BRANCH 4 6
ATOM      6  CA  ARG V 153      24.119  21.995 -62.806  1.00 29.80 LIG 0.18  C 
BRANCH 6 7
ATOM      7  N   ARG V 153      25.392  21.793 -63.501  1.00 31.02 LIG-0.35  N 
ATOM      8 H    ARG V 153      25.653  22.479 -63.950  1.00 31.02 LIG 0.16  HD
ATOM      9  C   ARG V 152      26.084  20.649 -63.444  1.00 33.76 LIG 0.26  C 
ATOM     10 O    ARG V 152      25.715  19.656 -62.800  1.00 32.85 LIG-0.27  OA
BRANCH 9 11
ATOM     11  CA  ARG V 152      27.388  20.624 -64.263  1.00 35.90 LIG 0.40  C 
ATOM     12  N   ARG V 152      28.554  21.141 -63.481  1.00 37.25 LIG 0.61  N 
BRANCH 11 13
ATOM     13  CB  ARG V 152      27.695  19.220 -64.780  1.00 38.16 LIG 0.05  C 
BRANCH 13 14
ATOM     14  CG  ARG V 152      29.164  19.033 -65.131  1.00 40.06 LIG 0.02  C 
BRANCH 14 15
ATOM     15  CD  ARG V 152      29.474  19.410 -66.568  1.00 42.07 LIG 0.14  C 
BRANCH 15 16
ATOM     16  NE  ARG V 152      29.179  20.815 -66.857  1.00 44.48 LIG-0.23  N 
ATOM     17  CZ  ARG V 152      29.952  21.856 -66.542  1.00 45.58 LIG 0.67  C 
ATOM     18  NH1 ARG V 152      31.116  21.698 -65.915  1.00 44.25 LIG-0.23  N 
ATOM     19  NH2 ARG V 152      29.553  23.082 -66.862  1.00 47.95 LIG-0.23  N 
ATOM     20 1HH1 ARG V 152      31.387  20.910 -65.702  1.00 44.25 LIG 0.17  HD
ATOM     21 2HH1 ARG V 152      31.598  22.384 -65.723  1.00 44.25 LIG 0.17  HD
ATOM     22 2HH2 ARG V 152      30.045  23.759 -66.663  1.00 47.95 LIG 0.17  HD
ATOM     23 1HH2 ARG V 152      28.803  23.198 -67.266  1.00 47.95 LIG 0.17  HD
ATOM     24 HE   ARG V 152      28.441  20.984 -67.266  1.00 44.48 LIG 0.18  HD
ENDBRANCH 15 16
ENDBRANCH 14 15
ENDBRANCH 13 14
ENDBRANCH 11 13
ENDBRANCH 9 11
ENDBRANCH 6 7
BRANCH 6 25
ATOM     25  CB  ARG V 153      23.528  23.387 -63.122  1.00 29.44 LIG 0.04  C 
BRANCH 25 26
ATOM     26  CG  ARG V 153      22.094  23.343 -63.604  1.00 30.46 LIG 0.02  C 
BRANCH 26 27
ATOM     27  CD  ARG V 153      21.919  23.881 -65.018  1.00 30.98 LIG 0.14  C 
BRANCH 27 28
ATOM     28  NE  ARG V 153      22.427  22.888 -65.950  1.00 31.91 LIG-0.23  N 
ATOM     29  CZ  ARG V 153      22.321  22.977 -67.273  1.00 32.21 LIG 0.67  C 
ATOM     30  NH2 ARG V 153      21.764  24.036 -67.862  1.00 31.04 LIG-0.23  N 
ATOM     31  NH1 ARG V 153      22.803  22.000 -68.019  1.00 34.14 LIG-0.23  N 
ATOM     32 2HH2 ARG V 153      21.706  24.071 -68.719  1.00 31.04 LIG 0.17  HD
ATOM     33 1HH2 ARG V 153      21.462  24.684 -67.384  1.00 31.04 LIG 0.17  HD
ATOM     34 2HH1 ARG V 153      22.742  22.043 -68.876  1.00 34.14 LIG 0.17  HD
ATOM     35 1HH1 ARG V 153      23.178  21.320 -67.648  1.00 34.14 LIG 0.17  HD
ATOM     36 HE   ARG V 153      22.823  22.198 -65.625  1.00 31.91 LIG 0.18  HD
ENDBRANCH 27 28
ENDBRANCH 26 27
ENDBRANCH 25 26
ENDBRANCH 6 25
ENDBRANCH 4 6
ENDBRANCH 1 2
BRANCH 1 37
ATOM     37  C   LYS V 154      23.289  18.078 -65.324  1.00 29.43 LIG 0.24  C 
ATOM     38 O    LYS V 154      24.160  18.260 -66.179  1.00 29.02 LIG-0.27  OA
ATOM     39  N   LEU V 155      23.003  16.884 -64.826  1.00 29.02 LIG-0.35  N 
ATOM     40 H    LEU V 155      22.416  16.756 -64.211  1.00 29.02 LIG 0.16  HD
BRANCH 39 41
ATOM     41  CA  LEU V 155      23.659  15.665 -65.278  1.00 29.55 LIG 0.18  C 
BRANCH 41 42
ATOM     42  CB  LEU V 155      23.587  14.630 -64.155  1.00 29.70 LIG 0.04  C 
BRANCH 42 43
ATOM     43  CG  LEU V 155      23.806  15.215 -62.760  1.00 30.04 LIG-0.02  C 
ATOM     44  CD1 LEU V 155      23.703  14.149 -61.671  1.00 30.27 LIG 0.01  C 
ATOM     45  CD2 LEU V 155      25.163  15.905 -62.727  1.00 30.44 LIG 0.01  C 
ENDBRANCH 42 43
ENDBRANCH 41 42
BRANCH 41 46
ATOM     46  C   LEU V 155      23.002  15.085 -66.540  1.00 29.88 LIG 0.24  C 
ATOM     47  N   PRO V 156      23.746  15.027 -67.665  1.00 30.63 LIG-0.34  N 
ATOM     48  CD  PRO V 156      25.032  15.675 -67.990  1.00 31.41 LIG 0.13  C 
ATOM     49  CA  PRO V 156      23.182  14.330 -68.811  1.00 30.89 LIG 0.18  C 
ATOM     50  CG  PRO V 156      25.408  15.068 -69.318  1.00 32.36 LIG 0.02  C 
ATOM     51  CB  PRO V 156      24.105  14.744 -69.966  1.00 32.27 LIG 0.04  C 
ATOM     52 O    LEU V 155      21.832  14.699 -66.502  1.00 29.02 LIG-0.27  OA
BRANCH 49 53
ATOM     53  C   PRO V 156      23.206  12.820 -68.607  1.00 31.44 LIG 0.24  C 
ATOM     54 O    PRO V 156      22.851  12.065 -69.513  1.00 31.00 LIG-0.27  OA
ATOM     55  N   GLU V 157      23.654  12.396 -67.428  1.00 32.40 LIG-0.35  N 
ATOM     56 H    GLU V 157      24.035  12.910 -66.853  1.00 32.40 LIG 0.16  HD
BRANCH 55 57
ATOM     57  CA  GLU V 157      23.537  11.002 -66.997  1.00 33.20 LIG 0.18  C 
BRANCH 57 58
ATOM     58  C   GLU V 157      22.295  10.370 -67.608  1.00 33.95 LIG 0.24  C 
ATOM     59 O    GLU V 157      22.378   9.319 -68.235  1.00 33.71 LIG-0.27  OA
ATOM     60  N   ILE V 158      21.155  11.028 -67.438  1.00 34.74 LIG-0.35  N 
ATOM     61 H    ILE V 158      21.090  11.760 -66.993  1.00 34.74 LIG 0.16  HD
BRANCH 60 62
ATOM     62  CA  ILE V 158      19.892  10.558 -68.000  1.00 36.41 LIG 0.17  C 
BRANCH 62 63
ATOM     63  C   ILE V 158      19.222  11.706 -68.769  1.00 36.37 LIG 0.22  C 
ATOM     64 O    ILE V 158      19.712  12.835 -68.810  1.00 37.57 LIG-0.29  OA
ENDBRANCH 62 63
BRANCH 62 65
ATOM     65  CB  ILE V 158      18.975   9.999 -66.889  1.00 38.09 LIG 0.01  C 
ATOM     66  CG2 ILE V 158      18.205   8.787 -67.390  1.00 39.83 LIG 0.01  C 
BRANCH 65 67
ATOM     67  CG1 ILE V 158      19.802   9.611 -65.656  1.00 37.40 LIG 0.00  C 
ATOM     68  CD1 ILE V 158      19.430   8.270 -65.065  1.00 39.06 LIG 0.01  C 
ENDBRANCH 65 67
ENDBRANCH 62 65
ENDBRANCH 60 62
ENDBRANCH 57 58
BRANCH 57 69
ATOM     69  CB  GLU V 157      23.415  10.918 -65.467  1.00 33.67 LIG 0.04  C 
BRANCH 69 70
ATOM     70  CG  GLU V 157      24.685  10.495 -64.747  1.00 33.36 LIG 0.12  C 
BRANCH 70 71
ATOM     71  CD  GLU V 157      25.863  11.403 -65.042  1.00 33.78 LIG 0.17  C 
ATOM     72 OE2  GLU V 157      25.667  12.636 -65.122  1.00 33.85 LIG-0.65  OA
ATOM     73 OE1  GLU V 157      26.990  10.883 -65.186  1.00 33.73 LIG-0.65  OA
ENDBRANCH 70 71
ENDBRANCH 69 70
ENDBRANCH 57 69
ENDBRANCH 55 57
ENDBRANCH 49 53
ENDBRANCH 41 46
ENDBRANCH 39 41
ENDBRANCH 1 37
BRANCH 1 74
ATOM     74  CB  LYS V 154      21.411  19.586 -65.891  1.00 30.73 LIG 0.04  C 
BRANCH 74 75
ATOM     75  CG  LYS V 154      19.941  19.418 -65.514  1.00 31.37 LIG 0.00  C 
BRANCH 75 76
ATOM     76  CD  LYS V 154      19.350  20.720 -64.982  1.00 32.31 LIG 0.03  C 
BRANCH 76 77
ATOM     77  CE  LYS V 154      17.887  20.566 -64.592  1.00 33.00 LIG 0.23  C 
BRANCH 77 78
ATOM     78  NZ  LYS V 154      17.684  19.569 -63.513  1.00 34.35 LIG-0.08  N 
ATOM     79 HZ3  LYS V 154      18.337  19.645 -62.912  1.00 34.35 LIG 0.27  HD
ATOM     80 HZ2  LYS V 154      17.695  18.749 -63.860  1.00 34.35 LIG 0.27  HD
ATOM     81 HZ1  LYS V 154      16.900  19.714 -63.119  1.00 34.35 LIG 0.27  HD
ENDBRANCH 77 78
ENDBRANCH 76 77
ENDBRANCH 75 76
ENDBRANCH 74 75
ENDBRANCH 1 74
TORSDOF 32
ENDMDL
MODEL 8
USER: ADFR SOLUTION from run 178
USER: SCORE 25.988218 LL:  -4.251 LR: -22.156 RR:   0.000 FEB: -12.610
USER: RMSD 6.279615
USER: SEED 177
USER: STATUS searching
USER: GENES 34
USER: genes 0 Translation |==|  0.50537 0.68848 0.51424
USER: genes 1 Rotation |==|  0.43551 0.09328 0.23247 0.59406
USER: genes 2 Torsion [C]-CA--N-[C] |==|  0.62822
USER: genes 3 Torsion [N]-C--CA-[N] |==|  0.90486
USER: genes 4 Torsion [C]-CA--N-[C] |==|  0.81173
USER: genes 5 Torsion [N]-C--CA-[N] |==|  0.88894
USER: genes 6 Torsion [C]-CA--CB-[CG] |==|  0.66018
USER: genes 7 Torsion [CA]-CB--CG-[CD] |==|  0.29530
USER: genes 8 Torsion [CB]-CG--CD-[NE] |==|  0.74556
USER: genes 9 Torsion [CG]-CD--NE-[HE] |==|  0.88881
USER: genes 10 Torsion [C]-CA--CB-[CG] |==|  0.06219
USER: genes 11 Torsion [CA]-CB--CG-[CD] |==|  0.63400
USER: genes 12 Torsion [CB]-CG--CD-[NE] |==|  0.18628
USER: genes 13 Torsion [CG]-CD--NE-[CZ] |==|  0.50885
USER: genes 14 Torsion [N]-CA--C-[N] |==|  0.40059
USER: genes 15 Torsion [C]-N--CA-[C] |==|  0.69476
USER: genes 16 Torsion [N]-CA--CB-[CG] |==|  0.96033
USER: genes 17 Torsion [CA]-CB--CG-[CD2] |==|  0.79158
USER: genes 18 Torsion [N]-CA--C-[N] |==|  0.37686
USER: genes 19 Torsion [N]-CA--C-[O] |==|  0.81245
USER: genes 20 Torsion [C]-N--CA-[CB] |==|  0.85556
USER: genes 21 Torsion [N]-CA--C-[N] |==|  0.39999
USER: genes 22 Torsion [C]-N--CA-[CB] |==|  0.49894
USER: genes 23 Torsion [N]-CA--C-[O] |==|  0.33813
USER: genes 24 Torsion [N]-CA--CB-[CG2] |==|  0.79041
USER: genes 25 Torsion [CA]-CB--CG1-[CD1] |==|  0.60715
USER: genes 26 Torsion [N]-CA--CB-[CG] |==|  0.62889
USER: genes 27 Torsion [CA]-CB--CG-[CD] |==|  0.80693
USER: genes 28 Torsion [CB]-CG--CD-[OE2] |==|  0.37704
USER: genes 29 Torsion [N]-CA--CB-[CG] |==|  0.84120
USER: genes 30 Torsion [CA]-CB--CG-[CD] |==|  0.82568
USER: genes 31 Torsion [CB]-CG--CD-[CE] |==|  0.67545
USER: genes 32 Torsion [CG]-CD--CE-[NZ] |==|  0.35846
USER: genes 33 Torsion [CD]-CE--NZ-[HZ2] |==|  0.87518
ROOT
ATOM      1  CA  LYS V 154      22.529  19.082 -64.639  1.00 29.23 LIG 0.18  C 
ENDROOT
BRANCH 1 2
ATOM      2  N   LYS V 154      23.457  20.179 -64.333  1.00 29.36 LIG-0.35  N 
ATOM      3 H    LYS V 154      23.996  20.371 -64.974  1.00 29.36 LIG 0.16  HD
ATOM      4  C   ARG V 153      23.452  20.814 -63.158  1.00 28.75 LIG 0.24  C 
ATOM      5 O    ARG V 153      22.588  20.653 -62.304  1.00 27.33 LIG-0.27  OA
BRANCH 4 6
ATOM      6  CA  ARG V 153      24.624  21.741 -62.887  1.00 29.80 LIG 0.18  C 
BRANCH 6 7
ATOM      7  N   ARG V 153      25.877  21.256 -63.472  1.00 31.02 LIG-0.35  N 
ATOM      8 H    ARG V 153      26.168  21.744 -64.117  1.00 31.02 LIG 0.16  HD
ATOM      9  C   ARG V 152      26.508  20.157 -63.042  1.00 33.76 LIG 0.26  C 
ATOM     10 O    ARG V 152      26.094  19.448 -62.113  1.00 32.85 LIG-0.27  OA
BRANCH 9 11
ATOM     11  CA  ARG V 152      27.799  19.797 -63.801  1.00 35.90 LIG 0.40  C 
ATOM     12  N   ARG V 152      27.666  20.019 -65.274  1.00 37.25 LIG 0.61  N 
BRANCH 11 13
ATOM     13  CB  ARG V 152      28.997  20.580 -63.267  1.00 38.16 LIG 0.05  C 
BRANCH 13 14
ATOM     14  CG  ARG V 152      29.683  21.406 -64.345  1.00 40.06 LIG 0.02  C 
BRANCH 14 15
ATOM     15  CD  ARG V 152      29.403  22.892 -64.210  1.00 42.07 LIG 0.14  C 
BRANCH 15 16
ATOM     16  NE  ARG V 152      28.234  23.315 -64.986  1.00 44.48 LIG-0.23  N 
ATOM     17  CZ  ARG V 152      27.310  24.193 -64.588  1.00 45.58 LIG 0.67  C 
ATOM     18  NH1 ARG V 152      27.379  24.791 -63.401  1.00 44.25 LIG-0.23  N 
ATOM     19  NH2 ARG V 152      26.295  24.478 -65.396  1.00 47.95 LIG-0.23  N 
ATOM     20 1HH1 ARG V 152      28.030  24.615 -62.868  1.00 44.25 LIG 0.17  HD
ATOM     21 2HH1 ARG V 152      26.772  25.353 -63.167  1.00 44.25 LIG 0.17  HD
ATOM     22 2HH2 ARG V 152      25.695  25.042 -65.150  1.00 47.95 LIG 0.17  HD
ATOM     23 1HH2 ARG V 152      26.239  24.097 -66.166  1.00 47.95 LIG 0.17  HD
ATOM     24 HE   ARG V 152      28.134  22.968 -65.766  1.00 44.48 LIG 0.18  HD
ENDBRANCH 15 16
ENDBRANCH 14 15
ENDBRANCH 13 14
ENDBRANCH 11 13
ENDBRANCH 9 11
ENDBRANCH 6 7
BRANCH 6 25
ATOM     25  CB  ARG V 153      24.254  23.133 -63.445  1.00 29.44 LIG 0.04  C 
BRANCH 25 26
ATOM     26  CG  ARG V 153      22.763  23.355 -63.584  1.00 30.46 LIG 0.02  C 
BRANCH 26 27
ATOM     27  CD  ARG V 153      22.364  23.920 -64.940  1.00 30.98 LIG 0.14  C 
BRANCH 27 28
ATOM     28  NE  ARG V 153      22.627  22.910 -65.951  1.00 31.91 LIG-0.23  N 
ATOM     29  CZ  ARG V 153      22.451  23.091 -67.257  1.00 32.21 LIG 0.67  C 
ATOM     30  NH2 ARG V 153      22.051  24.263 -67.754  1.00 31.04 LIG-0.23  N 
ATOM     31  NH1 ARG V 153      22.702  22.090 -68.080  1.00 34.14 LIG-0.23  N 
ATOM     32 2HH2 ARG V 153      21.944  24.356 -68.603  1.00 31.04 LIG 0.17  HD
ATOM     33 1HH2 ARG V 153      21.901  24.925 -67.227  1.00 31.04 LIG 0.17  HD
ATOM     34 2HH1 ARG V 153      22.593  22.192 -68.928  1.00 34.14 LIG 0.17  HD
ATOM     35 1HH1 ARG V 153      22.976  21.336 -67.769  1.00 34.14 LIG 0.17  HD
ATOM     36 HE   ARG V 153      22.915  22.144 -65.688  1.00 31.91 LIG 0.18  HD
ENDBRANCH 27 28
ENDBRANCH 26 27
ENDBRANCH 25 26
ENDBRANCH 6 25
ENDBRANCH 4 6
ENDBRANCH 1 2
BRANCH 1 37
ATOM     37  C   LYS V 154      23.220  17.874 -65.290  1.00 29.43 LIG 0.24  C 
ATOM     38 O    LYS V 154      24.130  18.010 -66.112  1.00 29.02 LIG-0.27  OA
ATOM     39  N   LEU V 155      22.734  16.693 -64.938  1.00 29.02 LIG-0.35  N 
ATOM     40 H    LEU V 155      22.118  16.592 -64.345  1.00 29.02 LIG 0.16  HD
BRANCH 39 41
ATOM     41  CA  LEU V 155      23.198  15.443 -65.525  1.00 29.55 LIG 0.18  C 
BRANCH 41 42
ATOM     42  CB  LEU V 155      23.543  14.475 -64.394  1.00 29.70 LIG 0.04  C 
BRANCH 42 43
ATOM     43  CG  LEU V 155      23.653  15.140 -63.022  1.00 30.04 LIG-0.02  C 
ATOM     44  CD1 LEU V 155      23.552  14.124 -61.886  1.00 30.27 LIG 0.01  C 
ATOM     45  CD2 LEU V 155      24.965  15.909 -62.956  1.00 30.44 LIG 0.01  C 
ENDBRANCH 42 43
ENDBRANCH 41 42
BRANCH 41 46
ATOM     46  C   LEU V 155      22.139  14.800 -66.433  1.00 29.88 LIG 0.24  C 
ATOM     47  N   PRO V 156      22.545  14.312 -67.624  1.00 30.63 LIG-0.34  N 
ATOM     48  CD  PRO V 156      23.811  14.518 -68.354  1.00 31.41 LIG 0.13  C 
ATOM     49  CA  PRO V 156      21.580  13.559 -68.410  1.00 30.89 LIG 0.18  C 
ATOM     50  CG  PRO V 156      23.707  13.566 -69.519  1.00 32.36 LIG 0.02  C 
ATOM     51  CB  PRO V 156      22.245  13.462 -69.790  1.00 32.27 LIG 0.04  C 
ATOM     52 O    LEU V 155      20.963  14.749 -66.066  1.00 29.02 LIG-0.27  OA
BRANCH 49 53
ATOM     53  C   PRO V 156      21.345  12.174 -67.819  1.00 31.44 LIG 0.24  C 
ATOM     54 O    PRO V 156      22.243  11.332 -67.832  1.00 31.00 LIG-0.27  OA
ATOM     55  N   GLU V 157      20.148  11.964 -67.277  1.00 32.40 LIG-0.35  N 
ATOM     56 H    GLU V 157      19.574  12.590 -67.138  1.00 32.40 LIG 0.16  HD
BRANCH 55 57
ATOM     57  CA  GLU V 157      19.692  10.635 -66.866  1.00 33.20 LIG 0.18  C 
BRANCH 57 58
ATOM     58  C   GLU V 157      20.515  10.145 -65.684  1.00 33.95 LIG 0.24  C 
ATOM     59 O    GLU V 157      21.714  10.396 -65.617  1.00 33.71 LIG-0.27  OA
ATOM     60  N   ILE V 158      19.868   9.432 -64.771  1.00 34.74 LIG-0.35  N 
ATOM     61 H    ILE V 158      19.027   9.261 -64.809  1.00 34.74 LIG 0.16  HD
BRANCH 60 62
ATOM     62  CA  ILE V 158      20.539   8.868 -63.603  1.00 36.41 LIG 0.17  C 
BRANCH 62 63
ATOM     63  C   ILE V 158      21.694   7.970 -64.067  1.00 36.37 LIG 0.22  C 
ATOM     64 O    ILE V 158      22.858   8.173 -63.720  1.00 37.57 LIG-0.29  OA
ENDBRANCH 62 63
BRANCH 62 65
ATOM     65  CB  ILE V 158      19.535   8.099 -62.715  1.00 38.09 LIG 0.01  C 
ATOM     66  CG2 ILE V 158      18.664   9.068 -61.930  1.00 39.83 LIG 0.01  C 
BRANCH 65 67
ATOM     67  CG1 ILE V 158      18.647   7.190 -63.575  1.00 37.40 LIG 0.00  C 
ATOM     68  CD1 ILE V 158      17.206   7.132 -63.120  1.00 39.06 LIG 0.01  C 
ENDBRANCH 65 67
ENDBRANCH 62 65
ENDBRANCH 60 62
ENDBRANCH 57 58
BRANCH 57 69
ATOM     69  CB  GLU V 157      19.856   9.628 -68.015  1.00 33.67 LIG 0.04  C 
BRANCH 69 70
ATOM     70  CG  GLU V 157      18.648   8.738 -68.261  1.00 33.36 LIG 0.12  C 
BRANCH 70 71
ATOM     71  CD  GLU V 157      18.419   7.731 -67.151  1.00 33.78 LIG 0.17  C 
ATOM     72 OE2  GLU V 157      17.255   7.557 -66.727  1.00 33.85 LIG-0.65  OA
ATOM     73 OE1  GLU V 157      19.406   7.106 -66.707  1.00 33.73 LIG-0.65  OA
ENDBRANCH 70 71
ENDBRANCH 69 70
ENDBRANCH 57 69
ENDBRANCH 55 57
ENDBRANCH 49 53
ENDBRANCH 41 46
ENDBRANCH 39 41
ENDBRANCH 1 37
BRANCH 1 74
ATOM     74  CB  LYS V 154      21.417  19.544 -65.578  1.00 30.73 LIG 0.04  C 
BRANCH 74 75
ATOM     75  CG  LYS V 154      20.583  20.723 -65.082  1.00 31.37 LIG 0.00  C 
BRANCH 75 76
ATOM     76  CD  LYS V 154      19.832  20.375 -63.802  1.00 32.31 LIG 0.03  C 
BRANCH 76 77
ATOM     77  CE  LYS V 154      18.323  20.426 -63.992  1.00 33.00 LIG 0.23  C 
BRANCH 77 78
ATOM     78  NZ  LYS V 154      17.645  19.195 -63.518  1.00 34.35 LIG-0.08  N 
ATOM     79 HZ3  LYS V 154      17.618  19.194 -62.628  1.00 34.35 LIG 0.27  HD
ATOM     80 HZ2  LYS V 154      18.094  18.480 -63.801  1.00 34.35 LIG 0.27  HD
ATOM     81 HZ1  LYS V 154      16.815  19.170 -63.839  1.00 34.35 LIG 0.27  HD
ENDBRANCH 77 78
ENDBRANCH 76 77
ENDBRANCH 75 76
ENDBRANCH 74 75
ENDBRANCH 1 74
TORSDOF 32
ENDMDL
MODEL 9
USER: ADFR SOLUTION from run 171
USER: SCORE 24.719146 LL:  -4.735 LR: -21.945 RR:   0.000 FEB: -12.400
USER: RMSD 7.961988
USER: SEED 170
USER: STATUS no improvement in best in 8 clusters for 5 generations
USER: GENES 34
USER: genes 0 Translation |==|  0.44633 0.71448 0.54521
USER: genes 1 Rotation |==|  0.31751 0.83344 0.81079 0.59446
USER: genes 2 Torsion [C]-CA--N-[C] |==|  0.14487
USER: genes 3 Torsion [N]-C--CA-[N] |==|  0.86852
USER: genes 4 Torsion [C]-CA--N-[C] |==|  0.68053
USER: genes 5 Torsion [N]-C--CA-[N] |==|  0.31596
USER: genes 6 Torsion [C]-CA--CB-[CG] |==|  0.13981
USER: genes 7 Torsion [CA]-CB--CG-[CD] |==|  0.69677
USER: genes 8 Torsion [CB]-CG--CD-[NE] |==|  0.57652
USER: genes 9 Torsion [CG]-CD--NE-[HE] |==|  0.22155
USER: genes 10 Torsion [C]-CA--CB-[CG] |==|  0.94244
USER: genes 11 Torsion [CA]-CB--CG-[CD] |==|  0.28241
USER: genes 12 Torsion [CB]-CG--CD-[NE] |==|  0.55270
USER: genes 13 Torsion [CG]-CD--NE-[CZ] |==|  0.65116
USER: genes 14 Torsion [N]-CA--C-[N] |==|  0.52583
USER: genes 15 Torsion [C]-N--CA-[C] |==|  0.55464
USER: genes 16 Torsion [N]-CA--CB-[CG] |==|  0.25017
USER: genes 17 Torsion [CA]-CB--CG-[CD2] |==|  0.80344
USER: genes 18 Torsion [N]-CA--C-[N] |==|  0.50724
USER: genes 19 Torsion [N]-CA--C-[O] |==|  0.75384
USER: genes 20 Torsion [C]-N--CA-[CB] |==|  0.86667
USER: genes 21 Torsion [N]-CA--C-[N] |==|  0.39190
USER: genes 22 Torsion [C]-N--CA-[CB] |==|  0.46018
USER: genes 23 Torsion [N]-CA--C-[O] |==|  0.74385
USER: genes 24 Torsion [N]-CA--CB-[CG2] |==|  0.47143
USER: genes 25 Torsion [CA]-CB--CG1-[CD1] |==|  0.87620
USER: genes 26 Torsion [N]-CA--CB-[CG] |==|  0.31796
USER: genes 27 Torsion [CA]-CB--CG-[CD] |==|  0.43499
USER: genes 28 Torsion [CB]-CG--CD-[OE2] |==|  0.01797
USER: genes 29 Torsion [N]-CA--CB-[CG] |==|  0.77603
USER: genes 30 Torsion [CA]-CB--CG-[CD] |==|  0.14168
USER: genes 31 Torsion [CB]-CG--CD-[CE] |==|  0.65985
USER: genes 32 Torsion [CG]-CD--CE-[NZ] |==|  0.23988
USER: genes 33 Torsion [CD]-CE--NZ-[HZ2] |==|  0.81642
ROOT
ATOM      1  CA  LYS V 154      21.422  19.842 -63.826  1.00 29.23 LIG 0.18  C 
ENDROOT
BRANCH 1 2
ATOM      2  N   LYS V 154      20.957  20.692 -62.721  1.00 29.36 LIG-0.35  N 
ATOM      3 H    LYS V 154      20.149  20.533 -62.473  1.00 29.36 LIG 0.16  HD
ATOM      4  C   ARG V 153      21.731  21.624 -62.160  1.00 28.75 LIG 0.24  C 
ATOM      5 O    ARG V 153      22.926  21.747 -62.400  1.00 27.33 LIG-0.27  OA
BRANCH 4 6
ATOM      6  CA  ARG V 153      21.043  22.593 -61.214  1.00 29.80 LIG 0.18  C 
BRANCH 6 7
ATOM      7  N   ARG V 153      19.803  23.142 -61.769  1.00 31.02 LIG-0.35  N 
ATOM      8 H    ARG V 153      19.189  22.552 -61.892  1.00 31.02 LIG 0.16  HD
ATOM      9  C   ARG V 152      19.641  24.438 -62.059  1.00 33.76 LIG 0.26  C 
ATOM     10 O    ARG V 152      20.522  25.294 -61.886  1.00 32.85 LIG-0.27  OA
BRANCH 9 11
ATOM     11  CA  ARG V 152      18.274  24.816 -62.658  1.00 35.90 LIG 0.40  C 
ATOM     12  N   ARG V 152      17.481  25.692 -61.741  1.00 37.25 LIG 0.61  N 
BRANCH 11 13
ATOM     13  CB  ARG V 152      18.428  25.498 -64.016  1.00 38.16 LIG 0.05  C 
BRANCH 13 14
ATOM     14  CG  ARG V 152      19.326  24.717 -64.965  1.00 40.06 LIG 0.02  C 
BRANCH 14 15
ATOM     15  CD  ARG V 152      20.660  25.400 -65.201  1.00 42.07 LIG 0.14  C 
BRANCH 15 16
ATOM     16  NE  ARG V 152      21.237  25.069 -66.507  1.00 44.48 LIG-0.23  N 
ATOM     17  CZ  ARG V 152      22.198  24.172 -66.731  1.00 45.58 LIG 0.67  C 
ATOM     18  NH1 ARG V 152      22.737  23.462 -65.742  1.00 44.25 LIG-0.23  N 
ATOM     19  NH2 ARG V 152      22.632  23.981 -67.972  1.00 47.95 LIG-0.23  N 
ATOM     20 1HH1 ARG V 152      22.466  23.576 -64.934  1.00 44.25 LIG 0.17  HD
ATOM     21 2HH1 ARG V 152      23.355  22.889 -65.911  1.00 44.25 LIG 0.17  HD
ATOM     22 2HH2 ARG V 152      23.251  23.404 -68.127  1.00 47.95 LIG 0.17  HD
ATOM     23 1HH2 ARG V 152      22.293  24.433 -68.621  1.00 47.95 LIG 0.17  HD
ATOM     24 HE   ARG V 152      20.928  25.492 -67.190  1.00 44.48 LIG 0.18  HD
ENDBRANCH 15 16
ENDBRANCH 14 15
ENDBRANCH 13 14
ENDBRANCH 11 13
ENDBRANCH 9 11
ENDBRANCH 6 7
BRANCH 6 25
ATOM     25  CB  ARG V 153      20.774  21.841 -59.893  1.00 29.44 LIG 0.04  C 
BRANCH 25 26
ATOM     26  CG  ARG V 153      20.776  20.334 -60.039  1.00 30.46 LIG 0.02  C 
BRANCH 26 27
ATOM     27  CD  ARG V 153      22.068  19.686 -59.561  1.00 30.98 LIG 0.14  C 
BRANCH 27 28
ATOM     28  NE  ARG V 153      22.156  18.357 -60.142  1.00 31.91 LIG-0.23  N 
ATOM     29  CZ  ARG V 153      22.329  17.241 -59.440  1.00 32.21 LIG 0.67  C 
ATOM     30  NH2 ARG V 153      22.392  17.253 -58.108  1.00 31.04 LIG-0.23  N 
ATOM     31  NH1 ARG V 153      22.417  16.091 -60.082  1.00 34.14 LIG-0.23  N 
ATOM     32 2HH2 ARG V 153      22.505  16.518 -57.676  1.00 31.04 LIG 0.17  HD
ATOM     33 1HH2 ARG V 153      22.320  17.996 -57.681  1.00 31.04 LIG 0.17  HD
ATOM     34 2HH1 ARG V 153      22.529  15.360 -59.643  1.00 34.14 LIG 0.17  HD
ATOM     35 1HH1 ARG V 153      22.362  16.071 -60.941  1.00 34.14 LIG 0.17  HD
ATOM     36 HE   ARG V 153      22.092  18.288 -60.996  1.00 31.91 LIG 0.18  HD
ENDBRANCH 27 28
ENDBRANCH 26 27
ENDBRANCH 25 26
ENDBRANCH 6 25
ENDBRANCH 4 6
ENDBRANCH 1 2
BRANCH 1 37
ATOM     37  C   LYS V 154      22.755  19.141 -63.525  1.00 29.43 LIG 0.24  C 
ATOM     38 O    LYS V 154      23.283  19.196 -62.411  1.00 29.02 LIG-0.27  OA
ATOM     39  N   LEU V 155      23.308  18.521 -64.558  1.00 29.02 LIG-0.35  N 
ATOM     40 H    LEU V 155      22.932  18.457 -65.329  1.00 29.02 LIG 0.16  HD
BRANCH 39 41
ATOM     41  CA  LEU V 155      24.617  17.886 -64.486  1.00 29.55 LIG 0.18  C 
BRANCH 41 42
ATOM     42  CB  LEU V 155      24.461  16.531 -63.796  1.00 29.70 LIG 0.04  C 
BRANCH 42 43
ATOM     43  CG  LEU V 155      24.173  15.377 -64.757  1.00 30.04 LIG-0.02  C 
ATOM     44  CD1 LEU V 155      24.363  14.017 -64.088  1.00 30.27 LIG 0.01  C 
ATOM     45  CD2 LEU V 155      22.759  15.532 -65.297  1.00 30.44 LIG 0.01  C 
ENDBRANCH 42 43
ENDBRANCH 41 42
BRANCH 41 46
ATOM     46  C   LEU V 155      25.236  17.674 -65.876  1.00 29.88 LIG 0.24  C 
ATOM     47  N   PRO V 156      26.427  17.043 -65.944  1.00 30.63 LIG-0.34  N 
ATOM     48  CD  PRO V 156      27.403  16.738 -64.879  1.00 31.41 LIG 0.13  C 
ATOM     49  CA  PRO V 156      26.934  16.696 -67.263  1.00 30.89 LIG 0.18  C 
ATOM     50  CG  PRO V 156      28.424  15.872 -65.573  1.00 32.36 LIG 0.02  C 
ATOM     51  CB  PRO V 156      28.399  16.325 -66.994  1.00 32.27 LIG 0.04  C 
ATOM     52 O    LEU V 155      24.648  18.081 -66.881  1.00 29.02 LIG-0.27  OA
BRANCH 49 53
ATOM     53  C   PRO V 156      26.172  15.517 -67.856  1.00 31.44 LIG 0.24  C 
ATOM     54 O    PRO V 156      26.541  14.364 -67.633  1.00 31.00 LIG-0.27  OA
ATOM     55  N   GLU V 157      25.097  15.819 -68.579  1.00 32.40 LIG-0.35  N 
ATOM     56 H    GLU V 157      24.756  16.608 -68.615  1.00 32.40 LIG 0.16  HD
BRANCH 55 57
ATOM     57  CA  GLU V 157      24.389  14.826 -69.389  1.00 33.20 LIG 0.18  C 
BRANCH 57 58
ATOM     58  C   GLU V 157      23.638  13.858 -68.486  1.00 33.95 LIG 0.24  C 
ATOM     59 O    GLU V 157      24.149  13.457 -67.445  1.00 33.71 LIG-0.27  OA
ATOM     60  N   ILE V 158      22.437  13.475 -68.902  1.00 34.74 LIG-0.35  N 
ATOM     61 H    ILE V 158      22.071  13.760 -69.626  1.00 34.74 LIG 0.16  HD
BRANCH 60 62
ATOM     62  CA  ILE V 158      21.620  12.523 -68.155  1.00 36.41 LIG 0.17  C 
BRANCH 62 63
ATOM     63  C   ILE V 158      22.248  11.126 -68.258  1.00 36.37 LIG 0.22  C 
ATOM     64 O    ILE V 158      21.922  10.329 -69.138  1.00 37.57 LIG-0.29  OA
ENDBRANCH 62 63
BRANCH 62 65
ATOM     65  CB  ILE V 158      20.162  12.537 -68.667  1.00 38.09 LIG 0.01  C 
ATOM     66  CG2 ILE V 158      19.375  11.379 -68.072  1.00 39.83 LIG 0.01  C 
BRANCH 65 67
ATOM     67  CG1 ILE V 158      19.480  13.863 -68.306  1.00 37.40 LIG 0.00  C 
ATOM     68  CD1 ILE V 158      19.736  14.319 -66.888  1.00 39.06 LIG 0.01  C 
ENDBRANCH 65 67
ENDBRANCH 62 65
ENDBRANCH 60 62
ENDBRANCH 57 58
BRANCH 57 69
ATOM     69  CB  GLU V 157      25.379  14.017 -70.241  1.00 33.67 LIG 0.04  C 
BRANCH 69 70
ATOM     70  CG  GLU V 157      25.471  12.541 -69.885  1.00 33.36 LIG 0.12  C 
BRANCH 70 71
ATOM     71  CD  GLU V 157      25.977  11.687 -71.031  1.00 33.78 LIG 0.17  C 
ATOM     72 OE2  GLU V 157      26.377  12.253 -72.073  1.00 33.85 LIG-0.65  OA
ATOM     73 OE1  GLU V 157      25.983  10.446 -70.886  1.00 33.73 LIG-0.65  OA
ENDBRANCH 70 71
ENDBRANCH 69 70
ENDBRANCH 57 69
ENDBRANCH 55 57
ENDBRANCH 49 53
ENDBRANCH 41 46
ENDBRANCH 39 41
ENDBRANCH 1 37
BRANCH 1 74
ATOM     74  CB  LYS V 154      21.600  20.651 -65.109  1.00 30.73 LIG 0.04  C 
BRANCH 74 75
ATOM     75  CG  LYS V 154      20.322  20.926 -65.897  1.00 31.37 LIG 0.00  C 
BRANCH 75 76
ATOM     76  CD  LYS V 154      19.233  21.513 -65.006  1.00 32.31 LIG 0.03  C 
BRANCH 76 77
ATOM     77  CE  LYS V 154      17.967  20.667 -65.018  1.00 33.00 LIG 0.23  C 
BRANCH 77 78
ATOM     78  NZ  LYS V 154      18.004  19.569 -64.021  1.00 34.35 LIG-0.08  N 
ATOM     79 HZ3  LYS V 154      18.183  19.904 -63.216  1.00 34.35 LIG 0.27  HD
ATOM     80 HZ2  LYS V 154      18.636  18.985 -64.247  1.00 34.35 LIG 0.27  HD
ATOM     81 HZ1  LYS V 154      17.215  19.159 -64.003  1.00 34.35 LIG 0.27  HD
ENDBRANCH 77 78
ENDBRANCH 76 77
ENDBRANCH 75 76
ENDBRANCH 74 75
ENDBRANCH 1 74
TORSDOF 32
ENDMDL
MODEL 10
USER: ADFR SOLUTION from run 148
USER: SCORE 24.492321 LL:  -4.521 LR: -21.948 RR:   0.000 FEB: -12.403
USER: RMSD 6.360419
USER: SEED 147
USER: STATUS no improvement in best in 17 clusters for 5 generations
USER: GENES 34
USER: genes 0 Translation |==|  0.49225 0.49896 0.38818
USER: genes 1 Rotation |==|  0.52714 0.94235 0.71758 0.57906
USER: genes 2 Torsion [C]-CA--N-[C] |==|  0.69870
USER: genes 3 Torsion [N]-C--CA-[N] |==|  0.44028
USER: genes 4 Torsion [C]-CA--N-[C] |==|  0.66086
USER: genes 5 Torsion [N]-C--CA-[N] |==|  0.43861
USER: genes 6 Torsion [C]-CA--CB-[CG] |==|  0.81091
USER: genes 7 Torsion [CA]-CB--CG-[CD] |==|  0.45927
USER: genes 8 Torsion [CB]-CG--CD-[NE] |==|  0.02042
USER: genes 9 Torsion [CG]-CD--NE-[HE] |==|  0.72815
USER: genes 10 Torsion [C]-CA--CB-[CG] |==|  0.85208
USER: genes 11 Torsion [CA]-CB--CG-[CD] |==|  0.66358
USER: genes 12 Torsion [CB]-CG--CD-[NE] |==|  0.27749
USER: genes 13 Torsion [CG]-CD--NE-[CZ] |==|  0.34758
USER: genes 14 Torsion [N]-CA--C-[N] |==|  0.19812
USER: genes 15 Torsion [C]-N--CA-[C] |==|  0.84416
USER: genes 16 Torsion [N]-CA--CB-[CG] |==|  0.80742
USER: genes 17 Torsion [CA]-CB--CG-[CD2] |==|  0.90516
USER: genes 18 Torsion [N]-CA--C-[N] |==|  0.90787
USER: genes 19 Torsion [N]-CA--C-[O] |==|  0.83139
USER: genes 20 Torsion [C]-N--CA-[CB] |==|  0.42626
USER: genes 21 Torsion [N]-CA--C-[N] |==|  0.93429
USER: genes 22 Torsion [C]-N--CA-[CB] |==|  0.24586
USER: genes 23 Torsion [N]-CA--C-[O] |==|  0.07572
USER: genes 24 Torsion [N]-CA--CB-[CG2] |==|  0.04952
USER: genes 25 Torsion [CA]-CB--CG1-[CD1] |==|  0.50179
USER: genes 26 Torsion [N]-CA--CB-[CG] |==|  0.53867
USER: genes 27 Torsion [CA]-CB--CG-[CD] |==|  0.19246
USER: genes 28 Torsion [CB]-CG--CD-[OE2] |==|  0.08112
USER: genes 29 Torsion [N]-CA--CB-[CG] |==|  0.02111
USER: genes 30 Torsion [CA]-CB--CG-[CD] |==|  0.32130
USER: genes 31 Torsion [CB]-CG--CD-[CE] |==|  0.68777
USER: genes 32 Torsion [CG]-CD--CE-[NZ] |==|  0.86347
USER: genes 33 Torsion [CD]-CE--NZ-[HZ2] |==|  0.99556
ROOT
ATOM      1  CA  LYS V 154      22.283  13.538 -67.948  1.00 29.23 LIG 0.18  C 
ENDROOT
BRANCH 1 2
ATOM      2  N   LYS V 154      23.129  14.594 -67.374  1.00 29.36 LIG-0.35  N 
ATOM      3 H    LYS V 154      23.862  14.727 -67.804  1.00 29.36 LIG 0.16  HD
ATOM      4  C   ARG V 153      22.779  15.277 -66.281  1.00 28.75 LIG 0.24  C 
ATOM      5 O    ARG V 153      21.673  15.202 -65.760  1.00 27.33 LIG-0.27  OA
BRANCH 4 6
ATOM      6  CA  ARG V 153      23.855  16.147 -65.657  1.00 29.80 LIG 0.18  C 
BRANCH 6 7
ATOM      7  N   ARG V 153      23.304  17.212 -64.815  1.00 31.02 LIG-0.35  N 
ATOM      8 H    ARG V 153      22.808  16.924 -64.174  1.00 31.02 LIG 0.16  HD
ATOM      9  C   ARG V 152      23.549  18.511 -65.025  1.00 33.76 LIG 0.26  C 
ATOM     10 O    ARG V 152      24.262  18.935 -65.946  1.00 32.85 LIG-0.27  OA
BRANCH 9 11
ATOM     11  CA  ARG V 152      22.859  19.480 -64.046  1.00 35.90 LIG 0.40  C 
ATOM     12  N   ARG V 152      23.553  20.803 -63.981  1.00 37.25 LIG 0.61  N 
BRANCH 11 13
ATOM     13  CB  ARG V 152      21.389  19.686 -64.408  1.00 38.16 LIG 0.05  C 
BRANCH 13 14
ATOM     14  CG  ARG V 152      21.208  20.442 -65.716  1.00 40.06 LIG 0.02  C 
BRANCH 14 15
ATOM     15  CD  ARG V 152      19.793  20.342 -66.257  1.00 42.07 LIG 0.14  C 
BRANCH 15 16
ATOM     16  NE  ARG V 152      18.877  19.688 -65.319  1.00 44.48 LIG-0.23  N 
ATOM     17  CZ  ARG V 152      18.266  20.275 -64.288  1.00 45.58 LIG 0.67  C 
ATOM     18  NH1 ARG V 152      18.441  21.566 -64.015  1.00 44.25 LIG-0.23  N 
ATOM     19  NH2 ARG V 152      17.464  19.554 -63.513  1.00 47.95 LIG-0.23  N 
ATOM     20 1HH1 ARG V 152      18.958  22.044 -64.508  1.00 44.25 LIG 0.17  HD
ATOM     21 2HH1 ARG V 152      18.036  21.923 -63.345  1.00 44.25 LIG 0.17  HD
ATOM     22 2HH2 ARG V 152      17.066  19.923 -62.846  1.00 47.95 LIG 0.17  HD
ATOM     23 1HH2 ARG V 152      17.343  18.718 -63.679  1.00 47.95 LIG 0.17  HD
ATOM     24 HE   ARG V 152      18.719  18.852 -65.445  1.00 44.48 LIG 0.18  HD
ENDBRANCH 15 16
ENDBRANCH 14 15
ENDBRANCH 13 14
ENDBRANCH 11 13
ENDBRANCH 9 11
ENDBRANCH 6 7
BRANCH 6 25
ATOM     25  CB  ARG V 153      24.786  15.223 -64.842  1.00 29.44 LIG 0.04  C 
BRANCH 25 26
ATOM     26  CG  ARG V 153      24.056  14.350 -63.844  1.00 30.46 LIG 0.02  C 
BRANCH 26 27
ATOM     27  CD  ARG V 153      24.513  14.567 -62.409  1.00 30.98 LIG 0.14  C 
BRANCH 27 28
ATOM     28  NE  ARG V 153      23.552  15.435 -61.749  1.00 31.91 LIG-0.23  N 
ATOM     29  CZ  ARG V 153      22.923  15.134 -60.616  1.00 32.21 LIG 0.67  C 
ATOM     30  NH2 ARG V 153      23.167  14.000 -59.959  1.00 31.04 LIG-0.23  N 
ATOM     31  NH1 ARG V 153      22.053  15.996 -60.122  1.00 34.14 LIG-0.23  N 
ATOM     32 2HH2 ARG V 153      22.748  13.827 -59.228  1.00 31.04 LIG 0.17  HD
ATOM     33 1HH2 ARG V 153      23.744  13.441 -60.265  1.00 31.04 LIG 0.17  HD
ATOM     34 2HH1 ARG V 153      21.638  15.816 -59.390  1.00 34.14 LIG 0.17  HD
ATOM     35 1HH1 ARG V 153      21.901  16.737 -60.531  1.00 34.14 LIG 0.17  HD
ATOM     36 HE   ARG V 153      23.379  16.193 -62.115  1.00 31.91 LIG 0.18  HD
ENDBRANCH 27 28
ENDBRANCH 26 27
ENDBRANCH 25 26
ENDBRANCH 6 25
ENDBRANCH 4 6
ENDBRANCH 1 2
BRANCH 1 37
ATOM     37  C   LYS V 154      22.855  12.128 -67.739  1.00 29.43 LIG 0.24  C 
ATOM     38 O    LYS V 154      23.290  11.456 -68.678  1.00 29.02 LIG-0.27  OA
ATOM     39  N   LEU V 155      22.802  11.681 -66.492  1.00 29.02 LIG-0.35  N 
ATOM     40 H    LEU V 155      22.525  12.156 -65.830  1.00 29.02 LIG 0.16  HD
BRANCH 39 41
ATOM     41  CA  LEU V 155      23.208  10.332 -66.122  1.00 29.55 LIG 0.18  C 
BRANCH 41 42
ATOM     42  CB  LEU V 155      22.937  10.136 -64.631  1.00 29.70 LIG 0.04  C 
BRANCH 42 43
ATOM     43  CG  LEU V 155      23.855  10.955 -63.723  1.00 30.04 LIG-0.02  C 
ATOM     44  CD1 LEU V 155      23.955  10.356 -62.322  1.00 30.27 LIG 0.01  C 
ATOM     45  CD2 LEU V 155      25.226  11.056 -64.377  1.00 30.44 LIG 0.01  C 
ENDBRANCH 42 43
ENDBRANCH 41 42
BRANCH 41 46
ATOM     46  C   LEU V 155      22.449   9.259 -66.916  1.00 29.88 LIG 0.24  C 
ATOM     47  N   PRO V 156      21.171   9.522 -67.266  1.00 30.63 LIG-0.34  N 
ATOM     48  CD  PRO V 156      20.253  10.574 -66.790  1.00 31.41 LIG 0.13  C 
ATOM     49  CA  PRO V 156      20.508   8.581 -68.156  1.00 30.89 LIG 0.18  C 
ATOM     50  CG  PRO V 156      19.054  10.433 -67.694  1.00 32.36 LIG 0.02  C 
ATOM     51  CB  PRO V 156      19.031   8.988 -68.064  1.00 32.27 LIG 0.04  C 
ATOM     52 O    LEU V 155      23.007   8.199 -67.207  1.00 29.02 LIG-0.27  OA
BRANCH 49 53
ATOM     53  C   PRO V 156      21.023   8.713 -69.584  1.00 31.44 LIG 0.24  C 
ATOM     54 O    PRO V 156      20.901   9.776 -70.193  1.00 31.00 LIG-0.27  OA
ATOM     55  N   GLU V 157      21.622   7.639 -70.091  1.00 32.40 LIG-0.35  N 
ATOM     56 H    GLU V 157      21.837   6.950 -69.623  1.00 32.40 LIG 0.16  HD
BRANCH 55 57
ATOM     57  CA  GLU V 157      21.975   7.529 -71.508  1.00 33.20 LIG 0.18  C 
BRANCH 57 58
ATOM     58  C   GLU V 157      20.797   6.973 -72.296  1.00 33.95 LIG 0.24  C 
ATOM     59 O    GLU V 157      20.687   7.208 -73.495  1.00 33.71 LIG-0.27  OA
ATOM     60  N   ILE V 158      19.916   6.257 -71.610  1.00 34.74 LIG-0.35  N 
ATOM     61 H    ILE V 158      19.993   6.083 -70.772  1.00 34.74 LIG 0.16  HD
BRANCH 60 62
ATOM     62  CA  ILE V 158      18.720   5.692 -72.229  1.00 36.41 LIG 0.17  C 
BRANCH 62 63
ATOM     63  C   ILE V 158      17.586   5.653 -71.195  1.00 36.37 LIG 0.22  C 
ATOM     64 O    ILE V 158      17.534   6.447 -70.255  1.00 37.57 LIG-0.29  OA
ENDBRANCH 62 63
BRANCH 62 65
ATOM     65  CB  ILE V 158      19.015   4.292 -72.810  1.00 38.09 LIG 0.01  C 
ATOM     66  CG2 ILE V 158      20.291   3.722 -72.210  1.00 39.83 LIG 0.01  C 
BRANCH 65 67
ATOM     67  CG1 ILE V 158      17.845   3.338 -72.534  1.00 37.40 LIG 0.00  C 
ATOM     68  CD1 ILE V 158      18.059   1.936 -73.057  1.00 39.06 LIG 0.01  C 
ENDBRANCH 65 67
ENDBRANCH 62 65
ENDBRANCH 60 62
ENDBRANCH 57 58
BRANCH 57 69
ATOM     69  CB  GLU V 157      23.169   6.580 -71.696  1.00 33.67 LIG 0.04  C 
BRANCH 69 70
ATOM     70  CG  GLU V 157      23.828   6.646 -73.065  1.00 33.36 LIG 0.12  C 
BRANCH 70 71
ATOM     71  CD  GLU V 157      24.568   7.947 -73.303  1.00 33.78 LIG 0.17  C 
ATOM     72 OE2  GLU V 157      25.054   8.552 -72.322  1.00 33.85 LIG-0.65  OA
ATOM     73 OE1  GLU V 157      24.671   8.363 -74.477  1.00 33.73 LIG-0.65  OA
ENDBRANCH 70 71
ENDBRANCH 69 70
ENDBRANCH 57 69
ENDBRANCH 55 57
ENDBRANCH 49 53
ENDBRANCH 41 46
ENDBRANCH 39 41
ENDBRANCH 1 37
BRANCH 1 74
ATOM     74  CB  LYS V 154      22.085  13.743 -69.448  1.00 30.73 LIG 0.04  C 
BRANCH 74 75
ATOM     75  CG  LYS V 154      22.923  14.853 -70.078  1.00 31.37 LIG 0.00  C 
BRANCH 75 76
ATOM     76  CD  LYS V 154      23.914  14.295 -71.094  1.00 32.31 LIG 0.03  C 
BRANCH 76 77
ATOM     77  CE  LYS V 154      25.356  14.446 -70.628  1.00 33.00 LIG 0.23  C 
BRANCH 77 78
ATOM     78  NZ  LYS V 154      25.664  15.819 -70.159  1.00 34.35 LIG-0.08  N 
ATOM     79 HZ3  LYS V 154      25.900  15.794 -69.301  1.00 34.35 LIG 0.27  HD
ATOM     80 HZ2  LYS V 154      24.944  16.334 -70.253  1.00 34.35 LIG 0.27  HD
ATOM     81 HZ1  LYS V 154      26.333  16.154 -70.640  1.00 34.35 LIG 0.27  HD
ENDBRANCH 77 78
ENDBRANCH 76 77
ENDBRANCH 75 76
ENDBRANCH 74 75
ENDBRANCH 1 74
TORSDOF 32
ENDMDL
MODEL 11
USER: ADFR SOLUTION from run 158
USER: SCORE 24.204033 LL:  -4.834 LR: -21.830 RR:   0.000 FEB: -12.284
USER: RMSD 6.217226
USER: SEED 157
USER: STATUS 1 or 2 clusters left
USER: GENES 34
USER: genes 0 Translation |==|  0.49838 0.69916 0.50576
USER: genes 1 Rotation |==|  0.47847 0.09043 0.21700 0.54125
USER: genes 2 Torsion [C]-CA--N-[C] |==|  0.62784
USER: genes 3 Torsion [N]-C--CA-[N] |==|  0.10970
USER: genes 4 Torsion [C]-CA--N-[C] |==|  0.47649
USER: genes 5 Torsion [N]-C--CA-[N] |==|  0.78041
USER: genes 6 Torsion [C]-CA--CB-[CG] |==|  0.13688
USER: genes 7 Torsion [CA]-CB--CG-[CD] |==|  0.67779
USER: genes 8 Torsion [CB]-CG--CD-[NE] |==|  0.97222
USER: genes 9 Torsion [CG]-CD--NE-[HE] |==|  0.22626
USER: genes 10 Torsion [C]-CA--CB-[CG] |==|  0.27406
USER: genes 11 Torsion [CA]-CB--CG-[CD] |==|  0.82163
USER: genes 12 Torsion [CB]-CG--CD-[NE] |==|  0.72403
USER: genes 13 Torsion [CG]-CD--NE-[CZ] |==|  0.35189
USER: genes 14 Torsion [N]-CA--C-[N] |==|  0.34749
USER: genes 15 Torsion [C]-N--CA-[C] |==|  0.75383
USER: genes 16 Torsion [N]-CA--CB-[CG] |==|  0.88102
USER: genes 17 Torsion [CA]-CB--CG-[CD2] |==|  0.75756
USER: genes 18 Torsion [N]-CA--C-[N] |==|  0.34490
USER: genes 19 Torsion [N]-CA--C-[O] |==|  0.49241
USER: genes 20 Torsion [C]-N--CA-[CB] |==|  0.52222
USER: genes 21 Torsion [N]-CA--C-[N] |==|  0.40083
USER: genes 22 Torsion [C]-N--CA-[CB] |==|  0.31104
USER: genes 23 Torsion [N]-CA--C-[O] |==|  0.77603
USER: genes 24 Torsion [N]-CA--CB-[CG2] |==|  0.51837
USER: genes 25 Torsion [CA]-CB--CG1-[CD1] |==|  0.85070
USER: genes 26 Torsion [N]-CA--CB-[CG] |==|  0.57168
USER: genes 27 Torsion [CA]-CB--CG-[CD] |==|  0.73731
USER: genes 28 Torsion [CB]-CG--CD-[OE2] |==|  0.40444
USER: genes 29 Torsion [N]-CA--CB-[CG] |==|  0.68202
USER: genes 30 Torsion [CA]-CB--CG-[CD] |==|  0.10962
USER: genes 31 Torsion [CB]-CG--CD-[CE] |==|  0.46343
USER: genes 32 Torsion [CG]-CD--CE-[NZ] |==|  0.27700
USER: genes 33 Torsion [CD]-CE--NZ-[HZ2] |==|  0.96519
ROOT
ATOM      1  CA  LYS V 154      22.398  19.395 -64.862  1.00 29.23 LIG 0.18  C 
ENDROOT
BRANCH 1 2
ATOM      2  N   LYS V 154      23.182  20.484 -64.264  1.00 29.36 LIG-0.35  N 
ATOM      3 H    LYS V 154      23.872  20.712 -64.724  1.00 29.36 LIG 0.16  HD
ATOM      4  C   ARG V 153      22.844  21.059 -63.107  1.00 28.75 LIG 0.24  C 
ATOM      5 O    ARG V 153      21.784  20.848 -62.530  1.00 27.33 LIG-0.27  OA
BRANCH 4 6
ATOM      6  CA  ARG V 153      23.876  21.982 -62.485  1.00 29.80 LIG 0.18  C 
BRANCH 6 7
ATOM      7  N   ARG V 153      24.572  22.804 -63.478  1.00 31.02 LIG-0.35  N 
ATOM      8 H    ARG V 153      24.398  22.585 -64.292  1.00 31.02 LIG 0.16  HD
ATOM      9  C   ARG V 152      25.401  23.802 -63.151  1.00 33.76 LIG 0.26  C 
ATOM     10 O    ARG V 152      25.658  24.124 -61.982  1.00 32.85 LIG-0.27  OA
BRANCH 9 11
ATOM     11  CA  ARG V 152      26.056  24.534 -64.338  1.00 35.90 LIG 0.40  C 
ATOM     12  N   ARG V 152      27.208  23.767 -64.905  1.00 37.25 LIG 0.61  N 
BRANCH 11 13
ATOM     13  CB  ARG V 152      25.041  24.829 -65.440  1.00 38.16 LIG 0.05  C 
BRANCH 13 14
ATOM     14  CG  ARG V 152      23.773  25.481 -64.909  1.00 40.06 LIG 0.02  C 
BRANCH 14 15
ATOM     15  CD  ARG V 152      22.543  24.614 -65.106  1.00 42.07 LIG 0.14  C 
BRANCH 15 16
ATOM     16  NE  ARG V 152      22.803  23.456 -65.965  1.00 44.48 LIG-0.23  N 
ATOM     17  CZ  ARG V 152      22.520  23.370 -67.266  1.00 45.58 LIG 0.67  C 
ATOM     18  NH1 ARG V 152      21.956  24.379 -67.927  1.00 44.25 LIG-0.23  N 
ATOM     19  NH2 ARG V 152      22.807  22.250 -67.920  1.00 47.95 LIG-0.23  N 
ATOM     20 1HH1 ARG V 152      21.765  25.109 -67.516  1.00 44.25 LIG 0.17  HD
ATOM     21 2HH1 ARG V 152      21.783  24.300 -68.766  1.00 44.25 LIG 0.17  HD
ATOM     22 2HH2 ARG V 152      22.628  22.185 -68.759  1.00 47.95 LIG 0.17  HD
ATOM     23 1HH2 ARG V 152      23.171  21.590 -67.505  1.00 47.95 LIG 0.17  HD
ATOM     24 HE   ARG V 152      23.172  22.771 -65.598  1.00 44.48 LIG 0.18  HD
ENDBRANCH 15 16
ENDBRANCH 14 15
ENDBRANCH 13 14
ENDBRANCH 11 13
ENDBRANCH 9 11
ENDBRANCH 6 7
BRANCH 6 25
ATOM     25  CB  ARG V 153      23.147  22.864 -61.448  1.00 29.44 LIG 0.04  C 
BRANCH 25 26
ATOM     26  CG  ARG V 153      23.290  22.372 -60.024  1.00 30.46 LIG 0.02  C 
BRANCH 26 27
ATOM     27  CD  ARG V 153      22.647  21.012 -59.791  1.00 30.98 LIG 0.14  C 
BRANCH 27 28
ATOM     28  NE  ARG V 153      21.346  21.221 -59.177  1.00 31.91 LIG-0.23  N 
ATOM     29  CZ  ARG V 153      20.207  20.718 -59.645  1.00 32.21 LIG 0.67  C 
ATOM     30  NH2 ARG V 153      20.178  19.926 -60.717  1.00 31.04 LIG-0.23  N 
ATOM     31  NH1 ARG V 153      19.081  20.995 -59.013  1.00 34.14 LIG-0.23  N 
ATOM     32 2HH2 ARG V 153      19.429  19.613 -61.001  1.00 31.04 LIG 0.17  HD
ATOM     33 1HH2 ARG V 153      20.908  19.728 -61.125  1.00 31.04 LIG 0.17  HD
ATOM     34 2HH1 ARG V 153      18.335  20.677 -59.303  1.00 34.14 LIG 0.17  HD
ATOM     35 1HH1 ARG V 153      19.092  21.492 -58.311  1.00 34.14 LIG 0.17  HD
ATOM     36 HE   ARG V 153      21.311  21.700 -58.465  1.00 31.91 LIG 0.18  HD
ENDBRANCH 27 28
ENDBRANCH 26 27
ENDBRANCH 25 26
ENDBRANCH 6 25
ENDBRANCH 4 6
ENDBRANCH 1 2
BRANCH 1 37
ATOM     37  C   LYS V 154      23.267  18.228 -65.356  1.00 29.43 LIG 0.24  C 
ATOM     38 O    LYS V 154      24.170  18.393 -66.181  1.00 29.02 LIG-0.27  OA
ATOM     39  N   LEU V 155      22.943  17.040 -64.866  1.00 29.02 LIG-0.35  N 
ATOM     40 H    LEU V 155      22.333  16.924 -64.271  1.00 29.02 LIG 0.16  HD
BRANCH 39 41
ATOM     41  CA  LEU V 155      23.592  15.809 -65.294  1.00 29.55 LIG 0.18  C 
BRANCH 41 42
ATOM     42  CB  LEU V 155      23.562  14.816 -64.132  1.00 29.70 LIG 0.04  C 
BRANCH 42 43
ATOM     43  CG  LEU V 155      23.897  15.440 -62.777  1.00 30.04 LIG-0.02  C 
ATOM     44  CD1 LEU V 155      23.182  14.730 -61.629  1.00 30.27 LIG 0.01  C 
ATOM     45  CD2 LEU V 155      25.407  15.411 -62.586  1.00 30.44 LIG 0.01  C 
ENDBRANCH 42 43
ENDBRANCH 41 42
BRANCH 41 46
ATOM     46  C   LEU V 155      22.897  15.179 -66.511  1.00 29.88 LIG 0.24  C 
ATOM     47  N   PRO V 156      23.647  14.940 -67.608  1.00 30.63 LIG-0.34  N 
ATOM     48  CD  PRO V 156      24.997  15.423 -67.962  1.00 31.41 LIG 0.13  C 
ATOM     49  CA  PRO V 156      23.032  14.196 -68.697  1.00 30.89 LIG 0.18  C 
ATOM     50  CG  PRO V 156      25.329  14.658 -69.218  1.00 32.36 LIG 0.02  C 
ATOM     51  CB  PRO V 156      24.009  14.404 -69.864  1.00 32.27 LIG 0.04  C 
ATOM     52 O    LEU V 155      21.694  14.916 -66.466  1.00 29.02 LIG-0.27  OA
BRANCH 49 53
ATOM     53  C   PRO V 156      22.901  12.718 -68.352  1.00 31.44 LIG 0.24  C 
ATOM     54 O    PRO V 156      22.355  11.943 -69.138  1.00 31.00 LIG-0.27  OA
ATOM     55  N   GLU V 157      23.430  12.339 -67.192  1.00 32.40 LIG-0.35  N 
ATOM     56 H    GLU V 157      23.934  12.844 -66.713  1.00 32.40 LIG 0.16  HD
BRANCH 55 57
ATOM     57  CA  GLU V 157      23.201  11.011 -66.618  1.00 33.20 LIG 0.18  C 
BRANCH 57 58
ATOM     58  C   GLU V 157      21.707  10.725 -66.550  1.00 33.95 LIG 0.24  C 
ATOM     59 O    GLU V 157      20.915  11.623 -66.283  1.00 33.71 LIG-0.27  OA
ATOM     60  N   ILE V 158      21.337   9.471 -66.772  1.00 34.74 LIG-0.35  N 
ATOM     61 H    ILE V 158      21.887   8.839 -66.967  1.00 34.74 LIG 0.16  HD
BRANCH 60 62
ATOM     62  CA  ILE V 158      19.942   9.045 -66.703  1.00 36.41 LIG 0.17  C 
BRANCH 62 63
ATOM     63  C   ILE V 158      19.815   7.887 -65.703  1.00 36.37 LIG 0.22  C 
ATOM     64 O    ILE V 158      20.097   6.728 -66.010  1.00 37.57 LIG-0.29  OA
ENDBRANCH 62 63
BRANCH 62 65
ATOM     65  CB  ILE V 158      19.421   8.654 -68.104  1.00 38.09 LIG 0.01  C 
ATOM     66  CG2 ILE V 158      17.928   8.368 -68.059  1.00 39.83 LIG 0.01  C 
BRANCH 65 67
ATOM     67  CG1 ILE V 158      19.700   9.777 -69.112  1.00 37.40 LIG 0.00  C 
ATOM     68  CD1 ILE V 158      19.175  11.129 -68.685  1.00 39.06 LIG 0.01  C 
ENDBRANCH 65 67
ENDBRANCH 62 65
ENDBRANCH 60 62
ENDBRANCH 57 58
BRANCH 57 69
ATOM     69  CB  GLU V 157      23.770  10.933 -65.193  1.00 33.67 LIG 0.04  C 
BRANCH 69 70
ATOM     70  CG  GLU V 157      24.152   9.535 -64.734  1.00 33.36 LIG 0.12  C 
BRANCH 70 71
ATOM     71  CD  GLU V 157      23.049   8.846 -63.955  1.00 33.78 LIG 0.17  C 
ATOM     72 OE2  GLU V 157      22.911   7.608 -64.072  1.00 33.85 LIG-0.65  OA
ATOM     73 OE1  GLU V 157      22.322   9.544 -63.215  1.00 33.73 LIG-0.65  OA
ENDBRANCH 70 71
ENDBRANCH 69 70
ENDBRANCH 57 69
ENDBRANCH 55 57
ENDBRANCH 49 53
ENDBRANCH 41 46
ENDBRANCH 39 41
ENDBRANCH 1 37
BRANCH 1 74
ATOM     74  CB  LYS V 154      21.571  19.893 -66.045  1.00 30.73 LIG 0.04  C 
BRANCH 74 75
ATOM     75  CG  LYS V 154      20.056  19.842 -65.858  1.00 31.37 LIG 0.00  C 
BRANCH 75 76
ATOM     76  CD  LYS V 154      19.656  20.245 -64.443  1.00 32.31 LIG 0.03  C 
BRANCH 76 77
ATOM     77  CE  LYS V 154      18.162  20.511 -64.326  1.00 33.00 LIG 0.23  C 
BRANCH 77 78
ATOM     78  NZ  LYS V 154      17.421  19.363 -63.747  1.00 34.35 LIG-0.08  N 
ATOM     79 HZ3  LYS V 154      17.167  19.561 -62.917  1.00 34.35 LIG 0.27  HD
ATOM     80 HZ2  LYS V 154      17.947  18.646 -63.733  1.00 34.35 LIG 0.27  HD
ATOM     81 HZ1  LYS V 154      16.702  19.194 -64.243  1.00 34.35 LIG 0.27  HD
ENDBRANCH 77 78
ENDBRANCH 76 77
ENDBRANCH 75 76
ENDBRANCH 74 75
ENDBRANCH 1 74
TORSDOF 32
ENDMDL
MODEL 12
USER: ADFR SOLUTION from run 90
USER: SCORE 25.706829 LL:  -4.591 LR: -21.814 RR:   0.000 FEB: -12.268
USER: RMSD 4.561870
USER: SEED 89
USER: STATUS no improvement in best in 4 clusters for 5 generations
USER: GENES 34
USER: genes 0 Translation |==|  0.58539 0.59348 0.50208
USER: genes 1 Rotation |==|  0.46161 0.47856 0.47421 0.99740
USER: genes 2 Torsion [C]-CA--N-[C] |==|  0.78025
USER: genes 3 Torsion [N]-C--CA-[N] |==|  0.30751
USER: genes 4 Torsion [C]-CA--N-[C] |==|  0.61796
USER: genes 5 Torsion [N]-C--CA-[N] |==|  0.79691
USER: genes 6 Torsion [C]-CA--CB-[CG] |==|  0.22700
USER: genes 7 Torsion [CA]-CB--CG-[CD] |==|  0.71783
USER: genes 8 Torsion [CB]-CG--CD-[NE] |==|  0.96313
USER: genes 9 Torsion [CG]-CD--NE-[HE] |==|  0.12690
USER: genes 10 Torsion [C]-CA--CB-[CG] |==|  0.21611
USER: genes 11 Torsion [CA]-CB--CG-[CD] |==|  0.42744
USER: genes 12 Torsion [CB]-CG--CD-[NE] |==|  0.86160
USER: genes 13 Torsion [CG]-CD--NE-[CZ] |==|  0.80238
USER: genes 14 Torsion [N]-CA--C-[N] |==|  0.41325
USER: genes 15 Torsion [C]-N--CA-[C] |==|  0.83650
USER: genes 16 Torsion [N]-CA--CB-[CG] |==|  0.67666
USER: genes 17 Torsion [CA]-CB--CG-[CD2] |==|  0.35499
USER: genes 18 Torsion [N]-CA--C-[N] |==|  0.40343
USER: genes 19 Torsion [N]-CA--C-[O] |==|  0.28500
USER: genes 20 Torsion [C]-N--CA-[CB] |==|  0.52609
USER: genes 21 Torsion [N]-CA--C-[N] |==|  0.45043
USER: genes 22 Torsion [C]-N--CA-[CB] |==|  0.39411
USER: genes 23 Torsion [N]-CA--C-[O] |==|  0.11121
USER: genes 24 Torsion [N]-CA--CB-[CG2] |==|  0.40555
USER: genes 25 Torsion [CA]-CB--CG1-[CD1] |==|  0.02032
USER: genes 26 Torsion [N]-CA--CB-[CG] |==|  0.61020
USER: genes 27 Torsion [CA]-CB--CG-[CD] |==|  0.74376
USER: genes 28 Torsion [CB]-CG--CD-[OE2] |==|  0.78753
USER: genes 29 Torsion [N]-CA--CB-[CG] |==|  0.18718
USER: genes 30 Torsion [CA]-CB--CG-[CD] |==|  0.55199
USER: genes 31 Torsion [CB]-CG--CD-[CE] |==|  0.30306
USER: genes 32 Torsion [CG]-CD--CE-[NZ] |==|  0.89724
USER: genes 33 Torsion [CD]-CE--NZ-[HZ2] |==|  0.04990
ROOT
ATOM      1  CA  LYS V 154      24.029  16.303 -64.958  1.00 29.23 LIG 0.18  C 
ENDROOT
BRANCH 1 2
ATOM      2  N   LYS V 154      23.408  17.534 -64.449  1.00 29.36 LIG-0.35  N 
ATOM      3 H    LYS V 154      23.094  17.463 -63.652  1.00 29.36 LIG 0.16  HD
ATOM      4  C   ARG V 153      23.344  18.655 -65.171  1.00 28.75 LIG 0.24  C 
ATOM      5 O    ARG V 153      23.926  18.808 -66.238  1.00 27.33 LIG-0.27  OA
BRANCH 4 6
ATOM      6  CA  ARG V 153      22.455  19.759 -64.625  1.00 29.80 LIG 0.18  C 
BRANCH 6 7
ATOM      7  N   ARG V 153      23.216  20.917 -64.150  1.00 31.02 LIG-0.35  N 
ATOM      8 H    ARG V 153      23.864  21.141 -64.670  1.00 31.02 LIG 0.16  HD
ATOM      9  C   ARG V 152      22.932  21.564 -63.014  1.00 33.76 LIG 0.26  C 
ATOM     10 O    ARG V 152      22.001  21.247 -62.259  1.00 32.85 LIG-0.27  OA
BRANCH 9 11
ATOM     11  CA  ARG V 152      23.863  22.742 -62.673  1.00 35.90 LIG 0.40  C 
ATOM     12  N   ARG V 152      25.210  22.281 -62.216  1.00 37.25 LIG 0.61  N 
BRANCH 11 13
ATOM     13  CB  ARG V 152      24.018  23.692 -63.859  1.00 38.16 LIG 0.05  C 
BRANCH 13 14
ATOM     14  CG  ARG V 152      22.862  24.674 -63.978  1.00 40.06 LIG 0.02  C 
BRANCH 14 15
ATOM     15  CD  ARG V 152      21.865  24.277 -65.051  1.00 42.07 LIG 0.14  C 
BRANCH 15 16
ATOM     16  NE  ARG V 152      22.379  23.228 -65.936  1.00 44.48 LIG-0.23  N 
ATOM     17  CZ  ARG V 152      22.297  23.221 -67.267  1.00 45.58 LIG 0.67  C 
ATOM     18  NH1 ARG V 152      21.719  24.216 -67.938  1.00 44.25 LIG-0.23  N 
ATOM     19  NH2 ARG V 152      22.803  22.196 -67.944  1.00 47.95 LIG-0.23  N 
ATOM     20 1HH1 ARG V 152      21.387  24.885 -67.512  1.00 44.25 LIG 0.17  HD
ATOM     21 2HH1 ARG V 152      21.678  24.189 -68.796  1.00 44.25 LIG 0.17  HD
ATOM     22 2HH2 ARG V 152      22.755  22.182 -68.802  1.00 47.95 LIG 0.17  HD
ATOM     23 1HH2 ARG V 152      23.179  21.547 -67.523  1.00 47.95 LIG 0.17  HD
ATOM     24 HE   ARG V 152      22.769  22.558 -65.563  1.00 44.48 LIG 0.18  HD
ENDBRANCH 15 16
ENDBRANCH 14 15
ENDBRANCH 13 14
ENDBRANCH 11 13
ENDBRANCH 9 11
ENDBRANCH 6 7
BRANCH 6 25
ATOM     25  CB  ARG V 153      21.474  20.163 -65.747  1.00 29.44 LIG 0.04  C 
BRANCH 25 26
ATOM     26  CG  ARG V 153      20.325  19.193 -65.928  1.00 30.46 LIG 0.02  C 
BRANCH 26 27
ATOM     27  CD  ARG V 153      19.082  19.841 -66.523  1.00 30.98 LIG 0.14  C 
BRANCH 27 28
ATOM     28  NE  ARG V 153      18.787  21.046 -65.767  1.00 31.91 LIG-0.23  N 
ATOM     29  CZ  ARG V 153      18.318  21.055 -64.522  1.00 32.21 LIG 0.67  C 
ATOM     30  NH2 ARG V 153      18.121  19.926 -63.839  1.00 31.04 LIG-0.23  N 
ATOM     31  NH1 ARG V 153      18.067  22.214 -63.943  1.00 34.14 LIG-0.23  N 
ATOM     32 2HH2 ARG V 153      17.817  19.957 -63.035  1.00 31.04 LIG 0.17  HD
ATOM     33 1HH2 ARG V 153      18.297  19.167 -64.203  1.00 31.04 LIG 0.17  HD
ATOM     34 2HH1 ARG V 153      17.763  22.237 -63.138  1.00 34.14 LIG 0.17  HD
ATOM     35 1HH1 ARG V 153      18.206  22.948 -64.370  1.00 34.14 LIG 0.17  HD
ATOM     36 HE   ARG V 153      18.924  21.803 -66.149  1.00 31.91 LIG 0.18  HD
ENDBRANCH 27 28
ENDBRANCH 26 27
ENDBRANCH 25 26
ENDBRANCH 6 25
ENDBRANCH 4 6
ENDBRANCH 1 2
BRANCH 1 37
ATOM     37  C   LYS V 154      23.116  15.521 -65.915  1.00 29.43 LIG 0.24  C 
ATOM     38 O    LYS V 154      21.890  15.500 -65.774  1.00 29.02 LIG-0.27  OA
ATOM     39  N   LEU V 155      23.747  14.840 -66.861  1.00 29.02 LIG-0.35  N 
ATOM     40 H    LEU V 155      24.598  14.873 -66.980  1.00 29.02 LIG 0.16  HD
BRANCH 39 41
ATOM     41  CA  LEU V 155      23.054  13.966 -67.797  1.00 29.55 LIG 0.18  C 
BRANCH 41 42
ATOM     42  CB  LEU V 155      24.088  13.340 -68.733  1.00 29.70 LIG 0.04  C 
BRANCH 42 43
ATOM     43  CG  LEU V 155      23.914  13.737 -70.199  1.00 30.04 LIG-0.02  C 
ATOM     44  CD1 LEU V 155      22.803  14.768 -70.383  1.00 30.27 LIG 0.01  C 
ATOM     45  CD2 LEU V 155      25.244  14.260 -70.724  1.00 30.44 LIG 0.01  C 
ENDBRANCH 42 43
ENDBRANCH 41 42
BRANCH 41 46
ATOM     46  C   LEU V 155      22.281  12.848 -67.082  1.00 29.88 LIG 0.24  C 
ATOM     47  N   PRO V 156      21.111  12.446 -67.625  1.00 30.63 LIG-0.34  N 
ATOM     48  CD  PRO V 156      20.280  13.079 -68.668  1.00 31.41 LIG 0.13  C 
ATOM     49  CA  PRO V 156      20.462  11.281 -67.043  1.00 30.89 LIG 0.18  C 
ATOM     50  CG  PRO V 156      19.213  12.049 -68.943  1.00 32.36 LIG 0.02  C 
ATOM     51  CB  PRO V 156      19.053  11.320 -67.652  1.00 32.27 LIG 0.04  C 
ATOM     52 O    LEU V 155      22.730  12.354 -66.045  1.00 29.02 LIG-0.27  OA
BRANCH 49 53
ATOM     53  C   PRO V 156      21.187   9.996 -67.426  1.00 31.44 LIG 0.24  C 
ATOM     54 O    PRO V 156      21.927   9.436 -66.618  1.00 31.00 LIG-0.27  OA
ATOM     55  N   GLU V 157      20.940   9.527 -68.646  1.00 32.40 LIG-0.35  N 
ATOM     56 H    GLU V 157      20.318   9.833 -69.156  1.00 32.40 LIG 0.16  HD
BRANCH 55 57
ATOM     57  CA  GLU V 157      21.714   8.436 -69.241  1.00 33.20 LIG 0.18  C 
BRANCH 57 58
ATOM     58  C   GLU V 157      23.202   8.736 -69.138  1.00 33.95 LIG 0.24  C 
ATOM     59 O    GLU V 157      23.591   9.883 -68.941  1.00 33.71 LIG-0.27  OA
ATOM     60  N   ILE V 158      24.023   7.705 -69.292  1.00 34.74 LIG-0.35  N 
ATOM     61 H    ILE V 158      23.755   6.898 -69.422  1.00 34.74 LIG 0.16  HD
BRANCH 60 62
ATOM     62  CA  ILE V 158      25.476   7.852 -69.254  1.00 36.41 LIG 0.17  C 
BRANCH 62 63
ATOM     63  C   ILE V 158      26.006   8.015 -70.685  1.00 36.37 LIG 0.22  C 
ATOM     64 O    ILE V 158      25.416   8.695 -71.525  1.00 37.57 LIG-0.29  OA
ENDBRANCH 62 63
BRANCH 62 65
ATOM     65  CB  ILE V 158      26.126   6.650 -68.533  1.00 38.09 LIG 0.01  C 
ATOM     66  CG2 ILE V 158      27.476   6.322 -69.153  1.00 39.83 LIG 0.01  C 
BRANCH 65 67
ATOM     67  CG1 ILE V 158      26.305   6.953 -67.040  1.00 37.40 LIG 0.00  C 
ATOM     68  CD1 ILE V 158      25.660   8.246 -66.595  1.00 39.06 LIG 0.01  C 
ENDBRANCH 65 67
ENDBRANCH 62 65
ENDBRANCH 60 62
ENDBRANCH 57 58
BRANCH 57 69
ATOM     69  CB  GLU V 157      21.360   8.270 -70.728  1.00 33.67 LIG 0.04  C 
BRANCH 69 70
ATOM     70  CG  GLU V 157      21.267   6.830 -71.205  1.00 33.36 LIG 0.12  C 
BRANCH 70 71
ATOM     71  CD  GLU V 157      22.574   6.307 -71.767  1.00 33.78 LIG 0.17  C 
ATOM     72 OE2  GLU V 157      22.924   6.666 -72.913  1.00 33.85 LIG-0.65  OA
ATOM     73 OE1  GLU V 157      23.260   5.541 -71.056  1.00 33.73 LIG-0.65  OA
ENDBRANCH 70 71
ENDBRANCH 69 70
ENDBRANCH 57 69
ENDBRANCH 55 57
ENDBRANCH 49 53
ENDBRANCH 41 46
ENDBRANCH 39 41
ENDBRANCH 1 37
BRANCH 1 74
ATOM     74  CB  LYS V 154      24.419  15.367 -63.817  1.00 30.73 LIG 0.04  C 
BRANCH 74 75
ATOM     75  CG  LYS V 154      23.256  14.761 -63.036  1.00 31.37 LIG 0.00  C 
BRANCH 75 76
ATOM     76  CD  LYS V 154      23.711  14.234 -61.679  1.00 32.31 LIG 0.03  C 
BRANCH 76 77
ATOM     77  CE  LYS V 154      23.197  15.092 -60.531  1.00 33.00 LIG 0.23  C 
BRANCH 77 78
ATOM     78  NZ  LYS V 154      23.179  16.538 -60.862  1.00 34.35 LIG-0.08  N 
ATOM     79 HZ3  LYS V 154      22.427  16.904 -60.557  1.00 34.35 LIG 0.27  HD
ATOM     80 HZ2  LYS V 154      23.222  16.642 -61.745  1.00 34.35 LIG 0.27  HD
ATOM     81 HZ1  LYS V 154      23.878  16.938 -60.482  1.00 34.35 LIG 0.27  HD
ENDBRANCH 77 78
ENDBRANCH 76 77
ENDBRANCH 75 76
ENDBRANCH 74 75
ENDBRANCH 1 74
TORSDOF 32
ENDMDL
MODEL 13
USER: ADFR SOLUTION from run 55
USER: SCORE 25.576912 LL:  -4.264 LR: -21.763 RR:   0.000 FEB: -12.218
USER: RMSD 6.450840
USER: SEED 54
USER: STATUS no improvement in best in 24 clusters for 5 generations
USER: GENES 34
USER: genes 0 Translation |==|  0.53445 0.68359 0.51623
USER: genes 1 Rotation |==|  0.41108 0.09794 0.23062 0.58875
USER: genes 2 Torsion [C]-CA--N-[C] |==|  0.84908
USER: genes 3 Torsion [N]-C--CA-[N] |==|  0.11793
USER: genes 4 Torsion [C]-CA--N-[C] |==|  0.17222
USER: genes 5 Torsion [N]-C--CA-[N] |==|  0.93485
USER: genes 6 Torsion [C]-CA--CB-[CG] |==|  0.71209
USER: genes 7 Torsion [CA]-CB--CG-[CD] |==|  0.38374
USER: genes 8 Torsion [CB]-CG--CD-[NE] |==|  0.70669
USER: genes 9 Torsion [CG]-CD--NE-[HE] |==|  0.19495
USER: genes 10 Torsion [C]-CA--CB-[CG] |==|  0.35384
USER: genes 11 Torsion [CA]-CB--CG-[CD] |==|  0.15267
USER: genes 12 Torsion [CB]-CG--CD-[NE] |==|  0.75971
USER: genes 13 Torsion [CG]-CD--NE-[CZ] |==|  0.77350
USER: genes 14 Torsion [N]-CA--C-[N] |==|  0.36026
USER: genes 15 Torsion [C]-N--CA-[C] |==|  0.77462
USER: genes 16 Torsion [N]-CA--CB-[CG] |==|  0.82127
USER: genes 17 Torsion [CA]-CB--CG-[CD2] |==|  0.28240
USER: genes 18 Torsion [N]-CA--C-[N] |==|  0.32715
USER: genes 19 Torsion [N]-CA--C-[O] |==|  0.76998
USER: genes 20 Torsion [C]-N--CA-[CB] |==|  0.54548
USER: genes 21 Torsion [N]-CA--C-[N] |==|  0.43589
USER: genes 22 Torsion [C]-N--CA-[CB] |==|  0.33568
USER: genes 23 Torsion [N]-CA--C-[O] |==|  0.99890
USER: genes 24 Torsion [N]-CA--CB-[CG2] |==|  0.63513
USER: genes 25 Torsion [CA]-CB--CG1-[CD1] |==|  0.70059
USER: genes 26 Torsion [N]-CA--CB-[CG] |==|  0.51600
USER: genes 27 Torsion [CA]-CB--CG-[CD] |==|  0.12746
USER: genes 28 Torsion [CB]-CG--CD-[OE2] |==|  0.60995
USER: genes 29 Torsion [N]-CA--CB-[CG] |==|  0.63554
USER: genes 30 Torsion [CA]-CB--CG-[CD] |==|  0.44444
USER: genes 31 Torsion [CB]-CG--CD-[CE] |==|  0.59677
USER: genes 32 Torsion [CG]-CD--CE-[NZ] |==|  0.89031
USER: genes 33 Torsion [CD]-CE--NZ-[HZ2] |==|  0.36210
ROOT
ATOM      1  CA  LYS V 154      23.074  18.939 -64.587  1.00 29.23 LIG 0.18  C 
ENDROOT
BRANCH 1 2
ATOM      2  N   LYS V 154      24.112  19.944 -64.323  1.00 29.36 LIG-0.35  N 
ATOM      3 H    LYS V 154      23.941  20.720 -64.653  1.00 29.36 LIG 0.16  HD
ATOM      4  C   ARG V 153      25.219  19.666 -63.630  1.00 28.75 LIG 0.24  C 
ATOM      5 O    ARG V 153      25.394  18.614 -63.026  1.00 27.33 LIG-0.27  OA
BRANCH 4 6
ATOM      6  CA  ARG V 153      26.314  20.717 -63.656  1.00 29.80 LIG 0.18  C 
BRANCH 6 7
ATOM      7  N   ARG V 153      25.794  22.080 -63.513  1.00 31.02 LIG-0.35  N 
ATOM      8 H    ARG V 153      25.954  22.583 -64.193  1.00 31.02 LIG 0.16  HD
ATOM      9  C   ARG V 152      25.134  22.502 -62.428  1.00 33.76 LIG 0.26  C 
ATOM     10 O    ARG V 152      24.901  21.783 -61.445  1.00 32.85 LIG-0.27  OA
BRANCH 9 11
ATOM     11  CA  ARG V 152      24.689  23.975 -62.458  1.00 35.90 LIG 0.40  C 
ATOM     12  N   ARG V 152      25.522  24.797 -63.389  1.00 37.25 LIG 0.61  N 
BRANCH 11 13
ATOM     13  CB  ARG V 152      23.214  24.105 -62.835  1.00 38.16 LIG 0.05  C 
BRANCH 13 14
ATOM     14  CG  ARG V 152      23.016  24.563 -64.273  1.00 40.06 LIG 0.02  C 
BRANCH 14 15
ATOM     15  CD  ARG V 152      21.899  23.813 -64.976  1.00 42.07 LIG 0.14  C 
BRANCH 15 16
ATOM     16  NE  ARG V 152      22.401  22.832 -65.942  1.00 44.48 LIG-0.23  N 
ATOM     17  CZ  ARG V 152      22.307  22.926 -67.269  1.00 45.58 LIG 0.67  C 
ATOM     18  NH1 ARG V 152      21.727  23.971 -67.857  1.00 44.25 LIG-0.23  N 
ATOM     19  NH2 ARG V 152      22.803  21.953 -68.026  1.00 47.95 LIG-0.23  N 
ATOM     20 1HH1 ARG V 152      21.401  24.607 -67.380  1.00 44.25 LIG 0.17  HD
ATOM     21 2HH1 ARG V 152      21.678  24.009 -68.715  1.00 44.25 LIG 0.17  HD
ATOM     22 2HH2 ARG V 152      22.748  22.005 -68.882  1.00 47.95 LIG 0.17  HD
ATOM     23 1HH2 ARG V 152      23.180  21.273 -67.658  1.00 47.95 LIG 0.17  HD
ATOM     24 HE   ARG V 152      22.791  22.135 -65.625  1.00 44.48 LIG 0.18  HD
ENDBRANCH 15 16
ENDBRANCH 14 15
ENDBRANCH 13 14
ENDBRANCH 11 13
ENDBRANCH 9 11
ENDBRANCH 6 7
BRANCH 6 25
ATOM     25  CB  ARG V 153      27.308  20.382 -62.522  1.00 29.44 LIG 0.04  C 
BRANCH 25 26
ATOM     26  CG  ARG V 153      28.748  20.295 -62.982  1.00 30.46 LIG 0.02  C 
BRANCH 26 27
ATOM     27  CD  ARG V 153      29.224  21.548 -63.703  1.00 30.98 LIG 0.14  C 
BRANCH 27 28
ATOM     28  NE  ARG V 153      28.876  21.428 -65.109  1.00 31.91 LIG-0.23  N 
ATOM     29  CZ  ARG V 153      29.586  20.745 -66.002  1.00 32.21 LIG 0.67  C 
ATOM     30  NH2 ARG V 153      30.679  20.063 -65.656  1.00 31.04 LIG-0.23  N 
ATOM     31  NH1 ARG V 153      29.181  20.725 -67.259  1.00 34.14 LIG-0.23  N 
ATOM     32 2HH2 ARG V 153      31.122  19.629 -66.252  1.00 31.04 LIG 0.17  HD
ATOM     33 1HH2 ARG V 153      30.941  20.058 -64.837  1.00 31.04 LIG 0.17  HD
ATOM     34 2HH1 ARG V 153      29.630  20.288 -67.849  1.00 34.14 LIG 0.17  HD
ATOM     35 1HH1 ARG V 153      28.469  21.149 -67.488  1.00 34.14 LIG 0.17  HD
ATOM     36 HE   ARG V 153      28.163  21.824 -65.381  1.00 31.91 LIG 0.18  HD
ENDBRANCH 27 28
ENDBRANCH 26 27
ENDBRANCH 25 26
ENDBRANCH 6 25
ENDBRANCH 4 6
ENDBRANCH 1 2
BRANCH 1 37
ATOM     37  C   LYS V 154      23.623  17.669 -65.255  1.00 29.43 LIG 0.24  C 
ATOM     38 O    LYS V 154      24.307  17.716 -66.281  1.00 29.02 LIG-0.27  OA
ATOM     39  N   LEU V 155      23.267  16.532 -64.675  1.00 29.02 LIG-0.35  N 
ATOM     40 H    LEU V 155      22.814  16.494 -63.944  1.00 29.02 LIG 0.16  HD
BRANCH 39 41
ATOM     41  CA  LEU V 155      23.612  15.227 -65.222  1.00 29.55 LIG 0.18  C 
BRANCH 41 42
ATOM     42  CB  LEU V 155      23.550  14.196 -64.096  1.00 29.70 LIG 0.04  C 
BRANCH 42 43
ATOM     43  CG  LEU V 155      24.580  14.426 -62.989  1.00 30.04 LIG-0.02  C 
ATOM     44  CD1 LEU V 155      25.756  15.272 -63.472  1.00 30.27 LIG 0.01  C 
ATOM     45  CD2 LEU V 155      23.885  15.077 -61.802  1.00 30.44 LIG 0.01  C 
ENDBRANCH 42 43
ENDBRANCH 41 42
BRANCH 41 46
ATOM     46  C   LEU V 155      22.659  14.800 -66.348  1.00 29.88 LIG 0.24  C 
ATOM     47  N   PRO V 156      23.183  14.614 -67.579  1.00 30.63 LIG-0.34  N 
ATOM     48  CD  PRO V 156      24.498  15.009 -68.121  1.00 31.41 LIG 0.13  C 
ATOM     49  CA  PRO V 156      22.317  14.053 -68.604  1.00 30.89 LIG 0.18  C 
ATOM     50  CG  PRO V 156      24.529  14.358 -69.481  1.00 32.36 LIG 0.02  C 
ATOM     51  CB  PRO V 156      23.100  14.297 -69.902  1.00 32.27 LIG 0.04  C 
ATOM     52 O    LEU V 155      21.459  14.644 -66.113  1.00 29.02 LIG-0.27  OA
BRANCH 49 53
ATOM     53  C   PRO V 156      22.085  12.564 -68.378  1.00 31.44 LIG 0.24  C 
ATOM     54 O    PRO V 156      22.912  11.740 -68.769  1.00 31.00 LIG-0.27  OA
ATOM     55  N   GLU V 157      20.976  12.238 -67.720  1.00 32.40 LIG-0.35  N 
ATOM     56 H    GLU V 157      20.475  12.812 -67.321  1.00 32.40 LIG 0.16  HD
BRANCH 55 57
ATOM     57  CA  GLU V 157      20.502  10.857 -67.612  1.00 33.20 LIG 0.18  C 
BRANCH 57 58
ATOM     58  C   GLU V 157      20.605  10.165 -68.963  1.00 33.95 LIG 0.24  C 
ATOM     59 O    GLU V 157      20.604  10.822 -69.999  1.00 33.71 LIG-0.27  OA
ATOM     60  N   ILE V 158      20.672   8.840 -68.942  1.00 34.74 LIG-0.35  N 
ATOM     61 H    ILE V 158      20.681   8.375 -68.219  1.00 34.74 LIG 0.16  HD
BRANCH 60 62
ATOM     62  CA  ILE V 158      20.738   8.042 -70.164  1.00 36.41 LIG 0.17  C 
BRANCH 62 63
ATOM     63  C   ILE V 158      19.476   7.176 -70.271  1.00 36.37 LIG 0.22  C 
ATOM     64 O    ILE V 158      18.594   7.201 -69.413  1.00 37.57 LIG-0.29  OA
ENDBRANCH 62 63
BRANCH 62 65
ATOM     65  CB  ILE V 158      22.026   7.189 -70.189  1.00 38.09 LIG 0.01  C 
ATOM     66  CG2 ILE V 158      22.739   7.336 -71.524  1.00 39.83 LIG 0.01  C 
BRANCH 65 67
ATOM     67  CG1 ILE V 158      22.968   7.606 -69.053  1.00 37.40 LIG 0.00  C 
ATOM     68  CD1 ILE V 158      24.192   8.362 -69.517  1.00 39.06 LIG 0.01  C 
ENDBRANCH 65 67
ENDBRANCH 62 65
ENDBRANCH 60 62
ENDBRANCH 57 58
BRANCH 57 69
ATOM     69  CB  GLU V 157      19.031  10.824 -67.167  1.00 33.67 LIG 0.04  C 
BRANCH 69 70
ATOM     70  CG  GLU V 157      18.478   9.435 -66.891  1.00 33.36 LIG 0.12  C 
BRANCH 70 71
ATOM     71  CD  GLU V 157      19.412   8.582 -66.055  1.00 33.78 LIG 0.17  C 
ATOM     72 OE2  GLU V 157      19.534   7.369 -66.336  1.00 33.85 LIG-0.65  OA
ATOM     73 OE1  GLU V 157      20.034   9.129 -65.118  1.00 33.73 LIG-0.65  OA
ENDBRANCH 70 71
ENDBRANCH 69 70
ENDBRANCH 57 69
ENDBRANCH 55 57
ENDBRANCH 49 53
ENDBRANCH 41 46
ENDBRANCH 39 41
ENDBRANCH 1 37
BRANCH 1 74
ATOM     74  CB  LYS V 154      21.976  19.501 -65.487  1.00 30.73 LIG 0.04  C 
BRANCH 74 75
ATOM     75  CG  LYS V 154      20.546  19.266 -65.006  1.00 31.37 LIG 0.00  C 
BRANCH 75 76
ATOM     76  CD  LYS V 154      19.572  20.242 -65.658  1.00 32.31 LIG 0.03  C 
BRANCH 76 77
ATOM     77  CE  LYS V 154      18.450  20.647 -64.713  1.00 33.00 LIG 0.23  C 
BRANCH 77 78
ATOM     78  NZ  LYS V 154      17.960  19.515 -63.888  1.00 34.35 LIG-0.08  N 
ATOM     79 HZ3  LYS V 154      17.143  19.284 -64.156  1.00 34.35 LIG 0.27  HD
ATOM     80 HZ2  LYS V 154      17.934  19.761 -63.033  1.00 34.35 LIG 0.27  HD
ATOM     81 HZ1  LYS V 154      18.510  18.822 -63.981  1.00 34.35 LIG 0.27  HD
ENDBRANCH 77 78
ENDBRANCH 76 77
ENDBRANCH 75 76
ENDBRANCH 74 75
ENDBRANCH 1 74
TORSDOF 32
ENDMDL
MODEL 14
USER: ADFR SOLUTION from run 178
USER: SCORE 26.071018 LL:  -4.808 LR: -21.705 RR:   0.000 FEB: -12.159
USER: RMSD 6.926561
USER: SEED 177
USER: STATUS searching
USER: GENES 34
USER: genes 0 Translation |==|  0.50272 0.68920 0.51497
USER: genes 1 Rotation |==|  0.44061 0.09257 0.23271 0.59501
USER: genes 2 Torsion [C]-CA--N-[C] |==|  0.61793
USER: genes 3 Torsion [N]-C--CA-[N] |==|  0.92012
USER: genes 4 Torsion [C]-CA--N-[C] |==|  0.82741
USER: genes 5 Torsion [N]-C--CA-[N] |==|  0.40608
USER: genes 6 Torsion [C]-CA--CB-[CG] |==|  0.43261
USER: genes 7 Torsion [CA]-CB--CG-[CD] |==|  0.40337
USER: genes 8 Torsion [CB]-CG--CD-[NE] |==|  0.41594
USER: genes 9 Torsion [CG]-CD--NE-[HE] |==|  0.04669
USER: genes 10 Torsion [C]-CA--CB-[CG] |==|  0.05378
USER: genes 11 Torsion [CA]-CB--CG-[CD] |==|  0.64507
USER: genes 12 Torsion [CB]-CG--CD-[NE] |==|  0.18215
USER: genes 13 Torsion [CG]-CD--NE-[CZ] |==|  0.51225
USER: genes 14 Torsion [N]-CA--C-[N] |==|  0.39961
USER: genes 15 Torsion [C]-N--CA-[C] |==|  0.69851
USER: genes 16 Torsion [N]-CA--CB-[CG] |==|  0.95527
USER: genes 17 Torsion [CA]-CB--CG-[CD2] |==|  0.79267
USER: genes 18 Torsion [N]-CA--C-[N] |==|  0.37982
USER: genes 19 Torsion [N]-CA--C-[O] |==|  0.81191
USER: genes 20 Torsion [C]-N--CA-[CB] |==|  0.85556
USER: genes 21 Torsion [N]-CA--C-[N] |==|  0.40077
USER: genes 22 Torsion [C]-N--CA-[CB] |==|  0.49930
USER: genes 23 Torsion [N]-CA--C-[O] |==|  0.33814
USER: genes 24 Torsion [N]-CA--CB-[CG2] |==|  0.79040
USER: genes 25 Torsion [CA]-CB--CG1-[CD1] |==|  0.60699
USER: genes 26 Torsion [N]-CA--CB-[CG] |==|  0.62886
USER: genes 27 Torsion [CA]-CB--CG-[CD] |==|  0.80700
USER: genes 28 Torsion [CB]-CG--CD-[OE2] |==|  0.37703
USER: genes 29 Torsion [N]-CA--CB-[CG] |==|  0.84357
USER: genes 30 Torsion [CA]-CB--CG-[CD] |==|  0.82585
USER: genes 31 Torsion [CB]-CG--CD-[CE] |==|  0.67441
USER: genes 32 Torsion [CG]-CD--CE-[NZ] |==|  0.35878
USER: genes 33 Torsion [CD]-CE--NZ-[HZ2] |==|  0.87515
ROOT
ATOM      1  CA  LYS V 154      22.479  19.103 -64.620  1.00 29.23 LIG 0.18  C 
ENDROOT
BRANCH 1 2
ATOM      2  N   LYS V 154      23.383  20.217 -64.304  1.00 29.36 LIG-0.35  N 
ATOM      3 H    LYS V 154      23.957  20.388 -64.921  1.00 29.36 LIG 0.16  HD
ATOM      4  C   ARG V 153      23.309  20.896 -63.156  1.00 28.75 LIG 0.24  C 
ATOM      5 O    ARG V 153      22.399  20.762 -62.347  1.00 27.33 LIG-0.27  OA
BRANCH 4 6
ATOM      6  CA  ARG V 153      24.459  21.841 -62.855  1.00 29.80 LIG 0.18  C 
BRANCH 6 7
ATOM      7  N   ARG V 153      25.722  21.406 -63.459  1.00 31.02 LIG-0.35  N 
ATOM      8 H    ARG V 153      26.039  21.962 -64.033  1.00 31.02 LIG 0.16  HD
ATOM      9  C   ARG V 152      26.324  20.252 -63.146  1.00 33.76 LIG 0.26  C 
ATOM     10 O    ARG V 152      25.872  19.445 -62.320  1.00 32.85 LIG-0.27  OA
BRANCH 9 11
ATOM     11  CA  ARG V 152      27.631  19.962 -63.907  1.00 35.90 LIG 0.40  C 
ATOM     12  N   ARG V 152      28.619  19.219 -63.064  1.00 37.25 LIG 0.61  N 
BRANCH 11 13
ATOM     13  CB  ARG V 152      27.367  19.187 -65.196  1.00 38.16 LIG 0.05  C 
BRANCH 13 14
ATOM     14  CG  ARG V 152      28.463  19.383 -66.233  1.00 40.06 LIG 0.02  C 
BRANCH 14 15
ATOM     15  CD  ARG V 152      28.716  18.135 -67.059  1.00 42.07 LIG 0.14  C 
BRANCH 15 16
ATOM     16  NE  ARG V 152      29.176  18.443 -68.416  1.00 44.48 LIG-0.23  N 
ATOM     17  CZ  ARG V 152      29.176  17.600 -69.450  1.00 45.58 LIG 0.67  C 
ATOM     18  NH1 ARG V 152      28.732  16.350 -69.333  1.00 44.25 LIG-0.23  N 
ATOM     19  NH2 ARG V 152      29.632  18.015 -70.626  1.00 47.95 LIG-0.23  N 
ATOM     20 1HH1 ARG V 152      28.435  16.068 -68.577  1.00 44.25 LIG 0.17  HD
ATOM     21 2HH1 ARG V 152      28.741  15.825 -70.014  1.00 44.25 LIG 0.17  HD
ATOM     22 2HH2 ARG V 152      29.635  17.479 -71.299  1.00 47.95 LIG 0.17  HD
ATOM     23 1HH2 ARG V 152      29.922  18.820 -70.715  1.00 47.95 LIG 0.17  HD
ATOM     24 HE   ARG V 152      29.472  19.238 -68.558  1.00 44.48 LIG 0.18  HD
ENDBRANCH 15 16
ENDBRANCH 14 15
ENDBRANCH 13 14
ENDBRANCH 11 13
ENDBRANCH 9 11
ENDBRANCH 6 7
BRANCH 6 25
ATOM     25  CB  ARG V 153      24.055  23.242 -63.363  1.00 29.44 LIG 0.04  C 
BRANCH 25 26
ATOM     26  CG  ARG V 153      22.564  23.410 -63.561  1.00 30.46 LIG 0.02  C 
BRANCH 26 27
ATOM     27  CD  ARG V 153      22.197  23.934 -64.942  1.00 30.98 LIG 0.14  C 
BRANCH 27 28
ATOM     28  NE  ARG V 153      22.563  22.928 -65.925  1.00 31.91 LIG-0.23  N 
ATOM     29  CZ  ARG V 153      22.459  23.092 -67.241  1.00 32.21 LIG 0.67  C 
ATOM     30  NH2 ARG V 153      22.042  24.241 -67.774  1.00 31.04 LIG-0.23  N 
ATOM     31  NH1 ARG V 153      22.803  22.096 -68.037  1.00 34.14 LIG-0.23  N 
ATOM     32 2HH2 ARG V 153      21.983  24.323 -68.628  1.00 31.04 LIG 0.17  HD
ATOM     33 1HH2 ARG V 153      21.831  24.900 -67.263  1.00 31.04 LIG 0.17  HD
ATOM     34 2HH1 ARG V 153      22.741  22.186 -68.890  1.00 34.14 LIG 0.17  HD
ATOM     35 1HH1 ARG V 153      23.088  21.356 -67.702  1.00 34.14 LIG 0.17  HD
ATOM     36 HE   ARG V 153      22.867  22.177 -65.637  1.00 31.91 LIG 0.18  HD
ENDBRANCH 27 28
ENDBRANCH 26 27
ENDBRANCH 25 26
ENDBRANCH 6 25
ENDBRANCH 4 6
ENDBRANCH 1 2
BRANCH 1 37
ATOM     37  C   LYS V 154      23.199  17.910 -65.268  1.00 29.43 LIG 0.24  C 
ATOM     38 O    LYS V 154      24.109  18.065 -66.087  1.00 29.02 LIG-0.27  OA
ATOM     39  N   LEU V 155      22.737  16.718 -64.916  1.00 29.02 LIG-0.35  N 
ATOM     40 H    LEU V 155      22.122  16.605 -64.325  1.00 29.02 LIG 0.16  HD
BRANCH 39 41
ATOM     41  CA  LEU V 155      23.230  15.479 -65.500  1.00 29.55 LIG 0.18  C 
BRANCH 41 42
ATOM     42  CB  LEU V 155      23.561  14.507 -64.369  1.00 29.70 LIG 0.04  C 
BRANCH 42 43
ATOM     43  CG  LEU V 155      23.674  15.171 -62.996  1.00 30.04 LIG-0.02  C 
ATOM     44  CD1 LEU V 155      23.567  14.155 -61.860  1.00 30.27 LIG 0.01  C 
ATOM     45  CD2 LEU V 155      24.989  15.934 -62.929  1.00 30.44 LIG 0.01  C 
ENDBRANCH 42 43
ENDBRANCH 41 42
BRANCH 41 46
ATOM     46  C   LEU V 155      22.201  14.830 -66.437  1.00 29.88 LIG 0.24  C 
ATOM     47  N   PRO V 156      22.645  14.335 -67.613  1.00 30.63 LIG-0.34  N 
ATOM     48  CD  PRO V 156      23.933  14.539 -68.304  1.00 31.41 LIG 0.13  C 
ATOM     49  CA  PRO V 156      21.706  13.576 -68.424  1.00 30.89 LIG 0.18  C 
ATOM     50  CG  PRO V 156      23.867  13.580 -69.466  1.00 32.36 LIG 0.02  C 
ATOM     51  CB  PRO V 156      22.414  13.472 -69.782  1.00 32.27 LIG 0.04  C 
ATOM     52 O    LEU V 155      21.014  14.779 -66.108  1.00 29.02 LIG-0.27  OA
BRANCH 49 53
ATOM     53  C   PRO V 156      21.454  12.195 -67.832  1.00 31.44 LIG 0.24  C 
ATOM     54 O    PRO V 156      22.352  11.353 -67.816  1.00 31.00 LIG-0.27  OA
ATOM     55  N   GLU V 157      20.242  11.988 -67.324  1.00 32.40 LIG-0.35  N 
ATOM     56 H    GLU V 157      19.665  12.614 -67.204  1.00 32.40 LIG 0.16  HD
BRANCH 55 57
ATOM     57  CA  GLU V 157      19.774  10.661 -66.919  1.00 33.20 LIG 0.18  C 
BRANCH 57 58
ATOM     58  C   GLU V 157      20.564  10.177 -65.711  1.00 33.95 LIG 0.24  C 
ATOM     59 O    GLU V 157      21.759  10.432 -65.609  1.00 33.71 LIG-0.27  OA
ATOM     60  N   ILE V 158      19.893   9.464 -64.816  1.00 34.74 LIG-0.35  N 
ATOM     61 H    ILE V 158      19.053   9.289 -64.879  1.00 34.74 LIG 0.16  HD
BRANCH 60 62
ATOM     62  CA  ILE V 158      20.530   8.905 -63.627  1.00 36.41 LIG 0.17  C 
BRANCH 62 63
ATOM     63  C   ILE V 158      21.704   8.012 -64.055  1.00 36.37 LIG 0.22  C 
ATOM     64 O    ILE V 158      22.855   8.223 -63.672  1.00 37.57 LIG-0.29  OA
ENDBRANCH 62 63
BRANCH 62 65
ATOM     65  CB  ILE V 158      19.503   8.132 -62.770  1.00 38.09 LIG 0.01  C 
ATOM     66  CG2 ILE V 158      18.604   9.097 -62.013  1.00 39.83 LIG 0.01  C 
BRANCH 65 67
ATOM     67  CG1 ILE V 158      18.647   7.216 -63.655  1.00 37.40 LIG 0.00  C 
ATOM     68  CD1 ILE V 158      17.193   7.150 -63.244  1.00 39.06 LIG 0.01  C 
ENDBRANCH 65 67
ENDBRANCH 62 65
ENDBRANCH 60 62
ENDBRANCH 57 58
BRANCH 57 69
ATOM     69  CB  GLU V 157      19.970   9.648 -68.058  1.00 33.67 LIG 0.04  C 
BRANCH 69 70
ATOM     70  CG  GLU V 157      18.770   8.756 -68.334  1.00 33.36 LIG 0.12  C 
BRANCH 70 71
ATOM     71  CD  GLU V 157      18.509   7.756 -67.225  1.00 33.78 LIG 0.17  C 
ATOM     72 OE2  GLU V 157      17.334   7.584 -66.832  1.00 33.85 LIG-0.65  OA
ATOM     73 OE1  GLU V 157      19.482   7.133 -66.749  1.00 33.73 LIG-0.65  OA
ENDBRANCH 70 71
ENDBRANCH 69 70
ENDBRANCH 57 69
ENDBRANCH 55 57
ENDBRANCH 49 53
ENDBRANCH 41 46
ENDBRANCH 39 41
ENDBRANCH 1 37
BRANCH 1 74
ATOM     74  CB  LYS V 154      21.366  19.545 -65.567  1.00 30.73 LIG 0.04  C 
BRANCH 74 75
ATOM     75  CG  LYS V 154      20.519  20.721 -65.085  1.00 31.37 LIG 0.00  C 
BRANCH 75 76
ATOM     76  CD  LYS V 154      19.768  20.376 -63.803  1.00 32.31 LIG 0.03  C 
BRANCH 76 77
ATOM     77  CE  LYS V 154      18.258  20.419 -63.997  1.00 33.00 LIG 0.23  C 
BRANCH 77 78
ATOM     78  NZ  LYS V 154      17.585  19.188 -63.513  1.00 34.35 LIG-0.08  N 
ATOM     79 HZ3  LYS V 154      17.557  19.195 -62.623  1.00 34.35 LIG 0.27  HD
ATOM     80 HZ2  LYS V 154      18.038  18.474 -63.790  1.00 34.35 LIG 0.27  HD
ATOM     81 HZ1  LYS V 154      16.757  19.158 -63.835  1.00 34.35 LIG 0.27  HD
ENDBRANCH 77 78
ENDBRANCH 76 77
ENDBRANCH 75 76
ENDBRANCH 74 75
ENDBRANCH 1 74
TORSDOF 32
ENDMDL
MODEL 15
USER: ADFR SOLUTION from run 171
USER: SCORE 24.316001 LL:  -4.818 LR: -21.677 RR:   0.000 FEB: -12.131
USER: RMSD 7.789878
USER: SEED 170
USER: STATUS no improvement in best in 8 clusters for 5 generations
USER: GENES 34
USER: genes 0 Translation |==|  0.44905 0.70847 0.52772
USER: genes 1 Rotation |==|  0.31151 0.81744 0.83538 0.53496
USER: genes 2 Torsion [C]-CA--N-[C] |==|  0.16572
USER: genes 3 Torsion [N]-C--CA-[N] |==|  0.78390
USER: genes 4 Torsion [C]-CA--N-[C] |==|  0.68615
USER: genes 5 Torsion [N]-C--CA-[N] |==|  0.37122
USER: genes 6 Torsion [C]-CA--CB-[CG] |==|  0.11427
USER: genes 7 Torsion [CA]-CB--CG-[CD] |==|  0.68171
USER: genes 8 Torsion [CB]-CG--CD-[NE] |==|  0.55409
USER: genes 9 Torsion [CG]-CD--NE-[HE] |==|  0.22698
USER: genes 10 Torsion [C]-CA--CB-[CG] |==|  0.35876
USER: genes 11 Torsion [CA]-CB--CG-[CD] |==|  0.31051
USER: genes 12 Torsion [CB]-CG--CD-[NE] |==|  0.89303
USER: genes 13 Torsion [CG]-CD--NE-[CZ] |==|  0.58814
USER: genes 14 Torsion [N]-CA--C-[N] |==|  0.31115
USER: genes 15 Torsion [C]-N--CA-[C] |==|  0.79408
USER: genes 16 Torsion [N]-CA--CB-[CG] |==|  0.24960
USER: genes 17 Torsion [CA]-CB--CG-[CD2] |==|  0.80434
USER: genes 18 Torsion [N]-CA--C-[N] |==|  0.50000
USER: genes 19 Torsion [N]-CA--C-[O] |==|  0.75538
USER: genes 20 Torsion [C]-N--CA-[CB] |==|  0.86638
USER: genes 21 Torsion [N]-CA--C-[N] |==|  0.36739
USER: genes 22 Torsion [C]-N--CA-[CB] |==|  0.45701
USER: genes 23 Torsion [N]-CA--C-[O] |==|  0.65309
USER: genes 24 Torsion [N]-CA--CB-[CG2] |==|  0.53204
USER: genes 25 Torsion [CA]-CB--CG1-[CD1] |==|  0.78387
USER: genes 26 Torsion [N]-CA--CB-[CG] |==|  0.42189
USER: genes 27 Torsion [CA]-CB--CG-[CD] |==|  0.65836
USER: genes 28 Torsion [CB]-CG--CD-[OE2] |==|  0.98621
USER: genes 29 Torsion [N]-CA--CB-[CG] |==|  0.78235
USER: genes 30 Torsion [CA]-CB--CG-[CD] |==|  0.20040
USER: genes 31 Torsion [CB]-CG--CD-[CE] |==|  0.63462
USER: genes 32 Torsion [CG]-CD--CE-[NZ] |==|  0.19637
USER: genes 33 Torsion [CD]-CE--NZ-[HZ2] |==|  0.19244
ROOT
ATOM      1  CA  LYS V 154      21.473  19.667 -64.285  1.00 29.23 LIG 0.18  C 
ENDROOT
BRANCH 1 2
ATOM      2  N   LYS V 154      21.037  20.406 -63.093  1.00 29.36 LIG-0.35  N 
ATOM      3 H    LYS V 154      20.395  20.030 -62.663  1.00 29.36 LIG 0.16  HD
ATOM      4  C   ARG V 153      21.597  21.560 -62.722  1.00 28.75 LIG 0.24  C 
ATOM      5 O    ARG V 153      22.610  22.018 -63.236  1.00 27.33 LIG-0.27  OA
BRANCH 4 6
ATOM      6  CA  ARG V 153      20.883  22.337 -61.630  1.00 29.80 LIG 0.18  C 
BRANCH 6 7
ATOM      7  N   ARG V 153      19.710  23.061 -62.126  1.00 31.02 LIG-0.35  N 
ATOM      8 H    ARG V 153      19.071  22.547 -62.387  1.00 31.02 LIG 0.16  HD
ATOM      9  C   ARG V 152      19.638  24.397 -62.168  1.00 33.76 LIG 0.26  C 
ATOM     10 O    ARG V 152      20.553  25.145 -61.794  1.00 32.85 LIG-0.27  OA
BRANCH 9 11
ATOM     11  CA  ARG V 152      18.331  24.971 -62.745  1.00 35.90 LIG 0.40  C 
ATOM     12  N   ARG V 152      17.780  26.075 -61.901  1.00 37.25 LIG 0.61  N 
BRANCH 11 13
ATOM     13  CB  ARG V 152      18.522  25.463 -64.179  1.00 38.16 LIG 0.05  C 
BRANCH 13 14
ATOM     14  CG  ARG V 152      19.385  24.526 -65.010  1.00 40.06 LIG 0.02  C 
BRANCH 14 15
ATOM     15  CD  ARG V 152      20.699  25.159 -65.430  1.00 42.07 LIG 0.14  C 
BRANCH 15 16
ATOM     16  NE  ARG V 152      21.313  24.474 -66.571  1.00 44.48 LIG-0.23  N 
ATOM     17  CZ  ARG V 152      22.286  23.564 -66.502  1.00 45.58 LIG 0.67  C 
ATOM     18  NH1 ARG V 152      22.801  23.177 -65.336  1.00 44.25 LIG-0.23  N 
ATOM     19  NH2 ARG V 152      22.755  23.028 -67.623  1.00 47.95 LIG-0.23  N 
ATOM     20 1HH1 ARG V 152      22.507  23.516 -64.602  1.00 44.25 LIG 0.17  HD
ATOM     21 2HH1 ARG V 152      23.427  22.588 -65.316  1.00 44.25 LIG 0.17  HD
ATOM     22 2HH2 ARG V 152      23.382  22.440 -67.589  1.00 47.95 LIG 0.17  HD
ATOM     23 1HH2 ARG V 152      22.432  23.270 -68.383  1.00 47.95 LIG 0.17  HD
ATOM     24 HE   ARG V 152      21.021  24.677 -67.353  1.00 44.48 LIG 0.18  HD
ENDBRANCH 15 16
ENDBRANCH 14 15
ENDBRANCH 13 14
ENDBRANCH 11 13
ENDBRANCH 9 11
ENDBRANCH 6 7
BRANCH 6 25
ATOM     25  CB  ARG V 153      20.488  21.332 -60.526  1.00 29.44 LIG 0.04  C 
BRANCH 25 26
ATOM     26  CG  ARG V 153      20.911  21.758 -59.136  1.00 30.46 LIG 0.02  C 
BRANCH 26 27
ATOM     27  CD  ARG V 153      19.737  22.110 -58.233  1.00 30.98 LIG 0.14  C 
BRANCH 27 28
ATOM     28  NE  ARG V 153      18.741  22.808 -59.029  1.00 31.91 LIG-0.23  N 
ATOM     29  CZ  ARG V 153      17.931  23.752 -58.558  1.00 32.21 LIG 0.67  C 
ATOM     30  NH2 ARG V 153      18.003  24.171 -57.294  1.00 31.04 LIG-0.23  N 
ATOM     31  NH1 ARG V 153      17.049  24.301 -59.373  1.00 34.14 LIG-0.23  N 
ATOM     32 2HH2 ARG V 153      17.468  24.782 -57.012  1.00 31.04 LIG 0.17  HD
ATOM     33 1HH2 ARG V 153      18.585  23.829 -56.760  1.00 31.04 LIG 0.17  HD
ATOM     34 2HH1 ARG V 153      16.518  24.913 -59.083  1.00 34.14 LIG 0.17  HD
ATOM     35 1HH1 ARG V 153      17.006  24.048 -60.194  1.00 34.14 LIG 0.17  HD
ATOM     36 HE   ARG V 153      18.672  22.598 -59.860  1.00 31.91 LIG 0.18  HD
ENDBRANCH 27 28
ENDBRANCH 26 27
ENDBRANCH 25 26
ENDBRANCH 6 25
ENDBRANCH 4 6
ENDBRANCH 1 2
BRANCH 1 37
ATOM     37  C   LYS V 154      22.952  19.255 -64.230  1.00 29.43 LIG 0.24  C 
ATOM     38 O    LYS V 154      23.862  20.083 -64.323  1.00 29.02 LIG-0.27  OA
ATOM     39  N   LEU V 155      23.168  17.952 -64.123  1.00 29.02 LIG-0.35  N 
ATOM     40 H    LEU V 155      22.537  17.374 -64.030  1.00 29.02 LIG 0.16  HD
BRANCH 39 41
ATOM     41  CA  LEU V 155      24.502  17.369 -64.154  1.00 29.55 LIG 0.18  C 
BRANCH 41 42
ATOM     42  CB  LEU V 155      24.416  15.931 -63.644  1.00 29.70 LIG 0.04  C 
BRANCH 42 43
ATOM     43  CG  LEU V 155      24.153  14.901 -64.742  1.00 30.04 LIG-0.02  C 
ATOM     44  CD1 LEU V 155      24.404  13.474 -64.258  1.00 30.27 LIG 0.01  C 
ATOM     45  CD2 LEU V 155      22.724  15.070 -65.238  1.00 30.44 LIG 0.01  C 
ENDBRANCH 42 43
ENDBRANCH 41 42
BRANCH 41 46
ATOM     46  C   LEU V 155      25.102  17.367 -65.568  1.00 29.88 LIG 0.24  C 
ATOM     47  N   PRO V 156      26.340  16.851 -65.725  1.00 30.63 LIG-0.34  N 
ATOM     48  CD  PRO V 156      27.364  16.513 -64.716  1.00 31.41 LIG 0.13  C 
ATOM     49  CA  PRO V 156      26.840  16.698 -67.082  1.00 30.89 LIG 0.18  C 
ATOM     50  CG  PRO V 156      28.436  15.820 -65.519  1.00 32.36 LIG 0.02  C 
ATOM     51  CB  PRO V 156      28.337  16.425 -66.879  1.00 32.27 LIG 0.04  C 
ATOM     52 O    LEU V 155      24.458  17.832 -66.511  1.00 29.02 LIG-0.27  OA
BRANCH 49 53
ATOM     53  C   PRO V 156      26.164  15.531 -67.792  1.00 31.44 LIG 0.24  C 
ATOM     54 O    PRO V 156      26.627  14.394 -67.699  1.00 31.00 LIG-0.27  OA
ATOM     55  N   GLU V 157      25.057  15.821 -68.470  1.00 32.40 LIG-0.35  N 
ATOM     56 H    GLU V 157      24.654  16.579 -68.418  1.00 32.40 LIG 0.16  HD
BRANCH 55 57
ATOM     57  CA  GLU V 157      24.415  14.867 -69.376  1.00 33.20 LIG 0.18  C 
BRANCH 57 58
ATOM     58  C   GLU V 157      23.761  13.749 -68.577  1.00 33.95 LIG 0.24  C 
ATOM     59 O    GLU V 157      24.385  13.172 -67.693  1.00 33.71 LIG-0.27  OA
ATOM     60  N   ILE V 158      22.514  13.441 -68.908  1.00 34.74 LIG-0.35  N 
ATOM     61 H    ILE V 158      22.069  13.848 -69.521  1.00 34.74 LIG 0.16  HD
BRANCH 60 62
ATOM     62  CA  ILE V 158      21.775  12.366 -68.251  1.00 36.41 LIG 0.17  C 
BRANCH 62 63
ATOM     63  C   ILE V 158      22.346  11.013 -68.697  1.00 36.37 LIG 0.22  C 
ATOM     64 O    ILE V 158      21.635  10.138 -69.194  1.00 37.57 LIG-0.29  OA
ENDBRANCH 62 63
BRANCH 62 65
ATOM     65  CB  ILE V 158      20.264  12.480 -68.551  1.00 38.09 LIG 0.01  C 
ATOM     66  CG2 ILE V 158      19.468  11.547 -67.651  1.00 39.83 LIG 0.01  C 
BRANCH 65 67
ATOM     67  CG1 ILE V 158      19.784  13.923 -68.350  1.00 37.40 LIG 0.00  C 
ATOM     68  CD1 ILE V 158      19.586  14.307 -66.901  1.00 39.06 LIG 0.01  C 
ENDBRANCH 65 67
ENDBRANCH 62 65
ENDBRANCH 60 62
ENDBRANCH 57 58
BRANCH 57 69
ATOM     69  CB  GLU V 157      25.452  14.238 -70.320  1.00 33.67 LIG 0.04  C 
BRANCH 69 70
ATOM     70  CG  GLU V 157      25.107  12.839 -70.807  1.00 33.36 LIG 0.12  C 
BRANCH 70 71
ATOM     71  CD  GLU V 157      26.178  11.818 -70.477  1.00 33.78 LIG 0.17  C 
ATOM     72 OE2  GLU V 157      27.242  12.210 -69.950  1.00 33.85 LIG-0.65  OA
ATOM     73 OE1  GLU V 157      25.951  10.617 -70.740  1.00 33.73 LIG-0.65  OA
ENDBRANCH 70 71
ENDBRANCH 69 70
ENDBRANCH 57 69
ENDBRANCH 55 57
ENDBRANCH 49 53
ENDBRANCH 41 46
ENDBRANCH 39 41
ENDBRANCH 1 37
BRANCH 1 74
ATOM     74  CB  LYS V 154      21.266  20.491 -65.554  1.00 30.73 LIG 0.04  C 
BRANCH 74 75
ATOM     75  CG  LYS V 154      19.834  20.539 -66.082  1.00 31.37 LIG 0.00  C 
BRANCH 75 76
ATOM     76  CD  LYS V 154      18.942  21.400 -65.194  1.00 32.31 LIG 0.03  C 
BRANCH 76 77
ATOM     77  CE  LYS V 154      17.638  20.698 -64.843  1.00 33.00 LIG 0.23  C 
BRANCH 77 78
ATOM     78  NZ  LYS V 154      17.832  19.567 -63.903  1.00 34.35 LIG-0.08  N 
ATOM     79 HZ3  LYS V 154      17.074  19.106 -63.831  1.00 34.35 LIG 0.27  HD
ATOM     80 HZ2  LYS V 154      18.064  19.881 -63.104  1.00 34.35 LIG 0.27  HD
ATOM     81 HZ1  LYS V 154      18.475  19.034 -64.209  1.00 34.35 LIG 0.27  HD
ENDBRANCH 77 78
ENDBRANCH 76 77
ENDBRANCH 75 76
ENDBRANCH 74 75
ENDBRANCH 1 74
TORSDOF 32
ENDMDL
MODEL 16
USER: ADFR SOLUTION from run 71
USER: SCORE 25.843953 LL:  -5.503 LR: -21.621 RR:   0.000 FEB: -12.076
USER: RMSD 7.146381
USER: SEED 70
USER: STATUS no improvement in best in 3 clusters for 5 generations
USER: GENES 34
USER: genes 0 Translation |==|  0.46532 0.71070 0.50909
USER: genes 1 Rotation |==|  0.50178 0.07194 0.28664 0.64573
USER: genes 2 Torsion [C]-CA--N-[C] |==|  0.58329
USER: genes 3 Torsion [N]-C--CA-[N] |==|  0.91187
USER: genes 4 Torsion [C]-CA--N-[C] |==|  0.63370
USER: genes 5 Torsion [N]-C--CA-[N] |==|  0.86418
USER: genes 6 Torsion [C]-CA--CB-[CG] |==|  0.06747
USER: genes 7 Torsion [CA]-CB--CG-[CD] |==|  0.66822
USER: genes 8 Torsion [CB]-CG--CD-[NE] |==|  0.13025
USER: genes 9 Torsion [CG]-CD--NE-[HE] |==|  0.99155
USER: genes 10 Torsion [C]-CA--CB-[CG] |==|  0.22062
USER: genes 11 Torsion [CA]-CB--CG-[CD] |==|  0.74599
USER: genes 12 Torsion [CB]-CG--CD-[NE] |==|  0.40309
USER: genes 13 Torsion [CG]-CD--NE-[CZ] |==|  0.22383
USER: genes 14 Torsion [N]-CA--C-[N] |==|  0.41252
USER: genes 15 Torsion [C]-N--CA-[C] |==|  0.69889
USER: genes 16 Torsion [N]-CA--CB-[CG] |==|  0.91781
USER: genes 17 Torsion [CA]-CB--CG-[CD2] |==|  0.78032
USER: genes 18 Torsion [N]-CA--C-[N] |==|  0.37534
USER: genes 19 Torsion [N]-CA--C-[O] |==|  0.76530
USER: genes 20 Torsion [C]-N--CA-[CB] |==|  0.85000
USER: genes 21 Torsion [N]-CA--C-[N] |==|  0.97044
USER: genes 22 Torsion [C]-N--CA-[CB] |==|  0.40307
USER: genes 23 Torsion [N]-CA--C-[O] |==|  0.03287
USER: genes 24 Torsion [N]-CA--CB-[CG2] |==|  0.78650
USER: genes 25 Torsion [CA]-CB--CG1-[CD1] |==|  0.54165
USER: genes 26 Torsion [N]-CA--CB-[CG] |==|  0.78039
USER: genes 27 Torsion [CA]-CB--CG-[CD] |==|  0.24443
USER: genes 28 Torsion [CB]-CG--CD-[OE2] |==|  0.55665
USER: genes 29 Torsion [N]-CA--CB-[CG] |==|  0.93432
USER: genes 30 Torsion [CA]-CB--CG-[CD] |==|  0.61491
USER: genes 31 Torsion [CB]-CG--CD-[CE] |==|  0.26474
USER: genes 32 Torsion [CG]-CD--CE-[NZ] |==|  0.79942
USER: genes 33 Torsion [CD]-CE--NZ-[HZ2] |==|  0.25234
ROOT
ATOM      1  CA  LYS V 154      21.778  19.732 -64.775  1.00 29.23 LIG 0.18  C 
ENDROOT
BRANCH 1 2
ATOM      2  N   LYS V 154      22.233  21.126 -64.680  1.00 29.36 LIG-0.35  N 
ATOM      3 H    LYS V 154      22.832  21.339 -65.259  1.00 29.36 LIG 0.16  HD
ATOM      4  C   ARG V 153      21.751  21.976 -63.770  1.00 28.75 LIG 0.24  C 
ATOM      5 O    ARG V 153      20.791  21.727 -63.051  1.00 27.33 LIG-0.27  OA
BRANCH 4 6
ATOM      6  CA  ARG V 153      22.490  23.294 -63.620  1.00 29.80 LIG 0.18  C 
BRANCH 6 7
ATOM      7  N   ARG V 153      23.925  23.172 -63.888  1.00 31.02 LIG-0.35  N 
ATOM      8 H    ARG V 153      24.106  22.748 -64.614  1.00 31.02 LIG 0.16  HD
ATOM      9  C   ARG V 152      24.866  23.673 -63.078  1.00 33.76 LIG 0.26  C 
ATOM     10 O    ARG V 152      24.613  24.285 -62.030  1.00 32.85 LIG-0.27  OA
BRANCH 9 11
ATOM     11  CA  ARG V 152      26.319  23.421 -63.519  1.00 35.90 LIG 0.40  C 
ATOM     12  N   ARG V 152      26.560  21.988 -63.872  1.00 37.25 LIG 0.61  N 
BRANCH 11 13
ATOM     13  CB  ARG V 152      26.709  24.314 -64.695  1.00 38.16 LIG 0.05  C 
BRANCH 13 14
ATOM     14  CG  ARG V 152      25.871  25.582 -64.771  1.00 40.06 LIG 0.02  C 
BRANCH 14 15
ATOM     15  CD  ARG V 152      25.089  25.689 -66.067  1.00 42.07 LIG 0.14  C 
BRANCH 15 16
ATOM     16  NE  ARG V 152      24.394  24.444 -66.409  1.00 44.48 LIG-0.23  N 
ATOM     17  CZ  ARG V 152      23.587  24.263 -67.456  1.00 45.58 LIG 0.67  C 
ATOM     18  NH1 ARG V 152      23.339  25.242 -68.324  1.00 44.25 LIG-0.23  N 
ATOM     19  NH2 ARG V 152      23.017  23.078 -67.638  1.00 47.95 LIG-0.23  N 
ATOM     20 1HH1 ARG V 152      23.701  26.014 -68.218  1.00 44.25 LIG 0.17  HD
ATOM     21 2HH1 ARG V 152      22.815  25.101 -68.992  1.00 44.25 LIG 0.17  HD
ATOM     22 2HH2 ARG V 152      22.495  22.951 -68.311  1.00 47.95 LIG 0.17  HD
ATOM     23 1HH2 ARG V 152      23.168  22.438 -67.084  1.00 47.95 LIG 0.17  HD
ATOM     24 HE   ARG V 152      24.517  23.772 -65.888  1.00 44.48 LIG 0.18  HD
ENDBRANCH 15 16
ENDBRANCH 14 15
ENDBRANCH 13 14
ENDBRANCH 11 13
ENDBRANCH 9 11
ENDBRANCH 6 7
BRANCH 6 25
ATOM     25  CB  ARG V 153      21.831  24.309 -64.580  1.00 29.44 LIG 0.04  C 
BRANCH 25 26
ATOM     26  CG  ARG V 153      20.543  24.901 -64.048  1.00 30.46 LIG 0.02  C 
BRANCH 26 27
ATOM     27  CD  ARG V 153      19.306  24.119 -64.465  1.00 30.98 LIG 0.14  C 
BRANCH 27 28
ATOM     28  NE  ARG V 153      18.344  24.170 -63.376  1.00 31.91 LIG-0.23  N 
ATOM     29  CZ  ARG V 153      17.534  25.198 -63.138  1.00 32.21 LIG 0.67  C 
ATOM     30  NH2 ARG V 153      17.511  26.271 -63.930  1.00 31.04 LIG-0.23  N 
ATOM     31  NH1 ARG V 153      16.716  25.139 -62.103  1.00 34.14 LIG-0.23  N 
ATOM     32 2HH2 ARG V 153      16.978  26.923 -63.755  1.00 31.04 LIG 0.17  HD
ATOM     33 1HH2 ARG V 153      18.029  26.310 -64.615  1.00 31.04 LIG 0.17  HD
ATOM     34 2HH1 ARG V 153      16.186  25.796 -61.935  1.00 34.14 LIG 0.17  HD
ATOM     35 1HH1 ARG V 153      16.713  24.444 -61.596  1.00 34.14 LIG 0.17  HD
ATOM     36 HE   ARG V 153      18.296  23.491 -62.851  1.00 31.91 LIG 0.18  HD
ENDBRANCH 27 28
ENDBRANCH 26 27
ENDBRANCH 25 26
ENDBRANCH 6 25
ENDBRANCH 4 6
ENDBRANCH 1 2
BRANCH 1 37
ATOM     37  C   LYS V 154      22.863  18.780 -65.300  1.00 29.43 LIG 0.24  C 
ATOM     38 O    LYS V 154      23.698  19.140 -66.134  1.00 29.02 LIG-0.27  OA
ATOM     39  N   LEU V 155      22.801  17.543 -64.827  1.00 29.02 LIG-0.35  N 
ATOM     40 H    LEU V 155      22.238  17.294 -64.225  1.00 29.02 LIG 0.16  HD
BRANCH 39 41
ATOM     41  CA  LEU V 155      23.685  16.480 -65.283  1.00 29.55 LIG 0.18  C 
BRANCH 41 42
ATOM     42  CB  LEU V 155      24.276  15.780 -64.060  1.00 29.70 LIG 0.04  C 
BRANCH 42 43
ATOM     43  CG  LEU V 155      24.424  16.690 -62.839  1.00 30.04 LIG-0.02  C 
ATOM     44  CD1 LEU V 155      24.482  15.893 -61.538  1.00 30.27 LIG 0.01  C 
ATOM     45  CD2 LEU V 155      25.669  17.546 -63.016  1.00 30.44 LIG 0.01  C 
ENDBRANCH 42 43
ENDBRANCH 41 42
BRANCH 41 46
ATOM     46  C   LEU V 155      22.950  15.445 -66.148  1.00 29.88 LIG 0.24  C 
ATOM     47  N   PRO V 156      23.552  15.035 -67.285  1.00 30.63 LIG-0.34  N 
ATOM     48  CD  PRO V 156      24.704  15.605 -68.010  1.00 31.41 LIG 0.13  C 
ATOM     49  CA  PRO V 156      22.936  13.939 -68.017  1.00 30.89 LIG 0.18  C 
ATOM     50  CG  PRO V 156      24.982  14.588 -69.088  1.00 32.36 LIG 0.02  C 
ATOM     51  CB  PRO V 156      23.656  13.969 -69.373  1.00 32.27 LIG 0.04  C 
ATOM     52 O    LEU V 155      21.846  15.023 -65.798  1.00 29.02 LIG-0.27  OA
BRANCH 49 53
ATOM     53  C   PRO V 156      23.159  12.607 -67.310  1.00 31.44 LIG 0.24  C 
ATOM     54 O    PRO V 156      24.198  11.973 -67.494  1.00 31.00 LIG-0.27  OA
ATOM     55  N   GLU V 157      22.193  12.214 -66.485  1.00 32.40 LIG-0.35  N 
ATOM     56 H    GLU V 157      21.539  12.719 -66.245  1.00 32.40 LIG 0.16  HD
BRANCH 55 57
ATOM     57  CA  GLU V 157      22.153  10.872 -65.902  1.00 33.20 LIG 0.18  C 
BRANCH 57 58
ATOM     58  C   GLU V 157      23.337  10.676 -64.966  1.00 33.95 LIG 0.24  C 
ATOM     59 O    GLU V 157      23.380   9.707 -64.214  1.00 33.71 LIG-0.27  OA
ATOM     60  N   ILE V 158      24.280  11.609 -65.005  1.00 34.74 LIG-0.35  N 
ATOM     61 H    ILE V 158      24.258  12.285 -65.536  1.00 34.74 LIG 0.16  HD
BRANCH 60 62
ATOM     62  CA  ILE V 158      25.454  11.569 -64.138  1.00 36.41 LIG 0.17  C 
BRANCH 62 63
ATOM     63  C   ILE V 158      25.158  12.347 -62.848  1.00 36.37 LIG 0.22  C 
ATOM     64 O    ILE V 158      24.018  12.709 -62.553  1.00 37.57 LIG-0.29  OA
ENDBRANCH 62 63
BRANCH 62 65
ATOM     65  CB  ILE V 158      26.694  12.125 -64.873  1.00 38.09 LIG 0.01  C 
ATOM     66  CG2 ILE V 158      27.241  11.098 -65.852  1.00 39.83 LIG 0.01  C 
BRANCH 65 67
ATOM     67  CG1 ILE V 158      26.338  13.415 -65.624  1.00 37.40 LIG 0.00  C 
ATOM     68  CD1 ILE V 158      27.369  13.833 -66.647  1.00 39.06 LIG 0.01  C 
ENDBRANCH 65 67
ENDBRANCH 62 65
ENDBRANCH 60 62
ENDBRANCH 57 58
BRANCH 57 69
ATOM     69  CB  GLU V 157      22.229   9.802 -67.002  1.00 33.67 LIG 0.04  C 
BRANCH 69 70
ATOM     70  CG  GLU V 157      20.922   9.545 -67.735  1.00 33.36 LIG 0.12  C 
BRANCH 70 71
ATOM     71  CD  GLU V 157      20.721  10.462 -68.925  1.00 33.78 LIG 0.17  C 
ATOM     72 OE2  GLU V 157      19.563  10.628 -69.369  1.00 33.85 LIG-0.65  OA
ATOM     73 OE1  GLU V 157      21.723  11.026 -69.414  1.00 33.73 LIG-0.65  OA
ENDBRANCH 70 71
ENDBRANCH 69 70
ENDBRANCH 57 69
ENDBRANCH 55 57
ENDBRANCH 49 53
ENDBRANCH 41 46
ENDBRANCH 39 41
ENDBRANCH 1 37
BRANCH 1 74
ATOM     74  CB  LYS V 154      20.565  19.607 -65.693  1.00 30.73 LIG 0.04  C 
BRANCH 74 75
ATOM     75  CG  LYS V 154      19.735  20.878 -65.866  1.00 31.37 LIG 0.00  C 
BRANCH 75 76
ATOM     76  CD  LYS V 154      18.241  20.574 -65.848  1.00 32.31 LIG 0.03  C 
BRANCH 76 77
ATOM     77  CE  LYS V 154      17.636  20.764 -64.465  1.00 33.00 LIG 0.23  C 
BRANCH 77 78
ATOM     78  NZ  LYS V 154      18.040  19.700 -63.513  1.00 34.35 LIG-0.08  N 
ATOM     79 HZ3  LYS V 154      17.387  19.565 -62.923  1.00 34.35 LIG 0.27  HD
ATOM     80 HZ2  LYS V 154      18.779  19.949 -63.085  1.00 34.35 LIG 0.27  HD
ATOM     81 HZ1  LYS V 154      18.196  18.946 -63.960  1.00 34.35 LIG 0.27  HD
ENDBRANCH 77 78
ENDBRANCH 76 77
ENDBRANCH 75 76
ENDBRANCH 74 75
ENDBRANCH 1 74
TORSDOF 32
ENDMDL
MODEL 17
USER: ADFR SOLUTION from run 114
USER: SCORE 23.270465 LL:  -3.832 LR: -21.619 RR:   0.000 FEB: -12.073
USER: RMSD 5.711527
USER: SEED 113
USER: STATUS searching
USER: GENES 34
USER: genes 0 Translation |==|  0.57768 0.55076 0.49958
USER: genes 1 Rotation |==|  0.33204 0.40037 0.27547 0.90181
USER: genes 2 Torsion [C]-CA--N-[C] |==|  0.15957
USER: genes 3 Torsion [N]-C--CA-[N] |==|  0.48587
USER: genes 4 Torsion [C]-CA--N-[C] |==|  0.17036
USER: genes 5 Torsion [N]-C--CA-[N] |==|  0.80333
USER: genes 6 Torsion [C]-CA--CB-[CG] |==|  0.12663
USER: genes 7 Torsion [CA]-CB--CG-[CD] |==|  0.25709
USER: genes 8 Torsion [CB]-CG--CD-[NE] |==|  0.95926
USER: genes 9 Torsion [CG]-CD--NE-[HE] |==|  0.18978
USER: genes 10 Torsion [C]-CA--CB-[CG] |==|  0.25667
USER: genes 11 Torsion [CA]-CB--CG-[CD] |==|  0.33419
USER: genes 12 Torsion [CB]-CG--CD-[NE] |==|  0.74881
USER: genes 13 Torsion [CG]-CD--NE-[CZ] |==|  0.80451
USER: genes 14 Torsion [N]-CA--C-[N] |==|  0.22769
USER: genes 15 Torsion [C]-N--CA-[C] |==|  0.79308
USER: genes 16 Torsion [N]-CA--CB-[CG] |==|  0.81013
USER: genes 17 Torsion [CA]-CB--CG-[CD2] |==|  0.63822
USER: genes 18 Torsion [N]-CA--C-[N] |==|  0.44906
USER: genes 19 Torsion [N]-CA--C-[O] |==|  0.06581
USER: genes 20 Torsion [C]-N--CA-[CB] |==|  0.52298
USER: genes 21 Torsion [N]-CA--C-[N] |==|  0.42998
USER: genes 22 Torsion [C]-N--CA-[CB] |==|  0.39258
USER: genes 23 Torsion [N]-CA--C-[O] |==|  0.33835
USER: genes 24 Torsion [N]-CA--CB-[CG2] |==|  0.53821
USER: genes 25 Torsion [CA]-CB--CG1-[CD1] |==|  0.56001
USER: genes 26 Torsion [N]-CA--CB-[CG] |==|  0.21334
USER: genes 27 Torsion [CA]-CB--CG-[CD] |==|  0.35488
USER: genes 28 Torsion [CB]-CG--CD-[OE2] |==|  0.76104
USER: genes 29 Torsion [N]-CA--CB-[CG] |==|  0.77062
USER: genes 30 Torsion [CA]-CB--CG-[CD] |==|  0.51797
USER: genes 31 Torsion [CB]-CG--CD-[CE] |==|  0.72937
USER: genes 32 Torsion [CG]-CD--CE-[NZ] |==|  0.35763
USER: genes 33 Torsion [CD]-CE--NZ-[HZ2] |==|  0.76754
ROOT
ATOM      1  CA  LYS V 154      23.884  15.054 -65.024  1.00 29.23 LIG 0.18  C 
ENDROOT
BRANCH 1 2
ATOM      2  N   LYS V 154      24.428  16.387 -65.319  1.00 29.36 LIG-0.35  N 
ATOM      3 H    LYS V 154      25.280  16.399 -65.436  1.00 29.36 LIG 0.16  HD
ATOM      4  C   ARG V 153      23.656  17.473 -65.396  1.00 28.75 LIG 0.24  C 
ATOM      5 O    ARG V 153      22.432  17.437 -65.388  1.00 27.33 LIG-0.27  OA
BRANCH 4 6
ATOM      6  CA  ARG V 153      24.376  18.810 -65.450  1.00 29.80 LIG 0.18  C 
BRANCH 6 7
ATOM      7  N   ARG V 153      23.462  19.937 -65.653  1.00 31.02 LIG-0.35  N 
ATOM      8 H    ARG V 153      23.611  20.376 -66.377  1.00 31.02 LIG 0.16  HD
ATOM      9  C   ARG V 152      22.488  20.254 -64.792  1.00 33.76 LIG 0.26  C 
ATOM     10 O    ARG V 152      22.267  19.627 -63.745  1.00 32.85 LIG-0.27  OA
BRANCH 9 11
ATOM     11  CA  ARG V 152      21.649  21.489 -65.169  1.00 35.90 LIG 0.40  C 
ATOM     12  N   ARG V 152      22.423  22.761 -65.027  1.00 37.25 LIG 0.61  N 
BRANCH 11 13
ATOM     13  CB  ARG V 152      21.098  21.377 -66.589  1.00 38.16 LIG 0.05  C 
BRANCH 13 14
ATOM     14  CG  ARG V 152      20.501  20.008 -66.879  1.00 40.06 LIG 0.02  C 
BRANCH 14 15
ATOM     15  CD  ARG V 152      19.010  19.949 -66.601  1.00 42.07 LIG 0.14  C 
BRANCH 15 16
ATOM     16  NE  ARG V 152      18.542  21.087 -65.804  1.00 44.48 LIG-0.23  N 
ATOM     17  CZ  ARG V 152      18.098  21.029 -64.547  1.00 45.58 LIG 0.67  C 
ATOM     18  NH1 ARG V 152      18.047  19.880 -63.876  1.00 44.25 LIG-0.23  N 
ATOM     19  NH2 ARG V 152      17.697  22.144 -63.948  1.00 47.95 LIG-0.23  N 
ATOM     20 1HH1 ARG V 152      18.304  19.150 -64.252  1.00 44.25 LIG 0.17  HD
ATOM     21 2HH1 ARG V 152      17.758  19.867 -63.066  1.00 44.25 LIG 0.17  HD
ATOM     22 2HH2 ARG V 152      17.410  22.117 -63.138  1.00 47.95 LIG 0.17  HD
ATOM     23 1HH2 ARG V 152      17.724  22.893 -64.371  1.00 47.95 LIG 0.17  HD
ATOM     24 HE   ARG V 152      18.554  21.860 -66.180  1.00 44.48 LIG 0.18  HD
ENDBRANCH 15 16
ENDBRANCH 14 15
ENDBRANCH 13 14
ENDBRANCH 11 13
ENDBRANCH 9 11
ENDBRANCH 6 7
BRANCH 6 25
ATOM     25  CB  ARG V 153      25.165  18.966 -64.132  1.00 29.44 LIG 0.04  C 
BRANCH 25 26
ATOM     26  CG  ARG V 153      26.592  18.465 -64.215  1.00 30.46 LIG 0.02  C 
BRANCH 26 27
ATOM     27  CD  ARG V 153      27.624  19.545 -63.921  1.00 30.98 LIG 0.14  C 
BRANCH 27 28
ATOM     28  NE  ARG V 153      27.979  20.191 -65.174  1.00 31.91 LIG-0.23  N 
ATOM     29  CZ  ARG V 153      28.688  19.615 -66.141  1.00 32.21 LIG 0.67  C 
ATOM     30  NH2 ARG V 153      29.101  18.349 -66.049  1.00 31.04 LIG-0.23  N 
ATOM     31  NH1 ARG V 153      28.968  20.310 -67.227  1.00 34.14 LIG-0.23  N 
ATOM     32 2HH2 ARG V 153      29.558  17.999 -66.687  1.00 31.04 LIG 0.17  HD
ATOM     33 1HH2 ARG V 153      28.909  17.884 -65.352  1.00 31.04 LIG 0.17  HD
ATOM     34 2HH1 ARG V 153      29.426  19.952 -67.862  1.00 34.14 LIG 0.17  HD
ATOM     35 1HH1 ARG V 153      28.693  21.122 -67.302  1.00 34.14 LIG 0.17  HD
ATOM     36 HE   ARG V 153      27.713  20.998 -65.298  1.00 31.91 LIG 0.18  HD
ENDBRANCH 27 28
ENDBRANCH 26 27
ENDBRANCH 25 26
ENDBRANCH 6 25
ENDBRANCH 4 6
ENDBRANCH 1 2
BRANCH 1 37
ATOM     37  C   LYS V 154      22.805  14.610 -66.024  1.00 29.43 LIG 0.24  C 
ATOM     38 O    LYS V 154      21.602  14.687 -65.761  1.00 29.02 LIG-0.27  OA
ATOM     39  N   LEU V 155      23.267  14.099 -67.157  1.00 29.02 LIG-0.35  N 
ATOM     40 H    LEU V 155      24.104  14.068 -67.356  1.00 29.02 LIG 0.16  HD
BRANCH 39 41
ATOM     41  CA  LEU V 155      22.396  13.538 -68.180  1.00 29.55 LIG 0.18  C 
BRANCH 41 42
ATOM     42  CB  LEU V 155      23.196  13.397 -69.474  1.00 29.70 LIG 0.04  C 
BRANCH 42 43
ATOM     43  CG  LEU V 155      23.577  14.732 -70.115  1.00 30.04 LIG-0.02  C 
ATOM     44  CD1 LEU V 155      25.061  15.046 -69.940  1.00 30.27 LIG 0.01  C 
ATOM     45  CD2 LEU V 155      23.192  14.695 -71.587  1.00 30.44 LIG 0.01  C 
ENDBRANCH 42 43
ENDBRANCH 41 42
BRANCH 41 46
ATOM     46  C   LEU V 155      21.841  12.163 -67.779  1.00 29.88 LIG 0.24  C 
ATOM     47  N   PRO V 156      20.752  11.709 -68.435  1.00 30.63 LIG-0.34  N 
ATOM     48  CD  PRO V 156      19.808  12.422 -69.317  1.00 31.41 LIG 0.13  C 
ATOM     49  CA  PRO V 156      20.326  10.343 -68.172  1.00 30.89 LIG 0.18  C 
ATOM     50  CG  PRO V 156      18.934  11.321 -69.863  1.00 32.36 LIG 0.02  C 
ATOM     51  CB  PRO V 156      18.923  10.283 -68.792  1.00 32.27 LIG 0.04  C 
ATOM     52 O    LEU V 155      22.386  11.517 -66.880  1.00 29.02 LIG-0.27  OA
BRANCH 49 53
ATOM     53  C   PRO V 156      21.259   9.336 -68.834  1.00 31.44 LIG 0.24  C 
ATOM     54 O    PRO V 156      22.419   9.647 -69.106  1.00 31.00 LIG-0.27  OA
ATOM     55  N   GLU V 157      20.750   8.127 -69.058  1.00 32.40 LIG-0.35  N 
ATOM     56 H    GLU V 157      19.995   7.864 -68.741  1.00 32.40 LIG 0.16  HD
BRANCH 55 57
ATOM     57  CA  GLU V 157      21.436   7.123 -69.874  1.00 33.20 LIG 0.18  C 
BRANCH 57 58
ATOM     58  C   GLU V 157      21.812   7.718 -71.224  1.00 33.95 LIG 0.24  C 
ATOM     59 O    GLU V 157      21.168   8.651 -71.691  1.00 33.71 LIG-0.27  OA
ATOM     60  N   ILE V 158      22.842   7.160 -71.846  1.00 34.74 LIG-0.35  N 
ATOM     61 H    ILE V 158      23.302   6.511 -71.519  1.00 34.74 LIG 0.16  HD
BRANCH 60 62
ATOM     62  CA  ILE V 158      23.292   7.604 -73.163  1.00 36.41 LIG 0.17  C 
BRANCH 62 63
ATOM     63  C   ILE V 158      22.649   6.722 -74.242  1.00 36.37 LIG 0.22  C 
ATOM     64 O    ILE V 158      21.948   7.194 -75.137  1.00 37.57 LIG-0.29  OA
ENDBRANCH 62 63
BRANCH 62 65
ATOM     65  CB  ILE V 158      24.834   7.584 -73.248  1.00 38.09 LIG 0.01  C 
ATOM     66  CG2 ILE V 158      25.313   8.354 -74.469  1.00 39.83 LIG 0.01  C 
BRANCH 65 67
ATOM     67  CG1 ILE V 158      25.449   8.195 -71.981  1.00 37.40 LIG 0.00  C 
ATOM     68  CD1 ILE V 158      26.866   8.690 -72.164  1.00 39.06 LIG 0.01  C 
ENDBRANCH 65 67
ENDBRANCH 62 65
ENDBRANCH 60 62
ENDBRANCH 57 58
BRANCH 57 69
ATOM     69  CB  GLU V 157      20.522   5.913 -70.123  1.00 33.67 LIG 0.04  C 
BRANCH 69 70
ATOM     70  CG  GLU V 157      19.443   6.131 -71.171  1.00 33.36 LIG 0.12  C 
BRANCH 70 71
ATOM     71  CD  GLU V 157      19.433   5.058 -72.242  1.00 33.78 LIG 0.17  C 
ATOM     72 OE2  GLU V 157      20.188   5.187 -73.231  1.00 33.85 LIG-0.65  OA
ATOM     73 OE1  GLU V 157      18.673   4.077 -72.090  1.00 33.73 LIG-0.65  OA
ENDBRANCH 70 71
ENDBRANCH 69 70
ENDBRANCH 57 69
ENDBRANCH 55 57
ENDBRANCH 49 53
ENDBRANCH 41 46
ENDBRANCH 39 41
ENDBRANCH 1 37
BRANCH 1 74
ATOM     74  CB  LYS V 154      23.273  15.002 -63.626  1.00 30.73 LIG 0.04  C 
BRANCH 74 75
ATOM     75  CG  LYS V 154      24.259  14.773 -62.483  1.00 31.37 LIG 0.00  C 
BRANCH 75 76
ATOM     76  CD  LYS V 154      23.537  14.580 -61.154  1.00 32.31 LIG 0.03  C 
BRANCH 76 77
ATOM     77  CE  LYS V 154      23.481  15.866 -60.342  1.00 33.00 LIG 0.23  C 
BRANCH 77 78
ATOM     78  NZ  LYS V 154      22.109  16.194 -59.883  1.00 34.35 LIG-0.08  N 
ATOM     79 HZ3  LYS V 154      21.677  15.443 -59.678  1.00 34.35 LIG 0.27  HD
ATOM     80 HZ2  LYS V 154      21.672  16.619 -60.532  1.00 34.35 LIG 0.27  HD
ATOM     81 HZ1  LYS V 154      22.153  16.716 -59.164  1.00 34.35 LIG 0.27  HD
ENDBRANCH 77 78
ENDBRANCH 76 77
ENDBRANCH 75 76
ENDBRANCH 74 75
ENDBRANCH 1 74
TORSDOF 32
ENDMDL
MODEL 18
USER: ADFR SOLUTION from run 178
USER: SCORE 25.330345 LL:  -4.234 LR: -21.604 RR:   0.000 FEB: -12.058
USER: RMSD 5.688695
USER: SEED 177
USER: STATUS searching
USER: GENES 34
USER: genes 0 Translation |==|  0.49645 0.69916 0.50615
USER: genes 1 Rotation |==|  0.46163 0.08297 0.23356 0.56021
USER: genes 2 Torsion [C]-CA--N-[C] |==|  0.64458
USER: genes 3 Torsion [N]-C--CA-[N] |==|  0.90223
USER: genes 4 Torsion [C]-CA--N-[C] |==|  0.80616
USER: genes 5 Torsion [N]-C--CA-[N] |==|  0.86666
USER: genes 6 Torsion [C]-CA--CB-[CG] |==|  0.70101
USER: genes 7 Torsion [CA]-CB--CG-[CD] |==|  0.27278
USER: genes 8 Torsion [CB]-CG--CD-[NE] |==|  0.72940
USER: genes 9 Torsion [CG]-CD--NE-[HE] |==|  0.04315
USER: genes 10 Torsion [C]-CA--CB-[CG] |==|  0.06704
USER: genes 11 Torsion [CA]-CB--CG-[CD] |==|  0.65030
USER: genes 12 Torsion [CB]-CG--CD-[NE] |==|  0.16841
USER: genes 13 Torsion [CG]-CD--NE-[CZ] |==|  0.49738
USER: genes 14 Torsion [N]-CA--C-[N] |==|  0.36677
USER: genes 15 Torsion [C]-N--CA-[C] |==|  0.73344
USER: genes 16 Torsion [N]-CA--CB-[CG] |==|  0.88400
USER: genes 17 Torsion [CA]-CB--CG-[CD2] |==|  0.77588
USER: genes 18 Torsion [N]-CA--C-[N] |==|  0.34750
USER: genes 19 Torsion [N]-CA--C-[O] |==|  0.79550
USER: genes 20 Torsion [C]-N--CA-[CB] |==|  0.53912
USER: genes 21 Torsion [N]-CA--C-[N] |==|  0.44531
USER: genes 22 Torsion [C]-N--CA-[CB] |==|  0.50430
USER: genes 23 Torsion [N]-CA--C-[O] |==|  0.25734
USER: genes 24 Torsion [N]-CA--CB-[CG2] |==|  0.87131
USER: genes 25 Torsion [CA]-CB--CG1-[CD1] |==|  0.67775
USER: genes 26 Torsion [N]-CA--CB-[CG] |==|  0.53037
USER: genes 27 Torsion [CA]-CB--CG-[CD] |==|  0.70193
USER: genes 28 Torsion [CB]-CG--CD-[OE2] |==|  0.53745
USER: genes 29 Torsion [N]-CA--CB-[CG] |==|  0.81846
USER: genes 30 Torsion [CA]-CB--CG-[CD] |==|  0.86920
USER: genes 31 Torsion [CB]-CG--CD-[CE] |==|  0.64216
USER: genes 32 Torsion [CG]-CD--CE-[NZ] |==|  0.42014
USER: genes 33 Torsion [CD]-CE--NZ-[HZ2] |==|  0.42925
ROOT
ATOM      1  CA  LYS V 154      22.361  19.395 -64.852  1.00 29.23 LIG 0.18  C 
ENDROOT
BRANCH 1 2
ATOM      2  N   LYS V 154      23.204  20.517 -64.417  1.00 29.36 LIG-0.35  N 
ATOM      3 H    LYS V 154      23.792  20.758 -64.996  1.00 29.36 LIG 0.16  HD
ATOM      4  C   ARG V 153      23.059  21.102 -63.226  1.00 28.75 LIG 0.24  C 
ATOM      5 O    ARG V 153      22.127  20.870 -62.466  1.00 27.33 LIG-0.27  OA
BRANCH 4 6
ATOM      6  CA  ARG V 153      24.155  22.067 -62.810  1.00 29.80 LIG 0.18  C 
BRANCH 6 7
ATOM      7  N   ARG V 153      25.482  21.649 -63.269  1.00 31.02 LIG-0.35  N 
ATOM      8 H    ARG V 153      25.807  22.151 -63.888  1.00 31.02 LIG 0.16  HD
ATOM      9  C   ARG V 152      26.127  20.586 -62.774  1.00 33.76 LIG 0.26  C 
ATOM     10 O    ARG V 152      25.665  19.858 -61.883  1.00 32.85 LIG-0.27  OA
BRANCH 9 11
ATOM     11  CA  ARG V 152      27.502  20.294 -63.404  1.00 35.90 LIG 0.40  C 
ATOM     12  N   ARG V 152      27.452  20.318 -64.899  1.00 37.25 LIG 0.61  N 
BRANCH 11 13
ATOM     13  CB  ARG V 152      28.563  21.275 -62.908  1.00 38.16 LIG 0.05  C 
BRANCH 13 14
ATOM     14  CG  ARG V 152      28.973  22.282 -63.971  1.00 40.06 LIG 0.02  C 
BRANCH 14 15
ATOM     15  CD  ARG V 152      28.261  23.614 -63.820  1.00 42.07 LIG 0.14  C 
BRANCH 15 16
ATOM     16  NE  ARG V 152      27.095  23.732 -64.699  1.00 44.48 LIG-0.23  N 
ATOM     17  CZ  ARG V 152      26.457  24.864 -65.002  1.00 45.58 LIG 0.67  C 
ATOM     18  NH1 ARG V 152      26.848  26.039 -64.514  1.00 44.25 LIG-0.23  N 
ATOM     19  NH2 ARG V 152      25.404  24.819 -65.811  1.00 47.95 LIG-0.23  N 
ATOM     20 1HH1 ARG V 152      27.528  26.082 -63.989  1.00 44.25 LIG 0.17  HD
ATOM     21 2HH1 ARG V 152      26.421  26.755 -64.724  1.00 44.25 LIG 0.17  HD
ATOM     22 2HH2 ARG V 152      24.986  25.543 -66.013  1.00 47.95 LIG 0.17  HD
ATOM     23 1HH2 ARG V 152      25.140  24.066 -66.132  1.00 47.95 LIG 0.17  HD
ATOM     24 HE   ARG V 152      26.795  23.006 -65.051  1.00 44.48 LIG 0.18  HD
ENDBRANCH 15 16
ENDBRANCH 14 15
ENDBRANCH 13 14
ENDBRANCH 11 13
ENDBRANCH 9 11
ENDBRANCH 6 7
BRANCH 6 25
ATOM     25  CB  ARG V 153      23.787  23.458 -63.370  1.00 29.44 LIG 0.04  C 
BRANCH 25 26
ATOM     26  CG  ARG V 153      22.306  23.640 -63.622  1.00 30.46 LIG 0.02  C 
BRANCH 26 27
ATOM     27  CD  ARG V 153      21.989  24.086 -65.043  1.00 30.98 LIG 0.14  C 
BRANCH 27 28
ATOM     28  NE  ARG V 153      22.471  23.066 -65.960  1.00 31.91 LIG-0.23  N 
ATOM     29  CZ  ARG V 153      22.343  23.125 -67.282  1.00 32.21 LIG 0.67  C 
ATOM     30  NH2 ARG V 153      21.786  24.176 -67.886  1.00 31.04 LIG-0.23  N 
ATOM     31  NH1 ARG V 153      22.803  22.126 -68.013  1.00 34.14 LIG-0.23  N 
ATOM     32 2HH2 ARG V 153      21.714  24.191 -68.743  1.00 31.04 LIG 0.17  HD
ATOM     33 1HH2 ARG V 153      21.498  24.838 -67.419  1.00 31.04 LIG 0.17  HD
ATOM     34 2HH1 ARG V 153      22.727  22.150 -68.870  1.00 34.14 LIG 0.17  HD
ATOM     35 1HH1 ARG V 153      23.178  21.452 -67.633  1.00 34.14 LIG 0.17  HD
ATOM     36 HE   ARG V 153      22.866  22.380 -65.625  1.00 31.91 LIG 0.18  HD
ENDBRANCH 27 28
ENDBRANCH 26 27
ENDBRANCH 25 26
ENDBRANCH 6 25
ENDBRANCH 4 6
ENDBRANCH 1 2
BRANCH 1 37
ATOM     37  C   LYS V 154      23.175  18.187 -65.343  1.00 29.43 LIG 0.24  C 
ATOM     38 O    LYS V 154      24.078  18.306 -66.176  1.00 29.02 LIG-0.27  OA
ATOM     39  N   LEU V 155      22.801  17.018 -64.843  1.00 29.02 LIG-0.35  N 
ATOM     40 H    LEU V 155      22.191  16.934 -64.242  1.00 29.02 LIG 0.16  HD
BRANCH 39 41
ATOM     41  CA  LEU V 155      23.392  15.756 -65.266  1.00 29.55 LIG 0.18  C 
BRANCH 41 42
ATOM     42  CB  LEU V 155      23.495  14.837 -64.050  1.00 29.70 LIG 0.04  C 
BRANCH 42 43
ATOM     43  CG  LEU V 155      23.963  15.544 -62.778  1.00 30.04 LIG-0.02  C 
ATOM     44  CD1 LEU V 155      23.513  14.809 -61.517  1.00 30.27 LIG 0.01  C 
ATOM     45  CD2 LEU V 155      25.478  15.680 -62.824  1.00 30.44 LIG 0.01  C 
ENDBRANCH 42 43
ENDBRANCH 41 42
BRANCH 41 46
ATOM     46  C   LEU V 155      22.558  15.061 -66.353  1.00 29.88 LIG 0.24  C 
ATOM     47  N   PRO V 156      23.179  14.730 -67.505  1.00 30.63 LIG-0.34  N 
ATOM     48  CD  PRO V 156      24.488  15.157 -68.037  1.00 31.41 LIG 0.13  C 
ATOM     49  CA  PRO V 156      22.436  13.928 -68.466  1.00 30.89 LIG 0.18  C 
ATOM     50  CG  PRO V 156      24.668  14.299 -69.264  1.00 32.36 LIG 0.02  C 
ATOM     51  CB  PRO V 156      23.281  14.032 -69.743  1.00 32.27 LIG 0.04  C 
ATOM     52 O    LEU V 155      21.363  14.829 -66.158  1.00 29.02 LIG-0.27  OA
BRANCH 49 53
ATOM     53  C   PRO V 156      22.321  12.480 -68.005  1.00 31.44 LIG 0.24  C 
ATOM     54 O    PRO V 156      23.298  11.732 -68.054  1.00 31.00 LIG-0.27  OA
ATOM     55  N   GLU V 157      21.133  12.110 -67.532  1.00 32.40 LIG-0.35  N 
ATOM     56 H    GLU V 157      20.497  12.663 -67.362  1.00 32.40 LIG 0.16  HD
BRANCH 55 57
ATOM     57  CA  GLU V 157      20.797  10.712 -67.255  1.00 33.20 LIG 0.18  C 
BRANCH 57 58
ATOM     58  C   GLU V 157      21.224   9.833 -68.422  1.00 33.95 LIG 0.24  C 
ATOM     59 O    GLU V 157      21.406  10.321 -69.532  1.00 33.71 LIG-0.27  OA
ATOM     60  N   ILE V 158      21.360   8.538 -68.165  1.00 34.74 LIG-0.35  N 
ATOM     61 H    ILE V 158      21.242   8.192 -67.386  1.00 34.74 LIG 0.16  HD
BRANCH 60 62
ATOM     62  CA  ILE V 158      21.729   7.572 -69.196  1.00 36.41 LIG 0.17  C 
BRANCH 62 63
ATOM     63  C   ILE V 158      20.742   7.681 -70.367  1.00 36.37 LIG 0.22  C 
ATOM     64 O    ILE V 158      20.960   8.408 -71.337  1.00 37.57 LIG-0.29  OA
ENDBRANCH 62 63
BRANCH 62 65
ATOM     65  CB  ILE V 158      21.774   6.142 -68.614  1.00 38.09 LIG 0.01  C 
ATOM     66  CG2 ILE V 158      22.529   6.126 -67.294  1.00 39.83 LIG 0.01  C 
BRANCH 65 67
ATOM     67  CG1 ILE V 158      20.352   5.605 -68.401  1.00 37.40 LIG 0.00  C 
ATOM     68  CD1 ILE V 158      20.007   5.340 -66.953  1.00 39.06 LIG 0.01  C 
ENDBRANCH 65 67
ENDBRANCH 62 65
ENDBRANCH 60 62
ENDBRANCH 57 58
BRANCH 57 69
ATOM     69  CB  GLU V 157      19.282  10.549 -67.060  1.00 33.67 LIG 0.04  C 
BRANCH 69 70
ATOM     70  CG  GLU V 157      18.850   9.197 -66.513  1.00 33.36 LIG 0.12  C 
BRANCH 70 71
ATOM     71  CD  GLU V 157      18.176   8.326 -67.554  1.00 33.78 LIG 0.17  C 
ATOM     72 OE2  GLU V 157      17.553   7.309 -67.177  1.00 33.85 LIG-0.65  OA
ATOM     73 OE1  GLU V 157      18.262   8.664 -68.755  1.00 33.73 LIG-0.65  OA
ENDBRANCH 70 71
ENDBRANCH 69 70
ENDBRANCH 57 69
ENDBRANCH 55 57
ENDBRANCH 49 53
ENDBRANCH 41 46
ENDBRANCH 39 41
ENDBRANCH 1 37
BRANCH 1 74
ATOM     74  CB  LYS V 154      21.421  19.813 -65.979  1.00 30.73 LIG 0.04  C 
BRANCH 74 75
ATOM     75  CG  LYS V 154      20.364  20.850 -65.606  1.00 31.37 LIG 0.00  C 
BRANCH 75 76
ATOM     76  CD  LYS V 154      19.664  20.486 -64.301  1.00 32.31 LIG 0.03  C 
BRANCH 76 77
ATOM     77  CE  LYS V 154      18.148  20.511 -64.440  1.00 33.00 LIG 0.23  C 
BRANCH 77 78
ATOM     78  NZ  LYS V 154      17.473  19.568 -63.514  1.00 34.35 LIG-0.08  N 
ATOM     79 HZ3  LYS V 154      17.440  18.759 -63.885  1.00 34.35 LIG 0.27  HD
ATOM     80 HZ2  LYS V 154      16.646  19.853 -63.351  1.00 34.35 LIG 0.27  HD
ATOM     81 HZ1  LYS V 154      17.928  19.525 -62.751  1.00 34.35 LIG 0.27  HD
ENDBRANCH 77 78
ENDBRANCH 76 77
ENDBRANCH 75 76
ENDBRANCH 74 75
ENDBRANCH 1 74
TORSDOF 32
ENDMDL
MODEL 19
USER: ADFR SOLUTION from run 116
USER: SCORE 24.511016 LL:  -4.134 LR: -21.551 RR:   0.000 FEB: -12.006
USER: RMSD 4.947833
USER: SEED 115
USER: STATUS searching
USER: GENES 34
USER: genes 0 Translation |==|  0.60730 0.56652 0.49866
USER: genes 1 Rotation |==|  0.43837 0.48504 0.36670 0.97771
USER: genes 2 Torsion [C]-CA--N-[C] |==|  0.82761
USER: genes 3 Torsion [N]-C--CA-[N] |==|  0.68309
USER: genes 4 Torsion [C]-CA--N-[C] |==|  0.12889
USER: genes 5 Torsion [N]-C--CA-[N] |==|  0.60194
USER: genes 6 Torsion [C]-CA--CB-[CG] |==|  0.27626
USER: genes 7 Torsion [CA]-CB--CG-[CD] |==|  0.52180
USER: genes 8 Torsion [CB]-CG--CD-[NE] |==|  0.22155
USER: genes 9 Torsion [CG]-CD--NE-[HE] |==|  0.86544
USER: genes 10 Torsion [C]-CA--CB-[CG] |==|  0.54206
USER: genes 11 Torsion [CA]-CB--CG-[CD] |==|  0.72692
USER: genes 12 Torsion [CB]-CG--CD-[NE] |==|  0.16220
USER: genes 13 Torsion [CG]-CD--NE-[CZ] |==|  0.62619
USER: genes 14 Torsion [N]-CA--C-[N] |==|  0.36667
USER: genes 15 Torsion [C]-N--CA-[C] |==|  0.76813
USER: genes 16 Torsion [N]-CA--CB-[CG] |==|  0.81404
USER: genes 17 Torsion [CA]-CB--CG-[CD2] |==|  0.63648
USER: genes 18 Torsion [N]-CA--C-[N] |==|  0.45554
USER: genes 19 Torsion [N]-CA--C-[O] |==|  0.04908
USER: genes 20 Torsion [C]-N--CA-[CB] |==|  0.51277
USER: genes 21 Torsion [N]-CA--C-[N] |==|  0.45831
USER: genes 22 Torsion [C]-N--CA-[CB] |==|  0.44124
USER: genes 23 Torsion [N]-CA--C-[O] |==|  0.10652
USER: genes 24 Torsion [N]-CA--CB-[CG2] |==|  0.51507
USER: genes 25 Torsion [CA]-CB--CG1-[CD1] |==|  0.76987
USER: genes 26 Torsion [N]-CA--CB-[CG] |==|  0.15444
USER: genes 27 Torsion [CA]-CB--CG-[CD] |==|  0.74738
USER: genes 28 Torsion [CB]-CG--CD-[OE2] |==|  0.77320
USER: genes 29 Torsion [N]-CA--CB-[CG] |==|  0.13760
USER: genes 30 Torsion [CA]-CB--CG-[CD] |==|  0.71132
USER: genes 31 Torsion [CB]-CG--CD-[CE] |==|  0.59730
USER: genes 32 Torsion [CG]-CD--CE-[NZ] |==|  0.73199
USER: genes 33 Torsion [CD]-CE--NZ-[HZ2] |==|  0.69347
ROOT
ATOM      1  CA  LYS V 154      24.440  15.515 -65.048  1.00 29.23 LIG 0.18  C 
ENDROOT
BRANCH 1 2
ATOM      2  N   LYS V 154      24.410  16.928 -64.647  1.00 29.36 LIG-0.35  N 
ATOM      3 H    LYS V 154      24.331  17.050 -63.800  1.00 29.36 LIG 0.16  HD
ATOM      4  C   ARG V 153      24.498  17.925 -65.531  1.00 28.75 LIG 0.24  C 
ATOM      5 O    ARG V 153      24.769  17.759 -66.715  1.00 27.33 LIG-0.27  OA
BRANCH 4 6
ATOM      6  CA  ARG V 153      24.196  19.318 -65.009  1.00 29.80 LIG 0.18  C 
BRANCH 6 7
ATOM      7  N   ARG V 153      22.989  19.896 -65.605  1.00 31.02 LIG-0.35  N 
ATOM      8 H    ARG V 153      23.089  20.709 -65.869  1.00 31.02 LIG 0.16  HD
ATOM      9  C   ARG V 152      21.838  19.224 -65.726  1.00 33.76 LIG 0.26  C 
ATOM     10 O    ARG V 152      21.685  18.053 -65.347  1.00 32.85 LIG-0.27  OA
BRANCH 9 11
ATOM     11  CA  ARG V 152      20.675  20.012 -66.356  1.00 35.90 LIG 0.40  C 
ATOM     12  N   ARG V 152      19.360  19.672 -65.731  1.00 37.25 LIG 0.61  N 
BRANCH 11 13
ATOM     13  CB  ARG V 152      20.911  21.519 -66.273  1.00 38.16 LIG 0.05  C 
BRANCH 13 14
ATOM     14  CG  ARG V 152      21.443  22.101 -67.574  1.00 40.06 LIG 0.02  C 
BRANCH 14 15
ATOM     15  CD  ARG V 152      21.857  23.555 -67.437  1.00 42.07 LIG 0.14  C 
BRANCH 15 16
ATOM     16  NE  ARG V 152      23.178  23.708 -66.822  1.00 44.48 LIG-0.23  N 
ATOM     17  CZ  ARG V 152      24.169  24.474 -67.282  1.00 45.58 LIG 0.67  C 
ATOM     18  NH1 ARG V 152      24.034  25.204 -68.388  1.00 44.25 LIG-0.23  N 
ATOM     19  NH2 ARG V 152      25.321  24.511 -66.622  1.00 47.95 LIG-0.23  N 
ATOM     20 1HH1 ARG V 152      23.293  25.189 -68.824  1.00 44.25 LIG 0.17  HD
ATOM     21 2HH1 ARG V 152      24.687  25.690 -68.665  1.00 44.25 LIG 0.17  HD
ATOM     22 2HH2 ARG V 152      25.966  25.001 -66.910  1.00 47.95 LIG 0.17  HD
ATOM     23 1HH2 ARG V 152      25.422  24.044 -65.907  1.00 47.95 LIG 0.17  HD
ATOM     24 HE   ARG V 152      23.328  23.265 -66.100  1.00 44.48 LIG 0.18  HD
ENDBRANCH 15 16
ENDBRANCH 14 15
ENDBRANCH 13 14
ENDBRANCH 11 13
ENDBRANCH 9 11
ENDBRANCH 6 7
BRANCH 6 25
ATOM     25  CB  ARG V 153      24.065  19.221 -63.474  1.00 29.44 LIG 0.04  C 
BRANCH 25 26
ATOM     26  CG  ARG V 153      23.415  20.433 -62.841  1.00 30.46 LIG 0.02  C 
BRANCH 26 27
ATOM     27  CD  ARG V 153      24.420  21.421 -62.265  1.00 30.98 LIG 0.14  C 
BRANCH 27 28
ATOM     28  NE  ARG V 153      25.306  21.849 -63.335  1.00 31.91 LIG-0.23  N 
ATOM     29  CZ  ARG V 153      26.629  21.931 -63.227  1.00 32.21 LIG 0.67  C 
ATOM     30  NH2 ARG V 153      27.264  21.573 -62.110  1.00 31.04 LIG-0.23  N 
ATOM     31  NH1 ARG V 153      27.328  22.356 -64.263  1.00 34.14 LIG-0.23  N 
ATOM     32 2HH2 ARG V 153      28.121  21.636 -62.064  1.00 31.04 LIG 0.17  HD
ATOM     33 1HH2 ARG V 153      26.818  21.281 -61.436  1.00 31.04 LIG 0.17  HD
ATOM     34 2HH1 ARG V 153      28.185  22.414 -64.209  1.00 34.14 LIG 0.17  HD
ATOM     35 1HH1 ARG V 153      26.928  22.574 -64.992  1.00 34.14 LIG 0.17  HD
ATOM     36 HE   ARG V 153      24.951  22.064 -64.088  1.00 31.91 LIG 0.18  HD
ENDBRANCH 27 28
ENDBRANCH 26 27
ENDBRANCH 25 26
ENDBRANCH 6 25
ENDBRANCH 4 6
ENDBRANCH 1 2
BRANCH 1 37
ATOM     37  C   LYS V 154      23.269  15.124 -65.963  1.00 29.43 LIG 0.24  C 
ATOM     38 O    LYS V 154      22.100  15.394 -65.676  1.00 29.02 LIG-0.27  OA
ATOM     39  N   LEU V 155      23.609  14.442 -67.048  1.00 29.02 LIG-0.35  N 
ATOM     40 H    LEU V 155      24.424  14.276 -67.267  1.00 29.02 LIG 0.16  HD
BRANCH 39 41
ATOM     41  CA  LEU V 155      22.627  13.905 -67.980  1.00 29.55 LIG 0.18  C 
BRANCH 41 42
ATOM     42  CB  LEU V 155      23.294  13.734 -69.344  1.00 29.70 LIG 0.04  C 
BRANCH 42 43
ATOM     43  CG  LEU V 155      23.685  15.053 -70.011  1.00 30.04 LIG-0.02  C 
ATOM     44  CD1 LEU V 155      25.193  15.294 -69.960  1.00 30.27 LIG 0.01  C 
ATOM     45  CD2 LEU V 155      23.178  15.044 -71.446  1.00 30.44 LIG 0.01  C 
ENDBRANCH 42 43
ENDBRANCH 41 42
BRANCH 41 46
ATOM     46  C   LEU V 155      22.070  12.550 -67.519  1.00 29.88 LIG 0.24  C 
ATOM     47  N   PRO V 156      20.935  12.106 -68.100  1.00 30.63 LIG-0.34  N 
ATOM     48  CD  PRO V 156      19.954  12.822 -68.940  1.00 31.41 LIG 0.13  C 
ATOM     49  CA  PRO V 156      20.498  10.755 -67.785  1.00 30.89 LIG 0.18  C 
ATOM     50  CG  PRO V 156      19.027  11.729 -69.410  1.00 32.36 LIG 0.02  C 
ATOM     51  CB  PRO V 156      19.060  10.713 -68.319  1.00 32.27 LIG 0.04  C 
ATOM     52 O    LEU V 155      22.654  11.911 -66.641  1.00 29.02 LIG-0.27  OA
BRANCH 49 53
ATOM     53  C   PRO V 156      21.370   9.716 -68.480  1.00 31.44 LIG 0.24  C 
ATOM     54 O    PRO V 156      22.475  10.028 -68.925  1.00 31.00 LIG-0.27  OA
ATOM     55  N   GLU V 157      20.875   8.482 -68.538  1.00 32.40 LIG-0.35  N 
ATOM     56 H    GLU V 157      20.176   8.230 -68.105  1.00 32.40 LIG 0.16  HD
BRANCH 55 57
ATOM     57  CA  GLU V 157      21.482   7.428 -69.354  1.00 33.20 LIG 0.18  C 
BRANCH 57 58
ATOM     58  C   GLU V 157      21.580   7.884 -70.803  1.00 33.95 LIG 0.24  C 
ATOM     59 O    GLU V 157      20.931   8.848 -71.195  1.00 33.71 LIG-0.27  OA
ATOM     60  N   ILE V 158      22.377   7.173 -71.591  1.00 34.74 LIG-0.35  N 
ATOM     61 H    ILE V 158      22.840   6.501 -71.319  1.00 34.74 LIG 0.16  HD
BRANCH 60 62
ATOM     62  CA  ILE V 158      22.539   7.473 -73.011  1.00 36.41 LIG 0.17  C 
BRANCH 62 63
ATOM     63  C   ILE V 158      21.320   6.948 -73.782  1.00 36.37 LIG 0.22  C 
ATOM     64 O    ILE V 158      20.179   7.018 -73.322  1.00 37.57 LIG-0.29  OA
ENDBRANCH 62 63
BRANCH 62 65
ATOM     65  CB  ILE V 158      23.859   6.874 -73.547  1.00 38.09 LIG 0.01  C 
ATOM     66  CG2 ILE V 158      24.093   7.299 -74.988  1.00 39.83 LIG 0.01  C 
BRANCH 65 67
ATOM     67  CG1 ILE V 158      25.043   7.324 -72.679  1.00 37.40 LIG 0.00  C 
ATOM     68  CD1 ILE V 158      25.580   8.691 -73.035  1.00 39.06 LIG 0.01  C 
ENDBRANCH 65 67
ENDBRANCH 62 65
ENDBRANCH 60 62
ENDBRANCH 57 58
BRANCH 57 69
ATOM     69  CB  GLU V 157      20.628   6.151 -69.309  1.00 33.67 LIG 0.04  C 
BRANCH 69 70
ATOM     70  CG  GLU V 157      19.177   6.338 -69.723  1.00 33.36 LIG 0.12  C 
BRANCH 70 71
ATOM     71  CD  GLU V 157      18.266   6.664 -68.556  1.00 33.78 LIG 0.17  C 
ATOM     72 OE2  GLU V 157      17.849   5.728 -67.838  1.00 33.85 LIG-0.65  OA
ATOM     73 OE1  GLU V 157      17.974   7.862 -68.349  1.00 33.73 LIG-0.65  OA
ENDBRANCH 70 71
ENDBRANCH 69 70
ENDBRANCH 57 69
ENDBRANCH 55 57
ENDBRANCH 49 53
ENDBRANCH 41 46
ENDBRANCH 39 41
ENDBRANCH 1 37
BRANCH 1 74
ATOM     74  CB  LYS V 154      24.406  14.593 -63.831  1.00 30.73 LIG 0.04  C 
BRANCH 74 75
ATOM     75  CG  LYS V 154      23.317  14.897 -62.805  1.00 31.37 LIG 0.00  C 
BRANCH 75 76
ATOM     76  CD  LYS V 154      23.889  15.593 -61.575  1.00 32.31 LIG 0.03  C 
BRANCH 76 77
ATOM     77  CE  LYS V 154      23.175  15.174 -60.297  1.00 33.00 LIG 0.23  C 
BRANCH 77 78
ATOM     78  NZ  LYS V 154      22.111  16.128 -59.898  1.00 34.35 LIG-0.08  N 
ATOM     79 HZ3  LYS V 154      21.977  16.715 -60.553  1.00 34.35 LIG 0.27  HD
ATOM     80 HZ2  LYS V 154      22.361  16.559 -59.160  1.00 34.35 LIG 0.27  HD
ATOM     81 HZ1  LYS V 154      21.357  15.683 -59.740  1.00 34.35 LIG 0.27  HD
ENDBRANCH 77 78
ENDBRANCH 76 77
ENDBRANCH 75 76
ENDBRANCH 74 75
ENDBRANCH 1 74
TORSDOF 32
ENDMDL
