MODEL 1
USER: ADFR SOLUTION from run 145
USER: SCORE 24.524059 LL:  -5.062 LR: -21.921 RR:   0.000 FEB: -12.972
USER: RMSD 3.342516
USER: SEED 144
USER: STATUS searching
USER: GENES 32
USER: genes 0 Translation |==|  0.43695 0.46179 0.48727
USER: genes 1 Rotation |==|  0.50629 0.50221 0.49312 0.99991
USER: genes 2 Torsion [C]-N--CA-[C] |==|  0.63899
USER: genes 3 Torsion [N]-CA--C-[N] |==|  0.40361
USER: genes 4 Torsion [C]-N--CA-[CB] |==|  0.21754
USER: genes 5 Torsion [N]-CA--C-[N] |==|  0.35559
USER: genes 6 Torsion [C]-N--CA-[CB] |==|  0.51290
USER: genes 7 Torsion [N]-CA--CB-[CG2] |==|  0.88453
USER: genes 8 Torsion [N]-CA--C-[N] |==|  0.80424
USER: genes 9 Torsion [C]-N--CA-[C] |==|  0.53423
USER: genes 10 Torsion [N]-CA--C-[OXT] |==|  0.01311
USER: genes 11 Torsion [N]-CA--CB-[CG] |==|  0.73033
USER: genes 12 Torsion [CA]-CB--CG-[SD] |==|  0.32732
USER: genes 13 Torsion [CB]-CG--SD-[CE] |==|  0.04037
USER: genes 14 Torsion [N]-CA--CB-[CG2] |==|  0.54845
USER: genes 15 Torsion [CA]-CB--OG1-[HG1] |==|  0.16766
USER: genes 16 Torsion [N]-CA--CB-[CG] |==|  0.47645
USER: genes 17 Torsion [CA]-CB--CG-[CD] |==|  0.43086
USER: genes 18 Torsion [CB]-CG--CD-[OE2] |==|  0.97522
USER: genes 19 Torsion [N]-C--CA-[N] |==|  0.35669
USER: genes 20 Torsion [C]-CA--CB-[CG] |==|  0.26996
USER: genes 21 Torsion [CA]-CB--CG-[CD1] |==|  0.96912
USER: genes 22 Torsion [C]-CA--N-[C] |==|  0.85320
USER: genes 23 Torsion [N]-C--CA-[N] |==|  0.35134
USER: genes 24 Torsion [C]-CA--N-[C] |==|  0.78694
USER: genes 25 Torsion [N]-C--CA-[N] |==|  0.35132
USER: genes 26 Torsion [C]-CA--CB-[CG] |==|  0.29634
USER: genes 27 Torsion [CA]-CB--CG-[CD] |==|  0.76767
USER: genes 28 Torsion [CB]-CG--CD-[OE2] |==|  0.96439
USER: genes 29 Torsion [C]-CA--CB-[CG] |==|  0.57471
USER: genes 30 Torsion [CA]-CB--CG-[CD] |==|  0.28140
USER: genes 31 Torsion [CB]-CG--CD-[OE2] |==|  0.69481
ROOT
ATOM      1  C   TRP B 589     -11.525   0.181 -12.504  1.00  8.59 LIG 0.24  C 
ATOM      2 O    TRP B 589     -10.966   0.551 -11.477  1.00  9.54 LIG-0.27  OA
ATOM      3  N   GLU B 590     -10.875  -0.313 -13.544  1.00  8.93 LIG-0.35  N 
ATOM      4 H    GLU B 590     -11.270  -0.581 -14.260  1.00  8.93 LIG 0.16  HD
ENDROOT
BRANCH 3 5
ATOM      5  CA  GLU B 590      -9.427  -0.458 -13.591  1.00  8.22 LIG 0.18  C 
BRANCH 5 6
ATOM      6  C   GLU B 590      -8.909   0.152 -14.885  1.00  8.58 LIG 0.24  C 
ATOM      7 O    GLU B 590      -9.574   0.077 -15.914  1.00 10.27 LIG-0.27  OA
ATOM      8  N   THR B 591      -7.724   0.750 -14.825  1.00  8.10 LIG-0.34  N 
ATOM      9 H    THR B 591      -7.249   0.784 -14.109  1.00  8.10 LIG 0.16  HD
BRANCH 8 10
ATOM     10  CA  THR B 591      -7.105   1.409 -15.971  1.00  8.42 LIG 0.20  C 
BRANCH 10 11
ATOM     11  C   THR B 591      -5.608   1.529 -15.725  1.00  8.31 LIG 0.24  C 
ATOM     12  N   VAL B 592      -4.826   1.071 -16.689  1.00  8.54 LIG-0.35  N 
ATOM     13 H    VAL B 592      -5.134   0.714 -17.408  1.00  8.54 LIG 0.16  HD
ATOM     14 O    THR B 591      -5.180   2.050 -14.687  1.00  8.65 LIG-0.27  OA
BRANCH 12 15
ATOM     15  CA  VAL B 592      -3.379   1.116 -16.647  1.00  9.13 LIG 0.18  C 
BRANCH 15 16
ATOM     16  CB  VAL B 592      -2.784   0.604 -17.982  1.00  9.93 LIG 0.01  C 
ATOM     17  CG2 VAL B 592      -3.547  -0.627 -18.479  1.00 10.24 LIG 0.01  C 
ATOM     18  CG1 VAL B 592      -1.313   0.301 -17.818  1.00 10.82 LIG 0.01  C 
ENDBRANCH 15 16
BRANCH 15 19
ATOM     19  C   VAL B 592      -2.942   2.544 -16.375  1.00  9.48 LIG 0.24  C 
ATOM     20 O    VAL B 592      -2.443   2.836 -15.291  1.00 10.72 LIG-0.27  OA
ATOM     21  N   MET B 593      -3.125   3.424 -17.360  1.00 10.11 LIG-0.34  N 
ATOM     22 H    MET B 593      -3.521   3.235 -18.099  1.00 10.11 LIG 0.16  HD
BRANCH 21 23
ATOM     23  CA  MET B 593      -2.659   4.810 -17.268  1.00 11.88 LIG 0.19  C 
BRANCH 23 24
ATOM     24  C   MET B 593      -3.221   5.719 -18.357  1.00 15.28 LIG 0.20  C 
ATOM     25 OXT  MET B 593      -4.056   5.270 -19.143  1.00 15.41 LIG-0.65  OA
ATOM     26 O    MET B 593      -2.934   6.920 -18.417  1.00 17.52 LIG-0.65  OA
ENDBRANCH 23 24
BRANCH 23 27
ATOM     27  CB  MET B 593      -1.139   4.867 -17.377  1.00 10.86 LIG 0.05  C 
BRANCH 27 28
ATOM     28  CG  MET B 593      -0.418   4.935 -16.052  1.00 11.31 LIG 0.08  C 
BRANCH 28 29
ATOM     29 SD   MET B 593       0.672   3.551 -15.698  1.00 11.06 LIG-0.17  SA
ATOM     30  CE  MET B 593       0.818   2.780 -17.306  1.00 12.56 LIG 0.09  C 
ENDBRANCH 28 29
ENDBRANCH 27 28
ENDBRANCH 23 27
ENDBRANCH 21 23
ENDBRANCH 15 19
ENDBRANCH 12 15
ENDBRANCH 10 11
BRANCH 10 31
ATOM     31  CB  THR B 591      -7.746   2.807 -16.199  1.00  8.77 LIG 0.15  C 
ATOM     32  CG2 THR B 591      -7.460   3.348 -17.586  1.00  9.88 LIG 0.04  C 
BRANCH 31 33
ATOM     33 OG1  THR B 591      -9.158   2.695 -16.007  1.00  9.65 LIG-0.39  OA
ATOM     34 HG1  THR B 591      -9.314   2.437 -15.223  1.00  9.65 LIG 0.21  HD
ENDBRANCH 31 33
ENDBRANCH 10 31
ENDBRANCH 8 10
ENDBRANCH 5 6
BRANCH 5 35
ATOM     35  CB  GLU B 590      -9.036  -1.937 -13.467  1.00  9.50 LIG 0.04  C 
BRANCH 35 36
ATOM     36  CG  GLU B 590      -7.565  -2.229 -13.705  1.00  9.44 LIG 0.12  C 
BRANCH 36 37
ATOM     37  CD  GLU B 590      -7.048  -3.492 -13.037  1.00 10.34 LIG 0.17  C 
ATOM     38 OE2  GLU B 590      -7.806  -4.070 -12.233  1.00  9.56 LIG-0.65  OA
ATOM     39 OE1  GLU B 590      -5.926  -3.935 -13.352  1.00 12.93 LIG-0.65  OA
ENDBRANCH 36 37
ENDBRANCH 35 36
ENDBRANCH 5 35
ENDBRANCH 3 5
BRANCH 1 40
ATOM     40  CA  TRP B 589     -13.025   0.309 -12.658  1.00 10.41 LIG 0.18  C 
BRANCH 40 41
ATOM     41  CB  TRP B 589     -13.370   1.792 -12.716  1.00 16.42 LIG 0.07  C 
BRANCH 41 42
ATOM     42  CG  TRP B 589     -13.539   2.342 -14.075  1.00 28.27 LIG-0.03  A 
ATOM     43  CD1 TRP B 589     -13.223   1.742 -15.256  1.00 31.36 LIG 0.10  A 
ATOM     44  NE1 TRP B 589     -13.532   2.573 -16.306  1.00 35.25 LIG-0.36  N 
ATOM     45 HE1  TRP B 589     -13.419   2.390 -17.139  1.00 35.25 LIG 0.17  HD
ATOM     46  CE2 TRP B 589     -14.050   3.740 -15.810  1.00 40.47 LIG 0.04  A 
ATOM     47  CD2 TRP B 589     -14.068   3.629 -14.406  1.00 37.76 LIG-0.00  A 
ATOM     48  CZ2 TRP B 589     -14.500   4.878 -16.475  1.00 47.06 LIG 0.03  A 
ATOM     49  CE3 TRP B 589     -14.556   4.700 -13.652  1.00 44.39 LIG 0.01  A 
ATOM     50  CZ3 TRP B 589     -15.004   5.830 -14.314  1.00 48.60 LIG 0.00  A 
ATOM     51  CH2 TRP B 589     -14.973   5.909 -15.710  1.00 49.92 LIG 0.00  A 
ENDBRANCH 41 42
ENDBRANCH 40 41
BRANCH 40 52
ATOM     52  N   TRP B 589     -13.674  -0.321 -11.530  1.00 10.46 LIG-0.35  N 
ATOM     53 H    TRP B 589     -14.239   0.191 -11.131  1.00 10.46 LIG 0.16  HD
ATOM     54  C   GLU B 588     -13.430  -1.558 -11.144  1.00 14.97 LIG 0.24  C 
ATOM     55 O    GLU B 588     -12.648  -2.316 -11.719  1.00 17.61 LIG-0.27  OA
BRANCH 54 56
ATOM     56  CA  GLU B 588     -14.211  -1.989  -9.913  1.00 18.53 LIG 0.18  C 
BRANCH 56 57
ATOM     57  N   GLU B 588     -14.947  -3.229 -10.151  1.00 19.74 LIG-0.35  N 
ATOM     58 H    GLU B 588     -14.580  -3.921  -9.796  1.00 19.74 LIG 0.16  HD
ATOM     59  C   GLU B 587     -16.083  -3.282 -10.854  1.00 22.74 LIG 0.26  C 
ATOM     60 O    GLU B 587     -16.623  -2.299 -11.352  1.00 21.09 LIG-0.27  OA
BRANCH 59 61
ATOM     61  CA  GLU B 587     -16.709  -4.659 -11.035  1.00 29.94 LIG 0.40  C 
ATOM     62  N   GLU B 587     -18.105  -4.636 -10.597  1.00 28.95 LIG 0.61  N 
BRANCH 61 63
ATOM     63  CB  GLU B 587     -16.614  -5.072 -12.507  1.00 39.60 LIG 0.06  C 
BRANCH 63 64
ATOM     64  CG  GLU B 587     -15.578  -6.153 -12.799  1.00 49.02 LIG 0.12  C 
BRANCH 64 65
ATOM     65  CD  GLU B 587     -14.179  -5.592 -12.973  1.00 58.19 LIG 0.17  C 
ATOM     66 OE2  GLU B 587     -14.042  -4.359 -13.109  1.00 61.83 LIG-0.65  OA
ATOM     67 OE1  GLU B 587     -13.214  -6.387 -12.977  1.00 60.20 LIG-0.65  OA
ENDBRANCH 64 65
ENDBRANCH 63 64
ENDBRANCH 61 63
ENDBRANCH 59 61
ENDBRANCH 56 57
BRANCH 56 68
ATOM     68  CB  GLU B 588     -13.270  -2.107  -8.704  1.00 23.70 LIG 0.04  C 
BRANCH 68 69
ATOM     69  CG  GLU B 588     -13.763  -3.111  -7.650  1.00 29.39 LIG 0.12  C 
BRANCH 69 70
ATOM     70  CD  GLU B 588     -13.060  -4.456  -7.702  1.00 34.84 LIG 0.17  C 
ATOM     71 OE2  GLU B 588     -13.715  -5.443  -8.102  1.00 36.82 LIG-0.65  OA
ATOM     72 OE1  GLU B 588     -11.864  -4.536  -7.352  1.00 37.43 LIG-0.65  OA
ENDBRANCH 69 70
ENDBRANCH 68 69
ENDBRANCH 56 68
ENDBRANCH 54 56
ENDBRANCH 40 52
ENDBRANCH 1 40
TORSDOF 30
ENDMDL
MODEL 2
USER: ADFR SOLUTION from run 19
USER: SCORE 25.233802 LL:  -5.473 LR: -21.856 RR:   0.000 FEB: -12.907
USER: RMSD 2.191671
USER: SEED 18
USER: STATUS no improvement in best in 2 clusters for 5 generations
USER: GENES 32
USER: genes 0 Translation |==|  0.43750 0.45582 0.49027
USER: genes 1 Rotation |==|  0.48515 0.51489 0.51315 0.99938
USER: genes 2 Torsion [C]-N--CA-[C] |==|  0.67275
USER: genes 3 Torsion [N]-CA--C-[N] |==|  0.43921
USER: genes 4 Torsion [C]-N--CA-[CB] |==|  0.20897
USER: genes 5 Torsion [N]-CA--C-[N] |==|  0.32185
USER: genes 6 Torsion [C]-N--CA-[CB] |==|  0.48986
USER: genes 7 Torsion [N]-CA--CB-[CG2] |==|  0.86082
USER: genes 8 Torsion [N]-CA--C-[N] |==|  0.39527
USER: genes 9 Torsion [C]-N--CA-[C] |==|  0.61866
USER: genes 10 Torsion [N]-CA--C-[OXT] |==|  0.89726
USER: genes 11 Torsion [N]-CA--CB-[CG] |==|  0.73231
USER: genes 12 Torsion [CA]-CB--CG-[SD] |==|  0.96786
USER: genes 13 Torsion [CB]-CG--SD-[CE] |==|  0.79198
USER: genes 14 Torsion [N]-CA--CB-[CG2] |==|  0.46798
USER: genes 15 Torsion [CA]-CB--OG1-[HG1] |==|  0.17046
USER: genes 16 Torsion [N]-CA--CB-[CG] |==|  0.54653
USER: genes 17 Torsion [CA]-CB--CG-[CD] |==|  0.44413
USER: genes 18 Torsion [CB]-CG--CD-[OE2] |==|  0.40689
USER: genes 19 Torsion [N]-C--CA-[N] |==|  0.37711
USER: genes 20 Torsion [C]-CA--CB-[CG] |==|  0.20567
USER: genes 21 Torsion [CA]-CB--CG-[CD1] |==|  0.00321
USER: genes 22 Torsion [C]-CA--N-[C] |==|  0.83261
USER: genes 23 Torsion [N]-C--CA-[N] |==|  0.10454
USER: genes 24 Torsion [C]-CA--N-[C] |==|  0.17778
USER: genes 25 Torsion [N]-C--CA-[N] |==|  0.72586
USER: genes 26 Torsion [C]-CA--CB-[CG] |==|  0.71819
USER: genes 27 Torsion [CA]-CB--CG-[CD] |==|  0.65482
USER: genes 28 Torsion [CB]-CG--CD-[OE2] |==|  0.39796
USER: genes 29 Torsion [C]-CA--CB-[CG] |==|  0.36546
USER: genes 30 Torsion [CA]-CB--CG-[CD] |==|  0.60603
USER: genes 31 Torsion [CB]-CG--CD-[OE2] |==|  0.84409
ROOT
ATOM      1  C   TRP B 589     -11.509   0.065 -12.439  1.00  8.59 LIG 0.24  C 
ATOM      2 O    TRP B 589     -10.934   0.564 -11.477  1.00  9.54 LIG-0.27  OA
ATOM      3  N   GLU B 590     -10.870  -0.464 -13.469  1.00  8.93 LIG-0.35  N 
ATOM      4 H    GLU B 590     -11.275  -0.822 -14.138  1.00  8.93 LIG 0.16  HD
ENDROOT
BRANCH 3 5
ATOM      5  CA  GLU B 590      -9.419  -0.498 -13.583  1.00  8.22 LIG 0.18  C 
BRANCH 5 6
ATOM      6  C   GLU B 590      -8.998   0.307 -14.804  1.00  8.58 LIG 0.24  C 
ATOM      7 O    GLU B 590      -9.794   0.509 -15.715  1.00 10.27 LIG-0.27  OA
ATOM      8  N   THR B 591      -7.748   0.756 -14.814  1.00  8.10 LIG-0.34  N 
ATOM      9 H    THR B 591      -7.184   0.596 -14.185  1.00  8.10 LIG 0.16  HD
BRANCH 8 10
ATOM     10  CA  THR B 591      -7.202   1.568 -15.898  1.00  8.42 LIG 0.20  C 
BRANCH 10 11
ATOM     11  C   THR B 591      -5.683   1.546 -15.817  1.00  8.31 LIG 0.24  C 
ATOM     12  N   VAL B 592      -5.058   0.983 -16.839  1.00  8.54 LIG-0.35  N 
ATOM     13 H    VAL B 592      -5.477   0.637 -17.506  1.00  8.54 LIG 0.16  HD
ATOM     14 O    THR B 591      -5.096   2.052 -14.852  1.00  8.65 LIG-0.27  OA
BRANCH 12 15
ATOM     15  CA  VAL B 592      -3.618   0.885 -16.952  1.00  9.13 LIG 0.18  C 
BRANCH 15 16
ATOM     16  CB  VAL B 592      -3.230   0.090 -18.224  1.00  9.93 LIG 0.01  C 
ATOM     17  CG2 VAL B 592      -4.001  -1.231 -18.294  1.00 10.24 LIG 0.01  C 
ATOM     18  CG1 VAL B 592      -1.738  -0.150 -18.257  1.00 10.82 LIG 0.01  C 
ENDBRANCH 15 16
BRANCH 15 19
ATOM     19  C   VAL B 592      -3.034   2.285 -16.993  1.00  9.48 LIG 0.24  C 
ATOM     20 O    VAL B 592      -3.626   3.179 -17.593  1.00 10.72 LIG-0.27  OA
ATOM     21  N   MET B 593      -1.879   2.470 -16.352  1.00 10.11 LIG-0.34  N 
ATOM     22 H    MET B 593      -1.436   1.836 -15.977  1.00 10.11 LIG 0.16  HD
BRANCH 21 23
ATOM     23  CA  MET B 593      -1.255   3.791 -16.229  1.00 11.88 LIG 0.19  C 
BRANCH 23 24
ATOM     24  C   MET B 593       0.253   3.779 -16.456  1.00 15.28 LIG 0.20  C 
ATOM     25 OXT  MET B 593       0.915   2.824 -16.050  1.00 15.41 LIG-0.65  OA
ATOM     26 O    MET B 593       0.819   4.655 -17.120  1.00 17.52 LIG-0.65  OA
ENDBRANCH 23 24
BRANCH 23 27
ATOM     27  CB  MET B 593      -1.494   4.362 -14.835  1.00 10.86 LIG 0.05  C 
BRANCH 27 28
ATOM     28  CG  MET B 593      -2.667   5.307 -14.738  1.00 11.31 LIG 0.08  C 
BRANCH 28 29
ATOM     29 SD   MET B 593      -3.359   5.838 -16.309  1.00 11.06 LIG-0.17  SA
ATOM     30  CE  MET B 593      -2.130   7.012 -16.871  1.00 12.56 LIG 0.09  C 
ENDBRANCH 28 29
ENDBRANCH 27 28
ENDBRANCH 23 27
ENDBRANCH 21 23
ENDBRANCH 15 19
ENDBRANCH 12 15
ENDBRANCH 10 11
BRANCH 10 31
ATOM     31  CB  THR B 591      -7.744   3.023 -15.806  1.00  8.77 LIG 0.15  C 
ATOM     32  CG2 THR B 591      -7.000   3.968 -16.729  1.00  9.88 LIG 0.04  C 
BRANCH 31 33
ATOM     33 OG1  THR B 591      -9.132   3.011 -16.144  1.00  9.65 LIG-0.39  OA
ATOM     34 HG1  THR B 591      -9.550   2.532 -15.596  1.00  9.65 LIG 0.21  HD
ENDBRANCH 31 33
ENDBRANCH 10 31
ENDBRANCH 8 10
ENDBRANCH 5 6
BRANCH 5 35
ATOM     35  CB  GLU B 590      -8.925  -1.949 -13.662  1.00  9.50 LIG 0.04  C 
BRANCH 35 36
ATOM     36  CG  GLU B 590      -7.444  -2.134 -13.384  1.00  9.44 LIG 0.12  C 
BRANCH 36 37
ATOM     37  CD  GLU B 590      -7.039  -3.544 -12.989  1.00 10.34 LIG 0.17  C 
ATOM     38 OE2  GLU B 590      -5.915  -3.944 -13.352  1.00  9.56 LIG-0.65  OA
ATOM     39 OE1  GLU B 590      -7.806  -4.224 -12.280  1.00 12.93 LIG-0.65  OA
ENDBRANCH 36 37
ENDBRANCH 35 36
ENDBRANCH 5 35
ENDBRANCH 3 5
BRANCH 1 40
ATOM     40  CA  TRP B 589     -13.020   0.061 -12.521  1.00 10.41 LIG 0.18  C 
BRANCH 40 41
ATOM     41  CB  TRP B 589     -13.479   1.472 -12.864  1.00 16.42 LIG 0.07  C 
BRANCH 41 42
ATOM     42  CG  TRP B 589     -13.248   1.883 -14.263  1.00 28.27 LIG-0.03  A 
ATOM     43  CD1 TRP B 589     -12.700   1.140 -15.263  1.00 31.36 LIG 0.10  A 
ATOM     44  NE1 TRP B 589     -12.656   1.872 -16.426  1.00 35.25 LIG-0.36  N 
ATOM     45 HE1  TRP B 589     -12.352   1.593 -17.181  1.00 35.25 LIG 0.17  HD
ATOM     46  CE2 TRP B 589     -13.174   3.116 -16.186  1.00 40.47 LIG 0.04  A 
ATOM     47  CD2 TRP B 589     -13.556   3.159 -14.831  1.00 37.76 LIG-0.00  A 
ATOM     48  CZ2 TRP B 589     -13.334   4.204 -17.042  1.00 47.06 LIG 0.03  A 
ATOM     49  CE3 TRP B 589     -14.119   4.335 -14.326  1.00 44.39 LIG 0.01  A 
ATOM     50  CZ3 TRP B 589     -14.279   5.413 -15.178  1.00 48.60 LIG 0.00  A 
ATOM     51  CH2 TRP B 589     -13.889   5.340 -16.519  1.00 49.92 LIG 0.00  A 
ENDBRANCH 41 42
ENDBRANCH 40 41
BRANCH 40 52
ATOM     52  N   TRP B 589     -13.564  -0.357 -11.248  1.00 10.46 LIG-0.35  N 
ATOM     53 H    TRP B 589     -14.068   0.235 -10.881  1.00 10.46 LIG 0.16  HD
ATOM     54  C   GLU B 588     -13.316  -1.529 -10.696  1.00 14.97 LIG 0.24  C 
ATOM     55 O    GLU B 588     -12.622  -2.401 -11.219  1.00 17.61 LIG-0.27  OA
BRANCH 54 56
ATOM     56  CA  GLU B 588     -13.975  -1.728  -9.341  1.00 18.53 LIG 0.18  C 
BRANCH 56 57
ATOM     57  N   GLU B 588     -15.308  -1.131  -9.299  1.00 19.74 LIG-0.35  N 
ATOM     58 H    GLU B 588     -15.378  -0.484  -8.736  1.00 19.74 LIG 0.16  HD
ATOM     59  C   GLU B 587     -16.321  -1.549 -10.063  1.00 22.74 LIG 0.26  C 
ATOM     60 O    GLU B 587     -16.229  -2.460 -10.880  1.00 21.09 LIG-0.27  OA
BRANCH 59 61
ATOM     61  CA  GLU B 587     -17.656  -0.838  -9.875  1.00 29.94 LIG 0.40  C 
ATOM     62  N   GLU B 587     -18.526  -1.628  -9.004  1.00 28.95 LIG 0.61  N 
BRANCH 61 63
ATOM     63  CB  GLU B 587     -17.412   0.551  -9.274  1.00 39.60 LIG 0.06  C 
BRANCH 63 64
ATOM     64  CG  GLU B 587     -17.683   0.654  -7.777  1.00 49.02 LIG 0.12  C 
BRANCH 64 65
ATOM     65  CD  GLU B 587     -18.685   1.742  -7.437  1.00 58.19 LIG 0.17  C 
ATOM     66 OE2  GLU B 587     -19.496   1.540  -6.510  1.00 61.83 LIG-0.65  OA
ATOM     67 OE1  GLU B 587     -18.663   2.801  -8.101  1.00 60.20 LIG-0.65  OA
ENDBRANCH 64 65
ENDBRANCH 63 64
ENDBRANCH 61 63
ENDBRANCH 59 61
ENDBRANCH 56 57
BRANCH 56 68
ATOM     68  CB  GLU B 588     -14.007  -3.222  -8.983  1.00 23.70 LIG 0.04  C 
BRANCH 68 69
ATOM     69  CG  GLU B 588     -13.503  -3.513  -7.561  1.00 29.39 LIG 0.12  C 
BRANCH 69 70
ATOM     70  CD  GLU B 588     -12.681  -4.784  -7.445  1.00 34.84 LIG 0.17  C 
ATOM     71 OE2  GLU B 588     -13.200  -5.854  -7.831  1.00 36.82 LIG-0.65  OA
ATOM     72 OE1  GLU B 588     -11.525  -4.725  -6.977  1.00 37.43 LIG-0.65  OA
ENDBRANCH 69 70
ENDBRANCH 68 69
ENDBRANCH 56 68
ENDBRANCH 54 56
ENDBRANCH 40 52
ENDBRANCH 1 40
TORSDOF 30
ENDMDL
MODEL 3
USER: ADFR SOLUTION from run 145
USER: SCORE 24.366418 LL:  -5.787 LR: -21.750 RR:   0.000 FEB: -12.801
USER: RMSD 4.217852
USER: SEED 144
USER: STATUS searching
USER: GENES 32
USER: genes 0 Translation |==|  0.43693 0.46180 0.48718
USER: genes 1 Rotation |==|  0.50677 0.50173 0.49290 0.99990
USER: genes 2 Torsion [C]-N--CA-[C] |==|  0.63893
USER: genes 3 Torsion [N]-CA--C-[N] |==|  0.40351
USER: genes 4 Torsion [C]-N--CA-[CB] |==|  0.21746
USER: genes 5 Torsion [N]-CA--C-[N] |==|  0.35558
USER: genes 6 Torsion [C]-N--CA-[CB] |==|  0.51279
USER: genes 7 Torsion [N]-CA--CB-[CG2] |==|  0.88452
USER: genes 8 Torsion [N]-CA--C-[N] |==|  0.80467
USER: genes 9 Torsion [C]-N--CA-[C] |==|  0.53468
USER: genes 10 Torsion [N]-CA--C-[OXT] |==|  0.01333
USER: genes 11 Torsion [N]-CA--CB-[CG] |==|  0.73048
USER: genes 12 Torsion [CA]-CB--CG-[SD] |==|  0.32709
USER: genes 13 Torsion [CB]-CG--SD-[CE] |==|  0.04015
USER: genes 14 Torsion [N]-CA--CB-[CG2] |==|  0.54826
USER: genes 15 Torsion [CA]-CB--OG1-[HG1] |==|  0.16809
USER: genes 16 Torsion [N]-CA--CB-[CG] |==|  0.47620
USER: genes 17 Torsion [CA]-CB--CG-[CD] |==|  0.43041
USER: genes 18 Torsion [CB]-CG--CD-[OE2] |==|  0.97471
USER: genes 19 Torsion [N]-C--CA-[N] |==|  0.35095
USER: genes 20 Torsion [C]-CA--CB-[CG] |==|  0.26889
USER: genes 21 Torsion [CA]-CB--CG-[CD1] |==|  0.96927
USER: genes 22 Torsion [C]-CA--N-[C] |==|  0.78958
USER: genes 23 Torsion [N]-C--CA-[N] |==|  0.84444
USER: genes 24 Torsion [C]-CA--N-[C] |==|  0.57872
USER: genes 25 Torsion [N]-C--CA-[N] |==|  0.22305
USER: genes 26 Torsion [C]-CA--CB-[CG] |==|  0.29141
USER: genes 27 Torsion [CA]-CB--CG-[CD] |==|  0.75923
USER: genes 28 Torsion [CB]-CG--CD-[OE2] |==|  0.51294
USER: genes 29 Torsion [C]-CA--CB-[CG] |==|  0.80456
USER: genes 30 Torsion [CA]-CB--CG-[CD] |==|  0.72424
USER: genes 31 Torsion [CB]-CG--CD-[OE2] |==|  0.62422
ROOT
ATOM      1  C   TRP B 589     -11.526   0.181 -12.506  1.00  8.59 LIG 0.24  C 
ATOM      2 O    TRP B 589     -10.968   0.549 -11.477  1.00  9.54 LIG-0.27  OA
ATOM      3  N   GLU B 590     -10.874  -0.312 -13.546  1.00  8.93 LIG-0.35  N 
ATOM      4 H    GLU B 590     -11.268  -0.577 -14.263  1.00  8.93 LIG 0.16  HD
ENDROOT
BRANCH 3 5
ATOM      5  CA  GLU B 590      -9.426  -0.458 -13.590  1.00  8.22 LIG 0.18  C 
BRANCH 5 6
ATOM      6  C   GLU B 590      -8.905   0.154 -14.883  1.00  8.58 LIG 0.24  C 
ATOM      7 O    GLU B 590      -9.568   0.080 -15.913  1.00 10.27 LIG-0.27  OA
ATOM      8  N   THR B 591      -7.719   0.751 -14.819  1.00  8.10 LIG-0.34  N 
ATOM      9 H    THR B 591      -7.247   0.784 -14.102  1.00  8.10 LIG 0.16  HD
BRANCH 8 10
ATOM     10  CA  THR B 591      -7.098   1.411 -15.963  1.00  8.42 LIG 0.20  C 
BRANCH 10 11
ATOM     11  C   THR B 591      -5.602   1.531 -15.713  1.00  8.31 LIG 0.24  C 
ATOM     12  N   VAL B 592      -4.817   1.074 -16.676  1.00  8.54 LIG-0.35  N 
ATOM     13 H    VAL B 592      -5.124   0.717 -17.396  1.00  8.54 LIG 0.16  HD
ATOM     14 O    THR B 591      -5.176   2.051 -14.673  1.00  8.65 LIG-0.27  OA
BRANCH 12 15
ATOM     15  CA  VAL B 592      -3.371   1.119 -16.630  1.00  9.13 LIG 0.18  C 
BRANCH 15 16
ATOM     16  CB  VAL B 592      -2.772   0.607 -17.963  1.00  9.93 LIG 0.01  C 
ATOM     17  CG2 VAL B 592      -3.534  -0.624 -18.463  1.00 10.24 LIG 0.01  C 
ATOM     18  CG1 VAL B 592      -1.301   0.304 -17.797  1.00 10.82 LIG 0.01  C 
ENDBRANCH 15 16
BRANCH 15 19
ATOM     19  C   VAL B 592      -2.934   2.547 -16.356  1.00  9.48 LIG 0.24  C 
ATOM     20 O    VAL B 592      -2.435   2.838 -15.272  1.00 10.72 LIG-0.27  OA
ATOM     21  N   MET B 593      -3.117   3.428 -17.341  1.00 10.11 LIG-0.34  N 
ATOM     22 H    MET B 593      -3.514   3.240 -18.080  1.00 10.11 LIG 0.16  HD
BRANCH 21 23
ATOM     23  CA  MET B 593      -2.652   4.814 -17.247  1.00 11.88 LIG 0.19  C 
BRANCH 23 24
ATOM     24  C   MET B 593      -3.218   5.725 -18.333  1.00 15.28 LIG 0.20  C 
ATOM     25 OXT  MET B 593      -4.056   5.277 -19.116  1.00 15.41 LIG-0.65  OA
ATOM     26 O    MET B 593      -2.931   6.926 -18.391  1.00 17.52 LIG-0.65  OA
ENDBRANCH 23 24
BRANCH 23 27
ATOM     27  CB  MET B 593      -1.133   4.873 -17.361  1.00 10.86 LIG 0.05  C 
BRANCH 27 28
ATOM     28  CG  MET B 593      -0.408   4.937 -16.037  1.00 11.31 LIG 0.08  C 
BRANCH 28 29
ATOM     29 SD   MET B 593       0.682   3.551 -15.689  1.00 11.06 LIG-0.17  SA
ATOM     30  CE  MET B 593       0.821   2.783 -17.299  1.00 12.56 LIG 0.09  C 
ENDBRANCH 28 29
ENDBRANCH 27 28
ENDBRANCH 23 27
ENDBRANCH 21 23
ENDBRANCH 15 19
ENDBRANCH 12 15
ENDBRANCH 10 11
BRANCH 10 31
ATOM     31  CB  THR B 591      -7.739   2.810 -16.190  1.00  8.77 LIG 0.15  C 
ATOM     32  CG2 THR B 591      -7.448   3.353 -17.575  1.00  9.88 LIG 0.04  C 
BRANCH 31 33
ATOM     33 OG1  THR B 591      -9.151   2.697 -16.004  1.00  9.65 LIG-0.39  OA
ATOM     34 HG1  THR B 591      -9.310   2.439 -15.220  1.00  9.65 LIG 0.21  HD
ENDBRANCH 31 33
ENDBRANCH 10 31
ENDBRANCH 8 10
ENDBRANCH 5 6
BRANCH 5 35
ATOM     35  CB  GLU B 590      -9.036  -1.938 -13.467  1.00  9.50 LIG 0.04  C 
BRANCH 35 36
ATOM     36  CG  GLU B 590      -7.565  -2.231 -13.705  1.00  9.44 LIG 0.12  C 
BRANCH 36 37
ATOM     37  CD  GLU B 590      -7.049  -3.493 -13.035  1.00 10.34 LIG 0.17  C 
ATOM     38 OE2  GLU B 590      -7.806  -4.067 -12.227  1.00  9.56 LIG-0.65  OA
ATOM     39 OE1  GLU B 590      -5.929  -3.939 -13.352  1.00 12.93 LIG-0.65  OA
ENDBRANCH 36 37
ENDBRANCH 35 36
ENDBRANCH 5 35
ENDBRANCH 3 5
BRANCH 1 40
ATOM     40  CA  TRP B 589     -13.025   0.311 -12.662  1.00 10.41 LIG 0.18  C 
BRANCH 40 41
ATOM     41  CB  TRP B 589     -13.373   1.794 -12.666  1.00 16.42 LIG 0.07  C 
BRANCH 41 42
ATOM     42  CG  TRP B 589     -13.529   2.397 -14.005  1.00 28.27 LIG-0.03  A 
ATOM     43  CD1 TRP B 589     -13.199   1.843 -15.204  1.00 31.36 LIG 0.10  A 
ATOM     44  NE1 TRP B 589     -13.498   2.715 -16.225  1.00 35.25 LIG-0.36  N 
ATOM     45 HE1  TRP B 589     -13.374   2.565 -17.063  1.00 35.25 LIG 0.17  HD
ATOM     46  CE2 TRP B 589     -14.024   3.860 -15.689  1.00 40.47 LIG 0.04  A 
ATOM     47  CD2 TRP B 589     -14.057   3.694 -14.291  1.00 37.76 LIG-0.00  A 
ATOM     48  CZ2 TRP B 589     -14.468   5.023 -16.315  1.00 47.06 LIG 0.03  A 
ATOM     49  CE3 TRP B 589     -14.556   4.735 -13.501  1.00 44.39 LIG 0.01  A 
ATOM     50  CZ3 TRP B 589     -14.999   5.888 -14.124  1.00 48.60 LIG 0.00  A 
ATOM     51  CH2 TRP B 589     -14.953   6.022 -15.515  1.00 49.92 LIG 0.00  A 
ENDBRANCH 41 42
ENDBRANCH 40 41
BRANCH 40 52
ATOM     52  N   TRP B 589     -13.677  -0.363 -11.562  1.00 10.46 LIG-0.35  N 
ATOM     53 H    TRP B 589     -13.991   0.176 -10.969  1.00 10.46 LIG 0.16  HD
ATOM     54  C   GLU B 588     -13.786  -1.674 -11.469  1.00 14.97 LIG 0.24  C 
ATOM     55 O    GLU B 588     -13.370  -2.460 -12.320  1.00 17.61 LIG-0.27  OA
BRANCH 54 56
ATOM     56  CA  GLU B 588     -14.485  -2.150 -10.206  1.00 18.53 LIG 0.18  C 
BRANCH 56 57
ATOM     57  N   GLU B 588     -13.828  -1.641  -9.004  1.00 19.74 LIG-0.35  N 
ATOM     58 H    GLU B 588     -13.427  -0.889  -9.122  1.00 19.74 LIG 0.16  HD
ATOM     59  C   GLU B 587     -13.849  -2.282  -7.831  1.00 22.74 LIG 0.26  C 
ATOM     60 O    GLU B 587     -14.430  -3.348  -7.647  1.00 21.09 LIG-0.27  OA
BRANCH 59 61
ATOM     61  CA  GLU B 587     -13.088  -1.629  -6.684  1.00 29.94 LIG 0.40  C 
ATOM     62  N   GLU B 587     -13.894  -0.560  -6.094  1.00 28.95 LIG 0.61  N 
BRANCH 61 63
ATOM     63  CB  GLU B 587     -12.747  -2.689  -5.631  1.00 39.60 LIG 0.06  C 
BRANCH 63 64
ATOM     64  CG  GLU B 587     -11.287  -3.129  -5.622  1.00 49.02 LIG 0.12  C 
BRANCH 64 65
ATOM     65  CD  GLU B 587     -11.008  -4.256  -6.599  1.00 58.19 LIG 0.17  C 
ATOM     66 OE2  GLU B 587      -9.867  -4.762  -6.619  1.00 61.83 LIG-0.65  OA
ATOM     67 OE1  GLU B 587     -11.931  -4.634  -7.352  1.00 60.20 LIG-0.65  OA
ENDBRANCH 64 65
ENDBRANCH 63 64
ENDBRANCH 61 63
ENDBRANCH 59 61
ENDBRANCH 56 57
BRANCH 56 68
ATOM     68  CB  GLU B 588     -15.973  -1.769 -10.249  1.00 23.70 LIG 0.04  C 
BRANCH 68 69
ATOM     69  CG  GLU B 588     -16.214  -0.258 -10.099  1.00 29.39 LIG 0.12  C 
BRANCH 69 70
ATOM     70  CD  GLU B 588     -16.608   0.168  -8.697  1.00 34.84 LIG 0.17  C 
ATOM     71 OE2  GLU B 588     -17.554   0.977  -8.575  1.00 36.82 LIG-0.65  OA
ATOM     72 OE1  GLU B 588     -15.988  -0.297  -7.718  1.00 37.43 LIG-0.65  OA
ENDBRANCH 69 70
ENDBRANCH 68 69
ENDBRANCH 56 68
ENDBRANCH 54 56
ENDBRANCH 40 52
ENDBRANCH 1 40
TORSDOF 30
ENDMDL
MODEL 4
USER: ADFR SOLUTION from run 194
USER: SCORE 25.221223 LL:  -6.406 LR: -21.680 RR:   0.000 FEB: -12.731
USER: RMSD 4.247452
USER: SEED 193
USER: STATUS no improvement in best in 2 clusters for 5 generations
USER: GENES 32
USER: genes 0 Translation |==|  0.44110 0.46115 0.48751
USER: genes 1 Rotation |==|  0.51569 0.51045 0.49441 0.99961
USER: genes 2 Torsion [C]-N--CA-[C] |==|  0.65107
USER: genes 3 Torsion [N]-CA--C-[N] |==|  0.41992
USER: genes 4 Torsion [C]-N--CA-[CB] |==|  0.21810
USER: genes 5 Torsion [N]-CA--C-[N] |==|  0.32791
USER: genes 6 Torsion [C]-N--CA-[CB] |==|  0.45023
USER: genes 7 Torsion [N]-CA--CB-[CG2] |==|  0.48230
USER: genes 8 Torsion [N]-CA--C-[N] |==|  0.39257
USER: genes 9 Torsion [C]-N--CA-[C] |==|  0.57998
USER: genes 10 Torsion [N]-CA--C-[OXT] |==|  0.94355
USER: genes 11 Torsion [N]-CA--CB-[CG] |==|  0.63930
USER: genes 12 Torsion [CA]-CB--CG-[SD] |==|  0.31356
USER: genes 13 Torsion [CB]-CG--SD-[CE] |==|  0.06623
USER: genes 14 Torsion [N]-CA--CB-[CG2] |==|  0.50642
USER: genes 15 Torsion [CA]-CB--OG1-[HG1] |==|  0.21566
USER: genes 16 Torsion [N]-CA--CB-[CG] |==|  0.50913
USER: genes 17 Torsion [CA]-CB--CG-[CD] |==|  0.40893
USER: genes 18 Torsion [CB]-CG--CD-[OE2] |==|  0.94820
USER: genes 19 Torsion [N]-C--CA-[N] |==|  0.35556
USER: genes 20 Torsion [C]-CA--CB-[CG] |==|  0.26860
USER: genes 21 Torsion [CA]-CB--CG-[CD1] |==|  0.96433
USER: genes 22 Torsion [C]-CA--N-[C] |==|  0.84915
USER: genes 23 Torsion [N]-C--CA-[N] |==|  0.81139
USER: genes 24 Torsion [C]-CA--N-[C] |==|  0.67833
USER: genes 25 Torsion [N]-C--CA-[N] |==|  0.23672
USER: genes 26 Torsion [C]-CA--CB-[CG] |==|  0.48766
USER: genes 27 Torsion [CA]-CB--CG-[CD] |==|  0.28658
USER: genes 28 Torsion [CB]-CG--CD-[OE2] |==|  0.37153
USER: genes 29 Torsion [C]-CA--CB-[CG] |==|  0.57359
USER: genes 30 Torsion [CA]-CB--CG-[CD] |==|  0.22586
USER: genes 31 Torsion [CB]-CG--CD-[OE2] |==|  0.16670
ROOT
ATOM      1  C   TRP B 589     -11.404   0.168 -12.499  1.00  8.59 LIG 0.24  C 
ATOM      2 O    TRP B 589     -10.813   0.503 -11.477  1.00  9.54 LIG-0.27  OA
ATOM      3  N   GLU B 590     -10.785  -0.282 -13.578  1.00  8.93 LIG-0.35  N 
ATOM      4 H    GLU B 590     -11.202  -0.524 -14.290  1.00  8.93 LIG 0.16  HD
ENDROOT
BRANCH 3 5
ATOM      5  CA  GLU B 590      -9.339  -0.416 -13.677  1.00  8.22 LIG 0.18  C 
BRANCH 5 6
ATOM      6  C   GLU B 590      -8.854   0.338 -14.906  1.00  8.58 LIG 0.24  C 
ATOM      7 O    GLU B 590      -9.588   0.470 -15.880  1.00 10.27 LIG-0.27  OA
ATOM      8  N   THR B 591      -7.619   0.826 -14.852  1.00  8.10 LIG-0.34  N 
ATOM      9 H    THR B 591      -7.098   0.715 -14.177  1.00  8.10 LIG 0.16  HD
BRANCH 8 10
ATOM     10  CA  THR B 591      -7.020   1.599 -15.936  1.00  8.42 LIG 0.20  C 
BRANCH 10 11
ATOM     11  C   THR B 591      -5.505   1.559 -15.793  1.00  8.31 LIG 0.24  C 
ATOM     12  N   VAL B 592      -4.845   0.999 -16.794  1.00  8.54 LIG-0.35  N 
ATOM     13 H    VAL B 592      -5.240   0.663 -17.481  1.00  8.54 LIG 0.16  HD
ATOM     14 O    THR B 591      -4.952   2.051 -14.800  1.00  8.65 LIG-0.27  OA
BRANCH 12 15
ATOM     15  CA  VAL B 592      -3.403   0.887 -16.850  1.00  9.13 LIG 0.18  C 
BRANCH 15 16
ATOM     16  CB  VAL B 592      -2.985  -0.184 -17.888  1.00  9.93 LIG 0.01  C 
ATOM     17  CG2 VAL B 592      -1.464  -0.199 -18.069  1.00 10.24 LIG 0.01  C 
ATOM     18  CG1 VAL B 592      -3.685   0.061 -19.205  1.00 10.82 LIG 0.01  C 
ENDBRANCH 15 16
BRANCH 15 19
ATOM     19  C   VAL B 592      -2.820   2.242 -17.208  1.00  9.48 LIG 0.24  C 
ATOM     20 O    VAL B 592      -3.390   2.957 -18.028  1.00 10.72 LIG-0.27  OA
ATOM     21  N   MET B 593      -1.691   2.590 -16.589  1.00 10.11 LIG-0.34  N 
ATOM     22 H    MET B 593      -1.261   2.071 -16.056  1.00 10.11 LIG 0.16  HD
BRANCH 21 23
ATOM     23  CA  MET B 593      -1.075   3.907 -16.768  1.00 11.88 LIG 0.19  C 
BRANCH 23 24
ATOM     24  C   MET B 593       0.441   3.903 -16.594  1.00 15.28 LIG 0.20  C 
ATOM     25 OXT  MET B 593       0.973   2.980 -15.977  1.00 15.41 LIG-0.65  OA
ATOM     26 O    MET B 593       1.162   4.750 -17.136  1.00 17.52 LIG-0.65  OA
ENDBRANCH 23 24
BRANCH 23 27
ATOM     27  CB  MET B 593      -1.638   4.898 -15.755  1.00 10.86 LIG 0.05  C 
BRANCH 27 28
ATOM     28  CG  MET B 593      -2.115   6.200 -16.352  1.00 11.31 LIG 0.08  C 
BRANCH 28 29
ATOM     29 SD   MET B 593      -3.888   6.482 -16.269  1.00 11.06 LIG-0.17  SA
ATOM     30  CE  MET B 593      -4.357   5.445 -14.887  1.00 12.56 LIG 0.09  C 
ENDBRANCH 28 29
ENDBRANCH 27 28
ENDBRANCH 23 27
ENDBRANCH 21 23
ENDBRANCH 15 19
ENDBRANCH 12 15
ENDBRANCH 10 11
BRANCH 10 31
ATOM     31  CB  THR B 591      -7.544   3.062 -15.907  1.00  8.77 LIG 0.15  C 
ATOM     32  CG2 THR B 591      -6.991   3.889 -17.051  1.00  9.88 LIG 0.04  C 
BRANCH 31 33
ATOM     33 OG1  THR B 591      -8.971   3.033 -15.979  1.00  9.65 LIG-0.39  OA
ATOM     34 HG1  THR B 591      -9.285   2.830 -15.227  1.00  9.65 LIG 0.21  HD
ENDBRANCH 31 33
ENDBRANCH 10 31
ENDBRANCH 8 10
ENDBRANCH 5 6
BRANCH 5 35
ATOM     35  CB  GLU B 590      -8.944  -1.899 -13.730  1.00  9.50 LIG 0.04  C 
BRANCH 35 36
ATOM     36  CG  GLU B 590      -7.448  -2.159 -13.756  1.00  9.44 LIG 0.12  C 
BRANCH 36 37
ATOM     37  CD  GLU B 590      -7.011  -3.435 -13.056  1.00 10.34 LIG 0.17  C 
ATOM     38 OE2  GLU B 590      -7.806  -3.949 -12.245  1.00  9.56 LIG-0.65  OA
ATOM     39 OE1  GLU B 590      -5.914  -3.949 -13.352  1.00 12.93 LIG-0.65  OA
ENDBRANCH 36 37
ENDBRANCH 35 36
ENDBRANCH 5 35
ENDBRANCH 3 5
BRANCH 1 40
ATOM     40  CA  TRP B 589     -12.908   0.294 -12.599  1.00 10.41 LIG 0.18  C 
BRANCH 40 41
ATOM     41  CB  TRP B 589     -13.262   1.775 -12.579  1.00 16.42 LIG 0.07  C 
BRANCH 41 42
ATOM     42  CG  TRP B 589     -13.467   2.388 -13.907  1.00 28.27 LIG-0.03  A 
ATOM     43  CD1 TRP B 589     -13.146   1.859 -15.120  1.00 31.36 LIG 0.10  A 
ATOM     44  NE1 TRP B 589     -13.495   2.731 -16.123  1.00 35.25 LIG-0.36  N 
ATOM     45 HE1  TRP B 589     -13.386   2.595 -16.965  1.00 35.25 LIG 0.17  HD
ATOM     46  CE2 TRP B 589     -14.046   3.853 -15.562  1.00 40.47 LIG 0.04  A 
ATOM     47  CD2 TRP B 589     -14.042   3.671 -14.166  1.00 37.76 LIG-0.00  A 
ATOM     48  CZ2 TRP B 589     -14.541   5.008 -16.164  1.00 47.06 LIG 0.03  A 
ATOM     49  CE3 TRP B 589     -14.556   4.685 -13.353  1.00 44.39 LIG 0.01  A 
ATOM     50  CZ3 TRP B 589     -15.049   5.831 -13.952  1.00 48.60 LIG 0.00  A 
ATOM     51  CH2 TRP B 589     -15.038   5.982 -15.342  1.00 49.92 LIG 0.00  A 
ENDBRANCH 41 42
ENDBRANCH 40 41
BRANCH 40 52
ATOM     52  N   TRP B 589     -13.517  -0.391 -11.481  1.00 10.46 LIG-0.35  N 
ATOM     53 H    TRP B 589     -14.057   0.104 -11.029  1.00 10.46 LIG 0.16  HD
ATOM     54  C   GLU B 588     -13.276  -1.651 -11.175  1.00 14.97 LIG 0.24  C 
ATOM     55 O    GLU B 588     -12.530  -2.385 -11.825  1.00 17.61 LIG-0.27  OA
BRANCH 54 56
ATOM     56  CA  GLU B 588     -14.009  -2.141  -9.937  1.00 18.53 LIG 0.18  C 
BRANCH 56 57
ATOM     57  N   GLU B 588     -13.511  -1.492  -8.726  1.00 19.74 LIG-0.35  N 
ATOM     58 H    GLU B 588     -13.649  -0.644  -8.708  1.00 19.74 LIG 0.16  HD
ATOM     59  C   GLU B 587     -12.900  -2.155  -7.740  1.00 22.74 LIG 0.26  C 
ATOM     60 O    GLU B 587     -12.710  -3.368  -7.748  1.00 21.09 LIG-0.27  OA
BRANCH 59 61
ATOM     61  CA  GLU B 587     -12.413  -1.324  -6.559  1.00 29.94 LIG 0.40  C 
ATOM     62  N   GLU B 587     -13.500  -1.139  -5.596  1.00 28.95 LIG 0.61  N 
BRANCH 61 63
ATOM     63  CB  GLU B 587     -11.222  -2.026  -5.898  1.00 39.60 LIG 0.06  C 
BRANCH 63 64
ATOM     64  CG  GLU B 587     -10.572  -1.242  -4.763  1.00 49.02 LIG 0.12  C 
BRANCH 64 65
ATOM     65  CD  GLU B 587     -10.956  -1.769  -3.393  1.00 58.19 LIG 0.17  C 
ATOM     66 OE2  GLU B 587     -10.056  -1.937  -2.543  1.00 61.83 LIG-0.65  OA
ATOM     67 OE1  GLU B 587     -12.158  -2.021  -3.166  1.00 60.20 LIG-0.65  OA
ENDBRANCH 64 65
ENDBRANCH 63 64
ENDBRANCH 61 63
ENDBRANCH 59 61
ENDBRANCH 56 57
BRANCH 56 68
ATOM     68  CB  GLU B 588     -15.524  -1.946 -10.108  1.00 23.70 LIG 0.04  C 
BRANCH 68 69
ATOM     69  CG  GLU B 588     -16.267  -1.787  -8.773  1.00 29.39 LIG 0.12  C 
BRANCH 69 70
ATOM     70  CD  GLU B 588     -16.203  -0.386  -8.193  1.00 34.84 LIG 0.17  C 
ATOM     71 OE2  GLU B 588     -16.675   0.551  -8.874  1.00 36.82 LIG-0.65  OA
ATOM     72 OE1  GLU B 588     -15.691  -0.211  -7.068  1.00 37.43 LIG-0.65  OA
ENDBRANCH 69 70
ENDBRANCH 68 69
ENDBRANCH 56 68
ENDBRANCH 54 56
ENDBRANCH 40 52
ENDBRANCH 1 40
TORSDOF 30
ENDMDL
MODEL 5
USER: ADFR SOLUTION from run 61
USER: SCORE 25.188637 LL:  -5.635 LR: -21.580 RR:   0.000 FEB: -12.631
USER: RMSD 3.112760
USER: SEED 60
USER: STATUS no improvement in best in 6 clusters for 5 generations
USER: GENES 32
USER: genes 0 Translation |==|  0.44122 0.46206 0.48827
USER: genes 1 Rotation |==|  0.50811 0.51283 0.49117 0.99969
USER: genes 2 Torsion [C]-N--CA-[C] |==|  0.64802
USER: genes 3 Torsion [N]-CA--C-[N] |==|  0.39384
USER: genes 4 Torsion [C]-N--CA-[CB] |==|  0.23965
USER: genes 5 Torsion [N]-CA--C-[N] |==|  0.34613
USER: genes 6 Torsion [C]-N--CA-[CB] |==|  0.48889
USER: genes 7 Torsion [N]-CA--CB-[CG2] |==|  0.18624
USER: genes 8 Torsion [N]-CA--C-[N] |==|  0.43400
USER: genes 9 Torsion [C]-N--CA-[C] |==|  0.59589
USER: genes 10 Torsion [N]-CA--C-[OXT] |==|  0.35645
USER: genes 11 Torsion [N]-CA--CB-[CG] |==|  0.78128
USER: genes 12 Torsion [CA]-CB--CG-[SD] |==|  0.87885
USER: genes 13 Torsion [CB]-CG--SD-[CE] |==|  0.41540
USER: genes 14 Torsion [N]-CA--CB-[CG2] |==|  0.51051
USER: genes 15 Torsion [CA]-CB--OG1-[HG1] |==|  0.20804
USER: genes 16 Torsion [N]-CA--CB-[CG] |==|  0.50314
USER: genes 17 Torsion [CA]-CB--CG-[CD] |==|  0.42111
USER: genes 18 Torsion [CB]-CG--CD-[OE2] |==|  0.45616
USER: genes 19 Torsion [N]-C--CA-[N] |==|  0.35031
USER: genes 20 Torsion [C]-CA--CB-[CG] |==|  0.29482
USER: genes 21 Torsion [CA]-CB--CG-[CD1] |==|  0.42848
USER: genes 22 Torsion [C]-CA--N-[C] |==|  0.81542
USER: genes 23 Torsion [N]-C--CA-[N] |==|  0.40771
USER: genes 24 Torsion [C]-CA--N-[C] |==|  0.79157
USER: genes 25 Torsion [N]-C--CA-[N] |==|  0.49787
USER: genes 26 Torsion [C]-CA--CB-[CG] |==|  0.85795
USER: genes 27 Torsion [CA]-CB--CG-[CD] |==|  0.42815
USER: genes 28 Torsion [CB]-CG--CD-[OE2] |==|  0.08889
USER: genes 29 Torsion [C]-CA--CB-[CG] |==|  0.55315
USER: genes 30 Torsion [CA]-CB--CG-[CD] |==|  0.25651
USER: genes 31 Torsion [CB]-CG--CD-[OE2] |==|  0.22928
ROOT
ATOM      1  C   TRP B 589     -11.400   0.186 -12.482  1.00  8.59 LIG 0.24  C 
ATOM      2 O    TRP B 589     -10.795   0.544 -11.477  1.00  9.54 LIG-0.27  OA
ATOM      3  N   GLU B 590     -10.799  -0.304 -13.553  1.00  8.93 LIG-0.35  N 
ATOM      4 H    GLU B 590     -11.226  -0.563 -14.253  1.00  8.93 LIG 0.16  HD
ENDROOT
BRANCH 3 5
ATOM      5  CA  GLU B 590      -9.355  -0.459 -13.663  1.00  8.22 LIG 0.18  C 
BRANCH 5 6
ATOM      6  C   GLU B 590      -8.877   0.229 -14.933  1.00  8.58 LIG 0.24  C 
ATOM      7 O    GLU B 590      -9.550   0.171 -15.958  1.00 10.27 LIG-0.27  OA
ATOM      8  N   THR B 591      -7.717   0.871 -14.858  1.00  8.10 LIG-0.34  N 
ATOM      9 H    THR B 591      -7.236   0.894 -14.146  1.00  8.10 LIG 0.16  HD
BRANCH 8 10
ATOM     10  CA  THR B 591      -7.139   1.605 -15.979  1.00  8.42 LIG 0.20  C 
BRANCH 10 11
ATOM     11  C   THR B 591      -5.623   1.606 -15.843  1.00  8.31 LIG 0.24  C 
ATOM     12  N   VAL B 592      -4.950   1.135 -16.881  1.00  8.54 LIG-0.35  N 
ATOM     13 H    VAL B 592      -5.336   0.834 -17.588  1.00  8.54 LIG 0.16  HD
ATOM     14 O    THR B 591      -5.083   2.047 -14.820  1.00  8.65 LIG-0.27  OA
BRANCH 12 15
ATOM     15  CA  VAL B 592      -3.505   1.074 -16.946  1.00  9.13 LIG 0.18  C 
BRANCH 15 16
ATOM     16  CB  VAL B 592      -3.054   0.379 -18.255  1.00  9.93 LIG 0.01  C 
ATOM     17  CG2 VAL B 592      -3.408   1.236 -19.474  1.00 10.24 LIG 0.01  C 
ATOM     18  CG1 VAL B 592      -3.673  -0.996 -18.360  1.00 10.82 LIG 0.01  C 
ENDBRANCH 15 16
BRANCH 15 19
ATOM     19  C   VAL B 592      -2.951   2.484 -16.867  1.00  9.48 LIG 0.24  C 
ATOM     20 O    VAL B 592      -3.653   3.438 -17.192  1.00 10.72 LIG-0.27  OA
ATOM     21  N   MET B 593      -1.697   2.611 -16.428  1.00 10.11 LIG-0.34  N 
ATOM     22 H    MET B 593      -1.186   1.943 -16.250  1.00 10.11 LIG 0.16  HD
BRANCH 21 23
ATOM     23  CA  MET B 593      -1.073   3.918 -16.210  1.00 11.88 LIG 0.19  C 
BRANCH 23 24
ATOM     24  C   MET B 593       0.420   3.945 -16.527  1.00 15.28 LIG 0.20  C 
ATOM     25 OXT  MET B 593       0.859   4.815 -17.279  1.00 15.41 LIG-0.65  OA
ATOM     26 O    MET B 593       1.217   3.176 -15.977  1.00 17.52 LIG-0.65  OA
ENDBRANCH 23 24
BRANCH 23 27
ATOM     27  CB  MET B 593      -1.228   4.344 -14.754  1.00 10.86 LIG 0.05  C 
BRANCH 27 28
ATOM     28  CG  MET B 593      -2.589   4.897 -14.406  1.00 11.31 LIG 0.08  C 
BRANCH 28 29
ATOM     29 SD   MET B 593      -3.282   6.046 -15.602  1.00 11.06 LIG-0.17  SA
ATOM     30  CE  MET B 593      -5.037   5.758 -15.410  1.00 12.56 LIG 0.09  C 
ENDBRANCH 28 29
ENDBRANCH 27 28
ENDBRANCH 23 27
ENDBRANCH 21 23
ENDBRANCH 15 19
ENDBRANCH 12 15
ENDBRANCH 10 11
BRANCH 10 31
ATOM     31  CB  THR B 591      -7.695   3.057 -16.017  1.00  8.77 LIG 0.15  C 
ATOM     32  CG2 THR B 591      -7.193   3.830 -17.220  1.00  9.88 LIG 0.04  C 
BRANCH 31 33
ATOM     33 OG1  THR B 591      -9.122   2.995 -16.045  1.00  9.65 LIG-0.39  OA
ATOM     34 HG1  THR B 591      -9.409   2.790 -15.283  1.00  9.65 LIG 0.21  HD
ENDBRANCH 31 33
ENDBRANCH 10 31
ENDBRANCH 8 10
ENDBRANCH 5 6
BRANCH 5 35
ATOM     35  CB  GLU B 590      -8.977  -1.947 -13.647  1.00  9.50 LIG 0.04  C 
BRANCH 35 36
ATOM     36  CG  GLU B 590      -7.486  -2.226 -13.729  1.00  9.44 LIG 0.12  C 
BRANCH 36 37
ATOM     37  CD  GLU B 590      -7.041  -3.518 -13.066  1.00 10.34 LIG 0.17  C 
ATOM     38 OE2  GLU B 590      -5.907  -3.951 -13.352  1.00  9.56 LIG-0.65  OA
ATOM     39 OE1  GLU B 590      -7.786  -4.063 -12.228  1.00 12.93 LIG-0.65  OA
ENDBRANCH 36 37
ENDBRANCH 35 36
ENDBRANCH 5 35
ENDBRANCH 3 5
BRANCH 1 40
ATOM     40  CA  TRP B 589     -12.904   0.327 -12.571  1.00 10.41 LIG 0.18  C 
BRANCH 40 41
ATOM     41  CB  TRP B 589     -13.243   1.811 -12.545  1.00 16.42 LIG 0.07  C 
BRANCH 41 42
ATOM     42  CG  TRP B 589     -13.665   2.380 -13.841  1.00 28.27 LIG-0.03  A 
ATOM     43  CD1 TRP B 589     -14.457   3.468 -14.047  1.00 31.36 LIG 0.10  A 
ATOM     44  NE1 TRP B 589     -14.619   3.685 -15.395  1.00 35.25 LIG-0.36  N 
ATOM     45 HE1  TRP B 589     -15.078   4.322 -15.748  1.00 35.25 LIG 0.17  HD
ATOM     46  CE2 TRP B 589     -13.931   2.722 -16.085  1.00 40.47 LIG 0.04  A 
ATOM     47  CD2 TRP B 589     -13.318   1.882 -15.136  1.00 37.76 LIG-0.00  A 
ATOM     48  CZ2 TRP B 589     -13.800   2.520 -17.457  1.00 47.06 LIG 0.03  A 
ATOM     49  CE3 TRP B 589     -12.549   0.805 -15.587  1.00 44.39 LIG 0.01  A 
ATOM     50  CZ3 TRP B 589     -12.418   0.607 -16.950  1.00 48.60 LIG 0.00  A 
ATOM     51  CH2 TRP B 589     -13.039   1.460 -17.867  1.00 49.92 LIG 0.00  A 
ENDBRANCH 41 42
ENDBRANCH 40 41
BRANCH 40 52
ATOM     52  N   TRP B 589     -13.512  -0.355 -11.450  1.00 10.46 LIG-0.35  N 
ATOM     53 H    TRP B 589     -13.908   0.176 -10.901  1.00 10.46 LIG 0.16  HD
ATOM     54  C   GLU B 588     -13.469  -1.662 -11.278  1.00 14.97 LIG 0.24  C 
ATOM     55 O    GLU B 588     -12.934  -2.441 -12.066  1.00 17.61 LIG-0.27  OA
BRANCH 54 56
ATOM     56  CA  GLU B 588     -14.152  -2.143 -10.008  1.00 18.53 LIG 0.18  C 
BRANCH 56 57
ATOM     57  N   GLU B 588     -14.766  -3.456 -10.193  1.00 19.74 LIG-0.35  N 
ATOM     58 H    GLU B 588     -14.328  -4.097  -9.822  1.00 19.74 LIG 0.16  HD
ATOM     59  C   GLU B 587     -15.900  -3.644 -10.875  1.00 22.74 LIG 0.26  C 
ATOM     60 O    GLU B 587     -16.541  -2.737 -11.396  1.00 21.09 LIG-0.27  OA
BRANCH 59 61
ATOM     61  CA  GLU B 587     -16.390  -5.082 -11.000  1.00 29.94 LIG 0.40  C 
ATOM     62  N   GLU B 587     -17.643  -5.120 -11.753  1.00 28.95 LIG 0.61  N 
BRANCH 61 63
ATOM     63  CB  GLU B 587     -15.317  -5.926 -11.697  1.00 39.60 LIG 0.06  C 
BRANCH 63 64
ATOM     64  CG  GLU B 587     -14.801  -5.342 -13.008  1.00 49.02 LIG 0.12  C 
BRANCH 64 65
ATOM     65  CD  GLU B 587     -13.393  -5.802 -13.339  1.00 58.19 LIG 0.17  C 
ATOM     66 OE2  GLU B 587     -13.036  -6.942 -12.977  1.00 61.83 LIG-0.65  OA
ATOM     67 OE1  GLU B 587     -12.640  -5.021 -13.959  1.00 60.20 LIG-0.65  OA
ENDBRANCH 64 65
ENDBRANCH 63 64
ENDBRANCH 61 63
ENDBRANCH 59 61
ENDBRANCH 56 57
BRANCH 56 68
ATOM     68  CB  GLU B 588     -13.157  -2.137  -8.837  1.00 23.70 LIG 0.04  C 
BRANCH 68 69
ATOM     69  CG  GLU B 588     -13.602  -3.023  -7.662  1.00 29.39 LIG 0.12  C 
BRANCH 69 70
ATOM     70  CD  GLU B 588     -13.067  -4.443  -7.723  1.00 34.84 LIG 0.17  C 
ATOM     71 OE2  GLU B 588     -11.908  -4.650  -7.301  1.00 36.82 LIG-0.65  OA
ATOM     72 OE1  GLU B 588     -13.791  -5.350  -8.182  1.00 37.43 LIG-0.65  OA
ENDBRANCH 69 70
ENDBRANCH 68 69
ENDBRANCH 56 68
ENDBRANCH 54 56
ENDBRANCH 40 52
ENDBRANCH 1 40
TORSDOF 30
ENDMDL
MODEL 6
USER: ADFR SOLUTION from run 195
USER: SCORE 23.638775 LL:  -5.300 LR: -21.244 RR:   0.000 FEB: -12.295
USER: RMSD 4.201934
USER: SEED 194
USER: STATUS no improvement in best in 6 clusters for 5 generations
USER: GENES 32
USER: genes 0 Translation |==|  0.43520 0.45890 0.48163
USER: genes 1 Rotation |==|  0.49589 0.47867 0.51398 0.99933
USER: genes 2 Torsion [C]-N--CA-[C] |==|  0.60629
USER: genes 3 Torsion [N]-CA--C-[N] |==|  0.40264
USER: genes 4 Torsion [C]-N--CA-[CB] |==|  0.22250
USER: genes 5 Torsion [N]-CA--C-[N] |==|  0.35964
USER: genes 6 Torsion [C]-N--CA-[CB] |==|  0.52779
USER: genes 7 Torsion [N]-CA--CB-[CG2] |==|  0.46629
USER: genes 8 Torsion [N]-CA--C-[N] |==|  0.79713
USER: genes 9 Torsion [C]-N--CA-[C] |==|  0.57225
USER: genes 10 Torsion [N]-CA--C-[OXT] |==|  0.99308
USER: genes 11 Torsion [N]-CA--CB-[CG] |==|  0.75348
USER: genes 12 Torsion [CA]-CB--CG-[SD] |==|  0.30638
USER: genes 13 Torsion [CB]-CG--SD-[CE] |==|  0.09501
USER: genes 14 Torsion [N]-CA--CB-[CG2] |==|  0.74058
USER: genes 15 Torsion [CA]-CB--OG1-[HG1] |==|  0.86250
USER: genes 16 Torsion [N]-CA--CB-[CG] |==|  0.40286
USER: genes 17 Torsion [CA]-CB--CG-[CD] |==|  0.49155
USER: genes 18 Torsion [CB]-CG--CD-[OE2] |==|  0.02293
USER: genes 19 Torsion [N]-C--CA-[N] |==|  0.28362
USER: genes 20 Torsion [C]-CA--CB-[CG] |==|  0.25638
USER: genes 21 Torsion [CA]-CB--CG-[CD1] |==|  0.48219
USER: genes 22 Torsion [C]-CA--N-[C] |==|  0.83666
USER: genes 23 Torsion [N]-C--CA-[N] |==|  0.91062
USER: genes 24 Torsion [C]-CA--N-[C] |==|  0.83609
USER: genes 25 Torsion [N]-C--CA-[N] |==|  0.06429
USER: genes 26 Torsion [C]-CA--CB-[CG] |==|  0.76927
USER: genes 27 Torsion [CA]-CB--CG-[CD] |==|  0.22619
USER: genes 28 Torsion [CB]-CG--CD-[OE2] |==|  0.22070
USER: genes 29 Torsion [C]-CA--CB-[CG] |==|  0.19674
USER: genes 30 Torsion [CA]-CB--CG-[CD] |==|  0.09985
USER: genes 31 Torsion [CB]-CG--CD-[OE2] |==|  0.21102
ROOT
ATOM      1  C   TRP B 589     -11.576   0.125 -12.626  1.00  8.59 LIG 0.24  C 
ATOM      2 O    TRP B 589     -11.149   0.580 -11.570  1.00  9.54 LIG-0.27  OA
ATOM      3  N   GLU B 590     -10.792  -0.353 -13.578  1.00  8.93 LIG-0.35  N 
ATOM      4 H    GLU B 590     -11.093  -0.680 -14.314  1.00  8.93 LIG 0.16  HD
ENDROOT
BRANCH 3 5
ATOM      5  CA  GLU B 590      -9.339  -0.377 -13.484  1.00  8.22 LIG 0.18  C 
BRANCH 5 6
ATOM      6  C   GLU B 590      -8.748  -0.054 -14.849  1.00  8.58 LIG 0.24  C 
ATOM      7 O    GLU B 590      -9.306  -0.439 -15.871  1.00 10.27 LIG-0.27  OA
ATOM      8  N   THR B 591      -7.620   0.648 -14.854  1.00  8.10 LIG-0.34  N 
ATOM      9 H    THR B 591      -7.218   0.899 -14.137  1.00  8.10 LIG 0.16  HD
BRANCH 8 10
ATOM     10  CA  THR B 591      -6.946   1.064 -16.080  1.00  8.42 LIG 0.20  C 
BRANCH 10 11
ATOM     11  C   THR B 591      -5.481   1.337 -15.772  1.00  8.31 LIG 0.24  C 
ATOM     12  N   VAL B 592      -4.604   0.744 -16.567  1.00  8.54 LIG-0.35  N 
ATOM     13 H    VAL B 592      -4.837   0.225 -17.212  1.00  8.54 LIG 0.16  HD
ATOM     14 O    THR B 591      -5.162   2.090 -14.843  1.00  8.65 LIG-0.27  OA
BRANCH 12 15
ATOM     15  CA  VAL B 592      -3.170   0.898 -16.446  1.00  9.13 LIG 0.18  C 
BRANCH 15 16
ATOM     16  CB  VAL B 592      -2.455   0.280 -17.672  1.00  9.93 LIG 0.01  C 
ATOM     17  CG2 VAL B 592      -0.981   0.694 -17.707  1.00 10.24 LIG 0.01  C 
ATOM     18  CG1 VAL B 592      -3.161   0.679 -18.948  1.00 10.82 LIG 0.01  C 
ENDBRANCH 15 16
BRANCH 15 19
ATOM     19  C   VAL B 592      -2.845   2.376 -16.321  1.00  9.48 LIG 0.24  C 
ATOM     20 O    VAL B 592      -2.484   2.836 -15.241  1.00 10.72 LIG-0.27  OA
ATOM     21  N   MET B 593      -2.967   3.111 -17.428  1.00 10.11 LIG-0.34  N 
ATOM     22 H    MET B 593      -3.270   2.804 -18.172  1.00 10.11 LIG 0.16  HD
BRANCH 21 23
ATOM     23  CA  MET B 593      -2.592   4.527 -17.473  1.00 11.88 LIG 0.19  C 
BRANCH 23 24
ATOM     24  C   MET B 593      -3.344   5.326 -18.533  1.00 15.28 LIG 0.20  C 
ATOM     25 OXT  MET B 593      -4.139   4.745 -19.273  1.00 15.41 LIG-0.65  OA
ATOM     26 O    MET B 593      -3.251   6.557 -18.610  1.00 17.52 LIG-0.65  OA
ENDBRANCH 23 24
BRANCH 23 27
ATOM     27  CB  MET B 593      -1.105   4.672 -17.774  1.00 10.86 LIG 0.05  C 
BRANCH 27 28
ATOM     28  CG  MET B 593      -0.216   4.672 -16.553  1.00 11.31 LIG 0.08  C 
BRANCH 28 29
ATOM     29 SD   MET B 593       0.818   3.216 -16.354  1.00 11.06 LIG-0.17  SA
ATOM     30  CE  MET B 593       1.194   2.801 -18.054  1.00 12.56 LIG 0.09  C 
ENDBRANCH 28 29
ENDBRANCH 27 28
ENDBRANCH 23 27
ENDBRANCH 21 23
ENDBRANCH 15 19
ENDBRANCH 12 15
ENDBRANCH 10 11
BRANCH 10 31
ATOM     31  CB  THR B 591      -7.636   2.325 -16.672  1.00  8.77 LIG 0.15  C 
ATOM     32  CG2 THR B 591      -8.691   1.971 -17.700  1.00  9.88 LIG 0.04  C 
BRANCH 31 33
ATOM     33 OG1  THR B 591      -8.233   3.060 -15.602  1.00  9.65 LIG-0.39  OA
ATOM     34 HG1  THR B 591      -8.691   2.540 -15.127  1.00  9.65 LIG 0.21  HD
ENDBRANCH 31 33
ENDBRANCH 10 31
ENDBRANCH 8 10
ENDBRANCH 5 6
BRANCH 5 35
ATOM     35  CB  GLU B 590      -8.861  -1.742 -12.969  1.00  9.50 LIG 0.04  C 
BRANCH 35 36
ATOM     36  CG  GLU B 590      -7.548  -2.222 -13.560  1.00  9.44 LIG 0.12  C 
BRANCH 36 37
ATOM     37  CD  GLU B 590      -7.038  -3.538 -12.999  1.00 10.34 LIG 0.17  C 
ATOM     38 OE2  GLU B 590      -7.797  -4.174 -12.241  1.00  9.56 LIG-0.65  OA
ATOM     39 OE1  GLU B 590      -5.920  -3.961 -13.352  1.00 12.93 LIG-0.65  OA
ENDBRANCH 36 37
ENDBRANCH 35 36
ENDBRANCH 5 35
ENDBRANCH 3 5
BRANCH 1 40
ATOM     40  CA  TRP B 589     -13.060   0.120 -12.925  1.00 10.41 LIG 0.18  C 
BRANCH 40 41
ATOM     41  CB  TRP B 589     -13.642   1.444 -12.448  1.00 16.42 LIG 0.07  C 
BRANCH 41 42
ATOM     42  CG  TRP B 589     -13.691   2.510 -13.468  1.00 28.27 LIG-0.03  A 
ATOM     43  CD1 TRP B 589     -14.266   3.739 -13.352  1.00 31.36 LIG 0.10  A 
ATOM     44  NE1 TRP B 589     -14.100   4.450 -14.517  1.00 35.25 LIG-0.36  N 
ATOM     45 HE1  TRP B 589     -14.381   5.251 -14.659  1.00 35.25 LIG 0.17  HD
ATOM     46  CE2 TRP B 589     -13.414   3.675 -15.414  1.00 40.47 LIG 0.04  A 
ATOM     47  CD2 TRP B 589     -13.141   2.445 -14.786  1.00 37.76 LIG-0.00  A 
ATOM     48  CZ2 TRP B 589     -13.016   3.952 -16.720  1.00 47.06 LIG 0.03  A 
ATOM     49  CE3 TRP B 589     -12.444   1.465 -15.499  1.00 44.39 LIG 0.01  A 
ATOM     50  CZ3 TRP B 589     -12.047   1.741 -16.795  1.00 48.60 LIG 0.00  A 
ATOM     51  CH2 TRP B 589     -12.333   2.974 -17.391  1.00 49.92 LIG 0.00  A 
ENDBRANCH 41 42
ENDBRANCH 40 41
BRANCH 40 52
ATOM     52  N   TRP B 589     -13.680  -0.988 -12.233  1.00 10.46 LIG-0.35  N 
ATOM     53 H    TRP B 589     -14.299  -0.747 -11.686  1.00 10.46 LIG 0.16  HD
ATOM     54  C   GLU B 588     -13.336  -2.248 -12.415  1.00 14.97 LIG 0.24  C 
ATOM     55 O    GLU B 588     -12.474  -2.617 -13.213  1.00 17.61 LIG-0.27  OA
BRANCH 54 56
ATOM     56  CA  GLU B 588     -14.108  -3.233 -11.552  1.00 18.53 LIG 0.18  C 
BRANCH 56 57
ATOM     57  N   GLU B 588     -14.469  -2.648 -10.262  1.00 19.74 LIG-0.35  N 
ATOM     58 H    GLU B 588     -15.316  -2.633 -10.116  1.00 19.74 LIG 0.16  HD
ATOM     59  C   GLU B 587     -13.568  -2.181  -9.393  1.00 22.74 LIG 0.26  C 
ATOM     60 O    GLU B 587     -12.356  -2.210  -9.585  1.00 21.09 LIG-0.27  OA
BRANCH 59 61
ATOM     61  CA  GLU B 587     -14.113  -1.575  -8.106  1.00 29.94 LIG 0.40  C 
ATOM     62  N   GLU B 587     -15.449  -2.103  -7.830  1.00 28.95 LIG 0.61  N 
BRANCH 61 63
ATOM     63  CB  GLU B 587     -13.159  -1.893  -6.949  1.00 39.60 LIG 0.06  C 
BRANCH 63 64
ATOM     64  CG  GLU B 587     -13.357  -3.269  -6.323  1.00 49.02 LIG 0.12  C 
BRANCH 64 65
ATOM     65  CD  GLU B 587     -12.681  -4.375  -7.113  1.00 58.19 LIG 0.17  C 
ATOM     66 OE2  GLU B 587     -11.451  -4.541  -6.977  1.00 61.83 LIG-0.65  OA
ATOM     67 OE1  GLU B 587     -13.380  -5.078  -7.874  1.00 60.20 LIG-0.65  OA
ENDBRANCH 64 65
ENDBRANCH 63 64
ENDBRANCH 61 63
ENDBRANCH 59 61
ENDBRANCH 56 57
BRANCH 56 68
ATOM     68  CB  GLU B 588     -15.341  -3.748 -12.311  1.00 23.70 LIG 0.04  C 
BRANCH 68 69
ATOM     69  CG  GLU B 588     -14.986  -4.691 -13.471  1.00 29.39 LIG 0.12  C 
BRANCH 69 70
ATOM     70  CD  GLU B 588     -13.798  -5.594 -13.192  1.00 34.84 LIG 0.17  C 
ATOM     71 OE2  GLU B 588     -13.973  -6.575 -12.437  1.00 36.82 LIG-0.65  OA
ATOM     72 OE1  GLU B 588     -12.696  -5.335 -13.718  1.00 37.43 LIG-0.65  OA
ENDBRANCH 69 70
ENDBRANCH 68 69
ENDBRANCH 56 68
ENDBRANCH 54 56
ENDBRANCH 40 52
ENDBRANCH 1 40
TORSDOF 30
ENDMDL
MODEL 7
USER: ADFR SOLUTION from run 195
USER: SCORE 22.863130 LL:  -5.411 LR: -20.741 RR:   0.000 FEB: -11.792
USER: RMSD 6.691986
USER: SEED 194
USER: STATUS no improvement in best in 6 clusters for 5 generations
USER: GENES 32
USER: genes 0 Translation |==|  0.43491 0.46790 0.48482
USER: genes 1 Rotation |==|  0.53680 0.49498 0.48433 0.99837
USER: genes 2 Torsion [C]-N--CA-[C] |==|  0.62406
USER: genes 3 Torsion [N]-CA--C-[N] |==|  0.41166
USER: genes 4 Torsion [C]-N--CA-[CB] |==|  0.20949
USER: genes 5 Torsion [N]-CA--C-[N] |==|  0.35592
USER: genes 6 Torsion [C]-N--CA-[CB] |==|  0.49377
USER: genes 7 Torsion [N]-CA--CB-[CG2] |==|  0.46471
USER: genes 8 Torsion [N]-CA--C-[N] |==|  0.82556
USER: genes 9 Torsion [C]-N--CA-[C] |==|  0.53282
USER: genes 10 Torsion [N]-CA--C-[OXT] |==|  0.99879
USER: genes 11 Torsion [N]-CA--CB-[CG] |==|  0.73119
USER: genes 12 Torsion [CA]-CB--CG-[SD] |==|  0.31996
USER: genes 13 Torsion [CB]-CG--SD-[CE] |==|  0.08349
USER: genes 14 Torsion [N]-CA--CB-[CG2] |==|  0.54999
USER: genes 15 Torsion [CA]-CB--OG1-[HG1] |==|  0.18474
USER: genes 16 Torsion [N]-CA--CB-[CG] |==|  0.45791
USER: genes 17 Torsion [CA]-CB--CG-[CD] |==|  0.40378
USER: genes 18 Torsion [CB]-CG--CD-[OE2] |==|  0.01597
USER: genes 19 Torsion [N]-C--CA-[N] |==|  0.82867
USER: genes 20 Torsion [C]-CA--CB-[CG] |==|  0.29121
USER: genes 21 Torsion [CA]-CB--CG-[CD1] |==|  0.35970
USER: genes 22 Torsion [C]-CA--N-[C] |==|  0.68950
USER: genes 23 Torsion [N]-C--CA-[N] |==|  0.96970
USER: genes 24 Torsion [C]-CA--N-[C] |==|  0.63337
USER: genes 25 Torsion [N]-C--CA-[N] |==|  0.19555
USER: genes 26 Torsion [C]-CA--CB-[CG] |==|  0.73842
USER: genes 27 Torsion [CA]-CB--CG-[CD] |==|  0.52270
USER: genes 28 Torsion [CB]-CG--CD-[OE2] |==|  0.14696
USER: genes 29 Torsion [C]-CA--CB-[CG] |==|  0.27820
USER: genes 30 Torsion [CA]-CB--CG-[CD] |==|  0.02459
USER: genes 31 Torsion [CB]-CG--CD-[OE2] |==|  0.16455
ROOT
ATOM      1  C   TRP B 589     -11.585   0.300 -12.557  1.00  8.59 LIG 0.24  C 
ATOM      2 O    TRP B 589     -11.046   0.522 -11.478  1.00  9.54 LIG-0.27  OA
ATOM      3  N   GLU B 590     -10.919  -0.089 -13.631  1.00  8.93 LIG-0.35  N 
ATOM      4 H    GLU B 590     -11.300  -0.253 -14.385  1.00  8.93 LIG 0.16  HD
ENDROOT
BRANCH 3 5
ATOM      5  CA  GLU B 590      -9.476  -0.282 -13.655  1.00  8.22 LIG 0.18  C 
BRANCH 5 6
ATOM      6  C   GLU B 590      -8.912   0.346 -14.922  1.00  8.58 LIG 0.24  C 
ATOM      7 O    GLU B 590      -9.580   0.370 -15.950  1.00 10.27 LIG-0.27  OA
ATOM      8  N   THR B 591      -7.685   0.848 -14.838  1.00  8.10 LIG-0.34  N 
ATOM      9 H    THR B 591      -7.209   0.812 -14.122  1.00  8.10 LIG 0.16  HD
BRANCH 8 10
ATOM     10  CA  THR B 591      -7.017   1.510 -15.953  1.00  8.42 LIG 0.20  C 
BRANCH 10 11
ATOM     11  C   THR B 591      -5.523   1.569 -15.673  1.00  8.31 LIG 0.24  C 
ATOM     12  N   VAL B 592      -4.737   1.106 -16.632  1.00  8.54 LIG-0.35  N 
ATOM     13 H    VAL B 592      -5.042   0.780 -17.367  1.00  8.54 LIG 0.16  HD
ATOM     14 O    THR B 591      -5.099   2.046 -14.612  1.00  8.65 LIG-0.27  OA
BRANCH 12 15
ATOM     15  CA  VAL B 592      -3.291   1.097 -16.558  1.00  9.13 LIG 0.18  C 
BRANCH 15 16
ATOM     16  CB  VAL B 592      -2.690   0.437 -17.824  1.00  9.93 LIG 0.01  C 
ATOM     17  CG2 VAL B 592      -1.184   0.698 -17.909  1.00 10.24 LIG 0.01  C 
ATOM     18  CG1 VAL B 592      -3.398   0.937 -19.063  1.00 10.82 LIG 0.01  C 
ENDBRANCH 15 16
BRANCH 15 19
ATOM     19  C   VAL B 592      -2.798   2.525 -16.410  1.00  9.48 LIG 0.24  C 
ATOM     20 O    VAL B 592      -2.184   2.859 -15.400  1.00 10.72 LIG-0.27  OA
ATOM     21  N   MET B 593      -3.064   3.357 -17.417  1.00 10.11 LIG-0.34  N 
ATOM     22 H    MET B 593      -3.539   3.141 -18.101  1.00 10.11 LIG 0.16  HD
BRANCH 21 23
ATOM     23  CA  MET B 593      -2.563   4.734 -17.448  1.00 11.88 LIG 0.19  C 
BRANCH 23 24
ATOM     24  C   MET B 593      -3.208   5.596 -18.530  1.00 15.28 LIG 0.20  C 
ATOM     25 OXT  MET B 593      -4.056   5.097 -19.270  1.00 15.41 LIG-0.65  OA
ATOM     26 O    MET B 593      -2.974   6.807 -18.624  1.00 17.52 LIG-0.65  OA
ENDBRANCH 23 24
BRANCH 23 27
ATOM     27  CB  MET B 593      -1.060   4.746 -17.703  1.00 10.86 LIG 0.05  C 
BRANCH 27 28
ATOM     28  CG  MET B 593      -0.215   4.859 -16.457  1.00 11.31 LIG 0.08  C 
BRANCH 28 29
ATOM     29 SD   MET B 593       0.819   3.435 -16.096  1.00 11.06 LIG-0.17  SA
ATOM     30  CE  MET B 593       1.153   2.801 -17.736  1.00 12.56 LIG 0.09  C 
ENDBRANCH 28 29
ENDBRANCH 27 28
ENDBRANCH 23 27
ENDBRANCH 21 23
ENDBRANCH 15 19
ENDBRANCH 12 15
ENDBRANCH 10 11
BRANCH 10 31
ATOM     31  CB  THR B 591      -7.601   2.937 -16.160  1.00  8.77 LIG 0.15  C 
ATOM     32  CG2 THR B 591      -7.276   3.494 -17.532  1.00  9.88 LIG 0.04  C 
BRANCH 31 33
ATOM     33 OG1  THR B 591      -9.018   2.876 -15.988  1.00  9.65 LIG-0.39  OA
ATOM     34 HG1  THR B 591      -9.195   2.689 -15.189  1.00  9.65 LIG 0.21  HD
ENDBRANCH 31 33
ENDBRANCH 10 31
ENDBRANCH 8 10
ENDBRANCH 5 6
BRANCH 5 35
ATOM     35  CB  GLU B 590      -9.137  -1.777 -13.566  1.00  9.50 LIG 0.04  C 
BRANCH 35 36
ATOM     36  CG  GLU B 590      -7.708  -2.130 -13.940  1.00  9.44 LIG 0.12  C 
BRANCH 36 37
ATOM     37  CD  GLU B 590      -7.106  -3.278 -13.149  1.00 10.34 LIG 0.17  C 
ATOM     38 OE2  GLU B 590      -7.854  -3.889 -12.361  1.00  9.56 LIG-0.65  OA
ATOM     39 OE1  GLU B 590      -5.920  -3.605 -13.352  1.00 12.93 LIG-0.65  OA
ENDBRANCH 36 37
ENDBRANCH 35 36
ENDBRANCH 5 35
ENDBRANCH 3 5
BRANCH 1 40
ATOM     40  CA  TRP B 589     -13.073   0.503 -12.736  1.00 10.41 LIG 0.18  C 
BRANCH 40 41
ATOM     41  CB  TRP B 589     -13.677  -0.813 -13.209  1.00 16.42 LIG 0.07  C 
BRANCH 41 42
ATOM     42  CG  TRP B 589     -14.431  -1.561 -12.183  1.00 28.27 LIG-0.03  A 
ATOM     43  CD1 TRP B 589     -15.688  -2.073 -12.290  1.00 31.36 LIG 0.10  A 
ATOM     44  NE1 TRP B 589     -16.041  -2.705 -11.122  1.00 35.25 LIG-0.36  N 
ATOM     45 HE1  TRP B 589     -16.791  -3.102 -10.975  1.00 35.25 LIG 0.17  HD
ATOM     46  CE2 TRP B 589     -15.007  -2.600 -10.231  1.00 40.47 LIG 0.04  A 
ATOM     47  CD2 TRP B 589     -13.975  -1.883 -10.866  1.00 37.76 LIG-0.00  A 
ATOM     48  CZ2 TRP B 589     -14.895  -3.071  -8.924  1.00 47.06 LIG 0.03  A 
ATOM     49  CE3 TRP B 589     -12.793  -1.636 -10.162  1.00 44.39 LIG 0.01  A 
ATOM     50  CZ3 TRP B 589     -12.682  -2.105  -8.865  1.00 48.60 LIG 0.00  A 
ATOM     51  CH2 TRP B 589     -13.726  -2.814  -8.261  1.00 49.92 LIG 0.00  A 
ENDBRANCH 41 42
ENDBRANCH 40 41
BRANCH 40 52
ATOM     52  N   TRP B 589     -13.296   1.546 -13.713  1.00 10.46 LIG-0.35  N 
ATOM     53 H    TRP B 589     -13.064   1.323 -14.510  1.00 10.46 LIG 0.16  HD
ATOM     54  C   GLU B 588     -13.806   2.726 -13.419  1.00 14.97 LIG 0.24  C 
ATOM     55 O    GLU B 588     -14.172   3.054 -12.290  1.00 17.61 LIG-0.27  OA
BRANCH 54 56
ATOM     56  CA  GLU B 588     -13.916   3.668 -14.607  1.00 18.53 LIG 0.18  C 
BRANCH 56 57
ATOM     57  N   GLU B 588     -13.197   3.151 -15.770  1.00 19.74 LIG-0.35  N 
ATOM     58 H    GLU B 588     -13.369   2.326 -15.942  1.00 19.74 LIG 0.16  HD
ATOM     59  C   GLU B 587     -12.354   3.890 -16.496  1.00 22.74 LIG 0.26  C 
ATOM     60 O    GLU B 587     -12.112   5.072 -16.268  1.00 21.09 LIG-0.27  OA
BRANCH 59 61
ATOM     61  CA  GLU B 587     -11.662   3.190 -17.660  1.00 29.94 LIG 0.40  C 
ATOM     62  N   GLU B 587     -12.629   2.910 -18.721  1.00 28.95 LIG 0.61  N 
BRANCH 61 63
ATOM     63  CB  GLU B 587     -10.528   4.076 -18.185  1.00 39.60 LIG 0.06  C 
BRANCH 63 64
ATOM     64  CG  GLU B 587     -10.912   4.975 -19.355  1.00 49.02 LIG 0.12  C 
BRANCH 64 65
ATOM     65  CD  GLU B 587      -9.717   5.683 -19.967  1.00 58.19 LIG 0.17  C 
ATOM     66 OE2  GLU B 587      -8.734   5.000 -20.320  1.00 61.83 LIG-0.65  OA
ATOM     67 OE1  GLU B 587      -9.759   6.926 -20.090  1.00 60.20 LIG-0.65  OA
ENDBRANCH 64 65
ENDBRANCH 63 64
ENDBRANCH 61 63
ENDBRANCH 59 61
ENDBRANCH 56 57
BRANCH 56 68
ATOM     68  CB  GLU B 588     -15.393   3.947 -14.925  1.00 23.70 LIG 0.04  C 
BRANCH 68 69
ATOM     69  CG  GLU B 588     -15.886   5.295 -14.377  1.00 29.39 LIG 0.12  C 
BRANCH 69 70
ATOM     70  CD  GLU B 588     -14.781   6.176 -13.819  1.00 34.84 LIG 0.17  C 
ATOM     71 OE2  GLU B 588     -13.855   6.510 -14.590  1.00 36.82 LIG-0.65  OA
ATOM     72 OE1  GLU B 588     -14.831   6.538 -12.626  1.00 37.43 LIG-0.65  OA
ENDBRANCH 69 70
ENDBRANCH 68 69
ENDBRANCH 56 68
ENDBRANCH 54 56
ENDBRANCH 40 52
ENDBRANCH 1 40
TORSDOF 30
ENDMDL
MODEL 8
USER: ADFR SOLUTION from run 153
USER: SCORE 24.279984 LL:  -6.631 LR: -20.595 RR:   0.000 FEB: -11.646
USER: RMSD 5.711057
USER: SEED 152
USER: STATUS no improvement in best in 8 clusters for 5 generations
USER: GENES 32
USER: genes 0 Translation |==|  0.44465 0.46036 0.48642
USER: genes 1 Rotation |==|  0.53327 0.51206 0.49156 0.99867
USER: genes 2 Torsion [C]-N--CA-[C] |==|  0.64832
USER: genes 3 Torsion [N]-CA--C-[N] |==|  0.41310
USER: genes 4 Torsion [C]-N--CA-[CB] |==|  0.22758
USER: genes 5 Torsion [N]-CA--C-[N] |==|  0.34036
USER: genes 6 Torsion [C]-N--CA-[CB] |==|  0.45709
USER: genes 7 Torsion [N]-CA--CB-[CG2] |==|  0.86763
USER: genes 8 Torsion [N]-CA--C-[N] |==|  0.39122
USER: genes 9 Torsion [C]-N--CA-[C] |==|  0.62151
USER: genes 10 Torsion [N]-CA--C-[OXT] |==|  0.87830
USER: genes 11 Torsion [N]-CA--CB-[CG] |==|  0.90789
USER: genes 12 Torsion [CA]-CB--CG-[SD] |==|  0.75005
USER: genes 13 Torsion [CB]-CG--SD-[CE] |==|  0.04306
USER: genes 14 Torsion [N]-CA--CB-[CG2] |==|  0.47372
USER: genes 15 Torsion [CA]-CB--OG1-[HG1] |==|  0.30481
USER: genes 16 Torsion [N]-CA--CB-[CG] |==|  0.51687
USER: genes 17 Torsion [CA]-CB--CG-[CD] |==|  0.39363
USER: genes 18 Torsion [CB]-CG--CD-[OE2] |==|  0.95415
USER: genes 19 Torsion [N]-C--CA-[N] |==|  0.91112
USER: genes 20 Torsion [C]-CA--CB-[CG] |==|  0.22595
USER: genes 21 Torsion [CA]-CB--CG-[CD1] |==|  0.73557
USER: genes 22 Torsion [C]-CA--N-[C] |==|  0.69248
USER: genes 23 Torsion [N]-C--CA-[N] |==|  0.51050
USER: genes 24 Torsion [C]-CA--N-[C] |==|  0.78981
USER: genes 25 Torsion [N]-C--CA-[N] |==|  0.51891
USER: genes 26 Torsion [C]-CA--CB-[CG] |==|  0.85309
USER: genes 27 Torsion [CA]-CB--CG-[CD] |==|  0.75066
USER: genes 28 Torsion [CB]-CG--CD-[OE2] |==|  0.61099
USER: genes 29 Torsion [C]-CA--CB-[CG] |==|  0.80893
USER: genes 30 Torsion [CA]-CB--CG-[CD] |==|  0.77902
USER: genes 31 Torsion [CB]-CG--CD-[OE2] |==|  0.26895
ROOT
ATOM      1  C   TRP B 589     -11.300   0.153 -12.522  1.00  8.59 LIG 0.24  C 
ATOM      2 O    TRP B 589     -10.699   0.407 -11.484  1.00  9.54 LIG-0.27  OA
ATOM      3  N   GLU B 590     -10.694  -0.228 -13.634  1.00  8.93 LIG-0.35  N 
ATOM      4 H    GLU B 590     -11.118  -0.415 -14.359  1.00  8.93 LIG 0.16  HD
ENDROOT
BRANCH 3 5
ATOM      5  CA  GLU B 590      -9.249  -0.373 -13.752  1.00  8.22 LIG 0.18  C 
BRANCH 5 6
ATOM      6  C   GLU B 590      -8.765   0.440 -14.943  1.00  8.58 LIG 0.24  C 
ATOM      7 O    GLU B 590      -9.488   0.593 -15.923  1.00 10.27 LIG-0.27  OA
ATOM      8  N   THR B 591      -7.542   0.952 -14.852  1.00  8.10 LIG-0.34  N 
ATOM      9 H    THR B 591      -7.028   0.827 -14.175  1.00  8.10 LIG 0.16  HD
BRANCH 8 10
ATOM     10  CA  THR B 591      -6.946   1.781 -15.896  1.00  8.42 LIG 0.20  C 
BRANCH 10 11
ATOM     11  C   THR B 591      -5.430   1.702 -15.785  1.00  8.31 LIG 0.24  C 
ATOM     12  N   VAL B 592      -4.794   1.280 -16.866  1.00  8.54 LIG-0.35  N 
ATOM     13 H    VAL B 592      -5.203   1.050 -17.586  1.00  8.54 LIG 0.16  HD
ATOM     14 O    THR B 591      -4.856   2.041 -14.742  1.00  8.65 LIG-0.27  OA
BRANCH 12 15
ATOM     15  CA  VAL B 592      -3.354   1.158 -16.960  1.00  9.13 LIG 0.18  C 
BRANCH 15 16
ATOM     16  CB  VAL B 592      -2.965   0.290 -18.183  1.00  9.93 LIG 0.01  C 
ATOM     17  CG2 VAL B 592      -3.796  -0.995 -18.222  1.00 10.24 LIG 0.01  C 
ATOM     18  CG1 VAL B 592      -1.486  -0.020 -18.157  1.00 10.82 LIG 0.01  C 
ENDBRANCH 15 16
BRANCH 15 19
ATOM     19  C   VAL B 592      -2.751   2.546 -17.072  1.00  9.48 LIG 0.24  C 
ATOM     20 O    VAL B 592      -3.312   3.406 -17.746  1.00 10.72 LIG-0.27  OA
ATOM     21  N   MET B 593      -1.615   2.760 -16.406  1.00 10.11 LIG-0.34  N 
ATOM     22 H    MET B 593      -1.192   2.147 -15.977  1.00 10.11 LIG 0.16  HD
BRANCH 21 23
ATOM     23  CA  MET B 593      -0.979   4.079 -16.347  1.00 11.88 LIG 0.19  C 
BRANCH 23 24
ATOM     24  C   MET B 593       0.533   4.040 -16.549  1.00 15.28 LIG 0.20  C 
ATOM     25 OXT  MET B 593       1.194   3.175 -15.973  1.00 15.41 LIG-0.65  OA
ATOM     26 O    MET B 593       1.104   4.792 -17.347  1.00 17.52 LIG-0.65  OA
ENDBRANCH 23 24
BRANCH 23 27
ATOM     27  CB  MET B 593      -1.233   4.731 -14.992  1.00 10.86 LIG 0.05  C 
BRANCH 27 28
ATOM     28  CG  MET B 593      -2.569   4.391 -14.375  1.00 11.31 LIG 0.08  C 
BRANCH 28 29
ATOM     29 SD   MET B 593      -3.918   5.498 -14.802  1.00 11.06 LIG-0.17  SA
ATOM     30  CE  MET B 593      -3.244   6.368 -16.212  1.00 12.56 LIG 0.09  C 
ENDBRANCH 28 29
ENDBRANCH 27 28
ENDBRANCH 23 27
ENDBRANCH 21 23
ENDBRANCH 15 19
ENDBRANCH 12 15
ENDBRANCH 10 11
BRANCH 10 31
ATOM     31  CB  THR B 591      -7.439   3.249 -15.764  1.00  8.77 LIG 0.15  C 
ATOM     32  CG2 THR B 591      -6.677   4.191 -16.676  1.00  9.88 LIG 0.04  C 
BRANCH 31 33
ATOM     33 OG1  THR B 591      -8.831   3.291 -16.084  1.00  9.65 LIG-0.39  OA
ATOM     34 HG1  THR B 591      -9.274   3.442 -15.386  1.00  9.65 LIG 0.21  HD
ENDBRANCH 31 33
ENDBRANCH 10 31
ENDBRANCH 8 10
ENDBRANCH 5 6
BRANCH 5 35
ATOM     35  CB  GLU B 590      -8.873  -1.856 -13.887  1.00  9.50 LIG 0.04  C 
BRANCH 35 36
ATOM     36  CG  GLU B 590      -7.381  -2.137 -13.872  1.00  9.44 LIG 0.12  C 
BRANCH 36 37
ATOM     37  CD  GLU B 590      -6.976  -3.397 -13.125  1.00 10.34 LIG 0.17  C 
ATOM     38 OE2  GLU B 590      -7.812  -3.899 -12.348  1.00  9.56 LIG-0.65  OA
ATOM     39 OE1  GLU B 590      -5.865  -3.912 -13.353  1.00 12.93 LIG-0.65  OA
ENDBRANCH 36 37
ENDBRANCH 35 36
ENDBRANCH 5 35
ENDBRANCH 3 5
BRANCH 1 40
ATOM     40  CA  TRP B 589     -12.803   0.304 -12.604  1.00 10.41 LIG 0.18  C 
BRANCH 40 41
ATOM     41  CB  TRP B 589     -13.432  -1.045 -12.281  1.00 16.42 LIG 0.07  C 
BRANCH 41 42
ATOM     42  CG  TRP B 589     -13.545  -1.354 -10.841  1.00 28.27 LIG-0.03  A 
ATOM     43  CD1 TRP B 589     -12.675  -2.074 -10.080  1.00 31.36 LIG 0.10  A 
ATOM     44  NE1 TRP B 589     -13.126  -2.140  -8.783  1.00 35.25 LIG-0.36  N 
ATOM     45 HE1  TRP B 589     -12.727  -2.541  -8.135  1.00 35.25 LIG 0.17  HD
ATOM     46  CE2 TRP B 589     -14.313  -1.463  -8.691  1.00 40.47 LIG 0.04  A 
ATOM     47  CD2 TRP B 589     -14.608  -0.956  -9.972  1.00 37.76 LIG-0.00  A 
ATOM     48  CZ2 TRP B 589     -15.148  -1.259  -7.596  1.00 47.06 LIG 0.03  A 
ATOM     49  CE3 TRP B 589     -15.782  -0.218 -10.150  1.00 44.39 LIG 0.01  A 
ATOM     50  CZ3 TRP B 589     -16.610  -0.014  -9.060  1.00 48.60 LIG 0.00  A 
ATOM     51  CH2 TRP B 589     -16.289  -0.532  -7.802  1.00 49.92 LIG 0.00  A 
ENDBRANCH 41 42
ENDBRANCH 40 41
BRANCH 40 52
ATOM     52  N   TRP B 589     -13.166   0.728 -13.938  1.00 10.46 LIG-0.35  N 
ATOM     53 H    TRP B 589     -13.042   0.122 -14.536  1.00 10.46 LIG 0.16  HD
ATOM     54  C   GLU B 588     -13.641   1.926 -14.220  1.00 14.97 LIG 0.24  C 
ATOM     55 O    GLU B 588     -13.854   2.797 -13.377  1.00 17.61 LIG-0.27  OA
BRANCH 54 56
ATOM     56  CA  GLU B 588     -13.920   2.150 -15.698  1.00 18.53 LIG 0.18  C 
BRANCH 56 57
ATOM     57  N   GLU B 588     -14.359   3.519 -15.959  1.00 19.74 LIG-0.35  N 
ATOM     58 H    GLU B 588     -13.752   4.014 -16.316  1.00 19.74 LIG 0.16  HD
ATOM     59  C   GLU B 587     -15.587   3.961 -15.672  1.00 22.74 LIG 0.26  C 
ATOM     60 O    GLU B 587     -16.466   3.261 -15.177  1.00 21.09 LIG-0.27  OA
BRANCH 59 61
ATOM     61  CA  GLU B 587     -15.874   5.426 -15.980  1.00 29.94 LIG 0.40  C 
ATOM     62  N   GLU B 587     -17.193   5.797 -15.466  1.00 28.95 LIG 0.61  N 
BRANCH 61 63
ATOM     63  CB  GLU B 587     -14.785   6.301 -15.352  1.00 39.60 LIG 0.06  C 
BRANCH 63 64
ATOM     64  CG  GLU B 587     -14.554   6.059 -13.864  1.00 49.02 LIG 0.12  C 
BRANCH 64 65
ATOM     65  CD  GLU B 587     -15.429   6.935 -12.986  1.00 58.19 LIG 0.17  C 
ATOM     66 OE2  GLU B 587     -14.933   7.428 -11.951  1.00 61.83 LIG-0.65  OA
ATOM     67 OE1  GLU B 587     -16.616   7.126 -13.328  1.00 60.20 LIG-0.65  OA
ENDBRANCH 64 65
ENDBRANCH 63 64
ENDBRANCH 61 63
ENDBRANCH 59 61
ENDBRANCH 56 57
BRANCH 56 68
ATOM     68  CB  GLU B 588     -12.685   1.777 -16.532  1.00 23.70 LIG 0.04  C 
BRANCH 68 69
ATOM     69  CG  GLU B 588     -11.505   2.741 -16.328  1.00 29.39 LIG 0.12  C 
BRANCH 69 70
ATOM     70  CD  GLU B 588     -11.625   4.038 -17.108  1.00 34.84 LIG 0.17  C 
ATOM     71 OE2  GLU B 588     -12.079   5.039 -16.512  1.00 36.82 LIG-0.65  OA
ATOM     72 OE1  GLU B 588     -11.269   4.068 -18.304  1.00 37.43 LIG-0.65  OA
ENDBRANCH 69 70
ENDBRANCH 68 69
ENDBRANCH 56 68
ENDBRANCH 54 56
ENDBRANCH 40 52
ENDBRANCH 1 40
TORSDOF 30
ENDMDL
MODEL 9
USER: ADFR SOLUTION from run 61
USER: SCORE 24.356914 LL:  -6.176 LR: -20.576 RR:   0.000 FEB: -11.627
USER: RMSD 2.039319
USER: SEED 60
USER: STATUS no improvement in best in 6 clusters for 5 generations
USER: GENES 32
USER: genes 0 Translation |==|  0.44422 0.44466 0.48713
USER: genes 1 Rotation |==|  0.53022 0.51710 0.49848 0.99879
USER: genes 2 Torsion [C]-N--CA-[C] |==|  0.64703
USER: genes 3 Torsion [N]-CA--C-[N] |==|  0.41184
USER: genes 4 Torsion [C]-N--CA-[CB] |==|  0.22339
USER: genes 5 Torsion [N]-CA--C-[N] |==|  0.33999
USER: genes 6 Torsion [C]-N--CA-[CB] |==|  0.48636
USER: genes 7 Torsion [N]-CA--CB-[CG2] |==|  0.21067
USER: genes 8 Torsion [N]-CA--C-[N] |==|  0.42606
USER: genes 9 Torsion [C]-N--CA-[C] |==|  0.59602
USER: genes 10 Torsion [N]-CA--C-[OXT] |==|  0.36753
USER: genes 11 Torsion [N]-CA--CB-[CG] |==|  0.77454
USER: genes 12 Torsion [CA]-CB--CG-[SD] |==|  0.86726
USER: genes 13 Torsion [CB]-CG--SD-[CE] |==|  0.38418
USER: genes 14 Torsion [N]-CA--CB-[CG2] |==|  0.50306
USER: genes 15 Torsion [CA]-CB--OG1-[HG1] |==|  0.23551
USER: genes 16 Torsion [N]-CA--CB-[CG] |==|  0.52848
USER: genes 17 Torsion [CA]-CB--CG-[CD] |==|  0.40103
USER: genes 18 Torsion [CB]-CG--CD-[OE2] |==|  0.44090
USER: genes 19 Torsion [N]-C--CA-[N] |==|  0.42752
USER: genes 20 Torsion [C]-CA--CB-[CG] |==|  0.37016
USER: genes 21 Torsion [CA]-CB--CG-[CD1] |==|  0.62571
USER: genes 22 Torsion [C]-CA--N-[C] |==|  0.81764
USER: genes 23 Torsion [N]-C--CA-[N] |==|  0.29047
USER: genes 24 Torsion [C]-CA--N-[C] |==|  0.60402
USER: genes 25 Torsion [N]-C--CA-[N] |==|  0.44756
USER: genes 26 Torsion [C]-CA--CB-[CG] |==|  0.90410
USER: genes 27 Torsion [CA]-CB--CG-[CD] |==|  0.84350
USER: genes 28 Torsion [CB]-CG--CD-[OE2] |==|  0.90049
USER: genes 29 Torsion [C]-CA--CB-[CG] |==|  0.64522
USER: genes 30 Torsion [CA]-CB--CG-[CD] |==|  0.27291
USER: genes 31 Torsion [CB]-CG--CD-[OE2] |==|  0.23440
ROOT
ATOM      1  C   TRP B 589     -11.312  -0.153 -12.507  1.00  8.59 LIG 0.24  C 
ATOM      2 O    TRP B 589     -10.700   0.130 -11.482  1.00  9.54 LIG-0.27  OA
ATOM      3  N   GLU B 590     -10.716  -0.529 -13.626  1.00  8.93 LIG-0.35  N 
ATOM      4 H    GLU B 590     -11.147  -0.736 -14.340  1.00  8.93 LIG 0.16  HD
ENDROOT
BRANCH 3 5
ATOM      5  CA  GLU B 590      -9.270  -0.634 -13.769  1.00  8.22 LIG 0.18  C 
BRANCH 5 6
ATOM      6  C   GLU B 590      -8.833   0.170 -14.984  1.00  8.58 LIG 0.24  C 
ATOM      7 O    GLU B 590      -9.575   0.276 -15.956  1.00 10.27 LIG-0.27  OA
ATOM      8  N   THR B 591      -7.628   0.728 -14.923  1.00  8.10 LIG-0.34  N 
ATOM      9 H    THR B 591      -7.101   0.637 -14.251  1.00  8.10 LIG 0.16  HD
BRANCH 8 10
ATOM     10  CA  THR B 591      -7.078   1.555 -15.993  1.00  8.42 LIG 0.20  C 
BRANCH 10 11
ATOM     11  C   THR B 591      -5.560   1.563 -15.881  1.00  8.31 LIG 0.24  C 
ATOM     12  N   VAL B 592      -4.901   1.140 -16.947  1.00  8.54 LIG-0.35  N 
ATOM     13 H    VAL B 592      -5.296   0.864 -17.659  1.00  8.54 LIG 0.16  HD
ATOM     14 O    THR B 591      -5.007   1.969 -14.851  1.00  8.65 LIG-0.27  OA
BRANCH 12 15
ATOM     15  CA  VAL B 592      -3.456   1.095 -17.039  1.00  9.13 LIG 0.18  C 
BRANCH 15 16
ATOM     16  CB  VAL B 592      -3.021   0.436 -18.371  1.00  9.93 LIG 0.01  C 
ATOM     17  CG2 VAL B 592      -3.204   1.405 -19.542  1.00 10.24 LIG 0.01  C 
ATOM     18  CG1 VAL B 592      -3.792  -0.844 -18.601  1.00 10.82 LIG 0.01  C 
ENDBRANCH 15 16
BRANCH 15 19
ATOM     19  C   VAL B 592      -2.914   2.509 -16.935  1.00  9.48 LIG 0.24  C 
ATOM     20 O    VAL B 592      -3.613   3.460 -17.276  1.00 10.72 LIG-0.27  OA
ATOM     21  N   MET B 593      -1.675   2.641 -16.460  1.00 10.11 LIG-0.34  N 
ATOM     22 H    MET B 593      -1.164   1.976 -16.270  1.00 10.11 LIG 0.16  HD
BRANCH 21 23
ATOM     23  CA  MET B 593      -1.066   3.951 -16.216  1.00 11.88 LIG 0.19  C 
BRANCH 23 24
ATOM     24  C   MET B 593       0.435   3.990 -16.490  1.00 15.28 LIG 0.20  C 
ATOM     25 OXT  MET B 593       0.900   4.910 -17.163  1.00 15.41 LIG-0.65  OA
ATOM     26 O    MET B 593       1.212   3.176 -15.977  1.00 17.52 LIG-0.65  OA
ENDBRANCH 23 24
BRANCH 23 27
ATOM     27  CB  MET B 593      -1.266   4.367 -14.762  1.00 10.86 LIG 0.05  C 
BRANCH 27 28
ATOM     28  CG  MET B 593      -2.621   4.962 -14.463  1.00 11.31 LIG 0.08  C 
BRANCH 28 29
ATOM     29 SD   MET B 593      -3.174   6.231 -15.609  1.00 11.06 LIG-0.17  SA
ATOM     30  CE  MET B 593      -4.899   5.806 -15.819  1.00 12.56 LIG 0.09  C 
ENDBRANCH 28 29
ENDBRANCH 27 28
ENDBRANCH 23 27
ENDBRANCH 21 23
ENDBRANCH 15 19
ENDBRANCH 12 15
ENDBRANCH 10 11
BRANCH 10 31
ATOM     31  CB  THR B 591      -7.651   2.997 -15.908  1.00  8.77 LIG 0.15  C 
ATOM     32  CG2 THR B 591      -7.127   3.887 -17.018  1.00  9.88 LIG 0.04  C 
BRANCH 31 33
ATOM     33 OG1  THR B 591      -9.076   2.924 -15.981  1.00  9.65 LIG-0.39  OA
ATOM     34 HG1  THR B 591      -9.389   2.777 -15.216  1.00  9.65 LIG 0.21  HD
ENDBRANCH 31 33
ENDBRANCH 10 31
ENDBRANCH 8 10
ENDBRANCH 5 6
BRANCH 5 35
ATOM     35  CB  GLU B 590      -8.852  -2.106 -13.883  1.00  9.50 LIG 0.04  C 
BRANCH 35 36
ATOM     36  CG  GLU B 590      -7.356  -2.352 -13.791  1.00  9.44 LIG 0.12  C 
BRANCH 36 37
ATOM     37  CD  GLU B 590      -6.962  -3.635 -13.079  1.00 10.34 LIG 0.17  C 
ATOM     38 OE2  GLU B 590      -5.829  -4.099 -13.313  1.00  9.56 LIG-0.65  OA
ATOM     39 OE1  GLU B 590      -7.747  -4.142 -12.255  1.00 12.93 LIG-0.65  OA
ENDBRANCH 36 37
ENDBRANCH 35 36
ENDBRANCH 5 35
ENDBRANCH 3 5
BRANCH 1 40
ATOM     40  CA  TRP B 589     -12.821  -0.047 -12.562  1.00 10.41 LIG 0.18  C 
BRANCH 40 41
ATOM     41  CB  TRP B 589     -13.179   1.336 -13.089  1.00 16.42 LIG 0.07  C 
BRANCH 41 42
ATOM     42  CG  TRP B 589     -14.208   1.356 -14.148  1.00 28.27 LIG-0.03  A 
ATOM     43  CD1 TRP B 589     -14.184   2.065 -15.310  1.00 31.36 LIG 0.10  A 
ATOM     44  NE1 TRP B 589     -15.323   1.817 -16.038  1.00 35.25 LIG-0.36  N 
ATOM     45 HE1  TRP B 589     -15.510   2.157 -16.806  1.00 35.25 LIG 0.17  HD
ATOM     46  CE2 TRP B 589     -16.111   0.940 -15.342  1.00 40.47 LIG 0.04  A 
ATOM     47  CD2 TRP B 589     -15.439   0.629 -14.144  1.00 37.76 LIG-0.00  A 
ATOM     48  CZ2 TRP B 589     -17.355   0.399 -15.663  1.00 47.06 LIG 0.03  A 
ATOM     49  CE3 TRP B 589     -16.040  -0.256 -13.244  1.00 44.39 LIG 0.01  A 
ATOM     50  CZ3 TRP B 589     -17.274  -0.794 -13.565  1.00 48.60 LIG 0.00  A 
ATOM     51  CH2 TRP B 589     -17.916  -0.465 -14.763  1.00 49.92 LIG 0.00  A 
ENDBRANCH 41 42
ENDBRANCH 40 41
BRANCH 40 52
ATOM     52  N   TRP B 589     -13.359  -0.243 -11.234  1.00 10.46 LIG-0.35  N 
ATOM     53 H    TRP B 589     -13.743   0.458 -10.915  1.00 10.46 LIG 0.16  HD
ATOM     54  C   GLU B 588     -13.275  -1.380 -10.571  1.00 14.97 LIG 0.24  C 
ATOM     55 O    GLU B 588     -12.757  -2.401 -11.022  1.00 17.61 LIG-0.27  OA
BRANCH 54 56
ATOM     56  CA  GLU B 588     -13.888  -1.333  -9.181  1.00 18.53 LIG 0.18  C 
BRANCH 56 57
ATOM     57  N   GLU B 588     -15.177  -2.020  -9.139  1.00 19.74 LIG-0.35  N 
ATOM     58 H    GLU B 588     -15.206  -2.729  -9.626  1.00 19.74 LIG 0.16  HD
ATOM     59  C   GLU B 587     -16.213  -1.589  -8.413  1.00 22.74 LIG 0.26  C 
ATOM     60 O    GLU B 587     -16.178  -0.588  -7.703  1.00 21.09 LIG-0.27  OA
BRANCH 59 61
ATOM     61  CA  GLU B 587     -17.496  -2.405  -8.504  1.00 29.94 LIG 0.40  C 
ATOM     62  N   GLU B 587     -18.362  -2.106  -7.363  1.00 28.95 LIG 0.61  N 
BRANCH 61 63
ATOM     63  CB  GLU B 587     -18.211  -2.084  -9.821  1.00 39.60 LIG 0.06  C 
BRANCH 63 64
ATOM     64  CG  GLU B 587     -18.069  -0.639 -10.286  1.00 49.02 LIG 0.12  C 
BRANCH 64 65
ATOM     65  CD  GLU B 587     -18.546   0.360  -9.247  1.00 58.19 LIG 0.17  C 
ATOM     66 OE2  GLU B 587     -19.531   0.062  -8.540  1.00 61.83 LIG-0.65  OA
ATOM     67 OE1  GLU B 587     -17.938   1.446  -9.141  1.00 60.20 LIG-0.65  OA
ENDBRANCH 64 65
ENDBRANCH 63 64
ENDBRANCH 61 63
ENDBRANCH 59 61
ENDBRANCH 56 57
BRANCH 56 68
ATOM     68  CB  GLU B 588     -12.903  -1.904  -8.150  1.00 23.70 LIG 0.04  C 
BRANCH 68 69
ATOM     69  CG  GLU B 588     -13.518  -3.003  -7.269  1.00 29.39 LIG 0.12  C 
BRANCH 69 70
ATOM     70  CD  GLU B 588     -13.194  -4.414  -7.726  1.00 34.84 LIG 0.17  C 
ATOM     71 OE2  GLU B 588     -12.111  -4.916  -7.352  1.00 36.82 LIG-0.65  OA
ATOM     72 OE1  GLU B 588     -14.008  -5.026  -8.450  1.00 37.43 LIG-0.65  OA
ENDBRANCH 69 70
ENDBRANCH 68 69
ENDBRANCH 56 68
ENDBRANCH 54 56
ENDBRANCH 40 52
ENDBRANCH 1 40
TORSDOF 30
ENDMDL
MODEL 10
USER: ADFR SOLUTION from run 61
USER: SCORE 23.812562 LL:  -6.711 LR: -20.251 RR:   0.000 FEB: -11.302
USER: RMSD 6.388451
USER: SEED 60
USER: STATUS no improvement in best in 6 clusters for 5 generations
USER: GENES 32
USER: genes 0 Translation |==|  0.44089 0.46301 0.48780
USER: genes 1 Rotation |==|  0.51536 0.51267 0.48829 0.99947
USER: genes 2 Torsion [C]-N--CA-[C] |==|  0.64607
USER: genes 3 Torsion [N]-CA--C-[N] |==|  0.38837
USER: genes 4 Torsion [C]-N--CA-[CB] |==|  0.25000
USER: genes 5 Torsion [N]-CA--C-[N] |==|  0.33684
USER: genes 6 Torsion [C]-N--CA-[CB] |==|  0.48925
USER: genes 7 Torsion [N]-CA--CB-[CG2] |==|  0.18458
USER: genes 8 Torsion [N]-CA--C-[N] |==|  0.43074
USER: genes 9 Torsion [C]-N--CA-[C] |==|  0.60105
USER: genes 10 Torsion [N]-CA--C-[OXT] |==|  0.39495
USER: genes 11 Torsion [N]-CA--CB-[CG] |==|  0.78243
USER: genes 12 Torsion [CA]-CB--CG-[SD] |==|  0.86284
USER: genes 13 Torsion [CB]-CG--SD-[CE] |==|  0.39549
USER: genes 14 Torsion [N]-CA--CB-[CG2] |==|  0.50692
USER: genes 15 Torsion [CA]-CB--OG1-[HG1] |==|  0.19594
USER: genes 16 Torsion [N]-CA--CB-[CG] |==|  0.50076
USER: genes 17 Torsion [CA]-CB--CG-[CD] |==|  0.41008
USER: genes 18 Torsion [CB]-CG--CD-[OE2] |==|  0.46141
USER: genes 19 Torsion [N]-C--CA-[N] |==|  0.87864
USER: genes 20 Torsion [C]-CA--CB-[CG] |==|  0.23610
USER: genes 21 Torsion [CA]-CB--CG-[CD1] |==|  0.70403
USER: genes 22 Torsion [C]-CA--N-[C] |==|  0.70158
USER: genes 23 Torsion [N]-C--CA-[N] |==|  0.72696
USER: genes 24 Torsion [C]-CA--N-[C] |==|  0.74068
USER: genes 25 Torsion [N]-C--CA-[N] |==|  0.22435
USER: genes 26 Torsion [C]-CA--CB-[CG] |==|  0.63147
USER: genes 27 Torsion [CA]-CB--CG-[CD] |==|  0.22940
USER: genes 28 Torsion [CB]-CG--CD-[OE2] |==|  0.86846
USER: genes 29 Torsion [C]-CA--CB-[CG] |==|  0.57495
USER: genes 30 Torsion [CA]-CB--CG-[CD] |==|  0.22230
USER: genes 31 Torsion [CB]-CG--CD-[OE2] |==|  0.22971
ROOT
ATOM      1  C   TRP B 589     -11.410   0.205 -12.492  1.00  8.59 LIG 0.24  C 
ATOM      2 O    TRP B 589     -10.801   0.526 -11.477  1.00  9.54 LIG-0.27  OA
ATOM      3  N   GLU B 590     -10.813  -0.262 -13.576  1.00  8.93 LIG-0.35  N 
ATOM      4 H    GLU B 590     -11.243  -0.496 -14.284  1.00  8.93 LIG 0.16  HD
ENDROOT
BRANCH 3 5
ATOM      5  CA  GLU B 590      -9.371  -0.432 -13.689  1.00  8.22 LIG 0.18  C 
BRANCH 5 6
ATOM      6  C   GLU B 590      -8.886   0.272 -14.949  1.00  8.58 LIG 0.24  C 
ATOM      7 O    GLU B 590      -9.542   0.208 -15.984  1.00 10.27 LIG-0.27  OA
ATOM      8  N   THR B 591      -7.738   0.934 -14.852  1.00  8.10 LIG-0.34  N 
ATOM      9 H    THR B 591      -7.269   0.960 -14.132  1.00  8.10 LIG 0.16  HD
BRANCH 8 10
ATOM     10  CA  THR B 591      -7.157   1.684 -15.960  1.00  8.42 LIG 0.20  C 
BRANCH 10 11
ATOM     11  C   THR B 591      -5.639   1.631 -15.851  1.00  8.31 LIG 0.24  C 
ATOM     12  N   VAL B 592      -5.004   1.109 -16.889  1.00  8.54 LIG-0.35  N 
ATOM     13 H    VAL B 592      -5.414   0.804 -17.580  1.00  8.54 LIG 0.16  HD
ATOM     14 O    THR B 591      -5.063   2.079 -14.852  1.00  8.65 LIG-0.27  OA
BRANCH 12 15
ATOM     15  CA  VAL B 592      -3.564   0.992 -16.979  1.00  9.13 LIG 0.18  C 
BRANCH 15 16
ATOM     16  CB  VAL B 592      -3.163   0.249 -18.278  1.00  9.93 LIG 0.01  C 
ATOM     17  CG2 VAL B 592      -3.522   1.083 -19.512  1.00 10.24 LIG 0.01  C 
ATOM     18  CG1 VAL B 592      -3.823  -1.109 -18.331  1.00 10.82 LIG 0.01  C 
ENDBRANCH 15 16
BRANCH 15 19
ATOM     19  C   VAL B 592      -2.956   2.382 -16.944  1.00  9.48 LIG 0.24  C 
ATOM     20 O    VAL B 592      -3.622   3.351 -17.302  1.00 10.72 LIG-0.27  OA
ATOM     21  N   MET B 593      -1.699   2.475 -16.509  1.00 10.11 LIG-0.34  N 
ATOM     22 H    MET B 593      -1.213   1.795 -16.309  1.00 10.11 LIG 0.16  HD
BRANCH 21 23
ATOM     23  CA  MET B 593      -1.025   3.764 -16.333  1.00 11.88 LIG 0.19  C 
BRANCH 23 24
ATOM     24  C   MET B 593       0.458   3.735 -16.692  1.00 15.28 LIG 0.20  C 
ATOM     25 OXT  MET B 593       0.960   4.708 -17.256  1.00 15.41 LIG-0.65  OA
ATOM     26 O    MET B 593       1.193   2.801 -16.350  1.00 17.52 LIG-0.65  OA
ENDBRANCH 23 24
BRANCH 23 27
ATOM     27  CB  MET B 593      -1.124   4.220 -14.881  1.00 10.86 LIG 0.05  C 
BRANCH 27 28
ATOM     28  CG  MET B 593      -2.459   4.817 -14.502  1.00 11.31 LIG 0.08  C 
BRANCH 28 29
ATOM     29 SD   MET B 593      -3.080   6.081 -15.617  1.00 11.06 LIG-0.17  SA
ATOM     30  CE  MET B 593      -4.835   5.730 -15.625  1.00 12.56 LIG 0.09  C 
ENDBRANCH 28 29
ENDBRANCH 27 28
ENDBRANCH 23 27
ENDBRANCH 21 23
ENDBRANCH 15 19
ENDBRANCH 12 15
ENDBRANCH 10 11
BRANCH 10 31
ATOM     31  CB  THR B 591      -7.665   3.153 -15.942  1.00  8.77 LIG 0.15  C 
ATOM     32  CG2 THR B 591      -7.134   3.957 -17.113  1.00  9.88 LIG 0.04  C 
BRANCH 31 33
ATOM     33 OG1  THR B 591      -9.094   3.138 -15.977  1.00  9.65 LIG-0.39  OA
ATOM     34 HG1  THR B 591      -9.389   2.856 -15.243  1.00  9.65 LIG 0.21  HD
ENDBRANCH 31 33
ENDBRANCH 10 31
ENDBRANCH 8 10
ENDBRANCH 5 6
BRANCH 5 35
ATOM     35  CB  GLU B 590      -9.010  -1.924 -13.699  1.00  9.50 LIG 0.04  C 
BRANCH 35 36
ATOM     36  CG  GLU B 590      -7.524  -2.218 -13.807  1.00  9.44 LIG 0.12  C 
BRANCH 36 37
ATOM     37  CD  GLU B 590      -7.068  -3.475 -13.086  1.00 10.34 LIG 0.17  C 
ATOM     38 OE2  GLU B 590      -5.931  -3.912 -13.352  1.00  9.56 LIG-0.65  OA
ATOM     39 OE1  GLU B 590      -7.809  -3.988 -12.224  1.00 12.93 LIG-0.65  OA
ENDBRANCH 36 37
ENDBRANCH 35 36
ENDBRANCH 5 35
ENDBRANCH 3 5
BRANCH 1 40
ATOM     40  CA  TRP B 589     -12.912   0.366 -12.579  1.00 10.41 LIG 0.18  C 
BRANCH 40 41
ATOM     41  CB  TRP B 589     -13.544  -1.013 -12.444  1.00 16.42 LIG 0.07  C 
BRANCH 41 42
ATOM     42  CG  TRP B 589     -13.758  -1.471 -11.057  1.00 28.27 LIG-0.03  A 
ATOM     43  CD1 TRP B 589     -13.055  -2.424 -10.384  1.00 31.36 LIG 0.10  A 
ATOM     44  NE1 TRP B 589     -13.553  -2.567  -9.111  1.00 35.25 LIG-0.36  N 
ATOM     45 HE1  TRP B 589     -13.253  -3.110  -8.515  1.00 35.25 LIG 0.17  HD
ATOM     46  CE2 TRP B 589     -14.603  -1.703  -8.946  1.00 40.47 LIG 0.04  A 
ATOM     47  CD2 TRP B 589     -14.761  -0.998 -10.155  1.00 37.76 LIG-0.00  A 
ATOM     48  CZ2 TRP B 589     -15.425  -1.488  -7.843  1.00 47.06 LIG 0.03  A 
ATOM     49  CE3 TRP B 589     -15.779  -0.044 -10.251  1.00 44.39 LIG 0.01  A 
ATOM     50  CZ3 TRP B 589     -16.594   0.170  -9.153  1.00 48.60 LIG 0.00  A 
ATOM     51  CH2 TRP B 589     -16.411  -0.547  -7.966  1.00 49.92 LIG 0.00  A 
ENDBRANCH 41 42
ENDBRANCH 40 41
BRANCH 40 52
ATOM     52  N   TRP B 589     -13.253   0.961 -13.852  1.00 10.46 LIG-0.35  N 
ATOM     53 H    TRP B 589     -13.160   0.423 -14.517  1.00 10.46 LIG 0.16  HD
ATOM     54  C   GLU B 588     -13.666   2.206 -13.990  1.00 14.97 LIG 0.24  C 
ATOM     55 O    GLU B 588     -13.833   2.983 -13.049  1.00 17.61 LIG-0.27  OA
BRANCH 54 56
ATOM     56  CA  GLU B 588     -13.934   2.615 -15.429  1.00 18.53 LIG 0.18  C 
BRANCH 56 57
ATOM     57  N   GLU B 588     -12.805   3.349 -15.997  1.00 19.74 LIG-0.35  N 
ATOM     58 H    GLU B 588     -12.202   2.841 -16.342  1.00 19.74 LIG 0.16  HD
ATOM     59  C   GLU B 587     -12.717   4.682 -15.983  1.00 22.74 LIG 0.26  C 
ATOM     60 O    GLU B 587     -13.576   5.417 -15.507  1.00 21.09 LIG-0.27  OA
BRANCH 59 61
ATOM     61  CA  GLU B 587     -11.458   5.289 -16.592  1.00 29.94 LIG 0.40  C 
ATOM     62  N   GLU B 587     -11.581   5.339 -18.049  1.00 28.95 LIG 0.61  N 
BRANCH 61 63
ATOM     63  CB  GLU B 587     -11.243   6.694 -16.020  1.00 39.60 LIG 0.06  C 
BRANCH 63 64
ATOM     64  CG  GLU B 587     -10.934   7.764 -17.062  1.00 49.02 LIG 0.12  C 
BRANCH 64 65
ATOM     65  CD  GLU B 587     -12.184   8.312 -17.727  1.00 58.19 LIG 0.17  C 
ATOM     66 OE2  GLU B 587     -13.042   7.507 -18.143  1.00 61.83 LIG-0.65  OA
ATOM     67 OE1  GLU B 587     -12.306   9.551 -17.837  1.00 60.20 LIG-0.65  OA
ENDBRANCH 64 65
ENDBRANCH 63 64
ENDBRANCH 61 63
ENDBRANCH 59 61
ENDBRANCH 56 57
BRANCH 56 68
ATOM     68  CB  GLU B 588     -14.296   1.382 -16.270  1.00 23.70 LIG 0.04  C 
BRANCH 68 69
ATOM     69  CG  GLU B 588     -13.946   1.542 -17.758  1.00 29.39 LIG 0.12  C 
BRANCH 69 70
ATOM     70  CD  GLU B 588     -12.481   1.302 -18.078  1.00 34.84 LIG 0.17  C 
ATOM     71 OE2  GLU B 588     -12.101   0.120 -18.228  1.00 36.82 LIG-0.65  OA
ATOM     72 OE1  GLU B 588     -11.710   2.278 -18.182  1.00 37.43 LIG-0.65  OA
ENDBRANCH 69 70
ENDBRANCH 68 69
ENDBRANCH 56 68
ENDBRANCH 54 56
ENDBRANCH 40 52
ENDBRANCH 1 40
TORSDOF 30
ENDMDL
MODEL 11
USER: ADFR SOLUTION from run 62
USER: SCORE 23.715626 LL:  -6.644 LR: -20.190 RR:   0.000 FEB: -11.241
USER: RMSD 6.517938
USER: SEED 61
USER: STATUS no improvement in best in 10 clusters for 5 generations
USER: GENES 32
USER: genes 0 Translation |==|  0.44046 0.46527 0.48687
USER: genes 1 Rotation |==|  0.51320 0.50283 0.49120 0.99974
USER: genes 2 Torsion [C]-N--CA-[C] |==|  0.63105
USER: genes 3 Torsion [N]-CA--C-[N] |==|  0.38385
USER: genes 4 Torsion [C]-N--CA-[CB] |==|  0.24844
USER: genes 5 Torsion [N]-CA--C-[N] |==|  0.35200
USER: genes 6 Torsion [C]-N--CA-[CB] |==|  0.48889
USER: genes 7 Torsion [N]-CA--CB-[CG2] |==|  0.52282
USER: genes 8 Torsion [N]-CA--C-[N] |==|  0.43487
USER: genes 9 Torsion [C]-N--CA-[C] |==|  0.59110
USER: genes 10 Torsion [N]-CA--C-[OXT] |==|  0.38422
USER: genes 11 Torsion [N]-CA--CB-[CG] |==|  0.81770
USER: genes 12 Torsion [CA]-CB--CG-[SD] |==|  0.81685
USER: genes 13 Torsion [CB]-CG--SD-[CE] |==|  0.39259
USER: genes 14 Torsion [N]-CA--CB-[CG2] |==|  0.53482
USER: genes 15 Torsion [CA]-CB--OG1-[HG1] |==|  0.19586
USER: genes 16 Torsion [N]-CA--CB-[CG] |==|  0.48999
USER: genes 17 Torsion [CA]-CB--CG-[CD] |==|  0.44757
USER: genes 18 Torsion [CB]-CG--CD-[OE2] |==|  0.95887
USER: genes 19 Torsion [N]-C--CA-[N] |==|  0.77089
USER: genes 20 Torsion [C]-CA--CB-[CG] |==|  0.28594
USER: genes 21 Torsion [CA]-CB--CG-[CD1] |==|  0.42727
USER: genes 22 Torsion [C]-CA--N-[C] |==|  0.19614
USER: genes 23 Torsion [N]-C--CA-[N] |==|  0.41827
USER: genes 24 Torsion [C]-CA--N-[C] |==|  0.62777
USER: genes 25 Torsion [N]-C--CA-[N] |==|  0.68553
USER: genes 26 Torsion [C]-CA--CB-[CG] |==|  0.43216
USER: genes 27 Torsion [CA]-CB--CG-[CD] |==|  0.12991
USER: genes 28 Torsion [CB]-CG--CD-[OE2] |==|  0.77234
USER: genes 29 Torsion [C]-CA--CB-[CG] |==|  0.39095
USER: genes 30 Torsion [CA]-CB--CG-[CD] |==|  0.94704
USER: genes 31 Torsion [CB]-CG--CD-[OE2] |==|  0.32343
ROOT
ATOM      1  C   TRP B 589     -11.423   0.249 -12.513  1.00  8.59 LIG 0.24  C 
ATOM      2 O    TRP B 589     -10.858   0.586 -11.477  1.00  9.54 LIG-0.27  OA
ATOM      3  N   GLU B 590     -10.779  -0.222 -13.568  1.00  8.93 LIG-0.35  N 
ATOM      4 H    GLU B 590     -11.177  -0.466 -14.290  1.00  8.93 LIG 0.16  HD
ENDROOT
BRANCH 3 5
ATOM      5  CA  GLU B 590      -9.332  -0.376 -13.622  1.00  8.22 LIG 0.18  C 
BRANCH 5 6
ATOM      6  C   GLU B 590      -8.820   0.203 -14.933  1.00  8.58 LIG 0.24  C 
ATOM      7 O    GLU B 590      -9.428  -0.003 -15.979  1.00 10.27 LIG-0.27  OA
ATOM      8  N   THR B 591      -7.703   0.919 -14.868  1.00  8.10 LIG-0.34  N 
ATOM      9 H    THR B 591      -7.266   1.045 -14.138  1.00  8.10 LIG 0.16  HD
BRANCH 8 10
ATOM     10  CA  THR B 591      -7.103   1.566 -16.030  1.00  8.42 LIG 0.20  C 
BRANCH 10 11
ATOM     11  C   THR B 591      -5.592   1.602 -15.851  1.00  8.31 LIG 0.24  C 
ATOM     12  N   VAL B 592      -4.880   1.097 -16.846  1.00  8.54 LIG-0.35  N 
ATOM     13 H    VAL B 592      -5.240   0.755 -17.548  1.00  8.54 LIG 0.16  HD
ATOM     14 O    THR B 591      -5.089   2.102 -14.836  1.00  8.65 LIG-0.27  OA
BRANCH 12 15
ATOM     15  CA  VAL B 592      -3.433   1.060 -16.868  1.00  9.13 LIG 0.18  C 
BRANCH 15 16
ATOM     16  CB  VAL B 592      -2.931   0.313 -18.129  1.00  9.93 LIG 0.01  C 
ATOM     17  CG2 VAL B 592      -1.418   0.091 -18.061  1.00 10.24 LIG 0.01  C 
ATOM     18  CG1 VAL B 592      -3.312   1.076 -19.377  1.00 10.82 LIG 0.01  C 
ENDBRANCH 15 16
BRANCH 15 19
ATOM     19  C   VAL B 592      -2.907   2.484 -16.840  1.00  9.48 LIG 0.24  C 
ATOM     20 O    VAL B 592      -3.618   3.408 -17.226  1.00 10.72 LIG-0.27  OA
ATOM     21  N   MET B 593      -1.667   2.654 -16.380  1.00 10.11 LIG-0.34  N 
ATOM     22 H    MET B 593      -1.147   2.006 -16.159  1.00 10.11 LIG 0.16  HD
BRANCH 21 23
ATOM     23  CA  MET B 593      -1.072   3.982 -16.207  1.00 11.88 LIG 0.19  C 
BRANCH 23 24
ATOM     24  C   MET B 593       0.434   4.015 -16.450  1.00 15.28 LIG 0.20  C 
ATOM     25 OXT  MET B 593       0.922   4.956 -17.078  1.00 15.41 LIG-0.65  OA
ATOM     26 O    MET B 593       1.193   3.174 -15.955  1.00 17.52 LIG-0.65  OA
ENDBRANCH 23 24
BRANCH 23 27
ATOM     27  CB  MET B 593      -1.307   4.488 -14.788  1.00 10.86 LIG 0.05  C 
BRANCH 27 28
ATOM     28  CG  MET B 593      -2.755   4.746 -14.448  1.00 11.31 LIG 0.08  C 
BRANCH 28 29
ATOM     29 SD   MET B 593      -3.533   6.086 -15.359  1.00 11.06 LIG-0.17  SA
ATOM     30  CE  MET B 593      -5.171   5.425 -15.651  1.00 12.56 LIG 0.09  C 
ENDBRANCH 28 29
ENDBRANCH 27 28
ENDBRANCH 23 27
ENDBRANCH 21 23
ENDBRANCH 15 19
ENDBRANCH 12 15
ENDBRANCH 10 11
BRANCH 10 31
ATOM     31  CB  THR B 591      -7.677   3.000 -16.206  1.00  8.77 LIG 0.15  C 
ATOM     32  CG2 THR B 591      -7.323   3.597 -17.553  1.00  9.88 LIG 0.04  C 
BRANCH 31 33
ATOM     33 OG1  THR B 591      -9.097   2.939 -16.064  1.00  9.65 LIG-0.39  OA
ATOM     34 HG1  THR B 591      -9.293   2.784 -15.262  1.00  9.65 LIG 0.21  HD
ENDBRANCH 31 33
ENDBRANCH 10 31
ENDBRANCH 8 10
ENDBRANCH 5 6
BRANCH 5 35
ATOM     35  CB  GLU B 590      -8.948  -1.855 -13.468  1.00  9.50 LIG 0.04  C 
BRANCH 35 36
ATOM     36  CG  GLU B 590      -7.463  -2.144 -13.596  1.00  9.44 LIG 0.12  C 
BRANCH 36 37
ATOM     37  CD  GLU B 590      -7.020  -3.476 -13.015  1.00 10.34 LIG 0.17  C 
ATOM     38 OE2  GLU B 590      -7.815  -4.067 -12.256  1.00  9.56 LIG-0.65  OA
ATOM     39 OE1  GLU B 590      -5.921  -3.956 -13.354  1.00 12.93 LIG-0.65  OA
ENDBRANCH 36 37
ENDBRANCH 35 36
ENDBRANCH 5 35
ENDBRANCH 3 5
BRANCH 1 40
ATOM     40  CA  TRP B 589     -12.921   0.393 -12.660  1.00 10.41 LIG 0.18  C 
BRANCH 40 41
ATOM     41  CB  TRP B 589     -13.433  -0.790 -13.471  1.00 16.42 LIG 0.07  C 
BRANCH 41 42
ATOM     42  CG  TRP B 589     -14.096  -1.849 -12.683  1.00 28.27 LIG-0.03  A 
ATOM     43  CD1 TRP B 589     -15.043  -2.728 -13.113  1.00 31.36 LIG 0.10  A 
ATOM     44  NE1 TRP B 589     -15.413  -3.563 -12.086  1.00 35.25 LIG-0.36  N 
ATOM     45 HE1  TRP B 589     -15.993  -4.196 -12.140  1.00 35.25 LIG 0.17  HD
ATOM     46  CE2 TRP B 589     -14.706  -3.224 -10.963  1.00 40.47 LIG 0.04  A 
ATOM     47  CD2 TRP B 589     -13.867  -2.145 -11.303  1.00 37.76 LIG-0.00  A 
ATOM     48  CZ2 TRP B 589     -14.738  -3.770  -9.682  1.00 47.06 LIG 0.03  A 
ATOM     49  CE3 TRP B 589     -13.033  -1.604 -10.321  1.00 44.39 LIG 0.01  A 
ATOM     50  CZ3 TRP B 589     -13.064  -2.149  -9.049  1.00 48.60 LIG 0.00  A 
ATOM     51  CH2 TRP B 589     -13.909  -3.220  -8.742  1.00 49.92 LIG 0.00  A 
ENDBRANCH 41 42
ENDBRANCH 40 41
BRANCH 40 52
ATOM     52  N   TRP B 589     -13.215   1.638 -13.334  1.00 10.46 LIG-0.35  N 
ATOM     53 H    TRP B 589     -13.571   2.229 -12.821  1.00 10.46 LIG 0.16  HD
ATOM     54  C   GLU B 588     -12.963   1.855 -14.610  1.00 14.97 LIG 0.24  C 
ATOM     55 O    GLU B 588     -12.427   1.034 -15.354  1.00 17.61 LIG-0.27  OA
BRANCH 54 56
ATOM     56  CA  GLU B 588     -13.389   3.230 -15.101  1.00 18.53 LIG 0.18  C 
BRANCH 56 57
ATOM     57  N   GLU B 588     -12.542   3.693 -16.199  1.00 19.74 LIG-0.35  N 
ATOM     58 H    GLU B 588     -12.405   3.097 -16.804  1.00 19.74 LIG 0.16  HD
ATOM     59  C   GLU B 587     -12.031   4.926 -16.259  1.00 22.74 LIG 0.26  C 
ATOM     60 O    GLU B 587     -12.232   5.790 -15.410  1.00 21.09 LIG-0.27  OA
BRANCH 59 61
ATOM     61  CA  GLU B 587     -11.144   5.240 -17.457  1.00 29.94 LIG 0.40  C 
ATOM     62  N   GLU B 587      -9.766   5.457 -17.017  1.00 28.95 LIG 0.61  N 
BRANCH 61 63
ATOM     63  CB  GLU B 587     -11.213   4.081 -18.458  1.00 39.60 LIG 0.06  C 
BRANCH 63 64
ATOM     64  CG  GLU B 587     -10.885   4.464 -19.897  1.00 49.02 LIG 0.12  C 
BRANCH 64 65
ATOM     65  CD  GLU B 587      -9.632   5.314 -20.006  1.00 58.19 LIG 0.17  C 
ATOM     66 OE2  GLU B 587      -9.723   6.541 -19.795  1.00 61.83 LIG-0.65  OA
ATOM     67 OE1  GLU B 587      -8.556   4.755 -20.308  1.00 60.20 LIG-0.65  OA
ENDBRANCH 64 65
ENDBRANCH 63 64
ENDBRANCH 61 63
ENDBRANCH 59 61
ENDBRANCH 56 57
BRANCH 56 68
ATOM     68  CB  GLU B 588     -14.874   3.216 -15.492  1.00 23.70 LIG 0.04  C 
BRANCH 68 69
ATOM     69  CG  GLU B 588     -15.618   4.497 -15.085  1.00 29.39 LIG 0.12  C 
BRANCH 69 70
ATOM     70  CD  GLU B 588     -14.913   5.306 -14.010  1.00 34.84 LIG 0.17  C 
ATOM     71 OE2  GLU B 588     -14.518   6.454 -14.308  1.00 36.82 LIG-0.65  OA
ATOM     72 OE1  GLU B 588     -14.754   4.809 -12.876  1.00 37.43 LIG-0.65  OA
ENDBRANCH 69 70
ENDBRANCH 68 69
ENDBRANCH 56 68
ENDBRANCH 54 56
ENDBRANCH 40 52
ENDBRANCH 1 40
TORSDOF 30
ENDMDL
MODEL 12
USER: ADFR SOLUTION from run 154
USER: SCORE 24.346429 LL:  -6.204 LR: -20.184 RR:   0.000 FEB: -11.235
USER: RMSD 5.381657
USER: SEED 153
USER: STATUS searching
USER: GENES 32
USER: genes 0 Translation |==|  0.44334 0.45675 0.48352
USER: genes 1 Rotation |==|  0.54832 0.49953 0.48255 0.99735
USER: genes 2 Torsion [C]-N--CA-[C] |==|  0.64919
USER: genes 3 Torsion [N]-CA--C-[N] |==|  0.29773
USER: genes 4 Torsion [C]-N--CA-[CB] |==|  0.77095
USER: genes 5 Torsion [N]-CA--C-[N] |==|  0.15594
USER: genes 6 Torsion [C]-N--CA-[CB] |==|  0.44892
USER: genes 7 Torsion [N]-CA--CB-[CG2] |==|  0.64049
USER: genes 8 Torsion [N]-CA--C-[N] |==|  0.47222
USER: genes 9 Torsion [C]-N--CA-[C] |==|  0.19689
USER: genes 10 Torsion [N]-CA--C-[OXT] |==|  0.00647
USER: genes 11 Torsion [N]-CA--CB-[CG] |==|  0.82547
USER: genes 12 Torsion [CA]-CB--CG-[SD] |==|  0.84477
USER: genes 13 Torsion [CB]-CG--SD-[CE] |==|  0.37929
USER: genes 14 Torsion [N]-CA--CB-[CG2] |==|  0.55561
USER: genes 15 Torsion [CA]-CB--OG1-[HG1] |==|  0.05308
USER: genes 16 Torsion [N]-CA--CB-[CG] |==|  0.50096
USER: genes 17 Torsion [CA]-CB--CG-[CD] |==|  0.37026
USER: genes 18 Torsion [CB]-CG--CD-[OE2] |==|  0.97430
USER: genes 19 Torsion [N]-C--CA-[N] |==|  0.39662
USER: genes 20 Torsion [C]-CA--CB-[CG] |==|  0.39418
USER: genes 21 Torsion [CA]-CB--CG-[CD1] |==|  0.99291
USER: genes 22 Torsion [C]-CA--N-[C] |==|  0.74599
USER: genes 23 Torsion [N]-C--CA-[N] |==|  0.27274
USER: genes 24 Torsion [C]-CA--N-[C] |==|  0.75153
USER: genes 25 Torsion [N]-C--CA-[N] |==|  0.20755
USER: genes 26 Torsion [C]-CA--CB-[CG] |==|  0.70878
USER: genes 27 Torsion [CA]-CB--CG-[CD] |==|  0.18698
USER: genes 28 Torsion [CB]-CG--CD-[OE2] |==|  0.28102
USER: genes 29 Torsion [C]-CA--CB-[CG] |==|  0.35007
USER: genes 30 Torsion [CA]-CB--CG-[CD] |==|  0.52284
USER: genes 31 Torsion [CB]-CG--CD-[OE2] |==|  0.40214
ROOT
ATOM      1  C   TRP B 589     -11.338   0.083 -12.585  1.00  8.59 LIG 0.24  C 
ATOM      2 O    TRP B 589     -10.780   0.251 -11.506  1.00  9.54 LIG-0.27  OA
ATOM      3  N   GLU B 590     -10.693  -0.259 -13.688  1.00  8.93 LIG-0.35  N 
ATOM      4 H    GLU B 590     -11.087  -0.386 -14.442  1.00  8.93 LIG 0.16  HD
ENDROOT
BRANCH 3 5
ATOM      5  CA  GLU B 590      -9.251  -0.458 -13.746  1.00  8.22 LIG 0.18  C 
BRANCH 5 6
ATOM      6  C   GLU B 590      -8.676   0.407 -14.857  1.00  8.58 LIG 0.24  C 
ATOM      7 O    GLU B 590      -8.857   0.106 -16.033  1.00 10.27 LIG-0.27  OA
ATOM      8  N   THR B 591      -7.982   1.475 -14.477  1.00  8.10 LIG-0.34  N 
ATOM      9 H    THR B 591      -7.838   1.674 -13.653  1.00  8.10 LIG 0.16  HD
BRANCH 8 10
ATOM     10  CA  THR B 591      -7.394   2.420 -15.421  1.00  8.42 LIG 0.20  C 
BRANCH 10 11
ATOM     11  C   THR B 591      -8.365   2.640 -16.572  1.00  8.31 LIG 0.24  C 
ATOM     12  N   VAL B 592      -9.576   3.053 -16.234  1.00  8.54 LIG-0.35  N 
ATOM     13 H    VAL B 592      -9.814   3.180 -15.417  1.00  8.54 LIG 0.16  HD
ATOM     14 O    THR B 591      -8.007   2.458 -17.742  1.00  8.65 LIG-0.27  OA
BRANCH 12 15
ATOM     15  CA  VAL B 592     -10.629   3.336 -17.187  1.00  9.13 LIG 0.18  C 
BRANCH 15 16
ATOM     16  CB  VAL B 592     -12.008   3.343 -16.481  1.00  9.93 LIG 0.01  C 
ATOM     17  CG2 VAL B 592     -13.004   2.452 -17.227  1.00 10.24 LIG 0.01  C 
ATOM     18  CG1 VAL B 592     -12.529   4.757 -16.362  1.00 10.82 LIG 0.01  C 
ENDBRANCH 15 16
BRANCH 15 19
ATOM     19  C   VAL B 592     -10.351   4.678 -17.840  1.00  9.48 LIG 0.24  C 
ATOM     20 O    VAL B 592      -9.462   5.401 -17.399  1.00 10.72 LIG-0.27  OA
ATOM     21  N   MET B 593     -11.108   5.001 -18.889  1.00 10.11 LIG-0.34  N 
ATOM     22 H    MET B 593     -11.765   4.522 -19.168  1.00 10.11 LIG 0.16  HD
BRANCH 21 23
ATOM     23  CA  MET B 593     -10.882   6.219 -19.672  1.00 11.88 LIG 0.19  C 
BRANCH 23 24
ATOM     24  C   MET B 593      -9.616   6.175 -20.522  1.00 15.28 LIG 0.20  C 
ATOM     25 OXT  MET B 593      -8.930   5.152 -20.526  1.00 15.41 LIG-0.65  OA
ATOM     26 O    MET B 593      -9.307   7.101 -21.281  1.00 17.52 LIG-0.65  OA
ENDBRANCH 23 24
BRANCH 23 27
ATOM     27  CB  MET B 593     -10.760   7.427 -18.749  1.00 10.86 LIG 0.05  C 
BRANCH 27 28
ATOM     28  CG  MET B 593     -12.002   7.728 -17.945  1.00 11.31 LIG 0.08  C 
BRANCH 28 29
ATOM     29 SD   MET B 593     -13.501   7.969 -18.905  1.00 11.06 LIG-0.17  SA
ATOM     30  CE  MET B 593     -14.698   7.039 -17.954  1.00 12.56 LIG 0.09  C 
ENDBRANCH 28 29
ENDBRANCH 27 28
ENDBRANCH 23 27
ENDBRANCH 21 23
ENDBRANCH 15 19
ENDBRANCH 12 15
ENDBRANCH 10 11
BRANCH 10 31
ATOM     31  CB  THR B 591      -6.029   1.885 -15.939  1.00  8.77 LIG 0.15  C 
ATOM     32  CG2 THR B 591      -5.163   2.988 -16.514  1.00  9.88 LIG 0.04  C 
BRANCH 31 33
ATOM     33 OG1  THR B 591      -5.348   1.255 -14.852  1.00  9.65 LIG-0.39  OA
ATOM     34 HG1  THR B 591      -5.899   1.066 -14.247  1.00  9.65 LIG 0.21  HD
ENDBRANCH 31 33
ENDBRANCH 10 31
ENDBRANCH 8 10
ENDBRANCH 5 6
BRANCH 5 35
ATOM     35  CB  GLU B 590      -8.927  -1.943 -13.959  1.00  9.50 LIG 0.04  C 
BRANCH 35 36
ATOM     36  CG  GLU B 590      -7.445  -2.268 -14.027  1.00  9.44 LIG 0.12  C 
BRANCH 36 37
ATOM     37  CD  GLU B 590      -7.014  -3.458 -13.187  1.00 10.34 LIG 0.17  C 
ATOM     38 OE2  GLU B 590      -7.850  -3.940 -12.397  1.00  9.56 LIG-0.65  OA
ATOM     39 OE1  GLU B 590      -5.877  -3.943 -13.352  1.00 12.93 LIG-0.65  OA
ENDBRANCH 36 37
ENDBRANCH 35 36
ENDBRANCH 5 35
ENDBRANCH 3 5
BRANCH 1 40
ATOM     40  CA  TRP B 589     -12.828   0.301 -12.729  1.00 10.41 LIG 0.18  C 
BRANCH 40 41
ATOM     41  CB  TRP B 589     -13.073   1.794 -12.901  1.00 16.42 LIG 0.07  C 
BRANCH 41 42
ATOM     42  CG  TRP B 589     -14.143   2.147 -13.856  1.00 28.27 LIG-0.03  A 
ATOM     43  CD1 TRP B 589     -14.884   1.296 -14.619  1.00 31.36 LIG 0.10  A 
ATOM     44  NE1 TRP B 589     -15.783   2.006 -15.379  1.00 35.25 LIG-0.36  N 
ATOM     45 HE1  TRP B 589     -16.351   1.666 -15.929  1.00 35.25 LIG 0.17  HD
ATOM     46  CE2 TRP B 589     -15.626   3.341 -15.121  1.00 40.47 LIG 0.04  A 
ATOM     47  CD2 TRP B 589     -14.599   3.467 -14.165  1.00 37.76 LIG-0.00  A 
ATOM     48  CZ2 TRP B 589     -16.295   4.444 -15.647  1.00 47.06 LIG 0.03  A 
ATOM     49  CE3 TRP B 589     -14.238   4.745 -13.727  1.00 44.39 LIG 0.01  A 
ATOM     50  CZ3 TRP B 589     -14.906   5.839 -14.249  1.00 48.60 LIG 0.00  A 
ATOM     51  CH2 TRP B 589     -15.922   5.681 -15.197  1.00 49.92 LIG 0.00  A 
ENDBRANCH 41 42
ENDBRANCH 40 41
BRANCH 40 52
ATOM     52  N   TRP B 589     -13.497  -0.192 -11.545  1.00 10.46 LIG-0.35  N 
ATOM     53 H    TRP B 589     -13.565   0.397 -10.921  1.00 10.46 LIG 0.16  HD
ATOM     54  C   GLU B 588     -13.959  -1.421 -11.425  1.00 14.97 LIG 0.24  C 
ATOM     55 O    GLU B 588     -13.897  -2.269 -12.316  1.00 17.61 LIG-0.27  OA
BRANCH 54 56
ATOM     56  CA  GLU B 588     -14.594  -1.716 -10.076  1.00 18.53 LIG 0.18  C 
BRANCH 56 57
ATOM     57  N   GLU B 588     -16.050  -1.599 -10.131  1.00 19.74 LIG-0.35  N 
ATOM     58 H    GLU B 588     -16.448  -2.335 -10.329  1.00 19.74 LIG 0.16  HD
ATOM     59  C   GLU B 587     -16.702  -0.455  -9.897  1.00 22.74 LIG 0.26  C 
ATOM     60 O    GLU B 587     -16.146   0.598  -9.601  1.00 21.09 LIG-0.27  OA
BRANCH 59 61
ATOM     61  CA  GLU B 587     -18.219  -0.497 -10.026  1.00 29.94 LIG 0.40  C 
ATOM     62  N   GLU B 587     -18.801  -1.182  -8.871  1.00 28.95 LIG 0.61  N 
BRANCH 61 63
ATOM     63  CB  GLU B 587     -18.761   0.932 -10.133  1.00 39.60 LIG 0.06  C 
BRANCH 63 64
ATOM     64  CG  GLU B 587     -19.431   1.455  -8.866  1.00 49.02 LIG 0.12  C 
BRANCH 64 65
ATOM     65  CD  GLU B 587     -18.451   1.647  -7.723  1.00 58.19 LIG 0.17  C 
ATOM     66 OE2  GLU B 587     -18.045   2.801  -7.471  1.00 61.83 LIG-0.65  OA
ATOM     67 OE1  GLU B 587     -18.083   0.642  -7.077  1.00 60.20 LIG-0.65  OA
ENDBRANCH 64 65
ENDBRANCH 63 64
ENDBRANCH 61 63
ENDBRANCH 59 61
ENDBRANCH 56 57
BRANCH 56 68
ATOM     68  CB  GLU B 588     -14.151  -3.098  -9.572  1.00 23.70 LIG 0.04  C 
BRANCH 68 69
ATOM     69  CG  GLU B 588     -13.540  -3.061  -8.163  1.00 29.39 LIG 0.12  C 
BRANCH 69 70
ATOM     70  CD  GLU B 588     -12.918  -4.374  -7.724  1.00 34.84 LIG 0.17  C 
ATOM     71 OE2  GLU B 588     -11.891  -4.326  -7.012  1.00 36.82 LIG-0.65  OA
ATOM     72 OE1  GLU B 588     -13.444  -5.449  -8.080  1.00 37.43 LIG-0.65  OA
ENDBRANCH 69 70
ENDBRANCH 68 69
ENDBRANCH 56 68
ENDBRANCH 54 56
ENDBRANCH 40 52
ENDBRANCH 1 40
TORSDOF 30
ENDMDL
MODEL 13
USER: ADFR SOLUTION from run 149
USER: SCORE 23.079900 LL:  -5.739 LR: -20.136 RR:   0.000 FEB: -11.187
USER: RMSD 2.806587
USER: SEED 148
USER: STATUS 1 or 2 clusters left
USER: GENES 32
USER: genes 0 Translation |==|  0.43655 0.46057 0.49056
USER: genes 1 Rotation |==|  0.50428 0.53061 0.50118 0.99904
USER: genes 2 Torsion [C]-N--CA-[C] |==|  0.61705
USER: genes 3 Torsion [N]-CA--C-[N] |==|  0.22027
USER: genes 4 Torsion [C]-N--CA-[CB] |==|  0.40007
USER: genes 5 Torsion [N]-CA--C-[N] |==|  0.95081
USER: genes 6 Torsion [C]-N--CA-[CB] |==|  0.83331
USER: genes 7 Torsion [N]-CA--CB-[CG2] |==|  0.86658
USER: genes 8 Torsion [N]-CA--C-[N] |==|  0.48305
USER: genes 9 Torsion [C]-N--CA-[C] |==|  0.81752
USER: genes 10 Torsion [N]-CA--C-[OXT] |==|  0.54222
USER: genes 11 Torsion [N]-CA--CB-[CG] |==|  0.95763
USER: genes 12 Torsion [CA]-CB--CG-[SD] |==|  0.33872
USER: genes 13 Torsion [CB]-CG--SD-[CE] |==|  0.90291
USER: genes 14 Torsion [N]-CA--CB-[CG2] |==|  0.84495
USER: genes 15 Torsion [CA]-CB--OG1-[HG1] |==|  0.88185
USER: genes 16 Torsion [N]-CA--CB-[CG] |==|  0.52239
USER: genes 17 Torsion [CA]-CB--CG-[CD] |==|  0.47770
USER: genes 18 Torsion [CB]-CG--CD-[OE2] |==|  0.44149
USER: genes 19 Torsion [N]-C--CA-[N] |==|  0.38356
USER: genes 20 Torsion [C]-CA--CB-[CG] |==|  0.26967
USER: genes 21 Torsion [CA]-CB--CG-[CD1] |==|  0.00518
USER: genes 22 Torsion [C]-CA--N-[C] |==|  0.84092
USER: genes 23 Torsion [N]-C--CA-[N] |==|  0.23719
USER: genes 24 Torsion [C]-CA--N-[C] |==|  0.80251
USER: genes 25 Torsion [N]-C--CA-[N] |==|  0.04710
USER: genes 26 Torsion [C]-CA--CB-[CG] |==|  0.87488
USER: genes 27 Torsion [CA]-CB--CG-[CD] |==|  0.32119
USER: genes 28 Torsion [CB]-CG--CD-[OE2] |==|  0.45140
USER: genes 29 Torsion [C]-CA--CB-[CG] |==|  0.59901
USER: genes 30 Torsion [CA]-CB--CG-[CD] |==|  0.23832
USER: genes 31 Torsion [CB]-CG--CD-[OE2] |==|  0.25206
ROOT
ATOM      1  C   TRP B 589     -11.537   0.157 -12.432  1.00  8.59 LIG 0.24  C 
ATOM      2 O    TRP B 589     -10.878   0.554 -11.477  1.00  9.54 LIG-0.27  OA
ATOM      3  N   GLU B 590     -10.992  -0.324 -13.537  1.00  8.93 LIG-0.35  N 
ATOM      4 H    GLU B 590     -11.456  -0.610 -14.203  1.00  8.93 LIG 0.16  HD
ENDROOT
BRANCH 3 5
ATOM      5  CA  GLU B 590      -9.554  -0.421 -13.747  1.00  8.22 LIG 0.18  C 
BRANCH 5 6
ATOM      6  C   GLU B 590      -9.230   0.014 -15.169  1.00  8.58 LIG 0.24  C 
ATOM      7 O    GLU B 590      -9.019  -0.825 -16.039  1.00 10.27 LIG-0.27  OA
ATOM      8  N   THR B 591      -9.191   1.323 -15.394  1.00  8.10 LIG-0.34  N 
ATOM      9 H    THR B 591      -9.319   1.910 -14.779  1.00  8.10 LIG 0.16  HD
BRANCH 8 10
ATOM     10  CA  THR B 591      -8.925   1.898 -16.708  1.00  8.42 LIG 0.20  C 
BRANCH 10 11
ATOM     11  C   THR B 591      -7.436   2.190 -16.829  1.00  8.31 LIG 0.24  C 
ATOM     12  N   VAL B 592      -6.763   2.235 -15.690  1.00  8.54 LIG-0.35  N 
ATOM     13 H    VAL B 592      -7.136   2.121 -14.924  1.00  8.54 LIG 0.16  HD
ATOM     14 O    THR B 591      -6.913   2.347 -17.939  1.00  8.65 LIG-0.27  OA
BRANCH 12 15
ATOM     15  CA  VAL B 592      -5.338   2.479 -15.603  1.00  9.13 LIG 0.18  C 
BRANCH 15 16
ATOM     16  CB  VAL B 592      -4.555   1.386 -16.372  1.00  9.93 LIG 0.01  C 
ATOM     17  CG2 VAL B 592      -5.060  -0.009 -15.995  1.00 10.24 LIG 0.01  C 
ATOM     18  CG1 VAL B 592      -3.073   1.518 -16.107  1.00 10.82 LIG 0.01  C 
ENDBRANCH 15 16
BRANCH 15 19
ATOM     19  C   VAL B 592      -5.041   3.855 -16.171  1.00  9.48 LIG 0.24  C 
ATOM     20 O    VAL B 592      -5.938   4.506 -16.701  1.00 10.72 LIG-0.27  OA
ATOM     21  N   MET B 593      -3.787   4.293 -16.052  1.00 10.11 LIG-0.34  N 
ATOM     22 H    MET B 593      -3.145   3.820 -15.731  1.00 10.11 LIG 0.16  HD
BRANCH 21 23
ATOM     23  CA  MET B 593      -3.386   5.640 -16.468  1.00 11.88 LIG 0.19  C 
BRANCH 23 24
ATOM     24  C   MET B 593      -3.496   5.875 -17.972  1.00 15.28 LIG 0.20  C 
ATOM     25 OXT  MET B 593      -2.931   6.848 -18.471  1.00 15.41 LIG-0.65  OA
ATOM     26 O    MET B 593      -4.056   5.064 -18.719  1.00 17.52 LIG-0.65  OA
ENDBRANCH 23 24
BRANCH 23 27
ATOM     27  CB  MET B 593      -1.935   5.905 -16.079  1.00 10.86 LIG 0.05  C 
BRANCH 27 28
ATOM     28  CG  MET B 593      -1.370   4.931 -15.073  1.00 11.31 LIG 0.08  C 
BRANCH 28 29
ATOM     29 SD   MET B 593       0.095   4.037 -15.607  1.00 11.06 LIG-0.17  SA
ATOM     30  CE  MET B 593      -0.229   3.816 -17.353  1.00 12.56 LIG 0.09  C 
ENDBRANCH 28 29
ENDBRANCH 27 28
ENDBRANCH 23 27
ENDBRANCH 21 23
ENDBRANCH 15 19
ENDBRANCH 12 15
ENDBRANCH 10 11
BRANCH 10 31
ATOM     31  CB  THR B 591      -9.764   3.191 -16.911  1.00  8.77 LIG 0.15  C 
ATOM     32  CG2 THR B 591     -11.247   2.946 -16.717  1.00  9.88 LIG 0.04  C 
BRANCH 31 33
ATOM     33 OG1  THR B 591      -9.312   4.175 -15.979  1.00  9.65 LIG-0.39  OA
ATOM     34 HG1  THR B 591      -9.186   3.815 -15.230  1.00  9.65 LIG 0.21  HD
ENDBRANCH 31 33
ENDBRANCH 10 31
ENDBRANCH 8 10
ENDBRANCH 5 6
BRANCH 5 35
ATOM     35  CB  GLU B 590      -9.071  -1.851 -13.468  1.00  9.50 LIG 0.04  C 
BRANCH 35 36
ATOM     36  CG  GLU B 590      -7.563  -2.025 -13.469  1.00  9.44 LIG 0.12  C 
BRANCH 36 37
ATOM     37  CD  GLU B 590      -7.077  -3.388 -13.007  1.00 10.34 LIG 0.17  C 
ATOM     38 OE2  GLU B 590      -5.931  -3.739 -13.352  1.00  9.56 LIG-0.65  OA
ATOM     39 OE1  GLU B 590      -7.803  -4.076 -12.263  1.00 12.93 LIG-0.65  OA
ENDBRANCH 36 37
ENDBRANCH 35 36
ENDBRANCH 5 35
ENDBRANCH 3 5
BRANCH 1 40
ATOM     40  CA  TRP B 589     -13.048   0.234 -12.416  1.00 10.41 LIG 0.18  C 
BRANCH 40 41
ATOM     41  CB  TRP B 589     -13.451   1.678 -12.684  1.00 16.42 LIG 0.07  C 
BRANCH 41 42
ATOM     42  CG  TRP B 589     -13.802   1.981 -14.086  1.00 28.27 LIG-0.03  A 
ATOM     43  CD1 TRP B 589     -13.837   1.113 -15.135  1.00 31.36 LIG 0.10  A 
ATOM     44  NE1 TRP B 589     -14.213   1.773 -16.281  1.00 35.25 LIG-0.36  N 
ATOM     45 HE1  TRP B 589     -14.304   1.414 -17.058  1.00 35.25 LIG 0.17  HD
ATOM     46  CE2 TRP B 589     -14.420   3.094 -15.984  1.00 40.47 LIG 0.04  A 
ATOM     47  CD2 TRP B 589     -14.169   3.260 -14.609  1.00 37.76 LIG-0.00  A 
ATOM     48  CZ2 TRP B 589     -14.803   4.150 -16.807  1.00 47.06 LIG 0.03  A 
ATOM     49  CE3 TRP B 589     -14.309   4.533 -14.047  1.00 44.39 LIG 0.01  A 
ATOM     50  CZ3 TRP B 589     -14.691   5.582 -14.865  1.00 48.60 LIG 0.00  A 
ATOM     51  CH2 TRP B 589     -14.933   5.383 -16.228  1.00 49.92 LIG 0.00  A 
ENDBRANCH 41 42
ENDBRANCH 40 41
BRANCH 40 52
ATOM     52  N   TRP B 589     -13.532  -0.198 -11.124  1.00 10.46 LIG-0.35  N 
ATOM     53 H    TRP B 589     -14.013   0.392 -10.724  1.00 10.46 LIG 0.16  HD
ATOM     54  C   GLU B 588     -13.265  -1.380 -10.602  1.00 14.97 LIG 0.24  C 
ATOM     55 O    GLU B 588     -12.603  -2.249 -11.170  1.00 17.61 LIG-0.27  OA
BRANCH 54 56
ATOM     56  CA  GLU B 588     -13.858  -1.595  -9.219  1.00 18.53 LIG 0.18  C 
BRANCH 56 57
ATOM     57  N   GLU B 588     -15.237  -2.072  -9.294  1.00 19.74 LIG-0.35  N 
ATOM     58 H    GLU B 588     -15.331  -2.894  -9.061  1.00 19.74 LIG 0.16  HD
ATOM     59  C   GLU B 587     -16.257  -1.302  -9.686  1.00 22.74 LIG 0.26  C 
ATOM     60 O    GLU B 587     -16.139  -0.123 -10.007  1.00 21.09 LIG-0.27  OA
BRANCH 59 61
ATOM     61  CA  GLU B 587     -17.629  -1.963  -9.738  1.00 29.94 LIG 0.40  C 
ATOM     62  N   GLU B 587     -17.616  -3.205  -8.964  1.00 28.95 LIG 0.61  N 
BRANCH 61 63
ATOM     63  CB  GLU B 587     -18.681  -0.996  -9.185  1.00 39.60 LIG 0.06  C 
BRANCH 63 64
ATOM     64  CG  GLU B 587     -18.279  -0.287  -7.896  1.00 49.02 LIG 0.12  C 
BRANCH 64 65
ATOM     65  CD  GLU B 587     -18.147   1.214  -8.070  1.00 58.19 LIG 0.17  C 
ATOM     66 OE2  GLU B 587     -18.152   1.937  -7.051  1.00 61.83 LIG-0.65  OA
ATOM     67 OE1  GLU B 587     -18.042   1.674  -9.227  1.00 60.20 LIG-0.65  OA
ENDBRANCH 64 65
ENDBRANCH 63 64
ENDBRANCH 61 63
ENDBRANCH 59 61
ENDBRANCH 56 57
BRANCH 56 68
ATOM     68  CB  GLU B 588     -12.968  -2.545  -8.404  1.00 23.70 LIG 0.04  C 
BRANCH 68 69
ATOM     69  CG  GLU B 588     -13.767  -3.475  -7.477  1.00 29.39 LIG 0.12  C 
BRANCH 69 70
ATOM     70  CD  GLU B 588     -14.254  -4.747  -8.148  1.00 34.84 LIG 0.17  C 
ATOM     71 OE2  GLU B 588     -13.513  -5.753  -8.102  1.00 36.82 LIG-0.65  OA
ATOM     72 OE1  GLU B 588     -15.366  -4.753  -8.716  1.00 37.43 LIG-0.65  OA
ENDBRANCH 69 70
ENDBRANCH 68 69
ENDBRANCH 56 68
ENDBRANCH 54 56
ENDBRANCH 40 52
ENDBRANCH 1 40
TORSDOF 30
ENDMDL
MODEL 14
USER: ADFR SOLUTION from run 195
USER: SCORE 23.658765 LL:  -6.499 LR: -20.089 RR:   0.000 FEB: -11.140
USER: RMSD 4.711870
USER: SEED 194
USER: STATUS no improvement in best in 6 clusters for 5 generations
USER: GENES 32
USER: genes 0 Translation |==|  0.44391 0.44431 0.49871
USER: genes 1 Rotation |==|  0.42649 0.53275 0.51204 0.99333
USER: genes 2 Torsion [C]-N--CA-[C] |==|  0.71665
USER: genes 3 Torsion [N]-CA--C-[N] |==|  0.42430
USER: genes 4 Torsion [C]-N--CA-[CB] |==|  0.19119
USER: genes 5 Torsion [N]-CA--C-[N] |==|  0.31350
USER: genes 6 Torsion [C]-N--CA-[CB] |==|  0.52222
USER: genes 7 Torsion [N]-CA--CB-[CG2] |==|  0.45459
USER: genes 8 Torsion [N]-CA--C-[N] |==|  0.80169
USER: genes 9 Torsion [C]-N--CA-[C] |==|  0.53719
USER: genes 10 Torsion [N]-CA--C-[OXT] |==|  0.01168
USER: genes 11 Torsion [N]-CA--CB-[CG] |==|  0.73241
USER: genes 12 Torsion [CA]-CB--CG-[SD] |==|  0.34875
USER: genes 13 Torsion [CB]-CG--SD-[CE] |==|  0.04687
USER: genes 14 Torsion [N]-CA--CB-[CG2] |==|  0.47952
USER: genes 15 Torsion [CA]-CB--OG1-[HG1] |==|  0.23367
USER: genes 16 Torsion [N]-CA--CB-[CG] |==|  0.49953
USER: genes 17 Torsion [CA]-CB--CG-[CD] |==|  0.38597
USER: genes 18 Torsion [CB]-CG--CD-[OE2] |==|  0.98315
USER: genes 19 Torsion [N]-C--CA-[N] |==|  0.30636
USER: genes 20 Torsion [C]-CA--CB-[CG] |==|  0.23693
USER: genes 21 Torsion [CA]-CB--CG-[CD1] |==|  0.50472
USER: genes 22 Torsion [C]-CA--N-[C] |==|  0.77553
USER: genes 23 Torsion [N]-C--CA-[N] |==|  0.87035
USER: genes 24 Torsion [C]-CA--N-[C] |==|  0.65100
USER: genes 25 Torsion [N]-C--CA-[N] |==|  0.18341
USER: genes 26 Torsion [C]-CA--CB-[CG] |==|  0.69696
USER: genes 27 Torsion [CA]-CB--CG-[CD] |==|  0.61437
USER: genes 28 Torsion [CB]-CG--CD-[OE2] |==|  0.15498
USER: genes 29 Torsion [C]-CA--CB-[CG] |==|  0.59345
USER: genes 30 Torsion [CA]-CB--CG-[CD] |==|  0.22910
USER: genes 31 Torsion [CB]-CG--CD-[OE2] |==|  0.15852
ROOT
ATOM      1  C   TRP B 589     -11.322  -0.160 -12.255  1.00  8.59 LIG 0.24  C 
ATOM      2 O    TRP B 589     -10.690   0.548 -11.478  1.00  9.54 LIG-0.27  OA
ATOM      3  N   GLU B 590     -10.747  -0.920 -13.172  1.00  8.93 LIG-0.35  N 
ATOM      4 H    GLU B 590     -11.191  -1.423 -13.710  1.00  8.93 LIG 0.16  HD
ENDROOT
BRANCH 3 5
ATOM      5  CA  GLU B 590      -9.305  -0.990 -13.369  1.00  8.22 LIG 0.18  C 
BRANCH 5 6
ATOM      6  C   GLU B 590      -8.930  -0.152 -14.583  1.00  8.58 LIG 0.24  C 
ATOM      7 O    GLU B 590      -9.740   0.024 -15.487  1.00 10.27 LIG-0.27  OA
ATOM      8  N   THR B 591      -7.702   0.355 -14.595  1.00  8.10 LIG-0.34  N 
ATOM      9 H    THR B 591      -7.128   0.214 -13.970  1.00  8.10 LIG 0.16  HD
BRANCH 8 10
ATOM     10  CA  THR B 591      -7.202   1.204 -15.671  1.00  8.42 LIG 0.20  C 
BRANCH 10 11
ATOM     11  C   THR B 591      -5.699   1.381 -15.505  1.00  8.31 LIG 0.24  C 
ATOM     12  N   VAL B 592      -4.946   0.825 -16.441  1.00  8.54 LIG-0.35  N 
ATOM     13 H    VAL B 592      -5.274   0.379 -17.099  1.00  8.54 LIG 0.16  HD
ATOM     14 O    THR B 591      -5.242   2.030 -14.555  1.00  8.65 LIG-0.27  OA
BRANCH 12 15
ATOM     15  CA  VAL B 592      -3.500   0.902 -16.466  1.00  9.13 LIG 0.18  C 
BRANCH 15 16
ATOM     16  CB  VAL B 592      -2.952   0.321 -17.793  1.00  9.93 LIG 0.01  C 
ATOM     17  CG2 VAL B 592      -1.500   0.752 -18.015  1.00 10.24 LIG 0.01  C 
ATOM     18  CG1 VAL B 592      -3.826   0.744 -18.952  1.00 10.82 LIG 0.01  C 
ENDBRANCH 15 16
BRANCH 15 19
ATOM     19  C   VAL B 592      -3.084   2.352 -16.300  1.00  9.48 LIG 0.24  C 
ATOM     20 O    VAL B 592      -2.560   2.724 -15.253  1.00 10.72 LIG-0.27  OA
ATOM     21  N   MET B 593      -3.312   3.162 -17.335  1.00 10.11 LIG-0.34  N 
ATOM     22 H    MET B 593      -3.726   2.919 -18.048  1.00 10.11 LIG 0.16  HD
BRANCH 21 23
ATOM     23  CA  MET B 593      -2.872   4.560 -17.347  1.00 11.88 LIG 0.19  C 
BRANCH 23 24
ATOM     24  C   MET B 593      -3.503   5.391 -18.460  1.00 15.28 LIG 0.20  C 
ATOM     25 OXT  MET B 593      -4.356   4.878 -19.184  1.00 15.41 LIG-0.65  OA
ATOM     26 O    MET B 593      -3.252   6.594 -18.598  1.00 17.52 LIG-0.65  OA
ENDBRANCH 23 24
BRANCH 23 27
ATOM     27  CB  MET B 593      -1.360   4.639 -17.531  1.00 10.86 LIG 0.05  C 
BRANCH 27 28
ATOM     28  CG  MET B 593      -0.580   4.781 -16.246  1.00 11.31 LIG 0.08  C 
BRANCH 28 29
ATOM     29 SD   MET B 593       0.704   3.551 -15.986  1.00 11.06 LIG-0.17  SA
ATOM     30  CE  MET B 593       0.909   2.883 -17.633  1.00 12.56 LIG 0.09  C 
ENDBRANCH 28 29
ENDBRANCH 27 28
ENDBRANCH 23 27
ENDBRANCH 21 23
ENDBRANCH 15 19
ENDBRANCH 12 15
ENDBRANCH 10 11
BRANCH 10 31
ATOM     31  CB  THR B 591      -7.929   2.578 -15.656  1.00  8.77 LIG 0.15  C 
ATOM     32  CG2 THR B 591      -7.321   3.558 -16.640  1.00  9.88 LIG 0.04  C 
BRANCH 31 33
ATOM     33 OG1  THR B 591      -9.305   2.366 -15.976  1.00  9.65 LIG-0.39  OA
ATOM     34 HG1  THR B 591      -9.724   2.150 -15.280  1.00  9.65 LIG 0.21  HD
ENDBRANCH 31 33
ENDBRANCH 10 31
ENDBRANCH 8 10
ENDBRANCH 5 6
BRANCH 5 35
ATOM     35  CB  GLU B 590      -8.860  -2.450 -13.528  1.00  9.50 LIG 0.04  C 
BRANCH 35 36
ATOM     36  CG  GLU B 590      -7.369  -2.641 -13.744  1.00  9.44 LIG 0.12  C 
BRANCH 36 37
ATOM     37  CD  GLU B 590      -6.759  -3.810 -12.991  1.00 10.34 LIG 0.17  C 
ATOM     38 OE2  GLU B 590      -7.491  -4.424 -12.189  1.00  9.56 LIG-0.65  OA
ATOM     39 OE1  GLU B 590      -5.585  -4.150 -13.236  1.00 12.93 LIG-0.65  OA
ENDBRANCH 36 37
ENDBRANCH 35 36
ENDBRANCH 5 35
ENDBRANCH 3 5
BRANCH 1 40
ATOM     40  CA  TRP B 589     -12.834  -0.173 -12.235  1.00 10.41 LIG 0.18  C 
BRANCH 40 41
ATOM     41  CB  TRP B 589     -13.320   1.270 -12.249  1.00 16.42 LIG 0.07  C 
BRANCH 41 42
ATOM     42  CG  TRP B 589     -13.433   1.881 -13.589  1.00 28.27 LIG-0.03  A 
ATOM     43  CD1 TRP B 589     -13.809   3.155 -13.888  1.00 31.36 LIG 0.10  A 
ATOM     44  NE1 TRP B 589     -13.788   3.346 -15.249  1.00 35.25 LIG-0.36  N 
ATOM     45 HE1  TRP B 589     -13.985   4.079 -15.654  1.00 35.25 LIG 0.17  HD
ATOM     46  CE2 TRP B 589     -13.404   2.180 -15.854  1.00 40.47 LIG 0.04  A 
ATOM     47  CD2 TRP B 589     -13.173   1.234 -14.837  1.00 37.76 LIG-0.00  A 
ATOM     48  CZ2 TRP B 589     -13.243   1.879 -17.205  1.00 47.06 LIG 0.03  A 
ATOM     49  CE3 TRP B 589     -12.766  -0.055 -15.195  1.00 44.39 LIG 0.01  A 
ATOM     50  CZ3 TRP B 589     -12.605  -0.352 -16.537  1.00 48.60 LIG 0.00  A 
ATOM     51  CH2 TRP B 589     -12.842   0.610 -17.524  1.00 49.92 LIG 0.00  A 
ENDBRANCH 41 42
ENDBRANCH 40 41
BRANCH 40 52
ATOM     52  N   TRP B 589     -13.288  -0.852 -11.042  1.00 10.46 LIG-0.35  N 
ATOM     53 H    TRP B 589     -13.516  -0.316 -10.409  1.00 10.46 LIG 0.16  HD
ATOM     54  C   GLU B 588     -13.349  -2.165 -10.926  1.00 14.97 LIG 0.24  C 
ATOM     55 O    GLU B 588     -13.056  -2.948 -11.829  1.00 17.61 LIG-0.27  OA
BRANCH 54 56
ATOM     56  CA  GLU B 588     -13.828  -2.645  -9.566  1.00 18.53 LIG 0.18  C 
BRANCH 56 57
ATOM     57  N   GLU B 588     -13.146  -1.946  -8.479  1.00 19.74 LIG-0.35  N 
ATOM     58 H    GLU B 588     -13.202  -1.089  -8.531  1.00 19.74 LIG 0.16  HD
ATOM     59  C   GLU B 587     -12.497  -2.578  -7.496  1.00 22.74 LIG 0.26  C 
ATOM     60 O    GLU B 587     -12.422  -3.799  -7.403  1.00 21.09 LIG-0.27  OA
BRANCH 59 61
ATOM     61  CA  GLU B 587     -11.813  -1.699  -6.456  1.00 29.94 LIG 0.40  C 
ATOM     62  N   GLU B 587     -12.815  -0.956  -5.691  1.00 28.95 LIG 0.61  N 
BRANCH 61 63
ATOM     63  CB  GLU B 587     -10.967  -2.575  -5.526  1.00 39.60 LIG 0.06  C 
BRANCH 63 64
ATOM     64  CG  GLU B 587     -11.516  -2.716  -4.111  1.00 49.02 LIG 0.12  C 
BRANCH 64 65
ATOM     65  CD  GLU B 587     -10.431  -2.646  -3.052  1.00 58.19 LIG 0.17  C 
ATOM     66 OE2  GLU B 587      -9.683  -1.647  -3.027  1.00 61.83 LIG-0.65  OA
ATOM     67 OE1  GLU B 587     -10.322  -3.595  -2.246  1.00 60.20 LIG-0.65  OA
ENDBRANCH 64 65
ENDBRANCH 63 64
ENDBRANCH 61 63
ENDBRANCH 59 61
ENDBRANCH 56 57
BRANCH 56 68
ATOM     68  CB  GLU B 588     -15.355  -2.509  -9.464  1.00 23.70 LIG 0.04  C 
BRANCH 68 69
ATOM     69  CG  GLU B 588     -15.837  -2.166  -8.046  1.00 29.39 LIG 0.12  C 
BRANCH 69 70
ATOM     70  CD  GLU B 588     -15.759  -0.688  -7.707  1.00 34.84 LIG 0.17  C 
ATOM     71 OE2  GLU B 588     -16.370   0.114  -8.446  1.00 36.82 LIG-0.65  OA
ATOM     72 OE1  GLU B 588     -15.099  -0.322  -6.713  1.00 37.43 LIG-0.65  OA
ENDBRANCH 69 70
ENDBRANCH 68 69
ENDBRANCH 56 68
ENDBRANCH 54 56
ENDBRANCH 40 52
ENDBRANCH 1 40
TORSDOF 30
ENDMDL
