MODEL 1
USER: ADFR SOLUTION from run 48
USER: SCORE 13.948845 LL:  -3.025 LR: -12.597 RR:   0.000 FEB:  -7.824
USER: RMSD 6.107159
USER: SEED 47
USER: STATUS searching
USER: GENES 18
USER: genes 0 Translation |==|  0.44119 0.39638 0.31894
USER: genes 1 Rotation |==|  0.69335 0.61017 0.92337 0.64573
USER: genes 2 Torsion [CB]-CA--N-[C] |==|  0.84786
USER: genes 3 Torsion [N]-C--CA-[N] |==|  0.87371
USER: genes 4 Torsion [C]-CA--N-[C] |==|  0.68917
USER: genes 5 Torsion [N]-C--CA-[N] |==|  0.35678
USER: genes 6 Torsion [C]-CA--CB-[CG2] |==|  0.11667
USER: genes 7 Torsion [C]-CA--N-[H2] |==|  0.86227
USER: genes 8 Torsion [C]-CA--CB-[CG] |==|  0.51248
USER: genes 9 Torsion [CA]-CB--CG-[OD2] |==|  0.97607
USER: genes 10 Torsion [N]-CA--C-[N] |==|  0.37970
USER: genes 11 Torsion [C]-N--CA-[CB] |==|  0.37371
USER: genes 12 Torsion [N]-CA--CB-[CG2] |==|  0.55037
USER: genes 13 Torsion [N]-CA--C-[N] |==|  0.94107
USER: genes 14 Torsion [C]-N--CA-[CB] |==|  0.23640
USER: genes 15 Torsion [N]-CA--CB-[CG] |==|  0.47795
USER: genes 16 Torsion [CA]-CB--CG-[OD1] |==|  0.12810
USER: genes 17 Torsion [N]-CA--C-[O] |==|  0.98489
ROOT
ATOM      1  CA  ALA B   3       9.901  -2.137  22.254  1.00 18.86 LIG 0.17  C 
ATOM      2  CB  ALA B   3       8.552  -2.176  22.970  1.00 19.35 LIG 0.04  C 
ENDROOT
BRANCH 1 3
ATOM      3  N   ALA B   3       9.990  -3.262  21.333  1.00 16.29 LIG-0.35  N 
ATOM      4  C   ASP B   2       9.811  -4.519  21.716  1.00 15.20 LIG 0.24  C 
ATOM      5 O    ASP B   2       9.482  -4.828  22.873  1.00 18.35 LIG-0.27  OA
ATOM      6 H    ALA B   3      10.169  -3.036  20.523  1.00 16.29 LIG 0.16  HD
BRANCH 4 7
ATOM      7  CA  ASP B   2      10.045  -5.591  20.642  1.00 15.30 LIG 0.19  C 
BRANCH 7 8
ATOM      8  N   ASP B   2       9.415  -5.235  19.389  1.00 15.19 LIG-0.34  N 
ATOM      9  C   VAL B   1       8.383  -5.909  18.915  1.00 14.82 LIG 0.25  C 
ATOM     10 O    VAL B   1       7.931  -6.911  19.471  1.00 14.79 LIG-0.27  OA
ATOM     11 H    ASP B   2       9.770  -4.559  18.993  1.00 15.19 LIG 0.16  HD
BRANCH 9 12
ATOM     12  CA  VAL B   1       7.816  -5.424  17.585  1.00 14.89 LIG 0.28  C 
BRANCH 12 13
ATOM     13  CB  VAL B   1       6.432  -4.772  17.724  1.00 17.39 LIG 0.02  C 
ATOM     14  CG2 VAL B   1       6.326  -3.878  18.907  1.00 22.29 LIG 0.01  C 
ATOM     15  CG1 VAL B   1       5.343  -5.801  17.825  1.00 17.29 LIG 0.01  C 
ENDBRANCH 12 13
BRANCH 12 16
ATOM     16  N   VAL B   1       7.732  -6.578  16.681  1.00 15.02 LIG-0.07  N 
ATOM     17 H2   VAL B   1       8.509  -7.012  16.680  1.00 15.02 LIG 0.28  HD
ATOM     18 H3   VAL B   1       7.087  -7.126  16.958  1.00 15.02 LIG 0.28  HD
ATOM     19 H1   VAL B   1       7.548  -6.298  15.856  1.00 15.02 LIG 0.28  HD
ENDBRANCH 12 16
ENDBRANCH 9 12
ENDBRANCH 7 8
BRANCH 7 20
ATOM     20  CB  ASP B   2      11.534  -5.883  20.434  1.00 16.98 LIG 0.15  C 
BRANCH 20 21
ATOM     21  CG  ASP B   2      11.793  -6.857  19.306  1.00 17.41 LIG 0.17  C 
ATOM     22 OD1  ASP B   2      12.990  -7.022  18.930  1.00 15.73 LIG-0.65  OA
ATOM     23 OD2  ASP B   2      10.800  -7.444  18.780  1.00 22.30 LIG-0.65  OA
ENDBRANCH 20 21
ENDBRANCH 7 20
ENDBRANCH 4 7
ENDBRANCH 1 3
BRANCH 1 24
ATOM     24  C   ALA B   3      11.047  -2.161  23.265  1.00 21.51 LIG 0.24  C 
ATOM     25  N   VAL B   4      11.635  -0.995  23.512  1.00 22.67 LIG-0.35  N 
ATOM     26 H    VAL B   4      11.494  -0.280  23.055  1.00 22.67 LIG 0.16  HD
ATOM     27 O    ALA B   3      11.386  -3.214  23.809  1.00 22.81 LIG-0.27  OA
BRANCH 25 28
ATOM     28  CA  VAL B   4      12.593  -0.832  24.609  1.00 26.45 LIG 0.18  C 
BRANCH 28 29
ATOM     29  CB  VAL B   4      13.849  -0.052  24.159  1.00 30.01 LIG 0.01  C 
ATOM     30  CG2 VAL B   4      15.000  -0.272  25.138  1.00 31.20 LIG 0.01  C 
ATOM     31  CG1 VAL B   4      13.540   1.437  24.017  1.00 33.02 LIG 0.01  C 
ENDBRANCH 28 29
BRANCH 28 32
ATOM     32  C   VAL B   4      11.862  -0.070  25.719  1.00 25.61 LIG 0.24  C 
ATOM     33  N   ASN B   5      10.795   0.637  25.361  1.00 29.33 LIG-0.35  N 
ATOM     34 H    ASN B   5      10.492   0.668  24.557  1.00 29.33 LIG 0.16  HD
ATOM     35 O    VAL B   4      12.290  -0.104  26.873  1.00 29.65 LIG-0.27  OA
BRANCH 33 36
ATOM     36  CA  ASN B   5      10.023   1.443  26.325  1.00 34.74 LIG 0.17  C 
BRANCH 36 37
ATOM     37  CB  ASN B   5      10.674   2.815  26.474  1.00 42.44 LIG 0.14  C 
BRANCH 37 38
ATOM     38  CG  ASN B   5       9.826   3.763  27.302  1.00 45.23 LIG 0.22  C 
ATOM     39 OD1  ASN B   5       9.331   3.391  28.354  1.00 53.97 LIG-0.27  OA
ATOM     40  ND2 ASN B   5       9.620   4.978  26.805  1.00 50.63 LIG-0.37  N 
ATOM     41 21HD ASN B   5       9.121   5.536  27.228  1.00 50.63 LIG 0.16  HD
ATOM     42 22HD ASN B   5       9.985   5.206  26.061  1.00 50.63 LIG 0.16  HD
ENDBRANCH 37 38
ENDBRANCH 36 37
BRANCH 36 43
ATOM     43  C   ASN B   5       8.564   1.587  25.928  1.00 38.04 LIG 0.22  C 
ATOM     44 O    ASN B   5       8.175   1.144  24.852  1.00 41.05 LIG-0.29  OA
ENDBRANCH 36 43
ENDBRANCH 33 36
ENDBRANCH 28 32
ENDBRANCH 25 28
ENDBRANCH 1 24
TORSDOF 16
ENDMDL
MODEL 2
USER: ADFR SOLUTION from run 60
USER: SCORE 12.039953 LL:  -3.145 LR: -11.681 RR:   0.000 FEB:  -6.908
USER: RMSD 6.111840
USER: SEED 59
USER: STATUS no improvement in best in 7 clusters for 5 generations
USER: GENES 18
USER: genes 0 Translation |==|  0.41649 0.40176 0.32230
USER: genes 1 Rotation |==|  0.68727 0.61754 0.93143 0.62239
USER: genes 2 Torsion [CB]-CA--N-[C] |==|  0.84204
USER: genes 3 Torsion [N]-C--CA-[N] |==|  0.88394
USER: genes 4 Torsion [C]-CA--N-[C] |==|  0.68889
USER: genes 5 Torsion [N]-C--CA-[N] |==|  0.36870
USER: genes 6 Torsion [C]-CA--CB-[CG2] |==|  0.13557
USER: genes 7 Torsion [C]-CA--N-[H2] |==|  0.86391
USER: genes 8 Torsion [C]-CA--CB-[CG] |==|  0.49191
USER: genes 9 Torsion [CA]-CB--CG-[OD2] |==|  0.48007
USER: genes 10 Torsion [N]-CA--C-[N] |==|  0.73011
USER: genes 11 Torsion [C]-N--CA-[CB] |==|  0.81059
USER: genes 12 Torsion [N]-CA--CB-[CG2] |==|  0.86871
USER: genes 13 Torsion [N]-CA--C-[N] |==|  0.70475
USER: genes 14 Torsion [C]-N--CA-[CB] |==|  0.45241
USER: genes 15 Torsion [N]-CA--CB-[CG] |==|  0.75952
USER: genes 16 Torsion [CA]-CB--CG-[OD1] |==|  0.81391
USER: genes 17 Torsion [N]-CA--C-[O] |==|  0.74764
ROOT
ATOM      1  CA  ALA B   3       9.474  -2.040  22.324  1.00 18.86 LIG 0.17  C 
ATOM      2  CB  ALA B   3       8.135  -2.229  23.034  1.00 19.35 LIG 0.04  C 
ENDROOT
BRANCH 1 3
ATOM      3  N   ALA B   3       9.684  -3.139  21.392  1.00 16.29 LIG-0.35  N 
ATOM      4  C   ASP B   2       9.677  -4.410  21.768  1.00 15.20 LIG 0.24  C 
ATOM      5 O    ASP B   2       9.419  -4.766  22.930  1.00 18.35 LIG-0.27  OA
ATOM      6 H    ALA B   3       9.813  -2.887  20.580  1.00 16.29 LIG 0.16  HD
BRANCH 4 7
ATOM      7  CA  ASP B   2      10.021  -5.438  20.679  1.00 15.30 LIG 0.19  C 
BRANCH 7 8
ATOM      8  N   ASP B   2       9.387  -5.110  19.420  1.00 15.19 LIG-0.34  N 
ATOM      9  C   VAL B   1       8.425  -5.858  18.912  1.00 14.82 LIG 0.25  C 
ATOM     10 O    VAL B   1       8.050  -6.907  19.439  1.00 14.79 LIG-0.27  OA
ATOM     11 H    ASP B   2       9.691  -4.398  19.045  1.00 15.19 LIG 0.16  HD
BRANCH 9 12
ATOM     12  CA  VAL B   1       7.845  -5.395  17.579  1.00 14.89 LIG 0.28  C 
BRANCH 12 13
ATOM     13  CB  VAL B   1       6.449  -4.769  17.717  1.00 17.39 LIG 0.02  C 
ATOM     14  CG2 VAL B   1       6.373  -3.748  18.794  1.00 22.29 LIG 0.01  C 
ATOM     15  CG1 VAL B   1       5.402  -5.808  17.993  1.00 17.29 LIG 0.01  C 
ENDBRANCH 12 13
BRANCH 12 16
ATOM     16  N   VAL B   1       7.781  -6.558  16.685  1.00 15.02 LIG-0.07  N 
ATOM     17 H2   VAL B   1       8.563  -6.981  16.691  1.00 15.02 LIG 0.28  HD
ATOM     18 H3   VAL B   1       7.142  -7.112  16.963  1.00 15.02 LIG 0.28  HD
ATOM     19 H1   VAL B   1       7.598  -6.287  15.857  1.00 15.02 LIG 0.28  HD
ENDBRANCH 12 16
ENDBRANCH 9 12
ENDBRANCH 7 8
BRANCH 7 20
ATOM     20  CB  ASP B   2      11.532  -5.601  20.496  1.00 16.98 LIG 0.15  C 
BRANCH 20 21
ATOM     21  CG  ASP B   2      11.894  -6.659  19.478  1.00 17.41 LIG 0.17  C 
ATOM     22 OD1  ASP B   2      10.963  -7.385  19.022  1.00 15.73 LIG-0.65  OA
ATOM     23 OD2  ASP B   2      13.112  -6.781  19.147  1.00 22.30 LIG-0.65  OA
ENDBRANCH 20 21
ENDBRANCH 7 20
ENDBRANCH 4 7
ENDBRANCH 1 3
BRANCH 1 24
ATOM     24  C   ALA B   3      10.613  -1.955  23.340  1.00 21.51 LIG 0.24  C 
ATOM     25  N   VAL B   4      10.394  -2.531  24.517  1.00 22.67 LIG-0.35  N 
ATOM     26 H    VAL B   4       9.627  -2.826  24.771  1.00 22.67 LIG 0.16  HD
ATOM     27 O    ALA B   3      11.668  -1.380  23.059  1.00 22.81 LIG-0.27  OA
BRANCH 25 28
ATOM     28  CA  VAL B   4      11.468  -2.714  25.498  1.00 26.45 LIG 0.18  C 
BRANCH 28 29
ATOM     29  CB  VAL B   4      12.513  -3.745  25.014  1.00 30.01 LIG 0.01  C 
ATOM     30  CG2 VAL B   4      11.826  -5.001  24.483  1.00 31.20 LIG 0.01  C 
ATOM     31  CG1 VAL B   4      13.488  -4.097  26.136  1.00 33.02 LIG 0.01  C 
ENDBRANCH 28 29
BRANCH 28 32
ATOM     32  C   VAL B   4      12.123  -1.342  25.691  1.00 25.61 LIG 0.24  C 
ATOM     33  N   ASN B   5      13.322  -1.166  25.144  1.00 29.33 LIG-0.35  N 
ATOM     34 H    ASN B   5      13.726  -1.767  24.680  1.00 29.33 LIG 0.16  HD
ATOM     35 O    VAL B   4      11.553  -0.478  26.356  1.00 29.65 LIG-0.27  OA
BRANCH 33 36
ATOM     36  CA  ASN B   5      14.075   0.094  25.284  1.00 34.74 LIG 0.17  C 
BRANCH 36 37
ATOM     37  CB  ASN B   5      15.539  -0.149  24.933  1.00 42.44 LIG 0.14  C 
BRANCH 37 38
ATOM     38  CG  ASN B   5      16.342  -0.632  26.127  1.00 45.23 LIG 0.22  C 
ATOM     39 OD1  ASN B   5      16.539   0.106  27.078  1.00 53.97 LIG-0.27  OA
ATOM     40  ND2 ASN B   5      16.847  -1.860  26.058  1.00 50.63 LIG-0.37  N 
ATOM     41 21HD ASN B   5      17.333  -2.161  26.699  1.00 50.63 LIG 0.16  HD
ATOM     42 22HD ASN B   5      16.687  -2.353  25.371  1.00 50.63 LIG 0.16  HD
ENDBRANCH 37 38
ENDBRANCH 36 37
BRANCH 36 43
ATOM     43  C   ASN B   5      13.503   1.214  24.432  1.00 38.04 LIG 0.22  C 
ATOM     44 O    ASN B   5      13.916   1.387  23.289  1.00 41.05 LIG-0.29  OA
ENDBRANCH 36 43
ENDBRANCH 33 36
ENDBRANCH 28 32
ENDBRANCH 25 28
ENDBRANCH 1 24
TORSDOF 16
ENDMDL
MODEL 3
USER: ADFR SOLUTION from run 89
USER: SCORE 13.083939 LL:  -2.938 LR: -11.678 RR:   0.000 FEB:  -6.905
USER: RMSD 5.719465
USER: SEED 88
USER: STATUS searching
USER: GENES 18
USER: genes 0 Translation |==|  0.42485 0.40443 0.31952
USER: genes 1 Rotation |==|  0.70307 0.63355 0.92227 0.61234
USER: genes 2 Torsion [CB]-CA--N-[C] |==|  0.84910
USER: genes 3 Torsion [N]-C--CA-[N] |==|  0.89476
USER: genes 4 Torsion [C]-CA--N-[C] |==|  0.68247
USER: genes 5 Torsion [N]-C--CA-[N] |==|  0.36357
USER: genes 6 Torsion [C]-CA--CB-[CG2] |==|  0.10912
USER: genes 7 Torsion [C]-CA--N-[H2] |==|  0.43857
USER: genes 8 Torsion [C]-CA--CB-[CG] |==|  0.50005
USER: genes 9 Torsion [CA]-CB--CG-[OD2] |==|  0.97060
USER: genes 10 Torsion [N]-CA--C-[N] |==|  0.45258
USER: genes 11 Torsion [C]-N--CA-[CB] |==|  0.21540
USER: genes 12 Torsion [N]-CA--CB-[CG2] |==|  0.56664
USER: genes 13 Torsion [N]-CA--C-[N] |==|  0.50661
USER: genes 14 Torsion [C]-N--CA-[CB] |==|  0.48146
USER: genes 15 Torsion [N]-CA--CB-[CG] |==|  0.15499
USER: genes 16 Torsion [CA]-CB--CG-[OD1] |==|  0.98372
USER: genes 17 Torsion [N]-CA--C-[O] |==|  0.23826
ROOT
ATOM      1  CA  ALA B   3       9.619  -1.992  22.266  1.00 18.86 LIG 0.17  C 
ATOM      2  CB  ALA B   3       8.358  -2.200  23.103  1.00 19.35 LIG 0.04  C 
ENDROOT
BRANCH 1 3
ATOM      3  N   ALA B   3       9.781  -3.116  21.353  1.00 16.29 LIG-0.35  N 
ATOM      4  C   ASP B   2       9.806  -4.376  21.764  1.00 15.20 LIG 0.24  C 
ATOM      5 O    ASP B   2       9.620  -4.700  22.948  1.00 18.35 LIG-0.27  OA
ATOM      6 H    ALA B   3       9.859  -2.885  20.528  1.00 16.29 LIG 0.16  HD
BRANCH 4 7
ATOM      7  CA  ASP B   2      10.092  -5.431  20.685  1.00 15.30 LIG 0.19  C 
BRANCH 7 8
ATOM      8  N   ASP B   2       9.455  -5.094  19.430  1.00 15.19 LIG-0.34  N 
ATOM      9  C   VAL B   1       8.486  -5.835  18.923  1.00 14.82 LIG 0.25  C 
ATOM     10 O    VAL B   1       8.107  -6.883  19.447  1.00 14.79 LIG-0.27  OA
ATOM     11 H    ASP B   2       9.761  -4.382  19.056  1.00 15.19 LIG 0.16  HD
BRANCH 9 12
ATOM     12  CA  VAL B   1       7.904  -5.362  17.595  1.00 14.89 LIG 0.28  C 
BRANCH 12 13
ATOM     13  CB  VAL B   1       6.493  -4.769  17.735  1.00 17.39 LIG 0.02  C 
ATOM     14  CG2 VAL B   1       6.329  -3.943  18.958  1.00 22.29 LIG 0.01  C 
ATOM     15  CG1 VAL B   1       5.442  -5.841  17.758  1.00 17.29 LIG 0.01  C 
ENDBRANCH 12 13
BRANCH 12 16
ATOM     16  N   VAL B   1       7.870  -6.512  16.681  1.00 15.02 LIG-0.07  N 
ATOM     17 H2   VAL B   1       7.267  -6.367  16.043  1.00 15.02 LIG 0.28  HD
ATOM     18 H3   VAL B   1       8.672  -6.621  16.311  1.00 15.02 LIG 0.28  HD
ATOM     19 H1   VAL B   1       7.651  -7.246  17.135  1.00 15.02 LIG 0.28  HD
ENDBRANCH 12 16
ENDBRANCH 9 12
ENDBRANCH 7 8
BRANCH 7 20
ATOM     20  CB  ASP B   2      11.592  -5.659  20.484  1.00 16.98 LIG 0.15  C 
BRANCH 20 21
ATOM     21  CG  ASP B   2      11.897  -6.695  19.426  1.00 17.41 LIG 0.17  C 
ATOM     22 OD1  ASP B   2      13.092  -6.797  19.024  1.00 15.73 LIG-0.65  OA
ATOM     23 OD2  ASP B   2      10.939  -7.395  18.978  1.00 22.30 LIG-0.65  OA
ENDBRANCH 20 21
ENDBRANCH 7 20
ENDBRANCH 4 7
ENDBRANCH 1 3
BRANCH 1 24
ATOM     24  C   ALA B   3      10.843  -1.833  23.167  1.00 21.51 LIG 0.24  C 
ATOM     25  N   VAL B   4      10.970  -0.663  23.783  1.00 22.67 LIG-0.35  N 
ATOM     26 H    VAL B   4      10.488   0.027  23.607  1.00 22.67 LIG 0.16  HD
ATOM     27 O    ALA B   3      11.651  -2.755  23.301  1.00 22.81 LIG-0.27  OA
BRANCH 25 28
ATOM     28  CA  VAL B   4      11.967  -0.450  24.836  1.00 26.45 LIG 0.18  C 
BRANCH 28 29
ATOM     29  CB  VAL B   4      13.384  -0.254  24.249  1.00 30.01 LIG 0.01  C 
ATOM     30  CG2 VAL B   4      14.450  -0.620  25.279  1.00 31.20 LIG 0.01  C 
ATOM     31  CG1 VAL B   4      13.575   1.181  23.763  1.00 33.02 LIG 0.01  C 
ENDBRANCH 28 29
BRANCH 28 32
ATOM     32  C   VAL B   4      11.532   0.802  25.605  1.00 25.61 LIG 0.24  C 
ATOM     33  N   ASN B   5      12.329   1.212  26.587  1.00 29.33 LIG-0.35  N 
ATOM     34 H    ASN B   5      13.070   0.827  26.790  1.00 29.33 LIG 0.16  HD
ATOM     35 O    VAL B   4      10.470   1.357  25.324  1.00 29.65 LIG-0.27  OA
BRANCH 33 36
ATOM     36  CA  ASN B   5      12.008   2.381  27.426  1.00 34.74 LIG 0.17  C 
BRANCH 36 37
ATOM     37  CB  ASN B   5      13.027   2.489  28.556  1.00 42.44 LIG 0.14  C 
BRANCH 37 38
ATOM     38  CG  ASN B   5      14.452   2.551  28.038  1.00 45.23 LIG 0.22  C 
ATOM     39 OD1  ASN B   5      14.684   2.407  26.849  1.00 53.97 LIG-0.27  OA
ATOM     40  ND2 ASN B   5      15.415   2.720  28.939  1.00 50.63 LIG-0.37  N 
ATOM     41 21HD ASN B   5      16.238   2.731  28.692  1.00 50.63 LIG 0.16  HD
ATOM     42 22HD ASN B   5      15.214   2.818  29.770  1.00 50.63 LIG 0.16  HD
ENDBRANCH 37 38
ENDBRANCH 36 37
BRANCH 36 43
ATOM     43  C   ASN B   5      11.959   3.674  26.630  1.00 38.04 LIG 0.22  C 
ATOM     44 O    ASN B   5      10.924   4.005  26.060  1.00 41.05 LIG-0.29  OA
ENDBRANCH 36 43
ENDBRANCH 33 36
ENDBRANCH 28 32
ENDBRANCH 25 28
ENDBRANCH 1 24
TORSDOF 16
ENDMDL
MODEL 4
USER: ADFR SOLUTION from run 113
USER: SCORE 11.974801 LL:  -2.715 LR: -11.646 RR:   0.000 FEB:  -6.873
USER: RMSD 5.224432
USER: SEED 112
USER: STATUS no improvement in best in 12 clusters for 5 generations
USER: GENES 18
USER: genes 0 Translation |==|  0.54203 0.38293 0.44401
USER: genes 1 Rotation |==|  0.16975 0.29175 0.22002 0.63848
USER: genes 2 Torsion [CB]-CA--N-[C] |==|  0.47356
USER: genes 3 Torsion [N]-C--CA-[N] |==|  0.01845
USER: genes 4 Torsion [C]-CA--N-[C] |==|  0.67224
USER: genes 5 Torsion [N]-C--CA-[N] |==|  0.43189
USER: genes 6 Torsion [C]-CA--CB-[CG2] |==|  0.48422
USER: genes 7 Torsion [C]-CA--N-[H2] |==|  0.75819
USER: genes 8 Torsion [C]-CA--CB-[CG] |==|  0.88227
USER: genes 9 Torsion [CA]-CB--CG-[OD2] |==|  0.89733
USER: genes 10 Torsion [N]-CA--C-[N] |==|  0.63745
USER: genes 11 Torsion [C]-N--CA-[CB] |==|  0.21150
USER: genes 12 Torsion [N]-CA--CB-[CG2] |==|  0.06882
USER: genes 13 Torsion [N]-CA--C-[N] |==|  0.96686
USER: genes 14 Torsion [C]-N--CA-[CB] |==|  0.79626
USER: genes 15 Torsion [N]-CA--CB-[CG] |==|  0.97317
USER: genes 16 Torsion [CA]-CB--CG-[OD1] |==|  0.32323
USER: genes 17 Torsion [N]-CA--C-[O] |==|  0.10169
ROOT
ATOM      1  CA  ALA B   3      11.640  -2.379  24.880  1.00 18.86 LIG 0.17  C 
ATOM      2  CB  ALA B   3      12.115  -3.094  26.144  1.00 19.35 LIG 0.04  C 
ENDROOT
BRANCH 1 3
ATOM      3  N   ALA B   3      11.486  -3.351  23.807  1.00 16.29 LIG-0.35  N 
ATOM      4  C   ASP B   2      10.913  -3.057  22.648  1.00 15.20 LIG 0.24  C 
ATOM      5 O    ASP B   2      10.530  -1.911  22.361  1.00 18.35 LIG-0.27  OA
ATOM      6 H    ALA B   3      11.799  -4.130  23.995  1.00 16.29 LIG 0.16  HD
BRANCH 4 7
ATOM      7  CA  ASP B   2      10.735  -4.225  21.667  1.00 15.30 LIG 0.19  C 
BRANCH 7 8
ATOM      8  N   ASP B   2      11.101  -5.487  22.272  1.00 15.19 LIG-0.34  N 
ATOM      9  C   VAL B   1      12.092  -6.222  21.800  1.00 14.82 LIG 0.25  C 
ATOM     10 O    VAL B   1      12.724  -5.914  20.788  1.00 14.79 LIG-0.27  OA
ATOM     11 H    ASP B   2      10.622  -5.707  22.952  1.00 15.19 LIG 0.16  HD
BRANCH 9 12
ATOM     12  CA  VAL B   1      12.370  -7.529  22.535  1.00 14.89 LIG 0.28  C 
BRANCH 12 13
ATOM     13  CB  VAL B   1      13.249  -7.341  23.781  1.00 17.39 LIG 0.02  C 
ATOM     14  CG2 VAL B   1      13.410  -8.589  24.572  1.00 22.29 LIG 0.01  C 
ATOM     15  CG1 VAL B   1      12.697  -6.285  24.694  1.00 17.29 LIG 0.01  C 
ENDBRANCH 12 13
BRANCH 12 16
ATOM     16  N   VAL B   1      13.031  -8.444  21.595  1.00 15.02 LIG-0.07  N 
ATOM     17 H2   VAL B   1      12.415  -8.893  21.136  1.00 15.02 LIG 0.28  HD
ATOM     18 H3   VAL B   1      13.539  -7.978  21.033  1.00 15.02 LIG 0.28  HD
ATOM     19 H1   VAL B   1      13.540  -9.018  22.047  1.00 15.02 LIG 0.28  HD
ENDBRANCH 12 16
ENDBRANCH 9 12
ENDBRANCH 7 8
BRANCH 7 20
ATOM     20  CB  ASP B   2       9.315  -4.290  21.100  1.00 16.98 LIG 0.15  C 
BRANCH 20 21
ATOM     21  CG  ASP B   2       8.249  -4.046  22.144  1.00 17.41 LIG 0.17  C 
ATOM     22 OD1  ASP B   2       7.230  -3.377  21.806  1.00 15.73 LIG-0.65  OA
ATOM     23 OD2  ASP B   2       8.436  -4.505  23.311  1.00 22.30 LIG-0.65  OA
ENDBRANCH 20 21
ENDBRANCH 7 20
ENDBRANCH 4 7
ENDBRANCH 1 3
BRANCH 1 24
ATOM     24  C   ALA B   3      12.620  -1.275  24.486  1.00 21.51 LIG 0.24  C 
ATOM     25  N   VAL B   4      13.578  -0.998  25.366  1.00 22.67 LIG-0.35  N 
ATOM     26 H    VAL B   4      13.595  -1.308  26.168  1.00 22.67 LIG 0.16  HD
ATOM     27 O    ALA B   3      12.510  -0.689  23.406  1.00 22.81 LIG-0.27  OA
BRANCH 25 28
ATOM     28  CA  VAL B   4      14.704  -0.124  25.029  1.00 26.45 LIG 0.18  C 
BRANCH 28 29
ATOM     29  CB  VAL B   4      14.289   1.365  25.025  1.00 30.01 LIG 0.01  C 
ATOM     30  CG2 VAL B   4      13.073   1.588  25.923  1.00 31.20 LIG 0.01  C 
ATOM     31  CG1 VAL B   4      14.003   1.845  23.603  1.00 33.02 LIG 0.01  C 
ENDBRANCH 28 29
BRANCH 28 32
ATOM     32  C   VAL B   4      15.783  -0.372  26.089  1.00 25.61 LIG 0.24  C 
ATOM     33  N   ASN B   5      15.423  -1.071  27.161  1.00 29.33 LIG-0.35  N 
ATOM     34 H    ASN B   5      14.636  -1.399  27.273  1.00 29.33 LIG 0.16  HD
ATOM     35 O    VAL B   4      16.911   0.098  25.939  1.00 29.65 LIG-0.27  OA
BRANCH 33 36
ATOM     36  CA  ASN B   5      16.355  -1.350  28.269  1.00 34.74 LIG 0.17  C 
BRANCH 36 37
ATOM     37  CB  ASN B   5      17.367  -2.402  27.827  1.00 42.44 LIG 0.14  C 
BRANCH 37 38
ATOM     38  CG  ASN B   5      17.000  -3.026  26.493  1.00 45.23 LIG 0.22  C 
ATOM     39 OD1  ASN B   5      17.727  -2.884  25.523  1.00 53.97 LIG-0.27  OA
ATOM     40  ND2 ASN B   5      15.844  -3.679  26.431  1.00 50.63 LIG-0.37  N 
ATOM     41 21HD ASN B   5      15.583  -4.022  25.687  1.00 50.63 LIG 0.16  HD
ATOM     42 22HD ASN B   5      15.357  -3.760  27.135  1.00 50.63 LIG 0.16  HD
ENDBRANCH 37 38
ENDBRANCH 36 37
BRANCH 36 43
ATOM     43  C   ASN B   5      17.067  -0.101  28.761  1.00 38.04 LIG 0.22  C 
ATOM     44 O    ASN B   5      16.470   0.970  28.798  1.00 41.05 LIG-0.29  OA
ENDBRANCH 36 43
ENDBRANCH 33 36
ENDBRANCH 28 32
ENDBRANCH 25 28
ENDBRANCH 1 24
TORSDOF 16
ENDMDL
MODEL 5
USER: ADFR SOLUTION from run 133
USER: SCORE 13.403726 LL:  -2.988 LR: -11.574 RR:   0.000 FEB:  -6.801
USER: RMSD 5.163243
USER: SEED 132
USER: STATUS no improvement in best in 10 clusters for 5 generations
USER: GENES 18
USER: genes 0 Translation |==|  0.43507 0.42885 0.33580
USER: genes 1 Rotation |==|  0.72279 0.60873 0.92292 0.59836
USER: genes 2 Torsion [CB]-CA--N-[C] |==|  0.84906
USER: genes 3 Torsion [N]-C--CA-[N] |==|  0.45291
USER: genes 4 Torsion [C]-CA--N-[C] |==|  0.66869
USER: genes 5 Torsion [N]-C--CA-[N] |==|  0.47127
USER: genes 6 Torsion [C]-CA--CB-[CG2] |==|  0.25837
USER: genes 7 Torsion [C]-CA--N-[H2] |==|  0.45305
USER: genes 8 Torsion [C]-CA--CB-[CG] |==|  0.91040
USER: genes 9 Torsion [CA]-CB--CG-[OD2] |==|  0.31261
USER: genes 10 Torsion [N]-CA--C-[N] |==|  0.45039
USER: genes 11 Torsion [C]-N--CA-[CB] |==|  0.19788
USER: genes 12 Torsion [N]-CA--CB-[CG2] |==|  0.52951
USER: genes 13 Torsion [N]-CA--C-[N] |==|  0.91585
USER: genes 14 Torsion [C]-N--CA-[CB] |==|  0.83439
USER: genes 15 Torsion [N]-CA--CB-[CG] |==|  0.66347
USER: genes 16 Torsion [CA]-CB--CG-[OD1] |==|  0.36940
USER: genes 17 Torsion [N]-CA--C-[O] |==|  0.04267
ROOT
ATOM      1  CA  ALA B   3       9.795  -1.553  22.608  1.00 18.86 LIG 0.17  C 
ATOM      2  CB  ALA B   3       8.581  -1.851  23.486  1.00 19.35 LIG 0.04  C 
ENDROOT
BRANCH 1 3
ATOM      3  N   ALA B   3       9.886  -2.555  21.555  1.00 16.29 LIG-0.35  N 
ATOM      4  C   ASP B   2       9.913  -3.856  21.803  1.00 15.20 LIG 0.24  C 
ATOM      5 O    ASP B   2       9.789  -4.325  22.947  1.00 18.35 LIG-0.27  OA
ATOM      6 H    ALA B   3       9.920  -2.224  20.761  1.00 16.29 LIG 0.16  HD
BRANCH 4 7
ATOM      7  CA  ASP B   2      10.118  -4.771  20.587  1.00 15.30 LIG 0.19  C 
BRANCH 7 8
ATOM      8  N   ASP B   2      10.523  -6.102  20.986  1.00 15.19 LIG-0.34  N 
ATOM      9  C   VAL B   1      11.676  -6.621  20.603  1.00 14.82 LIG 0.25  C 
ATOM     10 O    VAL B   1      12.447  -6.036  19.841  1.00 14.79 LIG-0.27  OA
ATOM     11 H    ASP B   2       9.953  -6.512  21.483  1.00 15.19 LIG 0.16  HD
BRANCH 9 12
ATOM     12  CA  VAL B   1      11.976  -8.032  21.098  1.00 14.89 LIG 0.28  C 
BRANCH 12 13
ATOM     13  CB  VAL B   1      12.226  -8.097  22.612  1.00 17.39 LIG 0.02  C 
ATOM     14  CG2 VAL B   1      10.999  -8.402  23.392  1.00 22.29 LIG 0.01  C 
ATOM     15  CG1 VAL B   1      12.796  -6.810  23.134  1.00 17.29 LIG 0.01  C 
ENDBRANCH 12 13
BRANCH 12 16
ATOM     16  N   VAL B   1      13.158  -8.522  20.378  1.00 15.02 LIG-0.07  N 
ATOM     17 H2   VAL B   1      13.498  -9.223  20.808  1.00 15.02 LIG 0.28  HD
ATOM     18 H3   VAL B   1      12.926  -8.764  19.554  1.00 15.02 LIG 0.28  HD
ATOM     19 H1   VAL B   1      13.770  -7.876  20.336  1.00 15.02 LIG 0.28  HD
ENDBRANCH 12 16
ENDBRANCH 9 12
ENDBRANCH 7 8
BRANCH 7 20
ATOM     20  CB  ASP B   2       8.876  -4.830  19.693  1.00 16.98 LIG 0.15  C 
BRANCH 20 21
ATOM     21  CG  ASP B   2       7.584  -4.692  20.466  1.00 17.41 LIG 0.17  C 
ATOM     22 OD1  ASP B   2       7.252  -5.637  21.239  1.00 15.73 LIG-0.65  OA
ATOM     23 OD2  ASP B   2       6.888  -3.647  20.288  1.00 22.30 LIG-0.65  OA
ENDBRANCH 20 21
ENDBRANCH 7 20
ENDBRANCH 4 7
ENDBRANCH 1 3
BRANCH 1 24
ATOM     24  C   ALA B   3      11.071  -1.520  23.448  1.00 21.51 LIG 0.24  C 
ATOM     25  N   VAL B   4      11.262  -0.430  24.184  1.00 22.67 LIG-0.35  N 
ATOM     26 H    VAL B   4      10.787   0.284  24.115  1.00 22.67 LIG 0.16  HD
ATOM     27 O    ALA B   3      11.863  -2.465  23.430  1.00 22.81 LIG-0.27  OA
BRANCH 25 28
ATOM     28  CA  VAL B   4      12.321  -0.357  25.194  1.00 26.45 LIG 0.18  C 
BRANCH 28 29
ATOM     29  CB  VAL B   4      13.723  -0.278  24.546  1.00 30.01 LIG 0.01  C 
ATOM     30  CG2 VAL B   4      14.814  -0.466  25.598  1.00 31.20 LIG 0.01  C 
ATOM     31  CG1 VAL B   4      13.906   1.048  23.811  1.00 33.02 LIG 0.01  C 
ENDBRANCH 28 29
BRANCH 28 32
ATOM     32  C   VAL B   4      12.048   0.901  26.025  1.00 25.61 LIG 0.24  C 
ATOM     33  N   ASN B   5      11.450   1.914  25.405  1.00 29.33 LIG-0.35  N 
ATOM     34 H    ASN B   5      11.197   1.886  24.583  1.00 29.33 LIG 0.16  HD
ATOM     35 O    VAL B   4      12.409   0.951  27.201  1.00 29.65 LIG-0.27  OA
BRANCH 33 36
ATOM     36  CA  ASN B   5      11.161   3.192  26.081  1.00 34.74 LIG 0.17  C 
BRANCH 36 37
ATOM     37  CB  ASN B   5      10.252   2.938  27.279  1.00 42.44 LIG 0.14  C 
BRANCH 37 38
ATOM     38  CG  ASN B   5       8.947   3.705  27.181  1.00 45.23 LIG 0.22  C 
ATOM     39 OD1  ASN B   5       7.884   3.147  27.399  1.00 53.97 LIG-0.27  OA
ATOM     40  ND2 ASN B   5       9.022   4.978  26.806  1.00 50.63 LIG-0.37  N 
ATOM     41 21HD ASN B   5       8.304   5.441  26.709  1.00 50.63 LIG 0.16  HD
ATOM     42 22HD ASN B   5       9.789   5.339  26.661  1.00 50.63 LIG 0.16  HD
ENDBRANCH 37 38
ENDBRANCH 36 37
BRANCH 36 43
ATOM     43  C   ASN B   5      12.422   3.920  26.515  1.00 38.04 LIG 0.22  C 
ATOM     44 O    ASN B   5      13.510   3.588  26.055  1.00 41.05 LIG-0.29  OA
ENDBRANCH 36 43
ENDBRANCH 33 36
ENDBRANCH 28 32
ENDBRANCH 25 28
ENDBRANCH 1 24
TORSDOF 16
ENDMDL
MODEL 6
USER: ADFR SOLUTION from run 7
USER: SCORE 12.898010 LL:  -2.367 LR: -11.341 RR:   0.000 FEB:  -6.568
USER: RMSD 6.171219
USER: SEED 399635
USER: STATUS no improvement in best in 5 clusters for 5 generations
USER: GENES 18
USER: genes 0 Translation |==|  0.45307 0.37609 0.34479
USER: genes 1 Rotation |==|  0.74743 0.65061 0.90504 0.54516
USER: genes 2 Torsion [CB]-CA--N-[C] |==|  0.87055
USER: genes 3 Torsion [N]-C--CA-[N] |==|  0.90264
USER: genes 4 Torsion [C]-CA--N-[C] |==|  0.67237
USER: genes 5 Torsion [N]-C--CA-[N] |==|  0.36558
USER: genes 6 Torsion [C]-CA--CB-[CG2] |==|  0.62221
USER: genes 7 Torsion [C]-CA--N-[H2] |==|  0.84236
USER: genes 8 Torsion [C]-CA--CB-[CG] |==|  0.48824
USER: genes 9 Torsion [CA]-CB--CG-[OD2] |==|  0.01041
USER: genes 10 Torsion [N]-CA--C-[N] |==|  0.36262
USER: genes 11 Torsion [C]-N--CA-[CB] |==|  0.56170
USER: genes 12 Torsion [N]-CA--CB-[CG2] |==|  0.54109
USER: genes 13 Torsion [N]-CA--C-[N] |==|  0.38380
USER: genes 14 Torsion [C]-N--CA-[CB] |==|  0.52792
USER: genes 15 Torsion [N]-CA--CB-[CG] |==|  0.06629
USER: genes 16 Torsion [CA]-CB--CG-[OD1] |==|  0.23854
USER: genes 17 Torsion [N]-CA--C-[O] |==|  0.87208
ROOT
ATOM      1  CA  ALA B   3      10.105  -2.502  22.797  1.00 18.86 LIG 0.17  C 
ATOM      2  CB  ALA B   3       9.175  -2.996  23.902  1.00 19.35 LIG 0.04  C 
ENDROOT
BRANCH 1 3
ATOM      3  N   ALA B   3      10.216  -3.527  21.768  1.00 16.29 LIG-0.35  N 
ATOM      4  C   ASP B   2      10.430  -4.805  22.048  1.00 15.20 LIG 0.24  C 
ATOM      5 O    ASP B   2      10.479  -5.239  23.211  1.00 18.35 LIG-0.27  OA
ATOM      6 H    ALA B   3      10.131  -3.227  20.966  1.00 16.29 LIG 0.16  HD
BRANCH 4 7
ATOM      7  CA  ASP B   2      10.627  -5.736  20.842  1.00 15.30 LIG 0.19  C 
BRANCH 7 8
ATOM      8  N   ASP B   2       9.805  -5.335  19.721  1.00 15.19 LIG-0.34  N 
ATOM      9  C   VAL B   1       8.867  -6.125  19.229  1.00 14.82 LIG 0.25  C 
ATOM     10 O    VAL B   1       8.673  -7.267  19.649  1.00 14.79 LIG-0.27  OA
ATOM     11 H    ASP B   2       9.982  -4.551  19.414  1.00 15.19 LIG 0.16  HD
BRANCH 9 12
ATOM     12  CA  VAL B   1       8.075  -5.574  18.048  1.00 14.89 LIG 0.28  C 
BRANCH 12 13
ATOM     13  CB  VAL B   1       6.643  -5.166  18.424  1.00 17.39 LIG 0.02  C 
ATOM     14  CG2 VAL B   1       5.631  -5.613  17.431  1.00 22.29 LIG 0.01  C 
ATOM     15  CG1 VAL B   1       6.514  -3.678  18.575  1.00 17.29 LIG 0.01  C 
ENDBRANCH 12 13
BRANCH 12 16
ATOM     16  N   VAL B   1       8.039  -6.609  17.006  1.00 15.02 LIG-0.07  N 
ATOM     17 H2   VAL B   1       8.870  -6.840  16.788  1.00 15.02 LIG 0.28  HD
ATOM     18 H3   VAL B   1       7.604  -7.323  17.311  1.00 15.02 LIG 0.28  HD
ATOM     19 H1   VAL B   1       7.621  -6.292  16.287  1.00 15.02 LIG 0.28  HD
ENDBRANCH 12 16
ENDBRANCH 9 12
ENDBRANCH 7 8
BRANCH 7 20
ATOM     20  CB  ASP B   2      12.096  -5.837  20.426  1.00 16.98 LIG 0.15  C 
BRANCH 20 21
ATOM     21  CG  ASP B   2      12.327  -6.827  19.306  1.00 17.41 LIG 0.17  C 
ATOM     22 OD1  ASP B   2      13.517  -7.023  18.924  1.00 15.73 LIG-0.65  OA
ATOM     23 OD2  ASP B   2      11.318  -7.397  18.792  1.00 22.30 LIG-0.65  OA
ENDBRANCH 20 21
ENDBRANCH 7 20
ENDBRANCH 4 7
ENDBRANCH 1 3
BRANCH 1 24
ATOM     24  C   ALA B   3      11.478  -2.145  23.368  1.00 21.51 LIG 0.24  C 
ATOM     25  N   VAL B   4      11.768  -0.850  23.432  1.00 22.67 LIG-0.35  N 
ATOM     26 H    VAL B   4      11.294  -0.234  23.063  1.00 22.67 LIG 0.16  HD
ATOM     27 O    ALA B   3      12.253  -3.028  23.745  1.00 22.81 LIG-0.27  OA
BRANCH 25 28
ATOM     28  CA  VAL B   4      12.946  -0.359  24.151  1.00 26.45 LIG 0.18  C 
BRANCH 28 29
ATOM     29  CB  VAL B   4      12.790   1.125  24.556  1.00 30.01 LIG 0.01  C 
ATOM     30  CG2 VAL B   4      14.137   1.716  24.967  1.00 31.20 LIG 0.01  C 
ATOM     31  CG1 VAL B   4      11.769   1.275  25.682  1.00 33.02 LIG 0.01  C 
ENDBRANCH 28 29
BRANCH 28 32
ATOM     32  C   VAL B   4      13.096  -1.238  25.397  1.00 25.61 LIG 0.24  C 
ATOM     33  N   ASN B   5      14.328  -1.622  25.717  1.00 29.33 LIG-0.35  N 
ATOM     34 H    ASN B   5      15.029  -1.388  25.278  1.00 29.33 LIG 0.16  HD
ATOM     35 O    VAL B   4      12.098  -1.582  26.030  1.00 29.65 LIG-0.27  OA
BRANCH 33 36
ATOM     36  CA  ASN B   5      14.606  -2.497  26.871  1.00 34.74 LIG 0.17  C 
BRANCH 36 37
ATOM     37  CB  ASN B   5      16.111  -2.549  27.117  1.00 42.44 LIG 0.14  C 
BRANCH 37 38
ATOM     38  CG  ASN B   5      16.823  -1.329  26.564  1.00 45.23 LIG 0.22  C 
ATOM     39 OD1  ASN B   5      16.915  -0.312  27.232  1.00 53.97 LIG-0.27  OA
ATOM     40  ND2 ASN B   5      17.290  -1.413  25.323  1.00 50.63 LIG-0.37  N 
ATOM     41 21HD ASN B   5      17.674  -0.735  24.961  1.00 50.63 LIG 0.16  HD
ATOM     42 22HD ASN B   5      17.208  -2.147  24.881  1.00 50.63 LIG 0.16  HD
ENDBRANCH 37 38
ENDBRANCH 36 37
BRANCH 36 43
ATOM     43  C   ASN B   5      13.877  -2.053  28.128  1.00 38.04 LIG 0.22  C 
ATOM     44 O    ASN B   5      13.882  -0.870  28.454  1.00 41.05 LIG-0.29  OA
ENDBRANCH 36 43
ENDBRANCH 33 36
ENDBRANCH 28 32
ENDBRANCH 25 28
ENDBRANCH 1 24
TORSDOF 16
ENDMDL
MODEL 7
USER: ADFR SOLUTION from run 157
USER: SCORE 13.258738 LL:  -3.547 LR: -11.295 RR:   0.000 FEB:  -6.523
USER: RMSD 8.128261
USER: SEED 156
USER: STATUS no improvement in best in 4 clusters for 5 generations
USER: GENES 18
USER: genes 0 Translation |==|  0.30505 0.42649 0.39786
USER: genes 1 Rotation |==|  0.93207 0.53722 0.74753 0.52576
USER: genes 2 Torsion [CB]-CA--N-[C] |==|  0.81667
USER: genes 3 Torsion [N]-C--CA-[N] |==|  0.38770
USER: genes 4 Torsion [C]-CA--N-[C] |==|  0.71518
USER: genes 5 Torsion [N]-C--CA-[N] |==|  0.38909
USER: genes 6 Torsion [C]-CA--CB-[CG2] |==|  0.93958
USER: genes 7 Torsion [C]-CA--N-[H2] |==|  0.28996
USER: genes 8 Torsion [C]-CA--CB-[CG] |==|  0.25497
USER: genes 9 Torsion [CA]-CB--CG-[OD2] |==|  0.16434
USER: genes 10 Torsion [N]-CA--C-[N] |==|  0.53784
USER: genes 11 Torsion [C]-N--CA-[CB] |==|  0.50916
USER: genes 12 Torsion [N]-CA--CB-[CG2] |==|  0.11343
USER: genes 13 Torsion [N]-CA--C-[N] |==|  0.29690
USER: genes 14 Torsion [C]-N--CA-[CB] |==|  0.83303
USER: genes 15 Torsion [N]-CA--CB-[CG] |==|  0.62702
USER: genes 16 Torsion [CA]-CB--CG-[OD1] |==|  0.13236
USER: genes 17 Torsion [N]-CA--C-[O] |==|  0.20871
ROOT
ATOM      1  CA  ALA B   3       7.552  -1.595  23.911  1.00 18.86 LIG 0.17  C 
ATOM      2  CB  ALA B   3       7.610  -2.272  25.279  1.00 19.35 LIG 0.04  C 
ENDROOT
BRANCH 1 3
ATOM      3  N   ALA B   3       6.370  -2.056  23.195  1.00 16.29 LIG-0.35  N 
ATOM      4  C   ASP B   2       6.218  -3.310  22.794  1.00 15.20 LIG 0.24  C 
ATOM      5 O    ASP B   2       7.037  -4.205  23.061  1.00 18.35 LIG-0.27  OA
ATOM      6 H    ALA B   3       5.784  -1.441  23.058  1.00 16.29 LIG 0.16  HD
BRANCH 4 7
ATOM      7  CA  ASP B   2       4.962  -3.604  21.960  1.00 15.30 LIG 0.19  C 
BRANCH 7 8
ATOM      8  N   ASP B   2       5.249  -4.509  20.868  1.00 15.19 LIG-0.34  N 
ATOM      9  C   VAL B   1       5.384  -4.078  19.627  1.00 14.82 LIG 0.25  C 
ATOM     10 O    VAL B   1       5.215  -2.899  19.310  1.00 14.79 LIG-0.27  OA
ATOM     11 H    ASP B   2       5.322  -5.334  21.100  1.00 15.19 LIG 0.16  HD
BRANCH 9 12
ATOM     12  CA  VAL B   1       5.687  -5.140  18.575  1.00 14.89 LIG 0.28  C 
BRANCH 12 13
ATOM     13  CB  VAL B   1       7.181  -5.230  18.226  1.00 17.39 LIG 0.02  C 
ATOM     14  CG2 VAL B   1       7.931  -3.992  18.557  1.00 22.29 LIG 0.01  C 
ATOM     15  CG1 VAL B   1       7.392  -5.522  16.769  1.00 17.29 LIG 0.01  C 
ENDBRANCH 12 13
BRANCH 12 16
ATOM     16  N   VAL B   1       4.915  -4.815  17.368  1.00 15.02 LIG-0.07  N 
ATOM     17 H2   VAL B   1       5.457  -4.468  16.754  1.00 15.02 LIG 0.28  HD
ATOM     18 H3   VAL B   1       4.539  -5.556  17.047  1.00 15.02 LIG 0.28  HD
ATOM     19 H1   VAL B   1       4.280  -4.225  17.571  1.00 15.02 LIG 0.28  HD
ENDBRANCH 12 16
ENDBRANCH 9 12
ENDBRANCH 7 8
BRANCH 7 20
ATOM     20  CB  ASP B   2       3.813  -4.141  22.817  1.00 16.98 LIG 0.15  C 
BRANCH 20 21
ATOM     21  CG  ASP B   2       2.897  -3.051  23.328  1.00 17.41 LIG 0.17  C 
ATOM     22 OD1  ASP B   2       2.747  -2.942  24.580  1.00 15.73 LIG-0.65  OA
ATOM     23 OD2  ASP B   2       2.309  -2.315  22.480  1.00 22.30 LIG-0.65  OA
ENDBRANCH 20 21
ENDBRANCH 7 20
ENDBRANCH 4 7
ENDBRANCH 1 3
BRANCH 1 24
ATOM     24  C   ALA B   3       8.825  -1.883  23.115  1.00 21.51 LIG 0.24  C 
ATOM     25  N   VAL B   4       9.971  -1.766  23.778  1.00 22.67 LIG-0.35  N 
ATOM     26 H    VAL B   4      10.037  -1.426  24.565  1.00 22.67 LIG 0.16  HD
ATOM     27 O    ALA B   3       8.766  -2.205  21.926  1.00 22.81 LIG-0.27  OA
BRANCH 25 28
ATOM     28  CA  VAL B   4      11.242  -2.219  23.206  1.00 26.45 LIG 0.18  C 
BRANCH 28 29
ATOM     29  CB  VAL B   4      12.410  -2.048  24.204  1.00 30.01 LIG 0.01  C 
ATOM     30  CG2 VAL B   4      11.975  -2.442  25.614  1.00 31.20 LIG 0.01  C 
ATOM     31  CG1 VAL B   4      12.936  -0.615  24.183  1.00 33.02 LIG 0.01  C 
ENDBRANCH 28 29
BRANCH 28 32
ATOM     32  C   VAL B   4      11.059  -3.697  22.848  1.00 25.61 LIG 0.24  C 
ATOM     33  N   ASN B   5      10.950  -3.995  21.557  1.00 29.33 LIG-0.35  N 
ATOM     34 H    ASN B   5      10.998  -3.410  20.928  1.00 29.33 LIG 0.16  HD
ATOM     35 O    VAL B   4      10.985  -4.541  23.741  1.00 29.65 LIG-0.27  OA
BRANCH 33 36
ATOM     36  CA  ASN B   5      10.737  -5.374  21.081  1.00 34.74 LIG 0.17  C 
BRANCH 36 37
ATOM     37  CB  ASN B   5      11.901  -6.252  21.530  1.00 42.44 LIG 0.14  C 
BRANCH 37 38
ATOM     38  CG  ASN B   5      12.415  -7.138  20.411  1.00 45.23 LIG 0.22  C 
ATOM     39 OD1  ASN B   5      12.639  -6.670  19.306  1.00 53.97 LIG-0.27  OA
ATOM     40  ND2 ASN B   5      12.559  -8.431  20.682  1.00 50.63 LIG-0.37  N 
ATOM     41 21HD ASN B   5      12.819  -8.973  20.068  1.00 50.63 LIG 0.16  HD
ATOM     42 22HD ASN B   5      12.393  -8.725  21.473  1.00 50.63 LIG 0.16  HD
ENDBRANCH 37 38
ENDBRANCH 36 37
BRANCH 36 43
ATOM     43  C   ASN B   5       9.417  -5.957  21.557  1.00 38.04 LIG 0.22  C 
ATOM     44 O    ASN B   5       8.365  -5.598  21.038  1.00 41.05 LIG-0.29  OA
ENDBRANCH 36 43
ENDBRANCH 33 36
ENDBRANCH 28 32
ENDBRANCH 25 28
ENDBRANCH 1 24
TORSDOF 16
ENDMDL
MODEL 8
USER: ADFR SOLUTION from run 178
USER: SCORE 11.794464 LL:  -3.197 LR: -11.295 RR:   0.000 FEB:  -6.522
USER: RMSD 5.676877
USER: SEED 177
USER: STATUS no improvement in best in 17 clusters for 5 generations
USER: GENES 18
USER: genes 0 Translation |==|  0.39167 0.33996 0.33422
USER: genes 1 Rotation |==|  0.22343 0.50261 0.43037 0.91068
USER: genes 2 Torsion [CB]-CA--N-[C] |==|  0.44940
USER: genes 3 Torsion [N]-C--CA-[N] |==|  0.07222
USER: genes 4 Torsion [C]-CA--N-[C] |==|  0.70180
USER: genes 5 Torsion [N]-C--CA-[N] |==|  0.40864
USER: genes 6 Torsion [C]-CA--CB-[CG2] |==|  0.31264
USER: genes 7 Torsion [C]-CA--N-[H2] |==|  0.72697
USER: genes 8 Torsion [C]-CA--CB-[CG] |==|  0.23029
USER: genes 9 Torsion [CA]-CB--CG-[OD2] |==|  0.12277
USER: genes 10 Torsion [N]-CA--C-[N] |==|  0.18761
USER: genes 11 Torsion [C]-N--CA-[CB] |==|  0.47952
USER: genes 12 Torsion [N]-CA--CB-[CG2] |==|  0.80556
USER: genes 13 Torsion [N]-CA--C-[N] |==|  0.41237
USER: genes 14 Torsion [C]-N--CA-[CB] |==|  0.31304
USER: genes 15 Torsion [N]-CA--CB-[CG] |==|  0.77828
USER: genes 16 Torsion [CA]-CB--CG-[OD1] |==|  0.17912
USER: genes 17 Torsion [N]-CA--C-[O] |==|  0.85007
ROOT
ATOM      1  CA  ALA B   3       9.046  -3.153  22.575  1.00 18.86 LIG 0.17  C 
ATOM      2  CB  ALA B   3      10.169  -3.663  21.673  1.00 19.35 LIG 0.04  C 
ENDROOT
BRANCH 1 3
ATOM      3  N   ALA B   3       7.766  -3.359  21.913  1.00 16.29 LIG-0.35  N 
ATOM      4  C   ASP B   2       6.611  -3.348  22.564  1.00 15.20 LIG 0.24  C 
ATOM      5 O    ASP B   2       6.526  -3.090  23.776  1.00 18.35 LIG-0.27  OA
ATOM      6 H    ALA B   3       7.829  -3.487  21.064  1.00 16.29 LIG 0.16  HD
BRANCH 4 7
ATOM      7  CA  ASP B   2       5.365  -3.688  21.733  1.00 15.30 LIG 0.19  C 
BRANCH 7 8
ATOM      8  N   ASP B   2       5.695  -4.518  20.595  1.00 15.19 LIG-0.34  N 
ATOM      9  C   VAL B   1       5.688  -4.041  19.363  1.00 14.82 LIG 0.25  C 
ATOM     10 O    VAL B   1       5.344  -2.887  19.098  1.00 14.79 LIG-0.27  OA
ATOM     11 H    ASP B   2       5.891  -5.331  20.793  1.00 15.19 LIG 0.16  HD
BRANCH 9 12
ATOM     12  CA  VAL B   1       6.057  -5.025  18.258  1.00 14.89 LIG 0.28  C 
BRANCH 12 13
ATOM     13  CB  VAL B   1       7.559  -5.027  17.933  1.00 17.39 LIG 0.02  C 
ATOM     14  CG2 VAL B   1       8.234  -6.296  18.309  1.00 22.29 LIG 0.01  C 
ATOM     15  CG1 VAL B   1       8.275  -3.902  18.622  1.00 17.29 LIG 0.01  C 
ENDBRANCH 12 13
BRANCH 12 16
ATOM     16  N   VAL B   1       5.290  -4.667  17.058  1.00 15.02 LIG-0.07  N 
ATOM     17 H2   VAL B   1       4.572  -5.189  16.998  1.00 15.02 LIG 0.28  HD
ATOM     18 H3   VAL B   1       5.034  -3.816  17.111  1.00 15.02 LIG 0.28  HD
ATOM     19 H1   VAL B   1       5.799  -4.779  16.335  1.00 15.02 LIG 0.28  HD
ENDBRANCH 12 16
ENDBRANCH 9 12
ENDBRANCH 7 8
BRANCH 7 20
ATOM     20  CB  ASP B   2       4.269  -4.342  22.578  1.00 16.98 LIG 0.15  C 
BRANCH 20 21
ATOM     21  CG  ASP B   2       3.419  -3.339  23.326  1.00 17.41 LIG 0.17  C 
ATOM     22 OD1  ASP B   2       3.127  -3.592  24.531  1.00 15.73 LIG-0.65  OA
ATOM     23 OD2  ASP B   2       3.025  -2.306  22.705  1.00 22.30 LIG-0.65  OA
ENDBRANCH 20 21
ENDBRANCH 7 20
ENDBRANCH 4 7
ENDBRANCH 1 3
BRANCH 1 24
ATOM     24  C   ALA B   3       9.259  -1.678  22.916  1.00 21.51 LIG 0.24  C 
ATOM     25  N   VAL B   4       8.455  -1.168  23.843  1.00 22.67 LIG-0.35  N 
ATOM     26 H    VAL B   4       7.764  -1.576  24.155  1.00 22.67 LIG 0.16  HD
ATOM     27 O    ALA B   3      10.135  -1.020  22.351  1.00 22.81 LIG-0.27  OA
BRANCH 25 28
ATOM     28  CA  VAL B   4       8.687   0.159  24.419  1.00 26.45 LIG 0.18  C 
BRANCH 28 29
ATOM     29  CB  VAL B   4       7.519   0.595  25.334  1.00 30.01 LIG 0.01  C 
ATOM     30  CG2 VAL B   4       6.269   0.890  24.508  1.00 31.20 LIG 0.01  C 
ATOM     31  CG1 VAL B   4       7.912   1.811  26.171  1.00 33.02 LIG 0.01  C 
ENDBRANCH 28 29
BRANCH 28 32
ATOM     32  C   VAL B   4       9.987   0.066  25.224  1.00 25.61 LIG 0.24  C 
ATOM     33  N   ASN B   5      10.732   1.164  25.293  1.00 29.33 LIG-0.35  N 
ATOM     34 H    ASN B   5      10.511   1.913  24.931  1.00 29.33 LIG 0.16  HD
ATOM     35 O    VAL B   4      10.314  -1.002  25.741  1.00 29.65 LIG-0.27  OA
BRANCH 33 36
ATOM     36  CA  ASN B   5      12.022   1.199  26.005  1.00 34.74 LIG 0.17  C 
BRANCH 36 37
ATOM     37  CB  ASN B   5      13.153   1.391  24.999  1.00 42.44 LIG 0.14  C 
BRANCH 37 38
ATOM     38  CG  ASN B   5      13.523   0.096  24.300  1.00 45.23 LIG 0.22  C 
ATOM     39 OD1  ASN B   5      12.719  -0.466  23.574  1.00 53.97 LIG-0.27  OA
ATOM     40  ND2 ASN B   5      14.727  -0.405  24.556  1.00 50.63 LIG-0.37  N 
ATOM     41 21HD ASN B   5      14.966  -1.152  24.205  1.00 50.63 LIG 0.16  HD
ATOM     42 22HD ASN B   5      15.268   0.019  25.073  1.00 50.63 LIG 0.16  HD
ENDBRANCH 37 38
ENDBRANCH 36 37
BRANCH 36 43
ATOM     43  C   ASN B   5      12.071   2.280  27.071  1.00 38.04 LIG 0.22  C 
ATOM     44 O    ASN B   5      11.811   3.443  26.777  1.00 41.05 LIG-0.29  OA
ENDBRANCH 36 43
ENDBRANCH 33 36
ENDBRANCH 28 32
ENDBRANCH 25 28
ENDBRANCH 1 24
TORSDOF 16
ENDMDL
MODEL 9
USER: ADFR SOLUTION from run 94
USER: SCORE 12.807898 LL:  -2.869 LR: -11.274 RR:   0.000 FEB:  -6.501
USER: RMSD 5.084407
USER: SEED 93
USER: STATUS no improvement in best in 11 clusters for 5 generations
USER: GENES 18
USER: genes 0 Translation |==|  0.35426 0.46792 0.36358
USER: genes 1 Rotation |==|  0.81513 0.66283 0.75307 0.74523
USER: genes 2 Torsion [CB]-CA--N-[C] |==|  0.52229
USER: genes 3 Torsion [N]-C--CA-[N] |==|  0.43829
USER: genes 4 Torsion [C]-CA--N-[C] |==|  0.75688
USER: genes 5 Torsion [N]-C--CA-[N] |==|  0.46049
USER: genes 6 Torsion [C]-CA--CB-[CG2] |==|  0.32272
USER: genes 7 Torsion [C]-CA--N-[H2] |==|  0.38732
USER: genes 8 Torsion [C]-CA--CB-[CG] |==|  0.15655
USER: genes 9 Torsion [CA]-CB--CG-[OD2] |==|  0.62684
USER: genes 10 Torsion [N]-CA--C-[N] |==|  0.74361
USER: genes 11 Torsion [C]-N--CA-[CB] |==|  0.86449
USER: genes 12 Torsion [N]-CA--CB-[CG2] |==|  0.87591
USER: genes 13 Torsion [N]-CA--C-[N] |==|  0.35607
USER: genes 14 Torsion [C]-N--CA-[CB] |==|  0.24321
USER: genes 15 Torsion [N]-CA--CB-[CG] |==|  0.80590
USER: genes 16 Torsion [CA]-CB--CG-[OD1] |==|  0.78279
USER: genes 17 Torsion [N]-CA--C-[O] |==|  0.50679
ROOT
ATOM      1  CA  ALA B   3       8.401  -0.849  23.191  1.00 18.86 LIG 0.17  C 
ATOM      2  CB  ALA B   3       8.015   0.026  24.382  1.00 19.35 LIG 0.04  C 
ENDROOT
BRANCH 1 3
ATOM      3  N   ALA B   3       7.403  -1.896  23.020  1.00 16.29 LIG-0.35  N 
ATOM      4  C   ASP B   2       7.553  -2.898  22.165  1.00 15.20 LIG 0.24  C 
ATOM      5 O    ASP B   2       8.587  -3.061  21.496  1.00 18.35 LIG-0.27  OA
ATOM      6 H    ALA B   3       6.712  -1.804  23.524  1.00 16.29 LIG 0.16  HD
BRANCH 4 7
ATOM      7  CA  ASP B   2       6.360  -3.856  22.032  1.00 15.30 LIG 0.19  C 
BRANCH 7 8
ATOM      8  N   ASP B   2       6.386  -4.565  20.771  1.00 15.19 LIG-0.34  N 
ATOM      9  C   VAL B   1       5.835  -4.064  19.681  1.00 14.82 LIG 0.25  C 
ATOM     10 O    VAL B   1       5.215  -2.999  19.679  1.00 14.79 LIG-0.27  OA
ATOM     11 H    ASP B   2       6.786  -5.327  20.800  1.00 15.19 LIG 0.16  HD
BRANCH 9 12
ATOM     12  CA  VAL B   1       5.938  -4.917  18.421  1.00 14.89 LIG 0.28  C 
BRANCH 12 13
ATOM     13  CB  VAL B   1       7.355  -4.945  17.828  1.00 17.39 LIG 0.02  C 
ATOM     14  CG2 VAL B   1       7.967  -6.298  17.848  1.00 22.29 LIG 0.01  C 
ATOM     15  CG1 VAL B   1       8.277  -4.011  18.557  1.00 17.29 LIG 0.01  C 
ENDBRANCH 12 13
BRANCH 12 16
ATOM     16  N   VAL B   1       4.996  -4.378  17.431  1.00 15.02 LIG-0.07  N 
ATOM     17 H2   VAL B   1       5.373  -4.390  16.625  1.00 15.02 LIG 0.28  HD
ATOM     18 H3   VAL B   1       4.259  -4.876  17.420  1.00 15.02 LIG 0.28  HD
ATOM     19 H1   VAL B   1       4.785  -3.540  17.647  1.00 15.02 LIG 0.28  HD
ENDBRANCH 12 16
ENDBRANCH 9 12
ENDBRANCH 7 8
BRANCH 7 20
ATOM     20  CB  ASP B   2       6.277  -4.839  23.203  1.00 16.98 LIG 0.15  C 
BRANCH 20 21
ATOM     21  CG  ASP B   2       6.209  -4.153  24.548  1.00 17.41 LIG 0.17  C 
ATOM     22 OD1  ASP B   2       5.429  -3.163  24.669  1.00 15.73 LIG-0.65  OA
ATOM     23 OD2  ASP B   2       6.948  -4.588  25.482  1.00 22.30 LIG-0.65  OA
ENDBRANCH 20 21
ENDBRANCH 7 20
ENDBRANCH 4 7
ENDBRANCH 1 3
BRANCH 1 24
ATOM     24  C   ALA B   3       9.795  -1.445  23.391  1.00 21.51 LIG 0.24  C 
ATOM     25  N   VAL B   4      10.170  -1.651  24.649  1.00 22.67 LIG-0.35  N 
ATOM     26 H    VAL B   4       9.737  -1.359  25.332  1.00 22.67 LIG 0.16  HD
ATOM     27 O    ALA B   3      10.511  -1.712  22.423  1.00 22.81 LIG-0.27  OA
BRANCH 25 28
ATOM     28  CA  VAL B   4      11.380  -2.410  24.978  1.00 26.45 LIG 0.18  C 
BRANCH 28 29
ATOM     29  CB  VAL B   4      11.441  -3.748  24.206  1.00 30.01 LIG 0.01  C 
ATOM     30  CG2 VAL B   4      10.086  -4.453  24.240  1.00 31.20 LIG 0.01  C 
ATOM     31  CG1 VAL B   4      12.533  -4.653  24.774  1.00 33.02 LIG 0.01  C 
ENDBRANCH 28 29
BRANCH 28 32
ATOM     32  C   VAL B   4      12.570  -1.523  24.599  1.00 25.61 LIG 0.24  C 
ATOM     33  N   ASN B   5      13.497  -1.329  25.533  1.00 29.33 LIG-0.35  N 
ATOM     34 H    ASN B   5      13.468  -1.689  26.313  1.00 29.33 LIG 0.16  HD
ATOM     35 O    VAL B   4      12.617  -1.000  23.486  1.00 29.65 LIG-0.27  OA
BRANCH 33 36
ATOM     36  CA  ASN B   5      14.673  -0.470  25.309  1.00 34.74 LIG 0.17  C 
BRANCH 36 37
ATOM     37  CB  ASN B   5      14.324   0.971  25.669  1.00 42.44 LIG 0.14  C 
BRANCH 37 38
ATOM     38  CG  ASN B   5      13.352   1.589  24.681  1.00 45.23 LIG 0.22  C 
ATOM     39 OD1  ASN B   5      13.744   1.990  23.598  1.00 53.97 LIG-0.27  OA
ATOM     40  ND2 ASN B   5      12.087   1.708  25.073  1.00 50.63 LIG-0.37  N 
ATOM     41 21HD ASN B   5      11.510   2.080  24.556  1.00 50.63 LIG 0.16  HD
ATOM     42 22HD ASN B   5      11.846   1.413  25.845  1.00 50.63 LIG 0.16  HD
ENDBRANCH 37 38
ENDBRANCH 36 37
BRANCH 36 43
ATOM     43  C   ASN B   5      15.891  -0.932  26.091  1.00 38.04 LIG 0.22  C 
ATOM     44 O    ASN B   5      16.934  -0.288  26.039  1.00 41.05 LIG-0.29  OA
ENDBRANCH 36 43
ENDBRANCH 33 36
ENDBRANCH 28 32
ENDBRANCH 25 28
ENDBRANCH 1 24
TORSDOF 16
ENDMDL
MODEL 10
USER: ADFR SOLUTION from run 58
USER: SCORE 13.000357 LL:  -2.709 LR: -11.234 RR:   0.000 FEB:  -6.462
USER: RMSD 5.817503
USER: SEED 57
USER: STATUS no improvement in best in 15 clusters for 5 generations
USER: GENES 18
USER: genes 0 Translation |==|  0.40109 0.42019 0.33296
USER: genes 1 Rotation |==|  0.65234 0.59672 0.94560 0.63740
USER: genes 2 Torsion [CB]-CA--N-[C] |==|  0.86667
USER: genes 3 Torsion [N]-C--CA-[N] |==|  0.83375
USER: genes 4 Torsion [C]-CA--N-[C] |==|  0.68389
USER: genes 5 Torsion [N]-C--CA-[N] |==|  0.35769
USER: genes 6 Torsion [C]-CA--CB-[CG2] |==|  0.10063
USER: genes 7 Torsion [C]-CA--N-[H2] |==|  0.57237
USER: genes 8 Torsion [C]-CA--CB-[CG] |==|  0.47356
USER: genes 9 Torsion [CA]-CB--CG-[OD2] |==|  0.96054
USER: genes 10 Torsion [N]-CA--C-[N] |==|  0.94434
USER: genes 11 Torsion [C]-N--CA-[CB] |==|  0.52269
USER: genes 12 Torsion [N]-CA--CB-[CG2] |==|  0.95874
USER: genes 13 Torsion [N]-CA--C-[N] |==|  0.46772
USER: genes 14 Torsion [C]-N--CA-[CB] |==|  0.23783
USER: genes 15 Torsion [N]-CA--CB-[CG] |==|  0.76649
USER: genes 16 Torsion [CA]-CB--CG-[OD1] |==|  0.82236
USER: genes 17 Torsion [N]-CA--C-[O] |==|  0.40431
ROOT
ATOM      1  CA  ALA B   3       9.209  -1.709  22.548  1.00 18.86 LIG 0.17  C 
ATOM      2  CB  ALA B   3       7.760  -1.863  23.006  1.00 19.35 LIG 0.04  C 
ENDROOT
BRANCH 1 3
ATOM      3  N   ALA B   3       9.543  -2.791  21.633  1.00 16.29 LIG-0.35  N 
ATOM      4  C   ASP B   2       9.269  -4.062  21.893  1.00 15.20 LIG 0.24  C 
ATOM      5 O    ASP B   2       8.641  -4.420  22.904  1.00 18.35 LIG-0.27  OA
ATOM      6 H    ALA B   3       9.932  -2.530  20.912  1.00 16.29 LIG 0.16  HD
BRANCH 4 7
ATOM      7  CA  ASP B   2       9.784  -5.086  20.872  1.00 15.30 LIG 0.19  C 
BRANCH 7 8
ATOM      8  N   ASP B   2       9.232  -4.847  19.556  1.00 15.19 LIG-0.34  N 
ATOM      9  C   VAL B   1       8.406  -5.705  18.983  1.00 14.82 LIG 0.25  C 
ATOM     10 O    VAL B   1       8.103  -6.782  19.499  1.00 14.79 LIG-0.27  OA
ATOM     11 H    ASP B   2       9.487  -4.111  19.192  1.00 15.19 LIG 0.16  HD
BRANCH 9 12
ATOM     12  CA  VAL B   1       7.899  -5.326  17.595  1.00 14.89 LIG 0.28  C 
BRANCH 12 13
ATOM     13  CB  VAL B   1       6.410  -4.950  17.582  1.00 17.39 LIG 0.02  C 
ATOM     14  CG2 VAL B   1       5.984  -4.219  18.803  1.00 22.29 LIG 0.01  C 
ATOM     15  CG1 VAL B   1       5.535  -6.162  17.441  1.00 17.29 LIG 0.01  C 
ENDBRANCH 12 13
BRANCH 12 16
ATOM     16  N   VAL B   1       8.130  -6.469  16.702  1.00 15.02 LIG-0.07  N 
ATOM     17 H2   VAL B   1       8.208  -6.180  15.864  1.00 15.02 LIG 0.28  HD
ATOM     18 H3   VAL B   1       8.879  -6.887  16.941  1.00 15.02 LIG 0.28  HD
ATOM     19 H1   VAL B   1       7.445  -7.034  16.758  1.00 15.02 LIG 0.28  HD
ENDBRANCH 12 16
ENDBRANCH 9 12
ENDBRANCH 7 8
BRANCH 7 20
ATOM     20  CB  ASP B   2      11.313  -5.127  20.816  1.00 16.98 LIG 0.15  C 
BRANCH 20 21
ATOM     21  CG  ASP B   2      11.844  -6.279  19.993  1.00 17.41 LIG 0.17  C 
ATOM     22 OD1  ASP B   2      13.058  -6.242  19.637  1.00 15.73 LIG-0.65  OA
ATOM     23 OD2  ASP B   2      11.045  -7.213  19.682  1.00 22.30 LIG-0.65  OA
ENDBRANCH 20 21
ENDBRANCH 7 20
ENDBRANCH 4 7
ENDBRANCH 1 3
BRANCH 1 24
ATOM     24  C   ALA B   3      10.153  -1.693  23.750  1.00 21.51 LIG 0.24  C 
ATOM     25  N   VAL B   4      10.806  -2.824  23.999  1.00 22.67 LIG-0.35  N 
ATOM     26 H    VAL B   4      10.633  -3.572  23.611  1.00 22.67 LIG 0.16  HD
ATOM     27 O    ALA B   3      10.288  -0.675  24.433  1.00 22.81 LIG-0.27  OA
BRANCH 25 28
ATOM     28  CA  VAL B   4      11.895  -2.886  24.976  1.00 26.45 LIG 0.18  C 
BRANCH 28 29
ATOM     29  CB  VAL B   4      12.620  -4.251  24.937  1.00 30.01 LIG 0.01  C 
ATOM     30  CG2 VAL B   4      11.792  -5.278  24.168  1.00 31.20 LIG 0.01  C 
ATOM     31  CG1 VAL B   4      12.919  -4.747  26.349  1.00 33.02 LIG 0.01  C 
ENDBRANCH 28 29
BRANCH 28 32
ATOM     32  C   VAL B   4      12.867  -1.756  24.621  1.00 25.61 LIG 0.24  C 
ATOM     33  N   ASN B   5      13.811  -1.471  25.513  1.00 29.33 LIG-0.35  N 
ATOM     34 H    ASN B   5      13.909  -1.896  26.254  1.00 29.33 LIG 0.16  HD
ATOM     35 O    VAL B   4      12.732  -1.139  23.565  1.00 29.65 LIG-0.27  OA
BRANCH 33 36
ATOM     36  CA  ASN B   5      14.786  -0.385  25.309  1.00 34.74 LIG 0.17  C 
BRANCH 36 37
ATOM     37  CB  ASN B   5      14.185   0.933  25.788  1.00 42.44 LIG 0.14  C 
BRANCH 37 38
ATOM     38  CG  ASN B   5      13.318   1.585  24.728  1.00 45.23 LIG 0.22  C 
ATOM     39 OD1  ASN B   5      13.807   1.965  23.676  1.00 53.97 LIG-0.27  OA
ATOM     40  ND2 ASN B   5      12.033   1.759  25.022  1.00 50.63 LIG-0.37  N 
ATOM     41 21HD ASN B   5      11.513   2.151  24.461  1.00 50.63 LIG 0.16  HD
ATOM     42 22HD ASN B   5      11.722   1.478  25.773  1.00 50.63 LIG 0.16  HD
ENDBRANCH 37 38
ENDBRANCH 36 37
BRANCH 36 43
ATOM     43  C   ASN B   5      16.109  -0.650  26.007  1.00 38.04 LIG 0.22  C 
ATOM     44 O    ASN B   5      17.159  -0.271  25.497  1.00 41.05 LIG-0.29  OA
ENDBRANCH 36 43
ENDBRANCH 33 36
ENDBRANCH 28 32
ENDBRANCH 25 28
ENDBRANCH 1 24
TORSDOF 16
ENDMDL
MODEL 11
USER: ADFR SOLUTION from run 22
USER: SCORE 12.003628 LL:  -2.681 LR: -11.202 RR:   0.000 FEB:  -6.430
USER: RMSD 5.489794
USER: SEED 21
USER: STATUS no improvement in best in 7 clusters for 5 generations
USER: GENES 18
USER: genes 0 Translation |==|  0.47607 0.29152 0.35941
USER: genes 1 Rotation |==|  0.21945 0.57089 0.44548 0.90410
USER: genes 2 Torsion [CB]-CA--N-[C] |==|  0.84442
USER: genes 3 Torsion [N]-C--CA-[N] |==|  0.68708
USER: genes 4 Torsion [C]-CA--N-[C] |==|  0.65720
USER: genes 5 Torsion [N]-C--CA-[N] |==|  0.50649
USER: genes 6 Torsion [C]-CA--CB-[CG2] |==|  0.25877
USER: genes 7 Torsion [C]-CA--N-[H2] |==|  0.65585
USER: genes 8 Torsion [C]-CA--CB-[CG] |==|  0.20473
USER: genes 9 Torsion [CA]-CB--CG-[OD2] |==|  0.22448
USER: genes 10 Torsion [N]-CA--C-[N] |==|  0.37587
USER: genes 11 Torsion [C]-N--CA-[CB] |==|  0.17634
USER: genes 12 Torsion [N]-CA--CB-[CG2] |==|  0.45945
USER: genes 13 Torsion [N]-CA--C-[N] |==|  0.29294
USER: genes 14 Torsion [C]-N--CA-[CB] |==|  0.29655
USER: genes 15 Torsion [N]-CA--CB-[CG] |==|  0.32167
USER: genes 16 Torsion [CA]-CB--CG-[OD1] |==|  0.79781
USER: genes 17 Torsion [N]-CA--C-[O] |==|  0.97045
ROOT
ATOM      1  CA  ALA B   3      10.502  -4.025  23.104  1.00 18.86 LIG 0.17  C 
ATOM      2  CB  ALA B   3      11.295  -4.625  21.944  1.00 19.35 LIG 0.04  C 
ENDROOT
BRANCH 1 3
ATOM      3  N   ALA B   3       9.080  -4.082  22.795  1.00 16.29 LIG-0.35  N 
ATOM      4  C   ASP B   2       8.561  -3.545  21.700  1.00 15.20 LIG 0.24  C 
ATOM      5 O    ASP B   2       9.256  -3.015  20.817  1.00 18.35 LIG-0.27  OA
ATOM      6 H    ALA B   3       8.612  -4.495  23.387  1.00 16.29 LIG 0.16  HD
BRANCH 4 7
ATOM      7  CA  ASP B   2       7.031  -3.602  21.581  1.00 15.30 LIG 0.19  C 
BRANCH 7 8
ATOM      8  N   ASP B   2       6.614  -4.474  20.504  1.00 15.19 LIG-0.34  N 
ATOM      9  C   VAL B   1       5.841  -4.045  19.523  1.00 14.82 LIG 0.25  C 
ATOM     10 O    VAL B   1       5.379  -2.904  19.491  1.00 14.79 LIG-0.27  OA
ATOM     11 H    ASP B   2       6.911  -5.279  20.564  1.00 15.19 LIG 0.16  HD
BRANCH 9 12
ATOM     12  CA  VAL B   1       5.481  -5.071  18.453  1.00 14.89 LIG 0.28  C 
BRANCH 12 13
ATOM     13  CB  VAL B   1       6.712  -5.714  17.798  1.00 17.39 LIG 0.02  C 
ATOM     14  CG2 VAL B   1       7.124  -6.983  18.452  1.00 22.29 LIG 0.01  C 
ATOM     15  CG1 VAL B   1       7.892  -4.786  17.809  1.00 17.29 LIG 0.01  C 
ENDBRANCH 12 13
BRANCH 12 16
ATOM     16  N   VAL B   1       4.672  -4.393  17.431  1.00 15.02 LIG-0.07  N 
ATOM     17 H2   VAL B   1       3.896  -4.819  17.336  1.00 15.02 LIG 0.28  HD
ATOM     18 H3   VAL B   1       4.520  -3.553  17.681  1.00 15.02 LIG 0.28  HD
ATOM     19 H1   VAL B   1       5.109  -4.397  16.655  1.00 15.02 LIG 0.28  HD
ENDBRANCH 12 16
ENDBRANCH 9 12
ENDBRANCH 7 8
BRANCH 7 20
ATOM     20  CB  ASP B   2       6.364  -4.013  22.896  1.00 16.98 LIG 0.15  C 
BRANCH 20 21
ATOM     21  CG  ASP B   2       6.382  -2.915  23.936  1.00 17.41 LIG 0.17  C 
ATOM     22 OD1  ASP B   2       7.260  -2.974  24.845  1.00 15.73 LIG-0.65  OA
ATOM     23 OD2  ASP B   2       5.505  -2.002  23.859  1.00 22.30 LIG-0.65  OA
ENDBRANCH 20 21
ENDBRANCH 7 20
ENDBRANCH 4 7
ENDBRANCH 1 3
BRANCH 1 24
ATOM     24  C   ALA B   3      10.949  -2.588  23.374  1.00 21.51 LIG 0.24  C 
ATOM     25  N   VAL B   4      11.740  -2.408  24.427  1.00 22.67 LIG-0.35  N 
ATOM     26 H    VAL B   4      11.902  -3.015  25.014  1.00 22.67 LIG 0.16  HD
ATOM     27 O    ALA B   3      10.586  -1.666  22.641  1.00 22.81 LIG-0.27  OA
BRANCH 25 28
ATOM     28  CA  VAL B   4      12.415  -1.131  24.675  1.00 26.45 LIG 0.18  C 
BRANCH 28 29
ATOM     29  CB  VAL B   4      11.402   0.009  24.930  1.00 30.01 LIG 0.01  C 
ATOM     30  CG2 VAL B   4      12.101   1.226  25.533  1.00 31.20 LIG 0.01  C 
ATOM     31  CG1 VAL B   4      10.269  -0.466  25.838  1.00 33.02 LIG 0.01  C 
ENDBRANCH 28 29
BRANCH 28 32
ATOM     32  C   VAL B   4      13.305  -1.337  25.904  1.00 25.61 LIG 0.24  C 
ATOM     33  N   ASN B   5      14.613  -1.441  25.689  1.00 29.33 LIG-0.35  N 
ATOM     34 H    ASN B   5      14.974  -1.379  24.911  1.00 29.33 LIG 0.16  HD
ATOM     35 O    VAL B   4      12.797  -1.433  27.022  1.00 29.65 LIG-0.27  OA
BRANCH 33 36
ATOM     36  CA  ASN B   5      15.575  -1.676  26.781  1.00 34.74 LIG 0.17  C 
BRANCH 36 37
ATOM     37  CB  ASN B   5      16.081  -3.114  26.711  1.00 42.44 LIG 0.14  C 
BRANCH 37 38
ATOM     38  CG  ASN B   5      17.568  -3.184  26.421  1.00 45.23 LIG 0.22  C 
ATOM     39 OD1  ASN B   5      17.994  -2.921  25.308  1.00 53.97 LIG-0.27  OA
ATOM     40  ND2 ASN B   5      18.359  -3.584  27.412  1.00 50.63 LIG-0.37  N 
ATOM     41 21HD ASN B   5      19.204  -3.666  27.281  1.00 50.63 LIG 0.16  HD
ATOM     42 22HD ASN B   5      18.024  -3.761  28.184  1.00 50.63 LIG 0.16  HD
ENDBRANCH 37 38
ENDBRANCH 36 37
BRANCH 36 43
ATOM     43  C   ASN B   5      16.740  -0.701  26.752  1.00 38.04 LIG 0.22  C 
ATOM     44 O    ASN B   5      16.905   0.028  25.779  1.00 41.05 LIG-0.29  OA
ENDBRANCH 36 43
ENDBRANCH 33 36
ENDBRANCH 28 32
ENDBRANCH 25 28
ENDBRANCH 1 24
TORSDOF 16
ENDMDL
MODEL 12
USER: ADFR SOLUTION from run 37
USER: SCORE 12.501798 LL:  -3.065 LR: -11.187 RR:   0.000 FEB:  -6.414
USER: RMSD 4.863761
USER: SEED 36
USER: STATUS no improvement in best in 7 clusters for 5 generations
USER: GENES 18
USER: genes 0 Translation |==|  0.53282 0.39401 0.44294
USER: genes 1 Rotation |==|  0.18171 0.27914 0.26639 0.71293
USER: genes 2 Torsion [CB]-CA--N-[C] |==|  0.51144
USER: genes 3 Torsion [N]-C--CA-[N] |==|  0.03954
USER: genes 4 Torsion [C]-CA--N-[C] |==|  0.65840
USER: genes 5 Torsion [N]-C--CA-[N] |==|  0.44051
USER: genes 6 Torsion [C]-CA--CB-[CG2] |==|  0.49064
USER: genes 7 Torsion [C]-CA--N-[H2] |==|  0.59081
USER: genes 8 Torsion [C]-CA--CB-[CG] |==|  0.83178
USER: genes 9 Torsion [CA]-CB--CG-[OD2] |==|  0.31737
USER: genes 10 Torsion [N]-CA--C-[N] |==|  0.42778
USER: genes 11 Torsion [C]-N--CA-[CB] |==|  0.49369
USER: genes 12 Torsion [N]-CA--CB-[CG2] |==|  0.41459
USER: genes 13 Torsion [N]-CA--C-[N] |==|  0.85416
USER: genes 14 Torsion [C]-N--CA-[CB] |==|  0.46316
USER: genes 15 Torsion [N]-CA--CB-[CG] |==|  0.60079
USER: genes 16 Torsion [CA]-CB--CG-[OD1] |==|  0.70134
USER: genes 17 Torsion [N]-CA--C-[O] |==|  0.34009
ROOT
ATOM      1  CA  ALA B   3      11.481  -2.180  24.858  1.00 18.86 LIG 0.17  C 
ATOM      2  CB  ALA B   3      12.386  -2.827  25.905  1.00 19.35 LIG 0.04  C 
ENDROOT
BRANCH 1 3
ATOM      3  N   ALA B   3      11.352  -3.073  23.715  1.00 16.29 LIG-0.35  N 
ATOM      4  C   ASP B   2      10.690  -2.742  22.616  1.00 15.20 LIG 0.24  C 
ATOM      5 O    ASP B   2      10.190  -1.618  22.446  1.00 18.35 LIG-0.27  OA
ATOM      6 H    ALA B   3      11.745  -3.832  23.820  1.00 16.29 LIG 0.16  HD
BRANCH 4 7
ATOM      7  CA  ASP B   2      10.560  -3.839  21.549  1.00 15.30 LIG 0.19  C 
BRANCH 7 8
ATOM      8  N   ASP B   2      10.905  -5.140  22.081  1.00 15.19 LIG-0.34  N 
ATOM      9  C   VAL B   1      11.857  -5.881  21.541  1.00 14.82 LIG 0.25  C 
ATOM     10 O    VAL B   1      12.464  -5.543  20.523  1.00 14.79 LIG-0.27  OA
ATOM     11 H    ASP B   2      10.442  -5.378  22.765  1.00 15.19 LIG 0.16  HD
BRANCH 9 12
ATOM     12  CA  VAL B   1      12.117  -7.229  22.203  1.00 14.89 LIG 0.28  C 
BRANCH 12 13
ATOM     13  CB  VAL B   1      12.980  -7.120  23.470  1.00 17.39 LIG 0.02  C 
ATOM     14  CG2 VAL B   1      13.168  -8.422  24.160  1.00 22.29 LIG 0.01  C 
ATOM     15  CG1 VAL B   1      12.391  -6.155  24.458  1.00 17.29 LIG 0.01  C 
ENDBRANCH 12 13
BRANCH 12 16
ATOM     16  N   VAL B   1      12.785  -8.094  21.221  1.00 15.02 LIG-0.07  N 
ATOM     17 H2   VAL B   1      12.540  -8.939  21.354  1.00 15.02 LIG 0.28  HD
ATOM     18 H3   VAL B   1      12.554  -7.844  20.399  1.00 15.02 LIG 0.28  HD
ATOM     19 H1   VAL B   1      13.668  -8.023  21.315  1.00 15.02 LIG 0.28  HD
ENDBRANCH 12 16
ENDBRANCH 9 12
ENDBRANCH 7 8
BRANCH 7 20
ATOM     20  CB  ASP B   2       9.166  -3.868  20.917  1.00 16.98 LIG 0.15  C 
BRANCH 20 21
ATOM     21  CG  ASP B   2       8.067  -4.138  21.921  1.00 17.41 LIG 0.17  C 
ATOM     22 OD1  ASP B   2       8.033  -5.278  22.468  1.00 15.73 LIG-0.65  OA
ATOM     23 OD2  ASP B   2       7.224  -3.219  22.148  1.00 22.30 LIG-0.65  OA
ENDBRANCH 20 21
ENDBRANCH 7 20
ENDBRANCH 4 7
ENDBRANCH 1 3
BRANCH 1 24
ATOM     24  C   ALA B   3      12.036  -0.820  24.434  1.00 21.51 LIG 0.24  C 
ATOM     25  N   VAL B   4      11.714   0.212  25.206  1.00 22.67 LIG-0.35  N 
ATOM     26 H    VAL B   4      11.128   0.176  25.834  1.00 22.67 LIG 0.16  HD
ATOM     27 O    ALA B   3      12.743  -0.713  23.429  1.00 22.81 LIG-0.27  OA
BRANCH 25 28
ATOM     28  CA  VAL B   4      12.348   1.523  25.045  1.00 26.45 LIG 0.18  C 
BRANCH 28 29
ATOM     29  CB  VAL B   4      11.761   2.565  26.024  1.00 30.01 LIG 0.01  C 
ATOM     30  CG2 VAL B   4      12.818   3.600  26.407  1.00 31.20 LIG 0.01  C 
ATOM     31  CG1 VAL B   4      11.199   1.883  27.270  1.00 33.02 LIG 0.01  C 
ENDBRANCH 28 29
BRANCH 28 32
ATOM     32  C   VAL B   4      13.843   1.323  25.314  1.00 25.61 LIG 0.24  C 
ATOM     33  N   ASN B   5      14.174   0.722  26.453  1.00 29.33 LIG-0.35  N 
ATOM     34 H    ASN B   5      13.598   0.430  27.022  1.00 29.33 LIG 0.16  HD
ATOM     35 O    VAL B   4      14.674   1.742  24.509  1.00 29.65 LIG-0.27  OA
BRANCH 33 36
ATOM     36  CA  ASN B   5      15.577   0.499  26.849  1.00 34.74 LIG 0.17  C 
BRANCH 36 37
ATOM     37  CB  ASN B   5      15.631   0.100  28.320  1.00 42.44 LIG 0.14  C 
BRANCH 37 38
ATOM     38  CG  ASN B   5      16.847   0.674  29.024  1.00 45.23 LIG 0.22  C 
ATOM     39 OD1  ASN B   5      17.777  -0.049  29.339  1.00 53.97 LIG-0.27  OA
ATOM     40  ND2 ASN B   5      16.820   1.971  29.314  1.00 50.63 LIG-0.37  N 
ATOM     41 21HD ASN B   5      17.475   2.331  29.739  1.00 50.63 LIG 0.16  HD
ATOM     42 22HD ASN B   5      16.147   2.452  29.076  1.00 50.63 LIG 0.16  HD
ENDBRANCH 37 38
ENDBRANCH 36 37
BRANCH 36 43
ATOM     43  C   ASN B   5      16.266  -0.546  25.989  1.00 38.04 LIG 0.22  C 
ATOM     44 O    ASN B   5      17.287  -0.256  25.372  1.00 41.05 LIG-0.29  OA
ENDBRANCH 36 43
ENDBRANCH 33 36
ENDBRANCH 28 32
ENDBRANCH 25 28
ENDBRANCH 1 24
TORSDOF 16
ENDMDL
MODEL 13
USER: ADFR SOLUTION from run 194
USER: SCORE 11.627973 LL:  -2.877 LR: -11.034 RR:   0.000 FEB:  -6.261
USER: RMSD 6.504175
USER: SEED 193
USER: STATUS no improvement in best in 19 clusters for 5 generations
USER: GENES 18
USER: genes 0 Translation |==|  0.47508 0.31167 0.40204
USER: genes 1 Rotation |==|  0.18216 0.29709 0.46135 0.82605
USER: genes 2 Torsion [CB]-CA--N-[C] |==|  0.81655
USER: genes 3 Torsion [N]-C--CA-[N] |==|  0.39592
USER: genes 4 Torsion [C]-CA--N-[C] |==|  0.57347
USER: genes 5 Torsion [N]-C--CA-[N] |==|  0.35422
USER: genes 6 Torsion [C]-CA--CB-[CG2] |==|  0.15771
USER: genes 7 Torsion [C]-CA--N-[H2] |==|  0.31484
USER: genes 8 Torsion [C]-CA--CB-[CG] |==|  0.72625
USER: genes 9 Torsion [CA]-CB--CG-[OD2] |==|  0.75626
USER: genes 10 Torsion [N]-CA--C-[N] |==|  0.30586
USER: genes 11 Torsion [C]-N--CA-[CB] |==|  0.33959
USER: genes 12 Torsion [N]-CA--CB-[CG2] |==|  0.38379
USER: genes 13 Torsion [N]-CA--C-[N] |==|  0.32712
USER: genes 14 Torsion [C]-N--CA-[CB] |==|  0.45837
USER: genes 15 Torsion [N]-CA--CB-[CG] |==|  0.42598
USER: genes 16 Torsion [CA]-CB--CG-[OD1] |==|  0.24018
USER: genes 17 Torsion [N]-CA--C-[O] |==|  0.00164
ROOT
ATOM      1  CA  ALA B   3      10.485  -3.662  23.999  1.00 18.86 LIG 0.17  C 
ATOM      2  CB  ALA B   3      12.010  -3.620  24.071  1.00 19.35 LIG 0.04  C 
ENDROOT
BRANCH 1 3
ATOM      3  N   ALA B   3      10.075  -4.730  23.098  1.00 16.29 LIG-0.35  N 
ATOM      4  C   ASP B   2      10.326  -4.708  21.797  1.00 15.20 LIG 0.24  C 
ATOM      5 O    ASP B   2      10.993  -3.810  21.257  1.00 18.35 LIG-0.27  OA
ATOM      6 H    ALA B   3       9.657  -5.373  23.488  1.00 16.29 LIG 0.16  HD
BRANCH 4 7
ATOM      7  CA  ASP B   2       9.731  -5.861  20.975  1.00 15.30 LIG 0.19  C 
BRANCH 7 8
ATOM      8  N   ASP B   2       9.273  -5.409  19.679  1.00 15.19 LIG-0.34  N 
ATOM      9  C   VAL B   1       8.308  -6.032  19.027  1.00 14.82 LIG 0.25  C 
ATOM     10 O    VAL B   1       7.782  -7.065  19.447  1.00 14.79 LIG-0.27  OA
ATOM     11 H    ASP B   2       9.680  -4.711  19.382  1.00 15.19 LIG 0.16  HD
BRANCH 9 12
ATOM     12  CA  VAL B   1       7.924  -5.447  17.673  1.00 14.89 LIG 0.28  C 
BRANCH 12 13
ATOM     13  CB  VAL B   1       6.527  -4.806  17.670  1.00 17.39 LIG 0.02  C 
ATOM     14  CG2 VAL B   1       6.374  -3.740  18.694  1.00 22.29 LIG 0.01  C 
ATOM     15  CG1 VAL B   1       5.450  -5.826  17.901  1.00 17.29 LIG 0.01  C 
ENDBRANCH 12 13
BRANCH 12 16
ATOM     16  N   VAL B   1       7.974  -6.529  16.681  1.00 15.02 LIG-0.07  N 
ATOM     17 H2   VAL B   1       7.153  -6.697  16.383  1.00 15.02 LIG 0.28  HD
ATOM     18 H3   VAL B   1       8.493  -6.284  16.000  1.00 15.02 LIG 0.28  HD
ATOM     19 H1   VAL B   1       8.309  -7.263  17.059  1.00 15.02 LIG 0.28  HD
ENDBRANCH 12 16
ENDBRANCH 9 12
ENDBRANCH 7 8
BRANCH 7 20
ATOM     20  CB  ASP B   2      10.712  -7.027  20.823  1.00 16.98 LIG 0.15  C 
BRANCH 20 21
ATOM     21  CG  ASP B   2      11.445  -7.015  19.501  1.00 17.41 LIG 0.17  C 
ATOM     22 OD1  ASP B   2      12.554  -6.407  19.444  1.00 15.73 LIG-0.65  OA
ATOM     23 OD2  ASP B   2      10.906  -7.595  18.511  1.00 22.30 LIG-0.65  OA
ENDBRANCH 20 21
ENDBRANCH 7 20
ENDBRANCH 4 7
ENDBRANCH 1 3
BRANCH 1 24
ATOM     24  C   ALA B   3       9.931  -2.313  23.541  1.00 21.51 LIG 0.24  C 
ATOM     25  N   VAL B   4       8.981  -1.780  24.302  1.00 22.67 LIG-0.35  N 
ATOM     26 H    VAL B   4       8.588  -2.199  24.941  1.00 22.67 LIG 0.16  HD
ATOM     27 O    ALA B   3      10.360  -1.768  22.521  1.00 22.81 LIG-0.27  OA
BRANCH 25 28
ATOM     28  CA  VAL B   4       8.518  -0.403  24.106  1.00 26.45 LIG 0.18  C 
BRANCH 28 29
ATOM     29  CB  VAL B   4       6.998  -0.346  23.830  1.00 30.01 LIG 0.01  C 
ATOM     30  CG2 VAL B   4       6.356   0.811  24.592  1.00 31.20 LIG 0.01  C 
ATOM     31  CG1 VAL B   4       6.330  -1.670  24.198  1.00 33.02 LIG 0.01  C 
ENDBRANCH 28 29
BRANCH 28 32
ATOM     32  C   VAL B   4       8.855   0.359  25.391  1.00 25.61 LIG 0.24  C 
ATOM     33  N   ASN B   5       9.705   1.376  25.283  1.00 29.33 LIG-0.35  N 
ATOM     34 H    ASN B   5      10.049   1.631  24.537  1.00 29.33 LIG 0.16  HD
ATOM     35 O    VAL B   4       8.371  -0.001  26.464  1.00 29.65 LIG-0.27  OA
BRANCH 33 36
ATOM     36  CA  ASN B   5      10.138   2.169  26.447  1.00 34.74 LIG 0.17  C 
BRANCH 36 37
ATOM     37  CB  ASN B   5      11.366   2.994  26.071  1.00 42.44 LIG 0.14  C 
BRANCH 37 38
ATOM     38  CG  ASN B   5      11.488   4.253  26.908  1.00 45.23 LIG 0.22  C 
ATOM     39 OD1  ASN B   5      12.054   4.225  27.988  1.00 53.97 LIG-0.27  OA
ATOM     40  ND2 ASN B   5      10.915   5.353  26.430  1.00 50.63 LIG-0.37  N 
ATOM     41 21HD ASN B   5      10.935   6.082  26.886  1.00 50.63 LIG 0.16  HD
ATOM     42 22HD ASN B   5      10.525   5.337  25.663  1.00 50.63 LIG 0.16  HD
ENDBRANCH 37 38
ENDBRANCH 36 37
BRANCH 36 43
ATOM     43  C   ASN B   5       9.038   3.069  26.983  1.00 38.04 LIG 0.22  C 
ATOM     44 O    ASN B   5       7.932   3.067  26.452  1.00 41.05 LIG-0.29  OA
ENDBRANCH 36 43
ENDBRANCH 33 36
ENDBRANCH 28 32
ENDBRANCH 25 28
ENDBRANCH 1 24
TORSDOF 16
ENDMDL
MODEL 14
USER: ADFR SOLUTION from run 150
USER: SCORE 12.765164 LL:  -3.459 LR: -11.006 RR:   0.000 FEB:  -6.234
USER: RMSD 5.472525
USER: SEED 149
USER: STATUS no improvement in best in 9 clusters for 5 generations
USER: GENES 18
USER: genes 0 Translation |==|  0.41259 0.32806 0.33695
USER: genes 1 Rotation |==|  0.23198 0.50533 0.44905 0.91898
USER: genes 2 Torsion [CB]-CA--N-[C] |==|  0.52318
USER: genes 3 Torsion [N]-C--CA-[N] |==|  0.00171
USER: genes 4 Torsion [C]-CA--N-[C] |==|  0.69444
USER: genes 5 Torsion [N]-C--CA-[N] |==|  0.42189
USER: genes 6 Torsion [C]-CA--CB-[CG2] |==|  0.36295
USER: genes 7 Torsion [C]-CA--N-[H2] |==|  0.40520
USER: genes 8 Torsion [C]-CA--CB-[CG] |==|  0.89863
USER: genes 9 Torsion [CA]-CB--CG-[OD2] |==|  0.79295
USER: genes 10 Torsion [N]-CA--C-[N] |==|  0.28430
USER: genes 11 Torsion [C]-N--CA-[CB] |==|  0.46040
USER: genes 12 Torsion [N]-CA--CB-[CG2] |==|  0.54777
USER: genes 13 Torsion [N]-CA--C-[N] |==|  0.43441
USER: genes 14 Torsion [C]-N--CA-[CB] |==|  0.82143
USER: genes 15 Torsion [N]-CA--CB-[CG] |==|  0.37654
USER: genes 16 Torsion [CA]-CB--CG-[OD1] |==|  0.25866
USER: genes 17 Torsion [N]-CA--C-[O] |==|  0.22589
ROOT
ATOM      1  CA  ALA B   3       9.407  -3.367  22.632  1.00 18.86 LIG 0.17  C 
ATOM      2  CB  ALA B   3      10.514  -3.765  21.657  1.00 19.35 LIG 0.04  C 
ENDROOT
BRANCH 1 3
ATOM      3  N   ALA B   3       8.111  -3.619  22.017  1.00 16.29 LIG-0.35  N 
ATOM      4  C   ASP B   2       6.970  -3.223  22.561  1.00 15.20 LIG 0.24  C 
ATOM      5 O    ASP B   2       6.921  -2.542  23.600  1.00 18.35 LIG-0.27  OA
ATOM      6 H    ALA B   3       8.157  -4.047  21.272  1.00 16.29 LIG 0.16  HD
BRANCH 4 7
ATOM      7  CA  ASP B   2       5.688  -3.663  21.838  1.00 15.30 LIG 0.19  C 
BRANCH 7 8
ATOM      8  N   ASP B   2       5.986  -4.463  20.670  1.00 15.19 LIG-0.34  N 
ATOM      9  C   VAL B   1       5.787  -4.008  19.446  1.00 14.82 LIG 0.25  C 
ATOM     10 O    VAL B   1       5.283  -2.906  19.221  1.00 14.79 LIG-0.27  OA
ATOM     11 H    ASP B   2       6.298  -5.246  20.846  1.00 15.19 LIG 0.16  HD
BRANCH 9 12
ATOM     12  CA  VAL B   1       6.146  -4.957  18.308  1.00 14.89 LIG 0.28  C 
BRANCH 12 13
ATOM     13  CB  VAL B   1       7.623  -4.869  17.896  1.00 17.39 LIG 0.02  C 
ATOM     14  CG2 VAL B   1       8.283  -6.198  17.808  1.00 22.29 LIG 0.01  C 
ATOM     15  CG1 VAL B   1       8.415  -4.024  18.851  1.00 17.29 LIG 0.01  C 
ENDBRANCH 12 13
BRANCH 12 16
ATOM     16  N   VAL B   1       5.290  -4.630  17.160  1.00 15.02 LIG-0.07  N 
ATOM     17 H2   VAL B   1       5.743  -4.762  16.405  1.00 15.02 LIG 0.28  HD
ATOM     18 H3   VAL B   1       4.569  -5.152  17.168  1.00 15.02 LIG 0.28  HD
ATOM     19 H1   VAL B   1       5.039  -3.777  17.209  1.00 15.02 LIG 0.28  HD
ENDBRANCH 12 16
ENDBRANCH 9 12
ENDBRANCH 7 8
BRANCH 7 20
ATOM     20  CB  ASP B   2       4.725  -4.404  22.769  1.00 16.98 LIG 0.15  C 
BRANCH 20 21
ATOM     21  CG  ASP B   2       5.434  -5.283  23.775  1.00 17.41 LIG 0.17  C 
ATOM     22 OD1  ASP B   2       5.504  -4.877  24.971  1.00 15.73 LIG-0.65  OA
ATOM     23 OD2  ASP B   2       5.942  -6.371  23.368  1.00 22.30 LIG-0.65  OA
ENDBRANCH 20 21
ENDBRANCH 7 20
ENDBRANCH 4 7
ENDBRANCH 1 3
BRANCH 1 24
ATOM     24  C   ALA B   3       9.549  -1.899  23.036  1.00 21.51 LIG 0.24  C 
ATOM     25  N   VAL B   4       9.388  -1.629  24.328  1.00 22.67 LIG-0.35  N 
ATOM     26 H    VAL B   4       9.094  -2.196  24.903  1.00 22.67 LIG 0.16  HD
ATOM     27 O    ALA B   3       9.800  -1.035  22.194  1.00 22.81 LIG-0.27  OA
BRANCH 25 28
ATOM     28  CA  VAL B   4       9.708  -0.311  24.884  1.00 26.45 LIG 0.18  C 
BRANCH 28 29
ATOM     29  CB  VAL B   4       9.116  -0.132  26.301  1.00 30.01 LIG 0.01  C 
ATOM     30  CG2 VAL B   4       9.084   1.346  26.688  1.00 31.20 LIG 0.01  C 
ATOM     31  CG1 VAL B   4       9.909  -0.940  27.326  1.00 33.02 LIG 0.01  C 
ENDBRANCH 28 29
BRANCH 28 32
ATOM     32  C   VAL B   4      11.236  -0.215  24.930  1.00 25.61 LIG 0.24  C 
ATOM     33  N   ASN B   5      11.762   1.007  24.931  1.00 29.33 LIG-0.35  N 
ATOM     34 H    ASN B   5      11.292   1.727  24.929  1.00 29.33 LIG 0.16  HD
ATOM     35 O    VAL B   4      11.917  -1.240  24.929  1.00 29.65 LIG-0.27  OA
BRANCH 33 36
ATOM     36  CA  ASN B   5      13.218   1.238  24.938  1.00 34.74 LIG 0.17  C 
BRANCH 36 37
ATOM     37  CB  ASN B   5      13.810   0.702  26.238  1.00 42.44 LIG 0.14  C 
BRANCH 37 38
ATOM     38  CG  ASN B   5      15.087  -0.084  26.005  1.00 45.23 LIG 0.22  C 
ATOM     39 OD1  ASN B   5      16.173   0.468  26.073  1.00 53.97 LIG-0.27  OA
ATOM     40  ND2 ASN B   5      14.956  -1.366  25.682  1.00 50.63 LIG-0.37  N 
ATOM     41 21HD ASN B   5      15.652  -1.840  25.512  1.00 50.63 LIG 0.16  HD
ATOM     42 22HD ASN B   5      14.174  -1.722  25.644  1.00 50.63 LIG 0.16  HD
ENDBRANCH 37 38
ENDBRANCH 36 37
BRANCH 36 43
ATOM     43  C   ASN B   5      13.914   0.614  23.741  1.00 38.04 LIG 0.22  C 
ATOM     44 O    ASN B   5      13.915   1.195  22.660  1.00 41.05 LIG-0.29  OA
ENDBRANCH 36 43
ENDBRANCH 33 36
ENDBRANCH 28 32
ENDBRANCH 25 28
ENDBRANCH 1 24
TORSDOF 16
ENDMDL
MODEL 15
USER: ADFR SOLUTION from run 176
USER: SCORE 12.340842 LL:  -3.942 LR: -10.999 RR:   0.000 FEB:  -6.226
USER: RMSD 9.098597
USER: SEED 175
USER: STATUS no improvement in best in 6 clusters for 5 generations
USER: GENES 18
USER: genes 0 Translation |==|  0.32263 0.41762 0.38704
USER: genes 1 Rotation |==|  0.93017 0.52433 0.74862 0.55054
USER: genes 2 Torsion [CB]-CA--N-[C] |==|  0.84135
USER: genes 3 Torsion [N]-C--CA-[N] |==|  0.34031
USER: genes 4 Torsion [C]-CA--N-[C] |==|  0.68510
USER: genes 5 Torsion [N]-C--CA-[N] |==|  0.36542
USER: genes 6 Torsion [C]-CA--CB-[CG2] |==|  0.43364
USER: genes 7 Torsion [C]-CA--N-[H2] |==|  0.79862
USER: genes 8 Torsion [C]-CA--CB-[CG] |==|  0.72921
USER: genes 9 Torsion [CA]-CB--CG-[OD2] |==|  0.79448
USER: genes 10 Torsion [N]-CA--C-[N] |==|  0.79216
USER: genes 11 Torsion [C]-N--CA-[CB] |==|  0.31147
USER: genes 12 Torsion [N]-CA--CB-[CG2] |==|  0.28066
USER: genes 13 Torsion [N]-CA--C-[N] |==|  0.48600
USER: genes 14 Torsion [C]-N--CA-[CB] |==|  0.51833
USER: genes 15 Torsion [N]-CA--CB-[CG] |==|  0.07610
USER: genes 16 Torsion [CA]-CB--CG-[OD1] |==|  0.69563
USER: genes 17 Torsion [N]-CA--C-[O] |==|  0.73413
ROOT
ATOM      1  CA  ALA B   3       7.855  -1.755  23.684  1.00 18.86 LIG 0.17  C 
ATOM      2  CB  ALA B   3       7.830  -2.350  25.090  1.00 19.35 LIG 0.04  C 
ENDROOT
BRANCH 1 3
ATOM      3  N   ALA B   3       6.647  -2.147  22.973  1.00 16.29 LIG-0.35  N 
ATOM      4  C   ASP B   2       6.299  -3.414  22.793  1.00 15.20 LIG 0.24  C 
ATOM      5 O    ASP B   2       6.938  -4.361  23.280  1.00 18.35 LIG-0.27  OA
ATOM      6 H    ALA B   3       6.183  -1.484  22.682  1.00 16.29 LIG 0.16  HD
BRANCH 4 7
ATOM      7  CA  ASP B   2       5.051  -3.655  21.931  1.00 15.30 LIG 0.19  C 
BRANCH 7 8
ATOM      8  N   ASP B   2       5.347  -4.500  20.794  1.00 15.19 LIG-0.34  N 
ATOM      9  C   VAL B   1       5.291  -4.043  19.556  1.00 14.82 LIG 0.25  C 
ATOM     10 O    VAL B   1       4.927  -2.897  19.287  1.00 14.79 LIG-0.27  OA
ATOM     11 H    ASP B   2       5.558  -5.309  20.997  1.00 15.19 LIG 0.16  HD
BRANCH 9 12
ATOM     12  CA  VAL B   1       5.629  -5.041  18.454  1.00 14.89 LIG 0.28  C 
BRANCH 12 13
ATOM     13  CB  VAL B   1       7.000  -4.783  17.810  1.00 17.39 LIG 0.02  C 
ATOM     14  CG2 VAL B   1       7.584  -5.996  17.181  1.00 22.29 LIG 0.01  C 
ATOM     15  CG1 VAL B   1       7.991  -4.260  18.809  1.00 17.29 LIG 0.01  C 
ENDBRANCH 12 13
BRANCH 12 16
ATOM     16  N   VAL B   1       4.578  -4.959  17.431  1.00 15.02 LIG-0.07  N 
ATOM     17 H2   VAL B   1       3.831  -5.329  17.743  1.00 15.02 LIG 0.28  HD
ATOM     18 H3   VAL B   1       4.424  -4.106  17.230  1.00 15.02 LIG 0.28  HD
ATOM     19 H1   VAL B   1       4.840  -5.393  16.699  1.00 15.02 LIG 0.28  HD
ENDBRANCH 12 16
ENDBRANCH 9 12
ENDBRANCH 7 8
BRANCH 7 20
ATOM     20  CB  ASP B   2       3.890  -4.233  22.744  1.00 16.98 LIG 0.15  C 
BRANCH 20 21
ATOM     21  CG  ASP B   2       3.779  -5.737  22.630  1.00 17.41 LIG 0.17  C 
ATOM     22 OD1  ASP B   2       4.160  -6.435  23.614  1.00 15.73 LIG-0.65  OA
ATOM     23 OD2  ASP B   2       3.329  -6.225  21.550  1.00 22.30 LIG-0.65  OA
ENDBRANCH 20 21
ENDBRANCH 7 20
ENDBRANCH 4 7
ENDBRANCH 1 3
BRANCH 1 24
ATOM     24  C   ALA B   3       9.108  -2.206  22.932  1.00 21.51 LIG 0.24  C 
ATOM     25  N   VAL B   4       9.395  -3.502  22.996  1.00 22.67 LIG-0.35  N 
ATOM     26 H    VAL B   4       9.000  -4.055  23.523  1.00 22.67 LIG 0.16  HD
ATOM     27 O    ALA B   3       9.795  -1.395  22.307  1.00 22.81 LIG-0.27  OA
BRANCH 25 28
ATOM     28  CA  VAL B   4      10.431  -4.104  22.152  1.00 26.45 LIG 0.18  C 
BRANCH 28 29
ATOM     29  CB  VAL B   4      11.644  -4.574  22.988  1.00 30.01 LIG 0.01  C 
ATOM     30  CG2 VAL B   4      11.591  -6.084  23.213  1.00 31.20 LIG 0.01  C 
ATOM     31  CG1 VAL B   4      11.705  -3.832  24.321  1.00 33.02 LIG 0.01  C 
ENDBRANCH 28 29
BRANCH 28 32
ATOM     32  C   VAL B   4       9.780  -5.296  21.442  1.00 25.61 LIG 0.24  C 
ATOM     33  N   ASN B   5      10.518  -5.934  20.539  1.00 29.33 LIG-0.35  N 
ATOM     34 H    ASN B   5      11.332  -5.725  20.355  1.00 29.33 LIG 0.16  HD
ATOM     35 O    VAL B   4       8.615  -5.600  21.695  1.00 29.65 LIG-0.27  OA
BRANCH 33 36
ATOM     36  CA  ASN B   5      10.000  -7.074  19.761  1.00 34.74 LIG 0.17  C 
BRANCH 36 37
ATOM     37  CB  ASN B   5      11.132  -7.682  18.938  1.00 42.44 LIG 0.14  C 
BRANCH 37 38
ATOM     38  CG  ASN B   5      12.489  -7.461  19.580  1.00 45.23 LIG 0.22  C 
ATOM     39 OD1  ASN B   5      13.292  -6.692  19.078  1.00 53.97 LIG-0.27  OA
ATOM     40  ND2 ASN B   5      12.764  -8.173  20.668  1.00 50.63 LIG-0.37  N 
ATOM     41 21HD ASN B   5      13.533  -8.101  21.046  1.00 50.63 LIG 0.16  HD
ATOM     42 22HD ASN B   5      12.173  -8.706  20.995  1.00 50.63 LIG 0.16  HD
ENDBRANCH 37 38
ENDBRANCH 36 37
BRANCH 36 43
ATOM     43  C   ASN B   5       9.352  -8.132  20.637  1.00 38.04 LIG 0.22  C 
ATOM     44 O    ASN B   5      10.001  -9.107  21.002  1.00 41.05 LIG-0.29  OA
ENDBRANCH 36 43
ENDBRANCH 33 36
ENDBRANCH 28 32
ENDBRANCH 25 28
ENDBRANCH 1 24
TORSDOF 16
ENDMDL
MODEL 16
USER: ADFR SOLUTION from run 94
USER: SCORE 12.411909 LL:  -2.840 LR: -10.992 RR:   0.000 FEB:  -6.219
USER: RMSD 5.416719
USER: SEED 93
USER: STATUS no improvement in best in 11 clusters for 5 generations
USER: GENES 18
USER: genes 0 Translation |==|  0.32367 0.46228 0.37525
USER: genes 1 Rotation |==|  0.77078 0.60279 0.75931 0.81444
USER: genes 2 Torsion [CB]-CA--N-[C] |==|  0.52222
USER: genes 3 Torsion [N]-C--CA-[N] |==|  0.43031
USER: genes 4 Torsion [C]-CA--N-[C] |==|  0.75008
USER: genes 5 Torsion [N]-C--CA-[N] |==|  0.38738
USER: genes 6 Torsion [C]-CA--CB-[CG2] |==|  0.39512
USER: genes 7 Torsion [C]-CA--N-[H2] |==|  0.69411
USER: genes 8 Torsion [C]-CA--CB-[CG] |==|  0.16224
USER: genes 9 Torsion [CA]-CB--CG-[OD2] |==|  0.11868
USER: genes 10 Torsion [N]-CA--C-[N] |==|  0.40795
USER: genes 11 Torsion [C]-N--CA-[CB] |==|  0.21710
USER: genes 12 Torsion [N]-CA--CB-[CG2] |==|  0.03573
USER: genes 13 Torsion [N]-CA--C-[N] |==|  0.36396
USER: genes 14 Torsion [C]-N--CA-[CB] |==|  0.81153
USER: genes 15 Torsion [N]-CA--CB-[CG] |==|  0.70651
USER: genes 16 Torsion [CA]-CB--CG-[OD1] |==|  0.89494
USER: genes 17 Torsion [N]-CA--C-[O] |==|  0.71617
ROOT
ATOM      1  CA  ALA B   3       7.873  -0.951  23.436  1.00 18.86 LIG 0.17  C 
ATOM      2  CB  ALA B   3       7.376   0.166  24.351  1.00 19.35 LIG 0.04  C 
ENDROOT
BRANCH 1 3
ATOM      3  N   ALA B   3       6.750  -1.795  23.053  1.00 16.29 LIG-0.35  N 
ATOM      4  C   ASP B   2       6.901  -2.933  22.389  1.00 15.20 LIG 0.24  C 
ATOM      5 O    ASP B   2       8.016  -3.403  22.107  1.00 18.35 LIG-0.27  OA
ATOM      6 H    ALA B   3       5.985  -1.488  23.297  1.00 16.29 LIG 0.16  HD
BRANCH 4 7
ATOM      7  CA  ASP B   2       5.607  -3.647  21.971  1.00 15.30 LIG 0.19  C 
BRANCH 7 8
ATOM      8  N   ASP B   2       5.817  -4.493  20.817  1.00 15.19 LIG-0.34  N 
ATOM      9  C   VAL B   1       5.662  -4.039  19.586  1.00 14.82 LIG 0.25  C 
ATOM     10 O    VAL B   1       5.274  -2.895  19.343  1.00 14.79 LIG-0.27  OA
ATOM     11 H    ASP B   2       6.047  -5.301  21.005  1.00 15.19 LIG 0.16  HD
BRANCH 9 12
ATOM     12  CA  VAL B   1       5.918  -5.039  18.463  1.00 14.89 LIG 0.28  C 
BRANCH 12 13
ATOM     13  CB  VAL B   1       7.316  -4.900  17.841  1.00 17.39 LIG 0.02  C 
ATOM     14  CG2 VAL B   1       7.926  -6.206  17.483  1.00 22.29 LIG 0.01  C 
ATOM     15  CG1 VAL B   1       8.262  -4.186  18.762  1.00 17.29 LIG 0.01  C 
ENDBRANCH 12 13
BRANCH 12 16
ATOM     16  N   VAL B   1       4.893  -4.832  17.431  1.00 15.02 LIG-0.07  N 
ATOM     17 H2   VAL B   1       4.335  -5.524  17.424  1.00 15.02 LIG 0.28  HD
ATOM     18 H3   VAL B   1       4.439  -4.087  17.609  1.00 15.02 LIG 0.28  HD
ATOM     19 H1   VAL B   1       5.284  -4.758  16.634  1.00 15.02 LIG 0.28  HD
ENDBRANCH 12 16
ENDBRANCH 9 12
ENDBRANCH 7 8
BRANCH 7 20
ATOM     20  CB  ASP B   2       4.993  -4.448  23.122  1.00 16.98 LIG 0.15  C 
BRANCH 20 21
ATOM     21  CG  ASP B   2       4.670  -3.596  24.329  1.00 17.41 LIG 0.17  C 
ATOM     22 OD1  ASP B   2       4.934  -4.066  25.474  1.00 15.73 LIG-0.65  OA
ATOM     23 OD2  ASP B   2       4.132  -2.463  24.137  1.00 22.30 LIG-0.65  OA
ENDBRANCH 20 21
ENDBRANCH 7 20
ENDBRANCH 4 7
ENDBRANCH 1 3
BRANCH 1 24
ATOM     24  C   ALA B   3       8.965  -1.767  24.129  1.00 21.51 LIG 0.24  C 
ATOM     25  N   VAL B   4      10.215  -1.367  23.925  1.00 22.67 LIG-0.35  N 
ATOM     26 H    VAL B   4      10.440  -0.775  23.343  1.00 22.67 LIG 0.16  HD
ATOM     27 O    ALA B   3       8.676  -2.736  24.834  1.00 22.81 LIG-0.27  OA
BRANCH 25 28
ATOM     28  CA  VAL B   4      11.336  -1.916  24.693  1.00 26.45 LIG 0.18  C 
BRANCH 28 29
ATOM     29  CB  VAL B   4      11.751  -3.313  24.176  1.00 30.01 LIG 0.01  C 
ATOM     30  CG2 VAL B   4      11.103  -3.602  22.824  1.00 31.20 LIG 0.01  C 
ATOM     31  CG1 VAL B   4      11.387  -4.396  25.190  1.00 33.02 LIG 0.01  C 
ENDBRANCH 28 29
BRANCH 28 32
ATOM     32  C   VAL B   4      12.496  -0.927  24.543  1.00 25.61 LIG 0.24  C 
ATOM     33  N   ASN B   5      13.115  -0.553  25.659  1.00 29.33 LIG-0.35  N 
ATOM     34 H    ASN B   5      12.911  -0.851  26.439  1.00 29.33 LIG 0.16  HD
ATOM     35 O    VAL B   4      12.793  -0.492  23.431  1.00 29.65 LIG-0.27  OA
BRANCH 33 36
ATOM     36  CA  ASN B   5      14.224   0.419  25.657  1.00 34.74 LIG 0.17  C 
BRANCH 36 37
ATOM     37  CB  ASN B   5      15.437  -0.197  24.967  1.00 42.44 LIG 0.14  C 
BRANCH 37 38
ATOM     38  CG  ASN B   5      16.517  -0.596  25.956  1.00 45.23 LIG 0.22  C 
ATOM     39 OD1  ASN B   5      16.750   0.101  26.931  1.00 53.97 LIG-0.27  OA
ATOM     40  ND2 ASN B   5      17.210  -1.696  25.681  1.00 50.63 LIG-0.37  N 
ATOM     41 21HD ASN B   5      17.851  -1.941  26.199  1.00 50.63 LIG 0.16  HD
ATOM     42 22HD ASN B   5      17.018  -2.163  24.985  1.00 50.63 LIG 0.16  HD
ENDBRANCH 37 38
ENDBRANCH 36 37
BRANCH 36 43
ATOM     43  C   ASN B   5      13.846   1.733  24.995  1.00 38.04 LIG 0.22  C 
ATOM     44 O    ASN B   5      14.222   1.974  23.852  1.00 41.05 LIG-0.29  OA
ENDBRANCH 36 43
ENDBRANCH 33 36
ENDBRANCH 28 32
ENDBRANCH 25 28
ENDBRANCH 1 24
TORSDOF 16
ENDMDL
MODEL 17
USER: ADFR SOLUTION from run 144
USER: SCORE 12.082881 LL:  -2.956 LR: -10.948 RR:   0.000 FEB:  -6.176
USER: RMSD 5.446622
USER: SEED 143
USER: STATUS no improvement in best in 6 clusters for 5 generations
USER: GENES 18
USER: genes 0 Translation |==|  0.42962 0.39164 0.41987
USER: genes 1 Rotation |==|  0.15713 0.38788 0.15385 0.50693
USER: genes 2 Torsion [CB]-CA--N-[C] |==|  0.51667
USER: genes 3 Torsion [N]-C--CA-[N] |==|  0.69707
USER: genes 4 Torsion [C]-CA--N-[C] |==|  0.15687
USER: genes 5 Torsion [N]-C--CA-[N] |==|  0.41080
USER: genes 6 Torsion [C]-CA--CB-[CG2] |==|  0.48278
USER: genes 7 Torsion [C]-CA--N-[H2] |==|  0.73598
USER: genes 8 Torsion [C]-CA--CB-[CG] |==|  0.20662
USER: genes 9 Torsion [CA]-CB--CG-[OD2] |==|  0.70795
USER: genes 10 Torsion [N]-CA--C-[N] |==|  0.32684
USER: genes 11 Torsion [C]-N--CA-[CB] |==|  0.51675
USER: genes 12 Torsion [N]-CA--CB-[CG2] |==|  0.48967
USER: genes 13 Torsion [N]-CA--C-[N] |==|  0.38919
USER: genes 14 Torsion [C]-N--CA-[CB] |==|  0.35931
USER: genes 15 Torsion [N]-CA--CB-[CG] |==|  0.28189
USER: genes 16 Torsion [CA]-CB--CG-[OD1] |==|  0.78564
USER: genes 17 Torsion [N]-CA--C-[O] |==|  0.94362
ROOT
ATOM      1  CA  ALA B   3       9.701  -2.222  24.373  1.00 18.86 LIG 0.17  C 
ATOM      2  CB  ALA B   3       9.335  -2.925  25.679  1.00 19.35 LIG 0.04  C 
ENDROOT
BRANCH 1 3
ATOM      3  N   ALA B   3       9.242  -3.026  23.249  1.00 16.29 LIG-0.35  N 
ATOM      4  C   ASP B   2       9.521  -2.724  21.989  1.00 15.20 LIG 0.24  C 
ATOM      5 O    ASP B   2      10.256  -1.774  21.673  1.00 18.35 LIG-0.27  OA
ATOM      6 H    ALA B   3       8.775  -3.711  23.479  1.00 16.29 LIG 0.16  HD
BRANCH 4 7
ATOM      7  CA  ASP B   2       8.870  -3.616  20.921  1.00 15.30 LIG 0.19  C 
BRANCH 7 8
ATOM      8  N   ASP B   2       9.846  -4.466  20.273  1.00 15.19 LIG-0.34  N 
ATOM      9  C   VAL B   1      10.612  -5.293  20.961  1.00 14.82 LIG 0.25  C 
ATOM     10 O    VAL B   1      10.591  -5.351  22.191  1.00 14.79 LIG-0.27  OA
ATOM     11 H    ASP B   2       9.877  -4.381  19.417  1.00 15.19 LIG 0.16  HD
BRANCH 9 12
ATOM     12  CA  VAL B   1      11.596  -6.130  20.150  1.00 14.89 LIG 0.28  C 
BRANCH 12 13
ATOM     13  CB  VAL B   1      11.012  -7.481  19.708  1.00 17.39 LIG 0.02  C 
ATOM     14  CG2 VAL B   1      11.913  -8.234  18.798  1.00 22.29 LIG 0.01  C 
ATOM     15  CG1 VAL B   1       9.692  -7.313  19.015  1.00 17.29 LIG 0.01  C 
ENDBRANCH 12 13
BRANCH 12 16
ATOM     16  N   VAL B   1      12.790  -6.352  20.976  1.00 15.02 LIG-0.07  N 
ATOM     17 H2   VAL B   1      13.403  -5.738  20.782  1.00 15.02 LIG 0.28  HD
ATOM     18 H3   VAL B   1      12.572  -6.290  21.837  1.00 15.02 LIG 0.28  HD
ATOM     19 H1   VAL B   1      13.119  -7.162  20.811  1.00 15.02 LIG 0.28  HD
ENDBRANCH 12 16
ENDBRANCH 9 12
ENDBRANCH 7 8
BRANCH 7 20
ATOM     20  CB  ASP B   2       7.721  -4.452  21.490  1.00 16.98 LIG 0.15  C 
BRANCH 20 21
ATOM     21  CG  ASP B   2       6.472  -3.639  21.751  1.00 17.41 LIG 0.17  C 
ATOM     22 OD1  ASP B   2       5.785  -3.272  20.754  1.00 15.73 LIG-0.65  OA
ATOM     23 OD2  ASP B   2       6.185  -3.349  22.951  1.00 22.30 LIG-0.65  OA
ENDBRANCH 20 21
ENDBRANCH 7 20
ENDBRANCH 4 7
ENDBRANCH 1 3
BRANCH 1 24
ATOM     24  C   ALA B   3      11.208  -1.980  24.297  1.00 21.51 LIG 0.24  C 
ATOM     25  N   VAL B   4      11.593  -0.713  24.177  1.00 22.67 LIG-0.35  N 
ATOM     26 H    VAL B   4      11.055  -0.062  24.017  1.00 22.67 LIG 0.16  HD
ATOM     27 O    ALA B   3      12.002  -2.922  24.349  1.00 22.81 LIG-0.27  OA
BRANCH 25 28
ATOM     28  CA  VAL B   4      12.999  -0.319  24.311  1.00 26.45 LIG 0.18  C 
BRANCH 28 29
ATOM     29  CB  VAL B   4      13.165   1.217  24.279  1.00 30.01 LIG 0.01  C 
ATOM     30  CG2 VAL B   4      14.624   1.606  24.511  1.00 31.20 LIG 0.01  C 
ATOM     31  CG1 VAL B   4      12.259   1.883  25.312  1.00 33.02 LIG 0.01  C 
ENDBRANCH 28 29
BRANCH 28 32
ATOM     32  C   VAL B   4      13.485  -0.879  25.651  1.00 25.61 LIG 0.24  C 
ATOM     33  N   ASN B   5      14.713  -1.387  25.681  1.00 29.33 LIG-0.35  N 
ATOM     34 H    ASN B   5      15.241  -1.396  25.002  1.00 29.33 LIG 0.16  HD
ATOM     35 O    VAL B   4      12.735  -0.876  26.627  1.00 29.65 LIG-0.27  OA
BRANCH 33 36
ATOM     36  CA  ASN B   5      15.288  -1.989  26.898  1.00 34.74 LIG 0.17  C 
BRANCH 36 37
ATOM     37  CB  ASN B   5      15.855  -3.366  26.564  1.00 42.44 LIG 0.14  C 
BRANCH 37 38
ATOM     38  CG  ASN B   5      17.364  -3.342  26.412  1.00 45.23 LIG 0.22  C 
ATOM     39 OD1  ASN B   5      17.876  -2.903  25.395  1.00 53.97 LIG-0.27  OA
ATOM     40  ND2 ASN B   5      18.079  -3.858  27.407  1.00 50.63 LIG-0.37  N 
ATOM     41 21HD ASN B   5      18.936  -3.892  27.348  1.00 50.63 LIG 0.16  HD
ATOM     42 22HD ASN B   5      17.684  -4.159  28.109  1.00 50.63 LIG 0.16  HD
ENDBRANCH 37 38
ENDBRANCH 36 37
BRANCH 36 43
ATOM     43  C   ASN B   5      16.356  -1.115  27.532  1.00 38.04 LIG 0.22  C 
ATOM     44 O    ASN B   5      16.915  -0.249  26.865  1.00 41.05 LIG-0.29  OA
ENDBRANCH 36 43
ENDBRANCH 33 36
ENDBRANCH 28 32
ENDBRANCH 25 28
ENDBRANCH 1 24
TORSDOF 16
ENDMDL
MODEL 18
USER: ADFR SOLUTION from run 85
USER: SCORE 11.752592 LL:  -3.749 LR: -10.955 RR:   0.000 FEB:  -6.182
USER: RMSD 8.022707
USER: SEED 84
USER: STATUS searching
USER: GENES 18
USER: genes 0 Translation |==|  0.34642 0.44582 0.36218
USER: genes 1 Rotation |==|  0.81873 0.68519 0.75775 0.71836
USER: genes 2 Torsion [CB]-CA--N-[C] |==|  0.50810
USER: genes 3 Torsion [N]-C--CA-[N] |==|  0.44398
USER: genes 4 Torsion [C]-CA--N-[C] |==|  0.79565
USER: genes 5 Torsion [N]-C--CA-[N] |==|  0.44203
USER: genes 6 Torsion [C]-CA--CB-[CG2] |==|  0.33155
USER: genes 7 Torsion [C]-CA--N-[H2] |==|  0.03029
USER: genes 8 Torsion [C]-CA--CB-[CG] |==|  0.78785
USER: genes 9 Torsion [CA]-CB--CG-[OD2] |==|  0.00366
USER: genes 10 Torsion [N]-CA--C-[N] |==|  0.89401
USER: genes 11 Torsion [C]-N--CA-[CB] |==|  0.28293
USER: genes 12 Torsion [N]-CA--CB-[CG2] |==|  0.74621
USER: genes 13 Torsion [N]-CA--C-[N] |==|  0.34199
USER: genes 14 Torsion [C]-N--CA-[CB] |==|  0.38000
USER: genes 15 Torsion [N]-CA--CB-[CG] |==|  0.21937
USER: genes 16 Torsion [CA]-CB--CG-[OD1] |==|  0.73865
USER: genes 17 Torsion [N]-CA--C-[O] |==|  0.93621
ROOT
ATOM      1  CA  ALA B   3       8.266  -1.247  23.162  1.00 18.86 LIG 0.17  C 
ATOM      2  CB  ALA B   3       7.875  -0.460  24.411  1.00 19.35 LIG 0.04  C 
ENDROOT
BRANCH 1 3
ATOM      3  N   ALA B   3       7.383  -2.397  23.022  1.00 16.29 LIG-0.35  N 
ATOM      4  C   ASP B   2       7.522  -3.295  22.057  1.00 15.20 LIG 0.24  C 
ATOM      5 O    ASP B   2       8.459  -3.266  21.241  1.00 18.35 LIG-0.27  OA
ATOM      6 H    ALA B   3       6.767  -2.438  23.621  1.00 16.29 LIG 0.16  HD
BRANCH 4 7
ATOM      7  CA  ASP B   2       6.444  -4.387  21.989  1.00 15.30 LIG 0.19  C 
BRANCH 7 8
ATOM      8  N   ASP B   2       6.400  -5.011  20.685  1.00 15.19 LIG-0.34  N 
ATOM      9  C   VAL B   1       5.896  -4.390  19.634  1.00 14.82 LIG 0.25  C 
ATOM     10 O    VAL B   1       5.379  -3.274  19.707  1.00 14.79 LIG-0.27  OA
ATOM     11 H    ASP B   2       6.727  -5.806  20.661  1.00 15.19 LIG 0.16  HD
BRANCH 9 12
ATOM     12  CA  VAL B   1       5.915  -5.164  18.321  1.00 14.89 LIG 0.28  C 
BRANCH 12 13
ATOM     13  CB  VAL B   1       7.289  -5.147  17.633  1.00 17.39 LIG 0.02  C 
ATOM     14  CG2 VAL B   1       7.871  -6.503  17.462  1.00 22.29 LIG 0.01  C 
ATOM     15  CG1 VAL B   1       8.278  -4.314  18.396  1.00 17.29 LIG 0.01  C 
ENDBRANCH 12 13
BRANCH 12 16
ATOM     16  N   VAL B   1       4.908  -4.572  17.431  1.00 15.02 LIG-0.07  N 
ATOM     17 H2   VAL B   1       4.620  -3.805  17.778  1.00 15.02 LIG 0.28  HD
ATOM     18 H3   VAL B   1       5.270  -4.418  16.633  1.00 15.02 LIG 0.28  HD
ATOM     19 H1   VAL B   1       4.222  -5.133  17.342  1.00 15.02 LIG 0.28  HD
ENDBRANCH 12 16
ENDBRANCH 9 12
ENDBRANCH 7 8
BRANCH 7 20
ATOM     20  CB  ASP B   2       6.620  -5.440  23.086  1.00 16.98 LIG 0.15  C 
BRANCH 20 21
ATOM     21  CG  ASP B   2       7.739  -6.415  22.796  1.00 17.41 LIG 0.17  C 
ATOM     22 OD1  ASP B   2       7.962  -7.329  23.641  1.00 15.73 LIG-0.65  OA
ATOM     23 OD2  ASP B   2       8.411  -6.257  21.732  1.00 22.30 LIG-0.65  OA
ENDBRANCH 20 21
ENDBRANCH 7 20
ENDBRANCH 4 7
ENDBRANCH 1 3
BRANCH 1 24
ATOM     24  C   ALA B   3       9.729  -1.682  23.237  1.00 21.51 LIG 0.24  C 
ATOM     25  N   VAL B   4       9.977  -2.795  23.920  1.00 22.67 LIG-0.35  N 
ATOM     26 H    VAL B   4       9.395  -3.196  24.410  1.00 22.67 LIG 0.16  HD
ATOM     27 O    ALA B   3      10.612  -1.022  22.684  1.00 22.81 LIG-0.27  OA
BRANCH 25 28
ATOM     28  CA  VAL B   4      11.292  -3.441  23.890  1.00 26.45 LIG 0.18  C 
BRANCH 28 29
ATOM     29  CB  VAL B   4      12.107  -3.134  25.168  1.00 30.01 LIG 0.01  C 
ATOM     30  CG2 VAL B   4      12.970  -1.890  24.970  1.00 31.20 LIG 0.01  C 
ATOM     31  CG1 VAL B   4      12.969  -4.332  25.562  1.00 33.02 LIG 0.01  C 
ENDBRANCH 28 29
BRANCH 28 32
ATOM     32  C   VAL B   4      11.037  -4.947  23.771  1.00 25.61 LIG 0.24  C 
ATOM     33  N   ASN B   5      11.591  -5.571  22.735  1.00 29.33 LIG-0.35  N 
ATOM     34 H    ASN B   5      12.091  -5.178  22.156  1.00 29.33 LIG 0.16  HD
ATOM     35 O    VAL B   4      10.319  -5.516  24.593  1.00 29.65 LIG-0.27  OA
BRANCH 33 36
ATOM     36  CA  ASN B   5      11.396  -7.010  22.485  1.00 34.74 LIG 0.17  C 
BRANCH 36 37
ATOM     37  CB  ASN B   5      11.140  -7.236  20.998  1.00 42.44 LIG 0.14  C 
BRANCH 37 38
ATOM     38  CG  ASN B   5      12.421  -7.204  20.186  1.00 45.23 LIG 0.22  C 
ATOM     39 OD1  ASN B   5      12.790  -6.169  19.655  1.00 53.97 LIG-0.27  OA
ATOM     40  ND2 ASN B   5      13.078  -8.352  20.049  1.00 50.63 LIG-0.37  N 
ATOM     41 21HD ASN B   5      13.792  -8.384  19.572  1.00 50.63 LIG 0.16  HD
ATOM     42 22HD ASN B   5      12.789  -9.062  20.439  1.00 50.63 LIG 0.16  HD
ENDBRANCH 37 38
ENDBRANCH 36 37
BRANCH 36 43
ATOM     43  C   ASN B   5      12.572  -7.849  22.955  1.00 38.04 LIG 0.22  C 
ATOM     44 O    ASN B   5      13.680  -7.336  23.078  1.00 41.05 LIG-0.29  OA
ENDBRANCH 36 43
ENDBRANCH 33 36
ENDBRANCH 28 32
ENDBRANCH 25 28
ENDBRANCH 1 24
TORSDOF 16
ENDMDL
MODEL 19
USER: ADFR SOLUTION from run 198
USER: SCORE 12.751114 LL:  -2.830 LR: -10.895 RR:   0.000 FEB:  -6.122
USER: RMSD 7.065399
USER: SEED 197
USER: STATUS no improvement in best in 13 clusters for 5 generations
USER: GENES 18
USER: genes 0 Translation |==|  0.48782 0.20451 0.41164
USER: genes 1 Rotation |==|  0.18319 0.27868 0.30157 0.74753
USER: genes 2 Torsion [CB]-CA--N-[C] |==|  0.77373
USER: genes 3 Torsion [N]-C--CA-[N] |==|  0.28467
USER: genes 4 Torsion [C]-CA--N-[C] |==|  0.62789
USER: genes 5 Torsion [N]-C--CA-[N] |==|  0.38896
USER: genes 6 Torsion [C]-CA--CB-[CG2] |==|  0.55129
USER: genes 7 Torsion [C]-CA--N-[H2] |==|  0.48695
USER: genes 8 Torsion [C]-CA--CB-[CG] |==|  0.68142
USER: genes 9 Torsion [CA]-CB--CG-[OD2] |==|  0.29767
USER: genes 10 Torsion [N]-CA--C-[N] |==|  0.21324
USER: genes 11 Torsion [C]-N--CA-[CB] |==|  0.55168
USER: genes 12 Torsion [N]-CA--CB-[CG2] |==|  0.34674
USER: genes 13 Torsion [N]-CA--C-[N] |==|  0.37408
USER: genes 14 Torsion [C]-N--CA-[CB] |==|  0.21608
USER: genes 15 Torsion [N]-CA--CB-[CG] |==|  0.43620
USER: genes 16 Torsion [CA]-CB--CG-[OD1] |==|  0.15363
USER: genes 17 Torsion [N]-CA--C-[O] |==|  0.87583
ROOT
ATOM      1  CA  ALA B   3      10.705  -5.591  24.200  1.00 18.86 LIG 0.17  C 
ATOM      2  CB  ALA B   3      11.829  -6.133  25.081  1.00 19.35 LIG 0.04  C 
ENDROOT
BRANCH 1 3
ATOM      3  N   ALA B   3      10.521  -6.473  23.056  1.00 16.29 LIG-0.35  N 
ATOM      4  C   ASP B   2      11.286  -6.414  21.975  1.00 15.20 LIG 0.24  C 
ATOM      5 O    ASP B   2      12.264  -5.653  21.884  1.00 18.35 LIG-0.27  OA
ATOM      6 H    ALA B   3       9.874  -7.031  23.147  1.00 16.29 LIG 0.16  HD
BRANCH 4 7
ATOM      7  CA  ASP B   2      10.891  -7.343  20.817  1.00 15.30 LIG 0.19  C 
BRANCH 7 8
ATOM      8  N   ASP B   2      10.208  -6.620  19.766  1.00 15.19 LIG-0.34  N 
ATOM      9  C   VAL B   1       9.100  -7.081  19.214  1.00 14.82 LIG 0.25  C 
ATOM     10 O    VAL B   1       8.614  -8.173  19.510  1.00 14.79 LIG-0.27  OA
ATOM     11 H    ASP B   2      10.584  -5.880  19.542  1.00 15.19 LIG 0.16  HD
BRANCH 9 12
ATOM     12  CA  VAL B   1       8.485  -6.216  18.119  1.00 14.89 LIG 0.28  C 
BRANCH 12 13
ATOM     13  CB  VAL B   1       7.329  -5.338  18.624  1.00 17.39 LIG 0.02  C 
ATOM     14  CG2 VAL B   1       6.457  -4.839  17.531  1.00 22.29 LIG 0.01  C 
ATOM     15  CG1 VAL B   1       7.833  -4.150  19.392  1.00 17.29 LIG 0.01  C 
ENDBRANCH 12 13
BRANCH 12 16
ATOM     16  N   VAL B   1       8.002  -7.108  17.056  1.00 15.02 LIG-0.07  N 
ATOM     17 H2   VAL B   1       7.577  -6.630  16.437  1.00 15.02 LIG 0.28  HD
ATOM     18 H3   VAL B   1       8.692  -7.528  16.683  1.00 15.02 LIG 0.28  HD
ATOM     19 H1   VAL B   1       7.442  -7.708  17.402  1.00 15.02 LIG 0.28  HD
ENDBRANCH 12 16
ENDBRANCH 9 12
ENDBRANCH 7 8
BRANCH 7 20
ATOM     20  CB  ASP B   2      12.092  -8.106  20.254  1.00 16.98 LIG 0.15  C 
BRANCH 20 21
ATOM     21  CG  ASP B   2      12.419  -7.726  18.827  1.00 17.41 LIG 0.17  C 
ATOM     22 OD1  ASP B   2      11.654  -8.147  17.912  1.00 15.73 LIG-0.65  OA
ATOM     23 OD2  ASP B   2      13.452  -7.022  18.616  1.00 22.30 LIG-0.65  OA
ENDBRANCH 20 21
ENDBRANCH 7 20
ENDBRANCH 4 7
ENDBRANCH 1 3
BRANCH 1 24
ATOM     24  C   ALA B   3      11.016  -4.163  23.751  1.00 21.51 LIG 0.24  C 
ATOM     25  N   VAL B   4       9.985  -3.449  23.311  1.00 22.67 LIG-0.35  N 
ATOM     26 H    VAL B   4       9.207  -3.778  23.152  1.00 22.67 LIG 0.16  HD
ATOM     27 O    ALA B   3      12.165  -3.721  23.806  1.00 22.81 LIG-0.27  OA
BRANCH 25 28
ATOM     28  CA  VAL B   4      10.097  -2.010  23.056  1.00 26.45 LIG 0.18  C 
BRANCH 28 29
ATOM     29  CB  VAL B   4       8.709  -1.330  23.005  1.00 30.01 LIG 0.01  C 
ATOM     30  CG2 VAL B   4       8.640  -0.174  24.000  1.00 31.20 LIG 0.01  C 
ATOM     31  CG1 VAL B   4       7.599  -2.343  23.278  1.00 33.02 LIG 0.01  C 
ENDBRANCH 28 29
BRANCH 28 32
ATOM     32  C   VAL B   4      10.934  -1.427  24.199  1.00 25.61 LIG 0.24  C 
ATOM     33  N   ASN B   5      11.896  -0.572  23.865  1.00 29.33 LIG-0.35  N 
ATOM     34 H    ASN B   5      12.051  -0.323  23.056  1.00 29.33 LIG 0.16  HD
ATOM     35 O    VAL B   4      10.722  -1.781  25.359  1.00 29.65 LIG-0.27  OA
BRANCH 33 36
ATOM     36  CA  ASN B   5      12.794   0.034  24.864  1.00 34.74 LIG 0.17  C 
BRANCH 36 37
ATOM     37  CB  ASN B   5      13.857  -0.982  25.272  1.00 42.44 LIG 0.14  C 
BRANCH 37 38
ATOM     38  CG  ASN B   5      15.101  -0.316  25.830  1.00 45.23 LIG 0.22  C 
ATOM     39 OD1  ASN B   5      15.018   0.458  26.770  1.00 53.97 LIG-0.27  OA
ATOM     40  ND2 ASN B   5      16.253  -0.580  25.221  1.00 50.63 LIG-0.37  N 
ATOM     41 21HD ASN B   5      16.977  -0.200  25.487  1.00 50.63 LIG 0.16  HD
ATOM     42 22HD ASN B   5      16.274  -1.132  24.561  1.00 50.63 LIG 0.16  HD
ENDBRANCH 37 38
ENDBRANCH 36 37
BRANCH 36 43
ATOM     43  C   ASN B   5      13.445   1.312  24.364  1.00 38.04 LIG 0.22  C 
ATOM     44 O    ASN B   5      13.915   1.359  23.232  1.00 41.05 LIG-0.29  OA
ENDBRANCH 36 43
ENDBRANCH 33 36
ENDBRANCH 28 32
ENDBRANCH 25 28
ENDBRANCH 1 24
TORSDOF 16
ENDMDL
MODEL 20
USER: ADFR SOLUTION from run 178
USER: SCORE 12.312315 LL:  -3.600 LR: -10.888 RR:   0.000 FEB:  -6.115
USER: RMSD 5.666920
USER: SEED 177
USER: STATUS no improvement in best in 17 clusters for 5 generations
USER: GENES 18
USER: genes 0 Translation |==|  0.43061 0.30786 0.33167
USER: genes 1 Rotation |==|  0.20928 0.53394 0.42538 0.89845
USER: genes 2 Torsion [CB]-CA--N-[C] |==|  0.51231
USER: genes 3 Torsion [N]-C--CA-[N] |==|  0.99349
USER: genes 4 Torsion [C]-CA--N-[C] |==|  0.67513
USER: genes 5 Torsion [N]-C--CA-[N] |==|  0.41923
USER: genes 6 Torsion [C]-CA--CB-[CG2] |==|  0.37273
USER: genes 7 Torsion [C]-CA--N-[H2] |==|  0.69766
USER: genes 8 Torsion [C]-CA--CB-[CG] |==|  0.70064
USER: genes 9 Torsion [CA]-CB--CG-[OD2] |==|  0.27393
USER: genes 10 Torsion [N]-CA--C-[N] |==|  0.35177
USER: genes 11 Torsion [C]-N--CA-[CB] |==|  0.33907
USER: genes 12 Torsion [N]-CA--CB-[CG2] |==|  0.79449
USER: genes 13 Torsion [N]-CA--C-[N] |==|  0.86427
USER: genes 14 Torsion [C]-N--CA-[CB] |==|  0.17243
USER: genes 15 Torsion [N]-CA--CB-[CG] |==|  0.64733
USER: genes 16 Torsion [CA]-CB--CG-[OD1] |==|  0.61468
USER: genes 17 Torsion [N]-CA--C-[O] |==|  0.05055
ROOT
ATOM      1  CA  ALA B   3       9.718  -3.730  22.521  1.00 18.86 LIG 0.17  C 
ATOM      2  CB  ALA B   3      10.692  -4.390  21.547  1.00 19.35 LIG 0.04  C 
ENDROOT
BRANCH 1 3
ATOM      3  N   ALA B   3       8.363  -3.848  22.000  1.00 16.29 LIG-0.35  N 
ATOM      4  C   ASP B   2       7.316  -3.291  22.592  1.00 15.20 LIG 0.24  C 
ATOM      5 O    ASP B   2       7.418  -2.566  23.595  1.00 18.35 LIG-0.27  OA
ATOM      6 H    ALA B   3       8.307  -4.310  21.277  1.00 16.29 LIG 0.16  HD
BRANCH 4 7
ATOM      7  CA  ASP B   2       5.946  -3.601  21.971  1.00 15.30 LIG 0.19  C 
BRANCH 7 8
ATOM      8  N   ASP B   2       6.073  -4.426  20.790  1.00 15.19 LIG-0.34  N 
ATOM      9  C   VAL B   1       5.698  -3.995  19.599  1.00 14.82 LIG 0.25  C 
ATOM     10 O    VAL B   1       5.165  -2.897  19.426  1.00 14.79 LIG-0.27  OA
ATOM     11 H    ASP B   2       6.407  -5.205  20.934  1.00 15.19 LIG 0.16  HD
BRANCH 9 12
ATOM     12  CA  VAL B   1       5.889  -4.968  18.440  1.00 14.89 LIG 0.28  C 
BRANCH 12 13
ATOM     13  CB  VAL B   1       7.284  -4.875  17.802  1.00 17.39 LIG 0.02  C 
ATOM     14  CG2 VAL B   1       7.906  -6.204  17.566  1.00 22.29 LIG 0.01  C 
ATOM     15  CG1 VAL B   1       8.226  -4.068  18.647  1.00 17.29 LIG 0.01  C 
ENDBRANCH 12 13
BRANCH 12 16
ATOM     16  N   VAL B   1       4.862  -4.678  17.431  1.00 15.02 LIG-0.07  N 
ATOM     17 H2   VAL B   1       4.261  -5.333  17.423  1.00 15.02 LIG 0.28  HD
ATOM     18 H3   VAL B   1       4.459  -3.909  17.629  1.00 15.02 LIG 0.28  HD
ATOM     19 H1   VAL B   1       5.242  -4.614  16.628  1.00 15.02 LIG 0.28  HD
ENDBRANCH 12 16
ENDBRANCH 9 12
ENDBRANCH 7 8
BRANCH 7 20
ATOM     20  CB  ASP B   2       4.989  -4.245  22.978  1.00 16.98 LIG 0.15  C 
BRANCH 20 21
ATOM     21  CG  ASP B   2       4.751  -5.714  22.712  1.00 17.41 LIG 0.17  C 
ATOM     22 OD1  ASP B   2       3.889  -6.026  21.840  1.00 15.73 LIG-0.65  OA
ATOM     23 OD2  ASP B   2       5.410  -6.560  23.389  1.00 22.30 LIG-0.65  OA
ENDBRANCH 20 21
ENDBRANCH 7 20
ENDBRANCH 4 7
ENDBRANCH 1 3
BRANCH 1 24
ATOM     24  C   ALA B   3      10.095  -2.267  22.750  1.00 21.51 LIG 0.24  C 
ATOM     25  N   VAL B   4      10.543  -1.959  23.963  1.00 22.67 LIG-0.35  N 
ATOM     26 H    VAL B   4      10.511  -2.494  24.635  1.00 22.67 LIG 0.16  HD
ATOM     27 O    ALA B   3       9.983  -1.438  21.844  1.00 22.81 LIG-0.27  OA
BRANCH 25 28
ATOM     28  CA  VAL B   4      11.140  -0.653  24.255  1.00 26.45 LIG 0.18  C 
BRANCH 28 29
ATOM     29  CB  VAL B   4      10.385   0.079  25.388  1.00 30.01 LIG 0.01  C 
ATOM     30  CG2 VAL B   4       9.047   0.616  24.884  1.00 31.20 LIG 0.01  C 
ATOM     31  CG1 VAL B   4      11.235   1.208  25.966  1.00 33.02 LIG 0.01  C 
ENDBRANCH 28 29
BRANCH 28 32
ATOM     32  C   VAL B   4      12.592  -0.918  24.668  1.00 25.61 LIG 0.24  C 
ATOM     33  N   ASN B   5      12.794  -1.862  25.583  1.00 29.33 LIG-0.35  N 
ATOM     34 H    ASN B   5      12.163  -2.332  25.929  1.00 29.33 LIG 0.16  HD
ATOM     35 O    VAL B   4      13.501  -0.247  24.182  1.00 29.65 LIG-0.27  OA
BRANCH 33 36
ATOM     36  CA  ASN B   5      14.138  -2.191  26.092  1.00 34.74 LIG 0.17  C 
BRANCH 36 37
ATOM     37  CB  ASN B   5      14.730  -0.968  26.788  1.00 42.44 LIG 0.14  C 
BRANCH 37 38
ATOM     38  CG  ASN B   5      16.103  -0.613  26.250  1.00 45.23 LIG 0.22  C 
ATOM     39 OD1  ASN B   5      16.995  -0.272  27.010  1.00 53.97 LIG-0.27  OA
ATOM     40  ND2 ASN B   5      16.262  -0.647  24.931  1.00 50.63 LIG-0.37  N 
ATOM     41 21HD ASN B   5      17.016  -0.424  24.583  1.00 50.63 LIG 0.16  HD
ATOM     42 22HD ASN B   5      15.611  -0.893  24.425  1.00 50.63 LIG 0.16  HD
ENDBRANCH 37 38
ENDBRANCH 36 37
BRANCH 36 43
ATOM     43  C   ASN B   5      14.130  -3.385  27.031  1.00 38.04 LIG 0.22  C 
ATOM     44 O    ASN B   5      13.175  -4.156  27.034  1.00 41.05 LIG-0.29  OA
ENDBRANCH 36 43
ENDBRANCH 33 36
ENDBRANCH 28 32
ENDBRANCH 25 28
ENDBRANCH 1 24
TORSDOF 16
ENDMDL
MODEL 21
USER: ADFR SOLUTION from run 123
USER: SCORE 12.928022 LL:  -2.997 LR: -10.806 RR:   0.000 FEB:  -6.033
USER: RMSD 5.471661
USER: SEED 122
USER: STATUS no improvement in best in 13 clusters for 5 generations
USER: GENES 18
USER: genes 0 Translation |==|  0.44130 0.41467 0.33897
USER: genes 1 Rotation |==|  0.73833 0.60228 0.92005 0.57937
USER: genes 2 Torsion [CB]-CA--N-[C] |==|  0.84148
USER: genes 3 Torsion [N]-C--CA-[N] |==|  0.44938
USER: genes 4 Torsion [C]-CA--N-[C] |==|  0.71614
USER: genes 5 Torsion [N]-C--CA-[N] |==|  0.92557
USER: genes 6 Torsion [C]-CA--CB-[CG2] |==|  0.20345
USER: genes 7 Torsion [C]-CA--N-[H2] |==|  0.19629
USER: genes 8 Torsion [C]-CA--CB-[CG] |==|  0.86103
USER: genes 9 Torsion [CA]-CB--CG-[OD2] |==|  0.32389
USER: genes 10 Torsion [N]-CA--C-[N] |==|  0.42159
USER: genes 11 Torsion [C]-N--CA-[CB] |==|  0.24417
USER: genes 12 Torsion [N]-CA--CB-[CG2] |==|  0.52267
USER: genes 13 Torsion [N]-CA--C-[N] |==|  0.95556
USER: genes 14 Torsion [C]-N--CA-[CB] |==|  0.26712
USER: genes 15 Torsion [N]-CA--CB-[CG] |==|  0.56909
USER: genes 16 Torsion [CA]-CB--CG-[OD1] |==|  0.21951
USER: genes 17 Torsion [N]-CA--C-[O] |==|  0.02088
ROOT
ATOM      1  CA  ALA B   3       9.902  -1.808  22.674  1.00 18.86 LIG 0.17  C 
ATOM      2  CB  ALA B   3       8.765  -2.210  23.611  1.00 19.35 LIG 0.04  C 
ENDROOT
BRANCH 1 3
ATOM      3  N   ALA B   3       9.954  -2.736  21.553  1.00 16.29 LIG-0.35  N 
ATOM      4  C   ASP B   2      10.096  -4.044  21.711  1.00 15.20 LIG 0.24  C 
ATOM      5 O    ASP B   2      10.123  -4.588  22.827  1.00 18.35 LIG-0.27  OA
ATOM      6 H    ALA B   3       9.884  -2.357  20.784  1.00 16.29 LIG 0.16  HD
BRANCH 4 7
ATOM      7  CA  ASP B   2      10.238  -4.868  20.422  1.00 15.30 LIG 0.19  C 
BRANCH 7 8
ATOM      8  N   ASP B   2      10.800  -6.175  20.686  1.00 15.19 LIG-0.34  N 
ATOM      9  C   VAL B   1      12.068  -6.449  20.434  1.00 14.82 LIG 0.25  C 
ATOM     10 O    VAL B   1      12.831  -5.638  19.907  1.00 14.79 LIG-0.27  OA
ATOM     11 H    ASP B   2      10.243  -6.741  21.014  1.00 15.19 LIG 0.16  HD
BRANCH 9 12
ATOM     12  CA  VAL B   1      12.527  -7.866  20.762  1.00 14.89 LIG 0.28  C 
BRANCH 12 13
ATOM     13  CB  VAL B   1      12.468  -8.811  19.552  1.00 17.39 LIG 0.02  C 
ATOM     14  CG2 VAL B   1      13.539  -8.548  18.556  1.00 22.29 LIG 0.01  C 
ATOM     15  CG1 VAL B   1      11.147  -8.722  18.845  1.00 17.29 LIG 0.01  C 
ENDBRANCH 12 13
BRANCH 12 16
ATOM     16  N   VAL B   1      11.671  -8.382  21.838  1.00 15.02 LIG-0.07  N 
ATOM     17 H2   VAL B   1      10.854  -8.535  21.519  1.00 15.02 LIG 0.28  HD
ATOM     18 H3   VAL B   1      12.013  -9.141  22.152  1.00 15.02 LIG 0.28  HD
ATOM     19 H1   VAL B   1      11.625  -7.783  22.495  1.00 15.02 LIG 0.28  HD
ENDBRANCH 12 16
ENDBRANCH 9 12
ENDBRANCH 7 8
BRANCH 7 20
ATOM     20  CB  ASP B   2       8.912  -4.993  19.668  1.00 16.98 LIG 0.15  C 
BRANCH 20 21
ATOM     21  CG  ASP B   2       7.770  -5.444  20.552  1.00 17.41 LIG 0.17  C 
ATOM     22 OD1  ASP B   2       7.835  -6.601  21.060  1.00 15.73 LIG-0.65  OA
ATOM     23 OD2  ASP B   2       6.795  -4.651  20.724  1.00 22.30 LIG-0.65  OA
ENDBRANCH 20 21
ENDBRANCH 7 20
ENDBRANCH 4 7
ENDBRANCH 1 3
BRANCH 1 24
ATOM     24  C   ALA B   3      11.233  -1.779  23.427  1.00 21.51 LIG 0.24  C 
ATOM     25  N   VAL B   4      11.532  -0.642  24.047  1.00 22.67 LIG-0.35  N 
ATOM     26 H    VAL B   4      11.093   0.090  23.944  1.00 22.67 LIG 0.16  HD
ATOM     27 O    ALA B   3      11.969  -2.768  23.444  1.00 22.81 LIG-0.27  OA
BRANCH 25 28
ATOM     28  CA  VAL B   4      12.660  -0.546  24.978  1.00 26.45 LIG 0.18  C 
BRANCH 28 29
ATOM     29  CB  VAL B   4      13.975  -0.193  24.245  1.00 30.01 LIG 0.01  C 
ATOM     30  CG2 VAL B   4      15.165  -0.296  25.197  1.00 31.20 LIG 0.01  C 
ATOM     31  CG1 VAL B   4      13.896   1.202  23.630  1.00 33.02 LIG 0.01  C 
ENDBRANCH 28 29
BRANCH 28 32
ATOM     32  C   VAL B   4      12.302   0.550  25.986  1.00 25.61 LIG 0.24  C 
ATOM     33  N   ASN B   5      11.307   1.369  25.658  1.00 29.33 LIG-0.35  N 
ATOM     34 H    ASN B   5      10.853   1.298  24.931  1.00 29.33 LIG 0.16  HD
ATOM     35 O    VAL B   4      12.949   0.662  27.028  1.00 29.65 LIG-0.27  OA
BRANCH 33 36
ATOM     36  CA  ASN B   5      10.887   2.486  26.524  1.00 34.74 LIG 0.17  C 
BRANCH 36 37
ATOM     37  CB  ASN B   5      11.562   3.772  26.056  1.00 42.44 LIG 0.14  C 
BRANCH 37 38
ATOM     38  CG  ASN B   5      11.687   4.791  27.173  1.00 45.23 LIG 0.22  C 
ATOM     39 OD1  ASN B   5      12.570   4.688  28.008  1.00 53.97 LIG-0.27  OA
ATOM     40  ND2 ASN B   5      10.772   5.755  27.215  1.00 50.63 LIG-0.37  N 
ATOM     41 21HD ASN B   5      10.788   6.335  27.849  1.00 50.63 LIG 0.16  HD
ATOM     42 22HD ASN B   5      10.163   5.797  26.608  1.00 50.63 LIG 0.16  HD
ENDBRANCH 37 38
ENDBRANCH 36 37
BRANCH 36 43
ATOM     43  C   ASN B   5       9.378   2.661  26.559  1.00 38.04 LIG 0.22  C 
ATOM     44 O    ASN B   5       8.652   1.830  26.021  1.00 41.05 LIG-0.29  OA
ENDBRANCH 36 43
ENDBRANCH 33 36
ENDBRANCH 28 32
ENDBRANCH 25 28
ENDBRANCH 1 24
TORSDOF 16
ENDMDL
MODEL 22
USER: ADFR SOLUTION from run 10
USER: SCORE 11.615406 LL:  -2.758 LR: -10.810 RR:   0.000 FEB:  -6.038
USER: RMSD 10.124944
USER: SEED 82975
USER: STATUS no improvement in best in 14 clusters for 5 generations
USER: GENES 18
USER: genes 0 Translation |==|  0.44228 0.42329 0.39295
USER: genes 1 Rotation |==|  0.44492 0.96855 0.33498 0.51383
USER: genes 2 Torsion [CB]-CA--N-[C] |==|  0.47910
USER: genes 3 Torsion [N]-C--CA-[N] |==|  0.47222
USER: genes 4 Torsion [C]-CA--N-[C] |==|  0.73508
USER: genes 5 Torsion [N]-C--CA-[N] |==|  0.01541
USER: genes 6 Torsion [C]-CA--CB-[CG2] |==|  0.27299
USER: genes 7 Torsion [C]-CA--N-[H2] |==|  0.71601
USER: genes 8 Torsion [C]-CA--CB-[CG] |==|  0.47068
USER: genes 9 Torsion [CA]-CB--CG-[OD2] |==|  0.97125
USER: genes 10 Torsion [N]-CA--C-[N] |==|  0.27777
USER: genes 11 Torsion [C]-N--CA-[CB] |==|  0.49470
USER: genes 12 Torsion [N]-CA--CB-[CG2] |==|  0.94134
USER: genes 13 Torsion [N]-CA--C-[N] |==|  0.43898
USER: genes 14 Torsion [C]-N--CA-[CB] |==|  0.22275
USER: genes 15 Torsion [N]-CA--CB-[CG] |==|  0.59868
USER: genes 16 Torsion [CA]-CB--CG-[OD1] |==|  0.23996
USER: genes 17 Torsion [N]-CA--C-[O] |==|  0.04663
ROOT
ATOM      1  CA  ALA B   3       9.919  -1.653  23.808  1.00 18.86 LIG 0.17  C 
ATOM      2  CB  ALA B   3       8.633  -0.830  23.764  1.00 19.35 LIG 0.04  C 
ENDROOT
BRANCH 1 3
ATOM      3  N   ALA B   3      11.038  -0.780  24.137  1.00 16.29 LIG-0.35  N 
ATOM      4  C   ASP B   2      12.256  -1.239  24.388  1.00 15.20 LIG 0.24  C 
ATOM      5 O    ASP B   2      12.555  -2.441  24.289  1.00 18.35 LIG-0.27  OA
ATOM      6 H    ALA B   3      10.834   0.055  24.154  1.00 16.29 LIG 0.16  HD
BRANCH 4 7
ATOM      7  CA  ASP B   2      13.294  -0.194  24.822  1.00 15.30 LIG 0.19  C 
BRANCH 7 8
ATOM      8  N   ASP B   2      14.512  -0.819  25.291  1.00 15.19 LIG-0.34  N 
ATOM      9  C   VAL B   1      14.726  -1.046  26.575  1.00 14.82 LIG 0.25  C 
ATOM     10 O    VAL B   1      13.938  -0.691  27.453  1.00 14.79 LIG-0.27  OA
ATOM     11 H    ASP B   2      15.070  -1.022  24.669  1.00 15.19 LIG 0.16  HD
BRANCH 9 12
ATOM     12  CA  VAL B   1      16.051  -1.713  26.929  1.00 14.89 LIG 0.28  C 
BRANCH 12 13
ATOM     13  CB  VAL B   1      16.846  -0.942  27.994  1.00 17.39 LIG 0.02  C 
ATOM     14  CG2 VAL B   1      16.673  -1.494  29.362  1.00 22.29 LIG 0.01  C 
ATOM     15  CG1 VAL B   1      16.459   0.509  28.030  1.00 17.29 LIG 0.01  C 
ENDBRANCH 12 13
BRANCH 12 16
ATOM     16  N   VAL B   1      16.846  -1.820  25.698  1.00 15.02 LIG-0.07  N 
ATOM     17 H2   VAL B   1      16.809  -2.655  25.392  1.00 15.02 LIG 0.28  HD
ATOM     18 H3   VAL B   1      16.520  -1.265  25.084  1.00 15.02 LIG 0.28  HD
ATOM     19 H1   VAL B   1      17.693  -1.606  25.871  1.00 15.02 LIG 0.28  HD
ENDBRANCH 12 16
ENDBRANCH 9 12
ENDBRANCH 7 8
BRANCH 7 20
ATOM     20  CB  ASP B   2      13.599   0.814  23.711  1.00 16.98 LIG 0.15  C 
BRANCH 20 21
ATOM     21  CG  ASP B   2      14.417   1.993  24.189  1.00 17.41 LIG 0.17  C 
ATOM     22 OD1  ASP B   2      14.908   2.766  23.316  1.00 15.73 LIG-0.65  OA
ATOM     23 OD2  ASP B   2      14.588   2.137  25.437  1.00 22.30 LIG-0.65  OA
ENDBRANCH 20 21
ENDBRANCH 7 20
ENDBRANCH 4 7
ENDBRANCH 1 3
BRANCH 1 24
ATOM     24  C   ALA B   3      10.149  -2.363  22.474  1.00 21.51 LIG 0.24  C 
ATOM     25  N   VAL B   4      10.581  -3.618  22.544  1.00 22.67 LIG-0.35  N 
ATOM     26 H    VAL B   4      10.849  -3.993  23.270  1.00 22.67 LIG 0.16  HD
ATOM     27 O    ALA B   3       9.936  -1.784  21.406  1.00 22.81 LIG-0.27  OA
BRANCH 25 28
ATOM     28  CA  VAL B   4      10.634  -4.482  21.361  1.00 26.45 LIG 0.18  C 
BRANCH 28 29
ATOM     29  CB  VAL B   4      11.215  -5.874  21.697  1.00 30.01 LIG 0.01  C 
ATOM     30  CG2 VAL B   4      12.038  -5.818  22.983  1.00 31.20 LIG 0.01  C 
ATOM     31  CG1 VAL B   4      12.059  -6.403  20.540  1.00 33.02 LIG 0.01  C 
ENDBRANCH 28 29
BRANCH 28 32
ATOM     32  C   VAL B   4       9.196  -4.615  20.851  1.00 25.61 LIG 0.24  C 
ATOM     33  N   ASN B   5       9.039  -4.958  19.576  1.00 29.33 LIG-0.35  N 
ATOM     34 H    ASN B   5       9.694  -5.125  19.044  1.00 29.33 LIG 0.16  HD
ATOM     35 O    VAL B   4       8.252  -4.373  21.603  1.00 29.65 LIG-0.27  OA
BRANCH 33 36
ATOM     36  CA  ASN B   5       7.710  -5.086  18.952  1.00 34.74 LIG 0.17  C 
BRANCH 36 37
ATOM     37  CB  ASN B   5       7.191  -3.702  18.576  1.00 42.44 LIG 0.14  C 
BRANCH 37 38
ATOM     38  CG  ASN B   5       5.688  -3.586  18.754  1.00 45.23 LIG 0.22  C 
ATOM     39 OD1  ASN B   5       5.217  -3.279  19.837  1.00 53.97 LIG-0.27  OA
ATOM     40  ND2 ASN B   5       4.931  -3.876  17.701  1.00 50.63 LIG-0.37  N 
ATOM     41 21HD ASN B   5       4.074  -3.853  17.768  1.00 50.63 LIG 0.16  HD
ATOM     42 22HD ASN B   5       5.298  -4.088  16.953  1.00 50.63 LIG 0.16  HD
ENDBRANCH 37 38
ENDBRANCH 36 37
BRANCH 36 43
ATOM     43  C   ASN B   5       7.721  -5.997  17.736  1.00 38.04 LIG 0.22  C 
ATOM     44 O    ASN B   5       8.662  -6.764  17.554  1.00 41.05 LIG-0.29  OA
ENDBRANCH 36 43
ENDBRANCH 33 36
ENDBRANCH 28 32
ENDBRANCH 25 28
ENDBRANCH 1 24
TORSDOF 16
ENDMDL
MODEL 23
USER: ADFR SOLUTION from run 50
USER: SCORE 11.879973 LL:  -2.669 LR: -10.813 RR:   0.000 FEB:  -6.040
USER: RMSD 5.033323
USER: SEED 49
USER: STATUS no improvement in best in 21 clusters for 5 generations
USER: GENES 18
USER: genes 0 Translation |==|  0.43182 0.42356 0.33232
USER: genes 1 Rotation |==|  0.66698 0.59036 0.93105 0.66778
USER: genes 2 Torsion [CB]-CA--N-[C] |==|  0.85992
USER: genes 3 Torsion [N]-C--CA-[N] |==|  0.83531
USER: genes 4 Torsion [C]-CA--N-[C] |==|  0.63509
USER: genes 5 Torsion [N]-C--CA-[N] |==|  0.39759
USER: genes 6 Torsion [C]-CA--CB-[CG2] |==|  0.13348
USER: genes 7 Torsion [C]-CA--N-[H2] |==|  0.36888
USER: genes 8 Torsion [C]-CA--CB-[CG] |==|  0.19876
USER: genes 9 Torsion [CA]-CB--CG-[OD2] |==|  0.30194
USER: genes 10 Torsion [N]-CA--C-[N] |==|  0.36846
USER: genes 11 Torsion [C]-N--CA-[CB] |==|  0.20540
USER: genes 12 Torsion [N]-CA--CB-[CG2] |==|  0.65290
USER: genes 13 Torsion [N]-CA--C-[N] |==|  0.40316
USER: genes 14 Torsion [C]-N--CA-[CB] |==|  0.32613
USER: genes 15 Torsion [N]-CA--CB-[CG] |==|  0.80153
USER: genes 16 Torsion [CA]-CB--CG-[OD1] |==|  0.19164
USER: genes 17 Torsion [N]-CA--C-[O] |==|  0.07071
ROOT
ATOM      1  CA  ALA B   3       9.739  -1.648  22.535  1.00 18.86 LIG 0.17  C 
ATOM      2  CB  ALA B   3       8.302  -1.591  23.050  1.00 19.35 LIG 0.04  C 
ENDROOT
BRANCH 1 3
ATOM      3  N   ALA B   3       9.878  -2.773  21.621  1.00 16.29 LIG-0.35  N 
ATOM      4  C   ASP B   2       9.478  -3.999  21.926  1.00 15.20 LIG 0.24  C 
ATOM      5 O    ASP B   2       8.888  -4.270  22.985  1.00 18.35 LIG-0.27  OA
ATOM      6 H    ALA B   3      10.242  -2.568  20.869  1.00 16.29 LIG 0.16  HD
BRANCH 4 7
ATOM      7  CA  ASP B   2       9.795  -5.090  20.892  1.00 15.30 LIG 0.19  C 
BRANCH 7 8
ATOM      8  N   ASP B   2       9.192  -4.797  19.610  1.00 15.19 LIG-0.34  N 
ATOM      9  C   VAL B   1       8.496  -5.703  18.947  1.00 14.82 LIG 0.25  C 
ATOM     10 O    VAL B   1       8.367  -6.863  19.344  1.00 14.79 LIG-0.27  OA
ATOM     11 H    ASP B   2       9.328  -3.996  19.328  1.00 15.19 LIG 0.16  HD
BRANCH 9 12
ATOM     12  CA  VAL B   1       7.914  -5.259  17.609  1.00 14.89 LIG 0.28  C 
BRANCH 12 13
ATOM     13  CB  VAL B   1       6.459  -4.778  17.716  1.00 17.39 LIG 0.02  C 
ATOM     14  CG2 VAL B   1       6.246  -3.815  18.828  1.00 22.29 LIG 0.01  C 
ATOM     15  CG1 VAL B   1       5.510  -5.925  17.910  1.00 17.29 LIG 0.01  C 
ENDBRANCH 12 13
BRANCH 12 16
ATOM     16  N   VAL B   1       7.994  -6.396  16.682  1.00 15.02 LIG-0.07  N 
ATOM     17 H2   VAL B   1       7.213  -6.495  16.266  1.00 15.02 LIG 0.28  HD
ATOM     18 H3   VAL B   1       8.633  -6.245  16.081  1.00 15.02 LIG 0.28  HD
ATOM     19 H1   VAL B   1       8.183  -7.138  17.136  1.00 15.02 LIG 0.28  HD
ENDBRANCH 12 16
ENDBRANCH 9 12
ENDBRANCH 7 8
BRANCH 7 20
ATOM     20  CB  ASP B   2      11.301  -5.320  20.739  1.00 16.98 LIG 0.15  C 
BRANCH 20 21
ATOM     21  CG  ASP B   2      11.918  -6.013  21.934  1.00 17.41 LIG 0.17  C 
ATOM     22 OD1  ASP B   2      12.046  -5.349  23.003  1.00 15.73 LIG-0.65  OA
ATOM     23 OD2  ASP B   2      12.294  -7.216  21.801  1.00 22.30 LIG-0.65  OA
ENDBRANCH 20 21
ENDBRANCH 7 20
ENDBRANCH 4 7
ENDBRANCH 1 3
BRANCH 1 24
ATOM     24  C   ALA B   3      10.723  -1.760  23.699  1.00 21.51 LIG 0.24  C 
ATOM     25  N   VAL B   4      11.414  -0.662  23.990  1.00 22.67 LIG-0.35  N 
ATOM     26 H    VAL B   4      11.428   0.041  23.495  1.00 22.67 LIG 0.16  HD
ATOM     27 O    ALA B   3      10.850  -2.818  24.319  1.00 22.81 LIG-0.27  OA
BRANCH 25 28
ATOM     28  CA  VAL B   4      12.225  -0.562  25.207  1.00 26.45 LIG 0.18  C 
BRANCH 28 29
ATOM     29  CB  VAL B   4      13.522  -1.396  25.098  1.00 30.01 LIG 0.01  C 
ATOM     30  CG2 VAL B   4      13.631  -2.378  26.262  1.00 31.20 LIG 0.01  C 
ATOM     31  CG1 VAL B   4      14.748  -0.487  25.044  1.00 33.02 LIG 0.01  C 
ENDBRANCH 28 29
BRANCH 28 32
ATOM     32  C   VAL B   4      12.560   0.921  25.389  1.00 25.61 LIG 0.24  C 
ATOM     33  N   ASN B   5      12.627   1.374  26.638  1.00 29.33 LIG-0.35  N 
ATOM     34 H    ASN B   5      12.513   0.877  27.331  1.00 29.33 LIG 0.16  HD
ATOM     35 O    VAL B   4      12.719   1.641  24.404  1.00 29.65 LIG-0.27  OA
BRANCH 33 36
ATOM     36  CA  ASN B   5      12.906   2.788  26.950  1.00 34.74 LIG 0.17  C 
BRANCH 36 37
ATOM     37  CB  ASN B   5      11.710   3.391  27.680  1.00 42.44 LIG 0.14  C 
BRANCH 37 38
ATOM     38  CG  ASN B   5      10.518   3.588  26.762  1.00 45.23 LIG 0.22  C 
ATOM     39 OD1  ASN B   5       9.912   2.625  26.321  1.00 53.97 LIG-0.27  OA
ATOM     40  ND2 ASN B   5      10.209   4.838  26.434  1.00 50.63 LIG-0.37  N 
ATOM     41 21HD ASN B   5       9.560   4.993  25.892  1.00 50.63 LIG 0.16  HD
ATOM     42 22HD ASN B   5      10.658   5.493  26.764  1.00 50.63 LIG 0.16  HD
ENDBRANCH 37 38
ENDBRANCH 36 37
BRANCH 36 43
ATOM     43  C   ASN B   5      14.173   2.965  27.769  1.00 38.04 LIG 0.22  C 
ATOM     44 O    ASN B   5      15.064   2.123  27.710  1.00 41.05 LIG-0.29  OA
ENDBRANCH 36 43
ENDBRANCH 33 36
ENDBRANCH 28 32
ENDBRANCH 25 28
ENDBRANCH 1 24
TORSDOF 16
ENDMDL
MODEL 24
USER: ADFR SOLUTION from run 96
USER: SCORE 12.214518 LL:  -2.835 LR: -10.803 RR:   0.000 FEB:  -6.030
USER: RMSD 6.046477
USER: SEED 95
USER: STATUS no improvement in best in 15 clusters for 5 generations
USER: GENES 18
USER: genes 0 Translation |==|  0.43993 0.39144 0.32326
USER: genes 1 Rotation |==|  0.72632 0.59015 0.92583 0.59657
USER: genes 2 Torsion [CB]-CA--N-[C] |==|  0.83704
USER: genes 3 Torsion [N]-C--CA-[N] |==|  0.42469
USER: genes 4 Torsion [C]-CA--N-[C] |==|  0.72874
USER: genes 5 Torsion [N]-C--CA-[N] |==|  0.90132
USER: genes 6 Torsion [C]-CA--CB-[CG2] |==|  0.26636
USER: genes 7 Torsion [C]-CA--N-[H2] |==|  0.96743
USER: genes 8 Torsion [C]-CA--CB-[CG] |==|  0.12531
USER: genes 9 Torsion [CA]-CB--CG-[OD2] |==|  0.18673
USER: genes 10 Torsion [N]-CA--C-[N] |==|  0.37320
USER: genes 11 Torsion [C]-N--CA-[CB] |==|  0.35614
USER: genes 12 Torsion [N]-CA--CB-[CG2] |==|  0.51996
USER: genes 13 Torsion [N]-CA--C-[N] |==|  0.92519
USER: genes 14 Torsion [C]-N--CA-[CB] |==|  0.50521
USER: genes 15 Torsion [N]-CA--CB-[CG] |==|  0.15207
USER: genes 16 Torsion [CA]-CB--CG-[OD1] |==|  0.27774
USER: genes 17 Torsion [N]-CA--C-[O] |==|  0.88970
ROOT
ATOM      1  CA  ALA B   3       9.879  -2.226  22.345  1.00 18.86 LIG 0.17  C 
ATOM      2  CB  ALA B   3       8.651  -2.553  23.192  1.00 19.35 LIG 0.04  C 
ENDROOT
BRANCH 1 3
ATOM      3  N   ALA B   3       9.950  -3.153  21.223  1.00 16.29 LIG-0.35  N 
ATOM      4  C   ASP B   2      10.023  -4.467  21.381  1.00 15.20 LIG 0.24  C 
ATOM      5 O    ASP B   2       9.963  -5.014  22.495  1.00 18.35 LIG-0.27  OA
ATOM      6 H    ALA B   3       9.940  -2.769  20.453  1.00 16.29 LIG 0.16  HD
BRANCH 4 7
ATOM      7  CA  ASP B   2      10.199  -5.292  20.098  1.00 15.30 LIG 0.19  C 
BRANCH 7 8
ATOM      8  N   ASP B   2      10.876  -6.544  20.360  1.00 15.19 LIG-0.34  N 
ATOM      9  C   VAL B   1      12.173  -6.687  20.158  1.00 14.82 LIG 0.25  C 
ATOM     10 O    VAL B   1      12.874  -5.793  19.681  1.00 14.79 LIG-0.27  OA
ATOM     11 H    ASP B   2      10.363  -7.170  20.653  1.00 15.19 LIG 0.16  HD
BRANCH 9 12
ATOM     12  CA  VAL B   1      12.757  -8.059  20.478  1.00 14.89 LIG 0.28  C 
BRANCH 12 13
ATOM     13  CB  VAL B   1      12.645  -9.047  19.306  1.00 17.39 LIG 0.02  C 
ATOM     14  CG2 VAL B   1      13.879  -9.111  18.480  1.00 22.29 LIG 0.01  C 
ATOM     15  CG1 VAL B   1      11.500  -8.701  18.398  1.00 17.29 LIG 0.01  C 
ENDBRANCH 12 13
BRANCH 12 16
ATOM     16  N   VAL B   1      12.044  -8.593  21.646  1.00 15.02 LIG-0.07  N 
ATOM     17 H2   VAL B   1      11.555  -7.949  22.016  1.00 15.02 LIG 0.28  HD
ATOM     18 H3   VAL B   1      11.511  -9.259  21.390  1.00 15.02 LIG 0.28  HD
ATOM     19 H1   VAL B   1      12.633  -8.897  22.241  1.00 15.02 LIG 0.28  HD
ENDBRANCH 12 16
ENDBRANCH 9 12
ENDBRANCH 7 8
BRANCH 7 20
ATOM     20  CB  ASP B   2       8.867  -5.538  19.384  1.00 16.98 LIG 0.15  C 
BRANCH 20 21
ATOM     21  CG  ASP B   2       8.008  -4.297  19.290  1.00 17.41 LIG 0.17  C 
ATOM     22 OD1  ASP B   2       6.917  -4.283  19.931  1.00 15.73 LIG-0.65  OA
ATOM     23 OD2  ASP B   2       8.411  -3.343  18.560  1.00 22.30 LIG-0.65  OA
ENDBRANCH 20 21
ENDBRANCH 7 20
ENDBRANCH 4 7
ENDBRANCH 1 3
BRANCH 1 24
ATOM     24  C   ALA B   3      11.150  -2.289  23.192  1.00 21.51 LIG 0.24  C 
ATOM     25  N   VAL B   4      11.678  -1.122  23.545  1.00 22.67 LIG-0.35  N 
ATOM     26 H    VAL B   4      11.424  -0.365  23.226  1.00 22.67 LIG 0.16  HD
ATOM     27 O    ALA B   3      11.637  -3.374  23.519  1.00 22.81 LIG-0.27  OA
BRANCH 25 28
ATOM     28  CA  VAL B   4      12.760  -1.032  24.529  1.00 26.45 LIG 0.18  C 
BRANCH 28 29
ATOM     29  CB  VAL B   4      13.952  -0.206  23.992  1.00 30.01 LIG 0.01  C 
ATOM     30  CG2 VAL B   4      15.133  -0.275  24.958  1.00 31.20 LIG 0.01  C 
ATOM     31  CG1 VAL B   4      13.540   1.244  23.746  1.00 33.02 LIG 0.01  C 
ENDBRANCH 28 29
BRANCH 28 32
ATOM     32  C   VAL B   4      12.167  -0.363  25.773  1.00 25.61 LIG 0.24  C 
ATOM     33  N   ASN B   5      11.133   0.452  25.583  1.00 29.33 LIG-0.35  N 
ATOM     34 H    ASN B   5      10.779   0.599  24.813  1.00 29.33 LIG 0.16  HD
ATOM     35 O    VAL B   4      12.669  -0.564  26.878  1.00 29.65 LIG-0.27  OA
BRANCH 33 36
ATOM     36  CA  ASN B   5      10.492   1.184  26.690  1.00 34.74 LIG 0.17  C 
BRANCH 36 37
ATOM     37  CB  ASN B   5       9.315   1.990  26.150  1.00 42.44 LIG 0.14  C 
BRANCH 37 38
ATOM     38  CG  ASN B   5       8.330   1.124  25.388  1.00 45.23 LIG 0.22  C 
ATOM     39 OD1  ASN B   5       7.301   0.741  25.922  1.00 53.97 LIG-0.27  OA
ATOM     40  ND2 ASN B   5       8.665   0.775  24.150  1.00 50.63 LIG-0.37  N 
ATOM     41 21HD ASN B   5       8.150   0.260  23.693  1.00 50.63 LIG 0.16  HD
ATOM     42 22HD ASN B   5       9.398   1.064  23.805  1.00 50.63 LIG 0.16  HD
ENDBRANCH 37 38
ENDBRANCH 36 37
BRANCH 36 43
ATOM     43  C   ASN B   5      10.037   0.265  27.811  1.00 38.04 LIG 0.22  C 
ATOM     44 O    ASN B   5       9.533  -0.822  27.546  1.00 41.05 LIG-0.29  OA
ENDBRANCH 36 43
ENDBRANCH 33 36
ENDBRANCH 28 32
ENDBRANCH 25 28
ENDBRANCH 1 24
TORSDOF 16
ENDMDL
MODEL 25
USER: ADFR SOLUTION from run 31
USER: SCORE 11.577882 LL:  -2.994 LR: -10.775 RR:   0.000 FEB:  -6.002
USER: RMSD 5.806205
USER: SEED 30
USER: STATUS no improvement in best in 35 clusters for 5 generations
USER: GENES 18
USER: genes 0 Translation |==|  0.53500 0.40099 0.42244
USER: genes 1 Rotation |==|  0.30822 0.31809 0.64217 0.89989
USER: genes 2 Torsion [CB]-CA--N-[C] |==|  0.82138
USER: genes 3 Torsion [N]-C--CA-[N] |==|  0.00182
USER: genes 4 Torsion [C]-CA--N-[C] |==|  0.68988
USER: genes 5 Torsion [N]-C--CA-[N] |==|  0.45892
USER: genes 6 Torsion [C]-CA--CB-[CG2] |==|  0.52280
USER: genes 7 Torsion [C]-CA--N-[H2] |==|  0.65203
USER: genes 8 Torsion [C]-CA--CB-[CG] |==|  0.36742
USER: genes 9 Torsion [CA]-CB--CG-[OD2] |==|  0.70883
USER: genes 10 Torsion [N]-CA--C-[N] |==|  0.77899
USER: genes 11 Torsion [C]-N--CA-[CB] |==|  0.86111
USER: genes 12 Torsion [N]-CA--CB-[CG2] |==|  0.87119
USER: genes 13 Torsion [N]-CA--C-[N] |==|  0.11116
USER: genes 14 Torsion [C]-N--CA-[CB] |==|  0.51702
USER: genes 15 Torsion [N]-CA--CB-[CG] |==|  0.84694
USER: genes 16 Torsion [CA]-CB--CG-[OD1] |==|  0.69908
USER: genes 17 Torsion [N]-CA--C-[O] |==|  0.60728
ROOT
ATOM      1  CA  ALA B   3      11.519  -2.054  24.427  1.00 18.86 LIG 0.17  C 
ATOM      2  CB  ALA B   3      12.478  -1.041  23.805  1.00 19.35 LIG 0.04  C 
ENDROOT
BRANCH 1 3
ATOM      3  N   ALA B   3      11.264  -3.125  23.473  1.00 16.29 LIG-0.35  N 
ATOM      4  C   ASP B   2      10.649  -2.924  22.316  1.00 15.20 LIG 0.24  C 
ATOM      5 O    ASP B   2      10.309  -1.795  21.924  1.00 18.35 LIG-0.27  OA
ATOM      6 H    ALA B   3      11.548  -3.895  23.730  1.00 16.29 LIG 0.16  HD
BRANCH 4 7
ATOM      7  CA  ASP B   2      10.365  -4.178  21.476  1.00 15.30 LIG 0.19  C 
BRANCH 7 8
ATOM      8  N   ASP B   2      10.827  -5.378  22.140  1.00 15.19 LIG-0.34  N 
ATOM      9  C   VAL B   1      11.844  -6.081  21.675  1.00 14.82 LIG 0.25  C 
ATOM     10 O    VAL B   1      12.422  -5.799  20.624  1.00 14.79 LIG-0.27  OA
ATOM     11 H    ASP B   2      10.385  -5.583  22.849  1.00 15.19 LIG 0.16  HD
BRANCH 9 12
ATOM     12  CA  VAL B   1      12.225  -7.322  22.475  1.00 14.89 LIG 0.28  C 
BRANCH 12 13
ATOM     13  CB  VAL B   1      12.929  -6.990  23.800  1.00 17.39 LIG 0.02  C 
ATOM     14  CG2 VAL B   1      13.472  -8.191  24.487  1.00 22.29 LIG 0.01  C 
ATOM     15  CG1 VAL B   1      12.006  -6.291  24.756  1.00 17.29 LIG 0.01  C 
ENDBRANCH 12 13
BRANCH 12 16
ATOM     16  N   VAL B   1      13.107  -8.147  21.639  1.00 15.02 LIG-0.07  N 
ATOM     17 H2   VAL B   1      12.772  -8.968  21.575  1.00 15.02 LIG 0.28  HD
ATOM     18 H3   VAL B   1      13.166  -7.788  20.826  1.00 15.02 LIG 0.28  HD
ATOM     19 H1   VAL B   1      13.917  -8.184  22.006  1.00 15.02 LIG 0.28  HD
ENDBRANCH 12 16
ENDBRANCH 9 12
ENDBRANCH 7 8
BRANCH 7 20
ATOM     20  CB  ASP B   2       8.885  -4.301  21.106  1.00 16.98 LIG 0.15  C 
BRANCH 20 21
ATOM     21  CG  ASP B   2       8.665  -4.605  19.641  1.00 17.41 LIG 0.17  C 
ATOM     22 OD1  ASP B   2       8.915  -5.776  19.235  1.00 15.73 LIG-0.65  OA
ATOM     23 OD2  ASP B   2       8.260  -3.667  18.889  1.00 22.30 LIG-0.65  OA
ENDBRANCH 20 21
ENDBRANCH 7 20
ENDBRANCH 4 7
ENDBRANCH 1 3
BRANCH 1 24
ATOM     24  C   ALA B   3      10.218  -1.373  24.851  1.00 21.51 LIG 0.24  C 
ATOM     25  N   VAL B   4       9.718  -0.482  24.000  1.00 22.67 LIG-0.35  N 
ATOM     26 H    VAL B   4      10.140  -0.188  23.311  1.00 22.67 LIG 0.16  HD
ATOM     27 O    ALA B   3       9.680  -1.652  25.925  1.00 22.81 LIG-0.27  OA
BRANCH 25 28
ATOM     28  CA  VAL B   4       8.376   0.082  24.175  1.00 26.45 LIG 0.18  C 
BRANCH 28 29
ATOM     29  CB  VAL B   4       7.318  -1.022  24.399  1.00 30.01 LIG 0.01  C 
ATOM     30  CG2 VAL B   4       7.495  -2.152  23.387  1.00 31.20 LIG 0.01  C 
ATOM     31  CG1 VAL B   4       5.906  -0.445  24.320  1.00 33.02 LIG 0.01  C 
ENDBRANCH 28 29
BRANCH 28 32
ATOM     32  C   VAL B   4       8.446   1.008  25.393  1.00 25.61 LIG 0.24  C 
ATOM     33  N   ASN B   5       9.539   1.754  25.520  1.00 29.33 LIG-0.35  N 
ATOM     34 H    ASN B   5      10.184   1.754  24.950  1.00 29.33 LIG 0.16  HD
ATOM     35 O    VAL B   4       7.531   1.011  26.216  1.00 29.65 LIG-0.27  OA
BRANCH 33 36
ATOM     36  CA  ASN B   5       9.746   2.661  26.664  1.00 34.74 LIG 0.17  C 
BRANCH 36 37
ATOM     37  CB  ASN B   5      11.014   3.479  26.439  1.00 42.44 LIG 0.14  C 
BRANCH 37 38
ATOM     38  CG  ASN B   5      12.225   2.601  26.183  1.00 45.23 LIG 0.22  C 
ATOM     39 OD1  ASN B   5      13.096   2.489  27.029  1.00 53.97 LIG-0.27  OA
ATOM     40  ND2 ASN B   5      12.303   2.012  24.994  1.00 50.63 LIG-0.37  N 
ATOM     41 21HD ASN B   5      12.987   1.530  24.797  1.00 50.63 LIG 0.16  HD
ATOM     42 22HD ASN B   5      11.669   2.112  24.422  1.00 50.63 LIG 0.16  HD
ENDBRANCH 37 38
ENDBRANCH 36 37
BRANCH 36 43
ATOM     43  C   ASN B   5       8.558   3.577  26.905  1.00 38.04 LIG 0.22  C 
ATOM     44 O    ASN B   5       8.741   4.743  27.239  1.00 41.05 LIG-0.29  OA
ENDBRANCH 36 43
ENDBRANCH 33 36
ENDBRANCH 28 32
ENDBRANCH 25 28
ENDBRANCH 1 24
TORSDOF 16
ENDMDL
MODEL 26
USER: ADFR SOLUTION from run 105
USER: SCORE 11.521404 LL:  -2.894 LR: -10.764 RR:   0.000 FEB:  -5.991
USER: RMSD 6.508051
USER: SEED 104
USER: STATUS no improvement in best in 4 clusters for 5 generations
USER: GENES 18
USER: genes 0 Translation |==|  0.47474 0.30438 0.40278
USER: genes 1 Rotation |==|  0.18866 0.28942 0.46250 0.82759
USER: genes 2 Torsion [CB]-CA--N-[C] |==|  0.83861
USER: genes 3 Torsion [N]-C--CA-[N] |==|  0.37354
USER: genes 4 Torsion [C]-CA--N-[C] |==|  0.59444
USER: genes 5 Torsion [N]-C--CA-[N] |==|  0.34406
USER: genes 6 Torsion [C]-CA--CB-[CG2] |==|  0.09924
USER: genes 7 Torsion [C]-CA--N-[H2] |==|  0.77056
USER: genes 8 Torsion [C]-CA--CB-[CG] |==|  0.70825
USER: genes 9 Torsion [CA]-CB--CG-[OD2] |==|  0.77489
USER: genes 10 Torsion [N]-CA--C-[N] |==|  0.33712
USER: genes 11 Torsion [C]-N--CA-[CB] |==|  0.37900
USER: genes 12 Torsion [N]-CA--CB-[CG2] |==|  0.48238
USER: genes 13 Torsion [N]-CA--C-[N] |==|  0.18336
USER: genes 14 Torsion [C]-N--CA-[CB] |==|  0.52084
USER: genes 15 Torsion [N]-CA--CB-[CG] |==|  0.88573
USER: genes 16 Torsion [CA]-CB--CG-[OD1] |==|  0.17669
USER: genes 17 Torsion [N]-CA--C-[O] |==|  0.31308
ROOT
ATOM      1  CA  ALA B   3      10.479  -3.793  24.014  1.00 18.86 LIG 0.17  C 
ATOM      2  CB  ALA B   3      12.001  -3.702  24.113  1.00 19.35 LIG 0.04  C 
ENDROOT
BRANCH 1 3
ATOM      3  N   ALA B   3      10.120  -4.859  23.090  1.00 16.29 LIG-0.35  N 
ATOM      4  C   ASP B   2      10.523  -4.880  21.827  1.00 15.20 LIG 0.24  C 
ATOM      5 O    ASP B   2      11.297  -4.031  21.355  1.00 18.35 LIG-0.27  OA
ATOM      6 H    ALA B   3       9.625  -5.470  23.438  1.00 16.29 LIG 0.16  HD
BRANCH 4 7
ATOM      7  CA  ASP B   2       9.966  -6.019  20.960  1.00 15.30 LIG 0.19  C 
BRANCH 7 8
ATOM      8  N   ASP B   2       9.514  -5.536  19.674  1.00 15.19 LIG-0.34  N 
ATOM      9  C   VAL B   1       8.476  -6.071  19.056  1.00 14.82 LIG 0.25  C 
ATOM     10 O    VAL B   1       7.869  -7.047  19.501  1.00 14.79 LIG-0.27  OA
ATOM     11 H    ASP B   2       9.975  -4.882  19.358  1.00 15.19 LIG 0.16  HD
BRANCH 9 12
ATOM     12  CA  VAL B   1       8.108  -5.462  17.707  1.00 14.89 LIG 0.28  C 
BRANCH 12 13
ATOM     13  CB  VAL B   1       6.736  -4.770  17.715  1.00 17.39 LIG 0.02  C 
ATOM     14  CG2 VAL B   1       6.435  -4.091  19.002  1.00 22.29 LIG 0.01  C 
ATOM     15  CG1 VAL B   1       5.625  -5.740  17.435  1.00 17.29 LIG 0.01  C 
ENDBRANCH 12 13
BRANCH 12 16
ATOM     16  N   VAL B   1       8.114  -6.539  16.708  1.00 15.02 LIG-0.07  N 
ATOM     17 H2   VAL B   1       8.947  -6.680  16.430  1.00 15.02 LIG 0.28  HD
ATOM     18 H3   VAL B   1       7.793  -7.285  17.073  1.00 15.02 LIG 0.28  HD
ATOM     19 H1   VAL B   1       7.606  -6.305  16.016  1.00 15.02 LIG 0.28  HD
ENDBRANCH 12 16
ENDBRANCH 9 12
ENDBRANCH 7 8
BRANCH 7 20
ATOM     20  CB  ASP B   2      10.977  -7.156  20.784  1.00 16.98 LIG 0.15  C 
BRANCH 20 21
ATOM     21  CG  ASP B   2      11.614  -7.174  19.412  1.00 17.41 LIG 0.17  C 
ATOM     22 OD1  ASP B   2      12.754  -6.643  19.282  1.00 15.73 LIG-0.65  OA
ATOM     23 OD2  ASP B   2      10.967  -7.702  18.458  1.00 22.30 LIG-0.65  OA
ENDBRANCH 20 21
ENDBRANCH 7 20
ENDBRANCH 4 7
ENDBRANCH 1 3
BRANCH 1 24
ATOM     24  C   ALA B   3       9.888  -2.456  23.569  1.00 21.51 LIG 0.24  C 
ATOM     25  N   VAL B   4       9.079  -1.855  24.436  1.00 22.67 LIG-0.35  N 
ATOM     26 H    VAL B   4       8.782  -2.227  25.152  1.00 22.67 LIG 0.16  HD
ATOM     27 O    ALA B   3      10.163  -1.980  22.465  1.00 22.81 LIG-0.27  OA
BRANCH 25 28
ATOM     28  CA  VAL B   4       8.619  -0.478  24.233  1.00 26.45 LIG 0.18  C 
BRANCH 28 29
ATOM     29  CB  VAL B   4       7.111  -0.330  24.541  1.00 30.01 LIG 0.01  C 
ATOM     30  CG2 VAL B   4       6.690   1.137  24.475  1.00 31.20 LIG 0.01  C 
ATOM     31  CG1 VAL B   4       6.774  -0.926  25.906  1.00 33.02 LIG 0.01  C 
ENDBRANCH 28 29
BRANCH 28 32
ATOM     32  C   VAL B   4       9.443   0.403  25.177  1.00 25.61 LIG 0.24  C 
ATOM     33  N   ASN B   5      10.747   0.493  24.930  1.00 29.33 LIG-0.35  N 
ATOM     34 H    ASN B   5      11.134   0.105  24.267  1.00 29.33 LIG 0.16  HD
ATOM     35 O    VAL B   4       8.900   0.959  26.131  1.00 29.65 LIG-0.27  OA
BRANCH 33 36
ATOM     36  CA  ASN B   5      11.658   1.279  25.782  1.00 34.74 LIG 0.17  C 
BRANCH 36 37
ATOM     37  CB  ASN B   5      13.037   1.335  25.132  1.00 42.44 LIG 0.14  C 
BRANCH 37 38
ATOM     38  CG  ASN B   5      13.441   0.001  24.533  1.00 45.23 LIG 0.22  C 
ATOM     39 OD1  ASN B   5      12.805  -0.480  23.609  1.00 53.97 LIG-0.27  OA
ATOM     40  ND2 ASN B   5      14.476  -0.623  25.088  1.00 50.63 LIG-0.37  N 
ATOM     41 21HD ASN B   5      14.719  -1.395  24.799  1.00 50.63 LIG 0.16  HD
ATOM     42 22HD ASN B   5      14.902  -0.254  25.738  1.00 50.63 LIG 0.16  HD
ENDBRANCH 37 38
ENDBRANCH 36 37
BRANCH 36 43
ATOM     43  C   ASN B   5      11.140   2.682  26.050  1.00 38.04 LIG 0.22  C 
ATOM     44 O    ASN B   5      10.798   3.003  27.184  1.00 41.05 LIG-0.29  OA
ENDBRANCH 36 43
ENDBRANCH 33 36
ENDBRANCH 28 32
ENDBRANCH 25 28
ENDBRANCH 1 24
TORSDOF 16
ENDMDL
MODEL 27
USER: ADFR SOLUTION from run 96
USER: SCORE 12.710251 LL:  -2.496 LR: -10.753 RR:   0.000 FEB:  -5.980
USER: RMSD 6.120817
USER: SEED 95
USER: STATUS no improvement in best in 15 clusters for 5 generations
USER: GENES 18
USER: genes 0 Translation |==|  0.45006 0.39183 0.34041
USER: genes 1 Rotation |==|  0.75603 0.60329 0.91081 0.57079
USER: genes 2 Torsion [CB]-CA--N-[C] |==|  0.84374
USER: genes 3 Torsion [N]-C--CA-[N] |==|  0.43791
USER: genes 4 Torsion [C]-CA--N-[C] |==|  0.72537
USER: genes 5 Torsion [N]-C--CA-[N] |==|  0.89770
USER: genes 6 Torsion [C]-CA--CB-[CG2] |==|  0.27365
USER: genes 7 Torsion [C]-CA--N-[H2] |==|  0.97235
USER: genes 8 Torsion [C]-CA--CB-[CG] |==|  0.14847
USER: genes 9 Torsion [CA]-CB--CG-[OD2] |==|  0.17308
USER: genes 10 Torsion [N]-CA--C-[N] |==|  0.36513
USER: genes 11 Torsion [C]-N--CA-[CB] |==|  0.53917
USER: genes 12 Torsion [N]-CA--CB-[CG2] |==|  0.12516
USER: genes 13 Torsion [N]-CA--C-[N] |==|  0.39507
USER: genes 14 Torsion [C]-N--CA-[CB] |==|  0.50444
USER: genes 15 Torsion [N]-CA--CB-[CG] |==|  0.10615
USER: genes 16 Torsion [CA]-CB--CG-[OD1] |==|  0.23069
USER: genes 17 Torsion [N]-CA--C-[O] |==|  0.91383
ROOT
ATOM      1  CA  ALA B   3      10.054  -2.219  22.705  1.00 18.86 LIG 0.17  C 
ATOM      2  CB  ALA B   3       9.003  -2.649  23.727  1.00 19.35 LIG 0.04  C 
ENDROOT
BRANCH 1 3
ATOM      3  N   ALA B   3      10.019  -3.128  21.567  1.00 16.29 LIG-0.35  N 
ATOM      4  C   ASP B   2      10.171  -4.439  21.692  1.00 15.20 LIG 0.24  C 
ATOM      5 O    ASP B   2      10.282  -5.001  22.794  1.00 18.35 LIG-0.27  OA
ATOM      6 H    ALA B   3       9.891  -2.736  20.812  1.00 16.29 LIG 0.16  HD
BRANCH 4 7
ATOM      7  CA  ASP B   2      10.214  -5.241  20.382  1.00 15.30 LIG 0.19  C 
BRANCH 7 8
ATOM      8  N   ASP B   2      10.879  -6.513  20.560  1.00 15.19 LIG-0.34  N 
ATOM      9  C   VAL B   1      12.144  -6.689  20.221  1.00 14.82 LIG 0.25  C 
ATOM     10 O    VAL B   1      12.816  -5.808  19.681  1.00 14.79 LIG-0.27  OA
ATOM     11 H    ASP B   2      10.384  -7.129  20.899  1.00 15.19 LIG 0.16  HD
BRANCH 9 12
ATOM     12  CA  VAL B   1      12.719  -8.080  20.465  1.00 14.89 LIG 0.28  C 
BRANCH 12 13
ATOM     13  CB  VAL B   1      12.430  -9.059  19.316  1.00 17.39 LIG 0.02  C 
ATOM     14  CG2 VAL B   1      13.572  -9.205  18.376  1.00 22.29 LIG 0.01  C 
ATOM     15  CG1 VAL B   1      11.229  -8.639  18.521  1.00 17.29 LIG 0.01  C 
ENDBRANCH 12 13
BRANCH 12 16
ATOM     16  N   VAL B   1      12.142  -8.596  21.713  1.00 15.02 LIG-0.07  N 
ATOM     17 H2   VAL B   1      11.703  -7.944  22.129  1.00 15.02 LIG 0.28  HD
ATOM     18 H3   VAL B   1      11.580  -9.261  21.528  1.00 15.02 LIG 0.28  HD
ATOM     19 H1   VAL B   1      12.794  -8.897  22.240  1.00 15.02 LIG 0.28  HD
ENDBRANCH 12 16
ENDBRANCH 9 12
ENDBRANCH 7 8
BRANCH 7 20
ATOM     20  CB  ASP B   2       8.820  -5.440  19.782  1.00 16.98 LIG 0.15  C 
BRANCH 20 21
ATOM     21  CG  ASP B   2       8.062  -4.144  19.603  1.00 17.41 LIG 0.17  C 
ATOM     22 OD1  ASP B   2       6.973  -4.003  20.232  1.00 15.73 LIG-0.65  OA
ATOM     23 OD2  ASP B   2       8.542  -3.272  18.817  1.00 22.30 LIG-0.65  OA
ENDBRANCH 20 21
ENDBRANCH 7 20
ENDBRANCH 4 7
ENDBRANCH 1 3
BRANCH 1 24
ATOM     24  C   ALA B   3      11.443  -2.188  23.342  1.00 21.51 LIG 0.24  C 
ATOM     25  N   VAL B   4      11.953  -0.983  23.577  1.00 22.67 LIG-0.35  N 
ATOM     26 H    VAL B   4      11.611  -0.252  23.283  1.00 22.67 LIG 0.16  HD
ATOM     27 O    ALA B   3      12.035  -3.234  23.615  1.00 22.81 LIG-0.27  OA
BRANCH 25 28
ATOM     28  CA  VAL B   4      13.169  -0.804  24.375  1.00 26.45 LIG 0.18  C 
BRANCH 28 29
ATOM     29  CB  VAL B   4      13.363   0.670  24.796  1.00 30.01 LIG 0.01  C 
ATOM     30  CG2 VAL B   4      12.051   1.262  25.306  1.00 31.20 LIG 0.01  C 
ATOM     31  CG1 VAL B   4      13.913   1.498  23.636  1.00 33.02 LIG 0.01  C 
ENDBRANCH 28 29
BRANCH 28 32
ATOM     32  C   VAL B   4      13.017  -1.696  25.611  1.00 25.61 LIG 0.24  C 
ATOM     33  N   ASN B   5      14.111  -2.312  26.047  1.00 29.33 LIG-0.35  N 
ATOM     34 H    ASN B   5      14.886  -2.218  25.686  1.00 29.33 LIG 0.16  HD
ATOM     35 O    VAL B   4      11.911  -1.840  26.132  1.00 29.65 LIG-0.27  OA
BRANCH 33 36
ATOM     36  CA  ASN B   5      14.094  -3.225  27.206  1.00 34.74 LIG 0.17  C 
BRANCH 36 37
ATOM     37  CB  ASN B   5      15.507  -3.734  27.471  1.00 42.44 LIG 0.14  C 
BRANCH 37 38
ATOM     38  CG  ASN B   5      16.554  -2.658  27.251  1.00 45.23 LIG 0.22  C 
ATOM     39 OD1  ASN B   5      16.804  -1.849  28.130  1.00 53.97 LIG-0.27  OA
ATOM     40  ND2 ASN B   5      17.135  -2.617  26.056  1.00 50.63 LIG-0.37  N 
ATOM     41 21HD ASN B   5      17.712  -2.004  25.879  1.00 50.63 LIG 0.16  HD
ATOM     42 22HD ASN B   5      16.935  -3.203  25.460  1.00 50.63 LIG 0.16  HD
ENDBRANCH 37 38
ENDBRANCH 36 37
BRANCH 36 43
ATOM     43  C   ASN B   5      13.521  -2.573  28.452  1.00 38.04 LIG 0.22  C 
ATOM     44 O    ASN B   5      13.660  -1.367  28.633  1.00 41.05 LIG-0.29  OA
ENDBRANCH 36 43
ENDBRANCH 33 36
ENDBRANCH 28 32
ENDBRANCH 25 28
ENDBRANCH 1 24
TORSDOF 16
ENDMDL
MODEL 28
USER: ADFR SOLUTION from run 113
USER: SCORE 11.934443 LL:  -2.979 LR: -10.724 RR:   0.000 FEB:  -5.951
USER: RMSD 4.822503
USER: SEED 112
USER: STATUS no improvement in best in 12 clusters for 5 generations
USER: GENES 18
USER: genes 0 Translation |==|  0.32573 0.47177 0.37497
USER: genes 1 Rotation |==|  0.74385 0.63825 0.77708 0.80765
USER: genes 2 Torsion [CB]-CA--N-[C] |==|  0.47778
USER: genes 3 Torsion [N]-C--CA-[N] |==|  0.43228
USER: genes 4 Torsion [C]-CA--N-[C] |==|  0.74070
USER: genes 5 Torsion [N]-C--CA-[N] |==|  0.45244
USER: genes 6 Torsion [C]-CA--CB-[CG2] |==|  0.36979
USER: genes 7 Torsion [C]-CA--N-[H2] |==|  0.04496
USER: genes 8 Torsion [C]-CA--CB-[CG] |==|  0.20510
USER: genes 9 Torsion [CA]-CB--CG-[OD2] |==|  0.03834
USER: genes 10 Torsion [N]-CA--C-[N] |==|  0.48621
USER: genes 11 Torsion [C]-N--CA-[CB] |==|  0.27104
USER: genes 12 Torsion [N]-CA--CB-[CG2] |==|  0.55640
USER: genes 13 Torsion [N]-CA--C-[N] |==|  0.92778
USER: genes 14 Torsion [C]-N--CA-[CB] |==|  0.83024
USER: genes 15 Torsion [N]-CA--CB-[CG] |==|  0.75224
USER: genes 16 Torsion [CA]-CB--CG-[OD1] |==|  0.30345
USER: genes 17 Torsion [N]-CA--C-[O] |==|  0.10407
ROOT
ATOM      1  CA  ALA B   3       7.909  -0.780  23.430  1.00 18.86 LIG 0.17  C 
ATOM      2  CB  ALA B   3       7.234   0.340  24.220  1.00 19.35 LIG 0.04  C 
ENDROOT
BRANCH 1 3
ATOM      3  N   ALA B   3       6.936  -1.828  23.154  1.00 16.29 LIG-0.35  N 
ATOM      4  C   ASP B   2       7.192  -2.853  22.354  1.00 15.20 LIG 0.24  C 
ATOM      5 O    ASP B   2       8.306  -3.039  21.837  1.00 18.35 LIG-0.27  OA
ATOM      6 H    ALA B   3       6.183  -1.719  23.557  1.00 16.29 LIG 0.16  HD
BRANCH 4 7
ATOM      7  CA  ASP B   2       6.021  -3.811  22.087  1.00 15.30 LIG 0.19  C 
BRANCH 7 8
ATOM      8  N   ASP B   2       6.189  -4.518  20.836  1.00 15.19 LIG-0.34  N 
ATOM      9  C   VAL B   1       5.665  -4.070  19.710  1.00 14.82 LIG 0.25  C 
ATOM     10 O    VAL B   1       4.956  -3.063  19.661  1.00 14.79 LIG-0.27  OA
ATOM     11 H    ASP B   2       6.651  -5.241  20.896  1.00 15.19 LIG 0.16  HD
BRANCH 9 12
ATOM     12  CA  VAL B   1       5.921  -4.914  18.466  1.00 14.89 LIG 0.28  C 
BRANCH 12 13
ATOM     13  CB  VAL B   1       7.350  -4.764  17.921  1.00 17.39 LIG 0.02  C 
ATOM     14  CG2 VAL B   1       7.991  -6.066  17.603  1.00 22.29 LIG 0.01  C 
ATOM     15  CG1 VAL B   1       8.237  -4.037  18.890  1.00 17.29 LIG 0.01  C 
ENDBRANCH 12 13
BRANCH 12 16
ATOM     16  N   VAL B   1       4.953  -4.509  17.437  1.00 15.02 LIG-0.07  N 
ATOM     17 H2   VAL B   1       4.594  -3.726  17.659  1.00 15.02 LIG 0.28  HD
ATOM     18 H3   VAL B   1       5.367  -4.434  16.653  1.00 15.02 LIG 0.28  HD
ATOM     19 H1   VAL B   1       4.311  -5.123  17.375  1.00 15.02 LIG 0.28  HD
ENDBRANCH 12 16
ENDBRANCH 9 12
ENDBRANCH 7 8
BRANCH 7 20
ATOM     20  CB  ASP B   2       5.807  -4.795  23.240  1.00 16.98 LIG 0.15  C 
BRANCH 20 21
ATOM     21  CG  ASP B   2       5.183  -4.153  24.458  1.00 17.41 LIG 0.17  C 
ATOM     22 OD1  ASP B   2       5.188  -4.808  25.541  1.00 15.73 LIG-0.65  OA
ATOM     23 OD2  ASP B   2       4.667  -3.002  24.331  1.00 22.30 LIG-0.65  OA
ENDBRANCH 20 21
ENDBRANCH 7 20
ENDBRANCH 4 7
ENDBRANCH 1 3
BRANCH 1 24
ATOM     24  C   ALA B   3       9.109  -1.333  24.199  1.00 21.51 LIG 0.24  C 
ATOM     25  N   VAL B   4      10.108  -0.483  24.416  1.00 22.67 LIG-0.35  N 
ATOM     26 H    VAL B   4      10.166   0.292  24.049  1.00 22.67 LIG 0.16  HD
ATOM     27 O    ALA B   3       9.125  -2.503  24.588  1.00 22.81 LIG-0.27  OA
BRANCH 25 28
ATOM     28  CA  VAL B   4      11.215  -0.810  25.319  1.00 26.45 LIG 0.18  C 
BRANCH 28 29
ATOM     29  CB  VAL B   4      12.445  -1.339  24.546  1.00 30.01 LIG 0.01  C 
ATOM     30  CG2 VAL B   4      13.368  -2.126  25.474  1.00 31.20 LIG 0.01  C 
ATOM     31  CG1 VAL B   4      13.202  -0.191  23.881  1.00 33.02 LIG 0.01  C 
ENDBRANCH 28 29
BRANCH 28 32
ATOM     32  C   VAL B   4      11.569   0.481  26.063  1.00 25.61 LIG 0.24  C 
ATOM     33  N   ASN B   5      11.282   1.626  25.451  1.00 29.33 LIG-0.35  N 
ATOM     34 H    ASN B   5      10.896   1.672  24.684  1.00 29.33 LIG 0.16  HD
ATOM     35 O    VAL B   4      12.125   0.426  27.160  1.00 29.65 LIG-0.27  OA
BRANCH 33 36
ATOM     36  CA  ASN B   5      11.602   2.938  26.043  1.00 34.74 LIG 0.17  C 
BRANCH 36 37
ATOM     37  CB  ASN B   5      10.859   3.092  27.367  1.00 42.44 LIG 0.14  C 
BRANCH 37 38
ATOM     38  CG  ASN B   5       9.483   3.703  27.183  1.00 45.23 LIG 0.22  C 
ATOM     39 OD1  ASN B   5       8.480   3.026  27.338  1.00 53.97 LIG-0.27  OA
ATOM     40  ND2 ASN B   5       9.433   4.977  26.806  1.00 50.63 LIG-0.37  N 
ATOM     41 21HD ASN B   5       8.674   5.354  26.662  1.00 50.63 LIG 0.16  HD
ATOM     42 22HD ASN B   5      10.161   5.425  26.707  1.00 50.63 LIG 0.16  HD
ENDBRANCH 37 38
ENDBRANCH 36 37
BRANCH 36 43
ATOM     43  C   ASN B   5      13.094   3.139  26.245  1.00 38.04 LIG 0.22  C 
ATOM     44 O    ASN B   5      13.888   2.709  25.414  1.00 41.05 LIG-0.29  OA
ENDBRANCH 36 43
ENDBRANCH 33 36
ENDBRANCH 28 32
ENDBRANCH 25 28
ENDBRANCH 1 24
TORSDOF 16
ENDMDL
MODEL 29
USER: ADFR SOLUTION from run 100
USER: SCORE 12.237924 LL:  -3.360 LR: -10.717 RR:   0.000 FEB:  -5.944
USER: RMSD 7.629007
USER: SEED 99
USER: STATUS no improvement in best in 9 clusters for 5 generations
USER: GENES 18
USER: genes 0 Translation |==|  0.43517 0.40511 0.32322
USER: genes 1 Rotation |==|  0.68520 0.60922 0.92865 0.64155
USER: genes 2 Torsion [CB]-CA--N-[C] |==|  0.85777
USER: genes 3 Torsion [N]-C--CA-[N] |==|  0.86141
USER: genes 4 Torsion [C]-CA--N-[C] |==|  0.68618
USER: genes 5 Torsion [N]-C--CA-[N] |==|  0.35837
USER: genes 6 Torsion [C]-CA--CB-[CG2] |==|  0.09894
USER: genes 7 Torsion [C]-CA--N-[H2] |==|  0.73059
USER: genes 8 Torsion [C]-CA--CB-[CG] |==|  0.50390
USER: genes 9 Torsion [CA]-CB--CG-[OD2] |==|  0.96301
USER: genes 10 Torsion [N]-CA--C-[N] |==|  0.82778
USER: genes 11 Torsion [C]-N--CA-[CB] |==|  0.22054
USER: genes 12 Torsion [N]-CA--CB-[CG2] |==|  0.45025
USER: genes 13 Torsion [N]-CA--C-[N] |==|  0.35393
USER: genes 14 Torsion [C]-N--CA-[CB] |==|  0.20798
USER: genes 15 Torsion [N]-CA--CB-[CG] |==|  0.13516
USER: genes 16 Torsion [CA]-CB--CG-[OD1] |==|  0.88103
USER: genes 17 Torsion [N]-CA--C-[O] |==|  0.04203
ROOT
ATOM      1  CA  ALA B   3       9.797  -1.980  22.344  1.00 18.86 LIG 0.17  C 
ATOM      2  CB  ALA B   3       8.427  -2.058  23.014  1.00 19.35 LIG 0.04  C 
ENDROOT
BRANCH 1 3
ATOM      3  N   ALA B   3       9.946  -3.098  21.422  1.00 16.29 LIG-0.35  N 
ATOM      4  C   ASP B   2       9.720  -4.355  21.776  1.00 15.20 LIG 0.24  C 
ATOM      5 O    ASP B   2       9.294  -4.670  22.899  1.00 18.35 LIG-0.27  OA
ATOM      6 H    ALA B   3      10.193  -2.866  20.631  1.00 16.29 LIG 0.16  HD
BRANCH 4 7
ATOM      7  CA  ASP B   2      10.027  -5.421  20.713  1.00 15.30 LIG 0.19  C 
BRANCH 7 8
ATOM      8  N   ASP B   2       9.418  -5.094  19.442  1.00 15.19 LIG-0.34  N 
ATOM      9  C   VAL B   1       8.441  -5.823  18.933  1.00 14.82 LIG 0.25  C 
ATOM     10 O    VAL B   1       8.030  -6.852  19.471  1.00 14.79 LIG-0.27  OA
ATOM     11 H    ASP B   2       9.745  -4.397  19.060  1.00 15.19 LIG 0.16  HD
BRANCH 9 12
ATOM     12  CA  VAL B   1       7.890  -5.364  17.587  1.00 14.89 LIG 0.28  C 
BRANCH 12 13
ATOM     13  CB  VAL B   1       6.472  -4.779  17.686  1.00 17.39 LIG 0.02  C 
ATOM     14  CG2 VAL B   1       6.244  -4.017  18.941  1.00 22.29 LIG 0.01  C 
ATOM     15  CG1 VAL B   1       5.425  -5.851  17.601  1.00 17.29 LIG 0.01  C 
ENDBRANCH 12 13
BRANCH 12 16
ATOM     16  N   VAL B   1       7.887  -6.520  16.681  1.00 15.02 LIG-0.07  N 
ATOM     17 H2   VAL B   1       8.618  -6.502  16.174  1.00 15.02 LIG 0.28  HD
ATOM     18 H3   VAL B   1       7.876  -7.271  17.158  1.00 15.02 LIG 0.28  HD
ATOM     19 H1   VAL B   1       7.165  -6.488  16.161  1.00 15.02 LIG 0.28  HD
ENDBRANCH 12 16
ENDBRANCH 9 12
ENDBRANCH 7 8
BRANCH 7 20
ATOM     20  CB  ASP B   2      11.531  -5.653  20.546  1.00 16.98 LIG 0.15  C 
BRANCH 20 21
ATOM     21  CG  ASP B   2      11.857  -6.675  19.480  1.00 17.41 LIG 0.17  C 
ATOM     22 OD1  ASP B   2      13.052  -6.741  19.069  1.00 15.73 LIG-0.65  OA
ATOM     23 OD2  ASP B   2      10.917  -7.400  19.037  1.00 22.30 LIG-0.65  OA
ENDBRANCH 20 21
ENDBRANCH 7 20
ENDBRANCH 4 7
ENDBRANCH 1 3
BRANCH 1 24
ATOM     24  C   ALA B   3      10.909  -1.979  23.392  1.00 21.51 LIG 0.24  C 
ATOM     25  N   VAL B   4      10.961  -3.038  24.193  1.00 22.67 LIG-0.35  N 
ATOM     26 H    VAL B   4      10.347  -3.639  24.234  1.00 22.67 LIG 0.16  HD
ATOM     27 O    ALA B   3      11.703  -1.038  23.469  1.00 22.81 LIG-0.27  OA
BRANCH 25 28
ATOM     28  CA  VAL B   4      12.096  -3.270  25.091  1.00 26.45 LIG 0.18  C 
BRANCH 28 29
ATOM     29  CB  VAL B   4      12.000  -2.404  26.368  1.00 30.01 LIG 0.01  C 
ATOM     30  CG2 VAL B   4      12.908  -2.956  27.464  1.00 31.20 LIG 0.01  C 
ATOM     31  CG1 VAL B   4      10.556  -2.317  26.857  1.00 33.02 LIG 0.01  C 
ENDBRANCH 28 29
BRANCH 28 32
ATOM     32  C   VAL B   4      12.069  -4.758  25.455  1.00 25.61 LIG 0.24  C 
ATOM     33  N   ASN B   5      13.192  -5.444  25.266  1.00 29.33 LIG-0.35  N 
ATOM     34 H    ASN B   5      13.921  -5.093  24.975  1.00 29.33 LIG 0.16  HD
ATOM     35 O    VAL B   4      11.029  -5.271  25.868  1.00 29.65 LIG-0.27  OA
BRANCH 33 36
ATOM     36  CA  ASN B   5      13.290  -6.889  25.543  1.00 34.74 LIG 0.17  C 
BRANCH 36 37
ATOM     37  CB  ASN B   5      12.575  -7.666  24.441  1.00 42.44 LIG 0.14  C 
BRANCH 37 38
ATOM     38  CG  ASN B   5      12.987  -7.204  23.056  1.00 45.23 LIG 0.22  C 
ATOM     39 OD1  ASN B   5      13.102  -6.015  22.810  1.00 53.97 LIG-0.27  OA
ATOM     40  ND2 ASN B   5      13.165  -8.145  22.134  1.00 50.63 LIG-0.37  N 
ATOM     41 21HD ASN B   5      13.369  -7.925  21.329  1.00 50.63 LIG 0.16  HD
ATOM     42 22HD ASN B   5      13.076  -8.975  22.344  1.00 50.63 LIG 0.16  HD
ENDBRANCH 37 38
ENDBRANCH 36 37
BRANCH 36 43
ATOM     43  C   ASN B   5      14.727  -7.361  25.679  1.00 38.04 LIG 0.22  C 
ATOM     44 O    ASN B   5      15.629  -6.543  25.835  1.00 41.05 LIG-0.29  OA
ENDBRANCH 36 43
ENDBRANCH 33 36
ENDBRANCH 28 32
ENDBRANCH 25 28
ENDBRANCH 1 24
TORSDOF 16
ENDMDL
MODEL 30
USER: ADFR SOLUTION from run 74
USER: SCORE 12.392326 LL:  -2.879 LR: -10.646 RR:   0.000 FEB:  -5.873
USER: RMSD 4.816383
USER: SEED 73
USER: STATUS no improvement in best in 6 clusters for 5 generations
USER: GENES 18
USER: genes 0 Translation |==|  0.43426 0.43016 0.33056
USER: genes 1 Rotation |==|  0.67538 0.58810 0.92511 0.67540
USER: genes 2 Torsion [CB]-CA--N-[C] |==|  0.85102
USER: genes 3 Torsion [N]-C--CA-[N] |==|  0.38070
USER: genes 4 Torsion [C]-CA--N-[C] |==|  0.75186
USER: genes 5 Torsion [N]-C--CA-[N] |==|  0.40376
USER: genes 6 Torsion [C]-CA--CB-[CG2] |==|  0.90304
USER: genes 7 Torsion [C]-CA--N-[H2] |==|  0.59328
USER: genes 8 Torsion [C]-CA--CB-[CG] |==|  0.14166
USER: genes 9 Torsion [CA]-CB--CG-[OD2] |==|  0.68974
USER: genes 10 Torsion [N]-CA--C-[N] |==|  0.37310
USER: genes 11 Torsion [C]-N--CA-[CB] |==|  0.19745
USER: genes 12 Torsion [N]-CA--CB-[CG2] |==|  0.69357
USER: genes 13 Torsion [N]-CA--C-[N] |==|  0.40791
USER: genes 14 Torsion [C]-N--CA-[CB] |==|  0.25616
USER: genes 15 Torsion [N]-CA--CB-[CG] |==|  0.56638
USER: genes 16 Torsion [CA]-CB--CG-[OD1] |==|  0.90352
USER: genes 17 Torsion [N]-CA--C-[O] |==|  0.12366
ROOT
ATOM      1  CA  ALA B   3       9.781  -1.529  22.498  1.00 18.86 LIG 0.17  C 
ATOM      2  CB  ALA B   3       8.363  -1.412  23.054  1.00 19.35 LIG 0.04  C 
ENDROOT
BRANCH 1 3
ATOM      3  N   ALA B   3       9.845  -2.655  21.576  1.00 16.29 LIG-0.35  N 
ATOM      4  C   ASP B   2       9.458  -3.878  21.908  1.00 15.20 LIG 0.24  C 
ATOM      5 O    ASP B   2       8.944  -4.144  23.007  1.00 18.35 LIG-0.27  OA
ATOM      6 H    ALA B   3      10.156  -2.451  20.800  1.00 16.29 LIG 0.16  HD
BRANCH 4 7
ATOM      7  CA  ASP B   2       9.692  -4.970  20.853  1.00 15.30 LIG 0.19  C 
BRANCH 7 8
ATOM      8  N   ASP B   2      10.209  -6.183  21.450  1.00 15.19 LIG-0.34  N 
ATOM      9  C   VAL B   1      11.506  -6.387  21.595  1.00 14.82 LIG 0.25  C 
ATOM     10 O    VAL B   1      12.354  -5.594  21.182  1.00 14.79 LIG-0.27  OA
ATOM     11 H    ASP B   2       9.604  -6.744  21.695  1.00 15.19 LIG 0.16  HD
BRANCH 9 12
ATOM     12  CA  VAL B   1      11.911  -7.708  22.241  1.00 14.89 LIG 0.28  C 
BRANCH 12 13
ATOM     13  CB  VAL B   1      12.097  -7.600  23.762  1.00 17.39 LIG 0.02  C 
ATOM     14  CG2 VAL B   1      12.656  -6.291  24.189  1.00 22.29 LIG 0.01  C 
ATOM     15  CG1 VAL B   1      12.999  -8.680  24.287  1.00 17.29 LIG 0.01  C 
ENDBRANCH 12 13
BRANCH 12 16
ATOM     16  N   VAL B   1      13.165  -8.150  21.618  1.00 15.02 LIG-0.07  N 
ATOM     17 H2   VAL B   1      13.179  -9.039  21.577  1.00 15.02 LIG 0.28  HD
ATOM     18 H3   VAL B   1      13.222  -7.815  20.795  1.00 15.02 LIG 0.28  HD
ATOM     19 H1   VAL B   1      13.855  -7.865  22.103  1.00 15.02 LIG 0.28  HD
ENDBRANCH 12 16
ENDBRANCH 9 12
ENDBRANCH 7 8
BRANCH 7 20
ATOM     20  CB  ASP B   2       8.430  -5.265  20.039  1.00 16.98 LIG 0.15  C 
BRANCH 20 21
ATOM     21  CG  ASP B   2       7.791  -4.019  19.466  1.00 17.41 LIG 0.17  C 
ATOM     22 OD1  ASP B   2       8.424  -3.389  18.570  1.00 15.73 LIG-0.65  OA
ATOM     23 OD2  ASP B   2       6.666  -3.657  19.924  1.00 22.30 LIG-0.65  OA
ENDBRANCH 20 21
ENDBRANCH 7 20
ENDBRANCH 4 7
ENDBRANCH 1 3
BRANCH 1 24
ATOM     24  C   ALA B   3      10.792  -1.689  23.633  1.00 21.51 LIG 0.24  C 
ATOM     25  N   VAL B   4      11.514  -0.614  23.932  1.00 22.67 LIG-0.35  N 
ATOM     26 H    VAL B   4      11.530   0.100  23.453  1.00 22.67 LIG 0.16  HD
ATOM     27 O    ALA B   3      10.911  -2.765  24.224  1.00 22.81 LIG-0.27  OA
BRANCH 25 28
ATOM     28  CA  VAL B   4      12.357  -0.560  25.129  1.00 26.45 LIG 0.18  C 
BRANCH 28 29
ATOM     29  CB  VAL B   4      13.597  -1.474  24.994  1.00 30.01 LIG 0.01  C 
ATOM     30  CG2 VAL B   4      13.487  -2.673  25.933  1.00 31.20 LIG 0.01  C 
ATOM     31  CG1 VAL B   4      14.880  -0.691  25.268  1.00 33.02 LIG 0.01  C 
ENDBRANCH 28 29
BRANCH 28 32
ATOM     32  C   VAL B   4      12.788   0.900  25.296  1.00 25.61 LIG 0.24  C 
ATOM     33  N   ASN B   5      12.946   1.343  26.540  1.00 29.33 LIG-0.35  N 
ATOM     34 H    ASN B   5      12.840   0.850  27.237  1.00 29.33 LIG 0.16  HD
ATOM     35 O    VAL B   4      12.938   1.614  24.304  1.00 29.65 LIG-0.27  OA
BRANCH 33 36
ATOM     36  CA  ASN B   5      13.324   2.736  26.839  1.00 34.74 LIG 0.17  C 
BRANCH 36 37
ATOM     37  CB  ASN B   5      12.063   3.571  27.043  1.00 42.44 LIG 0.14  C 
BRANCH 37 38
ATOM     38  CG  ASN B   5      12.305   5.045  26.779  1.00 45.23 LIG 0.22  C 
ATOM     39 OD1  ASN B   5      13.376   5.556  27.062  1.00 53.97 LIG-0.27  OA
ATOM     40  ND2 ASN B   5      11.290   5.743  26.278  1.00 50.63 LIG-0.37  N 
ATOM     41 21HD ASN B   5      11.375   6.587  26.142  1.00 50.63 LIG 0.16  HD
ATOM     42 22HD ASN B   5      10.549   5.349  26.090  1.00 50.63 LIG 0.16  HD
ENDBRANCH 37 38
ENDBRANCH 36 37
BRANCH 36 43
ATOM     43  C   ASN B   5      14.235   2.846  28.050  1.00 38.04 LIG 0.22  C 
ATOM     44 O    ASN B   5      15.177   2.071  28.180  1.00 41.05 LIG-0.29  OA
ENDBRANCH 36 43
ENDBRANCH 33 36
ENDBRANCH 28 32
ENDBRANCH 25 28
ENDBRANCH 1 24
TORSDOF 16
ENDMDL
MODEL 31
USER: ADFR SOLUTION from run 194
USER: SCORE 11.473346 LL:  -3.042 LR: -10.647 RR:   0.000 FEB:  -5.874
USER: RMSD 6.674065
USER: SEED 193
USER: STATUS no improvement in best in 19 clusters for 5 generations
USER: GENES 18
USER: genes 0 Translation |==|  0.43082 0.31352 0.34574
USER: genes 1 Rotation |==|  0.18021 0.43266 0.51762 0.87801
USER: genes 2 Torsion [CB]-CA--N-[C] |==|  0.82162
USER: genes 3 Torsion [N]-C--CA-[N] |==|  0.47770
USER: genes 4 Torsion [C]-CA--N-[C] |==|  0.77992
USER: genes 5 Torsion [N]-C--CA-[N] |==|  0.05685
USER: genes 6 Torsion [C]-CA--CB-[CG2] |==|  0.19016
USER: genes 7 Torsion [C]-CA--N-[H2] |==|  0.97937
USER: genes 8 Torsion [C]-CA--CB-[CG] |==|  0.84300
USER: genes 9 Torsion [CA]-CB--CG-[OD2] |==|  0.86450
USER: genes 10 Torsion [N]-CA--C-[N] |==|  0.19507
USER: genes 11 Torsion [C]-N--CA-[CB] |==|  0.39319
USER: genes 12 Torsion [N]-CA--CB-[CG2] |==|  0.46448
USER: genes 13 Torsion [N]-CA--C-[N] |==|  0.35156
USER: genes 14 Torsion [C]-N--CA-[CB] |==|  0.46514
USER: genes 15 Torsion [N]-CA--CB-[CG] |==|  0.38060
USER: genes 16 Torsion [CA]-CB--CG-[OD1] |==|  0.21490
USER: genes 17 Torsion [N]-CA--C-[O] |==|  0.90982
ROOT
ATOM      1  CA  ALA B   3       9.722  -3.629  22.817  1.00 18.86 LIG 0.17  C 
ATOM      2  CB  ALA B   3      11.010  -3.831  22.022  1.00 19.35 LIG 0.04  C 
ENDROOT
BRANCH 1 3
ATOM      3  N   ALA B   3       8.684  -4.497  22.280  1.00 16.29 LIG-0.35  N 
ATOM      4  C   ASP B   2       8.206  -4.370  21.050  1.00 15.20 LIG 0.24  C 
ATOM      5 O    ASP B   2       8.658  -3.548  20.236  1.00 18.35 LIG-0.27  OA
ATOM      6 H    ALA B   3       8.411  -5.097  22.833  1.00 16.29 LIG 0.16  HD
BRANCH 4 7
ATOM      7  CA  ASP B   2       7.040  -5.299  20.678  1.00 15.30 LIG 0.19  C 
BRANCH 7 8
ATOM      8  N   ASP B   2       6.476  -4.953  19.392  1.00 15.19 LIG-0.34  N 
ATOM      9  C   VAL B   1       5.637  -3.943  19.250  1.00 14.82 LIG 0.25  C 
ATOM     10 O    VAL B   1       5.238  -3.272  20.203  1.00 14.79 LIG-0.27  OA
ATOM     11 H    ASP B   2       6.732  -5.458  18.744  1.00 15.19 LIG 0.16  HD
BRANCH 9 12
ATOM     12  CA  VAL B   1       5.120  -3.690  17.838  1.00 14.89 LIG 0.28  C 
BRANCH 12 13
ATOM     13  CB  VAL B   1       3.644  -3.266  17.806  1.00 17.39 LIG 0.02  C 
ATOM     14  CG2 VAL B   1       3.414  -1.917  18.385  1.00 22.29 LIG 0.01  C 
ATOM     15  CG1 VAL B   1       2.772  -4.239  18.545  1.00 17.29 LIG 0.01  C 
ENDBRANCH 12 13
BRANCH 12 16
ATOM     16  N   VAL B   1       5.298  -4.925  17.063  1.00 15.02 LIG-0.07  N 
ATOM     17 H2   VAL B   1       5.762  -5.513  17.544  1.00 15.02 LIG 0.28  HD
ATOM     18 H3   VAL B   1       4.501  -5.268  16.864  1.00 15.02 LIG 0.28  HD
ATOM     19 H1   VAL B   1       5.739  -4.744  16.311  1.00 15.02 LIG 0.28  HD
ENDBRANCH 12 16
ENDBRANCH 9 12
ENDBRANCH 7 8
BRANCH 7 20
ATOM     20  CB  ASP B   2       7.446  -6.774  20.711  1.00 16.98 LIG 0.15  C 
BRANCH 20 21
ATOM     21  CG  ASP B   2       8.622  -7.085  19.814  1.00 17.41 LIG 0.17  C 
ATOM     22 OD1  ASP B   2       9.587  -7.738  20.307  1.00 15.73 LIG-0.65  OA
ATOM     23 OD2  ASP B   2       8.594  -6.660  18.619  1.00 22.30 LIG-0.65  OA
ENDBRANCH 20 21
ENDBRANCH 7 20
ENDBRANCH 4 7
ENDBRANCH 1 3
BRANCH 1 24
ATOM     24  C   ALA B   3       9.289  -2.163  22.775  1.00 21.51 LIG 0.24  C 
ATOM     25  N   VAL B   4       8.326  -1.811  23.620  1.00 22.67 LIG-0.35  N 
ATOM     26 H    VAL B   4       7.863  -2.372  24.080  1.00 22.67 LIG 0.16  HD
ATOM     27 O    ALA B   3       9.821  -1.370  21.994  1.00 22.81 LIG-0.27  OA
BRANCH 25 28
ATOM     28  CA  VAL B   4       7.967  -0.407  23.840  1.00 26.45 LIG 0.18  C 
BRANCH 28 29
ATOM     29  CB  VAL B   4       6.441  -0.227  24.001  1.00 30.01 LIG 0.01  C 
ATOM     30  CG2 VAL B   4       6.117   1.166  24.537  1.00 31.20 LIG 0.01  C 
ATOM     31  CG1 VAL B   4       5.861  -1.304  24.916  1.00 33.02 LIG 0.01  C 
ENDBRANCH 28 29
BRANCH 28 32
ATOM     32  C   VAL B   4       8.693   0.035  25.114  1.00 25.61 LIG 0.24  C 
ATOM     33  N   ASN B   5       9.447   1.127  25.029  1.00 29.33 LIG-0.35  N 
ATOM     34 H    ASN B   5       9.527   1.596  24.312  1.00 29.33 LIG 0.16  HD
ATOM     35 O    VAL B   4       8.590  -0.631  26.144  1.00 29.65 LIG-0.27  OA
BRANCH 33 36
ATOM     36  CA  ASN B   5      10.225   1.640  26.172  1.00 34.74 LIG 0.17  C 
BRANCH 36 37
ATOM     37  CB  ASN B   5      11.210   2.697  25.681  1.00 42.44 LIG 0.14  C 
BRANCH 37 38
ATOM     38  CG  ASN B   5      11.262   3.902  26.601  1.00 45.23 LIG 0.22  C 
ATOM     39 OD1  ASN B   5      11.875   3.849  27.655  1.00 53.97 LIG-0.27  OA
ATOM     40  ND2 ASN B   5      10.578   4.978  26.225  1.00 50.63 LIG-0.37  N 
ATOM     41 21HD ASN B   5      10.556   5.672  26.732  1.00 50.63 LIG 0.16  HD
ATOM     42 22HD ASN B   5      10.158   4.980  25.475  1.00 50.63 LIG 0.16  HD
ENDBRANCH 37 38
ENDBRANCH 36 37
BRANCH 36 43
ATOM     43  C   ASN B   5       9.343   2.206  27.271  1.00 38.04 LIG 0.22  C 
ATOM     44 O    ASN B   5       8.280   2.749  26.985  1.00 41.05 LIG-0.29  OA
ENDBRANCH 36 43
ENDBRANCH 33 36
ENDBRANCH 28 32
ENDBRANCH 25 28
ENDBRANCH 1 24
TORSDOF 16
ENDMDL
MODEL 32
USER: ADFR SOLUTION from run 49
USER: SCORE 12.181318 LL:  -2.981 LR: -10.630 RR:   0.000 FEB:  -5.858
USER: RMSD 8.929744
USER: SEED 48
USER: STATUS no improvement in best in 5 clusters for 5 generations
USER: GENES 18
USER: genes 0 Translation |==|  0.64088 0.56066 0.42908
USER: genes 1 Rotation |==|  0.84076 0.44878 0.26531 0.77600
USER: genes 2 Torsion [CB]-CA--N-[C] |==|  0.87494
USER: genes 3 Torsion [N]-C--CA-[N] |==|  0.20999
USER: genes 4 Torsion [C]-CA--N-[C] |==|  0.76088
USER: genes 5 Torsion [N]-C--CA-[N] |==|  0.42275
USER: genes 6 Torsion [C]-CA--CB-[CG2] |==|  0.96103
USER: genes 7 Torsion [C]-CA--N-[H2] |==|  0.82025
USER: genes 8 Torsion [C]-CA--CB-[CG] |==|  0.40394
USER: genes 9 Torsion [CA]-CB--CG-[OD2] |==|  0.43195
USER: genes 10 Torsion [N]-CA--C-[N] |==|  0.35676
USER: genes 11 Torsion [C]-N--CA-[CB] |==|  0.22706
USER: genes 12 Torsion [N]-CA--CB-[CG2] |==|  0.49129
USER: genes 13 Torsion [N]-CA--C-[N] |==|  0.36372
USER: genes 14 Torsion [C]-N--CA-[CB] |==|  0.49546
USER: genes 15 Torsion [N]-CA--CB-[CG] |==|  0.72111
USER: genes 16 Torsion [CA]-CB--CG-[OD1] |==|  0.85574
USER: genes 17 Torsion [N]-CA--C-[O] |==|  0.95615
ROOT
ATOM      1  CA  ALA B   3      13.345   0.820  24.567  1.00 18.86 LIG 0.17  C 
ATOM      2  CB  ALA B   3      14.732   0.201  24.731  1.00 19.35 LIG 0.04  C 
ENDROOT
BRANCH 1 3
ATOM      3  N   ALA B   3      13.240   1.999  25.416  1.00 16.29 LIG-0.35  N 
ATOM      4  C   ASP B   2      13.656   2.016  26.674  1.00 15.20 LIG 0.24  C 
ATOM      5 O    ASP B   2      14.234   1.053  27.204  1.00 18.35 LIG-0.27  OA
ATOM      6 H    ALA B   3      12.884   2.678  25.026  1.00 16.29 LIG 0.16  HD
BRANCH 4 7
ATOM      7  CA  ASP B   2      13.375   3.305  27.460  1.00 15.30 LIG 0.19  C 
BRANCH 7 8
ATOM      8  N   ASP B   2      11.984   3.397  27.848  1.00 15.19 LIG-0.34  N 
ATOM      9  C   VAL B   1      11.071   3.908  27.042  1.00 14.82 LIG 0.25  C 
ATOM     10 O    VAL B   1      11.349   4.390  25.942  1.00 14.79 LIG-0.27  OA
ATOM     11 H    ASP B   2      11.814   3.095  28.635  1.00 15.19 LIG 0.16  HD
BRANCH 9 12
ATOM     12  CA  VAL B   1       9.643   3.942  27.578  1.00 14.89 LIG 0.28  C 
BRANCH 12 13
ATOM     13  CB  VAL B   1       8.874   2.637  27.323  1.00 17.39 LIG 0.02  C 
ATOM     14  CG2 VAL B   1       9.544   1.751  26.336  1.00 22.29 LIG 0.01  C 
ATOM     15  CG1 VAL B   1       7.481   2.903  26.832  1.00 17.29 LIG 0.01  C 
ENDBRANCH 12 13
BRANCH 12 16
ATOM     16  N   VAL B   1       8.945   5.063  26.934  1.00 15.02 LIG-0.07  N 
ATOM     17 H2   VAL B   1       9.323   5.829  27.181  1.00 15.02 LIG 0.28  HD
ATOM     18 H3   VAL B   1       8.999   4.978  26.049  1.00 15.02 LIG 0.28  HD
ATOM     19 H1   VAL B   1       8.089   5.061  27.180  1.00 15.02 LIG 0.28  HD
ENDBRANCH 12 16
ENDBRANCH 9 12
ENDBRANCH 7 8
BRANCH 7 20
ATOM     20  CB  ASP B   2      14.286   3.446  28.682  1.00 16.98 LIG 0.15  C 
BRANCH 20 21
ATOM     21  CG  ASP B   2      14.665   4.881  28.975  1.00 17.41 LIG 0.17  C 
ATOM     22 OD1  ASP B   2      14.656   5.704  28.014  1.00 15.73 LIG-0.65  OA
ATOM     23 OD2  ASP B   2      14.992   5.184  30.162  1.00 22.30 LIG-0.65  OA
ENDBRANCH 20 21
ENDBRANCH 7 20
ENDBRANCH 4 7
ENDBRANCH 1 3
BRANCH 1 24
ATOM     24  C   ALA B   3      12.258  -0.200  24.904  1.00 21.51 LIG 0.24  C 
ATOM     25  N   VAL B   4      11.533  -0.645  23.883  1.00 22.67 LIG-0.35  N 
ATOM     26 H    VAL B   4      11.558  -0.305  23.094  1.00 22.67 LIG 0.16  HD
ATOM     27 O    ALA B   3      12.085  -0.576  26.066  1.00 22.81 LIG-0.27  OA
BRANCH 25 28
ATOM     28  CA  VAL B   4      10.612  -1.775  24.026  1.00 26.45 LIG 0.18  C 
BRANCH 28 29
ATOM     29  CB  VAL B   4       9.259  -1.336  24.633  1.00 30.01 LIG 0.01  C 
ATOM     30  CG2 VAL B   4       8.291  -2.515  24.701  1.00 31.20 LIG 0.01  C 
ATOM     31  CG1 VAL B   4       8.653  -0.186  23.832  1.00 33.02 LIG 0.01  C 
ENDBRANCH 28 29
BRANCH 28 32
ATOM     32  C   VAL B   4      10.403  -2.351  22.622  1.00 25.61 LIG 0.24  C 
ATOM     33  N   ASN B   5      10.538  -3.666  22.484  1.00 29.33 LIG-0.35  N 
ATOM     34 H    ASN B   5      10.713  -4.197  23.137  1.00 29.33 LIG 0.16  HD
ATOM     35 O    VAL B   4      10.157  -1.598  21.680  1.00 29.65 LIG-0.27  OA
BRANCH 33 36
ATOM     36  CA  ASN B   5      10.398  -4.341  21.181  1.00 34.74 LIG 0.17  C 
BRANCH 36 37
ATOM     37  CB  ASN B   5      10.649  -5.836  21.355  1.00 42.44 LIG 0.14  C 
BRANCH 37 38
ATOM     38  CG  ASN B   5      12.049  -6.234  20.924  1.00 45.23 LIG 0.22  C 
ATOM     39 OD1  ASN B   5      12.471  -5.915  19.825  1.00 53.97 LIG-0.27  OA
ATOM     40  ND2 ASN B   5      12.754  -6.974  21.774  1.00 50.63 LIG-0.37  N 
ATOM     41 21HD ASN B   5      13.540  -7.246  21.557  1.00 50.63 LIG 0.16  HD
ATOM     42 22HD ASN B   5      12.424  -7.179  22.542  1.00 50.63 LIG 0.16  HD
ENDBRANCH 37 38
ENDBRANCH 36 37
BRANCH 36 43
ATOM     43  C   ASN B   5       9.039  -4.102  20.544  1.00 38.04 LIG 0.22  C 
ATOM     44 O    ASN B   5       8.113  -3.666  21.220  1.00 41.05 LIG-0.29  OA
ENDBRANCH 36 43
ENDBRANCH 33 36
ENDBRANCH 28 32
ENDBRANCH 25 28
ENDBRANCH 1 24
TORSDOF 16
ENDMDL
