MODEL 1
USER: ADFR SOLUTION from run 112
USER: SCORE 8.495938 LL:  -1.341 LR:  -9.167 RR:   0.000 FEB:  -6.482
USER: RMSD 8.667041
USER: SEED 111
USER: STATUS no improvement in best in 27 clusters for 5 generations
USER: GENES 11
USER: genes 0 Translation |==|  0.75543 0.86696 0.32796
USER: genes 1 Rotation |==|  0.62523 0.19368 0.85739 0.61296
USER: genes 2 Torsion [N]-CA--C-[N] |==|  0.97217
USER: genes 3 Torsion [C]-N--CA-[C] |==|  0.38802
USER: genes 4 Torsion [N]-CA--C-[N] |==|  0.49958
USER: genes 5 Torsion [C]-N--CA-[C] |==|  0.82711
USER: genes 6 Torsion [N]-CA--C-[O] |==|  0.45286
USER: genes 7 Torsion [CB]-CA--N-[C] |==|  0.47695
USER: genes 8 Torsion [N]-C--CA-[N] |==|  0.97408
USER: genes 9 Torsion [C]-CA--N-[C] |==|  0.76917
USER: genes 10 Torsion [N]-C--CA-[N] |==|  0.00422
ROOT
ATOM      1  CA  ALA F 463      39.849 -21.147  22.148  1.00 80.84 LIG 0.17  C 
ATOM      2  CB  ALA F 463      39.376 -20.429  20.893  1.00 75.28 LIG 0.04  C 
ENDROOT
BRANCH 1 3
ATOM      3  C   ALA F 463      38.712 -21.273  23.155  1.00 84.46 LIG 0.24  C 
ATOM      4 O    ALA F 463      38.249 -20.277  23.711  1.00 85.06 LIG-0.27  OA
ATOM      5  N   GLY F 464      38.267 -22.503  23.389  1.00 87.45 LIG-0.35  N 
ATOM      6 H    GLY F 464      38.542 -23.200  22.967  1.00 87.45 LIG 0.16  HD
BRANCH 5 7
ATOM      7  CA  GLY F 464      37.258 -22.773  24.397  1.00 89.28 LIG 0.23  C 
BRANCH 7 8
ATOM      8  C   GLY F 464      36.211 -23.799  23.999  1.00 90.16 LIG 0.23  C 
ATOM      9 O    GLY F 464      36.256 -24.333  22.890  1.00 90.52 LIG-0.27  OA
ATOM     10  N   ALA F 465      35.270 -24.076  24.900  1.00 88.18 LIG-0.35  N 
ATOM     11 H    ALA F 465      35.216 -23.693  25.668  1.00 88.18 LIG 0.16  HD
BRANCH 10 12
ATOM     12  CA  ALA F 465      34.231 -25.073  24.652  1.00 85.90 LIG 0.16  C 
ATOM     13  CB  ALA F 465      33.377 -25.266  25.897  1.00 84.54 LIG 0.04  C 
BRANCH 12 14
ATOM     14  C   ALA F 465      33.352 -24.687  23.464  1.00 85.67 LIG 0.22  C 
ATOM     15 O    ALA F 465      32.635 -25.525  22.911  1.00 84.89 LIG-0.29  OA
ENDBRANCH 12 14
ENDBRANCH 10 12
ENDBRANCH 7 8
ENDBRANCH 5 7
ENDBRANCH 1 3
BRANCH 1 16
ATOM     16  N   ALA F 463      40.375 -22.466  21.817  1.00 83.00 LIG-0.35  N 
ATOM     17  C   GLY F 462      40.997 -23.220  22.722  1.00 85.58 LIG 0.24  C 
ATOM     18 O    GLY F 462      41.185 -22.859  23.884  1.00 87.56 LIG-0.27  OA
ATOM     19 H    ALA F 463      40.248 -22.704  21.001  1.00 83.00 LIG 0.16  HD
BRANCH 17 20
ATOM     20  CA  GLY F 462      41.481 -24.575  22.249  1.00 87.31 LIG 0.23  C 
BRANCH 20 21
ATOM     21  N   GLY F 462      40.987 -24.907  20.926  1.00 88.73 LIG-0.35  N 
ATOM     22  C   ALA F 461      39.782 -25.432  20.735  1.00 88.98 LIG 0.26  C 
ATOM     23 O    ALA F 461      39.002 -25.676  21.655  1.00 91.33 LIG-0.27  OA
ATOM     24 H    GLY F 462      41.539 -24.735  20.289  1.00 88.73 LIG 0.16  HD
BRANCH 22 25
ATOM     25  CA  ALA F 461      39.404 -25.729  19.289  1.00 85.90 LIG 0.40  C 
ATOM     26  CB  ALA F 461      39.010 -27.189  19.127  1.00 82.87 LIG 0.06  C 
ATOM     27  N   ALA F 461      40.501 -25.393  18.388  1.00 83.73 LIG 0.61  N 
ENDBRANCH 22 25
ENDBRANCH 20 21
ENDBRANCH 17 20
ENDBRANCH 1 16
TORSDOF 9
ENDMDL
MODEL 2
USER: ADFR SOLUTION from run 20
USER: SCORE 8.508471 LL:  -1.495 LR:  -8.739 RR:   0.000 FEB:  -6.054
USER: RMSD 8.647021
USER: SEED 19
USER: STATUS no improvement in best in 14 clusters for 5 generations
USER: GENES 11
USER: genes 0 Translation |==|  0.74686 0.44643 0.18780
USER: genes 1 Rotation |==|  0.46229 0.57756 0.86971 0.82539
USER: genes 2 Torsion [N]-CA--C-[N] |==|  0.94652
USER: genes 3 Torsion [C]-N--CA-[C] |==|  0.53850
USER: genes 4 Torsion [N]-CA--C-[N] |==|  0.34692
USER: genes 5 Torsion [C]-N--CA-[C] |==|  0.60105
USER: genes 6 Torsion [N]-CA--C-[O] |==|  0.09523
USER: genes 7 Torsion [CB]-CA--N-[C] |==|  0.21863
USER: genes 8 Torsion [N]-C--CA-[N] |==|  0.87811
USER: genes 9 Torsion [C]-CA--N-[C] |==|  0.86667
USER: genes 10 Torsion [N]-C--CA-[N] |==|  0.61092
ROOT
ATOM      1  CA  ALA F 463      39.694 -27.455  19.415  1.00 80.84 LIG 0.17  C 
ATOM      2  CB  ALA F 463      38.540 -28.266  18.847  1.00 75.28 LIG 0.04  C 
ENDROOT
BRANCH 1 3
ATOM      3  C   ALA F 463      39.527 -25.977  19.084  1.00 84.46 LIG 0.24  C 
ATOM      4 O    ALA F 463      39.778 -25.551  17.956  1.00 85.06 LIG-0.27  OA
ATOM      5  N   GLY F 464      39.104 -25.197  20.072  1.00 87.45 LIG-0.35  N 
ATOM      6 H    GLY F 464      38.872 -25.488  20.848  1.00 87.45 LIG 0.16  HD
BRANCH 5 7
ATOM      7  CA  GLY F 464      38.998 -23.757  19.919  1.00 89.28 LIG 0.23  C 
BRANCH 7 8
ATOM      8  C   GLY F 464      38.822 -22.984  21.215  1.00 90.16 LIG 0.23  C 
ATOM      9 O    GLY F 464      37.900 -23.262  21.983  1.00 90.52 LIG-0.27  OA
ATOM     10  N   ALA F 465      39.703 -22.016  21.461  1.00 88.18 LIG-0.35  N 
ATOM     11 H    ALA F 465      40.337 -21.799  20.922  1.00 88.18 LIG 0.16  HD
BRANCH 10 12
ATOM     12  CA  ALA F 465      39.664 -21.228  22.690  1.00 85.90 LIG 0.16  C 
ATOM     13  CB  ALA F 465      40.581 -21.840  23.740  1.00 84.54 LIG 0.04  C 
BRANCH 12 14
ATOM     14  C   ALA F 465      40.051 -19.771  22.438  1.00 85.67 LIG 0.22  C 
ATOM     15 O    ALA F 465      39.751 -19.213  21.379  1.00 84.89 LIG-0.29  OA
ENDBRANCH 12 14
ENDBRANCH 10 12
ENDBRANCH 7 8
ENDBRANCH 5 7
ENDBRANCH 1 3
BRANCH 1 16
ATOM     16  N   ALA F 463      39.790 -27.638  20.859  1.00 83.00 LIG-0.35  N 
ATOM     17  C   GLY F 462      40.342 -28.725  21.393  1.00 85.58 LIG 0.24  C 
ATOM     18 O    GLY F 462      40.795 -29.650  20.719  1.00 87.56 LIG-0.27  OA
ATOM     19 H    ALA F 463      39.461 -26.991  21.321  1.00 83.00 LIG 0.16  HD
BRANCH 17 20
ATOM     20  CA  GLY F 462      40.389 -28.780  22.906  1.00 87.31 LIG 0.23  C 
BRANCH 20 21
ATOM     21  N   GLY F 462      40.804 -27.520  23.493  1.00 88.73 LIG-0.35  N 
ATOM     22  C   ALA F 461      41.868 -26.856  23.055  1.00 88.98 LIG 0.26  C 
ATOM     23 O    ALA F 461      42.577 -27.255  22.132  1.00 91.33 LIG-0.27  OA
ATOM     24 H    GLY F 462      40.305 -27.249  24.138  1.00 88.73 LIG 0.16  HD
BRANCH 22 25
ATOM     25  CA  ALA F 461      42.180 -25.547  23.772  1.00 85.90 LIG 0.40  C 
ATOM     26  CB  ALA F 461      40.971 -25.066  24.559  1.00 82.87 LIG 0.06  C 
ATOM     27  N   ALA F 461      42.609 -24.526  22.822  1.00 83.73 LIG 0.61  N 
ENDBRANCH 22 25
ENDBRANCH 20 21
ENDBRANCH 17 20
ENDBRANCH 1 16
TORSDOF 9
ENDMDL
MODEL 3
USER: ADFR SOLUTION from run 20
USER: SCORE 8.436515 LL:  -1.201 LR:  -8.573 RR:   0.000 FEB:  -5.888
USER: RMSD 9.523315
USER: SEED 19
USER: STATUS no improvement in best in 14 clusters for 5 generations
USER: GENES 11
USER: genes 0 Translation |==|  0.77919 0.32500 0.31148
USER: genes 1 Rotation |==|  0.34277 0.17094 0.27088 0.75397
USER: genes 2 Torsion [N]-CA--C-[N] |==|  0.46150
USER: genes 3 Torsion [C]-N--CA-[C] |==|  0.29441
USER: genes 4 Torsion [N]-CA--C-[N] |==|  0.01533
USER: genes 5 Torsion [C]-N--CA-[C] |==|  0.13580
USER: genes 6 Torsion [N]-CA--C-[O] |==|  0.59368
USER: genes 7 Torsion [CB]-CA--N-[C] |==|  0.25899
USER: genes 8 Torsion [N]-C--CA-[N] |==|  0.05552
USER: genes 9 Torsion [C]-CA--N-[C] |==|  0.73377
USER: genes 10 Torsion [N]-C--CA-[N] |==|  0.00610
ROOT
ATOM      1  CA  ALA F 463      40.276 -29.276  21.827  1.00 80.84 LIG 0.17  C 
ATOM      2  CB  ALA F 463      41.751 -29.649  21.809  1.00 75.28 LIG 0.04  C 
ENDROOT
BRANCH 1 3
ATOM      3  C   ALA F 463      39.754 -29.222  23.257  1.00 84.46 LIG 0.24  C 
ATOM      4 O    ALA F 463      39.479 -28.145  23.787  1.00 85.06 LIG-0.27  OA
ATOM      5  N   GLY F 464      39.622 -30.388  23.880  1.00 87.45 LIG-0.35  N 
ATOM      6 H    GLY F 464      39.757 -31.150  23.504  1.00 87.45 LIG 0.16  HD
BRANCH 5 7
ATOM      7  CA  GLY F 464      39.231 -30.471  25.275  1.00 89.28 LIG 0.23  C 
BRANCH 7 8
ATOM      8  C   GLY F 464      37.805 -30.934  25.516  1.00 90.16 LIG 0.23  C 
ATOM      9 O    GLY F 464      37.339 -30.942  26.656  1.00 90.52 LIG-0.27  OA
ATOM     10  N   ALA F 465      37.110 -31.320  24.447  1.00 88.18 LIG-0.35  N 
ATOM     11 H    ALA F 465      37.431 -31.339  23.650  1.00 88.18 LIG 0.16  HD
BRANCH 10 12
ATOM     12  CA  ALA F 465      35.717 -31.749  24.543  1.00 85.90 LIG 0.16  C 
ATOM     13  CB  ALA F 465      35.633 -33.136  25.165  1.00 84.54 LIG 0.04  C 
BRANCH 12 14
ATOM     14  C   ALA F 465      34.876 -30.759  25.347  1.00 85.67 LIG 0.22  C 
ATOM     15 O    ALA F 465      33.942 -31.151  26.051  1.00 84.89 LIG-0.29  OA
ENDBRANCH 12 14
ENDBRANCH 10 12
ENDBRANCH 7 8
ENDBRANCH 5 7
ENDBRANCH 1 3
BRANCH 1 16
ATOM     16  N   ALA F 463      40.063 -27.993  21.165  1.00 83.00 LIG-0.35  N 
ATOM     17  C   GLY F 462      39.751 -27.914  19.874  1.00 85.58 LIG 0.24  C 
ATOM     18 O    GLY F 462      39.635 -28.902  19.147  1.00 87.56 LIG-0.27  OA
ATOM     19 H    ALA F 463      40.156 -27.310  21.679  1.00 83.00 LIG 0.16  HD
BRANCH 17 20
ATOM     20  CA  GLY F 462      39.542 -26.521  19.317  1.00 87.31 LIG 0.23  C 
BRANCH 20 21
ATOM     21  N   GLY F 462      40.155 -25.498  20.144  1.00 88.73 LIG-0.35  N 
ATOM     22  C   ALA F 461      39.467 -24.828  21.061  1.00 88.98 LIG 0.26  C 
ATOM     23 O    ALA F 461      38.270 -25.018  21.276  1.00 91.33 LIG-0.27  OA
ATOM     24 H    GLY F 462      40.991 -25.371  19.986  1.00 88.73 LIG 0.16  HD
BRANCH 22 25
ATOM     25  CA  ALA F 461      40.247 -23.783  21.850  1.00 85.90 LIG 0.40  C 
ATOM     26  CB  ALA F 461      39.571 -22.424  21.753  1.00 82.87 LIG 0.06  C 
ATOM     27  N   ALA F 461      41.626 -23.702  21.379  1.00 83.73 LIG 0.61  N 
ENDBRANCH 22 25
ENDBRANCH 20 21
ENDBRANCH 17 20
ENDBRANCH 1 16
TORSDOF 9
ENDMDL
MODEL 4
USER: ADFR SOLUTION from run 150
USER: SCORE 9.580727 LL:  -1.536 LR:  -8.565 RR:   0.000 FEB:  -5.881
USER: RMSD 8.648158
USER: SEED 149
USER: STATUS no improvement in best in 12 clusters for 5 generations
USER: GENES 11
USER: genes 0 Translation |==|  0.75758 0.60790 0.20737
USER: genes 1 Rotation |==|  0.62176 0.48708 0.97205 0.61035
USER: genes 2 Torsion [N]-CA--C-[N] |==|  0.90910
USER: genes 3 Torsion [C]-N--CA-[C] |==|  0.83574
USER: genes 4 Torsion [N]-CA--C-[N] |==|  0.98793
USER: genes 5 Torsion [C]-N--CA-[C] |==|  0.68438
USER: genes 6 Torsion [N]-CA--C-[O] |==|  0.55711
USER: genes 7 Torsion [CB]-CA--N-[C] |==|  0.86801
USER: genes 8 Torsion [N]-C--CA-[N] |==|  0.08758
USER: genes 9 Torsion [C]-CA--N-[C] |==|  0.19866
USER: genes 10 Torsion [N]-C--CA-[N] |==|  0.16407
ROOT
ATOM      1  CA  ALA F 463      39.888 -25.033  19.797  1.00 80.84 LIG 0.17  C 
ATOM      2  CB  ALA F 463      39.318 -26.097  18.871  1.00 75.28 LIG 0.04  C 
ENDROOT
BRANCH 1 3
ATOM      3  C   ALA F 463      38.784 -24.415  20.647  1.00 84.46 LIG 0.24  C 
ATOM      4 O    ALA F 463      38.170 -23.422  20.258  1.00 85.06 LIG-0.27  OA
ATOM      5  N   GLY F 464      38.539 -25.005  21.812  1.00 87.45 LIG-0.35  N 
ATOM      6 H    GLY F 464      38.922 -25.731  22.072  1.00 87.45 LIG 0.16  HD
BRANCH 5 7
ATOM      7  CA  GLY F 464      37.585 -24.460  22.760  1.00 89.28 LIG 0.23  C 
BRANCH 7 8
ATOM      8  C   GLY F 464      37.889 -23.052  23.240  1.00 90.16 LIG 0.23  C 
ATOM      9 O    GLY F 464      37.101 -22.466  23.984  1.00 90.52 LIG-0.27  OA
ATOM     10  N   ALA F 465      39.028 -22.507  22.818  1.00 88.18 LIG-0.35  N 
ATOM     11 H    ALA F 465      39.575 -22.897  22.281  1.00 88.18 LIG 0.16  HD
BRANCH 10 12
ATOM     12  CA  ALA F 465      39.452 -21.174  23.240  1.00 85.90 LIG 0.16  C 
ATOM     13  CB  ALA F 465      40.830 -21.237  23.885  1.00 84.54 LIG 0.04  C 
BRANCH 12 14
ATOM     14  C   ALA F 465      39.461 -20.189  22.073  1.00 85.67 LIG 0.22  C 
ATOM     15 O    ALA F 465      40.126 -19.151  22.128  1.00 84.89 LIG-0.29  OA
ENDBRANCH 12 14
ENDBRANCH 10 12
ENDBRANCH 7 8
ENDBRANCH 5 7
ENDBRANCH 1 3
BRANCH 1 16
ATOM     16  N   ALA F 463      40.924 -25.598  20.653  1.00 83.00 LIG-0.35  N 
ATOM     17  C   GLY F 462      40.744 -26.743  21.309  1.00 85.58 LIG 0.24  C 
ATOM     18 O    GLY F 462      39.700 -27.393  21.255  1.00 87.56 LIG-0.27  OA
ATOM     19 H    ALA F 463      41.645 -25.132  20.692  1.00 83.00 LIG 0.16  HD
BRANCH 17 20
ATOM     20  CA  GLY F 462      41.908 -27.224  22.151  1.00 87.31 LIG 0.23  C 
BRANCH 20 21
ATOM     21  N   GLY F 462      42.687 -26.128  22.695  1.00 88.73 LIG-0.35  N 
ATOM     22  C   ALA F 461      42.225 -25.350  23.667  1.00 88.98 LIG 0.26  C 
ATOM     23 O    ALA F 461      41.113 -25.494  24.173  1.00 91.33 LIG-0.27  OA
ATOM     24 H    GLY F 462      43.462 -26.034  22.334  1.00 88.73 LIG 0.16  HD
BRANCH 22 25
ATOM     25  CA  ALA F 461      43.159 -24.239  24.133  1.00 85.90 LIG 0.40  C 
ATOM     26  CB  ALA F 461      42.530 -23.455  25.276  1.00 82.87 LIG 0.06  C 
ATOM     27  N   ALA F 461      43.496 -23.348  23.028  1.00 83.73 LIG 0.61  N 
ENDBRANCH 22 25
ENDBRANCH 20 21
ENDBRANCH 17 20
ENDBRANCH 1 16
TORSDOF 9
ENDMDL
MODEL 5
USER: ADFR SOLUTION from run 113
USER: SCORE 9.211474 LL:  -1.481 LR:  -8.516 RR:   0.000 FEB:  -5.831
USER: RMSD 8.405821
USER: SEED 112
USER: STATUS no improvement in best in 16 clusters for 5 generations
USER: GENES 11
USER: genes 0 Translation |==|  0.75347 0.83782 0.33559
USER: genes 1 Rotation |==|  0.64292 0.12284 0.76264 0.63542
USER: genes 2 Torsion [N]-CA--C-[N] |==|  0.06424
USER: genes 3 Torsion [C]-N--CA-[C] |==|  0.23285
USER: genes 4 Torsion [N]-CA--C-[N] |==|  0.47760
USER: genes 5 Torsion [C]-N--CA-[C] |==|  0.16232
USER: genes 6 Torsion [N]-CA--C-[O] |==|  0.53734
USER: genes 7 Torsion [CB]-CA--N-[C] |==|  0.81110
USER: genes 8 Torsion [N]-C--CA-[N] |==|  0.09509
USER: genes 9 Torsion [C]-CA--N-[C] |==|  0.19233
USER: genes 10 Torsion [N]-C--CA-[N] |==|  0.23389
ROOT
ATOM      1  CA  ALA F 463      39.813 -21.584  22.297  1.00 80.84 LIG 0.17  C 
ATOM      2  CB  ALA F 463      39.379 -20.338  21.539  1.00 75.28 LIG 0.04  C 
ENDROOT
BRANCH 1 3
ATOM      3  C   ALA F 463      38.775 -21.964  23.345  1.00 84.46 LIG 0.24  C 
ATOM      4 O    ALA F 463      38.136 -21.098  23.942  1.00 85.06 LIG-0.27  OA
ATOM      5  N   GLY F 464      38.613 -23.264  23.567  1.00 87.45 LIG-0.35  N 
ATOM      6 H    GLY F 464      39.011 -23.880  23.119  1.00 87.45 LIG 0.16  HD
BRANCH 5 7
ATOM      7  CA  GLY F 464      37.730 -23.758  24.608  1.00 89.28 LIG 0.23  C 
BRANCH 7 8
ATOM      8  C   GLY F 464      36.266 -23.861  24.215  1.00 90.16 LIG 0.23  C 
ATOM      9 O    GLY F 464      35.879 -23.400  23.140  1.00 90.52 LIG-0.27  OA
ATOM     10  N   ALA F 465      35.453 -24.462  25.080  1.00 88.18 LIG-0.35  N 
ATOM     11 H    ALA F 465      35.707 -24.767  25.843  1.00 88.18 LIG 0.16  HD
BRANCH 10 12
ATOM     12  CA  ALA F 465      34.033 -24.658  24.800  1.00 85.90 LIG 0.16  C 
ATOM     13  CB  ALA F 465      33.324 -23.314  24.695  1.00 84.54 LIG 0.04  C 
BRANCH 12 14
ATOM     14  C   ALA F 465      33.816 -25.468  23.523  1.00 85.67 LIG 0.22  C 
ATOM     15 O    ALA F 465      32.703 -25.526  22.994  1.00 84.89 LIG-0.29  OA
ENDBRANCH 12 14
ENDBRANCH 10 12
ENDBRANCH 7 8
ENDBRANCH 5 7
ENDBRANCH 1 3
BRANCH 1 16
ATOM     16  N   ALA F 463      40.030 -22.695  21.377  1.00 83.00 LIG-0.35  N 
ATOM     17  C   GLY F 462      39.023 -23.265  20.718  1.00 85.58 LIG 0.24  C 
ATOM     18 O    GLY F 462      37.850 -22.912  20.843  1.00 87.56 LIG-0.27  OA
ATOM     19 H    ALA F 463      40.850 -22.941  21.305  1.00 83.00 LIG 0.16  HD
BRANCH 17 20
ATOM     20  CA  GLY F 462      39.390 -24.400  19.784  1.00 87.31 LIG 0.23  C 
BRANCH 20 21
ATOM     21  N   GLY F 462      40.501 -25.189  20.282  1.00 88.73 LIG-0.35  N 
ATOM     22  C   ALA F 461      40.387 -25.970  21.350  1.00 88.98 LIG 0.26  C 
ATOM     23 O    ALA F 461      39.344 -26.081  21.993  1.00 91.33 LIG-0.27  OA
ATOM     24 H    GLY F 462      41.226 -25.104  19.827  1.00 88.73 LIG 0.16  HD
BRANCH 22 25
ATOM     25  CA  ALA F 461      41.641 -26.737  21.753  1.00 85.90 LIG 0.40  C 
ATOM     26  CB  ALA F 461      41.273 -28.018  22.486  1.00 82.87 LIG 0.06  C 
ATOM     27  N   ALA F 461      42.511 -25.908  22.581  1.00 83.73 LIG 0.61  N 
ENDBRANCH 22 25
ENDBRANCH 20 21
ENDBRANCH 17 20
ENDBRANCH 1 16
TORSDOF 9
ENDMDL
MODEL 6
USER: ADFR SOLUTION from run 100
USER: SCORE 7.980004 LL:  -1.644 LR:  -8.458 RR:   0.000 FEB:  -5.773
USER: RMSD 9.161353
USER: SEED 99
USER: STATUS no improvement in best in 19 clusters for 5 generations
USER: GENES 11
USER: genes 0 Translation |==|  0.73690 0.54218 0.19537
USER: genes 1 Rotation |==|  0.34192 0.58613 0.17753 0.83705
USER: genes 2 Torsion [N]-CA--C-[N] |==|  0.09449
USER: genes 3 Torsion [C]-N--CA-[C] |==|  0.58731
USER: genes 4 Torsion [N]-CA--C-[N] |==|  0.45244
USER: genes 5 Torsion [C]-N--CA-[C] |==|  0.19301
USER: genes 6 Torsion [N]-CA--C-[O] |==|  0.11190
USER: genes 7 Torsion [CB]-CA--N-[C] |==|  0.32642
USER: genes 8 Torsion [N]-C--CA-[N] |==|  0.89701
USER: genes 9 Torsion [C]-CA--N-[C] |==|  0.82426
USER: genes 10 Torsion [N]-C--CA-[N] |==|  0.79153
ROOT
ATOM      1  CA  ALA F 463      39.515 -26.018  19.563  1.00 80.84 LIG 0.17  C 
ATOM      2  CB  ALA F 463      39.765 -25.828  18.074  1.00 75.28 LIG 0.04  C 
ENDROOT
BRANCH 1 3
ATOM      3  C   ALA F 463      39.755 -27.468  19.966  1.00 84.46 LIG 0.24  C 
ATOM      4 O    ALA F 463      39.676 -28.374  19.137  1.00 85.06 LIG-0.27  OA
ATOM      5  N   GLY F 464      40.045 -27.682  21.245  1.00 87.45 LIG-0.35  N 
ATOM      6 H    GLY F 464      40.158 -27.054  21.823  1.00 87.45 LIG 0.16  HD
BRANCH 5 7
ATOM      7  CA  GLY F 464      40.198 -29.022  21.782  1.00 89.28 LIG 0.23  C 
BRANCH 7 8
ATOM      8  C   GLY F 464      39.790 -29.183  23.236  1.00 90.16 LIG 0.23  C 
ATOM      9 O    GLY F 464      39.670 -28.193  23.960  1.00 90.52 LIG-0.27  OA
ATOM     10  N   ALA F 465      39.577 -30.425  23.665  1.00 88.18 LIG-0.35  N 
ATOM     11 H    ALA F 465      39.679 -31.124  23.176  1.00 88.18 LIG 0.16  HD
BRANCH 10 12
ATOM     12  CA  ALA F 465      39.143 -30.708  25.031  1.00 85.90 LIG 0.16  C 
ATOM     13  CB  ALA F 465      40.083 -30.049  26.032  1.00 84.54 LIG 0.04  C 
BRANCH 12 14
ATOM     14  C   ALA F 465      37.707 -30.245  25.274  1.00 85.67 LIG 0.22  C 
ATOM     15 O    ALA F 465      36.840 -30.402  24.410  1.00 84.89 LIG-0.29  OA
ENDBRANCH 12 14
ENDBRANCH 10 12
ENDBRANCH 7 8
ENDBRANCH 5 7
ENDBRANCH 1 3
BRANCH 1 16
ATOM     16  N   ALA F 463      40.370 -25.131  20.344  1.00 83.00 LIG-0.35  N 
ATOM     17  C   GLY F 462      39.863 -24.185  21.132  1.00 85.58 LIG 0.24  C 
ATOM     18 O    GLY F 462      38.654 -23.981  21.248  1.00 87.56 LIG-0.27  OA
ATOM     19 H    ALA F 463      41.212 -25.275  20.248  1.00 83.00 LIG 0.16  HD
BRANCH 17 20
ATOM     20  CA  GLY F 462      40.863 -23.344  21.899  1.00 87.31 LIG 0.23  C 
BRANCH 20 21
ATOM     21  N   GLY F 462      42.003 -24.117  22.353  1.00 88.73 LIG-0.35  N 
ATOM     22  C   ALA F 461      41.876 -25.116  23.220  1.00 88.98 LIG 0.26  C 
ATOM     23 O    ALA F 461      40.796 -25.457  23.700  1.00 91.33 LIG-0.27  OA
ATOM     24 H    GLY F 462      42.754 -23.872  22.014  1.00 88.73 LIG 0.16  HD
BRANCH 22 25
ATOM     25  CA  ALA F 461      43.164 -25.835  23.604  1.00 85.90 LIG 0.40  C 
ATOM     26  CB  ALA F 461      44.251 -24.832  23.961  1.00 82.87 LIG 0.06  C 
ATOM     27  N   ALA F 461      43.611 -26.709  22.525  1.00 83.73 LIG 0.61  N 
ENDBRANCH 22 25
ENDBRANCH 20 21
ENDBRANCH 17 20
ENDBRANCH 1 16
TORSDOF 9
ENDMDL
MODEL 7
USER: ADFR SOLUTION from run 150
USER: SCORE 9.014777 LL:  -1.309 LR:  -8.417 RR:   0.000 FEB:  -5.733
USER: RMSD 8.852090
USER: SEED 149
USER: STATUS no improvement in best in 12 clusters for 5 generations
USER: GENES 11
USER: genes 0 Translation |==|  0.75318 0.61050 0.19749
USER: genes 1 Rotation |==|  0.61755 0.53085 0.95797 0.65968
USER: genes 2 Torsion [N]-CA--C-[N] |==|  0.86265
USER: genes 3 Torsion [C]-N--CA-[C] |==|  0.43273
USER: genes 4 Torsion [N]-CA--C-[N] |==|  0.58084
USER: genes 5 Torsion [C]-N--CA-[C] |==|  0.81374
USER: genes 6 Torsion [N]-CA--C-[O] |==|  0.72228
USER: genes 7 Torsion [CB]-CA--N-[C] |==|  0.87758
USER: genes 8 Torsion [N]-C--CA-[N] |==|  0.10475
USER: genes 9 Torsion [C]-CA--N-[C] |==|  0.18160
USER: genes 10 Torsion [N]-C--CA-[N] |==|  0.08238
ROOT
ATOM      1  CA  ALA F 463      39.808 -24.993  19.604  1.00 80.84 LIG 0.17  C 
ATOM      2  CB  ALA F 463      39.032 -26.124  18.945  1.00 75.28 LIG 0.04  C 
ENDROOT
BRANCH 1 3
ATOM      3  C   ALA F 463      38.862 -24.043  20.327  1.00 84.46 LIG 0.24  C 
ATOM      4 O    ALA F 463      38.623 -22.924  19.871  1.00 85.06 LIG-0.27  OA
ATOM      5  N   GLY F 464      38.327 -24.492  21.457  1.00 87.45 LIG-0.35  N 
ATOM      6 H    GLY F 464      38.442 -25.289  21.758  1.00 87.45 LIG 0.16  HD
BRANCH 5 7
ATOM      7  CA  GLY F 464      37.490 -23.652  22.294  1.00 89.28 LIG 0.23  C 
BRANCH 7 8
ATOM      8  C   GLY F 464      36.518 -24.402  23.188  1.00 90.16 LIG 0.23  C 
ATOM      9 O    GLY F 464      36.792 -25.533  23.592  1.00 90.52 LIG-0.27  OA
ATOM     10  N   ALA F 465      35.384 -23.777  23.499  1.00 88.18 LIG-0.35  N 
ATOM     11 H    ALA F 465      35.172 -22.997  23.205  1.00 88.18 LIG 0.16  HD
BRANCH 10 12
ATOM     12  CA  ALA F 465      34.386 -24.376  24.382  1.00 85.90 LIG 0.16  C 
ATOM     13  CB  ALA F 465      33.323 -23.351  24.752  1.00 84.54 LIG 0.04  C 
BRANCH 12 14
ATOM     14  C   ALA F 465      33.737 -25.605  23.747  1.00 85.67 LIG 0.22  C 
ATOM     15 O    ALA F 465      32.626 -25.526  23.214  1.00 84.89 LIG-0.29  OA
ENDBRANCH 12 14
ENDBRANCH 10 12
ENDBRANCH 7 8
ENDBRANCH 5 7
ENDBRANCH 1 3
BRANCH 1 16
ATOM     16  N   ALA F 463      40.796 -25.524  20.537  1.00 83.00 LIG-0.35  N 
ATOM     17  C   GLY F 462      40.502 -26.509  21.384  1.00 85.58 LIG 0.24  C 
ATOM     18 O    GLY F 462      39.387 -27.027  21.453  1.00 87.56 LIG-0.27  OA
ATOM     19 H    ALA F 463      41.568 -25.149  20.488  1.00 83.00 LIG 0.16  HD
BRANCH 17 20
ATOM     20  CA  GLY F 462      41.625 -26.975  22.287  1.00 87.31 LIG 0.23  C 
BRANCH 20 21
ATOM     21  N   GLY F 462      42.460 -25.879  22.741  1.00 88.73 LIG-0.35  N 
ATOM     22  C   ALA F 461      41.996 -24.921  23.535  1.00 88.98 LIG 0.26  C 
ATOM     23 O    ALA F 461      40.834 -24.888  23.940  1.00 91.33 LIG-0.27  OA
ATOM     24 H    GLY F 462      43.270 -25.910  22.452  1.00 88.73 LIG 0.16  HD
BRANCH 22 25
ATOM     25  CA  ALA F 461      42.992 -23.836  23.927  1.00 85.90 LIG 0.40  C 
ATOM     26  CB  ALA F 461      42.272 -22.528  24.219  1.00 82.87 LIG 0.06  C 
ATOM     27  N   ALA F 461      43.989 -23.647  22.878  1.00 83.73 LIG 0.61  N 
ENDBRANCH 22 25
ENDBRANCH 20 21
ENDBRANCH 17 20
ENDBRANCH 1 16
TORSDOF 9
ENDMDL
MODEL 8
USER: ADFR SOLUTION from run 135
USER: SCORE 9.199754 LL:  -1.469 LR:  -8.394 RR:   0.000 FEB:  -5.709
USER: RMSD 7.983793
USER: SEED 134
USER: STATUS no improvement in best in 20 clusters for 5 generations
USER: GENES 11
USER: genes 0 Translation |==|  0.75463 0.61636 0.21486
USER: genes 1 Rotation |==|  0.68637 0.52125 0.91291 0.71053
USER: genes 2 Torsion [N]-CA--C-[N] |==|  0.16168
USER: genes 3 Torsion [C]-N--CA-[C] |==|  0.75915
USER: genes 4 Torsion [N]-CA--C-[N] |==|  0.05887
USER: genes 5 Torsion [C]-N--CA-[C] |==|  0.75225
USER: genes 6 Torsion [N]-CA--C-[O] |==|  0.73139
USER: genes 7 Torsion [CB]-CA--N-[C] |==|  0.81358
USER: genes 8 Torsion [N]-C--CA-[N] |==|  0.53183
USER: genes 9 Torsion [C]-CA--N-[C] |==|  0.20556
USER: genes 10 Torsion [N]-C--CA-[N] |==|  0.40509
ROOT
ATOM      1  CA  ALA F 463      39.834 -24.906  19.943  1.00 80.84 LIG 0.17  C 
ATOM      2  CB  ALA F 463      38.637 -25.728  19.491  1.00 75.28 LIG 0.04  C 
ENDROOT
BRANCH 1 3
ATOM      3  C   ALA F 463      39.402 -23.821  20.921  1.00 84.46 LIG 0.24  C 
ATOM      4 O    ALA F 463      38.222 -23.707  21.255  1.00 85.06 LIG-0.27  OA
ATOM      5  N   GLY F 464      40.361 -23.023  21.377  1.00 87.45 LIG-0.35  N 
ATOM      6 H    GLY F 464      41.196 -23.125  21.196  1.00 87.45 LIG 0.16  HD
BRANCH 5 7
ATOM      7  CA  GLY F 464      40.070 -21.889  22.235  1.00 89.28 LIG 0.23  C 
BRANCH 7 8
ATOM      8  C   GLY F 464      39.723 -20.603  21.505  1.00 90.16 LIG 0.23  C 
ATOM      9 O    GLY F 464      39.840 -19.516  22.073  1.00 90.52 LIG-0.27  OA
ATOM     10  N   ALA F 465      39.297 -20.722  20.249  1.00 88.18 LIG-0.35  N 
ATOM     11 H    ALA F 465      39.191 -21.476  19.850  1.00 88.18 LIG 0.16  HD
BRANCH 10 12
ATOM     12  CA  ALA F 465      38.969 -19.558  19.429  1.00 85.90 LIG 0.16  C 
ATOM     13  CB  ALA F 465      39.280 -19.839  17.965  1.00 84.54 LIG 0.04  C 
BRANCH 12 14
ATOM     14  C   ALA F 465      37.505 -19.151  19.588  1.00 85.67 LIG 0.22  C 
ATOM     15 O    ALA F 465      36.655 -19.526  18.777  1.00 84.89 LIG-0.29  OA
ENDBRANCH 12 14
ENDBRANCH 10 12
ENDBRANCH 7 8
ENDBRANCH 5 7
ENDBRANCH 1 3
BRANCH 1 16
ATOM     16  N   ALA F 463      40.844 -25.762  20.556  1.00 83.00 LIG-0.35  N 
ATOM     17  C   GLY F 462      40.626 -26.385  21.712  1.00 85.58 LIG 0.24  C 
ATOM     18 O    GLY F 462      39.577 -26.276  22.349  1.00 87.56 LIG-0.27  OA
ATOM     19 H    ALA F 463      41.576 -25.823  20.109  1.00 83.00 LIG 0.16  HD
BRANCH 17 20
ATOM     20  CA  GLY F 462      41.753 -27.255  22.229  1.00 87.31 LIG 0.23  C 
BRANCH 20 21
ATOM     21  N   GLY F 462      41.340 -28.094  23.338  1.00 88.73 LIG-0.35  N 
ATOM     22  C   ALA F 461      40.570 -29.163  23.163  1.00 88.98 LIG 0.26  C 
ATOM     23 O    ALA F 461      40.151 -29.517  22.062  1.00 91.33 LIG-0.27  OA
ATOM     24 H    GLY F 462      41.636 -27.839  24.103  1.00 88.73 LIG 0.16  HD
BRANCH 22 25
ATOM     25  CA  ALA F 461      40.218 -29.945  24.423  1.00 85.90 LIG 0.40  C 
ATOM     26  CB  ALA F 461      41.237 -31.048  24.671  1.00 82.87 LIG 0.06  C 
ATOM     27  N   ALA F 461      38.874 -30.505  24.327  1.00 83.73 LIG 0.61  N 
ENDBRANCH 22 25
ENDBRANCH 20 21
ENDBRANCH 17 20
ENDBRANCH 1 16
TORSDOF 9
ENDMDL
MODEL 9
USER: ADFR SOLUTION from run 9
USER: SCORE 8.017301 LL:  -1.404 LR:  -8.376 RR:   0.000 FEB:  -5.692
USER: RMSD 8.591849
USER: SEED 943864
USER: STATUS no improvement in best in 23 clusters for 5 generations
USER: GENES 11
USER: genes 0 Translation |==|  0.69099 0.23311 0.47703
USER: genes 1 Rotation |==|  0.57389 0.98960 0.56856 0.51137
USER: genes 2 Torsion [N]-CA--C-[N] |==|  0.72371
USER: genes 3 Torsion [C]-N--CA-[C] |==|  0.64149
USER: genes 4 Torsion [N]-CA--C-[N] |==|  0.53323
USER: genes 5 Torsion [C]-N--CA-[C] |==|  0.60517
USER: genes 6 Torsion [N]-CA--C-[O] |==|  0.02036
USER: genes 7 Torsion [CB]-CA--N-[C] |==|  0.84545
USER: genes 8 Torsion [N]-C--CA-[N] |==|  0.46742
USER: genes 9 Torsion [C]-CA--N-[C] |==|  0.65215
USER: genes 10 Torsion [N]-C--CA-[N] |==|  0.41007
ROOT
ATOM      1  CA  ALA F 463      38.689 -30.654  25.055  1.00 80.84 LIG 0.17  C 
ATOM      2  CB  ALA F 463      39.339 -29.960  26.242  1.00 75.28 LIG 0.04  C 
ENDROOT
BRANCH 1 3
ATOM      3  C   ALA F 463      37.246 -30.196  24.889  1.00 84.46 LIG 0.24  C 
ATOM      4 O    ALA F 463      36.426 -30.897  24.295  1.00 85.06 LIG-0.27  OA
ATOM      5  N   GLY F 464      36.940 -29.013  25.413  1.00 87.45 LIG-0.35  N 
ATOM      6 H    GLY F 464      37.487 -28.539  25.877  1.00 87.45 LIG 0.16  HD
BRANCH 5 7
ATOM      7  CA  GLY F 464      35.629 -28.415  25.239  1.00 89.28 LIG 0.23  C 
BRANCH 7 8
ATOM      8  C   GLY F 464      35.639 -26.981  24.737  1.00 90.16 LIG 0.23  C 
ATOM      9 O    GLY F 464      36.677 -26.483  24.301  1.00 90.52 LIG-0.27  OA
ATOM     10  N   ALA F 465      34.486 -26.317  24.797  1.00 88.18 LIG-0.35  N 
ATOM     11 H    ALA F 465      33.760 -26.647  25.120  1.00 88.18 LIG 0.16  HD
BRANCH 10 12
ATOM     12  CA  ALA F 465      34.357 -24.946  24.310  1.00 85.90 LIG 0.16  C 
ATOM     13  CB  ALA F 465      33.840 -24.940  22.878  1.00 84.54 LIG 0.04  C 
BRANCH 12 14
ATOM     14  C   ALA F 465      33.439 -24.114  25.205  1.00 85.67 LIG 0.22  C 
ATOM     15 O    ALA F 465      33.016 -24.569  26.271  1.00 84.89 LIG-0.29  OA
ENDBRANCH 12 14
ENDBRANCH 10 12
ENDBRANCH 7 8
ENDBRANCH 5 7
ENDBRANCH 1 3
BRANCH 1 16
ATOM     16  N   ALA F 463      39.442 -30.395  23.833  1.00 83.00 LIG-0.35  N 
ATOM     17  C   GLY F 462      39.699 -29.157  23.418  1.00 85.58 LIG 0.24  C 
ATOM     18 O    GLY F 462      39.314 -28.152  24.016  1.00 87.56 LIG-0.27  OA
ATOM     19 H    ALA F 463      39.697 -31.103  23.417  1.00 83.00 LIG 0.16  HD
BRANCH 17 20
ATOM     20  CA  GLY F 462      40.504 -29.031  22.140  1.00 87.31 LIG 0.23  C 
BRANCH 20 21
ATOM     21  N   GLY F 462      40.505 -27.677  21.619  1.00 88.73 LIG-0.35  N 
ATOM     22  C   ALA F 461      40.125 -27.400  20.376  1.00 88.98 LIG 0.26  C 
ATOM     23 O    ALA F 461      39.751 -28.261  19.580  1.00 91.33 LIG-0.27  OA
ATOM     24 H    GLY F 462      40.769 -27.082  22.181  1.00 88.73 LIG 0.16  HD
BRANCH 22 25
ATOM     25  CA  ALA F 461      40.182 -25.932  19.972  1.00 85.90 LIG 0.40  C 
ATOM     26  CB  ALA F 461      38.865 -25.238  20.288  1.00 82.87 LIG 0.06  C 
ATOM     27  N   ALA F 461      40.501 -25.797  18.555  1.00 83.73 LIG 0.61  N 
ENDBRANCH 22 25
ENDBRANCH 20 21
ENDBRANCH 17 20
ENDBRANCH 1 16
TORSDOF 9
ENDMDL
MODEL 10
USER: ADFR SOLUTION from run 23
USER: SCORE 7.861069 LL:  -1.089 LR:  -8.277 RR:   0.000 FEB:  -5.593
USER: RMSD 2.922169
USER: SEED 22
USER: STATUS no improvement in best in 18 clusters for 5 generations
USER: GENES 11
USER: genes 0 Translation |==|  0.40404 0.62866 0.42150
USER: genes 1 Rotation |==|  0.71309 0.55612 0.46060 0.94709
USER: genes 2 Torsion [N]-CA--C-[N] |==|  0.45539
USER: genes 3 Torsion [C]-N--CA-[C] |==|  0.77374
USER: genes 4 Torsion [N]-CA--C-[N] |==|  0.60955
USER: genes 5 Torsion [C]-N--CA-[C] |==|  0.61457
USER: genes 6 Torsion [N]-CA--C-[O] |==|  0.37863
USER: genes 7 Torsion [CB]-CA--N-[C] |==|  0.84906
USER: genes 8 Torsion [N]-C--CA-[N] |==|  0.69328
USER: genes 9 Torsion [C]-CA--N-[C] |==|  0.44277
USER: genes 10 Torsion [N]-C--CA-[N] |==|  0.49416
ROOT
ATOM      1  CA  ALA F 463      33.524 -24.721  23.972  1.00 80.84 LIG 0.17  C 
ATOM      2  CB  ALA F 463      33.271 -23.280  24.387  1.00 75.28 LIG 0.04  C 
ENDROOT
BRANCH 1 3
ATOM      3  C   ALA F 463      34.995 -24.933  23.638  1.00 84.46 LIG 0.24  C 
ATOM      4 O    ALA F 463      35.733 -25.552  24.405  1.00 85.06 LIG-0.27  OA
ATOM      5  N   GLY F 464      35.418 -24.412  22.491  1.00 87.45 LIG-0.35  N 
ATOM      6 H    GLY F 464      34.903 -24.025  21.921  1.00 87.45 LIG 0.16  HD
BRANCH 5 7
ATOM      7  CA  GLY F 464      36.816 -24.454  22.101  1.00 89.28 LIG 0.23  C 
BRANCH 7 8
ATOM      8  C   GLY F 464      37.689 -23.378  22.721  1.00 90.16 LIG 0.23  C 
ATOM      9 O    GLY F 464      37.527 -23.048  23.897  1.00 90.52 LIG-0.27  OA
ATOM     10  N   ALA F 465      38.615 -22.830  21.936  1.00 88.18 LIG-0.35  N 
ATOM     11 H    ALA F 465      38.722 -23.036  21.108  1.00 88.18 LIG 0.16  HD
BRANCH 10 12
ATOM     12  CA  ALA F 465      39.542 -21.812  22.425  1.00 85.90 LIG 0.16  C 
ATOM     13  CB  ALA F 465      40.879 -22.445  22.785  1.00 84.54 LIG 0.04  C 
BRANCH 12 14
ATOM     14  C   ALA F 465      39.745 -20.696  21.402  1.00 85.67 LIG 0.22  C 
ATOM     15 O    ALA F 465      39.751 -19.513  21.753  1.00 84.89 LIG-0.29  OA
ENDBRANCH 12 14
ENDBRANCH 10 12
ENDBRANCH 7 8
ENDBRANCH 5 7
ENDBRANCH 1 3
BRANCH 1 16
ATOM     16  N   ALA F 463      33.112 -25.640  25.028  1.00 83.00 LIG-0.35  N 
ATOM     17  C   GLY F 462      33.569 -25.526  26.273  1.00 85.58 LIG 0.24  C 
ATOM     18 O    GLY F 462      34.373 -24.661  26.619  1.00 87.56 LIG-0.27  OA
ATOM     19 H    ALA F 463      32.558 -26.247  24.774  1.00 83.00 LIG 0.16  HD
BRANCH 17 20
ATOM     20  CA  GLY F 462      33.048 -26.537  27.274  1.00 87.31 LIG 0.23  C 
BRANCH 20 21
ATOM     21  N   GLY F 462      32.163 -25.939  28.255  1.00 88.73 LIG-0.35  N 
ATOM     22  C   ALA F 461      31.296 -26.661  28.955  1.00 88.98 LIG 0.26  C 
ATOM     23 O    ALA F 461      31.176 -27.879  28.825  1.00 91.33 LIG-0.27  OA
ATOM     24 H    GLY F 462      32.252 -25.087  28.338  1.00 88.73 LIG 0.16  HD
BRANCH 22 25
ATOM     25  CA  ALA F 461      30.432 -25.892  29.947  1.00 85.90 LIG 0.40  C 
ATOM     26  CB  ALA F 461      31.301 -25.173  30.969  1.00 82.87 LIG 0.06  C 
ATOM     27  N   ALA F 461      29.491 -26.784  30.616  1.00 83.73 LIG 0.61  N 
ENDBRANCH 22 25
ENDBRANCH 20 21
ENDBRANCH 17 20
ENDBRANCH 1 16
TORSDOF 9
ENDMDL
MODEL 11
USER: ADFR SOLUTION from run 112
USER: SCORE 8.378040 LL:  -1.115 LR:  -8.224 RR:   0.000 FEB:  -5.540
USER: RMSD 6.763573
USER: SEED 111
USER: STATUS no improvement in best in 27 clusters for 5 generations
USER: GENES 11
USER: genes 0 Translation |==|  0.87697 0.46876 0.38663
USER: genes 1 Rotation |==|  0.30151 0.37600 0.93825 0.55619
USER: genes 2 Torsion [N]-CA--C-[N] |==|  0.45519
USER: genes 3 Torsion [C]-N--CA-[C] |==|  0.24486
USER: genes 4 Torsion [N]-CA--C-[N] |==|  0.20496
USER: genes 5 Torsion [C]-N--CA-[C] |==|  0.66073
USER: genes 6 Torsion [N]-CA--C-[O] |==|  0.64614
USER: genes 7 Torsion [CB]-CA--N-[C] |==|  0.84230
USER: genes 8 Torsion [N]-C--CA-[N] |==|  0.43889
USER: genes 9 Torsion [C]-CA--N-[C] |==|  0.76947
USER: genes 10 Torsion [N]-C--CA-[N] |==|  0.14874
ROOT
ATOM      1  CA  ALA F 463      42.036 -27.120  23.292  1.00 80.84 LIG 0.17  C 
ATOM      2  CB  ALA F 463      42.993 -27.951  22.451  1.00 75.28 LIG 0.04  C 
ENDROOT
BRANCH 1 3
ATOM      3  C   ALA F 463      40.919 -26.549  22.428  1.00 84.46 LIG 0.24  C 
ATOM      4 O    ALA F 463      39.778 -27.008  22.488  1.00 85.06 LIG-0.27  OA
ATOM      5  N   GLY F 464      41.253 -25.548  21.621  1.00 87.45 LIG-0.35  N 
ATOM      6 H    GLY F 464      42.031 -25.181  21.608  1.00 87.45 LIG 0.16  HD
BRANCH 5 7
ATOM      7  CA  GLY F 464      40.310 -24.981  20.674  1.00 89.28 LIG 0.23  C 
BRANCH 7 8
ATOM      8  C   GLY F 464      39.450 -23.854  21.219  1.00 90.16 LIG 0.23  C 
ATOM      9 O    GLY F 464      38.260 -24.049  21.473  1.00 90.52 LIG-0.27  OA
ATOM     10  N   ALA F 465      40.047 -22.678  21.401  1.00 88.18 LIG-0.35  N 
ATOM     11 H    ALA F 465      40.870 -22.525  21.207  1.00 88.18 LIG 0.16  HD
BRANCH 10 12
ATOM     12  CA  ALA F 465      39.338 -21.528  21.957  1.00 85.90 LIG 0.16  C 
ATOM     13  CB  ALA F 465      39.931 -21.141  23.304  1.00 84.54 LIG 0.04  C 
BRANCH 12 14
ATOM     14  C   ALA F 465      39.368 -20.333  21.005  1.00 85.67 LIG 0.22  C 
ATOM     15 O    ALA F 465      39.754 -19.227  21.393  1.00 84.89 LIG-0.29  OA
ENDBRANCH 12 14
ENDBRANCH 10 12
ENDBRANCH 7 8
ENDBRANCH 5 7
ENDBRANCH 1 3
BRANCH 1 16
ATOM     16  N   ALA F 463      41.475 -27.921  24.375  1.00 83.00 LIG-0.35  N 
ATOM     17  C   GLY F 462      40.814 -29.052  24.139  1.00 85.58 LIG 0.24  C 
ATOM     18 O    GLY F 462      40.618 -29.494  23.006  1.00 87.56 LIG-0.27  OA
ATOM     19 H    ALA F 463      41.608 -27.598  25.160  1.00 83.00 LIG 0.16  HD
BRANCH 17 20
ATOM     20  CA  GLY F 462      40.297 -29.793  25.355  1.00 87.31 LIG 0.23  C 
BRANCH 20 21
ATOM     21  N   GLY F 462      39.199 -30.684  25.033  1.00 88.73 LIG-0.35  N 
ATOM     22  C   ALA F 461      37.946 -30.254  24.938  1.00 88.98 LIG 0.26  C 
ATOM     23 O    ALA F 461      37.623 -29.080  25.117  1.00 91.33 LIG-0.27  OA
ATOM     24 H    GLY F 462      39.433 -31.503  24.911  1.00 88.73 LIG 0.16  HD
BRANCH 22 25
ATOM     25  CA  ALA F 461      36.901 -31.308  24.594  1.00 85.90 LIG 0.40  C 
ATOM     26  CB  ALA F 461      35.505 -30.703  24.604  1.00 82.87 LIG 0.06  C 
ATOM     27  N   ALA F 461      36.976 -32.433  25.521  1.00 83.73 LIG 0.61  N 
ENDBRANCH 22 25
ENDBRANCH 20 21
ENDBRANCH 17 20
ENDBRANCH 1 16
TORSDOF 9
ENDMDL
MODEL 12
USER: ADFR SOLUTION from run 35
USER: SCORE 9.278218 LL:  -1.763 LR:  -8.174 RR:   0.000 FEB:  -5.490
USER: RMSD 8.750834
USER: SEED 34
USER: STATUS no improvement in best in 27 clusters for 5 generations
USER: GENES 11
USER: genes 0 Translation |==|  0.86660 0.73968 0.36985
USER: genes 1 Rotation |==|  0.82183 0.17223 0.45513 0.69231
USER: genes 2 Torsion [N]-CA--C-[N] |==|  0.32781
USER: genes 3 Torsion [C]-N--CA-[C] |==|  0.19867
USER: genes 4 Torsion [N]-CA--C-[N] |==|  0.63134
USER: genes 5 Torsion [C]-N--CA-[C] |==|  0.78832
USER: genes 6 Torsion [N]-CA--C-[O] |==|  0.22276
USER: genes 7 Torsion [CB]-CA--N-[C] |==|  0.86635
USER: genes 8 Torsion [N]-C--CA-[N] |==|  0.14314
USER: genes 9 Torsion [C]-CA--N-[C] |==|  0.17357
USER: genes 10 Torsion [N]-C--CA-[N] |==|  0.22030
ROOT
ATOM      1  CA  ALA F 463      41.850 -23.056  22.965  1.00 80.84 LIG 0.17  C 
ATOM      2  CB  ALA F 463      41.468 -22.153  24.128  1.00 75.28 LIG 0.04  C 
ENDROOT
BRANCH 1 3
ATOM      3  C   ALA F 463      41.967 -24.503  23.426  1.00 84.46 LIG 0.24  C 
ATOM      4 O    ALA F 463      41.000 -25.090  23.912  1.00 85.06 LIG-0.27  OA
ATOM      5  N   GLY F 464      43.156 -25.075  23.274  1.00 87.45 LIG-0.35  N 
ATOM      6 H    GLY F 464      43.824 -24.696  22.886  1.00 87.45 LIG 0.16  HD
BRANCH 5 7
ATOM      7  CA  GLY F 464      43.430 -26.414  23.762  1.00 89.28 LIG 0.23  C 
BRANCH 7 8
ATOM      8  C   GLY F 464      42.759 -27.532  22.984  1.00 90.16 LIG 0.23  C 
ATOM      9 O    GLY F 464      42.807 -27.547  21.753  1.00 90.52 LIG-0.27  OA
ATOM     10  N   ALA F 465      42.133 -28.467  23.696  1.00 88.18 LIG-0.35  N 
ATOM     11 H    ALA F 465      42.075 -28.456  24.554  1.00 88.18 LIG 0.16  HD
BRANCH 10 12
ATOM     12  CA  ALA F 465      41.483 -29.614  23.066  1.00 85.90 LIG 0.16  C 
ATOM     13  CB  ALA F 465      41.273 -30.727  24.083  1.00 84.54 LIG 0.04  C 
BRANCH 12 14
ATOM     14  C   ALA F 465      40.151 -29.226  22.428  1.00 85.67 LIG 0.22  C 
ATOM     15 O    ALA F 465      40.117 -28.681  21.321  1.00 84.89 LIG-0.29  OA
ENDBRANCH 12 14
ENDBRANCH 10 12
ENDBRANCH 7 8
ENDBRANCH 5 7
ENDBRANCH 1 3
BRANCH 1 16
ATOM     16  N   ALA F 463      40.871 -22.949  21.888  1.00 83.00 LIG-0.35  N 
ATOM     17  C   GLY F 462      39.563 -23.026  22.121  1.00 85.58 LIG 0.24  C 
ATOM     18 O    GLY F 462      39.087 -23.206  23.242  1.00 87.56 LIG-0.27  OA
ATOM     19 H    ALA F 463      41.214 -22.834  21.108  1.00 83.00 LIG 0.16  HD
BRANCH 17 20
ATOM     20  CA  GLY F 462      38.658 -22.884  20.914  1.00 87.31 LIG 0.23  C 
BRANCH 20 21
ATOM     21  N   GLY F 462      39.030 -23.779  19.835  1.00 88.73 LIG-0.35  N 
ATOM     22  C   ALA F 461      38.997 -25.100  19.972  1.00 88.98 LIG 0.26  C 
ATOM     23 O    ALA F 461      38.654 -25.660  21.013  1.00 91.33 LIG-0.27  OA
ATOM     24 H    GLY F 462      39.270 -23.379  19.112  1.00 88.73 LIG 0.16  HD
BRANCH 22 25
ATOM     25  CA  ALA F 461      39.418 -25.909  18.751  1.00 85.90 LIG 0.40  C 
ATOM     26  CB  ALA F 461      38.844 -27.316  18.816  1.00 82.87 LIG 0.06  C 
ATOM     27  N   ALA F 461      40.872 -25.956  18.638  1.00 83.73 LIG 0.61  N 
ENDBRANCH 22 25
ENDBRANCH 20 21
ENDBRANCH 17 20
ENDBRANCH 1 16
TORSDOF 9
ENDMDL
MODEL 13
USER: ADFR SOLUTION from run 117
USER: SCORE 8.412242 LL:  -1.096 LR:  -8.148 RR:   0.000 FEB:  -5.464
USER: RMSD 3.089882
USER: SEED 116
USER: STATUS no improvement in best in 24 clusters for 5 generations
USER: GENES 11
USER: genes 0 Translation |==|  0.49103 0.59986 0.39147
USER: genes 1 Rotation |==|  0.45627 0.64386 0.63221 0.95816
USER: genes 2 Torsion [N]-CA--C-[N] |==|  0.15767
USER: genes 3 Torsion [C]-N--CA-[C] |==|  0.83728
USER: genes 4 Torsion [N]-CA--C-[N] |==|  0.82778
USER: genes 5 Torsion [C]-N--CA-[C] |==|  0.51258
USER: genes 6 Torsion [N]-CA--C-[O] |==|  0.70709
USER: genes 7 Torsion [CB]-CA--N-[C] |==|  0.14467
USER: genes 8 Torsion [N]-C--CA-[N] |==|  0.47844
USER: genes 9 Torsion [C]-CA--N-[C] |==|  0.24347
USER: genes 10 Torsion [N]-C--CA-[N] |==|  0.89983
ROOT
ATOM      1  CA  ALA F 463      35.089 -25.153  23.387  1.00 80.84 LIG 0.17  C 
ATOM      2  CB  ALA F 463      33.748 -24.647  22.878  1.00 75.28 LIG 0.04  C 
ENDROOT
BRANCH 1 3
ATOM      3  C   ALA F 463      36.235 -24.474  22.647  1.00 84.46 LIG 0.24  C 
ATOM      4 O    ALA F 463      36.012 -23.651  21.758  1.00 85.06 LIG-0.27  OA
ATOM      5  N   GLY F 464      37.463 -24.825  23.014  1.00 87.45 LIG-0.35  N 
ATOM      6 H    GLY F 464      37.634 -25.356  23.668  1.00 87.45 LIG 0.16  HD
BRANCH 5 7
ATOM      7  CA  GLY F 464      38.639 -24.330  22.323  1.00 89.28 LIG 0.23  C 
BRANCH 7 8
ATOM      8  C   GLY F 464      38.698 -24.653  20.840  1.00 90.16 LIG 0.23  C 
ATOM      9 O    GLY F 464      38.709 -23.745  20.007  1.00 90.52 LIG-0.27  OA
ATOM     10  N   ALA F 465      38.735 -25.941  20.508  1.00 88.18 LIG-0.35  N 
ATOM     11 H    ALA F 465      38.705 -26.584  21.079  1.00 88.18 LIG 0.16  HD
BRANCH 10 12
ATOM     12  CA  ALA F 465      38.831 -26.380  19.117  1.00 85.90 LIG 0.16  C 
ATOM     13  CB  ALA F 465      40.126 -25.877  18.493  1.00 84.54 LIG 0.04  C 
BRANCH 12 14
ATOM     14  C   ALA F 465      38.744 -27.900  18.998  1.00 85.67 LIG 0.22  C 
ATOM     15 O    ALA F 465      39.751 -28.573  18.760  1.00 84.89 LIG-0.29  OA
ENDBRANCH 12 14
ENDBRANCH 10 12
ENDBRANCH 7 8
ENDBRANCH 5 7
ENDBRANCH 1 3
BRANCH 1 16
ATOM     16  N   ALA F 463      35.214 -24.925  24.822  1.00 83.00 LIG-0.35  N 
ATOM     17  C   GLY F 462      34.278 -25.327  25.679  1.00 85.58 LIG 0.24  C 
ATOM     18 O    GLY F 462      33.246 -25.901  25.329  1.00 87.56 LIG-0.27  OA
ATOM     19 H    ALA F 463      35.932 -24.514  25.055  1.00 83.00 LIG 0.16  HD
BRANCH 17 20
ATOM     20  CA  GLY F 462      34.540 -25.039  27.143  1.00 87.31 LIG 0.23  C 
BRANCH 20 21
ATOM     21  N   GLY F 462      33.396 -25.348  27.980  1.00 88.73 LIG-0.35  N 
ATOM     22  C   ALA F 461      33.201 -26.560  28.488  1.00 88.98 LIG 0.26  C 
ATOM     23 O    ALA F 461      33.964 -27.504  28.286  1.00 91.33 LIG-0.27  OA
ATOM     24 H    GLY F 462      32.867 -24.683  28.115  1.00 88.73 LIG 0.16  HD
BRANCH 22 25
ATOM     25  CA  ALA F 461      31.954 -26.731  29.347  1.00 85.90 LIG 0.40  C 
ATOM     26  CB  ALA F 461      30.751 -27.077  28.482  1.00 82.87 LIG 0.06  C 
ATOM     27  N   ALA F 461      31.692 -25.526  30.126  1.00 83.73 LIG 0.61  N 
ENDBRANCH 22 25
ENDBRANCH 20 21
ENDBRANCH 17 20
ENDBRANCH 1 16
TORSDOF 9
ENDMDL
MODEL 14
USER: ADFR SOLUTION from run 12
USER: SCORE 8.772126 LL:  -1.625 LR:  -8.152 RR:   0.000 FEB:  -5.467
USER: RMSD 8.546785
USER: SEED 190763
USER: STATUS no improvement in best in 24 clusters for 5 generations
USER: GENES 11
USER: genes 0 Translation |==|  0.68198 0.73379 0.46693
USER: genes 1 Rotation |==|  0.54879 0.96675 0.37209 0.61575
USER: genes 2 Torsion [N]-CA--C-[N] |==|  0.09682
USER: genes 3 Torsion [C]-N--CA-[C] |==|  0.83143
USER: genes 4 Torsion [N]-CA--C-[N] |==|  0.92938
USER: genes 5 Torsion [C]-N--CA-[C] |==|  0.79344
USER: genes 6 Torsion [N]-CA--C-[O] |==|  0.16147
USER: genes 7 Torsion [CB]-CA--N-[C] |==|  0.82769
USER: genes 8 Torsion [N]-C--CA-[N] |==|  0.34444
USER: genes 9 Torsion [C]-CA--N-[C] |==|  0.83433
USER: genes 10 Torsion [N]-C--CA-[N] |==|  0.15372
ROOT
ATOM      1  CA  ALA F 463      38.527 -23.144  24.858  1.00 80.84 LIG 0.17  C 
ATOM      2  CB  ALA F 463      38.893 -21.722  25.252  1.00 75.28 LIG 0.04  C 
ENDROOT
BRANCH 1 3
ATOM      3  C   ALA F 463      37.253 -23.158  24.022  1.00 84.46 LIG 0.24  C 
ATOM      4 O    ALA F 463      36.447 -22.229  24.086  1.00 85.06 LIG-0.27  OA
ATOM      5  N   GLY F 464      37.073 -24.217  23.241  1.00 87.45 LIG-0.35  N 
ATOM      6 H    GLY F 464      37.652 -24.846  23.145  1.00 87.45 LIG 0.16  HD
BRANCH 5 7
ATOM      7  CA  GLY F 464      35.857 -24.403  22.471  1.00 89.28 LIG 0.23  C 
BRANCH 7 8
ATOM      8  C   GLY F 464      34.584 -24.500  23.293  1.00 90.16 LIG 0.23  C 
ATOM      9 O    GLY F 464      33.499 -24.194  22.796  1.00 90.52 LIG-0.27  OA
ATOM     10  N   ALA F 465      34.711 -24.925  24.548  1.00 88.18 LIG-0.35  N 
ATOM     11 H    ALA F 465      35.465 -25.121  24.913  1.00 88.18 LIG 0.16  HD
BRANCH 10 12
ATOM     12  CA  ALA F 465      33.558 -25.099  25.428  1.00 85.90 LIG 0.16  C 
ATOM     13  CB  ALA F 465      33.927 -25.973  26.618  1.00 84.54 LIG 0.04  C 
BRANCH 12 14
ATOM     14  C   ALA F 465      33.010 -23.756  25.910  1.00 85.67 LIG 0.22  C 
ATOM     15 O    ALA F 465      32.631 -22.903  25.103  1.00 84.89 LIG-0.29  OA
ENDBRANCH 12 14
ENDBRANCH 10 12
ENDBRANCH 7 8
ENDBRANCH 5 7
ENDBRANCH 1 3
BRANCH 1 16
ATOM     16  N   ALA F 463      39.618 -23.770  24.120  1.00 83.00 LIG-0.35  N 
ATOM     17  C   GLY F 462      40.042 -23.289  22.954  1.00 85.58 LIG 0.24  C 
ATOM     18 O    GLY F 462      39.543 -22.303  22.411  1.00 87.56 LIG-0.27  OA
ATOM     19 H    ALA F 463      39.953 -24.464  24.503  1.00 83.00 LIG 0.16  HD
BRANCH 17 20
ATOM     20  CA  GLY F 462      41.193 -24.027  22.302  1.00 87.31 LIG 0.23  C 
BRANCH 20 21
ATOM     21  N   GLY F 462      40.876 -24.469  20.957  1.00 88.73 LIG-0.35  N 
ATOM     22  C   ALA F 461      39.866 -25.294  20.707  1.00 88.98 LIG 0.26  C 
ATOM     23 O    ALA F 461      39.132 -25.745  21.586  1.00 91.33 LIG-0.27  OA
ATOM     24 H    GLY F 462      41.394 -24.150  20.349  1.00 88.73 LIG 0.16  HD
BRANCH 22 25
ATOM     25  CA  ALA F 461      39.656 -25.670  19.245  1.00 85.90 LIG 0.40  C 
ATOM     26  CB  ALA F 461      38.502 -26.650  19.104  1.00 82.87 LIG 0.06  C 
ATOM     27  N   ALA F 461      40.876 -26.233  18.675  1.00 83.73 LIG 0.61  N 
ENDBRANCH 22 25
ENDBRANCH 20 21
ENDBRANCH 17 20
ENDBRANCH 1 16
TORSDOF 9
ENDMDL
MODEL 15
USER: ADFR SOLUTION from run 178
USER: SCORE 7.650614 LL:  -1.738 LR:  -8.136 RR:   0.000 FEB:  -5.451
USER: RMSD 8.508828
USER: SEED 177
USER: STATUS no improvement in best in 26 clusters for 5 generations
USER: GENES 11
USER: genes 0 Translation |==|  0.72003 0.54590 0.21010
USER: genes 1 Rotation |==|  0.57670 0.49053 0.91924 0.76127
USER: genes 2 Torsion [N]-CA--C-[N] |==|  0.35752
USER: genes 3 Torsion [C]-N--CA-[C] |==|  0.25867
USER: genes 4 Torsion [N]-CA--C-[N] |==|  0.86298
USER: genes 5 Torsion [C]-N--CA-[C] |==|  0.67357
USER: genes 6 Torsion [N]-CA--C-[O] |==|  0.01751
USER: genes 7 Torsion [CB]-CA--N-[C] |==|  0.11621
USER: genes 8 Torsion [N]-C--CA-[N] |==|  0.94636
USER: genes 9 Torsion [C]-CA--N-[C] |==|  0.81104
USER: genes 10 Torsion [N]-C--CA-[N] |==|  0.54679
ROOT
ATOM      1  CA  ALA F 463      39.211 -25.962  19.850  1.00 80.84 LIG 0.17  C 
ATOM      2  CB  ALA F 463      38.154 -26.675  19.020  1.00 75.28 LIG 0.04  C 
ENDROOT
BRANCH 1 3
ATOM      3  C   ALA F 463      38.662 -24.659  20.415  1.00 84.46 LIG 0.24  C 
ATOM      4 O    ALA F 463      37.820 -24.667  21.314  1.00 85.06 LIG-0.27  OA
ATOM      5  N   GLY F 464      39.138 -23.539  19.881  1.00 87.45 LIG-0.35  N 
ATOM      6 H    GLY F 464      39.765 -23.517  19.293  1.00 87.45 LIG 0.16  HD
BRANCH 5 7
ATOM      7  CA  GLY F 464      38.626 -22.234  20.257  1.00 89.28 LIG 0.23  C 
BRANCH 7 8
ATOM      8  C   GLY F 464      39.384 -21.545  21.378  1.00 90.16 LIG 0.23  C 
ATOM      9 O    GLY F 464      39.749 -20.375  21.253  1.00 90.52 LIG-0.27  OA
ATOM     10  N   ALA F 465      39.623 -22.265  22.473  1.00 88.18 LIG-0.35  N 
ATOM     11 H    ALA F 465      39.393 -23.088  22.563  1.00 88.18 LIG 0.16  HD
BRANCH 10 12
ATOM     12  CA  ALA F 465      40.309 -21.703  23.634  1.00 85.90 LIG 0.16  C 
ATOM     13  CB  ALA F 465      39.408 -21.764  24.860  1.00 84.54 LIG 0.04  C 
BRANCH 12 14
ATOM     14  C   ALA F 465      41.627 -22.424  23.913  1.00 85.67 LIG 0.22  C 
ATOM     15 O    ALA F 465      42.055 -23.279  23.134  1.00 84.89 LIG-0.29  OA
ENDBRANCH 12 14
ENDBRANCH 10 12
ENDBRANCH 7 8
ENDBRANCH 5 7
ENDBRANCH 1 3
BRANCH 1 16
ATOM     16  N   ALA F 463      39.680 -26.821  20.932  1.00 83.00 LIG-0.35  N 
ATOM     17  C   GLY F 462      39.920 -28.117  20.745  1.00 85.58 LIG 0.24  C 
ATOM     18 O    GLY F 462      39.753 -28.683  19.664  1.00 87.56 LIG-0.27  OA
ATOM     19 H    ALA F 463      39.783 -26.418  21.685  1.00 83.00 LIG 0.16  HD
BRANCH 17 20
ATOM     20  CA  GLY F 462      40.416 -28.889  21.950  1.00 87.31 LIG 0.23  C 
BRANCH 20 21
ATOM     21  N   GLY F 462      40.967 -28.021  22.974  1.00 88.73 LIG-0.35  N 
ATOM     22  C   ALA F 461      42.095 -27.343  22.791  1.00 88.98 LIG 0.26  C 
ATOM     23 O    ALA F 461      42.753 -27.401  21.753  1.00 91.33 LIG-0.27  OA
ATOM     24 H    GLY F 462      40.501 -27.988  23.696  1.00 88.73 LIG 0.16  HD
BRANCH 22 25
ATOM     25  CA  ALA F 461      42.548 -26.474  23.958  1.00 85.90 LIG 0.40  C 
ATOM     26  CB  ALA F 461      41.359 -25.775  24.599  1.00 82.87 LIG 0.06  C 
ATOM     27  N   ALA F 461      43.540 -25.497  23.521  1.00 83.73 LIG 0.61  N 
ENDBRANCH 22 25
ENDBRANCH 20 21
ENDBRANCH 17 20
ENDBRANCH 1 16
TORSDOF 9
ENDMDL
MODEL 16
USER: ADFR SOLUTION from run 51
USER: SCORE 7.897507 LL:  -1.591 LR:  -8.109 RR:   0.000 FEB:  -5.424
USER: RMSD 7.376346
USER: SEED 50
USER: STATUS no improvement in best in 29 clusters for 5 generations
USER: GENES 11
USER: genes 0 Translation |==|  0.48472 0.64067 0.45917
USER: genes 1 Rotation |==|  0.05456 0.39354 0.31740 0.58310
USER: genes 2 Torsion [N]-CA--C-[N] |==|  0.04429
USER: genes 3 Torsion [C]-N--CA-[C] |==|  0.45168
USER: genes 4 Torsion [N]-CA--C-[N] |==|  0.01667
USER: genes 5 Torsion [C]-N--CA-[C] |==|  0.64507
USER: genes 6 Torsion [N]-CA--C-[O] |==|  0.37285
USER: genes 7 Torsion [CB]-CA--N-[C] |==|  0.83228
USER: genes 8 Torsion [N]-C--CA-[N] |==|  0.51311
USER: genes 9 Torsion [C]-CA--N-[C] |==|  0.65026
USER: genes 10 Torsion [N]-C--CA-[N] |==|  0.76550
ROOT
ATOM      1  CA  ALA F 463      34.976 -24.541  24.707  1.00 80.84 LIG 0.17  C 
ATOM      2  CB  ALA F 463      34.757 -26.039  24.855  1.00 75.28 LIG 0.04  C 
ENDROOT
BRANCH 1 3
ATOM      3  C   ALA F 463      36.024 -24.051  25.698  1.00 84.46 LIG 0.24  C 
ATOM      4 O    ALA F 463      36.036 -24.464  26.858  1.00 85.06 LIG-0.27  OA
ATOM      5  N   GLY F 464      36.901 -23.166  25.237  1.00 87.45 LIG-0.35  N 
ATOM      6 H    GLY F 464      36.939 -22.911  24.417  1.00 87.45 LIG 0.16  HD
BRANCH 5 7
ATOM      7  CA  GLY F 464      37.888 -22.544  26.102  1.00 89.28 LIG 0.23  C 
BRANCH 7 8
ATOM      8  C   GLY F 464      39.055 -21.893  25.381  1.00 90.16 LIG 0.23  C 
ATOM      9 O    GLY F 464      40.002 -21.435  26.021  1.00 90.52 LIG-0.27  OA
ATOM     10  N   ALA F 465      38.991 -21.851  24.051  1.00 88.18 LIG-0.35  N 
ATOM     11 H    ALA F 465      38.325 -22.147  23.595  1.00 88.18 LIG 0.16  HD
BRANCH 10 12
ATOM     12  CA  ALA F 465      40.068 -21.286  23.242  1.00 85.90 LIG 0.16  C 
ATOM     13  CB  ALA F 465      40.798 -22.390  22.489  1.00 84.54 LIG 0.04  C 
BRANCH 12 14
ATOM     14  C   ALA F 465      39.546 -20.236  22.263  1.00 85.67 LIG 0.22  C 
ATOM     15 O    ALA F 465      40.126 -19.155  22.128  1.00 84.89 LIG-0.29  OA
ENDBRANCH 12 14
ENDBRANCH 10 12
ENDBRANCH 7 8
ENDBRANCH 5 7
ENDBRANCH 1 3
BRANCH 1 16
ATOM     16  N   ALA F 463      35.382 -24.213  23.344  1.00 83.00 LIG-0.35  N 
ATOM     17  C   GLY F 462      36.493 -24.710  22.805  1.00 85.58 LIG 0.24  C 
ATOM     18 O    GLY F 462      37.258 -25.460  23.412  1.00 87.56 LIG-0.27  OA
ATOM     19 H    ALA F 463      34.846 -23.681  22.933  1.00 83.00 LIG 0.16  HD
BRANCH 17 20
ATOM     20  CA  GLY F 462      36.788 -24.300  21.377  1.00 87.31 LIG 0.23  C 
BRANCH 20 21
ATOM     21  N   GLY F 462      37.954 -24.973  20.839  1.00 88.73 LIG-0.35  N 
ATOM     22  C   ALA F 461      38.972 -24.303  20.308  1.00 88.98 LIG 0.26  C 
ATOM     23 O    ALA F 461      39.001 -23.075  20.231  1.00 91.33 LIG-0.27  OA
ATOM     24 H    GLY F 462      37.925 -25.831  20.895  1.00 88.73 LIG 0.16  HD
BRANCH 22 25
ATOM     25  CA  ALA F 461      40.126 -25.148  19.783  1.00 85.90 LIG 0.40  C 
ATOM     26  CB  ALA F 461      39.604 -26.410  19.112  1.00 82.87 LIG 0.06  C 
ATOM     27  N   ALA F 461      41.051 -25.488  20.859  1.00 83.73 LIG 0.61  N 
ENDBRANCH 22 25
ENDBRANCH 20 21
ENDBRANCH 17 20
ENDBRANCH 1 16
TORSDOF 9
ENDMDL
MODEL 17
USER: ADFR SOLUTION from run 20
USER: SCORE 7.921586 LL:  -1.232 LR:  -8.096 RR:   0.000 FEB:  -5.411
USER: RMSD 8.348331
USER: SEED 19
USER: STATUS no improvement in best in 14 clusters for 5 generations
USER: GENES 11
USER: genes 0 Translation |==|  0.74998 0.43776 0.19670
USER: genes 1 Rotation |==|  0.42348 0.53545 0.87908 0.81494
USER: genes 2 Torsion [N]-CA--C-[N] |==|  0.99474
USER: genes 3 Torsion [C]-N--CA-[C] |==|  0.53707
USER: genes 4 Torsion [N]-CA--C-[N] |==|  0.34451
USER: genes 5 Torsion [C]-N--CA-[C] |==|  0.60334
USER: genes 6 Torsion [N]-CA--C-[O] |==|  0.09272
USER: genes 7 Torsion [CB]-CA--N-[C] |==|  0.22775
USER: genes 8 Torsion [N]-C--CA-[N] |==|  0.45725
USER: genes 9 Torsion [C]-CA--N-[C] |==|  0.24379
USER: genes 10 Torsion [N]-C--CA-[N] |==|  0.22911
ROOT
ATOM      1  CA  ALA F 463      39.751 -27.585  19.589  1.00 80.84 LIG 0.17  C 
ATOM      2  CB  ALA F 463      38.824 -28.474  18.773  1.00 75.28 LIG 0.04  C 
ENDROOT
BRANCH 1 3
ATOM      3  C   ALA F 463      39.519 -26.117  19.253  1.00 84.46 LIG 0.24  C 
ATOM      4 O    ALA F 463      39.671 -25.701  18.104  1.00 85.06 LIG-0.27  OA
ATOM      5  N   GLY F 464      39.153 -25.333  20.261  1.00 87.45 LIG-0.35  N 
ATOM      6 H    GLY F 464      38.990 -25.619  21.056  1.00 87.45 LIG 0.16  HD
BRANCH 5 7
ATOM      7  CA  GLY F 464      38.997 -23.899  20.099  1.00 89.28 LIG 0.23  C 
BRANCH 7 8
ATOM      8  C   GLY F 464      38.889 -23.114  21.394  1.00 90.16 LIG 0.23  C 
ATOM      9 O    GLY F 464      38.019 -23.395  22.220  1.00 90.52 LIG-0.27  OA
ATOM     10  N   ALA F 465      39.769 -22.130  21.575  1.00 88.18 LIG-0.35  N 
ATOM     11 H    ALA F 465      40.366 -21.911  20.997  1.00 88.18 LIG 0.16  HD
BRANCH 10 12
ATOM     12  CA  ALA F 465      39.793 -21.328  22.796  1.00 85.90 LIG 0.16  C 
ATOM     13  CB  ALA F 465      40.795 -21.904  23.787  1.00 84.54 LIG 0.04  C 
BRANCH 12 14
ATOM     14  C   ALA F 465      40.123 -19.866  22.503  1.00 85.67 LIG 0.22  C 
ATOM     15 O    ALA F 465      39.751 -19.333  21.454  1.00 84.89 LIG-0.29  OA
ENDBRANCH 12 14
ENDBRANCH 10 12
ENDBRANCH 7 8
ENDBRANCH 5 7
ENDBRANCH 1 3
BRANCH 1 16
ATOM     16  N   ALA F 463      39.554 -27.810  21.017  1.00 83.00 LIG-0.35  N 
ATOM     17  C   GLY F 462      40.133 -28.827  21.652  1.00 85.58 LIG 0.24  C 
ATOM     18 O    GLY F 462      40.855 -29.649  21.088  1.00 87.56 LIG-0.27  OA
ATOM     19 H    ALA F 463      39.039 -27.237  21.398  1.00 83.00 LIG 0.16  HD
BRANCH 17 20
ATOM     20  CA  GLY F 462      39.855 -28.936  23.137  1.00 87.31 LIG 0.23  C 
BRANCH 20 21
ATOM     21  N   GLY F 462      40.215 -30.235  23.673  1.00 88.73 LIG-0.35  N 
ATOM     22  C   ALA F 461      41.440 -30.500  24.114  1.00 88.98 LIG 0.26  C 
ATOM     23 O    ALA F 461      42.353 -29.675  24.100  1.00 91.33 LIG-0.27  OA
ATOM     24 H    GLY F 462      39.572 -30.805  23.677  1.00 88.73 LIG 0.16  HD
BRANCH 22 25
ATOM     25  CA  ALA F 461      41.667 -31.910  24.647  1.00 85.90 LIG 0.40  C 
ATOM     26  CB  ALA F 461      42.812 -31.926  25.648  1.00 82.87 LIG 0.06  C 
ATOM     27  N   ALA F 461      41.931 -32.840  23.554  1.00 83.73 LIG 0.61  N 
ENDBRANCH 22 25
ENDBRANCH 20 21
ENDBRANCH 17 20
ENDBRANCH 1 16
TORSDOF 9
ENDMDL
MODEL 18
USER: ADFR SOLUTION from run 57
USER: SCORE 8.240744 LL:  -1.030 LR:  -8.087 RR:   0.000 FEB:  -5.402
USER: RMSD 8.980175
USER: SEED 56
USER: STATUS no improvement in best in 17 clusters for 5 generations
USER: GENES 11
USER: genes 0 Translation |==|  0.42386 0.65245 0.42185
USER: genes 1 Rotation |==|  0.14533 0.50246 0.17516 0.63669
USER: genes 2 Torsion [N]-CA--C-[N] |==|  0.39388
USER: genes 3 Torsion [C]-N--CA-[C] |==|  0.70986
USER: genes 4 Torsion [N]-CA--C-[N] |==|  0.74240
USER: genes 5 Torsion [C]-N--CA-[C] |==|  0.78323
USER: genes 6 Torsion [N]-CA--C-[O] |==|  0.30846
USER: genes 7 Torsion [CB]-CA--N-[C] |==|  0.84444
USER: genes 8 Torsion [N]-C--CA-[N] |==|  0.56318
USER: genes 9 Torsion [C]-CA--N-[C] |==|  0.42679
USER: genes 10 Torsion [N]-C--CA-[N] |==|  0.79579
ROOT
ATOM      1  CA  ALA F 463      33.881 -24.364  23.979  1.00 80.84 LIG 0.17  C 
ATOM      2  CB  ALA F 463      33.380 -25.534  23.146  1.00 75.28 LIG 0.04  C 
ENDROOT
BRANCH 1 3
ATOM      3  C   ALA F 463      34.250 -24.825  25.383  1.00 84.46 LIG 0.24  C 
ATOM      4 O    ALA F 463      35.359 -25.308  25.617  1.00 85.06 LIG-0.27  OA
ATOM      5  N   GLY F 464      33.315 -24.678  26.316  1.00 87.45 LIG-0.35  N 
ATOM      6 H    GLY F 464      32.558 -24.293  26.180  1.00 87.45 LIG 0.16  HD
BRANCH 5 7
ATOM      7  CA  GLY F 464      33.501 -25.167  27.670  1.00 89.28 LIG 0.23  C 
BRANCH 7 8
ATOM      8  C   GLY F 464      32.739 -26.437  28.005  1.00 90.16 LIG 0.23  C 
ATOM      9 O    GLY F 464      33.236 -27.539  27.771  1.00 90.52 LIG-0.27  OA
ATOM     10  N   ALA F 465      31.534 -26.287  28.552  1.00 88.18 LIG-0.35  N 
ATOM     11 H    ALA F 465      31.167 -25.523  28.699  1.00 88.18 LIG 0.16  HD
BRANCH 10 12
ATOM     12  CA  ALA F 465      30.719 -27.431  28.954  1.00 85.90 LIG 0.16  C 
ATOM     13  CB  ALA F 465      29.677 -27.003  29.979  1.00 84.54 LIG 0.04  C 
BRANCH 12 14
ATOM     14  C   ALA F 465      30.039 -28.088  27.755  1.00 85.67 LIG 0.22  C 
ATOM     15 O    ALA F 465      30.377 -29.213  27.376  1.00 84.89 LIG-0.29  OA
ENDBRANCH 12 14
ENDBRANCH 10 12
ENDBRANCH 7 8
ENDBRANCH 5 7
ENDBRANCH 1 3
BRANCH 1 16
ATOM     16  N   ALA F 463      35.029 -23.732  23.339  1.00 83.00 LIG-0.35  N 
ATOM     17  C   GLY F 462      36.122 -24.423  23.021  1.00 85.58 LIG 0.24  C 
ATOM     18 O    GLY F 462      36.250 -25.626  23.253  1.00 87.56 LIG-0.27  OA
ATOM     19 H    ALA F 463      34.934 -22.891  23.191  1.00 83.00 LIG 0.16  HD
BRANCH 17 20
ATOM     20  CA  GLY F 462      37.235 -23.647  22.348  1.00 87.31 LIG 0.23  C 
BRANCH 20 21
ATOM     21  N   GLY F 462      38.120 -24.502  21.580  1.00 88.73 LIG-0.35  N 
ATOM     22  C   ALA F 461      38.809 -24.049  20.539  1.00 88.98 LIG 0.26  C 
ATOM     23 O    ALA F 461      38.748 -22.884  20.147  1.00 91.33 LIG-0.27  OA
ATOM     24 H    GLY F 462      38.155 -25.315  21.860  1.00 88.73 LIG 0.16  HD
BRANCH 22 25
ATOM     25  CA  ALA F 461      39.696 -25.067  19.831  1.00 85.90 LIG 0.40  C 
ATOM     26  CB  ALA F 461      38.916 -26.338  19.528  1.00 82.87 LIG 0.06  C 
ATOM     27  N   ALA F 461      40.875 -25.372  20.634  1.00 83.73 LIG 0.61  N 
ENDBRANCH 22 25
ENDBRANCH 20 21
ENDBRANCH 17 20
ENDBRANCH 1 16
TORSDOF 9
ENDMDL
MODEL 19
USER: ADFR SOLUTION from run 151
USER: SCORE 7.819206 LL:  -1.172 LR:  -8.048 RR:   0.000 FEB:  -5.363
USER: RMSD 9.140822
USER: SEED 150
USER: STATUS no improvement in best in 27 clusters for 5 generations
USER: GENES 11
USER: genes 0 Translation |==|  0.60361 0.68509 0.40080
USER: genes 1 Rotation |==|  0.58435 0.01114 0.50026 0.56248
USER: genes 2 Torsion [N]-CA--C-[N] |==|  0.58935
USER: genes 3 Torsion [C]-N--CA-[C] |==|  0.28241
USER: genes 4 Torsion [N]-CA--C-[N] |==|  0.39445
USER: genes 5 Torsion [C]-N--CA-[C] |==|  0.56137
USER: genes 6 Torsion [N]-CA--C-[O] |==|  0.75590
USER: genes 7 Torsion [CB]-CA--N-[C] |==|  0.17230
USER: genes 8 Torsion [N]-C--CA-[N] |==|  0.70252
USER: genes 9 Torsion [C]-CA--N-[C] |==|  0.16914
USER: genes 10 Torsion [N]-C--CA-[N] |==|  0.16498
ROOT
ATOM      1  CA  ALA F 463      37.116 -23.875  23.569  1.00 80.84 LIG 0.17  C 
ATOM      2  CB  ALA F 463      37.340 -22.613  24.389  1.00 75.28 LIG 0.04  C 
ENDROOT
BRANCH 1 3
ATOM      3  C   ALA F 463      35.707 -24.412  23.786  1.00 84.46 LIG 0.24  C 
ATOM      4 O    ALA F 463      35.156 -25.102  22.927  1.00 85.06 LIG-0.27  OA
ATOM      5  N   GLY F 464      35.125 -24.090  24.936  1.00 87.45 LIG-0.35  N 
ATOM      6 H    GLY F 464      35.518 -23.657  25.567  1.00 87.45 LIG 0.16  HD
BRANCH 5 7
ATOM      7  CA  GLY F 464      33.750 -24.453  25.226  1.00 89.28 LIG 0.23  C 
BRANCH 7 8
ATOM      8  C   GLY F 464      33.581 -25.653  26.141  1.00 90.16 LIG 0.23  C 
ATOM      9 O    GLY F 464      34.339 -26.619  26.044  1.00 90.52 LIG-0.27  OA
ATOM     10  N   ALA F 465      32.589 -25.596  27.028  1.00 88.18 LIG-0.35  N 
ATOM     11 H    ALA F 465      32.040 -24.938  27.090  1.00 88.18 LIG 0.16  HD
BRANCH 10 12
ATOM     12  CA  ALA F 465      32.348 -26.670  27.989  1.00 85.90 LIG 0.16  C 
ATOM     13  CB  ALA F 465      33.323 -26.566  29.153  1.00 84.54 LIG 0.04  C 
BRANCH 12 14
ATOM     14  C   ALA F 465      30.909 -26.653  28.503  1.00 85.67 LIG 0.22  C 
ATOM     15 O    ALA F 465      30.598 -25.972  29.484  1.00 84.89 LIG-0.29  OA
ENDBRANCH 12 14
ENDBRANCH 10 12
ENDBRANCH 7 8
ENDBRANCH 5 7
ENDBRANCH 1 3
BRANCH 1 16
ATOM     16  N   ALA F 463      37.341 -23.612  22.151  1.00 83.00 LIG-0.35  N 
ATOM     17  C   GLY F 462      38.527 -23.222  21.690  1.00 85.58 LIG 0.24  C 
ATOM     18 O    GLY F 462      39.505 -23.041  22.416  1.00 87.56 LIG-0.27  OA
ATOM     19 H    ALA F 463      36.649 -23.731  21.655  1.00 83.00 LIG 0.16  HD
BRANCH 17 20
ATOM     20  CA  GLY F 462      38.626 -22.999  20.195  1.00 87.31 LIG 0.23  C 
BRANCH 20 21
ATOM     21  N   GLY F 462      39.382 -24.042  19.529  1.00 88.73 LIG-0.35  N 
ATOM     22  C   ALA F 461      39.000 -25.314  19.555  1.00 88.98 LIG 0.26  C 
ATOM     23 O    ALA F 461      37.990 -25.702  20.142  1.00 91.33 LIG-0.27  OA
ATOM     24 H    GLY F 462      40.087 -23.763  19.123  1.00 88.73 LIG 0.16  HD
BRANCH 22 25
ATOM     25  CA  ALA F 461      39.897 -26.296  18.811  1.00 85.90 LIG 0.40  C 
ATOM     26  CB  ALA F 461      39.320 -27.702  18.873  1.00 82.87 LIG 0.06  C 
ATOM     27  N   ALA F 461      41.251 -26.276  19.356  1.00 83.73 LIG 0.61  N 
ENDBRANCH 22 25
ENDBRANCH 20 21
ENDBRANCH 17 20
ENDBRANCH 1 16
TORSDOF 9
ENDMDL
MODEL 20
USER: ADFR SOLUTION from run 190
USER: SCORE 8.064309 LL:  -1.508 LR:  -8.053 RR:   0.000 FEB:  -5.368
USER: RMSD 8.638762
USER: SEED 189
USER: STATUS no improvement in best in 22 clusters for 5 generations
USER: GENES 11
USER: genes 0 Translation |==|  0.77323 0.34955 0.32206
USER: genes 1 Rotation |==|  0.34016 0.15144 0.28168 0.73515
USER: genes 2 Torsion [N]-CA--C-[N] |==|  0.99985
USER: genes 3 Torsion [C]-N--CA-[C] |==|  0.70214
USER: genes 4 Torsion [N]-CA--C-[N] |==|  0.78943
USER: genes 5 Torsion [C]-N--CA-[C] |==|  0.57678
USER: genes 6 Torsion [N]-CA--C-[O] |==|  0.89579
USER: genes 7 Torsion [CB]-CA--N-[C] |==|  0.26336
USER: genes 8 Torsion [N]-C--CA-[N] |==|  0.04444
USER: genes 9 Torsion [C]-CA--N-[C] |==|  0.77191
USER: genes 10 Torsion [N]-C--CA-[N] |==|  0.95955
ROOT
ATOM      1  CA  ALA F 463      40.169 -28.908  22.033  1.00 80.84 LIG 0.17  C 
ATOM      2  CB  ALA F 463      41.642 -29.269  22.154  1.00 75.28 LIG 0.04  C 
ENDROOT
BRANCH 1 3
ATOM      3  C   ALA F 463      39.547 -28.726  23.412  1.00 84.46 LIG 0.24  C 
ATOM      4 O    ALA F 463      39.573 -29.636  24.241  1.00 85.06 LIG-0.27  OA
ATOM      5  N   GLY F 464      38.982 -27.547  23.651  1.00 87.45 LIG-0.35  N 
ATOM      6 H    GLY F 464      39.005 -26.884  23.103  1.00 87.45 LIG 0.16  HD
BRANCH 5 7
ATOM      7  CA  GLY F 464      38.267 -27.277  24.885  1.00 89.28 LIG 0.23  C 
BRANCH 7 8
ATOM      8  C   GLY F 464      36.756 -27.200  24.749  1.00 90.16 LIG 0.23  C 
ATOM      9 O    GLY F 464      36.050 -28.134  25.131  1.00 90.52 LIG-0.27  OA
ATOM     10  N   ALA F 465      36.259 -26.091  24.206  1.00 88.18 LIG-0.35  N 
ATOM     11 H    ALA F 465      36.743 -25.442  23.915  1.00 88.18 LIG 0.16  HD
BRANCH 10 12
ATOM     12  CA  ALA F 465      34.821 -25.880  24.056  1.00 85.90 LIG 0.16  C 
ATOM     13  CB  ALA F 465      34.233 -25.311  25.340  1.00 84.54 LIG 0.04  C 
BRANCH 12 14
ATOM     14  C   ALA F 465      34.506 -24.958  22.879  1.00 85.67 LIG 0.22  C 
ATOM     15 O    ALA F 465      35.232 -23.995  22.620  1.00 84.89 LIG-0.29  OA
ENDBRANCH 12 14
ENDBRANCH 10 12
ENDBRANCH 7 8
ENDBRANCH 5 7
ENDBRANCH 1 3
BRANCH 1 16
ATOM     16  N   ALA F 463      40.001 -27.694  21.242  1.00 83.00 LIG-0.35  N 
ATOM     17  C   GLY F 462      39.751 -27.739  19.935  1.00 85.58 LIG 0.24  C 
ATOM     18 O    GLY F 462      39.658 -28.791  19.302  1.00 87.56 LIG-0.27  OA
ATOM     19 H    ALA F 463      40.078 -26.965  21.690  1.00 83.00 LIG 0.16  HD
BRANCH 17 20
ATOM     20  CA  GLY F 462      39.583 -26.404  19.238  1.00 87.31 LIG 0.23  C 
BRANCH 20 21
ATOM     21  N   GLY F 462      40.085 -25.299  20.031  1.00 88.73 LIG-0.35  N 
ATOM     22  C   ALA F 461      39.365 -24.741  20.998  1.00 88.98 LIG 0.26  C 
ATOM     23 O    ALA F 461      38.228 -25.113  21.289  1.00 91.33 LIG-0.27  OA
ATOM     24 H    GLY F 462      40.879 -25.045  19.820  1.00 88.73 LIG 0.16  HD
BRANCH 22 25
ATOM     25  CA  ALA F 461      40.026 -23.588  21.744  1.00 85.90 LIG 0.40  C 
ATOM     26  CB  ALA F 461      39.375 -22.265  21.369  1.00 82.87 LIG 0.06  C 
ATOM     27  N   ALA F 461      41.458 -23.548  21.470  1.00 83.73 LIG 0.61  N 
ENDBRANCH 22 25
ENDBRANCH 20 21
ENDBRANCH 17 20
ENDBRANCH 1 16
TORSDOF 9
ENDMDL
MODEL 21
USER: ADFR SOLUTION from run 37
USER: SCORE 8.618531 LL:  -1.181 LR:  -8.025 RR:   0.000 FEB:  -5.340
USER: RMSD 8.051322
USER: SEED 36
USER: STATUS no improvement in best in 23 clusters for 5 generations
USER: GENES 11
USER: genes 0 Translation |==|  0.74845 0.60683 0.20983
USER: genes 1 Rotation |==|  0.63172 0.51109 0.96929 0.61089
USER: genes 2 Torsion [N]-CA--C-[N] |==|  0.88690
USER: genes 3 Torsion [C]-N--CA-[C] |==|  0.84365
USER: genes 4 Torsion [N]-CA--C-[N] |==|  0.98263
USER: genes 5 Torsion [C]-N--CA-[C] |==|  0.68573
USER: genes 6 Torsion [N]-CA--C-[O] |==|  0.54531
USER: genes 7 Torsion [CB]-CA--N-[C] |==|  0.86505
USER: genes 8 Torsion [N]-C--CA-[N] |==|  0.47328
USER: genes 9 Torsion [C]-CA--N-[C] |==|  0.23042
USER: genes 10 Torsion [N]-C--CA-[N] |==|  0.21599
ROOT
ATOM      1  CA  ALA F 463      39.723 -25.049  19.845  1.00 80.84 LIG 0.17  C 
ATOM      2  CB  ALA F 463      39.123 -26.195  19.046  1.00 75.28 LIG 0.04  C 
ENDROOT
BRANCH 1 3
ATOM      3  C   ALA F 463      38.660 -24.382  20.709  1.00 84.46 LIG 0.24  C 
ATOM      4 O    ALA F 463      38.103 -23.348  20.338  1.00 85.06 LIG-0.27  OA
ATOM      5  N   GLY F 464      38.383 -24.977  21.864  1.00 87.45 LIG-0.35  N 
ATOM      6 H    GLY F 464      38.723 -25.728  22.111  1.00 87.45 LIG 0.16  HD
BRANCH 5 7
ATOM      7  CA  GLY F 464      37.465 -24.393  22.825  1.00 89.28 LIG 0.23  C 
BRANCH 7 8
ATOM      8  C   GLY F 464      37.816 -22.986  23.277  1.00 90.16 LIG 0.23  C 
ATOM      9 O    GLY F 464      37.043 -22.356  24.000  1.00 90.52 LIG-0.27  OA
ATOM     10  N   ALA F 465      38.977 -22.492  22.853  1.00 88.18 LIG-0.35  N 
ATOM     11 H    ALA F 465      39.514 -22.914  22.330  1.00 88.18 LIG 0.16  HD
BRANCH 10 12
ATOM     12  CA  ALA F 465      39.445 -21.166  23.250  1.00 85.90 LIG 0.16  C 
ATOM     13  CB  ALA F 465      40.820 -21.263  23.897  1.00 84.54 LIG 0.04  C 
BRANCH 12 14
ATOM     14  C   ALA F 465      39.488 -20.205  22.063  1.00 85.67 LIG 0.22  C 
ATOM     15 O    ALA F 465      40.126 -19.151  22.128  1.00 84.89 LIG-0.29  OA
ENDBRANCH 12 14
ENDBRANCH 10 12
ENDBRANCH 7 8
ENDBRANCH 5 7
ENDBRANCH 1 3
BRANCH 1 16
ATOM     16  N   ALA F 463      40.822 -25.523  20.678  1.00 83.00 LIG-0.35  N 
ATOM     17  C   GLY F 462      40.701 -26.601  21.450  1.00 85.58 LIG 0.24  C 
ATOM     18 O    GLY F 462      39.663 -27.259  21.530  1.00 87.56 LIG-0.27  OA
ATOM     19 H    ALA F 463      41.539 -25.051  20.623  1.00 83.00 LIG 0.16  HD
BRANCH 17 20
ATOM     20  CA  GLY F 462      41.925 -26.992  22.253  1.00 87.31 LIG 0.23  C 
BRANCH 20 21
ATOM     21  N   GLY F 462      41.640 -28.031  23.225  1.00 88.73 LIG-0.35  N 
ATOM     22  C   ALA F 461      41.618 -29.317  22.895  1.00 88.98 LIG 0.26  C 
ATOM     23 O    ALA F 461      41.833 -29.723  21.753  1.00 91.33 LIG-0.27  OA
ATOM     24 H    GLY F 462      41.489 -27.739  24.020  1.00 88.73 LIG 0.16  HD
BRANCH 22 25
ATOM     25  CA  ALA F 461      41.302 -30.291  24.024  1.00 85.90 LIG 0.40  C 
ATOM     26  CB  ALA F 461      41.790 -31.690  23.677  1.00 82.87 LIG 0.06  C 
ATOM     27  N   ALA F 461      39.871 -30.306  24.309  1.00 83.73 LIG 0.61  N 
ENDBRANCH 22 25
ENDBRANCH 20 21
ENDBRANCH 17 20
ENDBRANCH 1 16
TORSDOF 9
ENDMDL
MODEL 22
USER: ADFR SOLUTION from run 106
USER: SCORE 8.115146 LL:  -1.251 LR:  -7.966 RR:   0.000 FEB:  -5.282
USER: RMSD 4.278695
USER: SEED 105
USER: STATUS no improvement in best in 20 clusters for 5 generations
USER: GENES 11
USER: genes 0 Translation |==|  0.41596 0.58795 0.40642
USER: genes 1 Rotation |==|  0.57618 0.54907 0.51152 0.99159
USER: genes 2 Torsion [N]-CA--C-[N] |==|  0.57151
USER: genes 3 Torsion [C]-N--CA-[C] |==|  0.73570
USER: genes 4 Torsion [N]-CA--C-[N] |==|  0.59201
USER: genes 5 Torsion [C]-N--CA-[C] |==|  0.61083
USER: genes 6 Torsion [N]-CA--C-[O] |==|  0.47663
USER: genes 7 Torsion [CB]-CA--N-[C] |==|  0.80172
USER: genes 8 Torsion [N]-C--CA-[N] |==|  0.53271
USER: genes 9 Torsion [C]-CA--N-[C] |==|  0.79386
USER: genes 10 Torsion [N]-C--CA-[N] |==|  0.61675
ROOT
ATOM      1  CA  ALA F 463      33.738 -25.332  23.678  1.00 80.84 LIG 0.17  C 
ATOM      2  CB  ALA F 463      33.128 -24.002  23.261  1.00 75.28 LIG 0.04  C 
ENDROOT
BRANCH 1 3
ATOM      3  C   ALA F 463      35.254 -25.295  23.533  1.00 84.46 LIG 0.24  C 
ATOM      4 O    ALA F 463      35.976 -25.942  24.293  1.00 85.06 LIG-0.27  OA
ATOM      5  N   GLY F 464      35.734 -24.533  22.556  1.00 87.45 LIG-0.35  N 
ATOM      6 H    GLY F 464      35.241 -24.121  21.984  1.00 87.45 LIG 0.16  HD
BRANCH 5 7
ATOM      7  CA  GLY F 464      37.160 -24.331  22.372  1.00 89.28 LIG 0.23  C 
BRANCH 7 8
ATOM      8  C   GLY F 464      37.720 -23.078  23.022  1.00 90.16 LIG 0.23  C 
ATOM      9 O    GLY F 464      37.242 -22.659  24.077  1.00 90.52 LIG-0.27  OA
ATOM     10  N   ALA F 465      38.732 -22.479  22.396  1.00 88.18 LIG-0.35  N 
ATOM     11 H    ALA F 465      39.059 -22.750  21.648  1.00 88.18 LIG 0.16  HD
BRANCH 10 12
ATOM     12  CA  ALA F 465      39.382 -21.289  22.939  1.00 85.90 LIG 0.16  C 
ATOM     13  CB  ALA F 465      40.645 -21.677  23.697  1.00 84.54 LIG 0.04  C 
BRANCH 12 14
ATOM     14  C   ALA F 465      39.715 -20.279  21.842  1.00 85.67 LIG 0.22  C 
ATOM     15 O    ALA F 465      40.126 -19.151  22.128  1.00 84.89 LIG-0.29  OA
ENDBRANCH 12 14
ENDBRANCH 10 12
ENDBRANCH 7 8
ENDBRANCH 5 7
ENDBRANCH 1 3
BRANCH 1 16
ATOM     16  N   ALA F 463      33.373 -25.656  25.053  1.00 83.00 LIG-0.35  N 
ATOM     17  C   GLY F 462      33.883 -24.992  26.088  1.00 85.58 LIG 0.24  C 
ATOM     18 O    GLY F 462      34.700 -24.079  25.967  1.00 87.56 LIG-0.27  OA
ATOM     19 H    ALA F 463      32.810 -26.302  25.127  1.00 83.00 LIG 0.16  HD
BRANCH 17 20
ATOM     20  CA  GLY F 462      33.406 -25.422  27.461  1.00 87.31 LIG 0.23  C 
BRANCH 20 21
ATOM     21  N   GLY F 462      33.792 -24.484  28.498  1.00 88.73 LIG-0.35  N 
ATOM     22  C   ALA F 461      35.041 -24.399  28.942  1.00 88.98 LIG 0.26  C 
ATOM     23 O    ALA F 461      35.956 -25.103  28.515  1.00 91.33 LIG-0.27  OA
ATOM     24 H    GLY F 462      33.147 -23.998  28.792  1.00 88.73 LIG 0.16  HD
BRANCH 22 25
ATOM     25  CA  ALA F 461      35.293 -23.368  30.035  1.00 85.90 LIG 0.40  C 
ATOM     26  CB  ALA F 461      34.129 -22.393  30.131  1.00 82.87 LIG 0.06  C 
ATOM     27  N   ALA F 461      36.540 -22.650  29.793  1.00 83.73 LIG 0.61  N 
ENDBRANCH 22 25
ENDBRANCH 20 21
ENDBRANCH 17 20
ENDBRANCH 1 16
TORSDOF 9
ENDMDL
MODEL 23
USER: ADFR SOLUTION from run 176
USER: SCORE 8.385858 LL:  -1.183 LR:  -7.958 RR:   0.000 FEB:  -5.273
USER: RMSD 8.753929
USER: SEED 175
USER: STATUS no improvement in best in 41 clusters for 5 generations
USER: GENES 11
USER: genes 0 Translation |==|  0.42585 0.67815 0.44509
USER: genes 1 Rotation |==|  0.17999 0.60488 0.16725 0.66085
USER: genes 2 Torsion [N]-CA--C-[N] |==|  0.38778
USER: genes 3 Torsion [C]-N--CA-[C] |==|  0.28255
USER: genes 4 Torsion [N]-CA--C-[N] |==|  0.07778
USER: genes 5 Torsion [C]-N--CA-[C] |==|  0.77114
USER: genes 6 Torsion [N]-CA--C-[O] |==|  0.96803
USER: genes 7 Torsion [CB]-CA--N-[C] |==|  0.87067
USER: genes 8 Torsion [N]-C--CA-[N] |==|  0.51402
USER: genes 9 Torsion [C]-CA--N-[C] |==|  0.37899
USER: genes 10 Torsion [N]-C--CA-[N] |==|  0.77369
ROOT
ATOM      1  CA  ALA F 463      33.916 -23.979  24.432  1.00 80.84 LIG 0.17  C 
ATOM      2  CB  ALA F 463      33.197 -24.616  23.253  1.00 75.28 LIG 0.04  C 
ENDROOT
BRANCH 1 3
ATOM      3  C   ALA F 463      34.106 -24.990  25.556  1.00 84.46 LIG 0.24  C 
ATOM      4 O    ALA F 463      35.038 -25.794  25.530  1.00 85.06 LIG-0.27  OA
ATOM      5  N   GLY F 464      33.215 -24.949  26.540  1.00 87.45 LIG-0.35  N 
ATOM      6 H    GLY F 464      32.592 -24.359  26.599  1.00 87.45 LIG 0.16  HD
BRANCH 5 7
ATOM      7  CA  GLY F 464      33.221 -25.921  27.619  1.00 89.28 LIG 0.23  C 
BRANCH 7 8
ATOM      8  C   GLY F 464      33.825 -25.429  28.923  1.00 90.16 LIG 0.23  C 
ATOM      9 O    GLY F 464      34.351 -26.225  29.703  1.00 90.52 LIG-0.27  OA
ATOM     10  N   ALA F 465      33.751 -24.121  29.163  1.00 88.18 LIG-0.35  N 
ATOM     11 H    ALA F 465      33.367 -23.559  28.637  1.00 88.18 LIG 0.16  HD
BRANCH 10 12
ATOM     12  CA  ALA F 465      34.329 -23.520  30.363  1.00 85.90 LIG 0.16  C 
ATOM     13  CB  ALA F 465      34.661 -22.055  30.113  1.00 84.54 LIG 0.04  C 
BRANCH 12 14
ATOM     14  C   ALA F 465      33.394 -23.651  31.564  1.00 85.67 LIG 0.22  C 
ATOM     15 O    ALA F 465      32.225 -24.016  31.417  1.00 84.89 LIG-0.29  OA
ENDBRANCH 12 14
ENDBRANCH 10 12
ENDBRANCH 7 8
ENDBRANCH 5 7
ENDBRANCH 1 3
BRANCH 1 16
ATOM     16  N   ALA F 463      35.208 -23.442  24.017  1.00 83.00 LIG-0.35  N 
ATOM     17  C   GLY F 462      36.049 -24.146  23.262  1.00 85.58 LIG 0.24  C 
ATOM     18 O    GLY F 462      35.811 -25.291  22.876  1.00 87.56 LIG-0.27  OA
ATOM     19 H    ALA F 463      35.369 -22.647  24.300  1.00 83.00 LIG 0.16  HD
BRANCH 17 20
ATOM     20  CA  GLY F 462      37.349 -23.463  22.891  1.00 87.31 LIG 0.23  C 
BRANCH 20 21
ATOM     21  N   GLY F 462      38.148 -24.255  21.975  1.00 88.73 LIG-0.35  N 
ATOM     22  C   ALA F 461      38.757 -23.717  20.924  1.00 88.98 LIG 0.26  C 
ATOM     23 O    ALA F 461      38.689 -22.520  20.648  1.00 91.33 LIG-0.27  OA
ATOM     24 H    GLY F 462      38.189 -25.091  22.174  1.00 88.73 LIG 0.16  HD
BRANCH 22 25
ATOM     25  CA  ALA F 461      39.559 -24.676  20.053  1.00 85.90 LIG 0.40  C 
ATOM     26  CB  ALA F 461      38.806 -25.985  19.864  1.00 82.87 LIG 0.06  C 
ATOM     27  N   ALA F 461      40.875 -24.925  20.632  1.00 83.73 LIG 0.61  N 
ENDBRANCH 22 25
ENDBRANCH 20 21
ENDBRANCH 17 20
ENDBRANCH 1 16
TORSDOF 9
ENDMDL
MODEL 24
USER: ADFR SOLUTION from run 108
USER: SCORE 8.679147 LL:  -1.421 LR:  -7.930 RR:   0.000 FEB:  -5.245
USER: RMSD 7.211933
USER: SEED 107
USER: STATUS no improvement in best in 21 clusters for 5 generations
USER: GENES 11
USER: genes 0 Translation |==|  0.78736 0.47721 0.27686
USER: genes 1 Rotation |==|  0.67836 0.43902 0.78930 0.86163
USER: genes 2 Torsion [N]-CA--C-[N] |==|  0.40741
USER: genes 3 Torsion [C]-N--CA-[C] |==|  0.79593
USER: genes 4 Torsion [N]-CA--C-[N] |==|  0.86190
USER: genes 5 Torsion [C]-N--CA-[C] |==|  0.21107
USER: genes 6 Torsion [N]-CA--C-[O] |==|  0.25461
USER: genes 7 Torsion [CB]-CA--N-[C] |==|  0.51122
USER: genes 8 Torsion [N]-C--CA-[N] |==|  0.92883
USER: genes 9 Torsion [C]-CA--N-[C] |==|  0.82211
USER: genes 10 Torsion [N]-C--CA-[N] |==|  0.23635
ROOT
ATOM      1  CA  ALA F 463      40.424 -26.993  21.152  1.00 80.84 LIG 0.17  C 
ATOM      2  CB  ALA F 463      39.022 -26.626  20.688  1.00 75.28 LIG 0.04  C 
ENDROOT
BRANCH 1 3
ATOM      3  C   ALA F 463      40.947 -25.962  22.145  1.00 84.46 LIG 0.24  C 
ATOM      4 O    ALA F 463      40.738 -26.087  23.352  1.00 85.06 LIG-0.27  OA
ATOM      5  N   GLY F 464      41.624 -24.941  21.631  1.00 87.45 LIG-0.35  N 
ATOM      6 H    GLY F 464      41.825 -24.870  20.797  1.00 87.45 LIG 0.16  HD
BRANCH 5 7
ATOM      7  CA  GLY F 464      42.090 -23.840  22.453  1.00 89.28 LIG 0.23  C 
BRANCH 7 8
ATOM      8  C   GLY F 464      41.007 -22.881  22.916  1.00 90.16 LIG 0.23  C 
ATOM      9 O    GLY F 464      40.924 -22.565  24.104  1.00 90.52 LIG-0.27  OA
ATOM     10  N   ALA F 465      40.178 -22.416  21.983  1.00 88.18 LIG-0.35  N 
ATOM     11 H    ALA F 465      40.213 -22.646  21.155  1.00 88.18 LIG 0.16  HD
BRANCH 10 12
ATOM     12  CA  ALA F 465      39.121 -21.458  22.295  1.00 85.90 LIG 0.16  C 
ATOM     13  CB  ALA F 465      38.357 -21.899  23.536  1.00 84.54 LIG 0.04  C 
BRANCH 12 14
ATOM     14  C   ALA F 465      39.678 -20.049  22.492  1.00 85.67 LIG 0.22  C 
ATOM     15 O    ALA F 465      39.751 -19.261  21.545  1.00 84.89 LIG-0.29  OA
ENDBRANCH 12 14
ENDBRANCH 10 12
ENDBRANCH 7 8
ENDBRANCH 5 7
ENDBRANCH 1 3
BRANCH 1 16
ATOM     16  N   ALA F 463      40.434 -28.321  21.755  1.00 83.00 LIG-0.35  N 
ATOM     17  C   GLY F 462      41.533 -28.831  22.308  1.00 85.58 LIG 0.24  C 
ATOM     18 O    GLY F 462      42.610 -28.235  22.339  1.00 87.56 LIG-0.27  OA
ATOM     19 H    ALA F 463      39.681 -28.733  21.718  1.00 83.00 LIG 0.16  HD
BRANCH 17 20
ATOM     20  CA  GLY F 462      41.401 -30.214  22.910  1.00 87.31 LIG 0.23  C 
BRANCH 20 21
ATOM     21  N   GLY F 462      40.041 -30.513  23.316  1.00 88.73 LIG-0.35  N 
ATOM     22  C   ALA F 461      39.427 -29.831  24.277  1.00 88.98 LIG 0.26  C 
ATOM     23 O    ALA F 461      39.959 -28.907  24.891  1.00 91.33 LIG-0.27  OA
ATOM     24 H    GLY F 462      39.678 -31.161  22.884  1.00 88.73 LIG 0.16  HD
BRANCH 22 25
ATOM     25  CA  ALA F 461      38.000 -30.262  24.594  1.00 85.90 LIG 0.40  C 
ATOM     26  CB  ALA F 461      37.195 -29.091  25.137  1.00 82.87 LIG 0.06  C 
ATOM     27  N   ALA F 461      37.992 -31.370  25.544  1.00 83.73 LIG 0.61  N 
ENDBRANCH 22 25
ENDBRANCH 20 21
ENDBRANCH 17 20
ENDBRANCH 1 16
TORSDOF 9
ENDMDL
MODEL 25
USER: ADFR SOLUTION from run 60
USER: SCORE 8.256683 LL:  -1.220 LR:  -7.878 RR:   0.000 FEB:  -5.193
USER: RMSD 7.923197
USER: SEED 59
USER: STATUS no improvement in best in 23 clusters for 5 generations
USER: GENES 11
USER: genes 0 Translation |==|  0.45453 0.66367 0.44244
USER: genes 1 Rotation |==|  0.21746 0.73589 0.23349 0.70856
USER: genes 2 Torsion [N]-CA--C-[N] |==|  0.19425
USER: genes 3 Torsion [C]-N--CA-[C] |==|  0.16111
USER: genes 4 Torsion [N]-CA--C-[N] |==|  0.57064
USER: genes 5 Torsion [C]-N--CA-[C] |==|  0.52086
USER: genes 6 Torsion [N]-CA--C-[O] |==|  0.42710
USER: genes 7 Torsion [CB]-CA--N-[C] |==|  0.82546
USER: genes 8 Torsion [N]-C--CA-[N] |==|  0.45598
USER: genes 9 Torsion [C]-CA--N-[C] |==|  0.30016
USER: genes 10 Torsion [N]-C--CA-[N] |==|  0.89172
ROOT
ATOM      1  CA  ALA F 463      34.432 -24.196  24.380  1.00 80.84 LIG 0.17  C 
ATOM      2  CB  ALA F 463      33.436 -23.994  23.249  1.00 75.28 LIG 0.04  C 
ENDROOT
BRANCH 1 3
ATOM      3  C   ALA F 463      34.571 -25.676  24.716  1.00 84.46 LIG 0.24  C 
ATOM      4 O    ALA F 463      34.109 -26.538  23.968  1.00 85.06 LIG-0.27  OA
ATOM      5  N   GLY F 464      35.208 -25.966  25.846  1.00 87.45 LIG-0.35  N 
ATOM      6 H    GLY F 464      35.584 -25.378  26.349  1.00 87.45 LIG 0.16  HD
BRANCH 5 7
ATOM      7  CA  GLY F 464      35.321 -27.328  26.332  1.00 89.28 LIG 0.23  C 
BRANCH 7 8
ATOM      8  C   GLY F 464      35.992 -28.299  25.376  1.00 90.16 LIG 0.23  C 
ATOM      9 O    GLY F 464      36.788 -27.887  24.530  1.00 90.52 LIG-0.27  OA
ATOM     10  N   ALA F 465      35.675 -29.585  25.505  1.00 88.18 LIG-0.35  N 
ATOM     11 H    ALA F 465      35.104 -29.882  26.077  1.00 88.18 LIG 0.16  HD
BRANCH 10 12
ATOM     12  CA  ALA F 465      36.281 -30.620  24.671  1.00 85.90 LIG 0.16  C 
ATOM     13  CB  ALA F 465      37.775 -30.714  24.949  1.00 84.54 LIG 0.04  C 
BRANCH 12 14
ATOM     14  C   ALA F 465      35.618 -31.979  24.889  1.00 85.67 LIG 0.22  C 
ATOM     15 O    ALA F 465      35.626 -32.834  23.999  1.00 84.89 LIG-0.29  OA
ENDBRANCH 12 14
ENDBRANCH 10 12
ENDBRANCH 7 8
ENDBRANCH 5 7
ENDBRANCH 1 3
BRANCH 1 16
ATOM     16  N   ALA F 463      35.733 -23.637  24.026  1.00 83.00 LIG-0.35  N 
ATOM     17  C   GLY F 462      36.440 -24.106  23.000  1.00 85.58 LIG 0.24  C 
ATOM     18 O    GLY F 462      36.064 -25.042  22.294  1.00 87.56 LIG-0.27  OA
ATOM     19 H    ALA F 463      35.991 -22.992  24.531  1.00 83.00 LIG 0.16  HD
BRANCH 17 20
ATOM     20  CA  GLY F 462      37.767 -23.425  22.733  1.00 87.31 LIG 0.23  C 
BRANCH 20 21
ATOM     21  N   GLY F 462      38.625 -24.206  21.863  1.00 88.73 LIG-0.35  N 
ATOM     22  C   ALA F 461      38.864 -23.851  20.606  1.00 88.98 LIG 0.26  C 
ATOM     23 O    ALA F 461      38.380 -22.846  20.087  1.00 91.33 LIG-0.27  OA
ATOM     24 H    GLY F 462      38.957 -24.908  22.233  1.00 88.73 LIG 0.16  HD
BRANCH 22 25
ATOM     25  CA  ALA F 461      39.785 -24.773  19.815  1.00 85.90 LIG 0.40  C 
ATOM     26  CB  ALA F 461      39.002 -25.941  19.233  1.00 82.87 LIG 0.06  C 
ATOM     27  N   ALA F 461      40.876 -25.259  20.653  1.00 83.73 LIG 0.61  N 
ENDBRANCH 22 25
ENDBRANCH 20 21
ENDBRANCH 17 20
ENDBRANCH 1 16
TORSDOF 9
ENDMDL
MODEL 26
USER: ADFR SOLUTION from run 190
USER: SCORE 7.666640 LL:  -1.128 LR:  -7.865 RR:   0.000 FEB:  -5.181
USER: RMSD 3.832301
USER: SEED 189
USER: STATUS no improvement in best in 22 clusters for 5 generations
USER: GENES 11
USER: genes 0 Translation |==|  0.58382 0.57437 0.45628
USER: genes 1 Rotation |==|  0.18542 0.57724 0.81283 0.71729
USER: genes 2 Torsion [N]-CA--C-[N] |==|  0.40018
USER: genes 3 Torsion [C]-N--CA-[C] |==|  0.30297
USER: genes 4 Torsion [N]-CA--C-[N] |==|  0.63134
USER: genes 5 Torsion [C]-N--CA-[C] |==|  0.82172
USER: genes 6 Torsion [N]-CA--C-[O] |==|  0.40192
USER: genes 7 Torsion [CB]-CA--N-[C] |==|  0.85680
USER: genes 8 Torsion [N]-C--CA-[N] |==|  0.72436
USER: genes 9 Torsion [C]-CA--N-[C] |==|  0.17641
USER: genes 10 Torsion [N]-C--CA-[N] |==|  0.73220
ROOT
ATOM      1  CA  ALA F 463      36.760 -25.535  24.650  1.00 80.84 LIG 0.17  C 
ATOM      2  CB  ALA F 463      36.431 -27.011  24.486  1.00 75.28 LIG 0.04  C 
ENDROOT
BRANCH 1 3
ATOM      3  C   ALA F 463      36.938 -24.871  23.291  1.00 84.46 LIG 0.24  C 
ATOM      4 O    ALA F 463      35.970 -24.421  22.677  1.00 85.06 LIG-0.27  OA
ATOM      5  N   GLY F 464      38.180 -24.815  22.822  1.00 87.45 LIG-0.35  N 
ATOM      6 H    GLY F 464      38.871 -25.075  23.263  1.00 87.45 LIG 0.16  HD
BRANCH 5 7
ATOM      7  CA  GLY F 464      38.476 -24.299  21.498  1.00 89.28 LIG 0.23  C 
BRANCH 7 8
ATOM      8  C   GLY F 464      39.178 -22.953  21.474  1.00 90.16 LIG 0.23  C 
ATOM      9 O    GLY F 464      40.151 -22.748  22.201  1.00 90.52 LIG-0.27  OA
ATOM     10  N   ALA F 465      38.688 -22.035  20.643  1.00 88.18 LIG-0.35  N 
ATOM     11 H    ALA F 465      37.996 -22.160  20.148  1.00 88.18 LIG 0.16  HD
BRANCH 10 12
ATOM     12  CA  ALA F 465      39.298 -20.716  20.500  1.00 85.90 LIG 0.16  C 
ATOM     13  CB  ALA F 465      38.637 -19.948  19.364  1.00 84.54 LIG 0.04  C 
BRANCH 12 14
ATOM     14  C   ALA F 465      39.214 -19.913  21.797  1.00 85.67 LIG 0.22  C 
ATOM     15 O    ALA F 465      40.127 -19.151  22.127  1.00 84.89 LIG-0.29  OA
ENDBRANCH 12 14
ENDBRANCH 10 12
ENDBRANCH 7 8
ENDBRANCH 5 7
ENDBRANCH 1 3
BRANCH 1 16
ATOM     16  N   ALA F 463      35.713 -24.857  25.408  1.00 83.00 LIG-0.35  N 
ATOM     17  C   GLY F 462      34.429 -24.958  25.073  1.00 85.58 LIG 0.24  C 
ATOM     18 O    GLY F 462      34.034 -25.610  24.105  1.00 87.56 LIG-0.27  OA
ATOM     19 H    ALA F 463      36.000 -24.397  26.075  1.00 83.00 LIG 0.16  HD
BRANCH 17 20
ATOM     20  CA  GLY F 462      33.445 -24.215  25.953  1.00 87.31 LIG 0.23  C 
BRANCH 20 21
ATOM     21  N   GLY F 462      32.807 -25.083  26.924  1.00 88.73 LIG-0.35  N 
ATOM     22  C   ALA F 461      33.496 -25.700  27.878  1.00 88.98 LIG 0.26  C 
ATOM     23 O    ALA F 461      34.715 -25.587  28.007  1.00 91.33 LIG-0.27  OA
ATOM     24 H    GLY F 462      31.956 -25.157  26.826  1.00 88.73 LIG 0.16  HD
BRANCH 22 25
ATOM     25  CA  ALA F 461      32.687 -26.580  28.823  1.00 85.90 LIG 0.40  C 
ATOM     26  CB  ALA F 461      31.426 -27.085  28.138  1.00 82.87 LIG 0.06  C 
ATOM     27  N   ALA F 461      32.349 -25.855  30.044  1.00 83.73 LIG 0.61  N 
ENDBRANCH 22 25
ENDBRANCH 20 21
ENDBRANCH 17 20
ENDBRANCH 1 16
TORSDOF 9
ENDMDL
MODEL 27
USER: ADFR SOLUTION from run 60
USER: SCORE 7.673625 LL:  -0.945 LR:  -7.858 RR:   0.000 FEB:  -5.173
USER: RMSD 3.943409
USER: SEED 59
USER: STATUS no improvement in best in 23 clusters for 5 generations
USER: GENES 11
USER: genes 0 Translation |==|  0.45572 0.59623 0.38628
USER: genes 1 Rotation |==|  0.60430 0.55773 0.61276 0.97231
USER: genes 2 Torsion [N]-CA--C-[N] |==|  0.38620
USER: genes 3 Torsion [C]-N--CA-[C] |==|  0.47046
USER: genes 4 Torsion [N]-CA--C-[N] |==|  0.90598
USER: genes 5 Torsion [C]-N--CA-[C] |==|  0.47419
USER: genes 6 Torsion [N]-CA--C-[O] |==|  0.58757
USER: genes 7 Torsion [CB]-CA--N-[C] |==|  0.87778
USER: genes 8 Torsion [N]-C--CA-[N] |==|  0.50516
USER: genes 9 Torsion [C]-CA--N-[C] |==|  0.76943
USER: genes 10 Torsion [N]-C--CA-[N] |==|  0.27739
ROOT
ATOM      1  CA  ALA F 463      34.454 -25.208  23.285  1.00 80.84 LIG 0.17  C 
ATOM      2  CB  ALA F 463      33.371 -24.165  23.049  1.00 75.28 LIG 0.04  C 
ENDROOT
BRANCH 1 3
ATOM      3  C   ALA F 463      35.836 -24.570  23.222  1.00 84.46 LIG 0.24  C 
ATOM      4 O    ALA F 463      36.301 -23.975  24.195  1.00 85.06 LIG-0.27  OA
ATOM      5  N   GLY F 464      36.488 -24.693  22.071  1.00 87.45 LIG-0.35  N 
ATOM      6 H    GLY F 464      36.200 -25.152  21.403  1.00 87.45 LIG 0.16  HD
BRANCH 5 7
ATOM      7  CA  GLY F 464      37.769 -24.047  21.844  1.00 89.28 LIG 0.23  C 
BRANCH 7 8
ATOM      8  C   GLY F 464      38.496 -24.487  20.586  1.00 90.16 LIG 0.23  C 
ATOM      9 O    GLY F 464      39.185 -23.685  19.954  1.00 90.52 LIG-0.27  OA
ATOM     10  N   ALA F 465      38.346 -25.759  20.219  1.00 88.18 LIG-0.35  N 
ATOM     11 H    ALA F 465      37.850 -26.322  20.639  1.00 88.18 LIG 0.16  HD
BRANCH 10 12
ATOM     12  CA  ALA F 465      39.024 -26.313  19.050  1.00 85.90 LIG 0.16  C 
ATOM     13  CB  ALA F 465      40.499 -25.934  19.066  1.00 84.54 LIG 0.04  C 
BRANCH 12 14
ATOM     14  C   ALA F 465      38.871 -27.831  18.977  1.00 85.67 LIG 0.22  C 
ATOM     15 O    ALA F 465      39.759 -28.532  18.484  1.00 84.89 LIG-0.29  OA
ENDBRANCH 12 14
ENDBRANCH 10 12
ENDBRANCH 7 8
ENDBRANCH 5 7
ENDBRANCH 1 3
BRANCH 1 16
ATOM     16  N   ALA F 463      34.262 -25.864  24.574  1.00 83.00 LIG-0.35  N 
ATOM     17  C   GLY F 462      33.961 -25.175  25.673  1.00 85.58 LIG 0.24  C 
ATOM     18 O    GLY F 462      33.837 -23.950  25.688  1.00 87.56 LIG-0.27  OA
ATOM     19 H    ALA F 463      34.361 -26.718  24.555  1.00 83.00 LIG 0.16  HD
BRANCH 17 20
ATOM     20  CA  GLY F 462      33.775 -25.983  26.941  1.00 87.31 LIG 0.23  C 
BRANCH 20 21
ATOM     21  N   GLY F 462      33.407 -25.156  28.074  1.00 88.73 LIG-0.35  N 
ATOM     22  C   ALA F 461      34.314 -24.502  28.793  1.00 88.98 LIG 0.26  C 
ATOM     23 O    ALA F 461      35.521 -24.550  28.557  1.00 91.33 LIG-0.27  OA
ATOM     24 H    GLY F 462      32.563 -25.129  28.233  1.00 88.73 LIG 0.16  HD
BRANCH 22 25
ATOM     25  CA  ALA F 461      33.776 -23.675  29.954  1.00 85.90 LIG 0.40  C 
ATOM     26  CB  ALA F 461      34.474 -22.324  30.019  1.00 82.87 LIG 0.06  C 
ATOM     27  N   ALA F 461      33.932 -24.390  31.216  1.00 83.73 LIG 0.61  N 
ENDBRANCH 22 25
ENDBRANCH 20 21
ENDBRANCH 17 20
ENDBRANCH 1 16
TORSDOF 9
ENDMDL
MODEL 28
USER: ADFR SOLUTION from run 193
USER: SCORE 7.812154 LL:  -1.095 LR:  -7.805 RR:   0.000 FEB:  -5.121
USER: RMSD 9.225910
USER: SEED 192
USER: STATUS no improvement in best in 15 clusters for 5 generations
USER: GENES 11
USER: genes 0 Translation |==|  0.41700 0.67314 0.45044
USER: genes 1 Rotation |==|  0.20240 0.64889 0.16928 0.67289
USER: genes 2 Torsion [N]-CA--C-[N] |==|  0.34119
USER: genes 3 Torsion [C]-N--CA-[C] |==|  0.63066
USER: genes 4 Torsion [N]-CA--C-[N] |==|  0.74880
USER: genes 5 Torsion [C]-N--CA-[C] |==|  0.50049
USER: genes 6 Torsion [N]-CA--C-[O] |==|  0.03209
USER: genes 7 Torsion [CB]-CA--N-[C] |==|  0.86666
USER: genes 8 Torsion [N]-C--CA-[N] |==|  0.58816
USER: genes 9 Torsion [C]-CA--N-[C] |==|  0.71696
USER: genes 10 Torsion [N]-C--CA-[N] |==|  0.34247
ROOT
ATOM      1  CA  ALA F 463      33.757 -24.054  24.537  1.00 80.84 LIG 0.17  C 
ATOM      2  CB  ALA F 463      32.999 -24.399  23.264  1.00 75.28 LIG 0.04  C 
ENDROOT
BRANCH 1 3
ATOM      3  C   ALA F 463      33.830 -25.262  25.462  1.00 84.46 LIG 0.24  C 
ATOM      4 O    ALA F 463      34.455 -26.271  25.134  1.00 85.06 LIG-0.27  OA
ATOM      5  N   GLY F 464      33.185 -25.157  26.619  1.00 87.45 LIG-0.35  N 
ATOM      6 H    GLY F 464      32.792 -24.439  26.885  1.00 87.45 LIG 0.16  HD
BRANCH 5 7
ATOM      7  CA  GLY F 464      33.091 -26.269  27.547  1.00 89.28 LIG 0.23  C 
BRANCH 7 8
ATOM      8  C   GLY F 464      31.701 -26.529  28.100  1.00 90.16 LIG 0.23  C 
ATOM      9 O    GLY F 464      30.931 -27.288  27.511  1.00 90.52 LIG-0.27  OA
ATOM     10  N   ALA F 465      31.377 -25.901  29.229  1.00 88.18 LIG-0.35  N 
ATOM     11 H    ALA F 465      31.898 -25.352  29.637  1.00 88.18 LIG 0.16  HD
BRANCH 10 12
ATOM     12  CA  ALA F 465      30.085 -26.099  29.881  1.00 85.90 LIG 0.16  C 
ATOM     13  CB  ALA F 465      29.873 -27.572  30.199  1.00 84.54 LIG 0.04  C 
BRANCH 12 14
ATOM     14  C   ALA F 465      29.963 -25.263  31.154  1.00 85.67 LIG 0.22  C 
ATOM     15 O    ALA F 465      30.787 -24.381  31.411  1.00 84.89 LIG-0.29  OA
ENDBRANCH 12 14
ENDBRANCH 10 12
ENDBRANCH 7 8
ENDBRANCH 5 7
ENDBRANCH 1 3
BRANCH 1 16
ATOM     16  N   ALA F 463      35.100 -23.580  24.222  1.00 83.00 LIG-0.35  N 
ATOM     17  C   GLY F 462      35.893 -24.233  23.375  1.00 85.58 LIG 0.24  C 
ATOM     18 O    GLY F 462      35.564 -25.278  22.813  1.00 87.56 LIG-0.27  OA
ATOM     19 H    ALA F 463      35.325 -22.856  24.628  1.00 83.00 LIG 0.16  HD
BRANCH 17 20
ATOM     20  CA  GLY F 462      37.258 -23.623  23.127  1.00 87.31 LIG 0.23  C 
BRANCH 20 21
ATOM     21  N   GLY F 462      37.741 -23.876  21.783  1.00 88.73 LIG-0.35  N 
ATOM     22  C   ALA F 461      38.649 -24.812  21.526  1.00 88.98 LIG 0.26  C 
ATOM     23 O    ALA F 461      39.146 -25.524  22.398  1.00 91.33 LIG-0.27  OA
ATOM     24 H    GLY F 462      37.389 -23.373  21.181  1.00 88.73 LIG 0.16  HD
BRANCH 22 25
ATOM     25  CA  ALA F 461      39.059 -24.960  20.066  1.00 85.90 LIG 0.40  C 
ATOM     26  CB  ALA F 461      38.616 -26.310  19.520  1.00 82.87 LIG 0.06  C 
ATOM     27  N   ALA F 461      40.501 -24.797  19.914  1.00 83.73 LIG 0.61  N 
ENDBRANCH 22 25
ENDBRANCH 20 21
ENDBRANCH 17 20
ENDBRANCH 1 16
TORSDOF 9
ENDMDL
MODEL 29
USER: ADFR SOLUTION from run 162
USER: SCORE 7.706114 LL:  -1.890 LR:  -7.787 RR:   0.000 FEB:  -5.103
USER: RMSD 9.193572
USER: SEED 161
USER: STATUS no improvement in best in 26 clusters for 5 generations
USER: GENES 11
USER: genes 0 Translation |==|  0.73596 0.56130 0.18643
USER: genes 1 Rotation |==|  0.35807 0.50750 0.17366 0.85114
USER: genes 2 Torsion [N]-CA--C-[N] |==|  0.05813
USER: genes 3 Torsion [C]-N--CA-[C] |==|  0.25553
USER: genes 4 Torsion [N]-CA--C-[N] |==|  0.55380
USER: genes 5 Torsion [C]-N--CA-[C] |==|  0.78145
USER: genes 6 Torsion [N]-CA--C-[O] |==|  0.88965
USER: genes 7 Torsion [CB]-CA--N-[C] |==|  0.36918
USER: genes 8 Torsion [N]-C--CA-[N] |==|  0.90153
USER: genes 9 Torsion [C]-CA--N-[C] |==|  0.81336
USER: genes 10 Torsion [N]-C--CA-[N] |==|  0.74666
ROOT
ATOM      1  CA  ALA F 463      39.498 -25.732  19.388  1.00 80.84 LIG 0.17  C 
ATOM      2  CB  ALA F 463      40.126 -25.701  18.003  1.00 75.28 LIG 0.04  C 
ENDROOT
BRANCH 1 3
ATOM      3  C   ALA F 463      39.753 -27.073  20.063  1.00 84.46 LIG 0.24  C 
ATOM      4 O    ALA F 463      39.751 -28.118  19.411  1.00 85.06 LIG-0.27  OA
ATOM      5  N   GLY F 464      39.969 -27.041  21.374  1.00 87.45 LIG-0.35  N 
ATOM      6 H    GLY F 464      40.029 -26.316  21.832  1.00 87.45 LIG 0.16  HD
BRANCH 5 7
ATOM      7  CA  GLY F 464      40.126 -28.255  22.154  1.00 89.28 LIG 0.23  C 
BRANCH 7 8
ATOM      8  C   GLY F 464      41.558 -28.736  22.315  1.00 90.16 LIG 0.23  C 
ATOM      9 O    GLY F 464      42.497 -27.961  22.128  1.00 90.52 LIG-0.27  OA
ATOM     10  N   ALA F 465      41.727 -30.011  22.660  1.00 88.18 LIG-0.35  N 
ATOM     11 H    ALA F 465      41.080 -30.566  22.771  1.00 88.18 LIG 0.16  HD
BRANCH 10 12
ATOM     12  CA  ALA F 465      43.053 -30.582  22.883  1.00 85.90 LIG 0.16  C 
ATOM     13  CB  ALA F 465      42.952 -31.830  23.749  1.00 84.54 LIG 0.04  C 
BRANCH 12 14
ATOM     14  C   ALA F 465      43.754 -30.911  21.566  1.00 85.67 LIG 0.22  C 
ATOM     15 O    ALA F 465      43.126 -31.394  20.620  1.00 84.89 LIG-0.29  OA
ENDBRANCH 12 14
ENDBRANCH 10 12
ENDBRANCH 7 8
ENDBRANCH 5 7
ENDBRANCH 1 3
BRANCH 1 16
ATOM     16  N   ALA F 463      40.020 -24.647  20.213  1.00 83.00 LIG-0.35  N 
ATOM     17  C   GLY F 462      39.218 -23.863  20.930  1.00 85.58 LIG 0.24  C 
ATOM     18 O    GLY F 462      37.992 -23.983  20.939  1.00 87.56 LIG-0.27  OA
ATOM     19 H    ALA F 463      40.876 -24.566  20.191  1.00 83.00 LIG 0.16  HD
BRANCH 17 20
ATOM     20  CA  GLY F 462      39.893 -22.786  21.753  1.00 87.31 LIG 0.23  C 
BRANCH 20 21
ATOM     21  N   GLY F 462      41.169 -23.218  22.290  1.00 88.73 LIG-0.35  N 
ATOM     22  C   ALA F 461      41.259 -24.169  23.213  1.00 88.98 LIG 0.26  C 
ATOM     23 O    ALA F 461      40.278 -24.747  23.681  1.00 91.33 LIG-0.27  OA
ATOM     24 H    GLY F 462      41.848 -22.808  21.960  1.00 88.73 LIG 0.16  HD
BRANCH 22 25
ATOM     25  CA  ALA F 461      42.667 -24.515  23.682  1.00 85.90 LIG 0.40  C 
ATOM     26  CB  ALA F 461      43.565 -23.288  23.628  1.00 82.87 LIG 0.06  C 
ATOM     27  N   ALA F 461      43.230 -25.594  22.878  1.00 83.73 LIG 0.61  N 
ENDBRANCH 22 25
ENDBRANCH 20 21
ENDBRANCH 17 20
ENDBRANCH 1 16
TORSDOF 9
ENDMDL
MODEL 30
USER: ADFR SOLUTION from run 11
USER: SCORE 8.462784 LL:  -1.464 LR:  -7.760 RR:   0.000 FEB:  -5.076
USER: RMSD 8.399981
USER: SEED 583969
USER: STATUS no improvement in best in 31 clusters for 5 generations
USER: GENES 11
USER: genes 0 Translation |==|  0.70689 0.78422 0.40625
USER: genes 1 Rotation |==|  0.74116 0.10562 0.59894 0.66283
USER: genes 2 Torsion [N]-CA--C-[N] |==|  0.08196
USER: genes 3 Torsion [C]-N--CA-[C] |==|  0.23664
USER: genes 4 Torsion [N]-CA--C-[N] |==|  0.99063
USER: genes 5 Torsion [C]-N--CA-[C] |==|  0.61110
USER: genes 6 Torsion [N]-CA--C-[O] |==|  0.40832
USER: genes 7 Torsion [CB]-CA--N-[C] |==|  0.16077
USER: genes 8 Torsion [N]-C--CA-[N] |==|  0.82411
USER: genes 9 Torsion [C]-CA--N-[C] |==|  0.21919
USER: genes 10 Torsion [N]-C--CA-[N] |==|  0.95665
ROOT
ATOM      1  CA  ALA F 463      38.975 -22.388  23.675  1.00 80.84 LIG 0.17  C 
ATOM      2  CB  ALA F 463      38.380 -21.032  24.023  1.00 75.28 LIG 0.04  C 
ENDROOT
BRANCH 1 3
ATOM      3  C   ALA F 463      38.465 -23.459  24.631  1.00 84.46 LIG 0.24  C 
ATOM      4 O    ALA F 463      38.129 -23.170  25.780  1.00 85.06 LIG-0.27  OA
ATOM      5  N   GLY F 464      38.412 -24.697  24.153  1.00 87.45 LIG-0.35  N 
ATOM      6 H    GLY F 464      38.590 -24.904  23.337  1.00 87.45 LIG 0.16  HD
BRANCH 5 7
ATOM      7  CA  GLY F 464      38.040 -25.825  24.988  1.00 89.28 LIG 0.23  C 
BRANCH 7 8
ATOM      8  C   GLY F 464      36.546 -26.067  25.113  1.00 90.16 LIG 0.23  C 
ATOM      9 O    GLY F 464      36.126 -27.036  25.748  1.00 90.52 LIG-0.27  OA
ATOM     10  N   ALA F 465      35.744 -25.192  24.511  1.00 88.18 LIG-0.35  N 
ATOM     11 H    ALA F 465      36.026 -24.525  24.047  1.00 88.18 LIG 0.16  HD
BRANCH 10 12
ATOM     12  CA  ALA F 465      34.289 -25.294  24.590  1.00 85.90 LIG 0.16  C 
ATOM     13  CB  ALA F 465      33.753 -24.378  25.683  1.00 84.54 LIG 0.04  C 
BRANCH 12 14
ATOM     14  C   ALA F 465      33.626 -24.963  23.254  1.00 85.67 LIG 0.22  C 
ATOM     15 O    ALA F 465      32.584 -25.526  22.910  1.00 84.89 LIG-0.29  OA
ENDBRANCH 12 14
ENDBRANCH 10 12
ENDBRANCH 7 8
ENDBRANCH 5 7
ENDBRANCH 1 3
BRANCH 1 16
ATOM     16  N   ALA F 463      38.657 -22.751  22.298  1.00 83.00 LIG-0.35  N 
ATOM     17  C   GLY F 462      39.006 -21.979  21.271  1.00 85.58 LIG 0.24  C 
ATOM     18 O    GLY F 462      39.602 -20.909  21.405  1.00 87.56 LIG-0.27  OA
ATOM     19 H    ALA F 463      38.231 -23.493  22.217  1.00 83.00 LIG 0.16  HD
BRANCH 17 20
ATOM     20  CA  GLY F 462      38.626 -22.481  19.894  1.00 87.31 LIG 0.23  C 
BRANCH 20 21
ATOM     21  N   GLY F 462      39.283 -23.731  19.561  1.00 88.73 LIG-0.35  N 
ATOM     22  C   ALA F 461      38.856 -24.898  20.029  1.00 88.98 LIG 0.26  C 
ATOM     23 O    ALA F 461      37.884 -25.008  20.776  1.00 91.33 LIG-0.27  OA
ATOM     24 H    GLY F 462      39.962 -23.645  19.040  1.00 88.73 LIG 0.16  HD
BRANCH 22 25
ATOM     25  CA  ALA F 461      39.650 -26.124  19.593  1.00 85.90 LIG 0.40  C 
ATOM     26  CB  ALA F 461      40.482 -26.663  20.747  1.00 82.87 LIG 0.06  C 
ATOM     27  N   ALA F 461      40.504 -25.808  18.453  1.00 83.73 LIG 0.61  N 
ENDBRANCH 22 25
ENDBRANCH 20 21
ENDBRANCH 17 20
ENDBRANCH 1 16
TORSDOF 9
ENDMDL
MODEL 31
USER: ADFR SOLUTION from run 112
USER: SCORE 8.454271 LL:  -1.400 LR:  -7.757 RR:   0.000 FEB:  -5.072
USER: RMSD 4.406802
USER: SEED 111
USER: STATUS no improvement in best in 27 clusters for 5 generations
USER: GENES 11
USER: genes 0 Translation |==|  0.60470 0.66955 0.40016
USER: genes 1 Rotation |==|  0.88621 0.58537 0.21078 0.59952
USER: genes 2 Torsion [N]-CA--C-[N] |==|  0.48827
USER: genes 3 Torsion [C]-N--CA-[C] |==|  0.81667
USER: genes 4 Torsion [N]-CA--C-[N] |==|  0.99051
USER: genes 5 Torsion [C]-N--CA-[C] |==|  0.84040
USER: genes 6 Torsion [N]-CA--C-[O] |==|  0.49103
USER: genes 7 Torsion [CB]-CA--N-[C] |==|  0.49934
USER: genes 8 Torsion [N]-C--CA-[N] |==|  0.10660
USER: genes 9 Torsion [C]-CA--N-[C] |==|  0.18580
USER: genes 10 Torsion [N]-C--CA-[N] |==|  0.45402
ROOT
ATOM      1  CA  ALA F 463      37.136 -24.108  23.556  1.00 80.84 LIG 0.17  C 
ATOM      2  CB  ALA F 463      38.335 -24.656  24.314  1.00 75.28 LIG 0.04  C 
ENDROOT
BRANCH 1 3
ATOM      3  C   ALA F 463      37.403 -24.108  22.056  1.00 84.46 LIG 0.24  C 
ATOM      4 O    ALA F 463      36.706 -24.776  21.292  1.00 85.06 LIG-0.27  OA
ATOM      5  N   GLY F 464      38.418 -23.359  21.639  1.00 87.45 LIG-0.35  N 
ATOM      6 H    GLY F 464      38.877 -22.845  22.154  1.00 87.45 LIG 0.16  HD
BRANCH 5 7
ATOM      7  CA  GLY F 464      38.841 -23.348  20.251  1.00 89.28 LIG 0.23  C 
BRANCH 7 8
ATOM      8  C   GLY F 464      39.421 -24.657  19.745  1.00 90.16 LIG 0.23  C 
ATOM      9 O    GLY F 464      39.753 -24.774  18.565  1.00 90.52 LIG-0.27  OA
ATOM     10  N   ALA F 465      39.545 -25.641  20.634  1.00 88.18 LIG-0.35  N 
ATOM     11 H    ALA F 465      39.296 -25.578  21.455  1.00 88.18 LIG 0.16  HD
BRANCH 10 12
ATOM     12  CA  ALA F 465      40.124 -26.935  20.281  1.00 85.90 LIG 0.16  C 
ATOM     13  CB  ALA F 465      40.143 -27.855  21.494  1.00 84.54 LIG 0.04  C 
BRANCH 12 14
ATOM     14  C   ALA F 465      39.368 -27.596  19.130  1.00 85.67 LIG 0.22  C 
ATOM     15 O    ALA F 465      39.752 -28.669  18.657  1.00 84.89 LIG-0.29  OA
ENDBRANCH 12 14
ENDBRANCH 10 12
ENDBRANCH 7 8
ENDBRANCH 5 7
ENDBRANCH 1 3
BRANCH 1 16
ATOM     16  N   ALA F 463      35.940 -24.888  23.853  1.00 83.00 LIG-0.35  N 
ATOM     17  C   GLY F 462      34.760 -24.596  23.311  1.00 85.58 LIG 0.24  C 
ATOM     18 O    GLY F 462      34.588 -23.651  22.540  1.00 87.56 LIG-0.27  OA
ATOM     19 H    ALA F 463      36.068 -25.539  24.400  1.00 83.00 LIG 0.16  HD
BRANCH 17 20
ATOM     20  CA  GLY F 462      33.603 -25.497  23.694  1.00 87.31 LIG 0.23  C 
BRANCH 20 21
ATOM     21  N   GLY F 462      33.651 -25.895  25.088  1.00 88.73 LIG-0.35  N 
ATOM     22  C   ALA F 461      33.482 -25.023  26.075  1.00 88.98 LIG 0.26  C 
ATOM     23 O    ALA F 461      33.278 -23.824  25.886  1.00 91.33 LIG-0.27  OA
ATOM     24 H    GLY F 462      33.795 -26.734  25.211  1.00 88.73 LIG 0.16  HD
BRANCH 22 25
ATOM     25  CA  ALA F 461      33.560 -25.590  27.488  1.00 85.90 LIG 0.40  C 
ATOM     26  CB  ALA F 461      32.308 -26.390  27.814  1.00 82.87 LIG 0.06  C 
ATOM     27  N   ALA F 461      33.752 -24.522  28.464  1.00 83.73 LIG 0.61  N 
ENDBRANCH 22 25
ENDBRANCH 20 21
ENDBRANCH 17 20
ENDBRANCH 1 16
TORSDOF 9
ENDMDL
MODEL 32
USER: ADFR SOLUTION from run 95
USER: SCORE 8.582376 LL:  -1.213 LR:  -7.760 RR:   0.000 FEB:  -5.075
USER: RMSD 9.403049
USER: SEED 94
USER: STATUS no improvement in best in 46 clusters for 5 generations
USER: GENES 11
USER: genes 0 Translation |==|  0.82071 0.31911 0.34799
USER: genes 1 Rotation |==|  0.37213 0.18618 0.22025 0.73855
USER: genes 2 Torsion [N]-CA--C-[N] |==|  0.48225
USER: genes 3 Torsion [C]-N--CA-[C] |==|  0.23391
USER: genes 4 Torsion [N]-CA--C-[N] |==|  0.03412
USER: genes 5 Torsion [C]-N--CA-[C] |==|  0.17403
USER: genes 6 Torsion [N]-CA--C-[O] |==|  0.22288
USER: genes 7 Torsion [CB]-CA--N-[C] |==|  0.83333
USER: genes 8 Torsion [N]-C--CA-[N] |==|  0.96546
USER: genes 9 Torsion [C]-CA--N-[C] |==|  0.24237
USER: genes 10 Torsion [N]-C--CA-[N] |==|  0.97018
ROOT
ATOM      1  CA  ALA F 463      41.024 -29.364  22.539  1.00 80.84 LIG 0.17  C 
ATOM      2  CB  ALA F 463      42.463 -29.851  22.620  1.00 75.28 LIG 0.04  C 
ENDROOT
BRANCH 1 3
ATOM      3  C   ALA F 463      40.319 -29.546  23.877  1.00 84.46 LIG 0.24  C 
ATOM      4 O    ALA F 463      39.919 -28.573  24.516  1.00 85.06 LIG-0.27  OA
ATOM      5  N   GLY F 464      40.174 -30.797  24.300  1.00 87.45 LIG-0.35  N 
ATOM      6 H    GLY F 464      40.398 -31.488  23.840  1.00 87.45 LIG 0.16  HD
BRANCH 5 7
ATOM      7  CA  GLY F 464      39.611 -31.105  25.603  1.00 89.28 LIG 0.23  C 
BRANCH 7 8
ATOM      8  C   GLY F 464      38.094 -31.145  25.654  1.00 90.16 LIG 0.23  C 
ATOM      9 O    GLY F 464      37.510 -31.171  26.738  1.00 90.52 LIG-0.27  OA
ATOM     10  N   ALA F 465      37.454 -31.151  24.486  1.00 88.18 LIG-0.35  N 
ATOM     11 H    ALA F 465      37.851 -31.156  23.723  1.00 88.18 LIG 0.16  HD
BRANCH 10 12
ATOM     12  CA  ALA F 465      35.995 -31.150  24.403  1.00 85.90 LIG 0.16  C 
ATOM     13  CB  ALA F 465      35.425 -32.384  25.088  1.00 84.54 LIG 0.04  C 
BRANCH 12 14
ATOM     14  C   ALA F 465      35.397 -29.884  25.015  1.00 85.67 LIG 0.22  C 
ATOM     15 O    ALA F 465      35.369 -28.828  24.378  1.00 84.89 LIG-0.29  OA
ENDBRANCH 12 14
ENDBRANCH 10 12
ENDBRANCH 7 8
ENDBRANCH 5 7
ENDBRANCH 1 3
BRANCH 1 16
ATOM     16  N   ALA F 463      40.977 -27.964  22.133  1.00 83.00 LIG-0.35  N 
ATOM     17  C   GLY F 462      41.560 -27.007  22.852  1.00 85.58 LIG 0.24  C 
ATOM     18 O    GLY F 462      42.160 -27.225  23.905  1.00 87.56 LIG-0.27  OA
ATOM     19 H    ALA F 463      40.547 -27.820  21.403  1.00 83.00 LIG 0.16  HD
BRANCH 17 20
ATOM     20  CA  GLY F 462      41.448 -25.597  22.309  1.00 87.31 LIG 0.23  C 
BRANCH 20 21
ATOM     21  N   GLY F 462      40.965 -25.568  20.941  1.00 88.73 LIG-0.35  N 
ATOM     22  C   ALA F 461      39.668 -25.548  20.652  1.00 88.98 LIG 0.26  C 
ATOM     23 O    ALA F 461      38.788 -25.555  21.512  1.00 91.33 LIG-0.27  OA
ATOM     24 H    GLY F 462      41.587 -25.565  20.347  1.00 88.73 LIG 0.16  HD
BRANCH 22 25
ATOM     25  CA  ALA F 461      39.315 -25.520  19.170  1.00 85.90 LIG 0.40  C 
ATOM     26  CB  ALA F 461      38.653 -26.825  18.753  1.00 82.87 LIG 0.06  C 
ATOM     27  N   ALA F 461      40.501 -25.268  18.359  1.00 83.73 LIG 0.61  N 
ENDBRANCH 22 25
ENDBRANCH 20 21
ENDBRANCH 17 20
ENDBRANCH 1 16
TORSDOF 9
ENDMDL
MODEL 33
USER: ADFR SOLUTION from run 5
USER: SCORE 7.656336 LL:  -1.369 LR:  -7.735 RR:   0.000 FEB:  -5.051
USER: RMSD 6.136530
USER: SEED 96032
USER: STATUS no improvement in best in 17 clusters for 5 generations
USER: GENES 11
USER: genes 0 Translation |==|  0.75424 0.87515 0.40056
USER: genes 1 Rotation |==|  0.82776 0.52279 0.13849 0.60659
USER: genes 2 Torsion [N]-CA--C-[N] |==|  0.86176
USER: genes 3 Torsion [C]-N--CA-[C] |==|  0.43402
USER: genes 4 Torsion [N]-CA--C-[N] |==|  0.78549
USER: genes 5 Torsion [C]-N--CA-[C] |==|  0.15815
USER: genes 6 Torsion [N]-CA--C-[O] |==|  0.51690
USER: genes 7 Torsion [CB]-CA--N-[C] |==|  0.86661
USER: genes 8 Torsion [N]-C--CA-[N] |==|  0.37332
USER: genes 9 Torsion [C]-CA--N-[C] |==|  0.84432
USER: genes 10 Torsion [N]-C--CA-[N] |==|  0.92683
ROOT
ATOM      1  CA  ALA F 463      39.827 -21.024  23.564  1.00 80.84 LIG 0.17  C 
ATOM      2  CB  ALA F 463      41.110 -21.647  24.092  1.00 75.28 LIG 0.04  C 
ENDROOT
BRANCH 1 3
ATOM      3  C   ALA F 463      39.594 -21.425  22.113  1.00 84.46 LIG 0.24  C 
ATOM      4 O    ALA F 463      39.751 -20.612  21.201  1.00 85.06 LIG-0.27  OA
ATOM      5  N   GLY F 464      39.215 -22.681  21.903  1.00 87.45 LIG-0.35  N 
ATOM      6 H    GLY F 464      39.155 -23.273  22.524  1.00 87.45 LIG 0.16  HD
BRANCH 5 7
ATOM      7  CA  GLY F 464      38.864 -23.163  20.580  1.00 89.28 LIG 0.23  C 
BRANCH 7 8
ATOM      8  C   GLY F 464      39.002 -24.663  20.385  1.00 90.16 LIG 0.23  C 
ATOM      9 O    GLY F 464      38.004 -25.385  20.392  1.00 90.52 LIG-0.27  OA
ATOM     10  N   ALA F 465      40.236 -25.134  20.212  1.00 88.18 LIG-0.35  N 
ATOM     11 H    ALA F 465      40.941 -24.644  20.228  1.00 88.18 LIG 0.16  HD
BRANCH 10 12
ATOM     12  CA  ALA F 465      40.497 -26.552  19.976  1.00 85.90 LIG 0.16  C 
ATOM     13  CB  ALA F 465      40.126 -27.370  21.206  1.00 84.54 LIG 0.04  C 
BRANCH 12 14
ATOM     14  C   ALA F 465      39.741 -27.069  18.753  1.00 85.67 LIG 0.22  C 
ATOM     15 O    ALA F 465      39.751 -28.268  18.465  1.00 84.89 LIG-0.29  OA
ENDBRANCH 12 14
ENDBRANCH 10 12
ENDBRANCH 7 8
ENDBRANCH 5 7
ENDBRANCH 1 3
BRANCH 1 16
ATOM     16  N   ALA F 463      38.688 -21.421  24.384  1.00 83.00 LIG-0.35  N 
ATOM     17  C   GLY F 462      38.478 -22.690  24.725  1.00 85.58 LIG 0.24  C 
ATOM     18 O    GLY F 462      39.211 -23.613  24.367  1.00 87.56 LIG-0.27  OA
ATOM     19 H    ALA F 463      38.177 -20.770  24.620  1.00 83.00 LIG 0.16  HD
BRANCH 17 20
ATOM     20  CA  GLY F 462      37.266 -22.961  25.592  1.00 87.31 LIG 0.23  C 
BRANCH 20 21
ATOM     21  N   GLY F 462      36.496 -24.098  25.125  1.00 88.73 LIG-0.35  N 
ATOM     22  C   ALA F 461      36.017 -24.165  23.887  1.00 88.98 LIG 0.26  C 
ATOM     23 O    ALA F 461      36.185 -23.276  23.053  1.00 91.33 LIG-0.27  OA
ATOM     24 H    GLY F 462      36.382 -24.714  25.715  1.00 88.73 LIG 0.16  HD
BRANCH 22 25
ATOM     25  CA  ALA F 461      35.226 -25.421  23.543  1.00 85.90 LIG 0.40  C 
ATOM     26  CB  ALA F 461      33.733 -25.174  23.700  1.00 82.87 LIG 0.06  C 
ATOM     27  N   ALA F 461      35.647 -26.542  24.377  1.00 83.73 LIG 0.61  N 
ENDBRANCH 22 25
ENDBRANCH 20 21
ENDBRANCH 17 20
ENDBRANCH 1 16
TORSDOF 9
ENDMDL
MODEL 34
USER: ADFR SOLUTION from run 124
USER: SCORE 7.362007 LL:  -1.182 LR:  -7.727 RR:   0.000 FEB:  -5.042
USER: RMSD 6.571233
USER: SEED 123
USER: STATUS no improvement in best in 24 clusters for 5 generations
USER: GENES 11
USER: genes 0 Translation |==|  0.74019 0.52129 0.22921
USER: genes 1 Rotation |==|  0.30150 0.31971 0.48412 0.92171
USER: genes 2 Torsion [N]-CA--C-[N] |==|  0.82414
USER: genes 3 Torsion [C]-N--CA-[C] |==|  0.68775
USER: genes 4 Torsion [N]-CA--C-[N] |==|  0.99887
USER: genes 5 Torsion [C]-N--CA-[C] |==|  0.20020
USER: genes 6 Torsion [N]-CA--C-[O] |==|  0.21595
USER: genes 7 Torsion [CB]-CA--N-[C] |==|  0.57778
USER: genes 8 Torsion [N]-C--CA-[N] |==|  0.33336
USER: genes 9 Torsion [C]-CA--N-[C] |==|  0.31365
USER: genes 10 Torsion [N]-C--CA-[N] |==|  0.59657
ROOT
ATOM      1  CA  ALA F 463      39.574 -26.332  20.223  1.00 80.84 LIG 0.17  C 
ATOM      2  CB  ALA F 463      40.182 -26.271  18.829  1.00 75.28 LIG 0.04  C 
ENDROOT
BRANCH 1 3
ATOM      3  C   ALA F 463      40.590 -25.893  21.270  1.00 84.46 LIG 0.24  C 
ATOM      4 O    ALA F 463      40.924 -26.651  22.181  1.00 85.06 LIG-0.27  OA
ATOM      5  N   GLY F 464      41.075 -24.663  21.140  1.00 87.45 LIG-0.35  N 
ATOM      6 H    GLY F 464      40.893 -24.143  20.480  1.00 87.45 LIG 0.16  HD
BRANCH 5 7
ATOM      7  CA  GLY F 464      41.972 -24.086  22.125  1.00 89.28 LIG 0.23  C 
BRANCH 7 8
ATOM      8  C   GLY F 464      41.395 -22.926  22.918  1.00 90.16 LIG 0.23  C 
ATOM      9 O    GLY F 464      42.071 -22.370  23.784  1.00 90.52 LIG-0.27  OA
ATOM     10  N   ALA F 465      40.149 -22.561  22.626  1.00 88.18 LIG-0.35  N 
ATOM     11 H    ALA F 465      39.660 -22.956  22.039  1.00 88.18 LIG 0.16  HD
BRANCH 10 12
ATOM     12  CA  ALA F 465      39.496 -21.435  23.290  1.00 85.90 LIG 0.16  C 
ATOM     13  CB  ALA F 465      39.620 -21.570  24.802  1.00 84.54 LIG 0.04  C 
BRANCH 12 14
ATOM     14  C   ALA F 465      40.073 -20.097  22.831  1.00 85.67 LIG 0.22  C 
ATOM     15 O    ALA F 465      39.751 -19.611  21.744  1.00 84.89 LIG-0.29  OA
ENDBRANCH 12 14
ENDBRANCH 10 12
ENDBRANCH 7 8
ENDBRANCH 5 7
ENDBRANCH 1 3
BRANCH 1 16
ATOM     16  N   ALA F 463      38.381 -25.496  20.299  1.00 83.00 LIG-0.35  N 
ATOM     17  C   GLY F 462      37.987 -24.940  21.443  1.00 85.58 LIG 0.24  C 
ATOM     18 O    GLY F 462      38.584 -25.097  22.509  1.00 87.56 LIG-0.27  OA
ATOM     19 H    ALA F 463      37.966 -25.401  19.552  1.00 83.00 LIG 0.16  HD
BRANCH 17 20
ATOM     20  CA  GLY F 462      36.739 -24.084  21.378  1.00 87.31 LIG 0.23  C 
BRANCH 20 21
ATOM     21  N   GLY F 462      35.684 -24.579  22.242  1.00 88.73 LIG-0.35  N 
ATOM     22  C   ALA F 461      35.273 -23.905  23.310  1.00 88.98 LIG 0.26  C 
ATOM     23 O    ALA F 461      35.752 -22.823  23.647  1.00 91.33 LIG-0.27  OA
ATOM     24 H    GLY F 462      35.356 -25.336  21.999  1.00 88.73 LIG 0.16  HD
BRANCH 22 25
ATOM     25  CA  ALA F 461      34.157 -24.553  24.121  1.00 85.90 LIG 0.40  C 
ATOM     26  CB  ALA F 461      33.379 -25.541  23.265  1.00 82.87 LIG 0.06  C 
ATOM     27  N   ALA F 461      33.263 -23.541  24.672  1.00 83.73 LIG 0.61  N 
ENDBRANCH 22 25
ENDBRANCH 20 21
ENDBRANCH 17 20
ENDBRANCH 1 16
TORSDOF 9
ENDMDL
MODEL 35
USER: ADFR SOLUTION from run 12
USER: SCORE 8.109586 LL:  -1.172 LR:  -7.717 RR:   0.000 FEB:  -5.033
USER: RMSD 8.029852
USER: SEED 190763
USER: STATUS no improvement in best in 24 clusters for 5 generations
USER: GENES 11
USER: genes 0 Translation |==|  0.75989 0.61403 0.20004
USER: genes 1 Rotation |==|  0.60729 0.51355 0.96181 0.65823
USER: genes 2 Torsion [N]-CA--C-[N] |==|  0.88415
USER: genes 3 Torsion [C]-N--CA-[C] |==|  0.41765
USER: genes 4 Torsion [N]-CA--C-[N] |==|  0.57731
USER: genes 5 Torsion [C]-N--CA-[C] |==|  0.81145
USER: genes 6 Torsion [N]-CA--C-[O] |==|  0.70518
USER: genes 7 Torsion [CB]-CA--N-[C] |==|  0.87480
USER: genes 8 Torsion [N]-C--CA-[N] |==|  0.50014
USER: genes 9 Torsion [C]-CA--N-[C] |==|  0.18689
USER: genes 10 Torsion [N]-C--CA-[N] |==|  0.74886
ROOT
ATOM      1  CA  ALA F 463      39.929 -24.941  19.654  1.00 80.84 LIG 0.17  C 
ATOM      2  CB  ALA F 463      39.194 -26.031  18.889  1.00 75.28 LIG 0.04  C 
ENDROOT
BRANCH 1 3
ATOM      3  C   ALA F 463      38.941 -24.024  20.364  1.00 84.46 LIG 0.24  C 
ATOM      4 O    ALA F 463      38.626 -22.938  19.878  1.00 85.06 LIG-0.27  OA
ATOM      5  N   GLY F 464      38.456 -24.466  21.520  1.00 87.45 LIG-0.35  N 
ATOM      6 H    GLY F 464      38.623 -25.245  21.844  1.00 87.45 LIG 0.16  HD
BRANCH 5 7
ATOM      7  CA  GLY F 464      37.585 -23.650  22.346  1.00 89.28 LIG 0.23  C 
BRANCH 7 8
ATOM      8  C   GLY F 464      36.588 -24.425  23.190  1.00 90.16 LIG 0.23  C 
ATOM      9 O    GLY F 464      36.845 -25.572  23.558  1.00 90.52 LIG-0.27  OA
ATOM     10  N   ALA F 465      35.451 -23.804  23.497  1.00 88.18 LIG-0.35  N 
ATOM     11 H    ALA F 465      35.251 -23.012  23.228  1.00 88.18 LIG 0.16  HD
BRANCH 10 12
ATOM     12  CA  ALA F 465      34.429 -24.428  24.335  1.00 85.90 LIG 0.16  C 
ATOM     13  CB  ALA F 465      33.375 -23.405  24.734  1.00 84.54 LIG 0.04  C 
BRANCH 12 14
ATOM     14  C   ALA F 465      33.772 -25.614  23.631  1.00 85.67 LIG 0.22  C 
ATOM     15 O    ALA F 465      32.626 -25.526  23.183  1.00 84.89 LIG-0.29  OA
ENDBRANCH 12 14
ENDBRANCH 10 12
ENDBRANCH 7 8
ENDBRANCH 5 7
ENDBRANCH 1 3
BRANCH 1 16
ATOM     16  N   ALA F 463      40.855 -25.525  20.618  1.00 83.00 LIG-0.35  N 
ATOM     17  C   GLY F 462      40.500 -26.538  21.405  1.00 85.58 LIG 0.24  C 
ATOM     18 O    GLY F 462      39.376 -27.041  21.390  1.00 87.56 LIG-0.27  OA
ATOM     19 H    ALA F 463      41.633 -25.160  20.628  1.00 83.00 LIG 0.16  HD
BRANCH 17 20
ATOM     20  CA  GLY F 462      41.564 -27.058  22.350  1.00 87.31 LIG 0.23  C 
BRANCH 20 21
ATOM     21  N   GLY F 462      41.088 -28.160  23.165  1.00 88.73 LIG-0.35  N 
ATOM     22  C   ALA F 461      40.783 -29.342  22.643  1.00 88.98 LIG 0.26  C 
ATOM     23 O    ALA F 461      40.876 -29.591  21.441  1.00 91.33 LIG-0.27  OA
ATOM     24 H    GLY F 462      41.024 -27.977  24.003  1.00 88.73 LIG 0.16  HD
BRANCH 22 25
ATOM     25  CA  ALA F 461      40.295 -30.401  23.625  1.00 85.90 LIG 0.40  C 
ATOM     26  CB  ALA F 461      39.524 -29.756  24.767  1.00 82.87 LIG 0.06  C 
ATOM     27  N   ALA F 461      41.413 -31.182  24.142  1.00 83.73 LIG 0.61  N 
ENDBRANCH 22 25
ENDBRANCH 20 21
ENDBRANCH 17 20
ENDBRANCH 1 16
TORSDOF 9
ENDMDL
MODEL 36
USER: ADFR SOLUTION from run 95
USER: SCORE 8.636802 LL:  -1.690 LR:  -7.721 RR:   0.000 FEB:  -5.037
USER: RMSD 9.066402
USER: SEED 94
USER: STATUS no improvement in best in 46 clusters for 5 generations
USER: GENES 11
USER: genes 0 Translation |==|  0.84617 0.49346 0.31754
USER: genes 1 Rotation |==|  0.51492 0.82105 0.85626 0.64066
USER: genes 2 Torsion [N]-CA--C-[N] |==|  0.18408
USER: genes 3 Torsion [C]-N--CA-[C] |==|  0.18501
USER: genes 4 Torsion [N]-CA--C-[N] |==|  0.13990
USER: genes 5 Torsion [C]-N--CA-[C] |==|  0.69179
USER: genes 6 Torsion [N]-CA--C-[O] |==|  0.66266
USER: genes 7 Torsion [CB]-CA--N-[C] |==|  0.80026
USER: genes 8 Torsion [N]-C--CA-[N] |==|  0.43937
USER: genes 9 Torsion [C]-CA--N-[C] |==|  0.29404
USER: genes 10 Torsion [N]-C--CA-[N] |==|  0.41225
ROOT
ATOM      1  CA  ALA F 463      41.482 -26.749  21.945  1.00 80.84 LIG 0.17  C 
ATOM      2  CB  ALA F 463      41.053 -27.765  22.993  1.00 75.28 LIG 0.04  C 
ENDROOT
BRANCH 1 3
ATOM      3  C   ALA F 463      40.285 -25.942  21.459  1.00 84.46 LIG 0.24  C 
ATOM      4 O    ALA F 463      39.191 -26.038  22.016  1.00 85.06 LIG-0.27  OA
ATOM      5  N   GLY F 464      40.496 -25.149  20.414  1.00 87.45 LIG-0.35  N 
ATOM      6 H    GLY F 464      41.266 -25.030  20.050  1.00 87.45 LIG 0.16  HD
BRANCH 5 7
ATOM      7  CA  GLY F 464      39.418 -24.403  19.789  1.00 89.28 LIG 0.23  C 
BRANCH 7 8
ATOM      8  C   GLY F 464      38.806 -23.314  20.652  1.00 90.16 LIG 0.23  C 
ATOM      9 O    GLY F 464      37.584 -23.249  20.797  1.00 90.52 LIG-0.27  OA
ATOM     10  N   ALA F 465      39.649 -22.458  21.226  1.00 88.18 LIG-0.35  N 
ATOM     11 H    ALA F 465      40.502 -22.479  21.115  1.00 88.18 LIG 0.16  HD
BRANCH 10 12
ATOM     12  CA  ALA F 465      39.187 -21.390  22.110  1.00 85.90 LIG 0.16  C 
ATOM     13  CB  ALA F 465      39.917 -21.456  23.445  1.00 84.54 LIG 0.04  C 
BRANCH 12 14
ATOM     14  C   ALA F 465      39.373 -20.013  21.475  1.00 85.67 LIG 0.22  C 
ATOM     15 O    ALA F 465      40.061 -19.151  22.029  1.00 84.89 LIG-0.29  OA
ENDBRANCH 12 14
ENDBRANCH 10 12
ENDBRANCH 7 8
ENDBRANCH 5 7
ENDBRANCH 1 3
BRANCH 1 16
ATOM     16  N   ALA F 463      42.504 -25.857  22.482  1.00 83.00 LIG-0.35  N 
ATOM     17  C   GLY F 462      42.215 -24.925  23.388  1.00 85.58 LIG 0.24  C 
ATOM     18 O    GLY F 462      41.078 -24.738  23.822  1.00 87.56 LIG-0.27  OA
ATOM     19 H    ALA F 463      43.292 -25.989  22.165  1.00 83.00 LIG 0.16  HD
BRANCH 17 20
ATOM     20  CA  GLY F 462      43.373 -24.077  23.872  1.00 87.31 LIG 0.23  C 
BRANCH 20 21
ATOM     21  N   GLY F 462      42.936 -22.812  24.431  1.00 88.73 LIG-0.35  N 
ATOM     22  C   ALA F 461      42.943 -22.580  25.739  1.00 88.98 LIG 0.26  C 
ATOM     23 O    ALA F 461      43.312 -23.412  26.567  1.00 91.33 LIG-0.27  OA
ATOM     24 H    GLY F 462      42.678 -22.238  23.845  1.00 88.73 LIG 0.16  HD
BRANCH 22 25
ATOM     25  CA  ALA F 461      42.454 -21.204  26.176  1.00 85.90 LIG 0.40  C 
ATOM     26  CB  ALA F 461      43.606 -20.211  26.204  1.00 82.87 LIG 0.06  C 
ATOM     27  N   ALA F 461      41.809 -21.275  27.483  1.00 83.73 LIG 0.61  N 
ENDBRANCH 22 25
ENDBRANCH 20 21
ENDBRANCH 17 20
ENDBRANCH 1 16
TORSDOF 9
ENDMDL
MODEL 37
USER: ADFR SOLUTION from run 68
USER: SCORE 7.561451 LL:  -1.353 LR:  -7.661 RR:   0.000 FEB:  -4.977
USER: RMSD 8.431168
USER: SEED 67
USER: STATUS no improvement in best in 18 clusters for 5 generations
USER: GENES 11
USER: genes 0 Translation |==|  0.54845 0.63912 0.39448
USER: genes 1 Rotation |==|  0.09138 0.69426 0.32027 0.61399
USER: genes 2 Torsion [N]-CA--C-[N] |==|  0.50723
USER: genes 3 Torsion [C]-N--CA-[C] |==|  0.70023
USER: genes 4 Torsion [N]-CA--C-[N] |==|  0.55395
USER: genes 5 Torsion [C]-N--CA-[C] |==|  0.16415
USER: genes 6 Torsion [N]-CA--C-[O] |==|  0.52629
USER: genes 7 Torsion [CB]-CA--N-[C] |==|  0.48176
USER: genes 8 Torsion [N]-C--CA-[N] |==|  0.72222
USER: genes 9 Torsion [C]-CA--N-[C] |==|  0.16586
USER: genes 10 Torsion [N]-C--CA-[N] |==|  0.20117
ROOT
ATOM      1  CA  ALA F 463      36.123 -24.564  23.445  1.00 80.84 LIG 0.17  C 
ATOM      2  CB  ALA F 463      34.706 -24.996  23.100  1.00 75.28 LIG 0.04  C 
ENDROOT
BRANCH 1 3
ATOM      3  C   ALA F 463      36.925 -25.740  23.989  1.00 84.46 LIG 0.24  C 
ATOM      4 O    ALA F 463      37.996 -26.064  23.475  1.00 85.06 LIG-0.27  OA
ATOM      5  N   GLY F 464      36.400 -26.381  25.027  1.00 87.45 LIG-0.35  N 
ATOM      6 H    GLY F 464      35.681 -26.133  25.430  1.00 87.45 LIG 0.16  HD
BRANCH 5 7
ATOM      7  CA  GLY F 464      37.010 -27.578  25.577  1.00 89.28 LIG 0.23  C 
BRANCH 7 8
ATOM      8  C   GLY F 464      36.260 -28.868  25.296  1.00 90.16 LIG 0.23  C 
ATOM      9 O    GLY F 464      35.443 -28.924  24.377  1.00 90.52 LIG-0.27  OA
ATOM     10  N   ALA F 465      36.536 -29.906  26.084  1.00 88.18 LIG-0.35  N 
ATOM     11 H    ALA F 465      37.088 -29.873  26.743  1.00 88.18 LIG 0.16  HD
BRANCH 10 12
ATOM     12  CA  ALA F 465      35.911 -31.212  25.891  1.00 85.90 LIG 0.16  C 
ATOM     13  CB  ALA F 465      34.407 -31.116  26.112  1.00 84.54 LIG 0.04  C 
BRANCH 12 14
ATOM     14  C   ALA F 465      36.205 -31.778  24.503  1.00 85.67 LIG 0.22  C 
ATOM     15 O    ALA F 465      35.621 -32.786  24.096  1.00 84.89 LIG-0.29  OA
ENDBRANCH 12 14
ENDBRANCH 10 12
ENDBRANCH 7 8
ENDBRANCH 5 7
ENDBRANCH 1 3
BRANCH 1 16
ATOM     16  N   ALA F 463      36.788 -24.001  22.275  1.00 83.00 LIG-0.35  N 
ATOM     17  C   GLY F 462      37.990 -23.435  22.357  1.00 85.58 LIG 0.24  C 
ATOM     18 O    GLY F 462      38.616 -23.333  23.413  1.00 87.56 LIG-0.27  OA
ATOM     19 H    ALA F 463      36.338 -24.068  21.546  1.00 83.00 LIG 0.16  HD
BRANCH 17 20
ATOM     20  CA  GLY F 462      38.571 -22.904  21.063  1.00 87.31 LIG 0.23  C 
BRANCH 20 21
ATOM     21  N   GLY F 462      39.540 -23.811  20.478  1.00 88.73 LIG-0.35  N 
ATOM     22  C   ALA F 461      39.221 -25.052  20.126  1.00 88.98 LIG 0.26  C 
ATOM     23 O    ALA F 461      38.093 -25.522  20.270  1.00 91.33 LIG-0.27  OA
ATOM     24 H    GLY F 462      40.326 -23.475  20.383  1.00 88.73 LIG 0.16  HD
BRANCH 22 25
ATOM     25  CA  ALA F 461      40.346 -25.886  19.526  1.00 85.90 LIG 0.40  C 
ATOM     26  CB  ALA F 461      39.787 -27.119  18.832  1.00 82.87 LIG 0.06  C 
ATOM     27  N   ALA F 461      41.308 -26.272  20.553  1.00 83.73 LIG 0.61  N 
ENDBRANCH 22 25
ENDBRANCH 20 21
ENDBRANCH 17 20
ENDBRANCH 1 16
TORSDOF 9
ENDMDL
MODEL 38
USER: ADFR SOLUTION from run 108
USER: SCORE 7.254305 LL:  -1.592 LR:  -7.652 RR:   0.000 FEB:  -4.967
USER: RMSD 8.424759
USER: SEED 107
USER: STATUS no improvement in best in 21 clusters for 5 generations
USER: GENES 11
USER: genes 0 Translation |==|  0.69469 0.76541 0.28957
USER: genes 1 Rotation |==|  0.34984 0.70474 0.09134 0.63611
USER: genes 2 Torsion [N]-CA--C-[N] |==|  0.07411
USER: genes 3 Torsion [C]-N--CA-[C] |==|  0.84400
USER: genes 4 Torsion [N]-CA--C-[N] |==|  0.40783
USER: genes 5 Torsion [C]-N--CA-[C] |==|  0.16123
USER: genes 6 Torsion [N]-CA--C-[O] |==|  0.04105
USER: genes 7 Torsion [CB]-CA--N-[C] |==|  0.43448
USER: genes 8 Torsion [N]-C--CA-[N] |==|  0.89444
USER: genes 9 Torsion [C]-CA--N-[C] |==|  0.83263
USER: genes 10 Torsion [N]-C--CA-[N] |==|  0.18301
ROOT
ATOM      1  CA  ALA F 463      38.755 -22.670  21.400  1.00 80.84 LIG 0.17  C 
ATOM      2  CB  ALA F 463      38.621 -22.516  19.892  1.00 75.28 LIG 0.04  C 
ENDROOT
BRANCH 1 3
ATOM      3  C   ALA F 463      37.844 -23.779  21.909  1.00 84.46 LIG 0.24  C 
ATOM      4 O    ALA F 463      36.777 -24.027  21.346  1.00 85.06 LIG-0.27  OA
ATOM      5  N   GLY F 464      38.266 -24.442  22.980  1.00 87.45 LIG-0.35  N 
ATOM      6 H    GLY F 464      39.033 -24.318  23.350  1.00 87.45 LIG 0.16  HD
BRANCH 5 7
ATOM      7  CA  GLY F 464      37.449 -25.454  23.626  1.00 89.28 LIG 0.23  C 
BRANCH 7 8
ATOM      8  C   GLY F 464      36.077 -24.982  24.073  1.00 90.16 LIG 0.23  C 
ATOM      9 O    GLY F 464      35.914 -23.823  24.457  1.00 90.52 LIG-0.27  OA
ATOM     10  N   ALA F 465      35.090 -25.874  24.023  1.00 88.18 LIG-0.35  N 
ATOM     11 H    ALA F 465      35.196 -26.692  23.778  1.00 88.18 LIG 0.16  HD
BRANCH 10 12
ATOM     12  CA  ALA F 465      33.717 -25.532  24.389  1.00 85.90 LIG 0.16  C 
ATOM     13  CB  ALA F 465      33.638 -25.175  25.867  1.00 84.54 LIG 0.04  C 
BRANCH 12 14
ATOM     14  C   ALA F 465      33.177 -24.383  23.540  1.00 85.67 LIG 0.22  C 
ATOM     15 O    ALA F 465      33.754 -24.039  22.505  1.00 84.89 LIG-0.29  OA
ENDBRANCH 12 14
ENDBRANCH 10 12
ENDBRANCH 7 8
ENDBRANCH 5 7
ENDBRANCH 1 3
BRANCH 1 16
ATOM     16  N   ALA F 463      40.140 -22.950  21.766  1.00 83.00 LIG-0.35  N 
ATOM     17  C   GLY F 462      40.612 -22.677  22.980  1.00 85.58 LIG 0.24  C 
ATOM     18 O    GLY F 462      39.931 -22.163  23.868  1.00 87.56 LIG-0.27  OA
ATOM     19 H    ALA F 463      40.609 -23.299  21.136  1.00 83.00 LIG 0.16  HD
BRANCH 17 20
ATOM     20  CA  GLY F 462      42.063 -23.032  23.231  1.00 87.31 LIG 0.23  C 
BRANCH 20 21
ATOM     21  N   GLY F 462      42.447 -24.275  22.591  1.00 88.73 LIG-0.35  N 
ATOM     22  C   ALA F 461      41.856 -25.429  22.882  1.00 88.98 LIG 0.26  C 
ATOM     23 O    ALA F 461      40.950 -25.531  23.709  1.00 91.33 LIG-0.27  OA
ATOM     24 H    GLY F 462      43.082 -24.195  22.016  1.00 88.73 LIG 0.16  HD
BRANCH 22 25
ATOM     25  CA  ALA F 461      42.369 -26.650  22.128  1.00 85.90 LIG 0.40  C 
ATOM     26  CB  ALA F 461      41.476 -27.855  22.390  1.00 82.87 LIG 0.06  C 
ATOM     27  N   ALA F 461      43.748 -26.948  22.501  1.00 83.73 LIG 0.61  N 
ENDBRANCH 22 25
ENDBRANCH 20 21
ENDBRANCH 17 20
ENDBRANCH 1 16
TORSDOF 9
ENDMDL
MODEL 39
USER: ADFR SOLUTION from run 58
USER: SCORE 8.125324 LL:  -1.455 LR:  -7.641 RR:   0.000 FEB:  -4.957
USER: RMSD 7.877357
USER: SEED 57
USER: STATUS no improvement in best in 20 clusters for 5 generations
USER: GENES 11
USER: genes 0 Translation |==|  0.43012 0.65956 0.40031
USER: genes 1 Rotation |==|  0.14863 0.47646 0.16490 0.61702
USER: genes 2 Torsion [N]-CA--C-[N] |==|  0.53279
USER: genes 3 Torsion [C]-N--CA-[C] |==|  0.78093
USER: genes 4 Torsion [N]-CA--C-[N] |==|  0.97421
USER: genes 5 Torsion [C]-N--CA-[C] |==|  0.50838
USER: genes 6 Torsion [N]-CA--C-[O] |==|  0.79363
USER: genes 7 Torsion [CB]-CA--N-[C] |==|  0.82778
USER: genes 8 Torsion [N]-C--CA-[N] |==|  0.57212
USER: genes 9 Torsion [C]-CA--N-[C] |==|  0.41219
USER: genes 10 Torsion [N]-C--CA-[N] |==|  0.81081
ROOT
ATOM      1  CA  ALA F 463      33.993 -24.258  23.559  1.00 80.84 LIG 0.17  C 
ATOM      2  CB  ALA F 463      33.557 -25.526  22.842  1.00 75.28 LIG 0.04  C 
ENDROOT
BRANCH 1 3
ATOM      3  C   ALA F 463      34.272 -24.542  25.029  1.00 84.46 LIG 0.24  C 
ATOM      4 O    ALA F 463      35.286 -24.105  25.575  1.00 85.06 LIG-0.27  OA
ATOM      5  N   GLY F 464      33.370 -25.280  25.668  1.00 87.45 LIG-0.35  N 
ATOM      6 H    GLY F 464      32.632 -25.545  25.315  1.00 87.45 LIG 0.16  HD
BRANCH 5 7
ATOM      7  CA  GLY F 464      33.564 -25.707  27.041  1.00 89.28 LIG 0.23  C 
BRANCH 7 8
ATOM      8  C   GLY F 464      34.495 -26.894  27.220  1.00 90.16 LIG 0.23  C 
ATOM      9 O    GLY F 464      34.863 -27.230  28.347  1.00 90.52 LIG-0.27  OA
ATOM     10  N   ALA F 465      34.876 -27.529  26.114  1.00 88.18 LIG-0.35  N 
ATOM     11 H    ALA F 465      34.644 -27.290  25.321  1.00 88.18 LIG 0.16  HD
BRANCH 10 12
ATOM     12  CA  ALA F 465      35.738 -28.708  26.156  1.00 85.90 LIG 0.16  C 
ATOM     13  CB  ALA F 465      35.072 -29.821  26.954  1.00 84.54 LIG 0.04  C 
BRANCH 12 14
ATOM     14  C   ALA F 465      36.087 -29.202  24.753  1.00 85.67 LIG 0.22  C 
ATOM     15 O    ALA F 465      35.251 -29.795  24.067  1.00 84.89 LIG-0.29  OA
ENDBRANCH 12 14
ENDBRANCH 10 12
ENDBRANCH 7 8
ENDBRANCH 5 7
ENDBRANCH 1 3
BRANCH 1 16
ATOM     16  N   ALA F 463      35.177 -23.689  22.924  1.00 83.00 LIG-0.35  N 
ATOM     17  C   GLY F 462      36.329 -24.354  22.867  1.00 85.58 LIG 0.24  C 
ATOM     18 O    GLY F 462      36.484 -25.475  23.353  1.00 87.56 LIG-0.27  OA
ATOM     19 H    ALA F 463      35.061 -22.902  22.598  1.00 83.00 LIG 0.16  HD
BRANCH 17 20
ATOM     20  CA  GLY F 462      37.475 -23.653  22.166  1.00 87.31 LIG 0.23  C 
BRANCH 20 21
ATOM     21  N   GLY F 462      38.442 -24.586  21.619  1.00 88.73 LIG-0.35  N 
ATOM     22  C   ALA F 461      39.131 -24.320  20.515  1.00 88.98 LIG 0.26  C 
ATOM     23 O    ALA F 461      39.001 -23.276  19.877  1.00 91.33 LIG-0.27  OA
ATOM     24 H    GLY F 462      38.525 -25.313  22.071  1.00 88.73 LIG 0.16  HD
BRANCH 22 25
ATOM     25  CA  ALA F 461      40.109 -25.397  20.063  1.00 85.90 LIG 0.40  C 
ATOM     26  CB  ALA F 461      39.399 -26.733  19.905  1.00 82.87 LIG 0.06  C 
ATOM     27  N   ALA F 461      41.218 -25.517  21.003  1.00 83.73 LIG 0.61  N 
ENDBRANCH 22 25
ENDBRANCH 20 21
ENDBRANCH 17 20
ENDBRANCH 1 16
TORSDOF 9
ENDMDL
MODEL 40
USER: ADFR SOLUTION from run 95
USER: SCORE 8.666629 LL:  -1.389 LR:  -7.624 RR:   0.000 FEB:  -4.939
USER: RMSD 8.832344
USER: SEED 94
USER: STATUS no improvement in best in 46 clusters for 5 generations
USER: GENES 11
USER: genes 0 Translation |==|  0.63538 0.57755 0.39790
USER: genes 1 Rotation |==|  0.64077 0.94029 0.68516 0.54525
USER: genes 2 Torsion [N]-CA--C-[N] |==|  0.36115
USER: genes 3 Torsion [C]-N--CA-[C] |==|  0.76713
USER: genes 4 Torsion [N]-CA--C-[N] |==|  0.94974
USER: genes 5 Torsion [C]-N--CA-[C] |==|  0.68554
USER: genes 6 Torsion [N]-CA--C-[O] |==|  0.96258
USER: genes 7 Torsion [CB]-CA--N-[C] |==|  0.85406
USER: genes 8 Torsion [N]-C--CA-[N] |==|  0.01737
USER: genes 9 Torsion [C]-CA--N-[C] |==|  0.16892
USER: genes 10 Torsion [N]-C--CA-[N] |==|  0.79669
ROOT
ATOM      1  CA  ALA F 463      37.688 -25.488  23.512  1.00 80.84 LIG 0.17  C 
ATOM      2  CB  ALA F 463      38.195 -25.616  24.941  1.00 75.28 LIG 0.04  C 
ENDROOT
BRANCH 1 3
ATOM      3  C   ALA F 463      36.481 -24.559  23.452  1.00 84.46 LIG 0.24  C 
ATOM      4 O    ALA F 463      36.614 -23.344  23.596  1.00 85.06 LIG-0.27  OA
ATOM      5  N   GLY F 464      35.304 -25.138  23.242  1.00 87.45 LIG-0.35  N 
ATOM      6 H    GLY F 464      35.203 -25.977  23.085  1.00 87.45 LIG 0.16  HD
BRANCH 5 7
ATOM      7  CA  GLY F 464      34.065 -24.381  23.263  1.00 89.28 LIG 0.23  C 
BRANCH 7 8
ATOM      8  C   GLY F 464      33.470 -24.160  24.642  1.00 90.16 LIG 0.23  C 
ATOM      9 O    GLY F 464      32.631 -23.276  24.821  1.00 90.52 LIG-0.27  OA
ATOM     10  N   ALA F 465      33.900 -24.959  25.617  1.00 88.18 LIG-0.35  N 
ATOM     11 H    ALA F 465      34.501 -25.564  25.508  1.00 88.18 LIG 0.16  HD
BRANCH 10 12
ATOM     12  CA  ALA F 465      33.376 -24.871  26.977  1.00 85.90 LIG 0.16  C 
ATOM     13  CB  ALA F 465      32.827 -26.221  27.420  1.00 84.54 LIG 0.04  C 
BRANCH 12 14
ATOM     14  C   ALA F 465      34.440 -24.387  27.961  1.00 85.67 LIG 0.22  C 
ATOM     15 O    ALA F 465      35.630 -24.358  27.638  1.00 84.89 LIG-0.29  OA
ENDBRANCH 12 14
ENDBRANCH 10 12
ENDBRANCH 7 8
ENDBRANCH 5 7
ENDBRANCH 1 3
BRANCH 1 16
ATOM     16  N   ALA F 463      38.744 -24.996  22.635  1.00 83.00 LIG-0.35  N 
ATOM     17  C   GLY F 462      39.429 -23.889  22.915  1.00 85.58 LIG 0.24  C 
ATOM     18 O    GLY F 462      39.216 -23.199  23.912  1.00 87.56 LIG-0.27  OA
ATOM     19 H    ALA F 463      38.878 -25.479  21.936  1.00 83.00 LIG 0.16  HD
BRANCH 17 20
ATOM     20  CA  GLY F 462      40.509 -23.500  21.926  1.00 87.31 LIG 0.23  C 
BRANCH 20 21
ATOM     21  N   GLY F 462      40.510 -24.345  20.747  1.00 88.73 LIG-0.35  N 
ATOM     22  C   ALA F 461      39.461 -24.425  19.937  1.00 88.98 LIG 0.26  C 
ATOM     23 O    ALA F 461      38.418 -23.799  20.122  1.00 91.33 LIG-0.27  OA
ATOM     24 H    GLY F 462      41.242 -24.780  20.626  1.00 88.73 LIG 0.16  HD
BRANCH 22 25
ATOM     25  CA  ALA F 461      39.611 -25.357  18.740  1.00 85.90 LIG 0.40  C 
ATOM     26  CB  ALA F 461      40.126 -26.719  19.182  1.00 82.87 LIG 0.06  C 
ATOM     27  N   ALA F 461      40.501 -24.776  17.740  1.00 83.73 LIG 0.61  N 
ENDBRANCH 22 25
ENDBRANCH 20 21
ENDBRANCH 17 20
ENDBRANCH 1 16
TORSDOF 9
ENDMDL
MODEL 41
USER: ADFR SOLUTION from run 143
USER: SCORE 7.805417 LL:  -1.305 LR:  -7.615 RR:   0.000 FEB:  -4.931
USER: RMSD 8.574033
USER: SEED 142
USER: STATUS no improvement in best in 21 clusters for 5 generations
USER: GENES 11
USER: genes 0 Translation |==|  0.59736 0.64134 0.42176
USER: genes 1 Rotation |==|  0.19284 0.75405 0.34018 0.75607
USER: genes 2 Torsion [N]-CA--C-[N] |==|  0.99814
USER: genes 3 Torsion [C]-N--CA-[C] |==|  0.32609
USER: genes 4 Torsion [N]-CA--C-[N] |==|  0.00383
USER: genes 5 Torsion [C]-N--CA-[C] |==|  0.58704
USER: genes 6 Torsion [N]-CA--C-[O] |==|  0.62910
USER: genes 7 Torsion [CB]-CA--N-[C] |==|  0.84444
USER: genes 8 Torsion [N]-C--CA-[N] |==|  0.61534
USER: genes 9 Torsion [C]-CA--N-[C] |==|  0.39578
USER: genes 10 Torsion [N]-C--CA-[N] |==|  0.90338
ROOT
ATOM      1  CA  ALA F 463      37.003 -24.531  23.977  1.00 80.84 LIG 0.17  C 
ATOM      2  CB  ALA F 463      35.720 -24.359  23.180  1.00 75.28 LIG 0.04  C 
ENDROOT
BRANCH 1 3
ATOM      3  C   ALA F 463      37.580 -25.926  23.773  1.00 84.46 LIG 0.24  C 
ATOM      4 O    ALA F 463      36.920 -26.928  24.050  1.00 85.06 LIG-0.27  OA
ATOM      5  N   GLY F 464      38.816 -25.987  23.289  1.00 87.45 LIG-0.35  N 
ATOM      6 H    GLY F 464      39.267 -25.299  23.040  1.00 87.45 LIG 0.16  HD
BRANCH 5 7
ATOM      7  CA  GLY F 464      39.519 -27.249  23.141  1.00 89.28 LIG 0.23  C 
BRANCH 7 8
ATOM      8  C   GLY F 464      39.885 -27.617  21.714  1.00 90.16 LIG 0.23  C 
ATOM      9 O    GLY F 464      40.461 -28.679  21.476  1.00 90.52 LIG-0.27  OA
ATOM     10  N   ALA F 465      39.554 -26.743  20.765  1.00 88.18 LIG-0.35  N 
ATOM     11 H    ALA F 465      39.172 -25.989  20.922  1.00 88.18 LIG 0.16  HD
BRANCH 10 12
ATOM     12  CA  ALA F 465      39.816 -26.999  19.351  1.00 85.90 LIG 0.16  C 
ATOM     13  CB  ALA F 465      38.648 -27.747  18.724  1.00 84.54 LIG 0.04  C 
BRANCH 12 14
ATOM     14  C   ALA F 465      40.087 -25.706  18.585  1.00 85.67 LIG 0.22  C 
ATOM     15 O    ALA F 465      39.538 -25.488  17.502  1.00 84.89 LIG-0.29  OA
ENDBRANCH 12 14
ENDBRANCH 10 12
ENDBRANCH 7 8
ENDBRANCH 5 7
ENDBRANCH 1 3
BRANCH 1 16
ATOM     16  N   ALA F 463      37.985 -23.521  23.595  1.00 83.00 LIG-0.35  N 
ATOM     17  C   GLY F 462      38.379 -23.371  22.332  1.00 85.58 LIG 0.24  C 
ATOM     18 O    GLY F 462      37.964 -24.071  21.409  1.00 87.56 LIG-0.27  OA
ATOM     19 H    ALA F 463      38.276 -23.045  24.248  1.00 83.00 LIG 0.16  HD
BRANCH 17 20
ATOM     20  CA  GLY F 462      39.392 -22.275  22.072  1.00 87.31 LIG 0.23  C 
BRANCH 20 21
ATOM     21  N   GLY F 462      39.101 -21.529  20.862  1.00 88.73 LIG-0.35  N 
ATOM     22  C   ALA F 461      39.297 -20.218  20.779  1.00 88.98 LIG 0.26  C 
ATOM     23 O    ALA F 461      39.733 -19.542  21.711  1.00 91.33 LIG-0.27  OA
ATOM     24 H    GLY F 462      38.795 -22.008  20.217  1.00 88.73 LIG 0.16  HD
BRANCH 22 25
ATOM     25  CA  ALA F 461      38.944 -19.573  19.444  1.00 85.90 LIG 0.40  C 
ATOM     26  CB  ALA F 461      37.479 -19.162  19.419  1.00 82.87 LIG 0.06  C 
ATOM     27  N   ALA F 461      39.238 -20.478  18.338  1.00 83.73 LIG 0.61  N 
ENDBRANCH 22 25
ENDBRANCH 20 21
ENDBRANCH 17 20
ENDBRANCH 1 16
TORSDOF 9
ENDMDL
MODEL 42
USER: ADFR SOLUTION from run 132
USER: SCORE 8.418791 LL:  -1.576 LR:  -7.614 RR:   0.000 FEB:  -4.929
USER: RMSD 6.413547
USER: SEED 131
USER: STATUS no improvement in best in 46 clusters for 5 generations
USER: GENES 11
USER: genes 0 Translation |==|  0.75249 0.73150 0.28867
USER: genes 1 Rotation |==|  0.74073 0.36578 0.12318 0.67901
USER: genes 2 Torsion [N]-CA--C-[N] |==|  0.52036
USER: genes 3 Torsion [C]-N--CA-[C] |==|  0.76665
USER: genes 4 Torsion [N]-CA--C-[N] |==|  0.02634
USER: genes 5 Torsion [C]-N--CA-[C] |==|  0.58379
USER: genes 6 Torsion [N]-CA--C-[O] |==|  0.41225
USER: genes 7 Torsion [CB]-CA--N-[C] |==|  0.82699
USER: genes 8 Torsion [N]-C--CA-[N] |==|  0.39328
USER: genes 9 Torsion [C]-CA--N-[C] |==|  0.80820
USER: genes 10 Torsion [N]-C--CA-[N] |==|  0.18302
ROOT
ATOM      1  CA  ALA F 463      39.796 -23.179  21.382  1.00 80.84 LIG 0.17  C 
ATOM      2  CB  ALA F 463      41.066 -23.586  22.113  1.00 75.28 LIG 0.04  C 
ENDROOT
BRANCH 1 3
ATOM      3  C   ALA F 463      39.218 -24.359  20.611  1.00 84.46 LIG 0.24  C 
ATOM      4 O    ALA F 463      38.031 -24.665  20.724  1.00 85.06 LIG-0.27  OA
ATOM      5  N   GLY F 464      40.064 -25.021  19.829  1.00 87.45 LIG-0.35  N 
ATOM      6 H    GLY F 464      40.880 -24.785  19.698  1.00 87.45 LIG 0.16  HD
BRANCH 5 7
ATOM      7  CA  GLY F 464      39.668 -26.223  19.118  1.00 89.28 LIG 0.23  C 
BRANCH 7 8
ATOM      8  C   GLY F 464      39.752 -27.505  19.927  1.00 90.16 LIG 0.23  C 
ATOM      9 O    GLY F 464      39.609 -28.598  19.376  1.00 90.52 LIG-0.27  OA
ATOM     10  N   ALA F 465      39.984 -27.377  21.232  1.00 88.18 LIG-0.35  N 
ATOM     11 H    ALA F 465      40.064 -26.620  21.632  1.00 88.18 LIG 0.16  HD
BRANCH 10 12
ATOM     12  CA  ALA F 465      40.126 -28.536  22.111  1.00 85.90 LIG 0.16  C 
ATOM     13  CB  ALA F 465      41.572 -29.013  22.128  1.00 84.54 LIG 0.04  C 
BRANCH 12 14
ATOM     14  C   ALA F 465      39.656 -28.227  23.531  1.00 85.67 LIG 0.22  C 
ATOM     15 O    ALA F 465      39.153 -29.107  24.234  1.00 84.89 LIG-0.29  OA
ENDBRANCH 12 14
ENDBRANCH 10 12
ENDBRANCH 7 8
ENDBRANCH 5 7
ENDBRANCH 1 3
BRANCH 1 16
ATOM     16  N   ALA F 463      38.807 -22.660  22.321  1.00 83.00 LIG-0.35  N 
ATOM     17  C   GLY F 462      38.300 -23.415  23.293  1.00 85.58 LIG 0.24  C 
ATOM     18 O    GLY F 462      38.612 -24.595  23.461  1.00 87.56 LIG-0.27  OA
ATOM     19 H    ALA F 463      38.589 -21.839  22.189  1.00 83.00 LIG 0.16  HD
BRANCH 17 20
ATOM     20  CA  GLY F 462      37.294 -22.747  24.207  1.00 87.31 LIG 0.23  C 
BRANCH 20 21
ATOM     21  N   GLY F 462      36.208 -23.635  24.576  1.00 88.73 LIG-0.35  N 
ATOM     22  C   ALA F 461      35.298 -24.039  23.697  1.00 88.98 LIG 0.26  C 
ATOM     23 O    ALA F 461      35.304 -23.693  22.516  1.00 91.33 LIG-0.27  OA
ATOM     24 H    GLY F 462      36.210 -23.871  25.403  1.00 88.73 LIG 0.16  HD
BRANCH 22 25
ATOM     25  CA  ALA F 461      34.217 -24.970  24.233  1.00 85.90 LIG 0.40  C 
ATOM     26  CB  ALA F 461      33.374 -25.524  23.095  1.00 82.87 LIG 0.06  C 
ATOM     27  N   ALA F 461      33.373 -24.278  25.203  1.00 83.73 LIG 0.61  N 
ENDBRANCH 22 25
ENDBRANCH 20 21
ENDBRANCH 17 20
ENDBRANCH 1 16
TORSDOF 9
ENDMDL
MODEL 43
USER: ADFR SOLUTION from run 104
USER: SCORE 8.455375 LL:  -1.710 LR:  -7.602 RR:   0.000 FEB:  -4.918
USER: RMSD 7.565619
USER: SEED 103
USER: STATUS no improvement in best in 33 clusters for 5 generations
USER: GENES 11
USER: genes 0 Translation |==|  0.60933 0.54793 0.42306
USER: genes 1 Rotation |==|  0.68718 0.85217 0.57904 0.79102
USER: genes 2 Torsion [N]-CA--C-[N] |==|  0.07502
USER: genes 3 Torsion [C]-N--CA-[C] |==|  0.22778
USER: genes 4 Torsion [N]-CA--C-[N] |==|  0.60752
USER: genes 5 Torsion [C]-N--CA-[C] |==|  0.82556
USER: genes 6 Torsion [N]-CA--C-[O] |==|  0.46411
USER: genes 7 Torsion [CB]-CA--N-[C] |==|  0.22540
USER: genes 8 Torsion [N]-C--CA-[N] |==|  0.97479
USER: genes 9 Torsion [C]-CA--N-[C] |==|  0.80814
USER: genes 10 Torsion [N]-C--CA-[N] |==|  0.60900
ROOT
ATOM      1  CA  ALA F 463      37.219 -25.932  24.003  1.00 80.84 LIG 0.17  C 
ATOM      2  CB  ALA F 463      36.783 -25.269  25.300  1.00 75.28 LIG 0.04  C 
ENDROOT
BRANCH 1 3
ATOM      3  C   ALA F 463      37.291 -24.910  22.875  1.00 84.46 LIG 0.24  C 
ATOM      4 O    ALA F 463      36.543 -23.932  22.863  1.00 85.06 LIG-0.27  OA
ATOM      5  N   GLY F 464      38.192 -25.143  21.927  1.00 87.45 LIG-0.35  N 
ATOM      6 H    GLY F 464      38.757 -25.791  21.951  1.00 87.45 LIG 0.16  HD
BRANCH 5 7
ATOM      7  CA  GLY F 464      38.296 -24.303  20.747  1.00 89.28 LIG 0.23  C 
BRANCH 7 8
ATOM      8  C   GLY F 464      39.088 -23.022  20.938  1.00 90.16 LIG 0.23  C 
ATOM      9 O    GLY F 464      40.105 -23.019  21.632  1.00 90.52 LIG-0.27  OA
ATOM     10  N   ALA F 465      38.626 -21.934  20.325  1.00 88.18 LIG-0.35  N 
ATOM     11 H    ALA F 465      37.905 -21.919  19.856  1.00 88.18 LIG 0.16  HD
BRANCH 10 12
ATOM     12  CA  ALA F 465      39.320 -20.650  20.399  1.00 85.90 LIG 0.16  C 
ATOM     13  CB  ALA F 465      38.642 -19.630  19.494  1.00 84.54 LIG 0.04  C 
BRANCH 12 14
ATOM     14  C   ALA F 465      39.381 -20.125  21.832  1.00 85.67 LIG 0.22  C 
ATOM     15 O    ALA F 465      40.123 -19.185  22.128  1.00 84.89 LIG-0.29  OA
ENDBRANCH 12 14
ENDBRANCH 10 12
ENDBRANCH 7 8
ENDBRANCH 5 7
ENDBRANCH 1 3
BRANCH 1 16
ATOM     16  N   ALA F 463      38.512 -26.587  24.170  1.00 83.00 LIG-0.35  N 
ATOM     17  C   GLY F 462      38.619 -27.793  24.724  1.00 85.58 LIG 0.24  C 
ATOM     18 O    GLY F 462      37.653 -28.430  25.145  1.00 87.56 LIG-0.27  OA
ATOM     19 H    ALA F 463      39.181 -26.130  23.883  1.00 83.00 LIG 0.16  HD
BRANCH 17 20
ATOM     20  CA  GLY F 462      40.019 -28.363  24.823  1.00 87.31 LIG 0.23  C 
BRANCH 20 21
ATOM     21  N   GLY F 462      40.992 -27.570  24.097  1.00 88.73 LIG-0.35  N 
ATOM     22  C   ALA F 461      41.000 -27.507  22.770  1.00 88.98 LIG 0.26  C 
ATOM     23 O    ALA F 461      40.194 -28.111  22.063  1.00 91.33 LIG-0.27  OA
ATOM     24 H    GLY F 462      41.552 -27.152  24.598  1.00 88.73 LIG 0.16  HD
BRANCH 22 25
ATOM     25  CA  ALA F 461      42.083 -26.633  22.149  1.00 85.90 LIG 0.40  C 
ATOM     26  CB  ALA F 461      42.655 -25.674  23.182  1.00 82.87 LIG 0.06  C 
ATOM     27  N   ALA F 461      41.561 -25.896  21.003  1.00 83.73 LIG 0.61  N 
ENDBRANCH 22 25
ENDBRANCH 20 21
ENDBRANCH 17 20
ENDBRANCH 1 16
TORSDOF 9
ENDMDL
MODEL 44
USER: ADFR SOLUTION from run 88
USER: SCORE 7.783108 LL:  -2.195 LR:  -7.596 RR:   0.000 FEB:  -4.912
USER: RMSD 7.778881
USER: SEED 87
USER: STATUS no improvement in best in 33 clusters for 5 generations
USER: GENES 11
USER: genes 0 Translation |==|  0.53953 0.67419 0.33576
USER: genes 1 Rotation |==|  0.89436 0.51067 0.79310 0.59194
USER: genes 2 Torsion [N]-CA--C-[N] |==|  0.91601
USER: genes 3 Torsion [C]-N--CA-[C] |==|  0.82221
USER: genes 4 Torsion [N]-CA--C-[N] |==|  0.96269
USER: genes 5 Torsion [C]-N--CA-[C] |==|  0.50026
USER: genes 6 Torsion [N]-CA--C-[O] |==|  0.41645
USER: genes 7 Torsion [CB]-CA--N-[C] |==|  0.48368
USER: genes 8 Torsion [N]-C--CA-[N] |==|  0.66566
USER: genes 9 Torsion [C]-CA--N-[C] |==|  0.16140
USER: genes 10 Torsion [N]-C--CA-[N] |==|  0.17670
ROOT
ATOM      1  CA  ALA F 463      35.963 -24.038  22.300  1.00 80.84 LIG 0.17  C 
ATOM      2  CB  ALA F 463      34.780 -24.973  22.499  1.00 75.28 LIG 0.04  C 
ENDROOT
BRANCH 1 3
ATOM      3  C   ALA F 463      36.587 -23.671  23.641  1.00 84.46 LIG 0.24  C 
ATOM      4 O    ALA F 463      36.173 -22.709  24.287  1.00 85.06 LIG-0.27  OA
ATOM      5  N   GLY F 464      37.590 -24.440  24.052  1.00 87.45 LIG-0.35  N 
ATOM      6 H    GLY F 464      37.853 -25.147  23.639  1.00 87.45 LIG 0.16  HD
BRANCH 5 7
ATOM      7  CA  GLY F 464      38.337 -24.142  25.260  1.00 89.28 LIG 0.23  C 
BRANCH 7 8
ATOM      8  C   GLY F 464      39.119 -22.840  25.227  1.00 90.16 LIG 0.23  C 
ATOM      9 O    GLY F 464      39.582 -22.368  26.266  1.00 90.52 LIG-0.27  OA
ATOM     10  N   ALA F 465      39.268 -22.260  24.038  1.00 88.18 LIG-0.35  N 
ATOM     11 H    ALA F 465      38.930 -22.568  23.310  1.00 88.18 LIG 0.16  HD
BRANCH 10 12
ATOM     12  CA  ALA F 465      40.032 -21.026  23.869  1.00 85.90 LIG 0.16  C 
ATOM     13  CB  ALA F 465      41.455 -21.212  24.376  1.00 84.54 LIG 0.04  C 
BRANCH 12 14
ATOM     14  C   ALA F 465      40.048 -20.568  22.412  1.00 85.67 LIG 0.22  C 
ATOM     15 O    ALA F 465      40.126 -19.370  22.128  1.00 84.89 LIG-0.29  OA
ENDBRANCH 12 14
ENDBRANCH 10 12
ENDBRANCH 7 8
ENDBRANCH 5 7
ENDBRANCH 1 3
BRANCH 1 16
ATOM     16  N   ALA F 463      36.962 -24.651  21.431  1.00 83.00 LIG-0.35  N 
ATOM     17  C   GLY F 462      38.035 -23.981  21.017  1.00 85.58 LIG 0.24  C 
ATOM     18 O    GLY F 462      38.254 -22.807  21.319  1.00 87.56 LIG-0.27  OA
ATOM     19 H    ALA F 463      36.793 -25.466  21.218  1.00 83.00 LIG 0.16  HD
BRANCH 17 20
ATOM     20  CA  GLY F 462      38.999 -24.741  20.130  1.00 87.31 LIG 0.23  C 
BRANCH 20 21
ATOM     21  N   GLY F 462      40.329 -24.823  20.703  1.00 88.73 LIG-0.35  N 
ATOM     22  C   ALA F 461      40.551 -25.369  21.894  1.00 88.98 LIG 0.26  C 
ATOM     23 O    ALA F 461      39.656 -25.838  22.596  1.00 91.33 LIG-0.27  OA
ATOM     24 H    GLY F 462      40.949 -24.492  20.207  1.00 88.73 LIG 0.16  HD
BRANCH 22 25
ATOM     25  CA  ALA F 461      42.001 -25.381  22.363  1.00 85.90 LIG 0.40  C 
ATOM     26  CB  ALA F 461      42.138 -26.169  23.658  1.00 82.87 LIG 0.06  C 
ATOM     27  N   ALA F 461      42.500 -24.022  22.539  1.00 83.73 LIG 0.61  N 
ENDBRANCH 22 25
ENDBRANCH 20 21
ENDBRANCH 17 20
ENDBRANCH 1 16
TORSDOF 9
ENDMDL
MODEL 45
USER: ADFR SOLUTION from run 42
USER: SCORE 7.817584 LL:  -1.205 LR:  -7.588 RR:   0.000 FEB:  -4.903
USER: RMSD 3.173111
USER: SEED 41
USER: STATUS no improvement in best in 19 clusters for 5 generations
USER: GENES 11
USER: genes 0 Translation |==|  0.45569 0.58598 0.41890
USER: genes 1 Rotation |==|  0.39464 0.40800 0.72991 0.92140
USER: genes 2 Torsion [N]-CA--C-[N] |==|  0.30310
USER: genes 3 Torsion [C]-N--CA-[C] |==|  0.74486
USER: genes 4 Torsion [N]-CA--C-[N] |==|  0.56340
USER: genes 5 Torsion [C]-N--CA-[C] |==|  0.20368
USER: genes 6 Torsion [N]-CA--C-[O] |==|  0.36532
USER: genes 7 Torsion [CB]-CA--N-[C] |==|  0.50339
USER: genes 8 Torsion [N]-C--CA-[N] |==|  0.51061
USER: genes 9 Torsion [C]-CA--N-[C] |==|  0.77294
USER: genes 10 Torsion [N]-C--CA-[N] |==|  0.57023
ROOT
ATOM      1  CA  ALA F 463      34.453 -25.361  23.922  1.00 80.84 LIG 0.17  C 
ATOM      2  CB  ALA F 463      33.894 -25.326  22.508  1.00 75.28 LIG 0.04  C 
ENDROOT
BRANCH 1 3
ATOM      3  C   ALA F 463      35.169 -24.057  24.248  1.00 84.46 LIG 0.24  C 
ATOM      4 O    ALA F 463      34.614 -22.972  24.070  1.00 85.06 LIG-0.27  OA
ATOM      5  N   GLY F 464      36.405 -24.166  24.722  1.00 87.45 LIG-0.35  N 
ATOM      6 H    GLY F 464      36.785 -24.917  24.902  1.00 87.45 LIG 0.16  HD
BRANCH 5 7
ATOM      7  CA  GLY F 464      37.233 -23.002  24.978  1.00 89.28 LIG 0.23  C 
BRANCH 7 8
ATOM      8  C   GLY F 464      38.120 -22.576  23.820  1.00 90.16 LIG 0.23  C 
ATOM      9 O    GLY F 464      37.831 -22.897  22.666  1.00 90.52 LIG-0.27  OA
ATOM     10  N   ALA F 465      39.197 -21.855  24.123  1.00 88.18 LIG-0.35  N 
ATOM     11 H    ALA F 465      39.421 -21.644  24.926  1.00 88.18 LIG 0.16  HD
BRANCH 10 12
ATOM     12  CA  ALA F 465      40.106 -21.353  23.096  1.00 85.90 LIG 0.16  C 
ATOM     13  CB  ALA F 465      40.500 -22.474  22.144  1.00 84.54 LIG 0.04  C 
BRANCH 12 14
ATOM     14  C   ALA F 465      39.490 -20.192  22.317  1.00 85.67 LIG 0.22  C 
ATOM     15 O    ALA F 465      40.126 -19.151  22.128  1.00 84.89 LIG-0.29  OA
ENDBRANCH 12 14
ENDBRANCH 10 12
ENDBRANCH 7 8
ENDBRANCH 5 7
ENDBRANCH 1 3
BRANCH 1 16
ATOM     16  N   ALA F 463      33.389 -25.606  24.890  1.00 83.00 LIG-0.35  N 
ATOM     17  C   GLY F 462      33.630 -25.656  26.198  1.00 85.58 LIG 0.24  C 
ATOM     18 O    GLY F 462      34.754 -25.517  26.681  1.00 87.56 LIG-0.27  OA
ATOM     19 H    ALA F 463      32.611 -25.712  24.541  1.00 83.00 LIG 0.16  HD
BRANCH 17 20
ATOM     20  CA  GLY F 462      32.433 -25.903  27.092  1.00 87.31 LIG 0.23  C 
BRANCH 20 21
ATOM     21  N   GLY F 462      32.775 -25.853  28.501  1.00 88.73 LIG-0.35  N 
ATOM     22  C   ALA F 461      33.310 -26.892  29.132  1.00 88.98 LIG 0.26  C 
ATOM     23 O    ALA F 461      33.551 -27.965  28.579  1.00 91.33 LIG-0.27  OA
ATOM     24 H    GLY F 462      32.602 -25.101  28.880  1.00 88.73 LIG 0.16  HD
BRANCH 22 25
ATOM     25  CA  ALA F 461      33.614 -26.690  30.612  1.00 85.90 LIG 0.40  C 
ATOM     26  CB  ALA F 461      33.985 -25.240  30.889  1.00 82.87 LIG 0.06  C 
ATOM     27  N   ALA F 461      34.683 -27.582  31.048  1.00 83.73 LIG 0.61  N 
ENDBRANCH 22 25
ENDBRANCH 20 21
ENDBRANCH 17 20
ENDBRANCH 1 16
TORSDOF 9
ENDMDL
MODEL 46
USER: ADFR SOLUTION from run 40
USER: SCORE 7.793399 LL:  -1.827 LR:  -7.539 RR:   0.000 FEB:  -4.854
USER: RMSD 8.555164
USER: SEED 39
USER: STATUS no improvement in best in 28 clusters for 5 generations
USER: GENES 11
USER: genes 0 Translation |==|  0.69630 0.74044 0.26487
USER: genes 1 Rotation |==|  0.40877 0.74816 0.24999 0.84291
USER: genes 2 Torsion [N]-CA--C-[N] |==|  0.86792
USER: genes 3 Torsion [C]-N--CA-[C] |==|  0.86366
USER: genes 4 Torsion [N]-CA--C-[N] |==|  0.90356
USER: genes 5 Torsion [C]-N--CA-[C] |==|  0.59823
USER: genes 6 Torsion [N]-CA--C-[O] |==|  0.16240
USER: genes 7 Torsion [CB]-CA--N-[C] |==|  0.28257
USER: genes 8 Torsion [N]-C--CA-[N] |==|  0.87743
USER: genes 9 Torsion [C]-CA--N-[C] |==|  0.82339
USER: genes 10 Torsion [N]-C--CA-[N] |==|  0.76878
ROOT
ATOM      1  CA  ALA F 463      38.784 -23.044  20.918  1.00 80.84 LIG 0.17  C 
ATOM      2  CB  ALA F 463      38.581 -21.960  19.871  1.00 75.28 LIG 0.04  C 
ENDROOT
BRANCH 1 3
ATOM      3  C   ALA F 463      38.914 -24.411  20.257  1.00 84.46 LIG 0.24  C 
ATOM      4 O    ALA F 463      37.988 -25.221  20.296  1.00 85.06 LIG-0.27  OA
ATOM      5  N   GLY F 464      40.070 -24.664  19.653  1.00 87.45 LIG-0.35  N 
ATOM      6 H    GLY F 464      40.704 -24.089  19.570  1.00 87.45 LIG 0.16  HD
BRANCH 5 7
ATOM      7  CA  GLY F 464      40.361 -25.962  19.071  1.00 89.28 LIG 0.23  C 
BRANCH 7 8
ATOM      8  C   GLY F 464      40.084 -27.149  19.978  1.00 90.16 LIG 0.23  C 
ATOM      9 O    GLY F 464      39.673 -28.209  19.504  1.00 90.52 LIG-0.27  OA
ATOM     10  N   ALA F 465      40.307 -26.976  21.279  1.00 88.18 LIG-0.35  N 
ATOM     11 H    ALA F 465      40.573 -26.234  21.624  1.00 88.18 LIG 0.16  HD
BRANCH 10 12
ATOM     12  CA  ALA F 465      40.116 -28.052  22.247  1.00 85.90 LIG 0.16  C 
ATOM     13  CB  ALA F 465      41.421 -28.806  22.465  1.00 84.54 LIG 0.04  C 
BRANCH 12 14
ATOM     14  C   ALA F 465      39.584 -27.525  23.579  1.00 85.67 LIG 0.22  C 
ATOM     15 O    ALA F 465      38.519 -26.905  23.631  1.00 84.89 LIG-0.29  OA
ENDBRANCH 12 14
ENDBRANCH 10 12
ENDBRANCH 7 8
ENDBRANCH 5 7
ENDBRANCH 1 3
BRANCH 1 16
ATOM     16  N   ALA F 463      39.966 -22.763  21.726  1.00 83.00 LIG-0.35  N 
ATOM     17  C   GLY F 462      39.871 -22.247  22.950  1.00 85.58 LIG 0.24  C 
ATOM     18 O    GLY F 462      38.797 -21.959  23.478  1.00 87.56 LIG-0.27  OA
ATOM     19 H    ALA F 463      40.711 -22.958  21.344  1.00 83.00 LIG 0.16  HD
BRANCH 17 20
ATOM     20  CA  GLY F 462      41.176 -22.019  23.685  1.00 87.31 LIG 0.23  C 
BRANCH 20 21
ATOM     21  N   GLY F 462      42.088 -23.140  23.555  1.00 88.73 LIG-0.35  N 
ATOM     22  C   ALA F 461      41.798 -24.342  24.041  1.00 88.98 LIG 0.26  C 
ATOM     23 O    ALA F 461      40.750 -24.594  24.633  1.00 91.33 LIG-0.27  OA
ATOM     24 H    GLY F 462      42.818 -22.955  23.141  1.00 88.73 LIG 0.16  HD
BRANCH 22 25
ATOM     25  CA  ALA F 461      42.855 -25.420  23.829  1.00 85.90 LIG 0.40  C 
ATOM     26  CB  ALA F 461      44.251 -24.847  24.022  1.00 82.87 LIG 0.06  C 
ATOM     27  N   ALA F 461      42.728 -26.016  22.503  1.00 83.73 LIG 0.61  N 
ENDBRANCH 22 25
ENDBRANCH 20 21
ENDBRANCH 17 20
ENDBRANCH 1 16
TORSDOF 9
ENDMDL
MODEL 47
USER: ADFR SOLUTION from run 83
USER: SCORE 8.317854 LL:  -1.299 LR:  -7.533 RR:   0.000 FEB:  -4.848
USER: RMSD 7.717576
USER: SEED 82
USER: STATUS no improvement in best in 23 clusters for 5 generations
USER: GENES 11
USER: genes 0 Translation |==|  0.81471 0.46155 0.31723
USER: genes 1 Rotation |==|  0.57474 0.40834 0.79417 0.88662
USER: genes 2 Torsion [N]-CA--C-[N] |==|  0.45334
USER: genes 3 Torsion [C]-N--CA-[C] |==|  0.81169
USER: genes 4 Torsion [N]-CA--C-[N] |==|  0.84777
USER: genes 5 Torsion [C]-N--CA-[C] |==|  0.18845
USER: genes 6 Torsion [N]-CA--C-[O] |==|  0.27979
USER: genes 7 Torsion [CB]-CA--N-[C] |==|  0.83889
USER: genes 8 Torsion [N]-C--CA-[N] |==|  0.98938
USER: genes 9 Torsion [C]-CA--N-[C] |==|  0.22711
USER: genes 10 Torsion [N]-C--CA-[N] |==|  0.83139
ROOT
ATOM      1  CA  ALA F 463      40.916 -27.228  21.939  1.00 80.84 LIG 0.17  C 
ATOM      2  CB  ALA F 463      39.804 -26.881  20.961  1.00 75.28 LIG 0.04  C 
ENDROOT
BRANCH 1 3
ATOM      3  C   ALA F 463      41.295 -26.011  22.774  1.00 84.46 LIG 0.24  C 
ATOM      4 O    ALA F 463      40.953 -25.925  23.953  1.00 85.06 LIG-0.27  OA
ATOM      5  N   GLY F 464      42.001 -25.070  22.156  1.00 87.45 LIG-0.35  N 
ATOM      6 H    GLY F 464      42.294 -25.142  21.350  1.00 87.45 LIG 0.16  HD
BRANCH 5 7
ATOM      7  CA  GLY F 464      42.341 -23.818  22.805  1.00 89.28 LIG 0.23  C 
BRANCH 7 8
ATOM      8  C   GLY F 464      41.165 -22.898  23.084  1.00 90.16 LIG 0.23  C 
ATOM      9 O    GLY F 464      40.957 -22.485  24.226  1.00 90.52 LIG-0.27  OA
ATOM     10  N   ALA F 465      40.396 -22.576  22.046  1.00 88.18 LIG-0.35  N 
ATOM     11 H    ALA F 465      40.518 -22.875  21.249  1.00 88.18 LIG 0.16  HD
BRANCH 10 12
ATOM     12  CA  ALA F 465      39.258 -21.669  22.177  1.00 85.90 LIG 0.16  C 
ATOM     13  CB  ALA F 465      38.308 -22.165  23.258  1.00 84.54 LIG 0.04  C 
BRANCH 12 14
ATOM     14  C   ALA F 465      39.708 -20.242  22.486  1.00 85.67 LIG 0.22  C 
ATOM     15 O    ALA F 465      39.752 -19.388  21.596  1.00 84.89 LIG-0.29  OA
ENDBRANCH 12 14
ENDBRANCH 10 12
ENDBRANCH 7 8
ENDBRANCH 5 7
ENDBRANCH 1 3
BRANCH 1 16
ATOM     16  N   ALA F 463      40.511 -28.327  22.808  1.00 83.00 LIG-0.35  N 
ATOM     17  C   GLY F 462      39.428 -28.249  23.578  1.00 85.58 LIG 0.24  C 
ATOM     18 O    GLY F 462      38.705 -27.253  23.625  1.00 87.56 LIG-0.27  OA
ATOM     19 H    ALA F 463      41.027 -29.014  22.776  1.00 83.00 LIG 0.16  HD
BRANCH 17 20
ATOM     20  CA  GLY F 462      39.114 -29.468  24.421  1.00 87.31 LIG 0.23  C 
BRANCH 20 21
ATOM     21  N   GLY F 462      40.027 -30.566  24.167  1.00 88.73 LIG-0.35  N 
ATOM     22  C   ALA F 461      41.226 -30.631  24.734  1.00 88.98 LIG 0.26  C 
ATOM     23 O    ALA F 461      41.651 -29.773  25.508  1.00 91.33 LIG-0.27  OA
ATOM     24 H    GLY F 462      39.722 -31.160  23.624  1.00 88.73 LIG 0.16  HD
BRANCH 22 25
ATOM     25  CA  ALA F 461      42.073 -31.844  24.369  1.00 85.90 LIG 0.40  C 
ATOM     26  CB  ALA F 461      42.375 -31.857  22.878  1.00 82.87 LIG 0.06  C 
ATOM     27  N   ALA F 461      41.406 -33.080  24.765  1.00 83.73 LIG 0.61  N 
ENDBRANCH 22 25
ENDBRANCH 20 21
ENDBRANCH 17 20
ENDBRANCH 1 16
TORSDOF 9
ENDMDL
MODEL 48
USER: ADFR SOLUTION from run 80
USER: SCORE 7.517900 LL:  -1.126 LR:  -7.525 RR:   0.000 FEB:  -4.840
USER: RMSD 4.437519
USER: SEED 79
USER: STATUS no improvement in best in 11 clusters for 5 generations
USER: GENES 11
USER: genes 0 Translation |==|  0.45437 0.59831 0.38905
USER: genes 1 Rotation |==|  0.64811 0.56645 0.60394 0.96135
USER: genes 2 Torsion [N]-CA--C-[N] |==|  0.38889
USER: genes 3 Torsion [C]-N--CA-[C] |==|  0.42581
USER: genes 4 Torsion [N]-CA--C-[N] |==|  0.88446
USER: genes 5 Torsion [C]-N--CA-[C] |==|  0.53889
USER: genes 6 Torsion [N]-CA--C-[O] |==|  0.63596
USER: genes 7 Torsion [CB]-CA--N-[C] |==|  0.54065
USER: genes 8 Torsion [N]-C--CA-[N] |==|  0.42982
USER: genes 9 Torsion [C]-CA--N-[C] |==|  0.83796
USER: genes 10 Torsion [N]-C--CA-[N] |==|  0.45617
ROOT
ATOM      1  CA  ALA F 463      34.430 -25.176  23.340  1.00 80.84 LIG 0.17  C 
ATOM      2  CB  ALA F 463      33.377 -24.078  23.369  1.00 75.28 LIG 0.04  C 
ENDROOT
BRANCH 1 3
ATOM      3  C   ALA F 463      35.828 -24.577  23.259  1.00 84.46 LIG 0.24  C 
ATOM      4 O    ALA F 463      36.403 -24.180  24.272  1.00 85.06 LIG-0.27  OA
ATOM      5  N   GLY F 464      36.371 -24.511  22.048  1.00 87.45 LIG-0.35  N 
ATOM      6 H    GLY F 464      36.004 -24.835  21.340  1.00 87.45 LIG 0.16  HD
BRANCH 5 7
ATOM      7  CA  GLY F 464      37.654 -23.873  21.817  1.00 89.28 LIG 0.23  C 
BRANCH 7 8
ATOM      8  C   GLY F 464      38.424 -24.393  20.616  1.00 90.16 LIG 0.23  C 
ATOM      9 O    GLY F 464      39.013 -23.610  19.870  1.00 90.52 LIG-0.27  OA
ATOM     10  N   ALA F 465      38.422 -25.711  20.427  1.00 88.18 LIG-0.35  N 
ATOM     11 H    ALA F 465      37.996 -26.265  20.928  1.00 88.18 LIG 0.16  HD
BRANCH 10 12
ATOM     12  CA  ALA F 465      39.158 -26.337  19.331  1.00 85.90 LIG 0.16  C 
ATOM     13  CB  ALA F 465      40.656 -26.264  19.591  1.00 84.54 LIG 0.04  C 
BRANCH 12 14
ATOM     14  C   ALA F 465      38.729 -27.788  19.121  1.00 85.67 LIG 0.22  C 
ATOM     15 O    ALA F 465      39.570 -28.686  19.025  1.00 84.89 LIG-0.29  OA
ENDBRANCH 12 14
ENDBRANCH 10 12
ENDBRANCH 7 8
ENDBRANCH 5 7
ENDBRANCH 1 3
BRANCH 1 16
ATOM     16  N   ALA F 463      34.316 -26.029  24.518  1.00 83.00 LIG-0.35  N 
ATOM     17  C   GLY F 462      35.284 -26.872  24.869  1.00 85.58 LIG 0.24  C 
ATOM     18 O    GLY F 462      36.327 -27.005  24.227  1.00 87.56 LIG-0.27  OA
ATOM     19 H    ALA F 463      33.580 -25.936  24.953  1.00 83.00 LIG 0.16  HD
BRANCH 17 20
ATOM     20  CA  GLY F 462      35.043 -27.687  26.123  1.00 87.31 LIG 0.23  C 
BRANCH 20 21
ATOM     21  N   GLY F 462      35.790 -28.930  26.127  1.00 88.73 LIG-0.35  N 
ATOM     22  C   ALA F 461      35.647 -29.841  25.171  1.00 88.98 LIG 0.26  C 
ATOM     23 O    ALA F 461      34.876 -29.704  24.222  1.00 91.33 LIG-0.27  OA
ATOM     24 H    GLY F 462      36.325 -29.018  26.795  1.00 88.73 LIG 0.16  HD
BRANCH 22 25
ATOM     25  CA  ALA F 461      36.499 -31.097  25.312  1.00 85.90 LIG 0.40  C 
ATOM     26  CB  ALA F 461      37.957 -30.793  24.999  1.00 82.87 LIG 0.06  C 
ATOM     27  N   ALA F 461      36.003 -32.160  24.445  1.00 83.73 LIG 0.61  N 
ENDBRANCH 22 25
ENDBRANCH 20 21
ENDBRANCH 17 20
ENDBRANCH 1 16
TORSDOF 9
ENDMDL
MODEL 49
USER: ADFR SOLUTION from run 135
USER: SCORE 8.342504 LL:  -1.558 LR:  -7.509 RR:   0.000 FEB:  -4.825
USER: RMSD 8.386067
USER: SEED 134
USER: STATUS no improvement in best in 20 clusters for 5 generations
USER: GENES 11
USER: genes 0 Translation |==|  0.75461 0.61634 0.21478
USER: genes 1 Rotation |==|  0.68658 0.52096 0.91294 0.71031
USER: genes 2 Torsion [N]-CA--C-[N] |==|  0.16171
USER: genes 3 Torsion [C]-N--CA-[C] |==|  0.75914
USER: genes 4 Torsion [N]-CA--C-[N] |==|  0.05895
USER: genes 5 Torsion [C]-N--CA-[C] |==|  0.75229
USER: genes 6 Torsion [N]-CA--C-[O] |==|  0.73108
USER: genes 7 Torsion [CB]-CA--N-[C] |==|  0.81603
USER: genes 8 Torsion [N]-C--CA-[N] |==|  0.40556
USER: genes 9 Torsion [C]-CA--N-[C] |==|  0.79619
USER: genes 10 Torsion [N]-C--CA-[N] |==|  0.46981
ROOT
ATOM      1  CA  ALA F 463      39.834 -24.906  19.941  1.00 80.84 LIG 0.17  C 
ATOM      2  CB  ALA F 463      38.637 -25.728  19.488  1.00 75.28 LIG 0.04  C 
ENDROOT
BRANCH 1 3
ATOM      3  C   ALA F 463      39.401 -23.823  20.922  1.00 84.46 LIG 0.24  C 
ATOM      4 O    ALA F 463      38.221 -23.710  21.256  1.00 85.06 LIG-0.27  OA
ATOM      5  N   GLY F 464      40.360 -23.025  21.378  1.00 87.45 LIG-0.35  N 
ATOM      6 H    GLY F 464      41.195 -23.127  21.197  1.00 87.45 LIG 0.16  HD
BRANCH 5 7
ATOM      7  CA  GLY F 464      40.070 -21.892  22.238  1.00 89.28 LIG 0.23  C 
BRANCH 7 8
ATOM      8  C   GLY F 464      39.722 -20.606  21.510  1.00 90.16 LIG 0.23  C 
ATOM      9 O    GLY F 464      39.839 -19.519  22.079  1.00 90.52 LIG-0.27  OA
ATOM     10  N   ALA F 465      39.295 -20.723  20.254  1.00 88.18 LIG-0.35  N 
ATOM     11 H    ALA F 465      39.188 -21.477  19.854  1.00 88.18 LIG 0.16  HD
BRANCH 10 12
ATOM     12  CA  ALA F 465      38.966 -19.558  19.436  1.00 85.90 LIG 0.16  C 
ATOM     13  CB  ALA F 465      39.276 -19.836  17.971  1.00 84.54 LIG 0.04  C 
BRANCH 12 14
ATOM     14  C   ALA F 465      37.503 -19.151  19.597  1.00 85.67 LIG 0.22  C 
ATOM     15 O    ALA F 465      36.652 -19.523  18.785  1.00 84.89 LIG-0.29  OA
ENDBRANCH 12 14
ENDBRANCH 10 12
ENDBRANCH 7 8
ENDBRANCH 5 7
ENDBRANCH 1 3
BRANCH 1 16
ATOM     16  N   ALA F 463      40.844 -25.763  20.553  1.00 83.00 LIG-0.35  N 
ATOM     17  C   GLY F 462      40.620 -26.402  21.699  1.00 85.58 LIG 0.24  C 
ATOM     18 O    GLY F 462      39.565 -26.307  22.328  1.00 87.56 LIG-0.27  OA
ATOM     19 H    ALA F 463      41.580 -25.814  20.112  1.00 83.00 LIG 0.16  HD
BRANCH 17 20
ATOM     20  CA  GLY F 462      41.748 -27.270  22.215  1.00 87.31 LIG 0.23  C 
BRANCH 20 21
ATOM     21  N   GLY F 462      41.818 -27.282  23.664  1.00 88.73 LIG-0.35  N 
ATOM     22  C   ALA F 461      42.264 -26.240  24.357  1.00 88.98 LIG 0.26  C 
ATOM     23 O    ALA F 461      42.651 -25.198  23.829  1.00 91.33 LIG-0.27  OA
ATOM     24 H    GLY F 462      41.548 -28.015  24.024  1.00 88.73 LIG 0.16  HD
BRANCH 22 25
ATOM     25  CA  ALA F 461      42.280 -26.403  25.872  1.00 85.90 LIG 0.40  C 
ATOM     26  CB  ALA F 461      40.862 -26.470  26.418  1.00 82.87 LIG 0.06  C 
ATOM     27  N   ALA F 461      43.018 -25.313  26.502  1.00 83.73 LIG 0.61  N 
ENDBRANCH 22 25
ENDBRANCH 20 21
ENDBRANCH 17 20
ENDBRANCH 1 16
TORSDOF 9
ENDMDL
MODEL 50
USER: ADFR SOLUTION from run 28
USER: SCORE 7.820568 LL:  -1.391 LR:  -7.503 RR:   0.000 FEB:  -4.818
USER: RMSD 8.955691
USER: SEED 27
USER: STATUS no improvement in best in 31 clusters for 5 generations
USER: GENES 11
USER: genes 0 Translation |==|  0.52465 0.67765 0.38290
USER: genes 1 Rotation |==|  0.22405 0.49642 0.08307 0.50298
USER: genes 2 Torsion [N]-CA--C-[N] |==|  0.51143
USER: genes 3 Torsion [C]-N--CA-[C] |==|  0.77691
USER: genes 4 Torsion [N]-CA--C-[N] |==|  0.49842
USER: genes 5 Torsion [C]-N--CA-[C] |==|  0.14679
USER: genes 6 Torsion [N]-CA--C-[O] |==|  0.10571
USER: genes 7 Torsion [CB]-CA--N-[C] |==|  0.19179
USER: genes 8 Torsion [N]-C--CA-[N] |==|  0.42848
USER: genes 9 Torsion [C]-CA--N-[C] |==|  0.78927
USER: genes 10 Torsion [N]-C--CA-[N] |==|  0.53491
ROOT
ATOM      1  CA  ALA F 463      35.695 -23.986  23.220  1.00 80.84 LIG 0.17  C 
ATOM      2  CB  ALA F 463      35.047 -25.151  22.486  1.00 75.28 LIG 0.04  C 
ENDROOT
BRANCH 1 3
ATOM      3  C   ALA F 463      35.247 -23.953  24.675  1.00 84.46 LIG 0.24  C 
ATOM      4 O    ALA F 463      36.072 -23.928  25.589  1.00 85.06 LIG-0.27  OA
ATOM      5  N   GLY F 464      33.935 -23.958  24.887  1.00 87.45 LIG-0.35  N 
ATOM      6 H    GLY F 464      33.348 -23.920  24.260  1.00 87.45 LIG 0.16  HD
BRANCH 5 7
ATOM      7  CA  GLY F 464      33.376 -24.030  26.225  1.00 89.28 LIG 0.23  C 
BRANCH 7 8
ATOM      8  C   GLY F 464      33.335 -25.422  26.831  1.00 90.16 LIG 0.23  C 
ATOM      9 O    GLY F 464      33.747 -26.390  26.190  1.00 90.52 LIG-0.27  OA
ATOM     10  N   ALA F 465      32.839 -25.526  28.062  1.00 88.18 LIG-0.35  N 
ATOM     11 H    ALA F 465      32.528 -24.861  28.510  1.00 88.18 LIG 0.16  HD
BRANCH 10 12
ATOM     12  CA  ALA F 465      32.781 -26.804  28.768  1.00 85.90 LIG 0.16  C 
ATOM     13  CB  ALA F 465      31.743 -27.715  28.128  1.00 84.54 LIG 0.04  C 
BRANCH 12 14
ATOM     14  C   ALA F 465      34.144 -27.495  28.794  1.00 85.67 LIG 0.22  C 
ATOM     15 O    ALA F 465      35.180 -26.841  28.938  1.00 84.89 LIG-0.29  OA
ENDBRANCH 12 14
ENDBRANCH 10 12
ENDBRANCH 7 8
ENDBRANCH 5 7
ENDBRANCH 1 3
BRANCH 1 16
ATOM     16  N   ALA F 463      37.149 -24.076  23.144  1.00 83.00 LIG-0.35  N 
ATOM     17  C   GLY F 462      37.803 -23.891  21.999  1.00 85.58 LIG 0.24  C 
ATOM     18 O    GLY F 462      37.239 -23.650  20.932  1.00 87.56 LIG-0.27  OA
ATOM     19 H    ALA F 463      37.533 -24.255  23.892  1.00 83.00 LIG 0.16  HD
BRANCH 17 20
ATOM     20  CA  GLY F 462      39.313 -23.998  22.064  1.00 87.31 LIG 0.23  C 
BRANCH 20 21
ATOM     21  N   GLY F 462      39.896 -24.379  20.792  1.00 88.73 LIG-0.35  N 
ATOM     22  C   ALA F 461      39.842 -25.626  20.337  1.00 88.98 LIG 0.26  C 
ATOM     23 O    ALA F 461      39.302 -26.544  20.954  1.00 91.33 LIG-0.27  OA
ATOM     24 H    GLY F 462      40.272 -23.732  20.368  1.00 88.73 LIG 0.16  HD
BRANCH 22 25
ATOM     25  CA  ALA F 461      40.500 -25.873  18.985  1.00 85.90 LIG 0.40  C 
ATOM     26  CB  ALA F 461      40.126 -24.776  17.999  1.00 82.87 LIG 0.06  C 
ATOM     27  N   ALA F 461      40.126 -27.181  18.458  1.00 83.73 LIG 0.61  N 
ENDBRANCH 22 25
ENDBRANCH 20 21
ENDBRANCH 17 20
ENDBRANCH 1 16
TORSDOF 9
ENDMDL
MODEL 51
USER: ADFR SOLUTION from run 37
USER: SCORE 8.010653 LL:  -1.991 LR:  -7.458 RR:   0.000 FEB:  -4.773
USER: RMSD 7.867572
USER: SEED 36
USER: STATUS no improvement in best in 23 clusters for 5 generations
USER: GENES 11
USER: genes 0 Translation |==|  0.55866 0.63569 0.43473
USER: genes 1 Rotation |==|  0.50359 0.83598 0.53739 0.86838
USER: genes 2 Torsion [N]-CA--C-[N] |==|  0.07359
USER: genes 3 Torsion [C]-N--CA-[C] |==|  0.25396
USER: genes 4 Torsion [N]-CA--C-[N] |==|  0.01817
USER: genes 5 Torsion [C]-N--CA-[C] |==|  0.48181
USER: genes 6 Torsion [N]-CA--C-[O] |==|  0.45008
USER: genes 7 Torsion [CB]-CA--N-[C] |==|  0.81439
USER: genes 8 Torsion [N]-C--CA-[N] |==|  0.25784
USER: genes 9 Torsion [C]-CA--N-[C] |==|  0.21759
USER: genes 10 Torsion [N]-C--CA-[N] |==|  0.31292
ROOT
ATOM      1  CA  ALA F 463      36.307 -24.616  24.230  1.00 80.84 LIG 0.17  C 
ATOM      2  CB  ALA F 463      35.259 -23.611  24.686  1.00 75.28 LIG 0.04  C 
ENDROOT
BRANCH 1 3
ATOM      3  C   ALA F 463      36.596 -24.453  22.743  1.00 84.46 LIG 0.24  C 
ATOM      4 O    ALA F 463      35.719 -24.069  21.969  1.00 85.06 LIG-0.27  OA
ATOM      5  N   GLY F 464      37.829 -24.749  22.348  1.00 87.45 LIG-0.35  N 
ATOM      6 H    GLY F 464      38.466 -24.965  22.884  1.00 87.45 LIG 0.16  HD
BRANCH 5 7
ATOM      7  CA  GLY F 464      38.208 -24.734  20.946  1.00 89.28 LIG 0.23  C 
BRANCH 7 8
ATOM      8  C   GLY F 464      38.762 -23.411  20.445  1.00 90.16 LIG 0.23  C 
ATOM      9 O    GLY F 464      39.001 -23.252  19.247  1.00 90.52 LIG-0.27  OA
ATOM     10  N   ALA F 465      38.967 -22.463  21.357  1.00 88.18 LIG-0.35  N 
ATOM     11 H    ALA F 465      38.825 -22.569  22.198  1.00 88.18 LIG 0.16  HD
BRANCH 10 12
ATOM     12  CA  ALA F 465      39.459 -21.135  20.996  1.00 85.90 LIG 0.16  C 
ATOM     13  CB  ALA F 465      38.626 -20.552  19.863  1.00 84.54 LIG 0.04  C 
BRANCH 12 14
ATOM     14  C   ALA F 465      39.456 -20.188  22.194  1.00 85.67 LIG 0.22  C 
ATOM     15 O    ALA F 465      40.126 -19.152  22.181  1.00 84.89 LIG-0.29  OA
ENDBRANCH 12 14
ENDBRANCH 10 12
ENDBRANCH 7 8
ENDBRANCH 5 7
ENDBRANCH 1 3
BRANCH 1 16
ATOM     16  N   ALA F 463      37.536 -24.461  25.001  1.00 83.00 LIG-0.35  N 
ATOM     17  C   GLY F 462      38.292 -23.370  24.902  1.00 85.58 LIG 0.24  C 
ATOM     18 O    GLY F 462      38.023 -22.429  24.153  1.00 87.56 LIG-0.27  OA
ATOM     19 H    ALA F 463      37.720 -25.127  25.512  1.00 83.00 LIG 0.16  HD
BRANCH 17 20
ATOM     20  CA  GLY F 462      39.534 -23.333  25.769  1.00 87.31 LIG 0.23  C 
BRANCH 20 21
ATOM     21  N   GLY F 462      40.706 -23.836  25.078  1.00 88.73 LIG-0.35  N 
ATOM     22  C   ALA F 461      41.372 -23.101  24.194  1.00 88.98 LIG 0.26  C 
ATOM     23 O    ALA F 461      41.048 -21.953  23.894  1.00 91.33 LIG-0.27  OA
ATOM     24 H    GLY F 462      40.924 -24.640  25.292  1.00 88.73 LIG 0.16  HD
BRANCH 22 25
ATOM     25  CA  ALA F 461      42.582 -23.767  23.549  1.00 85.90 LIG 0.40  C 
ATOM     26  CB  ALA F 461      43.829 -22.920  23.750  1.00 82.87 LIG 0.06  C 
ATOM     27  N   ALA F 461      42.348 -24.001  22.128  1.00 83.73 LIG 0.61  N 
ENDBRANCH 22 25
ENDBRANCH 20 21
ENDBRANCH 17 20
ENDBRANCH 1 16
TORSDOF 9
ENDMDL
MODEL 52
USER: ADFR SOLUTION from run 118
USER: SCORE 7.165662 LL:  -1.164 LR:  -7.464 RR:   0.000 FEB:  -4.779
USER: RMSD 2.677942
USER: SEED 117
USER: STATUS no improvement in best in 34 clusters for 5 generations
USER: GENES 11
USER: genes 0 Translation |==|  0.46278 0.57248 0.43443
USER: genes 1 Rotation |==|  0.47071 0.51042 0.75946 0.92628
USER: genes 2 Torsion [N]-CA--C-[N] |==|  0.17653
USER: genes 3 Torsion [C]-N--CA-[C] |==|  0.79073
USER: genes 4 Torsion [N]-CA--C-[N] |==|  0.57063
USER: genes 5 Torsion [C]-N--CA-[C] |==|  0.19721
USER: genes 6 Torsion [N]-CA--C-[O] |==|  0.28555
USER: genes 7 Torsion [CB]-CA--N-[C] |==|  0.81420
USER: genes 8 Torsion [N]-C--CA-[N] |==|  0.86368
USER: genes 9 Torsion [C]-CA--N-[C] |==|  0.63924
USER: genes 10 Torsion [N]-C--CA-[N] |==|  0.35870
ROOT
ATOM      1  CA  ALA F 463      34.581 -25.564  24.224  1.00 80.84 LIG 0.17  C 
ATOM      2  CB  ALA F 463      33.391 -25.522  23.278  1.00 75.28 LIG 0.04  C 
ENDROOT
BRANCH 1 3
ATOM      3  C   ALA F 463      35.304 -24.223  24.237  1.00 84.46 LIG 0.24  C 
ATOM      4 O    ALA F 463      34.848 -23.255  23.628  1.00 85.06 LIG-0.27  OA
ATOM      5  N   GLY F 464      36.437 -24.172  24.930  1.00 87.45 LIG-0.35  N 
ATOM      6 H    GLY F 464      36.738 -24.823  25.404  1.00 87.45 LIG 0.16  HD
BRANCH 5 7
ATOM      7  CA  GLY F 464      37.274 -22.986  24.941  1.00 89.28 LIG 0.23  C 
BRANCH 7 8
ATOM      8  C   GLY F 464      38.087 -22.761  23.679  1.00 90.16 LIG 0.23  C 
ATOM      9 O    GLY F 464      37.705 -23.225  22.603  1.00 90.52 LIG-0.27  OA
ATOM     10  N   ALA F 465      39.207 -22.051  23.804  1.00 88.18 LIG-0.35  N 
ATOM     11 H    ALA F 465      39.495 -21.741  24.553  1.00 88.18 LIG 0.16  HD
BRANCH 10 12
ATOM     12  CA  ALA F 465      40.055 -21.733  22.658  1.00 85.90 LIG 0.16  C 
ATOM     13  CB  ALA F 465      40.388 -22.999  21.880  1.00 84.54 LIG 0.04  C 
BRANCH 12 14
ATOM     14  C   ALA F 465      39.396 -20.707  21.737  1.00 85.67 LIG 0.22  C 
ATOM     15 O    ALA F 465      39.752 -19.526  21.753  1.00 84.89 LIG-0.29  OA
ENDBRANCH 12 14
ENDBRANCH 10 12
ENDBRANCH 7 8
ENDBRANCH 5 7
ENDBRANCH 1 3
BRANCH 1 16
ATOM     16  N   ALA F 463      34.152 -25.916  25.574  1.00 83.00 LIG-0.35  N 
ATOM     17  C   GLY F 462      33.387 -25.104  26.300  1.00 85.58 LIG 0.24  C 
ATOM     18 O    GLY F 462      33.002 -24.004  25.899  1.00 87.56 LIG-0.27  OA
ATOM     19 H    ALA F 463      34.435 -26.680  25.848  1.00 83.00 LIG 0.16  HD
BRANCH 17 20
ATOM     20  CA  GLY F 462      33.003 -25.599  27.679  1.00 87.31 LIG 0.23  C 
BRANCH 20 21
ATOM     21  N   GLY F 462      32.486 -26.954  27.656  1.00 88.73 LIG-0.35  N 
ATOM     22  C   ALA F 461      31.343 -27.282  28.247  1.00 88.98 LIG 0.26  C 
ATOM     23 O    ALA F 461      30.644 -26.473  28.856  1.00 91.33 LIG-0.27  OA
ATOM     24 H    GLY F 462      32.981 -27.513  27.230  1.00 88.73 LIG 0.16  HD
BRANCH 22 25
ATOM     25  CA  ALA F 461      30.931 -28.745  28.139  1.00 85.90 LIG 0.40  C 
ATOM     26  CB  ALA F 461      29.751 -28.901  27.190  1.00 82.87 LIG 0.06  C 
ATOM     27  N   ALA F 461      30.604 -29.290  29.452  1.00 83.73 LIG 0.61  N 
ENDBRANCH 22 25
ENDBRANCH 20 21
ENDBRANCH 17 20
ENDBRANCH 1 16
TORSDOF 9
ENDMDL
MODEL 53
USER: ADFR SOLUTION from run 157
USER: SCORE 7.367478 LL:  -1.728 LR:  -7.440 RR:   0.000 FEB:  -4.755
USER: RMSD 8.895908
USER: SEED 156
USER: STATUS no improvement in best in 32 clusters for 5 generations
USER: GENES 11
USER: genes 0 Translation |==|  0.75220 0.87348 0.28857
USER: genes 1 Rotation |==|  0.64028 0.26972 0.87450 0.69247
USER: genes 2 Torsion [N]-CA--C-[N] |==|  0.96308
USER: genes 3 Torsion [C]-N--CA-[C] |==|  0.75000
USER: genes 4 Torsion [N]-CA--C-[N] |==|  0.99167
USER: genes 5 Torsion [C]-N--CA-[C] |==|  0.64082
USER: genes 6 Torsion [N]-CA--C-[O] |==|  0.93307
USER: genes 7 Torsion [CB]-CA--N-[C] |==|  0.48947
USER: genes 8 Torsion [N]-C--CA-[N] |==|  0.04354
USER: genes 9 Torsion [C]-CA--N-[C] |==|  0.76632
USER: genes 10 Torsion [N]-C--CA-[N] |==|  0.93648
ROOT
ATOM      1  CA  ALA F 463      39.791 -21.049  21.380  1.00 80.84 LIG 0.17  C 
ATOM      2  CB  ALA F 463      39.001 -20.685  20.132  1.00 75.28 LIG 0.04  C 
ENDROOT
BRANCH 1 3
ATOM      3  C   ALA F 463      39.001 -20.700  22.635  1.00 84.46 LIG 0.24  C 
ATOM      4 O    ALA F 463      38.826 -19.526  22.964  1.00 85.06 LIG-0.27  OA
ATOM      5  N   GLY F 464      38.528 -21.724  23.337  1.00 87.45 LIG-0.35  N 
ATOM      6 H    GLY F 464      38.595 -22.546  23.090  1.00 87.45 LIG 0.16  HD
BRANCH 5 7
ATOM      7  CA  GLY F 464      37.846 -21.535  24.604  1.00 89.28 LIG 0.23  C 
BRANCH 7 8
ATOM      8  C   GLY F 464      38.746 -21.552  25.827  1.00 90.16 LIG 0.23  C 
ATOM      9 O    GLY F 464      38.276 -21.345  26.947  1.00 90.52 LIG-0.27  OA
ATOM     10  N   ALA F 465      40.038 -21.798  25.618  1.00 88.18 LIG-0.35  N 
ATOM     11 H    ALA F 465      40.382 -21.921  24.840  1.00 88.18 LIG 0.16  HD
BRANCH 10 12
ATOM     12  CA  ALA F 465      40.998 -21.879  26.716  1.00 85.90 LIG 0.16  C 
ATOM     13  CB  ALA F 465      41.430 -23.323  26.935  1.00 84.54 LIG 0.04  C 
BRANCH 12 14
ATOM     14  C   ALA F 465      42.220 -20.996  26.464  1.00 85.67 LIG 0.22  C 
ATOM     15 O    ALA F 465      42.544 -20.682  25.316  1.00 84.89 LIG-0.29  OA
ENDBRANCH 12 14
ENDBRANCH 10 12
ENDBRANCH 7 8
ENDBRANCH 5 7
ENDBRANCH 1 3
BRANCH 1 16
ATOM     16  N   ALA F 463      40.129 -22.468  21.378  1.00 83.00 LIG-0.35  N 
ATOM     17  C   GLY F 462      40.883 -23.010  22.332  1.00 85.58 LIG 0.24  C 
ATOM     18 O    GLY F 462      41.357 -22.361  23.265  1.00 87.56 LIG-0.27  OA
ATOM     19 H    ALA F 463      39.802 -22.909  20.717  1.00 83.00 LIG 0.16  HD
BRANCH 17 20
ATOM     20  CA  GLY F 462      41.145 -24.497  22.216  1.00 87.31 LIG 0.23  C 
BRANCH 20 21
ATOM     21  N   GLY F 462      40.832 -25.013  20.897  1.00 88.73 LIG-0.35  N 
ATOM     22  C   ALA F 461      39.599 -25.369  20.554  1.00 88.98 LIG 0.26  C 
ATOM     23 O    ALA F 461      38.639 -25.292  21.321  1.00 91.33 LIG-0.27  OA
ATOM     24 H    GLY F 462      41.509 -25.065  20.369  1.00 88.73 LIG 0.16  HD
BRANCH 22 25
ATOM     25  CA  ALA F 461      39.426 -25.894  19.134  1.00 85.90 LIG 0.40  C 
ATOM     26  CB  ALA F 461      39.375 -27.414  19.128  1.00 82.87 LIG 0.06  C 
ATOM     27  N   ALA F 461      40.501 -25.416  18.271  1.00 83.73 LIG 0.61  N 
ENDBRANCH 22 25
ENDBRANCH 20 21
ENDBRANCH 17 20
ENDBRANCH 1 16
TORSDOF 9
ENDMDL
MODEL 54
USER: ADFR SOLUTION from run 116
USER: SCORE 7.857471 LL:  -1.190 LR:  -7.426 RR:   0.000 FEB:  -4.741
USER: RMSD 9.162311
USER: SEED 115
USER: STATUS no improvement in best in 12 clusters for 5 generations
USER: GENES 11
USER: genes 0 Translation |==|  0.71234 0.49707 0.17227
USER: genes 1 Rotation |==|  0.50112 0.40046 0.24720 0.91974
USER: genes 2 Torsion [N]-CA--C-[N] |==|  0.93294
USER: genes 3 Torsion [C]-N--CA-[C] |==|  0.61474
USER: genes 4 Torsion [N]-CA--C-[N] |==|  0.41171
USER: genes 5 Torsion [C]-N--CA-[C] |==|  0.18585
USER: genes 6 Torsion [N]-CA--C-[O] |==|  0.17854
USER: genes 7 Torsion [CB]-CA--N-[C] |==|  0.87059
USER: genes 8 Torsion [N]-C--CA-[N] |==|  0.62915
USER: genes 9 Torsion [C]-CA--N-[C] |==|  0.16924
USER: genes 10 Torsion [N]-C--CA-[N] |==|  0.57754
ROOT
ATOM      1  CA  ALA F 463      39.073 -26.695  19.112  1.00 80.84 LIG 0.17  C 
ATOM      2  CB  ALA F 463      40.180 -25.955  18.376  1.00 75.28 LIG 0.04  C 
ENDROOT
BRANCH 1 3
ATOM      3  C   ALA F 463      39.613 -27.967  19.753  1.00 84.46 LIG 0.24  C 
ATOM      4 O    ALA F 463      39.751 -28.997  19.091  1.00 85.06 LIG-0.27  OA
ATOM      5  N   GLY F 464      39.913 -27.894  21.045  1.00 87.45 LIG-0.35  N 
ATOM      6 H    GLY F 464      39.874 -27.168  21.506  1.00 87.45 LIG 0.16  HD
BRANCH 5 7
ATOM      7  CA  GLY F 464      40.340 -29.058  21.799  1.00 89.28 LIG 0.23  C 
BRANCH 7 8
ATOM      8  C   GLY F 464      39.751 -29.172  23.194  1.00 90.16 LIG 0.23  C 
ATOM      9 O    GLY F 464      39.484 -28.158  23.840  1.00 90.52 LIG-0.27  OA
ATOM     10  N   ALA F 465      39.548 -30.403  23.661  1.00 88.18 LIG-0.35  N 
ATOM     11 H    ALA F 465      39.751 -31.118  23.229  1.00 88.18 LIG 0.16  HD
BRANCH 10 12
ATOM     12  CA  ALA F 465      38.950 -30.644  24.972  1.00 85.90 LIG 0.16  C 
ATOM     13  CB  ALA F 465      39.750 -29.935  26.056  1.00 84.54 LIG 0.04  C 
BRANCH 12 14
ATOM     14  C   ALA F 465      37.490 -30.198  25.017  1.00 85.67 LIG 0.22  C 
ATOM     15 O    ALA F 465      36.640 -30.747  24.312  1.00 84.89 LIG-0.29  OA
ENDBRANCH 12 14
ENDBRANCH 10 12
ENDBRANCH 7 8
ENDBRANCH 5 7
ENDBRANCH 1 3
BRANCH 1 16
ATOM     16  N   ALA F 463      38.470 -25.838  20.127  1.00 83.00 LIG-0.35  N 
ATOM     17  C   GLY F 462      39.210 -25.120  20.968  1.00 85.58 LIG 0.24  C 
ATOM     18 O    GLY F 462      40.442 -25.135  20.963  1.00 87.56 LIG-0.27  OA
ATOM     19 H    ALA F 463      37.610 -25.843  20.130  1.00 83.00 LIG 0.16  HD
BRANCH 17 20
ATOM     20  CA  GLY F 462      38.455 -24.262  21.963  1.00 87.31 LIG 0.23  C 
BRANCH 20 21
ATOM     21  N   GLY F 462      38.984 -22.914  22.043  1.00 88.73 LIG-0.35  N 
ATOM     22  C   ALA F 461      39.001 -22.100  20.993  1.00 88.98 LIG 0.26  C 
ATOM     23 O    ALA F 461      38.578 -22.425  19.884  1.00 91.33 LIG-0.27  OA
ATOM     24 H    GLY F 462      39.278 -22.696  22.821  1.00 88.73 LIG 0.16  HD
BRANCH 22 25
ATOM     25  CA  ALA F 461      39.588 -20.714  21.231  1.00 85.90 LIG 0.40  C 
ATOM     26  CB  ALA F 461      39.380 -20.285  22.676  1.00 82.87 LIG 0.06  C 
ATOM     27  N   ALA F 461      39.000 -19.739  20.319  1.00 83.73 LIG 0.61  N 
ENDBRANCH 22 25
ENDBRANCH 20 21
ENDBRANCH 17 20
ENDBRANCH 1 16
TORSDOF 9
ENDMDL
MODEL 55
USER: ADFR SOLUTION from run 89
USER: SCORE 7.343064 LL:  -1.273 LR:  -7.427 RR:   0.000 FEB:  -4.742
USER: RMSD 2.275375
USER: SEED 88
USER: STATUS no improvement in best in 34 clusters for 5 generations
USER: GENES 11
USER: genes 0 Translation |==|  0.40443 0.62485 0.44345
USER: genes 1 Rotation |==|  0.63845 0.57718 0.42347 0.96799
USER: genes 2 Torsion [N]-CA--C-[N] |==|  0.69615
USER: genes 3 Torsion [C]-N--CA-[C] |==|  0.21371
USER: genes 4 Torsion [N]-CA--C-[N] |==|  0.55438
USER: genes 5 Torsion [C]-N--CA-[C] |==|  0.56121
USER: genes 6 Torsion [N]-CA--C-[O] |==|  0.33672
USER: genes 7 Torsion [CB]-CA--N-[C] |==|  0.81335
USER: genes 8 Torsion [N]-C--CA-[N] |==|  0.96353
USER: genes 9 Torsion [C]-CA--N-[C] |==|  0.30000
USER: genes 10 Torsion [N]-C--CA-[N] |==|  0.45274
ROOT
ATOM      1  CA  ALA F 463      33.531 -24.778  24.400  1.00 80.84 LIG 0.17  C 
ATOM      2  CB  ALA F 463      33.393 -23.263  24.376  1.00 75.28 LIG 0.04  C 
ENDROOT
BRANCH 1 3
ATOM      3  C   ALA F 463      34.922 -25.198  23.944  1.00 84.46 LIG 0.24  C 
ATOM      4 O    ALA F 463      35.166 -26.372  23.663  1.00 85.06 LIG-0.27  OA
ATOM      5  N   GLY F 464      35.834 -24.234  23.875  1.00 87.45 LIG-0.35  N 
ATOM      6 H    GLY F 464      35.665 -23.403  24.014  1.00 87.45 LIG 0.16  HD
BRANCH 5 7
ATOM      7  CA  GLY F 464      37.222 -24.515  23.552  1.00 89.28 LIG 0.23  C 
BRANCH 7 8
ATOM      8  C   GLY F 464      37.498 -24.779  22.082  1.00 90.16 LIG 0.23  C 
ATOM      9 O    GLY F 464      36.698 -24.407  21.223  1.00 90.52 LIG-0.27  OA
ATOM     10  N   ALA F 465      38.628 -25.420  21.790  1.00 88.18 LIG-0.35  N 
ATOM     11 H    ALA F 465      39.184 -25.704  22.382  1.00 88.18 LIG 0.16  HD
BRANCH 10 12
ATOM     12  CA  ALA F 465      39.026 -25.699  20.412  1.00 85.90 LIG 0.16  C 
ATOM     13  CB  ALA F 465      39.629 -24.455  19.774  1.00 84.54 LIG 0.04  C 
BRANCH 12 14
ATOM     14  C   ALA F 465      40.014 -26.862  20.335  1.00 85.67 LIG 0.22  C 
ATOM     15 O    ALA F 465      39.751 -27.870  19.675  1.00 84.89 LIG-0.29  OA
ENDBRANCH 12 14
ENDBRANCH 10 12
ENDBRANCH 7 8
ENDBRANCH 5 7
ENDBRANCH 1 3
BRANCH 1 16
ATOM     16  N   ALA F 463      33.263 -25.297  25.737  1.00 83.00 LIG-0.35  N 
ATOM     17  C   GLY F 462      34.072 -25.043  26.763  1.00 85.58 LIG 0.24  C 
ATOM     18 O    GLY F 462      35.101 -24.373  26.659  1.00 87.56 LIG-0.27  OA
ATOM     19 H    ALA F 463      32.548 -25.772  25.796  1.00 83.00 LIG 0.16  HD
BRANCH 17 20
ATOM     20  CA  GLY F 462      33.668 -25.631  28.099  1.00 87.31 LIG 0.23  C 
BRANCH 20 21
ATOM     21  N   GLY F 462      32.303 -26.122  28.097  1.00 88.73 LIG-0.35  N 
ATOM     22  C   ALA F 461      32.022 -27.421  28.109  1.00 88.98 LIG 0.26  C 
ATOM     23 O    ALA F 461      32.887 -28.296  28.121  1.00 91.33 LIG-0.27  OA
ATOM     24 H    GLY F 462      31.705 -25.504  28.087  1.00 88.73 LIG 0.16  HD
BRANCH 22 25
ATOM     25  CA  ALA F 461      30.542 -27.784  28.103  1.00 85.90 LIG 0.40  C 
ATOM     26  CB  ALA F 461      29.920 -27.519  29.466  1.00 82.87 LIG 0.06  C 
ATOM     27  N   ALA F 461      30.352 -29.178  27.718  1.00 83.73 LIG 0.61  N 
ENDBRANCH 22 25
ENDBRANCH 20 21
ENDBRANCH 17 20
ENDBRANCH 1 16
TORSDOF 9
ENDMDL
MODEL 56
USER: ADFR SOLUTION from run 119
USER: SCORE 8.427171 LL:  -1.865 LR:  -7.408 RR:   0.000 FEB:  -4.723
USER: RMSD 8.338834
USER: SEED 118
USER: STATUS no improvement in best in 19 clusters for 5 generations
USER: GENES 11
USER: genes 0 Translation |==|  0.77857 0.87410 0.40303
USER: genes 1 Rotation |==|  0.63429 0.15648 0.83147 0.56394
USER: genes 2 Torsion [N]-CA--C-[N] |==|  0.12276
USER: genes 3 Torsion [C]-N--CA-[C] |==|  0.19328
USER: genes 4 Torsion [N]-CA--C-[N] |==|  0.00556
USER: genes 5 Torsion [C]-N--CA-[C] |==|  0.49473
USER: genes 6 Torsion [N]-CA--C-[O] |==|  0.13995
USER: genes 7 Torsion [CB]-CA--N-[C] |==|  0.81867
USER: genes 8 Torsion [N]-C--CA-[N] |==|  0.57122
USER: genes 9 Torsion [C]-CA--N-[C] |==|  0.73851
USER: genes 10 Torsion [N]-C--CA-[N] |==|  0.07743
ROOT
ATOM      1  CA  ALA F 463      40.265 -21.039  23.612  1.00 80.84 LIG 0.17  C 
ATOM      2  CB  ALA F 463      39.829 -20.097  22.501  1.00 75.28 LIG 0.04  C 
ENDROOT
BRANCH 1 3
ATOM      3  C   ALA F 463      39.064 -21.495  24.432  1.00 84.46 LIG 0.24  C 
ATOM      4 O    ALA F 463      37.977 -20.926  24.326  1.00 85.06 LIG-0.27  OA
ATOM      5  N   GLY F 464      39.267 -22.520  25.252  1.00 87.45 LIG-0.35  N 
ATOM      6 H    GLY F 464      40.004 -22.962  25.295  1.00 87.45 LIG 0.16  HD
BRANCH 5 7
ATOM      7  CA  GLY F 464      38.236 -22.989  26.161  1.00 89.28 LIG 0.23  C 
BRANCH 7 8
ATOM      8  C   GLY F 464      37.051 -23.665  25.495  1.00 90.16 LIG 0.23  C 
ATOM      9 O    GLY F 464      36.104 -24.067  26.172  1.00 90.52 LIG-0.27  OA
ATOM     10  N   ALA F 465      37.100 -23.794  24.170  1.00 88.18 LIG-0.35  N 
ATOM     11 H    ALA F 465      37.765 -23.538  23.689  1.00 88.18 LIG 0.16  HD
BRANCH 10 12
ATOM     12  CA  ALA F 465      36.005 -24.392  23.409  1.00 85.90 LIG 0.16  C 
ATOM     13  CB  ALA F 465      34.699 -23.666  23.704  1.00 84.54 LIG 0.04  C 
BRANCH 12 14
ATOM     14  C   ALA F 465      36.288 -24.378  21.908  1.00 85.67 LIG 0.22  C 
ATOM     15 O    ALA F 465      37.358 -24.805  21.465  1.00 84.89 LIG-0.29  OA
ENDBRANCH 12 14
ENDBRANCH 10 12
ENDBRANCH 7 8
ENDBRANCH 5 7
ENDBRANCH 1 3
BRANCH 1 16
ATOM     16  N   ALA F 463      40.964 -22.195  23.060  1.00 83.00 LIG-0.35  N 
ATOM     17  C   GLY F 462      40.347 -23.081  22.282  1.00 85.58 LIG 0.24  C 
ATOM     18 O    GLY F 462      39.154 -23.002  21.986  1.00 87.56 LIG-0.27  OA
ATOM     19 H    ALA F 463      41.793 -22.247  23.282  1.00 83.00 LIG 0.16  HD
BRANCH 17 20
ATOM     20  CA  GLY F 462      41.194 -24.226  21.765  1.00 87.31 LIG 0.23  C 
BRANCH 20 21
ATOM     21  N   GLY F 462      40.683 -24.776  20.524  1.00 88.73 LIG-0.35  N 
ATOM     22  C   ALA F 461      39.867 -25.824  20.502  1.00 88.98 LIG 0.26  C 
ATOM     23 O    ALA F 461      39.490 -26.405  21.519  1.00 91.33 LIG-0.27  OA
ATOM     24 H    GLY F 462      40.952 -24.365  19.819  1.00 88.73 LIG 0.16  HD
BRANCH 22 25
ATOM     25  CA  ALA F 461      39.414 -26.289  19.123  1.00 85.90 LIG 0.40  C 
ATOM     26  CB  ALA F 461      39.137 -27.785  19.126  1.00 82.87 LIG 0.06  C 
ATOM     27  N   ALA F 461      40.413 -25.957  18.111  1.00 83.73 LIG 0.61  N 
ENDBRANCH 22 25
ENDBRANCH 20 21
ENDBRANCH 17 20
ENDBRANCH 1 16
TORSDOF 9
ENDMDL
MODEL 57
USER: ADFR SOLUTION from run 187
USER: SCORE 7.448638 LL:  -1.245 LR:  -7.404 RR:   0.000 FEB:  -4.720
USER: RMSD 7.353851
USER: SEED 186
USER: STATUS no improvement in best in 39 clusters for 5 generations
USER: GENES 11
USER: genes 0 Translation |==|  0.70700 0.50004 0.17643
USER: genes 1 Rotation |==|  0.49659 0.40844 0.25080 0.92368
USER: genes 2 Torsion [N]-CA--C-[N] |==|  0.94255
USER: genes 3 Torsion [C]-N--CA-[C] |==|  0.61029
USER: genes 4 Torsion [N]-CA--C-[N] |==|  0.40808
USER: genes 5 Torsion [C]-N--CA-[C] |==|  0.16253
USER: genes 6 Torsion [N]-CA--C-[O] |==|  0.16901
USER: genes 7 Torsion [CB]-CA--N-[C] |==|  0.86635
USER: genes 8 Torsion [N]-C--CA-[N] |==|  0.13889
USER: genes 9 Torsion [C]-CA--N-[C] |==|  0.66286
USER: genes 10 Torsion [N]-C--CA-[N] |==|  0.21823
ROOT
ATOM      1  CA  ALA F 463      38.977 -26.650  19.193  1.00 80.84 LIG 0.17  C 
ATOM      2  CB  ALA F 463      40.042 -25.894  18.413  1.00 75.28 LIG 0.04  C 
ENDROOT
BRANCH 1 3
ATOM      3  C   ALA F 463      39.562 -27.912  19.815  1.00 84.46 LIG 0.24  C 
ATOM      4 O    ALA F 463      39.750 -28.921  19.134  1.00 85.06 LIG-0.27  OA
ATOM      5  N   GLY F 464      39.845 -27.853  21.111  1.00 87.45 LIG-0.35  N 
ATOM      6 H    GLY F 464      39.771 -27.139  21.586  1.00 87.45 LIG 0.16  HD
BRANCH 5 7
ATOM      7  CA  GLY F 464      40.313 -29.014  21.847  1.00 89.28 LIG 0.23  C 
BRANCH 7 8
ATOM      8  C   GLY F 464      39.742 -29.160  23.247  1.00 90.16 LIG 0.23  C 
ATOM      9 O    GLY F 464      39.477 -28.161  23.917  1.00 90.52 LIG-0.27  OA
ATOM     10  N   ALA F 465      39.552 -30.401  23.691  1.00 88.18 LIG-0.35  N 
ATOM     11 H    ALA F 465      39.754 -31.106  23.242  1.00 88.18 LIG 0.16  HD
BRANCH 10 12
ATOM     12  CA  ALA F 465      38.974 -30.673  25.005  1.00 85.90 LIG 0.16  C 
ATOM     13  CB  ALA F 465      39.893 -30.158  26.104  1.00 84.54 LIG 0.04  C 
BRANCH 12 14
ATOM     14  C   ALA F 465      37.584 -30.055  25.148  1.00 85.67 LIG 0.22  C 
ATOM     15 O    ALA F 465      36.664 -30.391  24.398  1.00 84.89 LIG-0.29  OA
ENDBRANCH 12 14
ENDBRANCH 10 12
ENDBRANCH 7 8
ENDBRANCH 5 7
ENDBRANCH 1 3
BRANCH 1 16
ATOM     16  N   ALA F 463      38.399 -25.802  20.230  1.00 83.00 LIG-0.35  N 
ATOM     17  C   GLY F 462      39.161 -25.092  21.059  1.00 85.58 LIG 0.24  C 
ATOM     18 O    GLY F 462      40.392 -25.110  21.025  1.00 87.56 LIG-0.27  OA
ATOM     19 H    ALA F 463      37.540 -25.805  20.252  1.00 83.00 LIG 0.16  HD
BRANCH 17 20
ATOM     20  CA  GLY F 462      38.432 -24.241  22.079  1.00 87.31 LIG 0.23  C 
BRANCH 20 21
ATOM     21  N   GLY F 462      37.420 -24.990  22.801  1.00 88.73 LIG-0.35  N 
ATOM     22  C   ALA F 461      36.141 -24.633  22.792  1.00 88.98 LIG 0.26  C 
ATOM     23 O    ALA F 461      35.720 -23.651  22.182  1.00 91.33 LIG-0.27  OA
ATOM     24 H    GLY F 462      37.723 -25.673  23.226  1.00 88.73 LIG 0.16  HD
BRANCH 22 25
ATOM     25  CA  ALA F 461      35.196 -25.517  23.599  1.00 85.90 LIG 0.40  C 
ATOM     26  CB  ALA F 461      33.764 -25.354  23.112  1.00 82.87 LIG 0.06  C 
ATOM     27  N   ALA F 461      35.289 -25.210  25.022  1.00 83.73 LIG 0.61  N 
ENDBRANCH 22 25
ENDBRANCH 20 21
ENDBRANCH 17 20
ENDBRANCH 1 16
TORSDOF 9
ENDMDL
MODEL 58
USER: ADFR SOLUTION from run 104
USER: SCORE 7.480389 LL:  -1.234 LR:  -7.403 RR:   0.000 FEB:  -4.718
USER: RMSD 4.532822
USER: SEED 103
USER: STATUS no improvement in best in 33 clusters for 5 generations
USER: GENES 11
USER: genes 0 Translation |==|  0.50123 0.57576 0.44534
USER: genes 1 Rotation |==|  0.73697 0.83020 0.48207 0.79068
USER: genes 2 Torsion [N]-CA--C-[N] |==|  0.94477
USER: genes 3 Torsion [C]-N--CA-[C] |==|  0.33266
USER: genes 4 Torsion [N]-CA--C-[N] |==|  0.92806
USER: genes 5 Torsion [C]-N--CA-[C] |==|  0.11664
USER: genes 6 Torsion [N]-CA--C-[O] |==|  0.38169
USER: genes 7 Torsion [CB]-CA--N-[C] |==|  0.22666
USER: genes 8 Torsion [N]-C--CA-[N] |==|  0.53582
USER: genes 9 Torsion [C]-CA--N-[C] |==|  0.19486
USER: genes 10 Torsion [N]-C--CA-[N] |==|  0.32251
ROOT
ATOM      1  CA  ALA F 463      35.273 -25.515  24.437  1.00 80.84 LIG 0.17  C 
ATOM      2  CB  ALA F 463      35.324 -24.589  25.643  1.00 75.28 LIG 0.04  C 
ENDROOT
BRANCH 1 3
ATOM      3  C   ALA F 463      35.556 -24.741  23.155  1.00 84.46 LIG 0.24  C 
ATOM      4 O    ALA F 463      34.689 -24.035  22.641  1.00 85.06 LIG-0.27  OA
ATOM      5  N   GLY F 464      36.773 -24.881  22.640  1.00 87.45 LIG-0.35  N 
ATOM      6 H    GLY F 464      37.405 -25.326  23.018  1.00 87.45 LIG 0.16  HD
BRANCH 5 7
ATOM      7  CA  GLY F 464      37.140 -24.281  21.371  1.00 89.28 LIG 0.23  C 
BRANCH 7 8
ATOM      8  C   GLY F 464      38.287 -23.287  21.438  1.00 90.16 LIG 0.23  C 
ATOM      9 O    GLY F 464      38.988 -23.081  20.447  1.00 90.52 LIG-0.27  OA
ATOM     10  N   ALA F 465      38.479 -22.671  22.603  1.00 88.18 LIG-0.35  N 
ATOM     11 H    ALA F 465      38.010 -22.823  23.308  1.00 88.18 LIG 0.16  HD
BRANCH 10 12
ATOM     12  CA  ALA F 465      39.524 -21.666  22.784  1.00 85.90 LIG 0.16  C 
ATOM     13  CB  ALA F 465      40.870 -22.338  23.017  1.00 84.54 LIG 0.04  C 
BRANCH 12 14
ATOM     14  C   ALA F 465      39.608 -20.719  21.587  1.00 85.67 LIG 0.22  C 
ATOM     15 O    ALA F 465      39.751 -19.505  21.753  1.00 84.89 LIG-0.29  OA
ENDBRANCH 12 14
ENDBRANCH 10 12
ENDBRANCH 7 8
ENDBRANCH 5 7
ENDBRANCH 1 3
BRANCH 1 16
ATOM     16  N   ALA F 463      36.229 -26.606  24.587  1.00 83.00 LIG-0.35  N 
ATOM     17  C   GLY F 462      35.951 -27.687  25.312  1.00 85.58 LIG 0.24  C 
ATOM     18 O    GLY F 462      34.887 -27.838  25.914  1.00 87.56 LIG-0.27  OA
ATOM     19 H    ALA F 463      36.972 -26.486  24.171  1.00 83.00 LIG 0.16  HD
BRANCH 17 20
ATOM     20  CA  GLY F 462      37.027 -28.752  25.371  1.00 87.31 LIG 0.23  C 
BRANCH 20 21
ATOM     21  N   GLY F 462      36.538 -30.002  25.920  1.00 88.73 LIG-0.35  N 
ATOM     22  C   ALA F 461      35.687 -30.778  25.257  1.00 88.98 LIG 0.26  C 
ATOM     23 O    ALA F 461      35.251 -30.498  24.141  1.00 91.33 LIG-0.27  OA
ATOM     24 H    GLY F 462      36.847 -30.190  26.701  1.00 88.73 LIG 0.16  HD
BRANCH 22 25
ATOM     25  CA  ALA F 461      35.263 -32.060  25.964  1.00 85.90 LIG 0.40  C 
ATOM     26  CB  ALA F 461      35.627 -33.278  25.128  1.00 82.87 LIG 0.06  C 
ATOM     27  N   ALA F 461      33.832 -32.045  26.248  1.00 83.73 LIG 0.61  N 
ENDBRANCH 22 25
ENDBRANCH 20 21
ENDBRANCH 17 20
ENDBRANCH 1 16
TORSDOF 9
ENDMDL
MODEL 59
USER: ADFR SOLUTION from run 65
USER: SCORE 8.960411 LL:  -1.951 LR:  -7.397 RR:   0.000 FEB:  -4.713
USER: RMSD 8.156911
USER: SEED 64
USER: STATUS no improvement in best in 26 clusters for 5 generations
USER: GENES 11
USER: genes 0 Translation |==|  0.66641 0.49685 0.42831
USER: genes 1 Rotation |==|  0.78120 0.84788 0.72053 0.53570
USER: genes 2 Torsion [N]-CA--C-[N] |==|  0.20177
USER: genes 3 Torsion [C]-N--CA-[C] |==|  0.22445
USER: genes 4 Torsion [N]-CA--C-[N] |==|  0.04983
USER: genes 5 Torsion [C]-N--CA-[C] |==|  0.68579
USER: genes 6 Torsion [N]-CA--C-[O] |==|  0.36458
USER: genes 7 Torsion [CB]-CA--N-[C] |==|  0.79444
USER: genes 8 Torsion [N]-C--CA-[N] |==|  0.08550
USER: genes 9 Torsion [C]-CA--N-[C] |==|  0.18915
USER: genes 10 Torsion [N]-C--CA-[N] |==|  0.74320
ROOT
ATOM      1  CA  ALA F 463      38.246 -26.698  24.105  1.00 80.84 LIG 0.17  C 
ATOM      2  CB  ALA F 463      38.685 -27.561  25.279  1.00 75.28 LIG 0.04  C 
ENDROOT
BRANCH 1 3
ATOM      3  C   ALA F 463      37.775 -25.333  24.589  1.00 84.46 LIG 0.24  C 
ATOM      4 O    ALA F 463      38.031 -24.945  25.729  1.00 85.06 LIG-0.27  OA
ATOM      5  N   GLY F 464      37.081 -24.608  23.718  1.00 87.45 LIG-0.35  N 
ATOM      6 H    GLY F 464      36.942 -24.842  22.902  1.00 87.45 LIG 0.16  HD
BRANCH 5 7
ATOM      7  CA  GLY F 464      36.489 -23.334  24.083  1.00 89.28 LIG 0.23  C 
BRANCH 7 8
ATOM      8  C   GLY F 464      37.445 -22.154  24.073  1.00 90.16 LIG 0.23  C 
ATOM      9 O    GLY F 464      37.155 -21.114  24.667  1.00 90.52 LIG-0.27  OA
ATOM     10  N   ALA F 465      38.583 -22.310  23.399  1.00 88.18 LIG-0.35  N 
ATOM     11 H    ALA F 465      38.786 -23.022  22.962  1.00 88.18 LIG 0.16  HD
BRANCH 10 12
ATOM     12  CA  ALA F 465      39.601 -21.263  23.346  1.00 85.90 LIG 0.16  C 
ATOM     13  CB  ALA F 465      40.938 -21.800  23.837  1.00 84.54 LIG 0.04  C 
BRANCH 12 14
ATOM     14  C   ALA F 465      39.748 -20.691  21.937  1.00 85.67 LIG 0.22  C 
ATOM     15 O    ALA F 465      39.751 -19.471  21.749  1.00 84.89 LIG-0.29  OA
ENDBRANCH 12 14
ENDBRANCH 10 12
ENDBRANCH 7 8
ENDBRANCH 5 7
ENDBRANCH 1 3
BRANCH 1 16
ATOM     16  N   ALA F 463      39.335 -26.543  23.146  1.00 83.00 LIG-0.35  N 
ATOM     17  C   GLY F 462      40.379 -25.755  23.394  1.00 85.58 LIG 0.24  C 
ATOM     18 O    GLY F 462      40.496 -25.096  24.428  1.00 87.56 LIG-0.27  OA
ATOM     19 H    ALA F 463      39.239 -26.999  22.424  1.00 83.00 LIG 0.16  HD
BRANCH 17 20
ATOM     20  CA  GLY F 462      41.446 -25.697  22.319  1.00 87.31 LIG 0.23  C 
BRANCH 20 21
ATOM     21  N   GLY F 462      40.901 -25.889  20.989  1.00 88.73 LIG-0.35  N 
ATOM     22  C   ALA F 461      40.106 -24.991  20.417  1.00 88.98 LIG 0.26  C 
ATOM     23 O    ALA F 461      39.771 -23.942  20.967  1.00 91.33 LIG-0.27  OA
ATOM     24 H    GLY F 462      41.139 -26.625  20.613  1.00 88.73 LIG 0.16  HD
BRANCH 22 25
ATOM     25  CA  ALA F 461      39.611 -25.333  19.017  1.00 85.90 LIG 0.40  C 
ATOM     26  CB  ALA F 461      39.486 -26.839  18.846  1.00 82.87 LIG 0.06  C 
ATOM     27  N   ALA F 461      40.501 -24.777  18.003  1.00 83.73 LIG 0.61  N 
ENDBRANCH 22 25
ENDBRANCH 20 21
ENDBRANCH 17 20
ENDBRANCH 1 16
TORSDOF 9
ENDMDL
MODEL 60
USER: ADFR SOLUTION from run 60
USER: SCORE 8.263632 LL:  -1.631 LR:  -7.381 RR:   0.000 FEB:  -4.697
USER: RMSD 8.184432
USER: SEED 59
USER: STATUS no improvement in best in 23 clusters for 5 generations
USER: GENES 11
USER: genes 0 Translation |==|  0.74595 0.73564 0.50492
USER: genes 1 Rotation |==|  0.71356 0.04824 0.51240 0.51223
USER: genes 2 Torsion [N]-CA--C-[N] |==|  0.97747
USER: genes 3 Torsion [C]-N--CA-[C] |==|  0.26808
USER: genes 4 Torsion [N]-CA--C-[N] |==|  0.02041
USER: genes 5 Torsion [C]-N--CA-[C] |==|  0.19136
USER: genes 6 Torsion [N]-CA--C-[O] |==|  0.77367
USER: genes 7 Torsion [CB]-CA--N-[C] |==|  0.86412
USER: genes 8 Torsion [N]-C--CA-[N] |==|  0.14120
USER: genes 9 Torsion [C]-CA--N-[C] |==|  0.16507
USER: genes 10 Torsion [N]-C--CA-[N] |==|  0.18010
ROOT
ATOM      1  CA  ALA F 463      39.678 -23.116  25.599  1.00 80.84 LIG 0.17  C 
ATOM      2  CB  ALA F 463      39.077 -22.005  26.446  1.00 75.28 LIG 0.04  C 
ENDROOT
BRANCH 1 3
ATOM      3  C   ALA F 463      38.740 -24.315  25.542  1.00 84.46 LIG 0.24  C 
ATOM      4 O    ALA F 463      38.490 -24.969  26.555  1.00 85.06 LIG-0.27  OA
ATOM      5  N   GLY F 464      38.224 -24.603  24.352  1.00 87.45 LIG-0.35  N 
ATOM      6 H    GLY F 464      38.346 -24.123  23.648  1.00 87.45 LIG 0.16  HD
BRANCH 5 7
ATOM      7  CA  GLY F 464      37.396 -25.776  24.139  1.00 89.28 LIG 0.23  C 
BRANCH 7 8
ATOM      8  C   GLY F 464      35.900 -25.527  24.201  1.00 90.16 LIG 0.23  C 
ATOM      9 O    GLY F 464      35.111 -26.472  24.169  1.00 90.52 LIG-0.27  OA
ATOM     10  N   ALA F 465      35.506 -24.257  24.288  1.00 88.18 LIG-0.35  N 
ATOM     11 H    ALA F 465      36.046 -23.588  24.289  1.00 88.18 LIG 0.16  HD
BRANCH 10 12
ATOM     12  CA  ALA F 465      34.096 -23.890  24.393  1.00 85.90 LIG 0.16  C 
ATOM     13  CB  ALA F 465      33.301 -24.511  23.253  1.00 84.54 LIG 0.04  C 
BRANCH 12 14
ATOM     14  C   ALA F 465      33.503 -24.308  25.738  1.00 85.67 LIG 0.22  C 
ATOM     15 O    ALA F 465      33.125 -25.467  25.927  1.00 84.89 LIG-0.29  OA
ENDBRANCH 12 14
ENDBRANCH 10 12
ENDBRANCH 7 8
ENDBRANCH 5 7
ENDBRANCH 1 3
BRANCH 1 16
ATOM     16  N   ALA F 463      39.964 -22.638  24.251  1.00 83.00 LIG-0.35  N 
ATOM     17  C   GLY F 462      39.059 -21.969  23.538  1.00 85.58 LIG 0.24  C 
ATOM     18 O    GLY F 462      37.926 -21.721  23.952  1.00 87.56 LIG-0.27  OA
ATOM     19 H    ALA F 463      40.753 -22.825  23.968  1.00 83.00 LIG 0.16  HD
BRANCH 17 20
ATOM     20  CA  GLY F 462      39.492 -21.517  22.159  1.00 87.31 LIG 0.23  C 
BRANCH 20 21
ATOM     21  N   GLY F 462      40.066 -22.597  21.378  1.00 88.73 LIG-0.35  N 
ATOM     22  C   ALA F 461      39.381 -23.698  21.089  1.00 88.98 LIG 0.26  C 
ATOM     23 O    ALA F 461      38.223 -23.887  21.460  1.00 91.33 LIG-0.27  OA
ATOM     24 H    GLY F 462      40.875 -22.457  21.124  1.00 88.73 LIG 0.16  HD
BRANCH 22 25
ATOM     25  CA  ALA F 461      40.118 -24.745  20.262  1.00 85.90 LIG 0.40  C 
ATOM     26  CB  ALA F 461      39.172 -25.860  19.844  1.00 82.87 LIG 0.06  C 
ATOM     27  N   ALA F 461      41.251 -25.288  21.004  1.00 83.73 LIG 0.61  N 
ENDBRANCH 22 25
ENDBRANCH 20 21
ENDBRANCH 17 20
ENDBRANCH 1 16
TORSDOF 9
ENDMDL
MODEL 61
USER: ADFR SOLUTION from run 3
USER: SCORE 7.294494 LL:  -2.088 LR:  -7.361 RR:   0.000 FEB:  -4.676
USER: RMSD 8.806968
USER: SEED 443112
USER: STATUS no improvement in best in 21 clusters for 5 generations
USER: GENES 11
USER: genes 0 Translation |==|  0.72963 0.57305 0.16664
USER: genes 1 Rotation |==|  0.36356 0.48962 0.19520 0.87198
USER: genes 2 Torsion [N]-CA--C-[N] |==|  0.02568
USER: genes 3 Torsion [C]-N--CA-[C] |==|  0.64499
USER: genes 4 Torsion [N]-CA--C-[N] |==|  0.98791
USER: genes 5 Torsion [C]-N--CA-[C] |==|  0.82051
USER: genes 6 Torsion [N]-CA--C-[O] |==|  0.75805
USER: genes 7 Torsion [CB]-CA--N-[C] |==|  0.39903
USER: genes 8 Torsion [N]-C--CA-[N] |==|  0.90556
USER: genes 9 Torsion [C]-CA--N-[C] |==|  0.78537
USER: genes 10 Torsion [N]-C--CA-[N] |==|  0.27433
ROOT
ATOM      1  CA  ALA F 463      39.384 -25.555  19.003  1.00 80.84 LIG 0.17  C 
ATOM      2  CB  ALA F 463      40.059 -25.445  17.644  1.00 75.28 LIG 0.04  C 
ENDROOT
BRANCH 1 3
ATOM      3  C   ALA F 463      39.789 -26.848  19.699  1.00 84.46 LIG 0.24  C 
ATOM      4 O    ALA F 463      39.748 -27.925  19.104  1.00 85.06 LIG-0.27  OA
ATOM      5  N   GLY F 464      40.177 -26.738  20.965  1.00 87.45 LIG-0.35  N 
ATOM      6 H    GLY F 464      40.263 -25.987  21.377  1.00 87.45 LIG 0.16  HD
BRANCH 5 7
ATOM      7  CA  GLY F 464      40.492 -27.901  21.774  1.00 89.28 LIG 0.23  C 
BRANCH 7 8
ATOM      8  C   GLY F 464      39.771 -27.971  23.109  1.00 90.16 LIG 0.23  C 
ATOM      9 O    GLY F 464      39.905 -28.956  23.836  1.00 90.52 LIG-0.27  OA
ATOM     10  N   ALA F 465      39.006 -26.930  23.433  1.00 88.18 LIG-0.35  N 
ATOM     11 H    ALA F 465      38.887 -26.247  22.924  1.00 88.18 LIG 0.16  HD
BRANCH 10 12
ATOM     12  CA  ALA F 465      38.292 -26.860  24.705  1.00 85.90 LIG 0.16  C 
ATOM     13  CB  ALA F 465      37.654 -25.489  24.879  1.00 84.54 LIG 0.04  C 
BRANCH 12 14
ATOM     14  C   ALA F 465      37.231 -27.953  24.817  1.00 85.67 LIG 0.22  C 
ATOM     15 O    ALA F 465      36.092 -27.773  24.378  1.00 84.89 LIG-0.29  OA
ENDBRANCH 12 14
ENDBRANCH 10 12
ENDBRANCH 7 8
ENDBRANCH 5 7
ENDBRANCH 1 3
BRANCH 1 16
ATOM     16  N   ALA F 463      39.721 -24.408  19.838  1.00 83.00 LIG-0.35  N 
ATOM     17  C   GLY F 462      38.838 -23.867  20.675  1.00 85.58 LIG 0.24  C 
ATOM     18 O    GLY F 462      37.684 -24.279  20.794  1.00 87.56 LIG-0.27  OA
ATOM     19 H    ALA F 463      40.526 -24.121  19.739  1.00 83.00 LIG 0.16  HD
BRANCH 17 20
ATOM     20  CA  GLY F 462      39.324 -22.689  21.494  1.00 87.31 LIG 0.23  C 
BRANCH 20 21
ATOM     21  N   GLY F 462      40.725 -22.804  21.851  1.00 88.73 LIG-0.35  N 
ATOM     22  C   ALA F 461      41.140 -23.603  22.827  1.00 88.98 LIG 0.26  C 
ATOM     23 O    ALA F 461      40.377 -24.297  23.498  1.00 91.33 LIG-0.27  OA
ATOM     24 H    GLY F 462      41.251 -22.314  21.378  1.00 88.73 LIG 0.16  HD
BRANCH 22 25
ATOM     25  CA  ALA F 461      42.642 -23.616  23.087  1.00 85.90 LIG 0.40  C 
ATOM     26  CB  ALA F 461      43.129 -25.035  23.340  1.00 82.87 LIG 0.06  C 
ATOM     27  N   ALA F 461      42.980 -22.753  24.213  1.00 83.73 LIG 0.61  N 
ENDBRANCH 22 25
ENDBRANCH 20 21
ENDBRANCH 17 20
ENDBRANCH 1 16
TORSDOF 9
ENDMDL
MODEL 62
USER: ADFR SOLUTION from run 37
USER: SCORE 8.397241 LL:  -1.748 LR:  -7.351 RR:   0.000 FEB:  -4.667
USER: RMSD 7.733223
USER: SEED 36
USER: STATUS no improvement in best in 23 clusters for 5 generations
USER: GENES 11
USER: genes 0 Translation |==|  0.58455 0.65778 0.40372
USER: genes 1 Rotation |==|  0.45127 0.83154 0.56770 0.86486
USER: genes 2 Torsion [N]-CA--C-[N] |==|  0.95552
USER: genes 3 Torsion [C]-N--CA-[C] |==|  0.79443
USER: genes 4 Torsion [N]-CA--C-[N] |==|  0.00956
USER: genes 5 Torsion [C]-N--CA-[C] |==|  0.80001
USER: genes 6 Torsion [N]-CA--C-[O] |==|  0.54083
USER: genes 7 Torsion [CB]-CA--N-[C] |==|  0.87714
USER: genes 8 Torsion [N]-C--CA-[N] |==|  0.12917
USER: genes 9 Torsion [C]-CA--N-[C] |==|  0.16336
USER: genes 10 Torsion [N]-C--CA-[N] |==|  0.42951
ROOT
ATOM      1  CA  ALA F 463      36.773 -24.284  23.625  1.00 80.84 LIG 0.17  C 
ATOM      2  CB  ALA F 463      35.511 -23.519  23.994  1.00 75.28 LIG 0.04  C 
ENDROOT
BRANCH 1 3
ATOM      3  C   ALA F 463      37.059 -24.161  22.134  1.00 84.46 LIG 0.24  C 
ATOM      4 O    ALA F 463      36.378 -24.772  21.309  1.00 85.06 LIG-0.27  OA
ATOM      5  N   GLY F 464      38.071 -23.372  21.792  1.00 87.45 LIG-0.35  N 
ATOM      6 H    GLY F 464      38.519 -22.897  22.352  1.00 87.45 LIG 0.16  HD
BRANCH 5 7
ATOM      7  CA  GLY F 464      38.512 -23.245  20.415  1.00 89.28 LIG 0.23  C 
BRANCH 7 8
ATOM      8  C   GLY F 464      39.282 -24.438  19.875  1.00 90.16 LIG 0.23  C 
ATOM      9 O    GLY F 464      39.756 -24.407  18.738  1.00 90.52 LIG-0.27  OA
ATOM     10  N   ALA F 465      39.408 -25.488  20.684  1.00 88.18 LIG-0.35  N 
ATOM     11 H    ALA F 465      39.062 -25.529  21.471  1.00 88.18 LIG 0.16  HD
BRANCH 10 12
ATOM     12  CA  ALA F 465      40.158 -26.679  20.295  1.00 85.90 LIG 0.16  C 
ATOM     13  CB  ALA F 465      40.445 -27.545  21.515  1.00 84.54 LIG 0.04  C 
BRANCH 12 14
ATOM     14  C   ALA F 465      39.415 -27.492  19.236  1.00 85.67 LIG 0.22  C 
ATOM     15 O    ALA F 465      39.751 -28.652  18.981  1.00 84.89 LIG-0.29  OA
ENDBRANCH 12 14
ENDBRANCH 10 12
ENDBRANCH 7 8
ENDBRANCH 5 7
ENDBRANCH 1 3
BRANCH 1 16
ATOM     16  N   ALA F 463      37.912 -23.799  24.397  1.00 83.00 LIG-0.35  N 
ATOM     17  C   GLY F 462      38.135 -22.498  24.574  1.00 85.58 LIG 0.24  C 
ATOM     18 O    GLY F 462      37.416 -21.620  24.096  1.00 87.56 LIG-0.27  OA
ATOM     19 H    ALA F 463      38.413 -24.419  24.718  1.00 83.00 LIG 0.16  HD
BRANCH 17 20
ATOM     20  CA  GLY F 462      39.345 -22.133  25.409  1.00 87.31 LIG 0.23  C 
BRANCH 20 21
ATOM     21  N   GLY F 462      40.528 -22.879  25.024  1.00 88.73 LIG-0.35  N 
ATOM     22  C   ALA F 461      41.023 -22.829  23.793  1.00 88.98 LIG 0.26  C 
ATOM     23 O    ALA F 461      40.521 -22.156  22.893  1.00 91.33 LIG-0.27  OA
ATOM     24 H    GLY F 462      40.871 -23.347  25.659  1.00 88.73 LIG 0.16  HD
BRANCH 22 25
ATOM     25  CA  ALA F 461      42.269 -23.669  23.539  1.00 85.90 LIG 0.40  C 
ATOM     26  CB  ALA F 461      43.517 -22.928  23.996  1.00 82.87 LIG 0.06  C 
ATOM     27  N   ALA F 461      42.376 -24.024  22.128  1.00 83.73 LIG 0.61  N 
ENDBRANCH 22 25
ENDBRANCH 20 21
ENDBRANCH 17 20
ENDBRANCH 1 16
TORSDOF 9
ENDMDL
MODEL 63
USER: ADFR SOLUTION from run 9
USER: SCORE 7.202950 LL:  -1.206 LR:  -7.328 RR:   0.000 FEB:  -4.643
USER: RMSD 8.535467
USER: SEED 943864
USER: STATUS no improvement in best in 23 clusters for 5 generations
USER: GENES 11
USER: genes 0 Translation |==|  0.43970 0.65635 0.39543
USER: genes 1 Rotation |==|  0.76697 0.52466 0.92082 0.53208
USER: genes 2 Torsion [N]-CA--C-[N] |==|  0.85045
USER: genes 3 Torsion [C]-N--CA-[C] |==|  0.35813
USER: genes 4 Torsion [N]-CA--C-[N] |==|  0.85556
USER: genes 5 Torsion [C]-N--CA-[C] |==|  0.20796
USER: genes 6 Torsion [N]-CA--C-[O] |==|  0.97088
USER: genes 7 Torsion [CB]-CA--N-[C] |==|  0.86431
USER: genes 8 Torsion [N]-C--CA-[N] |==|  0.94400
USER: genes 9 Torsion [C]-CA--N-[C] |==|  0.65794
USER: genes 10 Torsion [N]-C--CA-[N] |==|  0.53076
ROOT
ATOM      1  CA  ALA F 463      34.166 -24.306  23.464  1.00 80.84 LIG 0.17  C 
ATOM      2  CB  ALA F 463      33.461 -25.520  22.879  1.00 75.28 LIG 0.04  C 
ENDROOT
BRANCH 1 3
ATOM      3  C   ALA F 463      33.671 -24.027  24.878  1.00 84.46 LIG 0.24  C 
ATOM      4 O    ALA F 463      32.999 -23.026  25.125  1.00 85.06 LIG-0.27  OA
ATOM      5  N   GLY F 464      34.009 -24.917  25.805  1.00 87.45 LIG-0.35  N 
ATOM      6 H    GLY F 464      34.430 -25.648  25.637  1.00 87.45 LIG 0.16  HD
BRANCH 5 7
ATOM      7  CA  GLY F 464      33.688 -24.721  27.207  1.00 89.28 LIG 0.23  C 
BRANCH 7 8
ATOM      8  C   GLY F 464      32.990 -25.892  27.877  1.00 90.16 LIG 0.23  C 
ATOM      9 O    GLY F 464      33.430 -26.357  28.929  1.00 90.52 LIG-0.27  OA
ATOM     10  N   ALA F 465      31.905 -26.369  27.271  1.00 88.18 LIG-0.35  N 
ATOM     11 H    ALA F 465      31.601 -26.067  26.526  1.00 88.18 LIG 0.16  HD
BRANCH 10 12
ATOM     12  CA  ALA F 465      31.123 -27.467  27.836  1.00 85.90 LIG 0.16  C 
ATOM     13  CB  ALA F 465      32.041 -28.607  28.256  1.00 84.54 LIG 0.04  C 
BRANCH 12 14
ATOM     14  C   ALA F 465      30.279 -27.006  29.022  1.00 85.67 LIG 0.22  C 
ATOM     15 O    ALA F 465      30.446 -25.889  29.520  1.00 84.89 LIG-0.29  OA
ENDBRANCH 12 14
ENDBRANCH 10 12
ENDBRANCH 7 8
ENDBRANCH 5 7
ENDBRANCH 1 3
BRANCH 1 16
ATOM     16  N   ALA F 463      35.611 -24.503  23.467  1.00 83.00 LIG-0.35  N 
ATOM     17  C   GLY F 462      36.165 -25.617  23.941  1.00 85.58 LIG 0.24  C 
ATOM     18 O    GLY F 462      35.511 -26.544  24.418  1.00 87.56 LIG-0.27  OA
ATOM     19 H    ALA F 463      36.059 -23.845  23.142  1.00 83.00 LIG 0.16  HD
BRANCH 17 20
ATOM     20  CA  GLY F 462      37.676 -25.697  23.871  1.00 87.31 LIG 0.23  C 
BRANCH 20 21
ATOM     21  N   GLY F 462      38.234 -24.777  22.898  1.00 88.73 LIG-0.35  N 
ATOM     22  C   ALA F 461      39.006 -25.191  21.899  1.00 88.98 LIG 0.26  C 
ATOM     23 O    ALA F 461      39.306 -26.372  21.726  1.00 91.33 LIG-0.27  OA
ATOM     24 H    GLY F 462      38.021 -23.954  23.027  1.00 88.73 LIG 0.16  HD
BRANCH 22 25
ATOM     25  CA  ALA F 461      39.519 -24.108  20.958  1.00 85.90 LIG 0.40  C 
ATOM     26  CB  ALA F 461      38.393 -23.163  20.565  1.00 82.87 LIG 0.06  C 
ATOM     27  N   ALA F 461      40.126 -24.698  19.770  1.00 83.73 LIG 0.61  N 
ENDBRANCH 22 25
ENDBRANCH 20 21
ENDBRANCH 17 20
ENDBRANCH 1 16
TORSDOF 9
ENDMDL
MODEL 64
USER: ADFR SOLUTION from run 38
USER: SCORE 8.308319 LL:  -1.349 LR:  -7.298 RR:   0.000 FEB:  -4.613
USER: RMSD 8.381725
USER: SEED 37
USER: STATUS no improvement in best in 31 clusters for 5 generations
USER: GENES 11
USER: genes 0 Translation |==|  0.66127 0.75721 0.44280
USER: genes 1 Rotation |==|  0.43536 0.93795 0.29408 0.60780
USER: genes 2 Torsion [N]-CA--C-[N] |==|  0.40963
USER: genes 3 Torsion [C]-N--CA-[C] |==|  0.22033
USER: genes 4 Torsion [N]-CA--C-[N] |==|  0.05016
USER: genes 5 Torsion [C]-N--CA-[C] |==|  0.72248
USER: genes 6 Torsion [N]-CA--C-[O] |==|  0.98860
USER: genes 7 Torsion [CB]-CA--N-[C] |==|  0.85399
USER: genes 8 Torsion [N]-C--CA-[N] |==|  0.37427
USER: genes 9 Torsion [C]-CA--N-[C] |==|  0.86454
USER: genes 10 Torsion [N]-C--CA-[N] |==|  0.10959
ROOT
ATOM      1  CA  ALA F 463      38.154 -22.793  24.388  1.00 80.84 LIG 0.17  C 
ATOM      2  CB  ALA F 463      38.027 -21.301  24.122  1.00 75.28 LIG 0.04  C 
ENDROOT
BRANCH 1 3
ATOM      3  C   ALA F 463      36.908 -23.530  23.913  1.00 84.46 LIG 0.24  C 
ATOM      4 O    ALA F 463      36.832 -23.965  22.764  1.00 85.06 LIG-0.27  OA
ATOM      5  N   GLY F 464      35.930 -23.665  24.802  1.00 87.45 LIG-0.35  N 
ATOM      6 H    GLY F 464      35.990 -23.416  25.623  1.00 87.45 LIG 0.16  HD
BRANCH 5 7
ATOM      7  CA  GLY F 464      34.652 -24.257  24.451  1.00 89.28 LIG 0.23  C 
BRANCH 7 8
ATOM      8  C   GLY F 464      34.642 -25.775  24.392  1.00 90.16 LIG 0.23  C 
ATOM      9 O    GLY F 464      33.740 -26.367  23.797  1.00 90.52 LIG-0.27  OA
ATOM     10  N   ALA F 465      35.640 -26.406  25.007  1.00 88.18 LIG-0.35  N 
ATOM     11 H    ALA F 465      36.262 -26.005  25.444  1.00 88.18 LIG 0.16  HD
BRANCH 10 12
ATOM     12  CA  ALA F 465      35.763 -27.862  24.989  1.00 85.90 LIG 0.16  C 
ATOM     13  CB  ALA F 465      37.212 -28.267  24.753  1.00 84.54 LIG 0.04  C 
BRANCH 12 14
ATOM     14  C   ALA F 465      35.245 -28.487  26.283  1.00 85.67 LIG 0.22  C 
ATOM     15 O    ALA F 465      34.863 -27.778  27.217  1.00 84.89 LIG-0.29  OA
ENDBRANCH 12 14
ENDBRANCH 10 12
ENDBRANCH 7 8
ENDBRANCH 5 7
ENDBRANCH 1 3
BRANCH 1 16
ATOM     16  N   ALA F 463      39.338 -23.333  23.729  1.00 83.00 LIG-0.35  N 
ATOM     17  C   GLY F 462      39.569 -23.139  22.432  1.00 85.58 LIG 0.24  C 
ATOM     18 O    GLY F 462      38.804 -22.512  21.699  1.00 87.56 LIG-0.27  OA
ATOM     19 H    ALA F 463      39.860 -23.778  24.248  1.00 83.00 LIG 0.16  HD
BRANCH 17 20
ATOM     20  CA  GLY F 462      40.844 -23.743  21.880  1.00 87.31 LIG 0.23  C 
BRANCH 20 21
ATOM     21  N   GLY F 462      40.630 -24.428  20.619  1.00 88.73 LIG-0.35  N 
ATOM     22  C   ALA F 461      39.646 -25.305  20.452  1.00 88.98 LIG 0.26  C 
ATOM     23 O    ALA F 461      38.852 -25.602  21.344  1.00 91.33 LIG-0.27  OA
ATOM     24 H    GLY F 462      41.190 -24.216  20.003  1.00 88.73 LIG 0.16  HD
BRANCH 22 25
ATOM     25  CA  ALA F 461      39.549 -25.945  19.073  1.00 85.90 LIG 0.40  C 
ATOM     26  CB  ALA F 461      38.702 -27.208  19.126  1.00 82.87 LIG 0.06  C 
ATOM     27  N   ALA F 461      40.876 -26.243  18.545  1.00 83.73 LIG 0.61  N 
ENDBRANCH 22 25
ENDBRANCH 20 21
ENDBRANCH 17 20
ENDBRANCH 1 16
TORSDOF 9
ENDMDL
MODEL 65
USER: ADFR SOLUTION from run 115
USER: SCORE 8.263367 LL:  -1.333 LR:  -7.304 RR:   0.000 FEB:  -4.620
USER: RMSD 3.306698
USER: SEED 114
USER: STATUS no improvement in best in 32 clusters for 5 generations
USER: GENES 11
USER: genes 0 Translation |==|  0.48336 0.61944 0.40822
USER: genes 1 Rotation |==|  0.46079 0.67525 0.56024 0.96273
USER: genes 2 Torsion [N]-CA--C-[N] |==|  0.12577
USER: genes 3 Torsion [C]-N--CA-[C] |==|  0.22411
USER: genes 4 Torsion [N]-CA--C-[N] |==|  0.99215
USER: genes 5 Torsion [C]-N--CA-[C] |==|  0.15412
USER: genes 6 Torsion [N]-CA--C-[O] |==|  0.48698
USER: genes 7 Torsion [CB]-CA--N-[C] |==|  0.17222
USER: genes 8 Torsion [N]-C--CA-[N] |==|  0.47207
USER: genes 9 Torsion [C]-CA--N-[C] |==|  0.26023
USER: genes 10 Torsion [N]-C--CA-[N] |==|  0.24918
ROOT
ATOM      1  CA  ALA F 463      34.951 -24.859  23.713  1.00 80.84 LIG 0.17  C 
ATOM      2  CB  ALA F 463      33.758 -24.036  23.253  1.00 75.28 LIG 0.04  C 
ENDROOT
BRANCH 1 3
ATOM      3  C   ALA F 463      36.158 -24.600  22.820  1.00 84.46 LIG 0.24  C 
ATOM      4 O    ALA F 463      36.036 -23.998  21.753  1.00 85.06 LIG-0.27  OA
ATOM      5  N   GLY F 464      37.325 -25.061  23.259  1.00 87.45 LIG-0.35  N 
ATOM      6 H    GLY F 464      37.435 -25.434  24.026  1.00 87.45 LIG 0.16  HD
BRANCH 5 7
ATOM      7  CA  GLY F 464      38.533 -24.971  22.460  1.00 89.28 LIG 0.23  C 
BRANCH 7 8
ATOM      8  C   GLY F 464      39.226 -23.619  22.493  1.00 90.16 LIG 0.23  C 
ATOM      9 O    GLY F 464      40.287 -23.451  21.892  1.00 90.52 LIG-0.27  OA
ATOM     10  N   ALA F 465      38.629 -22.657  23.194  1.00 88.18 LIG-0.35  N 
ATOM     11 H    ALA F 465      37.900 -22.768  23.635  1.00 88.18 LIG 0.16  HD
BRANCH 10 12
ATOM     12  CA  ALA F 465      39.175 -21.304  23.270  1.00 85.90 LIG 0.16  C 
ATOM     13  CB  ALA F 465      40.488 -21.306  24.040  1.00 84.54 LIG 0.04  C 
BRANCH 12 14
ATOM     14  C   ALA F 465      39.378 -20.699  21.882  1.00 85.67 LIG 0.22  C 
ATOM     15 O    ALA F 465      39.751 -19.530  21.752  1.00 84.89 LIG-0.29  OA
ENDBRANCH 12 14
ENDBRANCH 10 12
ENDBRANCH 7 8
ENDBRANCH 5 7
ENDBRANCH 1 3
BRANCH 1 16
ATOM     16  N   ALA F 463      35.280 -24.556  25.102  1.00 83.00 LIG-0.35  N 
ATOM     17  C   GLY F 462      34.420 -24.787  26.092  1.00 85.58 LIG 0.24  C 
ATOM     18 O    GLY F 462      33.294 -25.252  25.911  1.00 87.56 LIG-0.27  OA
ATOM     19 H    ALA F 463      36.064 -24.222  25.216  1.00 83.00 LIG 0.16  HD
BRANCH 17 20
ATOM     20  CA  GLY F 462      34.895 -24.439  27.488  1.00 87.31 LIG 0.23  C 
BRANCH 20 21
ATOM     21  N   GLY F 462      33.826 -24.501  28.466  1.00 88.73 LIG-0.35  N 
ATOM     22  C   ALA F 461      33.589 -25.594  29.183  1.00 88.98 LIG 0.26  C 
ATOM     23 O    ALA F 461      34.247 -26.627  29.071  1.00 91.33 LIG-0.27  OA
ATOM     24 H    GLY F 462      33.370 -23.775  28.537  1.00 88.73 LIG 0.16  HD
BRANCH 22 25
ATOM     25  CA  ALA F 461      32.431 -25.507  30.170  1.00 85.90 LIG 0.40  C 
ATOM     26  CB  ALA F 461      32.710 -26.359  31.399  1.00 82.87 LIG 0.06  C 
ATOM     27  N   ALA F 461      31.181 -25.918  29.539  1.00 83.73 LIG 0.61  N 
ENDBRANCH 22 25
ENDBRANCH 20 21
ENDBRANCH 17 20
ENDBRANCH 1 16
TORSDOF 9
ENDMDL
MODEL 66
USER: ADFR SOLUTION from run 20
USER: SCORE 7.940317 LL:  -1.413 LR:  -7.302 RR:   0.000 FEB:  -4.618
USER: RMSD 6.439787
USER: SEED 19
USER: STATUS no improvement in best in 14 clusters for 5 generations
USER: GENES 11
USER: genes 0 Translation |==|  0.75223 0.49957 0.30906
USER: genes 1 Rotation |==|  0.45784 0.37171 0.95064 0.66939
USER: genes 2 Torsion [N]-CA--C-[N] |==|  0.10496
USER: genes 3 Torsion [C]-N--CA-[C] |==|  0.74997
USER: genes 4 Torsion [N]-CA--C-[N] |==|  0.04410
USER: genes 5 Torsion [C]-N--CA-[C] |==|  0.68081
USER: genes 6 Torsion [N]-CA--C-[O] |==|  0.42997
USER: genes 7 Torsion [CB]-CA--N-[C] |==|  0.16716
USER: genes 8 Torsion [N]-C--CA-[N] |==|  0.16395
USER: genes 9 Torsion [C]-CA--N-[C] |==|  0.75856
USER: genes 10 Torsion [N]-C--CA-[N] |==|  0.22048
ROOT
ATOM      1  CA  ALA F 463      39.791 -26.658  21.780  1.00 80.84 LIG 0.17  C 
ATOM      2  CB  ALA F 463      39.751 -27.300  20.401  1.00 75.28 LIG 0.04  C 
ENDROOT
BRANCH 1 3
ATOM      3  C   ALA F 463      38.613 -25.709  21.964  1.00 84.46 LIG 0.24  C 
ATOM      4 O    ALA F 463      38.004 -25.263  20.991  1.00 85.06 LIG-0.27  OA
ATOM      5  N   GLY F 464      38.297 -25.401  23.217  1.00 87.45 LIG-0.35  N 
ATOM      6 H    GLY F 464      38.677 -25.747  23.907  1.00 87.45 LIG 0.16  HD
BRANCH 5 7
ATOM      7  CA  GLY F 464      37.262 -24.432  23.529  1.00 89.28 LIG 0.23  C 
BRANCH 7 8
ATOM      8  C   GLY F 464      37.742 -22.997  23.656  1.00 90.16 LIG 0.23  C 
ATOM      9 O    GLY F 464      37.029 -22.149  24.195  1.00 90.52 LIG-0.27  OA
ATOM     10  N   ALA F 465      38.947 -22.721  23.163  1.00 88.18 LIG-0.35  N 
ATOM     11 H    ALA F 465      39.445 -23.299  22.765  1.00 88.18 LIG 0.16  HD
BRANCH 10 12
ATOM     12  CA  ALA F 465      39.537 -21.388  23.258  1.00 85.90 LIG 0.16  C 
ATOM     13  CB  ALA F 465      40.873 -21.452  23.987  1.00 84.54 LIG 0.04  C 
BRANCH 12 14
ATOM     14  C   ALA F 465      39.718 -20.752  21.881  1.00 85.67 LIG 0.22  C 
ATOM     15 O    ALA F 465      39.751 -19.525  21.753  1.00 84.89 LIG-0.29  OA
ENDBRANCH 12 14
ENDBRANCH 10 12
ENDBRANCH 7 8
ENDBRANCH 5 7
ENDBRANCH 1 3
BRANCH 1 16
ATOM     16  N   ALA F 463      39.782 -27.678  22.822  1.00 83.00 LIG-0.35  N 
ATOM     17  C   GLY F 462      40.743 -28.595  22.913  1.00 85.58 LIG 0.24  C 
ATOM     18 O    GLY F 462      41.689 -28.660  22.127  1.00 87.56 LIG-0.27  OA
ATOM     19 H    ALA F 463      39.113 -27.630  23.359  1.00 83.00 LIG 0.16  HD
BRANCH 17 20
ATOM     20  CA  GLY F 462      40.619 -29.587  24.052  1.00 87.31 LIG 0.23  C 
BRANCH 20 21
ATOM     21  N   GLY F 462      39.383 -30.344  23.994  1.00 88.73 LIG-0.35  N 
ATOM     22  C   ALA F 461      38.258 -29.898  24.542  1.00 88.98 LIG 0.26  C 
ATOM     23 O    ALA F 461      38.179 -28.824  25.136  1.00 91.33 LIG-0.27  OA
ATOM     24 H    GLY F 462      39.448 -31.094  23.578  1.00 88.73 LIG 0.16  HD
BRANCH 22 25
ATOM     25  CA  ALA F 461      37.042 -30.806  24.400  1.00 85.90 LIG 0.40  C 
ATOM     26  CB  ALA F 461      35.756 -30.006  24.553  1.00 82.87 LIG 0.06  C 
ATOM     27  N   ALA F 461      37.088 -31.889  25.377  1.00 83.73 LIG 0.61  N 
ENDBRANCH 22 25
ENDBRANCH 20 21
ENDBRANCH 17 20
ENDBRANCH 1 16
TORSDOF 9
ENDMDL
MODEL 67
USER: ADFR SOLUTION from run 65
USER: SCORE 7.884630 LL:  -1.476 LR:  -7.284 RR:   0.000 FEB:  -4.599
USER: RMSD 4.455146
USER: SEED 64
USER: STATUS no improvement in best in 26 clusters for 5 generations
USER: GENES 11
USER: genes 0 Translation |==|  0.44190 0.58426 0.38638
USER: genes 1 Rotation |==|  0.67069 0.62619 0.60833 0.93955
USER: genes 2 Torsion [N]-CA--C-[N] |==|  0.04444
USER: genes 3 Torsion [C]-N--CA-[C] |==|  0.18518
USER: genes 4 Torsion [N]-CA--C-[N] |==|  0.57832
USER: genes 5 Torsion [C]-N--CA-[C] |==|  0.61945
USER: genes 6 Torsion [N]-CA--C-[O] |==|  0.58012
USER: genes 7 Torsion [CB]-CA--N-[C] |==|  0.83297
USER: genes 8 Torsion [N]-C--CA-[N] |==|  0.05200
USER: genes 9 Torsion [C]-CA--N-[C] |==|  0.17549
USER: genes 10 Torsion [N]-C--CA-[N] |==|  0.64270
ROOT
ATOM      1  CA  ALA F 463      34.205 -25.387  23.287  1.00 80.84 LIG 0.17  C 
ATOM      2  CB  ALA F 463      33.103 -24.402  23.649  1.00 75.28 LIG 0.04  C 
ENDROOT
BRANCH 1 3
ATOM      3  C   ALA F 463      35.485 -24.648  22.916  1.00 84.46 LIG 0.24  C 
ATOM      4 O    ALA F 463      35.447 -23.634  22.219  1.00 85.06 LIG-0.27  OA
ATOM      5  N   GLY F 464      36.618 -25.163  23.381  1.00 87.45 LIG-0.35  N 
ATOM      6 H    GLY F 464      36.654 -25.838  23.914  1.00 87.45 LIG 0.16  HD
BRANCH 5 7
ATOM      7  CA  GLY F 464      37.913 -24.616  23.020  1.00 89.28 LIG 0.23  C 
BRANCH 7 8
ATOM      8  C   GLY F 464      38.188 -23.218  23.543  1.00 90.16 LIG 0.23  C 
ATOM      9 O    GLY F 464      37.656 -22.828  24.584  1.00 90.52 LIG-0.27  OA
ATOM     10  N   ALA F 465      39.018 -22.461  22.826  1.00 88.18 LIG-0.35  N 
ATOM     11 H    ALA F 465      39.377 -22.714  22.087  1.00 88.18 LIG 0.16  HD
BRANCH 10 12
ATOM     12  CA  ALA F 465      39.392 -21.113  23.245  1.00 85.90 LIG 0.16  C 
ATOM     13  CB  ALA F 465      40.766 -21.126  23.903  1.00 84.54 LIG 0.04  C 
BRANCH 12 14
ATOM     14  C   ALA F 465      39.380 -20.134  22.071  1.00 85.67 LIG 0.22  C 
ATOM     15 O    ALA F 465      40.125 -19.151  22.062  1.00 84.89 LIG-0.29  OA
ENDBRANCH 12 14
ENDBRANCH 10 12
ENDBRANCH 7 8
ENDBRANCH 5 7
ENDBRANCH 1 3
BRANCH 1 16
ATOM     16  N   ALA F 463      34.458 -26.304  24.394  1.00 83.00 LIG-0.35  N 
ATOM     17  C   GLY F 462      34.851 -25.869  25.589  1.00 85.58 LIG 0.24  C 
ATOM     18 O    GLY F 462      35.042 -24.679  25.843  1.00 87.56 LIG-0.27  OA
ATOM     19 H    ALA F 463      34.331 -27.133  24.203  1.00 83.00 LIG 0.16  HD
BRANCH 17 20
ATOM     20  CA  GLY F 462      35.063 -26.927  26.652  1.00 87.31 LIG 0.23  C 
BRANCH 20 21
ATOM     21  N   GLY F 462      35.221 -28.254  26.088  1.00 88.73 LIG-0.35  N 
ATOM     22  C   ALA F 461      36.237 -28.564  25.290  1.00 88.98 LIG 0.26  C 
ATOM     23 O    ALA F 461      37.110 -27.758  24.969  1.00 91.33 LIG-0.27  OA
ATOM     24 H    GLY F 462      34.606 -28.810  26.315  1.00 88.73 LIG 0.16  HD
BRANCH 22 25
ATOM     25  CA  ALA F 461      36.268 -29.997  24.774  1.00 85.90 LIG 0.40  C 
ATOM     26  CB  ALA F 461      35.165 -30.823  25.419  1.00 82.87 LIG 0.06  C 
ATOM     27  N   ALA F 461      37.570 -30.607  25.017  1.00 83.73 LIG 0.61  N 
ENDBRANCH 22 25
ENDBRANCH 20 21
ENDBRANCH 17 20
ENDBRANCH 1 16
TORSDOF 9
ENDMDL
MODEL 68
USER: ADFR SOLUTION from run 125
USER: SCORE 8.357545 LL:  -1.512 LR:  -7.260 RR:   0.000 FEB:  -4.575
USER: RMSD 8.235921
USER: SEED 124
USER: STATUS no improvement in best in 28 clusters for 5 generations
USER: GENES 11
USER: genes 0 Translation |==|  0.70373 0.71353 0.50230
USER: genes 1 Rotation |==|  0.28855 0.90415 0.30825 0.57196
USER: genes 2 Torsion [N]-CA--C-[N] |==|  0.44595
USER: genes 3 Torsion [C]-N--CA-[C] |==|  0.80500
USER: genes 4 Torsion [N]-CA--C-[N] |==|  0.98254
USER: genes 5 Torsion [C]-N--CA-[C] |==|  0.73893
USER: genes 6 Torsion [N]-CA--C-[O] |==|  0.35448
USER: genes 7 Torsion [CB]-CA--N-[C] |==|  0.86111
USER: genes 8 Torsion [N]-C--CA-[N] |==|  0.44599
USER: genes 9 Torsion [C]-CA--N-[C] |==|  0.79386
USER: genes 10 Torsion [N]-C--CA-[N] |==|  0.26829
ROOT
ATOM      1  CA  ALA F 463      38.918 -23.448  25.548  1.00 80.84 LIG 0.17  C 
ATOM      2  CB  ALA F 463      38.008 -22.264  25.258  1.00 75.28 LIG 0.04  C 
ENDROOT
BRANCH 1 3
ATOM      3  C   ALA F 463      38.114 -24.741  25.607  1.00 84.46 LIG 0.24  C 
ATOM      4 O    ALA F 463      38.125 -25.534  24.665  1.00 85.06 LIG-0.27  OA
ATOM      5  N   GLY F 464      37.414 -24.948  26.717  1.00 87.45 LIG-0.35  N 
ATOM      6 H    GLY F 464      37.440 -24.431  27.404  1.00 87.45 LIG 0.16  HD
BRANCH 5 7
ATOM      7  CA  GLY F 464      36.528 -26.089  26.861  1.00 89.28 LIG 0.23  C 
BRANCH 7 8
ATOM      8  C   GLY F 464      35.271 -26.039  26.010  1.00 90.16 LIG 0.23  C 
ATOM      9 O    GLY F 464      34.510 -27.006  25.969  1.00 90.52 LIG-0.27  OA
ATOM     10  N   ALA F 465      35.052 -24.915  25.330  1.00 88.18 LIG-0.35  N 
ATOM     11 H    ALA F 465      35.587 -24.242  25.333  1.00 88.18 LIG 0.16  HD
BRANCH 10 12
ATOM     12  CA  ALA F 465      33.860 -24.729  24.506  1.00 85.90 LIG 0.16  C 
ATOM     13  CB  ALA F 465      33.373 -23.289  24.597  1.00 84.54 LIG 0.04  C 
BRANCH 12 14
ATOM     14  C   ALA F 465      34.117 -25.107  23.048  1.00 85.67 LIG 0.22  C 
ATOM     15 O    ALA F 465      33.376 -25.901  22.463  1.00 84.89 LIG-0.29  OA
ENDBRANCH 12 14
ENDBRANCH 10 12
ENDBRANCH 7 8
ENDBRANCH 5 7
ENDBRANCH 1 3
BRANCH 1 16
ATOM     16  N   ALA F 463      39.964 -23.553  24.536  1.00 83.00 LIG-0.35  N 
ATOM     17  C   GLY F 462      39.684 -23.529  23.234  1.00 85.58 LIG 0.24  C 
ATOM     18 O    GLY F 462      38.538 -23.433  22.793  1.00 87.56 LIG-0.27  OA
ATOM     19 H    ALA F 463      40.759 -23.630  24.854  1.00 83.00 LIG 0.16  HD
BRANCH 17 20
ATOM     20  CA  GLY F 462      40.865 -23.631  22.292  1.00 87.31 LIG 0.23  C 
BRANCH 20 21
ATOM     21  N   GLY F 462      40.474 -24.045  20.958  1.00 88.73 LIG-0.35  N 
ATOM     22  C   ALA F 461      40.127 -25.298  20.683  1.00 88.98 LIG 0.26  C 
ATOM     23 O    ALA F 461      40.114 -26.193  21.527  1.00 91.33 LIG-0.27  OA
ATOM     24 H    GLY F 462      40.488 -23.414  20.374  1.00 88.73 LIG 0.16  HD
BRANCH 22 25
ATOM     25  CA  ALA F 461      39.742 -25.581  19.236  1.00 85.90 LIG 0.40  C 
ATOM     26  CB  ALA F 461      38.561 -26.538  19.174  1.00 82.87 LIG 0.06  C 
ATOM     27  N   ALA F 461      40.876 -26.123  18.495  1.00 83.73 LIG 0.61  N 
ENDBRANCH 22 25
ENDBRANCH 20 21
ENDBRANCH 17 20
ENDBRANCH 1 16
TORSDOF 9
ENDMDL
MODEL 69
USER: ADFR SOLUTION from run 65
USER: SCORE 7.727339 LL:  -1.375 LR:  -7.261 RR:   0.000 FEB:  -4.576
USER: RMSD 9.542784
USER: SEED 64
USER: STATUS no improvement in best in 26 clusters for 5 generations
USER: GENES 11
USER: genes 0 Translation |==|  0.62352 0.61239 0.38450
USER: genes 1 Rotation |==|  0.61236 0.89320 0.78731 0.51486
USER: genes 2 Torsion [N]-CA--C-[N] |==|  0.39049
USER: genes 3 Torsion [C]-N--CA-[C] |==|  0.82346
USER: genes 4 Torsion [N]-CA--C-[N] |==|  0.88514
USER: genes 5 Torsion [C]-N--CA-[C] |==|  0.73181
USER: genes 6 Torsion [N]-CA--C-[O] |==|  0.32720
USER: genes 7 Torsion [CB]-CA--N-[C] |==|  0.50556
USER: genes 8 Torsion [N]-C--CA-[N] |==|  0.53086
USER: genes 9 Torsion [C]-CA--N-[C] |==|  0.36035
USER: genes 10 Torsion [N]-C--CA-[N] |==|  0.83221
ROOT
ATOM      1  CA  ALA F 463      37.474 -24.965  23.251  1.00 80.84 LIG 0.17  C 
ATOM      2  CB  ALA F 463      37.942 -25.659  24.521  1.00 75.28 LIG 0.04  C 
ENDROOT
BRANCH 1 3
ATOM      3  C   ALA F 463      36.152 -24.246  23.488  1.00 84.46 LIG 0.24  C 
ATOM      4 O    ALA F 463      36.127 -23.122  23.990  1.00 85.06 LIG-0.27  OA
ATOM      5  N   GLY F 464      35.054 -24.901  23.128  1.00 87.45 LIG-0.35  N 
ATOM      6 H    GLY F 464      35.059 -25.662  22.727  1.00 87.45 LIG 0.16  HD
BRANCH 5 7
ATOM      7  CA  GLY F 464      33.727 -24.373  23.391  1.00 89.28 LIG 0.23  C 
BRANCH 7 8
ATOM      8  C   GLY F 464      33.375 -24.221  24.860  1.00 90.16 LIG 0.23  C 
ATOM      9 O    GLY F 464      32.771 -23.222  25.253  1.00 90.52 LIG-0.27  OA
ATOM     10  N   ALA F 465      33.750 -25.207  25.672  1.00 88.18 LIG-0.35  N 
ATOM     11 H    ALA F 465      34.191 -25.898  25.413  1.00 88.18 LIG 0.16  HD
BRANCH 10 12
ATOM     12  CA  ALA F 465      33.436 -25.196  27.099  1.00 85.90 LIG 0.16  C 
ATOM     13  CB  ALA F 465      33.059 -26.595  27.568  1.00 84.54 LIG 0.04  C 
BRANCH 12 14
ATOM     14  C   ALA F 465      34.602 -24.659  27.928  1.00 85.67 LIG 0.22  C 
ATOM     15 O    ALA F 465      34.476 -23.633  28.602  1.00 84.89 LIG-0.29  OA
ENDBRANCH 12 14
ENDBRANCH 10 12
ENDBRANCH 7 8
ENDBRANCH 5 7
ENDBRANCH 1 3
BRANCH 1 16
ATOM     16  N   ALA F 463      38.482 -24.021  22.780  1.00 83.00 LIG-0.35  N 
ATOM     17  C   GLY F 462      38.284 -23.264  21.703  1.00 85.58 LIG 0.24  C 
ATOM     18 O    GLY F 462      37.257 -23.312  21.025  1.00 87.56 LIG-0.27  OA
ATOM     19 H    ALA F 463      39.199 -24.003  23.253  1.00 83.00 LIG 0.16  HD
BRANCH 17 20
ATOM     20  CA  GLY F 462      39.406 -22.316  21.333  1.00 87.31 LIG 0.23  C 
BRANCH 20 21
ATOM     21  N   GLY F 462      39.009 -21.359  20.318  1.00 88.73 LIG-0.35  N 
ATOM     22  C   ALA F 461      39.216 -20.054  20.462  1.00 88.98 LIG 0.26  C 
ATOM     23 O    ALA F 461      39.750 -19.563  21.456  1.00 91.33 LIG-0.27  OA
ATOM     24 H    GLY F 462      38.636 -21.710  19.628  1.00 88.73 LIG 0.16  HD
BRANCH 22 25
ATOM     25  CA  ALA F 461      38.743 -19.173  19.312  1.00 85.90 LIG 0.40  C 
ATOM     26  CB  ALA F 461      37.235 -19.280  19.139  1.00 82.87 LIG 0.06  C 
ATOM     27  N   ALA F 461      39.424 -19.530  18.072  1.00 83.73 LIG 0.61  N 
ENDBRANCH 22 25
ENDBRANCH 20 21
ENDBRANCH 17 20
ENDBRANCH 1 16
TORSDOF 9
ENDMDL
MODEL 70
USER: ADFR SOLUTION from run 166
USER: SCORE 7.631223 LL:  -1.339 LR:  -7.240 RR:   0.000 FEB:  -4.556
USER: RMSD 8.659174
USER: SEED 165
USER: STATUS no improvement in best in 27 clusters for 5 generations
USER: GENES 11
USER: genes 0 Translation |==|  0.68877 0.58827 0.43804
USER: genes 1 Rotation |==|  0.19843 0.87145 0.39510 0.60037
USER: genes 2 Torsion [N]-CA--C-[N] |==|  0.17219
USER: genes 3 Torsion [C]-N--CA-[C] |==|  0.89053
USER: genes 4 Torsion [N]-CA--C-[N] |==|  0.40556
USER: genes 5 Torsion [C]-N--CA-[C] |==|  0.18053
USER: genes 6 Torsion [N]-CA--C-[O] |==|  0.05836
USER: genes 7 Torsion [CB]-CA--N-[C] |==|  0.15979
USER: genes 8 Torsion [N]-C--CA-[N] |==|  0.04460
USER: genes 9 Torsion [C]-CA--N-[C] |==|  0.18230
USER: genes 10 Torsion [N]-C--CA-[N] |==|  0.81733
ROOT
ATOM      1  CA  ALA F 463      38.649 -25.327  24.295  1.00 80.84 LIG 0.17  C 
ATOM      2  CB  ALA F 463      37.298 -24.640  24.429  1.00 75.28 LIG 0.04  C 
ENDROOT
BRANCH 1 3
ATOM      3  C   ALA F 463      38.472 -26.829  24.114  1.00 84.46 LIG 0.24  C 
ATOM      4 O    ALA F 463      37.349 -27.324  24.011  1.00 85.06 LIG-0.27  OA
ATOM      5  N   GLY F 464      39.585 -27.553  24.080  1.00 87.45 LIG-0.35  N 
ATOM      6 H    GLY F 464      40.377 -27.216  24.095  1.00 87.45 LIG 0.16  HD
BRANCH 5 7
ATOM      7  CA  GLY F 464      39.554 -29.003  24.013  1.00 89.28 LIG 0.23  C 
BRANCH 7 8
ATOM      8  C   GLY F 464      38.478 -29.662  24.858  1.00 90.16 LIG 0.23  C 
ATOM      9 O    GLY F 464      38.146 -29.168  25.936  1.00 90.52 LIG-0.27  OA
ATOM     10  N   ALA F 465      37.934 -30.777  24.373  1.00 88.18 LIG-0.35  N 
ATOM     11 H    ALA F 465      38.173 -31.143  23.633  1.00 88.18 LIG 0.16  HD
BRANCH 10 12
ATOM     12  CA  ALA F 465      36.863 -31.482  25.073  1.00 85.90 LIG 0.16  C 
ATOM     13  CB  ALA F 465      37.315 -31.877  26.472  1.00 84.54 LIG 0.04  C 
BRANCH 12 14
ATOM     14  C   ALA F 465      35.590 -30.642  25.149  1.00 85.67 LIG 0.22  C 
ATOM     15 O    ALA F 465      35.400 -29.712  24.360  1.00 84.89 LIG-0.29  OA
ENDBRANCH 12 14
ENDBRANCH 10 12
ENDBRANCH 7 8
ENDBRANCH 5 7
ENDBRANCH 1 3
BRANCH 1 16
ATOM     16  N   ALA F 463      39.399 -24.771  23.173  1.00 83.00 LIG-0.35  N 
ATOM     17  C   GLY F 462      39.688 -23.474  23.098  1.00 85.58 LIG 0.24  C 
ATOM     18 O    GLY F 462      39.337 -22.655  23.948  1.00 87.56 LIG-0.27  OA
ATOM     19 H    ALA F 463      39.629 -25.349  22.580  1.00 83.00 LIG 0.16  HD
BRANCH 17 20
ATOM     20  CA  GLY F 462      40.484 -23.033  21.887  1.00 87.31 LIG 0.23  C 
BRANCH 20 21
ATOM     21  N   GLY F 462      40.482 -24.028  20.832  1.00 88.73 LIG-0.35  N 
ATOM     22  C   ALA F 461      39.374 -24.363  20.182  1.00 88.98 LIG 0.26  C 
ATOM     23 O    ALA F 461      38.275 -23.864  20.424  1.00 91.33 LIG-0.27  OA
ATOM     24 H    GLY F 462      41.254 -24.373  20.670  1.00 88.73 LIG 0.16  HD
BRANCH 22 25
ATOM     25  CA  ALA F 461      39.529 -25.425  19.100  1.00 85.90 LIG 0.40  C 
ATOM     26  CB  ALA F 461      40.126 -26.698  19.680  1.00 82.87 LIG 0.06  C 
ATOM     27  N   ALA F 461      40.353 -24.929  18.002  1.00 83.73 LIG 0.61  N 
ENDBRANCH 22 25
ENDBRANCH 20 21
ENDBRANCH 17 20
ENDBRANCH 1 16
TORSDOF 9
ENDMDL
MODEL 71
USER: ADFR SOLUTION from run 126
USER: SCORE 7.999562 LL:  -1.840 LR:  -7.235 RR:   0.000 FEB:  -4.550
USER: RMSD 7.576922
USER: SEED 125
USER: STATUS no improvement in best in 31 clusters for 5 generations
USER: GENES 11
USER: genes 0 Translation |==|  0.59496 0.59282 0.44327
USER: genes 1 Rotation |==|  0.85211 0.78152 0.65091 0.65489
USER: genes 2 Torsion [N]-CA--C-[N] |==|  0.81667
USER: genes 3 Torsion [C]-N--CA-[C] |==|  0.79415
USER: genes 4 Torsion [N]-CA--C-[N] |==|  0.14300
USER: genes 5 Torsion [C]-N--CA-[C] |==|  0.77642
USER: genes 6 Torsion [N]-CA--C-[O] |==|  0.15247
USER: genes 7 Torsion [CB]-CA--N-[C] |==|  0.85534
USER: genes 8 Torsion [N]-C--CA-[N] |==|  0.09636
USER: genes 9 Torsion [C]-CA--N-[C] |==|  0.18989
USER: genes 10 Torsion [N]-C--CA-[N] |==|  0.73352
ROOT
ATOM      1  CA  ALA F 463      36.960 -25.259  24.397  1.00 80.84 LIG 0.17  C 
ATOM      2  CB  ALA F 463      36.880 -25.783  25.822  1.00 75.28 LIG 0.04  C 
ENDROOT
BRANCH 1 3
ATOM      3  C   ALA F 463      37.340 -23.783  24.388  1.00 84.46 LIG 0.24  C 
ATOM      4 O    ALA F 463      36.623 -22.951  23.833  1.00 85.06 LIG-0.27  OA
ATOM      5  N   GLY F 464      38.474 -23.464  25.004  1.00 87.45 LIG-0.35  N 
ATOM      6 H    GLY F 464      38.956 -24.026  25.443  1.00 87.45 LIG 0.16  HD
BRANCH 5 7
ATOM      7  CA  GLY F 464      39.002 -22.112  24.983  1.00 89.28 LIG 0.23  C 
BRANCH 7 8
ATOM      8  C   GLY F 464      39.619 -21.683  23.664  1.00 90.16 LIG 0.23  C 
ATOM      9 O    GLY F 464      40.751 -21.199  23.637  1.00 90.52 LIG-0.27  OA
ATOM     10  N   ALA F 465      38.880 -21.858  22.570  1.00 88.18 LIG-0.35  N 
ATOM     11 H    ALA F 465      38.080 -22.174  22.579  1.00 88.18 LIG 0.16  HD
BRANCH 10 12
ATOM     12  CA  ALA F 465      39.376 -21.522  21.238  1.00 85.90 LIG 0.16  C 
ATOM     13  CB  ALA F 465      38.626 -22.316  20.178  1.00 84.54 LIG 0.04  C 
BRANCH 12 14
ATOM     14  C   ALA F 465      39.260 -20.025  20.955  1.00 85.67 LIG 0.22  C 
ATOM     15 O    ALA F 465      39.765 -19.198  21.719  1.00 84.89 LIG-0.29  OA
ENDBRANCH 12 14
ENDBRANCH 10 12
ENDBRANCH 7 8
ENDBRANCH 5 7
ENDBRANCH 1 3
BRANCH 1 16
ATOM     16  N   ALA F 463      37.924 -26.030  23.619  1.00 83.00 LIG-0.35  N 
ATOM     17  C   GLY F 462      39.169 -26.231  24.047  1.00 85.58 LIG 0.24  C 
ATOM     18 O    GLY F 462      39.598 -25.776  25.108  1.00 87.56 LIG-0.27  OA
ATOM     19 H    ALA F 463      37.618 -26.334  22.876  1.00 83.00 LIG 0.16  HD
BRANCH 17 20
ATOM     20  CA  GLY F 462      40.061 -27.063  23.149  1.00 87.31 LIG 0.23  C 
BRANCH 20 21
ATOM     21  N   GLY F 462      39.785 -26.846  21.741  1.00 88.73 LIG-0.35  N 
ATOM     22  C   ALA F 461      40.056 -25.693  21.139  1.00 88.98 LIG 0.26  C 
ATOM     23 O    ALA F 461      40.554 -24.731  21.723  1.00 91.33 LIG-0.27  OA
ATOM     24 H    GLY F 462      39.435 -27.523  21.342  1.00 88.73 LIG 0.16  HD
BRANCH 22 25
ATOM     25  CA  ALA F 461      39.708 -25.616  19.658  1.00 85.90 LIG 0.40  C 
ATOM     26  CB  ALA F 461      38.568 -26.566  19.325  1.00 82.87 LIG 0.06  C 
ATOM     27  N   ALA F 461      40.876 -25.913  18.835  1.00 83.73 LIG 0.61  N 
ENDBRANCH 22 25
ENDBRANCH 20 21
ENDBRANCH 17 20
ENDBRANCH 1 16
TORSDOF 9
ENDMDL
MODEL 72
USER: ADFR SOLUTION from run 104
USER: SCORE 7.412548 LL:  -1.289 LR:  -7.228 RR:   0.000 FEB:  -4.543
USER: RMSD 5.442591
USER: SEED 103
USER: STATUS no improvement in best in 33 clusters for 5 generations
USER: GENES 11
USER: genes 0 Translation |==|  0.56812 0.58535 0.41826
USER: genes 1 Rotation |==|  0.73042 0.82261 0.50834 0.80456
USER: genes 2 Torsion [N]-CA--C-[N] |==|  0.99445
USER: genes 3 Torsion [C]-N--CA-[C] |==|  0.23309
USER: genes 4 Torsion [N]-CA--C-[N] |==|  0.64309
USER: genes 5 Torsion [C]-N--CA-[C] |==|  0.83564
USER: genes 6 Torsion [N]-CA--C-[O] |==|  0.42182
USER: genes 7 Torsion [CB]-CA--N-[C] |==|  0.22600
USER: genes 8 Torsion [N]-C--CA-[N] |==|  0.49059
USER: genes 9 Torsion [C]-CA--N-[C] |==|  0.20933
USER: genes 10 Torsion [N]-C--CA-[N] |==|  0.55685
ROOT
ATOM      1  CA  ALA F 463      36.477 -25.371  23.909  1.00 80.84 LIG 0.17  C 
ATOM      2  CB  ALA F 463      36.343 -24.481  25.135  1.00 75.28 LIG 0.04  C 
ENDROOT
BRANCH 1 3
ATOM      3  C   ALA F 463      36.837 -24.543  22.682  1.00 84.46 LIG 0.24  C 
ATOM      4 O    ALA F 463      36.096 -23.640  22.291  1.00 85.06 LIG-0.27  OA
ATOM      5  N   GLY F 464      37.976 -24.856  22.074  1.00 87.45 LIG-0.35  N 
ATOM      6 H    GLY F 464      38.529 -25.446  22.366  1.00 87.45 LIG 0.16  HD
BRANCH 5 7
ATOM      7  CA  GLY F 464      38.386 -24.214  20.838  1.00 89.28 LIG 0.23  C 
BRANCH 7 8
ATOM      8  C   GLY F 464      39.096 -22.883  21.011  1.00 90.16 LIG 0.23  C 
ATOM      9 O    GLY F 464      40.056 -22.786  21.776  1.00 90.52 LIG-0.27  OA
ATOM     10  N   ALA F 465      38.627 -21.857  20.302  1.00 88.18 LIG-0.35  N 
ATOM     11 H    ALA F 465      37.944 -21.907  19.782  1.00 88.18 LIG 0.16  HD
BRANCH 10 12
ATOM     12  CA  ALA F 465      39.248 -20.535  20.352  1.00 85.90 LIG 0.16  C 
ATOM     13  CB  ALA F 465      38.532 -19.580  19.406  1.00 84.54 LIG 0.04  C 
BRANCH 12 14
ATOM     14  C   ALA F 465      39.253 -19.967  21.770  1.00 85.67 LIG 0.22  C 
ATOM     15 O    ALA F 465      40.126 -19.173  22.128  1.00 84.89 LIG-0.29  OA
ENDBRANCH 12 14
ENDBRANCH 10 12
ENDBRANCH 7 8
ENDBRANCH 5 7
ENDBRANCH 1 3
BRANCH 1 16
ATOM     16  N   ALA F 463      37.484 -26.403  24.131  1.00 83.00 LIG-0.35  N 
ATOM     17  C   GLY F 462      37.208 -27.519  24.802  1.00 85.58 LIG 0.24  C 
ATOM     18 O    GLY F 462      36.102 -27.754  25.292  1.00 87.56 LIG-0.27  OA
ATOM     19 H    ALA F 463      38.255 -26.224  23.795  1.00 83.00 LIG 0.16  HD
BRANCH 17 20
ATOM     20  CA  GLY F 462      38.341 -28.513  24.948  1.00 87.31 LIG 0.23  C 
BRANCH 20 21
ATOM     21  N   GLY F 462      37.972 -29.658  25.757  1.00 88.73 LIG-0.35  N 
ATOM     22  C   ALA F 461      37.189 -30.626  25.293  1.00 88.98 LIG 0.26  C 
ATOM     23 O    ALA F 461      36.720 -30.624  24.155  1.00 91.33 LIG-0.27  OA
ATOM     24 H    GLY F 462      38.302 -29.651  26.551  1.00 88.73 LIG 0.16  HD
BRANCH 22 25
ATOM     25  CA  ALA F 461      36.887 -31.763  26.262  1.00 85.90 LIG 0.40  C 
ATOM     26  CB  ALA F 461      38.105 -32.073  27.120  1.00 82.87 LIG 0.06  C 
ATOM     27  N   ALA F 461      36.455 -32.956  25.541  1.00 83.73 LIG 0.61  N 
ENDBRANCH 22 25
ENDBRANCH 20 21
ENDBRANCH 17 20
ENDBRANCH 1 16
TORSDOF 9
ENDMDL
MODEL 73
USER: ADFR SOLUTION from run 25
USER: SCORE 7.658139 LL:  -1.610 LR:  -7.216 RR:   0.000 FEB:  -4.531
USER: RMSD 8.157104
USER: SEED 24
USER: STATUS no improvement in best in 20 clusters for 5 generations
USER: GENES 11
USER: genes 0 Translation |==|  0.74361 0.54246 0.18414
USER: genes 1 Rotation |==|  0.64817 0.60290 0.93336 0.67220
USER: genes 2 Torsion [N]-CA--C-[N] |==|  0.22535
USER: genes 3 Torsion [C]-N--CA-[C] |==|  0.31010
USER: genes 4 Torsion [N]-CA--C-[N] |==|  0.85268
USER: genes 5 Torsion [C]-N--CA-[C] |==|  0.63752
USER: genes 6 Torsion [N]-CA--C-[O] |==|  0.03848
USER: genes 7 Torsion [CB]-CA--N-[C] |==|  0.81078
USER: genes 8 Torsion [N]-C--CA-[N] |==|  0.59965
USER: genes 9 Torsion [C]-CA--N-[C] |==|  0.15000
USER: genes 10 Torsion [N]-C--CA-[N] |==|  0.30973
ROOT
ATOM      1  CA  ALA F 463      39.636 -26.014  19.344  1.00 80.84 LIG 0.17  C 
ATOM      2  CB  ALA F 463      38.744 -27.233  19.163  1.00 75.28 LIG 0.04  C 
ENDROOT
BRANCH 1 3
ATOM      3  C   ALA F 463      38.865 -24.878  20.005  1.00 84.46 LIG 0.24  C 
ATOM      4 O    ALA F 463      37.871 -25.109  20.694  1.00 85.06 LIG-0.27  OA
ATOM      5  N   GLY F 464      39.325 -23.651  19.789  1.00 87.45 LIG-0.35  N 
ATOM      6 H    GLY F 464      40.049 -23.479  19.356  1.00 87.45 LIG 0.16  HD
BRANCH 5 7
ATOM      7  CA  GLY F 464      38.628 -22.475  20.277  1.00 89.28 LIG 0.23  C 
BRANCH 7 8
ATOM      8  C   GLY F 464      39.343 -21.715  21.380  1.00 90.16 LIG 0.23  C 
ATOM      9 O    GLY F 464      39.550 -20.506  21.268  1.00 90.52 LIG-0.27  OA
ATOM     10  N   ALA F 465      39.720 -22.419  22.446  1.00 88.18 LIG-0.35  N 
ATOM     11 H    ALA F 465      39.601 -23.267  22.526  1.00 88.18 LIG 0.16  HD
BRANCH 10 12
ATOM     12  CA  ALA F 465      40.381 -21.797  23.590  1.00 85.90 LIG 0.16  C 
ATOM     13  CB  ALA F 465      39.423 -21.710  24.771  1.00 84.54 LIG 0.04  C 
BRANCH 12 14
ATOM     14  C   ALA F 465      41.645 -22.555  23.992  1.00 85.67 LIG 0.22  C 
ATOM     15 O    ALA F 465      42.141 -23.398  23.240  1.00 84.89 LIG-0.29  OA
ENDBRANCH 12 14
ENDBRANCH 10 12
ENDBRANCH 7 8
ENDBRANCH 5 7
ENDBRANCH 1 3
BRANCH 1 16
ATOM     16  N   ALA F 463      40.813 -26.351  20.138  1.00 83.00 LIG-0.35  N 
ATOM     17  C   GLY F 462      40.721 -26.660  21.429  1.00 85.58 LIG 0.24  C 
ATOM     18 O    GLY F 462      39.655 -26.671  22.046  1.00 87.56 LIG-0.27  OA
ATOM     19 H    ALA F 463      41.553 -26.331  19.701  1.00 83.00 LIG 0.16  HD
BRANCH 17 20
ATOM     20  CA  GLY F 462      42.019 -27.005  22.131  1.00 87.31 LIG 0.23  C 
BRANCH 20 21
ATOM     21  N   GLY F 462      41.850 -28.047  23.126  1.00 88.73 LIG-0.35  N 
ATOM     22  C   ALA F 461      41.297 -29.218  22.832  1.00 88.98 LIG 0.26  C 
ATOM     23 O    ALA F 461      40.887 -29.505  21.708  1.00 91.33 LIG-0.27  OA
ATOM     24 H    GLY F 462      42.138 -27.837  23.909  1.00 88.73 LIG 0.16  HD
BRANCH 22 25
ATOM     25  CA  ALA F 461      41.186 -30.211  23.983  1.00 85.90 LIG 0.40  C 
ATOM     26  CB  ALA F 461      41.834 -31.537  23.611  1.00 82.87 LIG 0.06  C 
ATOM     27  N   ALA F 461      39.792 -30.414  24.360  1.00 83.73 LIG 0.61  N 
ENDBRANCH 22 25
ENDBRANCH 20 21
ENDBRANCH 17 20
ENDBRANCH 1 16
TORSDOF 9
ENDMDL
MODEL 74
USER: ADFR SOLUTION from run 31
USER: SCORE 7.977563 LL:  -1.276 LR:  -7.216 RR:   0.000 FEB:  -4.531
USER: RMSD 4.041128
USER: SEED 30
USER: STATUS no improvement in best in 32 clusters for 5 generations
USER: GENES 11
USER: genes 0 Translation |==|  0.52373 0.61661 0.39032
USER: genes 1 Rotation |==|  0.59268 0.43741 0.61995 0.97234
USER: genes 2 Torsion [N]-CA--C-[N] |==|  0.37774
USER: genes 3 Torsion [C]-N--CA-[C] |==|  0.71156
USER: genes 4 Torsion [N]-CA--C-[N] |==|  0.98657
USER: genes 5 Torsion [C]-N--CA-[C] |==|  0.79647
USER: genes 6 Torsion [N]-CA--C-[O] |==|  0.32450
USER: genes 7 Torsion [CB]-CA--N-[C] |==|  0.89403
USER: genes 8 Torsion [N]-C--CA-[N] |==|  0.37258
USER: genes 9 Torsion [C]-CA--N-[C] |==|  0.84502
USER: genes 10 Torsion [N]-C--CA-[N] |==|  0.40705
ROOT
ATOM      1  CA  ALA F 463      35.678 -24.902  23.364  1.00 80.84 LIG 0.17  C 
ATOM      2  CB  ALA F 463      34.879 -23.764  22.747  1.00 75.28 LIG 0.04  C 
ENDROOT
BRANCH 1 3
ATOM      3  C   ALA F 463      36.965 -24.377  23.989  1.00 84.46 LIG 0.24  C 
ATOM      4 O    ALA F 463      36.951 -23.821  25.088  1.00 85.06 LIG-0.27  OA
ATOM      5  N   GLY F 464      38.076 -24.552  23.282  1.00 87.45 LIG-0.35  N 
ATOM      6 H    GLY F 464      38.109 -24.986  22.540  1.00 87.45 LIG 0.16  HD
BRANCH 5 7
ATOM      7  CA  GLY F 464      39.352 -24.011  23.715  1.00 89.28 LIG 0.23  C 
BRANCH 7 8
ATOM      8  C   GLY F 464      39.811 -22.771  22.968  1.00 90.16 LIG 0.23  C 
ATOM      9 O    GLY F 464      40.835 -22.181  23.315  1.00 90.52 LIG-0.27  OA
ATOM     10  N   ALA F 465      39.058 -22.374  21.944  1.00 88.18 LIG-0.35  N 
ATOM     11 H    ALA F 465      38.330 -22.765  21.706  1.00 88.18 LIG 0.16  HD
BRANCH 10 12
ATOM     12  CA  ALA F 465      39.415 -21.220  21.123  1.00 85.90 LIG 0.16  C 
ATOM     13  CB  ALA F 465      38.626 -21.234  19.820  1.00 84.54 LIG 0.04  C 
BRANCH 12 14
ATOM     14  C   ALA F 465      39.181 -19.906  21.866  1.00 85.67 LIG 0.22  C 
ATOM     15 O    ALA F 465      40.123 -19.153  22.128  1.00 84.89 LIG-0.29  OA
ENDBRANCH 12 14
ENDBRANCH 10 12
ENDBRANCH 7 8
ENDBRANCH 5 7
ENDBRANCH 1 3
BRANCH 1 16
ATOM     16  N   ALA F 463      34.883 -25.604  24.366  1.00 83.00 LIG-0.35  N 
ATOM     17  C   GLY F 462      34.057 -24.956  25.185  1.00 85.58 LIG 0.24  C 
ATOM     18 O    GLY F 462      33.915 -23.733  25.169  1.00 87.56 LIG-0.27  OA
ATOM     19 H    ALA F 463      34.998 -26.456  24.376  1.00 83.00 LIG 0.16  HD
BRANCH 17 20
ATOM     20  CA  GLY F 462      33.281 -25.808  26.168  1.00 87.31 LIG 0.23  C 
BRANCH 20 21
ATOM     21  N   GLY F 462      33.299 -25.259  27.510  1.00 88.73 LIG-0.35  N 
ATOM     22  C   ALA F 461      34.433 -24.994  28.148  1.00 88.98 LIG 0.26  C 
ATOM     23 O    ALA F 461      35.544 -25.195  27.656  1.00 91.33 LIG-0.27  OA
ATOM     24 H    GLY F 462      32.519 -25.124  27.846  1.00 88.73 LIG 0.16  HD
BRANCH 22 25
ATOM     25  CA  ALA F 461      34.292 -24.421  29.553  1.00 85.90 LIG 0.40  C 
ATOM     26  CB  ALA F 461      34.252 -22.901  29.510  1.00 82.87 LIG 0.06  C 
ATOM     27  N   ALA F 461      35.380 -24.879  30.411  1.00 83.73 LIG 0.61  N 
ENDBRANCH 22 25
ENDBRANCH 20 21
ENDBRANCH 17 20
ENDBRANCH 1 16
TORSDOF 9
ENDMDL
MODEL 75
USER: ADFR SOLUTION from run 18
USER: SCORE 8.149865 LL:  -2.049 LR:  -7.209 RR:   0.000 FEB:  -4.524
USER: RMSD 7.776750
USER: SEED 17
USER: STATUS no improvement in best in 28 clusters for 5 generations
USER: GENES 11
USER: genes 0 Translation |==|  0.57732 0.67979 0.43771
USER: genes 1 Rotation |==|  0.21708 0.83560 0.31341 0.65003
USER: genes 2 Torsion [N]-CA--C-[N] |==|  0.19020
USER: genes 3 Torsion [C]-N--CA-[C] |==|  0.33881
USER: genes 4 Torsion [N]-CA--C-[N] |==|  0.00164
USER: genes 5 Torsion [C]-N--CA-[C] |==|  0.53750
USER: genes 6 Torsion [N]-CA--C-[O] |==|  0.65814
USER: genes 7 Torsion [CB]-CA--N-[C] |==|  0.84099
USER: genes 8 Torsion [N]-C--CA-[N] |==|  0.41862
USER: genes 9 Torsion [C]-CA--N-[C] |==|  0.84673
USER: genes 10 Torsion [N]-C--CA-[N] |==|  0.28249
ROOT
ATOM      1  CA  ALA F 463      36.643 -23.954  24.288  1.00 80.84 LIG 0.17  C 
ATOM      2  CB  ALA F 463      35.357 -23.302  23.804  1.00 75.28 LIG 0.04  C 
ENDROOT
BRANCH 1 3
ATOM      3  C   ALA F 463      36.518 -25.472  24.261  1.00 84.46 LIG 0.24  C 
ATOM      4 O    ALA F 463      35.565 -26.016  23.701  1.00 85.06 LIG-0.27  OA
ATOM      5  N   GLY F 464      37.482 -26.153  24.870  1.00 87.45 LIG-0.35  N 
ATOM      6 H    GLY F 464      38.181 -25.789  25.216  1.00 87.45 LIG 0.16  HD
BRANCH 5 7
ATOM      7  CA  GLY F 464      37.433 -27.598  25.004  1.00 89.28 LIG 0.23  C 
BRANCH 7 8
ATOM      8  C   GLY F 464      38.611 -28.340  24.399  1.00 90.16 LIG 0.23  C 
ATOM      9 O    GLY F 464      38.662 -29.570  24.448  1.00 90.52 LIG-0.27  OA
ATOM     10  N   ALA F 465      39.558 -27.598  23.828  1.00 88.18 LIG-0.35  N 
ATOM     11 H    ALA F 465      39.545 -26.739  23.807  1.00 88.18 LIG 0.16  HD
BRANCH 10 12
ATOM     12  CA  ALA F 465      40.722 -28.195  23.176  1.00 85.90 LIG 0.16  C 
ATOM     13  CB  ALA F 465      40.309 -28.882  21.882  1.00 84.54 LIG 0.04  C 
BRANCH 12 14
ATOM     14  C   ALA F 465      41.807 -27.157  22.899  1.00 85.67 LIG 0.22  C 
ATOM     15 O    ALA F 465      42.227 -26.974  21.753  1.00 84.89 LIG-0.29  OA
ENDBRANCH 12 14
ENDBRANCH 10 12
ENDBRANCH 7 8
ENDBRANCH 5 7
ENDBRANCH 1 3
BRANCH 1 16
ATOM     16  N   ALA F 463      37.774 -23.528  23.472  1.00 83.00 LIG-0.35  N 
ATOM     17  C   GLY F 462      37.793 -23.709  22.153  1.00 85.58 LIG 0.24  C 
ATOM     18 O    GLY F 462      36.879 -24.253  21.534  1.00 87.56 LIG-0.27  OA
ATOM     19 H    ALA F 463      38.412 -23.159  23.914  1.00 83.00 LIG 0.16  HD
BRANCH 17 20
ATOM     20  CA  GLY F 462      39.023 -23.206  21.425  1.00 87.31 LIG 0.23  C 
BRANCH 20 21
ATOM     21  N   GLY F 462      39.310 -23.974  20.228  1.00 88.73 LIG-0.35  N 
ATOM     22  C   ALA F 461      39.465 -25.293  20.259  1.00 88.98 LIG 0.26  C 
ATOM     23 O    ALA F 461      39.382 -25.957  21.292  1.00 91.33 LIG-0.27  OA
ATOM     24 H    GLY F 462      39.368 -23.503  19.511  1.00 88.73 LIG 0.16  HD
BRANCH 22 25
ATOM     25  CA  ALA F 461      39.764 -25.962  18.922  1.00 85.90 LIG 0.40  C 
ATOM     26  CB  ALA F 461      38.925 -27.220  18.753  1.00 82.87 LIG 0.06  C 
ATOM     27  N   ALA F 461      41.184 -26.276  18.806  1.00 83.73 LIG 0.61  N 
ENDBRANCH 22 25
ENDBRANCH 20 21
ENDBRANCH 17 20
ENDBRANCH 1 16
TORSDOF 9
ENDMDL
MODEL 76
USER: ADFR SOLUTION from run 102
USER: SCORE 7.679369 LL:  -1.327 LR:  -7.176 RR:   0.000 FEB:  -4.491
USER: RMSD 8.126246
USER: SEED 101
USER: STATUS no improvement in best in 22 clusters for 5 generations
USER: GENES 11
USER: genes 0 Translation |==|  0.73274 0.71227 0.27604
USER: genes 1 Rotation |==|  0.69153 0.19393 0.81991 0.63151
USER: genes 2 Torsion [N]-CA--C-[N] |==|  0.47442
USER: genes 3 Torsion [C]-N--CA-[C] |==|  0.82191
USER: genes 4 Torsion [N]-CA--C-[N] |==|  0.44548
USER: genes 5 Torsion [C]-N--CA-[C] |==|  0.14624
USER: genes 6 Torsion [N]-CA--C-[O] |==|  0.60487
USER: genes 7 Torsion [CB]-CA--N-[C] |==|  0.82307
USER: genes 8 Torsion [N]-C--CA-[N] |==|  0.28889
USER: genes 9 Torsion [C]-CA--N-[C] |==|  0.81423
USER: genes 10 Torsion [N]-C--CA-[N] |==|  0.32031
ROOT
ATOM      1  CA  ALA F 463      39.440 -23.467  21.136  1.00 80.84 LIG 0.17  C 
ATOM      2  CB  ALA F 463      38.601 -22.650  20.165  1.00 75.28 LIG 0.04  C 
ENDROOT
BRANCH 1 3
ATOM      3  C   ALA F 463      38.633 -23.818  22.379  1.00 84.46 LIG 0.24  C 
ATOM      4 O    ALA F 463      38.325 -24.986  22.621  1.00 85.06 LIG-0.27  OA
ATOM      5  N   GLY F 464      38.287 -22.803  23.163  1.00 87.45 LIG-0.35  N 
ATOM      6 H    GLY F 464      38.542 -21.991  23.036  1.00 87.45 LIG 0.16  HD
BRANCH 5 7
ATOM      7  CA  GLY F 464      37.434 -22.986  24.323  1.00 89.28 LIG 0.23  C 
BRANCH 7 8
ATOM      8  C   GLY F 464      36.022 -23.452  24.014  1.00 90.16 LIG 0.23  C 
ATOM      9 O    GLY F 464      35.553 -23.306  22.884  1.00 90.52 LIG-0.27  OA
ATOM     10  N   ALA F 465      35.343 -24.012  25.013  1.00 88.18 LIG-0.35  N 
ATOM     11 H    ALA F 465      35.652 -24.100  25.811  1.00 88.18 LIG 0.16  HD
BRANCH 10 12
ATOM     12  CA  ALA F 465      33.991 -24.536  24.833  1.00 85.90 LIG 0.16  C 
ATOM     13  CB  ALA F 465      33.005 -23.394  24.630  1.00 84.54 LIG 0.04  C 
BRANCH 12 14
ATOM     14  C   ALA F 465      33.916 -25.511  23.660  1.00 85.67 LIG 0.22  C 
ATOM     15 O    ALA F 465      32.930 -25.532  22.919  1.00 84.89 LIG-0.29  OA
ENDBRANCH 12 14
ENDBRANCH 10 12
ENDBRANCH 7 8
ENDBRANCH 5 7
ENDBRANCH 1 3
BRANCH 1 16
ATOM     16  N   ALA F 463      39.930 -24.683  20.495  1.00 83.00 LIG-0.35  N 
ATOM     17  C   GLY F 462      39.100 -25.631  20.065  1.00 85.58 LIG 0.24  C 
ATOM     18 O    GLY F 462      37.877 -25.561  20.187  1.00 87.56 LIG-0.27  OA
ATOM     19 H    ALA F 463      40.786 -24.726  20.424  1.00 83.00 LIG 0.16  HD
BRANCH 17 20
ATOM     20  CA  GLY F 462      39.741 -26.834  19.404  1.00 87.31 LIG 0.23  C 
BRANCH 20 21
ATOM     21  N   GLY F 462      39.760 -27.996  20.272  1.00 88.73 LIG-0.35  N 
ATOM     22  C   ALA F 461      40.493 -28.037  21.379  1.00 88.98 LIG 0.26  C 
ATOM     23 O    ALA F 461      41.206 -27.104  21.748  1.00 91.33 LIG-0.27  OA
ATOM     24 H    GLY F 462      39.260 -28.644  20.006  1.00 88.73 LIG 0.16  HD
BRANCH 22 25
ATOM     25  CA  ALA F 461      40.411 -29.326  22.187  1.00 85.90 LIG 0.40  C 
ATOM     26  CB  ALA F 461      39.936 -29.041  23.604  1.00 82.87 LIG 0.06  C 
ATOM     27  N   ALA F 461      41.701 -30.007  22.209  1.00 83.73 LIG 0.61  N 
ENDBRANCH 22 25
ENDBRANCH 20 21
ENDBRANCH 17 20
ENDBRANCH 1 16
TORSDOF 9
ENDMDL
