MODEL 1
USER: ADFR SOLUTION from run 12
USER: SCORE 19.034326 LL:  -2.133 LR: -17.366 RR:   0.000 FEB: -11.997
USER: RMSD 1.832251
USER: SEED 882060
USER: STATUS no improvement in best in 2 clusters for 5 generations
USER: GENES 20
USER: genes 0 Translation |==|  0.56095 0.58238 0.49083
USER: genes 1 Rotation |==|  0.46558 0.51641 0.49368 0.99850
USER: genes 2 Torsion [C]-CA--N-[C] |==|  0.65969
USER: genes 3 Torsion [N]-C--CA-[N] |==|  0.36054
USER: genes 4 Torsion [C]-CA--N-[H2] |==|  0.38058
USER: genes 5 Torsion [C]-CA--CB-[CG] |==|  0.41674
USER: genes 6 Torsion [CA]-CB--CG-[CD2] |==|  0.22424
USER: genes 7 Torsion [N]-CA--C-[N] |==|  0.41572
USER: genes 8 Torsion [C]-N--CA-[CB] |==|  0.52808
USER: genes 9 Torsion [N]-CA--CB-[CG] |==|  0.83378
USER: genes 10 Torsion [CA]-CB--CG-[CD] |==|  0.78775
USER: genes 11 Torsion [CB]-CG--CD-[OE2] |==|  0.74810
USER: genes 12 Torsion [N]-CA--C-[N] |==|  0.42424
USER: genes 13 Torsion [C]-N--CA-[CB] |==|  0.48129
USER: genes 14 Torsion [N]-CA--CB-[CG] |==|  0.62755
USER: genes 15 Torsion [CA]-CB--CG-[CD2] |==|  0.98571
USER: genes 16 Torsion [N]-CA--C-[O] |==|  0.55406
USER: genes 17 Torsion [N]-CA--CB-[CG] |==|  0.16723
USER: genes 18 Torsion [CA]-CB--CG-[CD] |==|  0.38225
USER: genes 19 Torsion [CB]-CG--CD-[OE1] |==|  0.47641
ROOT
ATOM      1  CA  GLU C   2     -21.627  20.746  -2.933  1.00 17.05 LIG 0.18  C 
ENDROOT
BRANCH 1 2
ATOM      2  N   GLU C   2     -22.941  21.235  -3.322  1.00 17.18 LIG-0.35  N 
ATOM      3 H    GLU C   2     -23.600  20.767  -3.027  1.00 17.18 LIG 0.16  HD
ATOM      4  C   TRP C   1     -23.076  22.319  -4.073  1.00 16.43 LIG 0.25  C 
ATOM      5 O    TRP C   1     -22.122  22.994  -4.452  1.00 19.21 LIG-0.27  OA
BRANCH 4 6
ATOM      6  CA  TRP C   1     -24.494  22.694  -4.453  1.00 16.09 LIG 0.28  C 
BRANCH 6 7
ATOM      7  N   TRP C   1     -24.794  24.123  -4.169  1.00 14.00 LIG-0.07  N 
ATOM      8 H2   TRP C   1     -25.246  24.473  -4.851  1.00 14.00 LIG 0.28  HD
ATOM      9 H1   TRP C   1     -24.033  24.570  -4.057  1.00 14.00 LIG 0.28  HD
ATOM     10 H3   TRP C   1     -25.283  24.182  -3.428  1.00 14.00 LIG 0.28  HD
ENDBRANCH 6 7
BRANCH 6 11
ATOM     11  CB  TRP C   1     -24.688  22.382  -5.941  1.00 13.46 LIG 0.08  C 
BRANCH 11 12
ATOM     12  CG  TRP C   1     -26.080  22.018  -6.303  1.00 14.84 LIG-0.03  A 
ATOM     13  CD1 TRP C   1     -26.569  20.767  -6.542  1.00 13.19 LIG 0.10  A 
ATOM     14  NE1 TRP C   1     -27.892  20.838  -6.907  1.00 14.33 LIG-0.36  N 
ATOM     15 HE1  TRP C   1     -28.394  20.168  -7.103  1.00 14.33 LIG 0.17  HD
ATOM     16  CE2 TRP C   1     -28.280  22.153  -6.906  1.00 14.48 LIG 0.04  A 
ATOM     17  CZ2 TRP C   1     -29.518  22.730  -7.211  1.00 13.61 LIG 0.03  A 
ATOM     18  CD2 TRP C   1     -27.159  22.926  -6.531  1.00 13.42 LIG-0.00  A 
ATOM     19  CH2 TRP C   1     -29.618  24.097  -7.128  1.00 12.22 LIG 0.00  A 
ATOM     20  CZ3 TRP C   1     -28.520  24.894  -6.754  1.00 14.06 LIG 0.00  A 
ATOM     21  CE3 TRP C   1     -27.290  24.321  -6.452  1.00 13.53 LIG 0.01  A 
ENDBRANCH 11 12
ENDBRANCH 6 11
ENDBRANCH 4 6
ENDBRANCH 1 2
BRANCH 1 22
ATOM     22  C   GLU C   2     -21.454  19.318  -3.403  1.00 17.76 LIG 0.24  C 
ATOM     23 O    GLU C   2     -22.426  18.573  -3.523  1.00 15.11 LIG-0.27  OA
ATOM     24  N   GLU C   3     -20.213  18.950  -3.697  1.00 16.84 LIG-0.35  N 
ATOM     25 H    GLU C   3     -19.534  19.475  -3.645  1.00 16.84 LIG 0.16  HD
BRANCH 24 26
ATOM     26  CA  GLU C   3     -19.894  17.604  -4.141  1.00 19.32 LIG 0.18  C 
BRANCH 26 27
ATOM     27  CB  GLU C   3     -18.374  17.425  -4.154  1.00 21.63 LIG 0.04  C 
BRANCH 27 28
ATOM     28  CG  GLU C   3     -17.600  18.369  -5.058  1.00 28.11 LIG 0.12  C 
BRANCH 28 29
ATOM     29  CD  GLU C   3     -17.692  17.994  -6.524  1.00 31.25 LIG 0.17  C 
ATOM     30 OE2  GLU C   3     -16.826  17.225  -6.996  1.00 33.54 LIG-0.65  OA
ATOM     31 OE1  GLU C   3     -18.618  18.479  -7.210  1.00 33.71 LIG-0.65  OA
ENDBRANCH 28 29
ENDBRANCH 27 28
ENDBRANCH 26 27
BRANCH 26 32
ATOM     32  C   GLU C   3     -20.534  16.639  -3.145  1.00 20.73 LIG 0.24  C 
ATOM     33  N   LEU C   4     -20.863  15.432  -3.599  1.00 21.37 LIG-0.34  N 
ATOM     34 H    LEU C   4     -20.738  15.169  -4.408  1.00 21.37 LIG 0.16  HD
ATOM     35 O    GLU C   3     -20.742  16.991  -1.984  1.00 19.68 LIG-0.27  OA
BRANCH 33 36
ATOM     36  CA  LEU C   4     -21.475  14.440  -2.724  1.00 23.29 LIG 0.18  C 
BRANCH 36 37
ATOM     37  CB  LEU C   4     -21.906  13.204  -3.516  1.00 22.30 LIG 0.04  C 
BRANCH 37 38
ATOM     38  CG  LEU C   4     -23.317  12.713  -3.176  1.00 23.00 LIG-0.02  C 
ATOM     39  CD2 LEU C   4     -23.883  13.527  -2.026  1.00 24.82 LIG 0.01  C 
ATOM     40  CD1 LEU C   4     -23.269  11.238  -2.808  1.00 24.76 LIG 0.01  C 
ENDBRANCH 37 38
ENDBRANCH 36 37
BRANCH 36 41
ATOM     41  C   LEU C   4     -20.493  14.013  -1.642  1.00 23.96 LIG 0.20  C 
ATOM     42 O    LEU C   4     -20.703  12.933  -1.049  1.00 25.84 LIG-0.65  OA
ATOM     43 OXT  LEU C   4     -19.517  14.761  -1.418  1.00 25.23 LIG-0.65  OA
ENDBRANCH 36 41
ENDBRANCH 33 36
ENDBRANCH 26 32
ENDBRANCH 24 26
ENDBRANCH 1 22
BRANCH 1 44
ATOM     44  CB  GLU C   2     -21.425  20.819  -1.416  1.00 20.11 LIG 0.04  C 
BRANCH 44 45
ATOM     45  CG  GLU C   2     -22.404  20.013  -0.589  1.00 24.89 LIG 0.12  C 
BRANCH 45 46
ATOM     46  CD  GLU C   2     -21.719  19.277   0.553  1.00 27.65 LIG 0.17  C 
ATOM     47 OE1  GLU C   2     -22.420  18.702   1.415  1.00 28.60 LIG-0.65  OA
ATOM     48 OE2  GLU C   2     -20.471  19.264   0.581  1.00 30.33 LIG-0.65  OA
ENDBRANCH 45 46
ENDBRANCH 44 45
ENDBRANCH 1 44
TORSDOF 18
ENDMDL
MODEL 2
USER: ADFR SOLUTION from run 82
USER: SCORE 18.241223 LL:  -3.042 LR: -17.062 RR:   0.000 FEB: -11.693
USER: RMSD 8.858707
USER: SEED 81
USER: STATUS no improvement in best in 4 clusters for 5 generations
USER: GENES 20
USER: genes 0 Translation |==|  0.46160 0.59849 0.60700
USER: genes 1 Rotation |==|  0.23843 0.61970 0.10228 0.59527
USER: genes 2 Torsion [C]-CA--N-[C] |==|  0.17775
USER: genes 3 Torsion [N]-C--CA-[N] |==|  0.70791
USER: genes 4 Torsion [C]-CA--N-[H2] |==|  0.22084
USER: genes 5 Torsion [C]-CA--CB-[CG] |==|  0.28879
USER: genes 6 Torsion [CA]-CB--CG-[CD2] |==|  0.47666
USER: genes 7 Torsion [N]-CA--C-[N] |==|  0.17721
USER: genes 8 Torsion [C]-N--CA-[CB] |==|  0.26065
USER: genes 9 Torsion [N]-CA--CB-[CG] |==|  0.63251
USER: genes 10 Torsion [CA]-CB--CG-[CD] |==|  0.01441
USER: genes 11 Torsion [CB]-CG--CD-[OE2] |==|  0.24206
USER: genes 12 Torsion [N]-CA--C-[N] |==|  0.53884
USER: genes 13 Torsion [C]-N--CA-[CB] |==|  0.31001
USER: genes 14 Torsion [N]-CA--CB-[CG] |==|  0.83126
USER: genes 15 Torsion [CA]-CB--CG-[CD2] |==|  0.68955
USER: genes 16 Torsion [N]-CA--C-[O] |==|  0.46246
USER: genes 17 Torsion [N]-CA--CB-[CG] |==|  0.49046
USER: genes 18 Torsion [CA]-CB--CG-[CD] |==|  0.35723
USER: genes 19 Torsion [CB]-CG--CD-[OE1] |==|  0.05075
ROOT
ATOM      1  CA  GLU C   2     -23.565  21.108  -0.842  1.00 17.05 LIG 0.18  C 
ENDROOT
BRANCH 1 2
ATOM      2  N   GLU C   2     -23.419  21.486  -2.239  1.00 17.18 LIG-0.35  N 
ATOM      3 H    GLU C   2     -23.816  20.964  -2.795  1.00 17.18 LIG 0.16  HD
ATOM      4  C   TRP C   1     -22.721  22.557  -2.592  1.00 16.43 LIG 0.25  C 
ATOM      5 O    TRP C   1     -22.192  23.309  -1.779  1.00 19.21 LIG-0.27  OA
BRANCH 4 6
ATOM      6  CA  TRP C   1     -22.600  22.811  -4.081  1.00 16.09 LIG 0.28  C 
BRANCH 6 7
ATOM      7  N   TRP C   1     -21.250  22.466  -4.602  1.00 14.00 LIG-0.07  N 
ATOM      8 H2   TRP C   1     -21.193  21.585  -4.718  1.00 14.00 LIG 0.28  HD
ATOM      9 H1   TRP C   1     -20.631  22.729  -4.020  1.00 14.00 LIG 0.28  HD
ATOM     10 H3   TRP C   1     -21.119  22.877  -5.381  1.00 14.00 LIG 0.28  HD
ENDBRANCH 6 7
BRANCH 6 11
ATOM     11  CB  TRP C   1     -23.684  21.996  -4.795  1.00 13.46 LIG 0.08  C 
BRANCH 11 12
ATOM     12  CG  TRP C   1     -24.838  22.805  -5.258  1.00 14.84 LIG-0.03  A 
ATOM     13  CD1 TRP C   1     -25.123  24.098  -4.929  1.00 13.19 LIG 0.10  A 
ATOM     14  NE1 TRP C   1     -26.308  24.484  -5.508  1.00 14.33 LIG-0.36  N 
ATOM     15 HE1  TRP C   1     -26.674  25.258  -5.430  1.00 14.33 LIG 0.17  HD
ATOM     16  CE2 TRP C   1     -26.810  23.431  -6.228  1.00 14.48 LIG 0.04  A 
ATOM     17  CZ2 TRP C   1     -27.984  23.331  -6.983  1.00 13.61 LIG 0.03  A 
ATOM     18  CD2 TRP C   1     -25.907  22.354  -6.091  1.00 13.42 LIG-0.00  A 
ATOM     19  CH2 TRP C   1     -28.238  22.133  -7.606  1.00 12.22 LIG 0.00  A 
ATOM     20  CZ3 TRP C   1     -27.356  21.043  -7.490  1.00 14.06 LIG 0.00  A 
ATOM     21  CE3 TRP C   1     -26.190  21.142  -6.739  1.00 13.53 LIG 0.01  A 
ENDBRANCH 11 12
ENDBRANCH 6 11
ENDBRANCH 4 6
ENDBRANCH 1 2
BRANCH 1 22
ATOM     22  C   GLU C   2     -24.327  22.183  -0.099  1.00 17.76 LIG 0.24  C 
ATOM     23 O    GLU C   2     -23.786  22.838   0.791  1.00 15.11 LIG-0.27  OA
ATOM     24  N   GLU C   3     -25.581  22.381  -0.489  1.00 16.84 LIG-0.35  N 
ATOM     25 H    GLU C   3     -25.956  21.947  -1.131  1.00 16.84 LIG 0.16  HD
BRANCH 24 26
ATOM     26  CA  GLU C   3     -26.439  23.366   0.147  1.00 19.32 LIG 0.18  C 
BRANCH 26 27
ATOM     27  CB  GLU C   3     -26.359  24.681  -0.630  1.00 21.63 LIG 0.04  C 
BRANCH 27 28
ATOM     28  CG  GLU C   3     -26.144  25.935   0.201  1.00 28.11 LIG 0.12  C 
BRANCH 28 29
ATOM     29  CD  GLU C   3     -25.921  25.639   1.671  1.00 31.25 LIG 0.17  C 
ATOM     30 OE2  GLU C   3     -24.756  25.402   2.060  1.00 33.54 LIG-0.65  OA
ATOM     31 OE1  GLU C   3     -26.909  25.625   2.436  1.00 33.71 LIG-0.65  OA
ENDBRANCH 28 29
ENDBRANCH 27 28
ENDBRANCH 26 27
BRANCH 26 32
ATOM     32  C   GLU C   3     -27.862  22.812   0.110  1.00 20.73 LIG 0.24  C 
ATOM     33  N   LEU C   4     -28.849  23.664   0.378  1.00 21.37 LIG-0.34  N 
ATOM     34 H    LEU C   4     -28.733  24.494   0.569  1.00 21.37 LIG 0.16  HD
ATOM     35 O    GLU C   3     -28.061  21.623  -0.143  1.00 19.68 LIG-0.27  OA
BRANCH 33 36
ATOM     36  CA  LEU C   4     -30.241  23.231   0.363  1.00 23.29 LIG 0.18  C 
BRANCH 36 37
ATOM     37  CB  LEU C   4     -30.832  23.247   1.774  1.00 22.30 LIG 0.04  C 
BRANCH 37 38
ATOM     38  CG  LEU C   4     -30.113  22.316   2.756  1.00 23.00 LIG-0.02  C 
ATOM     39  CD2 LEU C   4     -31.026  21.164   3.137  1.00 24.82 LIG 0.01  C 
ATOM     40  CD1 LEU C   4     -29.703  23.098   3.994  1.00 24.76 LIG 0.01  C 
ENDBRANCH 37 38
ENDBRANCH 36 37
BRANCH 36 41
ATOM     41  C   LEU C   4     -31.069  24.147  -0.527  1.00 23.96 LIG 0.20  C 
ATOM     42 O    LEU C   4     -32.215  23.773  -0.854  1.00 25.84 LIG-0.65  OA
ATOM     43 OXT  LEU C   4     -30.559  25.237  -0.870  1.00 25.23 LIG-0.65  OA
ENDBRANCH 36 41
ENDBRANCH 33 36
ENDBRANCH 26 32
ENDBRANCH 24 26
ENDBRANCH 1 22
BRANCH 1 44
ATOM     44  CB  GLU C   2     -22.204  20.883  -0.174  1.00 20.11 LIG 0.04  C 
BRANCH 44 45
ATOM     45  CG  GLU C   2     -22.250  20.564   1.306  1.00 24.89 LIG 0.12  C 
BRANCH 45 46
ATOM     46  CD  GLU C   2     -21.453  19.314   1.647  1.00 27.65 LIG 0.17  C 
ATOM     47 OE1  GLU C   2     -20.600  18.894   0.833  1.00 28.60 LIG-0.65  OA
ATOM     48 OE2  GLU C   2     -21.673  18.755   2.741  1.00 30.33 LIG-0.65  OA
ENDBRANCH 45 46
ENDBRANCH 44 45
ENDBRANCH 1 44
TORSDOF 18
ENDMDL
MODEL 3
USER: ADFR SOLUTION from run 102
USER: SCORE 19.414770 LL:  -2.739 LR: -16.755 RR:   0.000 FEB: -11.386
USER: RMSD 4.318258
USER: SEED 101
USER: STATUS 1 or 2 clusters left
USER: GENES 20
USER: genes 0 Translation |==|  0.53131 0.57200 0.55492
USER: genes 1 Rotation |==|  0.57257 0.35553 0.45582 0.97107
USER: genes 2 Torsion [C]-CA--N-[C] |==|  0.81140
USER: genes 3 Torsion [N]-C--CA-[N] |==|  0.47649
USER: genes 4 Torsion [C]-CA--N-[H2] |==|  0.41704
USER: genes 5 Torsion [C]-CA--CB-[CG] |==|  0.45329
USER: genes 6 Torsion [CA]-CB--CG-[CD2] |==|  0.51181
USER: genes 7 Torsion [N]-CA--C-[N] |==|  0.40693
USER: genes 8 Torsion [C]-N--CA-[CB] |==|  0.85556
USER: genes 9 Torsion [N]-CA--CB-[CG] |==|  0.57821
USER: genes 10 Torsion [CA]-CB--CG-[CD] |==|  0.25293
USER: genes 11 Torsion [CB]-CG--CD-[OE2] |==|  0.31047
USER: genes 12 Torsion [N]-CA--C-[N] |==|  0.39391
USER: genes 13 Torsion [C]-N--CA-[CB] |==|  0.22211
USER: genes 14 Torsion [N]-CA--CB-[CG] |==|  0.71955
USER: genes 15 Torsion [CA]-CB--CG-[CD2] |==|  0.65610
USER: genes 16 Torsion [N]-CA--C-[O] |==|  0.16633
USER: genes 17 Torsion [N]-CA--CB-[CG] |==|  0.68077
USER: genes 18 Torsion [CA]-CB--CG-[CD] |==|  0.70582
USER: genes 19 Torsion [CB]-CG--CD-[OE1] |==|  0.19387
ROOT
ATOM      1  CA  GLU C   2     -22.205  20.512  -1.779  1.00 17.05 LIG 0.18  C 
ENDROOT
BRANCH 1 2
ATOM      2  N   GLU C   2     -22.994  21.409  -2.609  1.00 17.18 LIG-0.35  N 
ATOM      3 H    GLU C   2     -23.828  21.450  -2.401  1.00 17.18 LIG 0.16  HD
ATOM      4  C   TRP C   1     -22.440  22.094  -3.600  1.00 16.43 LIG 0.25  C 
ATOM      5 O    TRP C   1     -21.241  22.049  -3.856  1.00 19.21 LIG-0.27  OA
BRANCH 4 6
ATOM      6  CA  TRP C   1     -23.381  22.953  -4.423  1.00 16.09 LIG 0.28  C 
BRANCH 6 7
ATOM      7  N   TRP C   1     -22.650  23.833  -5.374  1.00 14.00 LIG-0.07  N 
ATOM      8 H2   TRP C   1     -23.156  23.979  -6.091  1.00 14.00 LIG 0.28  HD
ATOM      9 H1   TRP C   1     -21.892  23.439  -5.621  1.00 14.00 LIG 0.28  HD
ATOM     10 H3   TRP C   1     -22.466  24.609  -4.978  1.00 14.00 LIG 0.28  HD
ENDBRANCH 6 7
BRANCH 6 11
ATOM     11  CB  TRP C   1     -24.344  22.024  -5.170  1.00 13.46 LIG 0.08  C 
BRANCH 11 12
ATOM     12  CG  TRP C   1     -25.551  22.708  -5.695  1.00 14.84 LIG-0.03  A 
ATOM     13  CD1 TRP C   1     -25.858  24.033  -5.595  1.00 13.19 LIG 0.10  A 
ATOM     14  NE1 TRP C   1     -27.090  24.278  -6.153  1.00 14.33 LIG-0.36  N 
ATOM     15 HE1  TRP C   1     -27.476  25.045  -6.196  1.00 14.33 LIG 0.17  HD
ATOM     16  CE2 TRP C   1     -27.601  23.098  -6.627  1.00 14.48 LIG 0.04  A 
ATOM     17  CZ2 TRP C   1     -28.817  22.833  -7.268  1.00 13.61 LIG 0.03  A 
ATOM     18  CD2 TRP C   1     -26.656  22.085  -6.354  1.00 13.42 LIG-0.00  A 
ATOM     19  CH2 TRP C   1     -29.070  21.534  -7.636  1.00 12.22 LIG 0.00  A 
ATOM     20  CZ3 TRP C   1     -28.147  20.504  -7.380  1.00 14.06 LIG 0.00  A 
ATOM     21  CE3 TRP C   1     -26.939  20.767  -6.743  1.00 13.53 LIG 0.01  A 
ENDBRANCH 11 12
ENDBRANCH 6 11
ENDBRANCH 4 6
ENDBRANCH 1 2
BRANCH 1 22
ATOM     22  C   GLU C   2     -21.747  19.327  -2.601  1.00 17.76 LIG 0.24  C 
ATOM     23 O    GLU C   2     -22.441  18.891  -3.518  1.00 15.11 LIG-0.27  OA
ATOM     24  N   GLU C   3     -20.558  18.828  -2.286  1.00 16.84 LIG-0.35  N 
ATOM     25 H    GLU C   3     -20.055  19.147  -1.666  1.00 16.84 LIG 0.16  HD
BRANCH 24 26
ATOM     26  CA  GLU C   3     -19.999  17.677  -2.976  1.00 19.32 LIG 0.18  C 
BRANCH 26 27
ATOM     27  CB  GLU C   3     -21.023  16.540  -2.971  1.00 21.63 LIG 0.04  C 
BRANCH 27 28
ATOM     28  CG  GLU C   3     -20.456  15.132  -3.019  1.00 28.11 LIG 0.12  C 
BRANCH 28 29
ATOM     29  CD  GLU C   3     -20.217  14.542  -1.643  1.00 31.25 LIG 0.17  C 
ATOM     30 OE2  GLU C   3     -20.933  13.586  -1.274  1.00 33.54 LIG-0.65  OA
ATOM     31 OE1  GLU C   3     -19.328  15.044  -0.922  1.00 33.71 LIG-0.65  OA
ENDBRANCH 28 29
ENDBRANCH 27 28
ENDBRANCH 26 27
BRANCH 26 32
ATOM     32  C   GLU C   3     -19.698  18.115  -4.408  1.00 20.73 LIG 0.24  C 
ATOM     33  N   LEU C   4     -18.586  17.639  -4.964  1.00 21.37 LIG-0.34  N 
ATOM     34 H    LEU C   4     -18.036  17.110  -4.569  1.00 21.37 LIG 0.16  HD
ATOM     35 O    GLU C   3     -20.456  18.888  -4.995  1.00 19.68 LIG-0.27  OA
BRANCH 33 36
ATOM     36  CA  LEU C   4     -18.215  17.997  -6.327  1.00 23.29 LIG 0.18  C 
BRANCH 36 37
ATOM     37  CB  LEU C   4     -17.562  19.380  -6.370  1.00 22.30 LIG 0.04  C 
BRANCH 37 38
ATOM     38  CG  LEU C   4     -18.505  20.494  -6.837  1.00 23.00 LIG-0.02  C 
ATOM     39  CD2 LEU C   4     -17.906  21.209  -8.036  1.00 24.82 LIG 0.01  C 
ATOM     40  CD1 LEU C   4     -18.740  21.476  -5.699  1.00 24.76 LIG 0.01  C 
ENDBRANCH 37 38
ENDBRANCH 36 37
BRANCH 36 41
ATOM     41  C   LEU C   4     -17.238  16.976  -6.893  1.00 23.96 LIG 0.20  C 
ATOM     42 O    LEU C   4     -17.610  15.785  -6.971  1.00 25.84 LIG-0.65  OA
ATOM     43 OXT  LEU C   4     -16.119  17.389  -7.267  1.00 25.23 LIG-0.65  OA
ENDBRANCH 36 41
ENDBRANCH 33 36
ENDBRANCH 26 32
ENDBRANCH 24 26
ENDBRANCH 1 22
BRANCH 1 44
ATOM     44  CB  GLU C   2     -23.001  20.022  -0.565  1.00 20.11 LIG 0.04  C 
BRANCH 44 45
ATOM     45  CG  GLU C   2     -22.476  20.472   0.782  1.00 24.89 LIG 0.12  C 
BRANCH 45 46
ATOM     46  CD  GLU C   2     -21.782  19.345   1.532  1.00 27.65 LIG 0.17  C 
ATOM     47 OE1  GLU C   2     -20.683  18.918   1.111  1.00 28.60 LIG-0.65  OA
ATOM     48 OE2  GLU C   2     -22.333  18.892   2.556  1.00 30.33 LIG-0.65  OA
ENDBRANCH 45 46
ENDBRANCH 44 45
ENDBRANCH 1 44
TORSDOF 18
ENDMDL
MODEL 4
USER: ADFR SOLUTION from run 141
USER: SCORE 18.985031 LL:  -2.830 LR: -16.696 RR:   0.000 FEB: -11.327
USER: RMSD 1.799549
USER: SEED 140
USER: STATUS no improvement in best in 5 clusters for 5 generations
USER: GENES 20
USER: genes 0 Translation |==|  0.56320 0.60237 0.50168
USER: genes 1 Rotation |==|  0.49647 0.43851 0.44985 0.99365
USER: genes 2 Torsion [C]-CA--N-[C] |==|  0.70350
USER: genes 3 Torsion [N]-C--CA-[N] |==|  0.53578
USER: genes 4 Torsion [C]-CA--N-[H2] |==|  0.83008
USER: genes 5 Torsion [C]-CA--CB-[CG] |==|  0.46393
USER: genes 6 Torsion [CA]-CB--CG-[CD2] |==|  0.48597
USER: genes 7 Torsion [N]-CA--C-[N] |==|  0.36466
USER: genes 8 Torsion [C]-N--CA-[CB] |==|  0.51904
USER: genes 9 Torsion [N]-CA--CB-[CG] |==|  0.55682
USER: genes 10 Torsion [CA]-CB--CG-[CD] |==|  0.26428
USER: genes 11 Torsion [CB]-CG--CD-[OE2] |==|  0.93996
USER: genes 12 Torsion [N]-CA--C-[N] |==|  0.43889
USER: genes 13 Torsion [C]-N--CA-[CB] |==|  0.47911
USER: genes 14 Torsion [N]-CA--CB-[CG] |==|  0.61198
USER: genes 15 Torsion [CA]-CB--CG-[CD2] |==|  0.98097
USER: genes 16 Torsion [N]-CA--C-[O] |==|  0.05435
USER: genes 17 Torsion [N]-CA--CB-[CG] |==|  0.10340
USER: genes 18 Torsion [CA]-CB--CG-[CD] |==|  0.74465
USER: genes 19 Torsion [CB]-CG--CD-[OE1] |==|  0.24180
ROOT
ATOM      1  CA  GLU C   2     -21.584  21.195  -2.738  1.00 17.05 LIG 0.18  C 
ENDROOT
BRANCH 1 2
ATOM      2  N   GLU C   2     -22.618  21.935  -3.444  1.00 17.18 LIG-0.35  N 
ATOM      3 H    GLU C   2     -23.422  21.690  -3.261  1.00 17.18 LIG 0.16  HD
ATOM      4  C   TRP C   1     -22.310  22.905  -4.294  1.00 16.43 LIG 0.25  C 
ATOM      5 O    TRP C   1     -21.157  23.263  -4.512  1.00 19.21 LIG-0.27  OA
BRANCH 4 6
ATOM      6  CA  TRP C   1     -23.477  23.562  -5.004  1.00 16.09 LIG 0.28  C 
BRANCH 6 7
ATOM      7  N   TRP C   1     -23.036  24.408  -6.145  1.00 14.00 LIG-0.07  N 
ATOM      8 H2   TRP C   1     -22.510  25.061  -5.845  1.00 14.00 LIG 0.28  HD
ATOM      9 H1   TRP C   1     -23.747  24.762  -6.546  1.00 14.00 LIG 0.28  HD
ATOM     10 H3   TRP C   1     -22.585  23.909  -6.728  1.00 14.00 LIG 0.28  HD
ENDBRANCH 6 7
BRANCH 6 11
ATOM     11  CB  TRP C   1     -24.429  22.459  -5.481  1.00 13.46 LIG 0.08  C 
BRANCH 11 12
ATOM     12  CG  TRP C   1     -25.755  22.958  -5.921  1.00 14.84 LIG-0.03  A 
ATOM     13  CD1 TRP C   1     -26.241  24.227  -5.796  1.00 13.19 LIG 0.10  A 
ATOM     14  NE1 TRP C   1     -27.531  24.288  -6.268  1.00 14.33 LIG-0.36  N 
ATOM     15 HE1  TRP C   1     -28.025  24.991  -6.283  1.00 14.33 LIG 0.17  HD
ATOM     16  CE2 TRP C   1     -27.897  23.043  -6.710  1.00 14.48 LIG 0.04  A 
ATOM     17  CZ2 TRP C   1     -29.103  22.602  -7.268  1.00 13.61 LIG 0.03  A 
ATOM     18  CD2 TRP C   1     -26.800  22.179  -6.505  1.00 13.42 LIG-0.00  A 
ATOM     19  CH2 TRP C   1     -29.191  21.277  -7.622  1.00 12.22 LIG 0.00  A 
ATOM     20  CZ3 TRP C   1     -28.113  20.392  -7.432  1.00 14.06 LIG 0.00  A 
ATOM     21  CE3 TRP C   1     -26.916  20.831  -6.878  1.00 13.53 LIG 0.01  A 
ENDBRANCH 11 12
ENDBRANCH 6 11
ENDBRANCH 4 6
ENDBRANCH 1 2
BRANCH 1 22
ATOM     22  C   GLU C   2     -21.463  19.804  -3.321  1.00 17.76 LIG 0.24  C 
ATOM     23 O    GLU C   2     -22.464  19.119  -3.525  1.00 15.11 LIG-0.27  OA
ATOM     24  N   GLU C   3     -20.232  19.403  -3.614  1.00 16.84 LIG-0.35  N 
ATOM     25 H    GLU C   3     -19.531  19.888  -3.502  1.00 16.84 LIG 0.16  HD
BRANCH 24 26
ATOM     26  CA  GLU C   3     -19.963  18.083  -4.161  1.00 19.32 LIG 0.18  C 
BRANCH 26 27
ATOM     27  CB  GLU C   3     -18.450  17.865  -4.227  1.00 21.63 LIG 0.04  C 
BRANCH 27 28
ATOM     28  CG  GLU C   3     -17.974  16.787  -5.186  1.00 28.11 LIG 0.12  C 
BRANCH 28 29
ATOM     29  CD  GLU C   3     -17.578  17.335  -6.543  1.00 31.25 LIG 0.17  C 
ATOM     30 OE2  GLU C   3     -18.038  18.444  -6.893  1.00 33.54 LIG-0.65  OA
ATOM     31 OE1  GLU C   3     -16.823  16.652  -7.268  1.00 33.71 LIG-0.65  OA
ENDBRANCH 28 29
ENDBRANCH 27 28
ENDBRANCH 26 27
BRANCH 26 32
ATOM     32  C   GLU C   3     -20.606  17.067  -3.218  1.00 20.73 LIG 0.24  C 
ATOM     33  N   LEU C   4     -20.881  15.866  -3.721  1.00 21.37 LIG-0.34  N 
ATOM     34 H    LEU C   4     -20.722  15.634  -4.534  1.00 21.37 LIG 0.16  HD
ATOM     35 O    GLU C   3     -20.863  17.375  -2.054  1.00 19.68 LIG-0.27  OA
BRANCH 33 36
ATOM     36  CA  LEU C   4     -21.491  14.828  -2.900  1.00 23.29 LIG 0.18  C 
BRANCH 36 37
ATOM     37  CB  LEU C   4     -21.874  13.615  -3.749  1.00 22.30 LIG 0.04  C 
BRANCH 37 38
ATOM     38  CG  LEU C   4     -23.223  12.997  -3.369  1.00 23.00 LIG-0.02  C 
ATOM     39  CD2 LEU C   4     -23.763  13.663  -2.115  1.00 24.82 LIG 0.01  C 
ATOM     40  CD1 LEU C   4     -23.056  11.502  -3.143  1.00 24.76 LIG 0.01  C 
ENDBRANCH 37 38
ENDBRANCH 36 37
BRANCH 36 41
ATOM     41  C   LEU C   4     -20.525  14.382  -1.811  1.00 23.96 LIG 0.20  C 
ATOM     42 O    LEU C   4     -19.580  15.142  -1.513  1.00 25.84 LIG-0.65  OA
ATOM     43 OXT  LEU C   4     -20.743  13.280  -1.261  1.00 25.23 LIG-0.65  OA
ENDBRANCH 36 41
ENDBRANCH 33 36
ENDBRANCH 26 32
ENDBRANCH 24 26
ENDBRANCH 1 22
BRANCH 1 44
ATOM     44  CB  GLU C   2     -21.880  21.104  -1.237  1.00 20.11 LIG 0.04  C 
BRANCH 44 45
ATOM     45  CG  GLU C   2     -23.339  20.932  -0.871  1.00 24.89 LIG 0.12  C 
BRANCH 45 46
ATOM     46  CD  GLU C   2     -24.030  22.266  -0.631  1.00 27.65 LIG 0.17  C 
ATOM     47 OE1  GLU C   2     -24.529  22.877  -1.602  1.00 28.60 LIG-0.65  OA
ATOM     48 OE2  GLU C   2     -24.084  22.699   0.538  1.00 30.33 LIG-0.65  OA
ENDBRANCH 45 46
ENDBRANCH 44 45
ENDBRANCH 1 44
TORSDOF 18
ENDMDL
MODEL 5
USER: ADFR SOLUTION from run 185
USER: SCORE 19.236887 LL:  -3.831 LR: -16.393 RR:   0.000 FEB: -11.023
USER: RMSD 9.063419
USER: SEED 184
USER: STATUS no improvement in best in 4 clusters for 5 generations
USER: GENES 20
USER: genes 0 Translation |==|  0.45273 0.64935 0.53149
USER: genes 1 Rotation |==|  0.29211 0.69663 0.10463 0.60863
USER: genes 2 Torsion [C]-CA--N-[C] |==|  0.80556
USER: genes 3 Torsion [N]-C--CA-[N] |==|  0.03041
USER: genes 4 Torsion [C]-CA--N-[H2] |==|  0.82462
USER: genes 5 Torsion [C]-CA--CB-[CG] |==|  0.17768
USER: genes 6 Torsion [CA]-CB--CG-[CD2] |==|  0.65404
USER: genes 7 Torsion [N]-CA--C-[N] |==|  0.31807
USER: genes 8 Torsion [C]-N--CA-[CB] |==|  0.17921
USER: genes 9 Torsion [N]-CA--CB-[CG] |==|  0.66473
USER: genes 10 Torsion [CA]-CB--CG-[CD] |==|  0.95822
USER: genes 11 Torsion [CB]-CG--CD-[OE2] |==|  0.78344
USER: genes 12 Torsion [N]-CA--C-[N] |==|  0.58675
USER: genes 13 Torsion [C]-N--CA-[CB] |==|  0.29337
USER: genes 14 Torsion [N]-CA--CB-[CG] |==|  0.80560
USER: genes 15 Torsion [CA]-CB--CG-[CD2] |==|  0.69554
USER: genes 16 Torsion [N]-CA--C-[O] |==|  0.95887
USER: genes 17 Torsion [N]-CA--CB-[CG] |==|  0.93849
USER: genes 18 Torsion [CA]-CB--CG-[CD] |==|  0.86070
USER: genes 19 Torsion [CB]-CG--CD-[OE1] |==|  0.79823
ROOT
ATOM      1  CA  GLU C   2     -23.738  22.252  -2.201  1.00 17.05 LIG 0.18  C 
ENDROOT
BRANCH 1 2
ATOM      2  N   GLU C   2     -23.338  22.999  -3.384  1.00 17.18 LIG-0.35  N 
ATOM      3 H    GLU C   2     -22.489  23.114  -3.465  1.00 17.18 LIG 0.16  HD
ATOM      4  C   TRP C   1     -24.236  23.451  -4.247  1.00 16.43 LIG 0.25  C 
ATOM      5 O    TRP C   1     -25.441  23.243  -4.131  1.00 19.21 LIG-0.27  OA
BRANCH 4 6
ATOM      6  CA  TRP C   1     -23.695  24.260  -5.410  1.00 16.09 LIG 0.28  C 
BRANCH 6 7
ATOM      7  N   TRP C   1     -22.213  24.179  -5.507  1.00 14.00 LIG-0.07  N 
ATOM      8 H2   TRP C   1     -21.847  24.535  -4.778  1.00 14.00 LIG 0.28  HD
ATOM      9 H1   TRP C   1     -21.937  24.627  -6.225  1.00 14.00 LIG 0.28  HD
ATOM     10 H3   TRP C   1     -21.965  23.327  -5.577  1.00 14.00 LIG 0.28  HD
ENDBRANCH 6 7
BRANCH 6 11
ATOM     11  CB  TRP C   1     -24.354  23.749  -6.695  1.00 13.46 LIG 0.08  C 
BRANCH 11 12
ATOM     12  CG  TRP C   1     -25.822  23.957  -6.742  1.00 14.84 LIG-0.03  A 
ATOM     13  CD1 TRP C   1     -26.496  25.124  -6.533  1.00 13.19 LIG 0.10  A 
ATOM     14  NE1 TRP C   1     -27.851  24.907  -6.602  1.00 14.33 LIG-0.36  N 
ATOM     15 HE1  TRP C   1     -28.460  25.505  -6.500  1.00 14.33 LIG 0.17  HD
ATOM     16  CE2 TRP C   1     -28.072  23.578  -6.861  1.00 14.48 LIG 0.04  A 
ATOM     17  CZ2 TRP C   1     -29.273  22.876  -7.014  1.00 13.61 LIG 0.03  A 
ATOM     18  CD2 TRP C   1     -26.812  22.949  -6.954  1.00 13.42 LIG-0.00  A 
ATOM     19  CH2 TRP C   1     -29.191  21.528  -7.268  1.00 12.22 LIG 0.00  A 
ATOM     20  CZ3 TRP C   1     -27.950  20.873  -7.369  1.00 14.06 LIG 0.00  A 
ATOM     21  CE3 TRP C   1     -26.757  21.571  -7.216  1.00 13.53 LIG 0.01  A 
ENDBRANCH 11 12
ENDBRANCH 6 11
ENDBRANCH 4 6
ENDBRANCH 1 2
BRANCH 1 22
ATOM     22  C   GLU C   2     -24.434  23.176  -1.226  1.00 17.76 LIG 0.24  C 
ATOM     23 O    GLU C   2     -23.830  24.112  -0.704  1.00 15.11 LIG-0.27  OA
ATOM     24  N   GLU C   3     -25.719  22.925  -1.005  1.00 16.84 LIG-0.35  N 
ATOM     25 H    GLU C   3     -26.155  22.291  -1.389  1.00 16.84 LIG 0.16  HD
BRANCH 24 26
ATOM     26  CA  GLU C   3     -26.509  23.716  -0.077  1.00 19.32 LIG 0.18  C 
BRANCH 26 27
ATOM     27  CB  GLU C   3     -26.611  25.151  -0.599  1.00 21.63 LIG 0.04  C 
BRANCH 27 28
ATOM     28  CG  GLU C   3     -26.065  26.233   0.317  1.00 28.11 LIG 0.12  C 
BRANCH 28 29
ATOM     29  CD  GLU C   3     -25.843  25.750   1.737  1.00 31.25 LIG 0.17  C 
ATOM     30 OE2  GLU C   3     -26.836  25.642   2.490  1.00 33.54 LIG-0.65  OA
ATOM     31 OE1  GLU C   3     -24.677  25.495   2.108  1.00 33.71 LIG-0.65  OA
ENDBRANCH 28 29
ENDBRANCH 27 28
ENDBRANCH 26 27
BRANCH 26 32
ATOM     32  C   GLU C   3     -27.895  23.076  -0.009  1.00 20.73 LIG 0.24  C 
ATOM     33  N   LEU C   4     -28.925  23.888   0.218  1.00 21.37 LIG-0.34  N 
ATOM     34 H    LEU C   4     -28.856  24.738   0.327  1.00 21.37 LIG 0.16  HD
ATOM     35 O    GLU C   3     -28.025  21.859  -0.143  1.00 19.68 LIG-0.27  OA
BRANCH 33 36
ATOM     36  CA  LEU C   4     -30.286  23.373   0.297  1.00 23.29 LIG 0.18  C 
BRANCH 36 37
ATOM     37  CB  LEU C   4     -30.777  23.348   1.745  1.00 22.30 LIG 0.04  C 
BRANCH 37 38
ATOM     38  CG  LEU C   4     -30.084  22.295   2.615  1.00 23.00 LIG-0.02  C 
ATOM     39  CD2 LEU C   4     -31.057  21.178   2.949  1.00 24.82 LIG 0.01  C 
ATOM     40  CD1 LEU C   4     -29.567  22.944   3.890  1.00 24.76 LIG 0.01  C 
ENDBRANCH 37 38
ENDBRANCH 36 37
BRANCH 36 41
ATOM     41  C   LEU C   4     -31.227  24.240  -0.527  1.00 23.96 LIG 0.20  C 
ATOM     42 O    LEU C   4     -30.823  25.364  -0.895  1.00 25.84 LIG-0.65  OA
ATOM     43 OXT  LEU C   4     -32.352  23.771  -0.805  1.00 25.23 LIG-0.65  OA
ENDBRANCH 36 41
ENDBRANCH 33 36
ENDBRANCH 26 32
ENDBRANCH 24 26
ENDBRANCH 1 22
BRANCH 1 44
ATOM     44  CB  GLU C   2     -22.536  21.591  -1.519  1.00 20.11 LIG 0.04  C 
BRANCH 44 45
ATOM     45  CG  GLU C   2     -21.326  21.370  -2.402  1.00 24.89 LIG 0.12  C 
BRANCH 45 46
ATOM     46  CD  GLU C   2     -21.689  20.681  -3.709  1.00 27.65 LIG 0.17  C 
ATOM     47 OE1  GLU C   2     -21.991  19.467  -3.694  1.00 28.60 LIG-0.65  OA
ATOM     48 OE2  GLU C   2     -21.685  21.362  -4.755  1.00 30.33 LIG-0.65  OA
ENDBRANCH 45 46
ENDBRANCH 44 45
ENDBRANCH 1 44
TORSDOF 18
ENDMDL
MODEL 6
USER: ADFR SOLUTION from run 167
USER: SCORE 18.492123 LL:  -3.638 LR: -16.259 RR:   0.000 FEB: -10.890
USER: RMSD 6.837768
USER: SEED 166
USER: STATUS no improvement in best in 4 clusters for 5 generations
USER: GENES 20
USER: genes 0 Translation |==|  0.55299 0.60041 0.44596
USER: genes 1 Rotation |==|  0.22184 0.77472 0.25624 0.69425
USER: genes 2 Torsion [C]-CA--N-[C] |==|  0.72295
USER: genes 3 Torsion [N]-C--CA-[N] |==|  0.05895
USER: genes 4 Torsion [C]-CA--N-[H2] |==|  0.44479
USER: genes 5 Torsion [C]-CA--CB-[CG] |==|  0.28966
USER: genes 6 Torsion [CA]-CB--CG-[CD2] |==|  0.69444
USER: genes 7 Torsion [N]-CA--C-[N] |==|  0.29349
USER: genes 8 Torsion [C]-N--CA-[CB] |==|  0.85965
USER: genes 9 Torsion [N]-CA--CB-[CG] |==|  0.53776
USER: genes 10 Torsion [CA]-CB--CG-[CD] |==|  0.49551
USER: genes 11 Torsion [CB]-CG--CD-[OE2] |==|  0.47739
USER: genes 12 Torsion [N]-CA--C-[N] |==|  0.24444
USER: genes 13 Torsion [C]-N--CA-[CB] |==|  0.16838
USER: genes 14 Torsion [N]-CA--CB-[CG] |==|  0.09838
USER: genes 15 Torsion [CA]-CB--CG-[CD2] |==|  0.64113
USER: genes 16 Torsion [N]-CA--C-[O] |==|  0.60501
USER: genes 17 Torsion [N]-CA--CB-[CG] |==|  0.47836
USER: genes 18 Torsion [CA]-CB--CG-[CD] |==|  0.10010
USER: genes 19 Torsion [CB]-CG--CD-[OE1] |==|  0.61977
ROOT
ATOM      1  CA  GLU C   2     -21.783  21.151  -3.741  1.00 17.05 LIG 0.18  C 
ENDROOT
BRANCH 1 2
ATOM      2  N   GLU C   2     -22.192  22.432  -4.295  1.00 17.18 LIG-0.35  N 
ATOM      3 H    GLU C   2     -21.645  23.079  -4.146  1.00 17.18 LIG 0.16  HD
ATOM      4  C   TRP C   1     -23.326  22.558  -4.971  1.00 16.43 LIG 0.25  C 
ATOM      5 O    TRP C   1     -24.074  21.613  -5.204  1.00 19.21 LIG-0.27  OA
BRANCH 4 6
ATOM      6  CA  TRP C   1     -23.664  23.955  -5.450  1.00 16.09 LIG 0.28  C 
BRANCH 6 7
ATOM      7  N   TRP C   1     -22.463  24.830  -5.523  1.00 14.00 LIG-0.07  N 
ATOM      8 H2   TRP C   1     -22.630  25.520  -6.061  1.00 14.00 LIG 0.28  HD
ATOM      9 H1   TRP C   1     -21.775  24.365  -5.843  1.00 14.00 LIG 0.28  HD
ATOM     10 H3   TRP C   1     -22.265  25.131  -4.709  1.00 14.00 LIG 0.28  HD
ENDBRANCH 6 7
BRANCH 6 11
ATOM     11  CB  TRP C   1     -24.337  23.841  -6.822  1.00 13.46 LIG 0.08  C 
BRANCH 11 12
ATOM     12  CG  TRP C   1     -25.806  24.044  -6.790  1.00 14.84 LIG-0.03  A 
ATOM     13  CD1 TRP C   1     -26.472  25.198  -6.495  1.00 13.19 LIG 0.10  A 
ATOM     14  NE1 TRP C   1     -27.829  24.978  -6.510  1.00 14.33 LIG-0.36  N 
ATOM     15 HE1  TRP C   1     -28.433  25.569  -6.351  1.00 14.33 LIG 0.17  HD
ATOM     16  CE2 TRP C   1     -28.059  23.663  -6.819  1.00 14.48 LIG 0.04  A 
ATOM     17  CZ2 TRP C   1     -29.265  22.963  -6.948  1.00 13.61 LIG 0.03  A 
ATOM     18  CD2 TRP C   1     -26.804  23.043  -7.001  1.00 13.42 LIG-0.00  A 
ATOM     19  CH2 TRP C   1     -29.192  21.629  -7.268  1.00 12.22 LIG 0.00  A 
ATOM     20  CZ3 TRP C   1     -27.955  20.984  -7.458  1.00 14.06 LIG 0.00  A 
ATOM     21  CE3 TRP C   1     -26.759  21.680  -7.329  1.00 13.53 LIG 0.01  A 
ENDBRANCH 11 12
ENDBRANCH 6 11
ENDBRANCH 4 6
ENDBRANCH 1 2
BRANCH 1 22
ATOM     22  C   GLU C   2     -22.118  21.103  -2.266  1.00 17.76 LIG 0.24  C 
ATOM     23 O    GLU C   2     -21.466  21.754  -1.451  1.00 15.11 LIG-0.27  OA
ATOM     24  N   GLU C   3     -23.157  20.348  -1.932  1.00 16.84 LIG-0.35  N 
ATOM     25 H    GLU C   3     -23.636  19.914  -2.500  1.00 16.84 LIG 0.16  HD
BRANCH 24 26
ATOM     26  CA  GLU C   3     -23.582  20.190  -0.551  1.00 19.32 LIG 0.18  C 
BRANCH 26 27
ATOM     27  CB  GLU C   3     -22.373  19.807   0.307  1.00 21.63 LIG 0.04  C 
BRANCH 27 28
ATOM     28  CG  GLU C   3     -22.683  19.293   1.702  1.00 28.11 LIG 0.12  C 
BRANCH 28 29
ATOM     29  CD  GLU C   3     -21.441  18.897   2.476  1.00 31.25 LIG 0.17  C 
ATOM     30 OE2  GLU C   3     -21.563  18.607   3.687  1.00 33.54 LIG-0.65  OA
ATOM     31 OE1  GLU C   3     -20.341  18.892   1.883  1.00 33.71 LIG-0.65  OA
ENDBRANCH 28 29
ENDBRANCH 27 28
ENDBRANCH 26 27
BRANCH 26 32
ATOM     32  C   GLU C   3     -24.149  21.535  -0.099  1.00 20.73 LIG 0.24  C 
ATOM     33  N   LEU C   4     -25.442  21.752  -0.326  1.00 21.37 LIG-0.34  N 
ATOM     34 H    LEU C   4     -25.967  21.189  -0.708  1.00 21.37 LIG 0.16  HD
ATOM     35 O    GLU C   3     -23.419  22.371   0.434  1.00 19.68 LIG-0.27  OA
BRANCH 33 36
ATOM     36  CA  LEU C   4     -26.076  23.003   0.071  1.00 23.29 LIG 0.18  C 
BRANCH 36 37
ATOM     37  CB  LEU C   4     -25.424  24.194  -0.634  1.00 22.30 LIG 0.04  C 
BRANCH 37 38
ATOM     38  CG  LEU C   4     -24.971  23.892  -2.066  1.00 23.00 LIG-0.02  C 
ATOM     39  CD2 LEU C   4     -23.526  24.319  -2.251  1.00 24.82 LIG 0.01  C 
ATOM     40  CD1 LEU C   4     -25.870  24.624  -3.051  1.00 24.76 LIG 0.01  C 
ENDBRANCH 37 38
ENDBRANCH 36 37
BRANCH 36 41
ATOM     41  C   LEU C   4     -27.558  22.977  -0.276  1.00 23.96 LIG 0.20  C 
ATOM     42 O    LEU C   4     -28.085  24.031  -0.691  1.00 25.84 LIG-0.65  OA
ATOM     43 OXT  LEU C   4     -28.165  21.892  -0.143  1.00 25.23 LIG-0.65  OA
ENDBRANCH 36 41
ENDBRANCH 33 36
ENDBRANCH 26 32
ENDBRANCH 24 26
ENDBRANCH 1 22
BRANCH 1 44
ATOM     44  CB  GLU C   2     -20.284  20.904  -3.939  1.00 20.11 LIG 0.04  C 
BRANCH 44 45
ATOM     45  CG  GLU C   2     -19.726  19.685  -3.237  1.00 24.89 LIG 0.12  C 
BRANCH 45 46
ATOM     46  CD  GLU C   2     -20.715  18.529  -3.225  1.00 27.65 LIG 0.17  C 
ATOM     47 OE1  GLU C   2     -20.862  17.864  -2.175  1.00 28.60 LIG-0.65  OA
ATOM     48 OE2  GLU C   2     -21.358  18.293  -4.268  1.00 30.33 LIG-0.65  OA
ENDBRANCH 45 46
ENDBRANCH 44 45
ENDBRANCH 1 44
TORSDOF 18
ENDMDL
MODEL 7
USER: ADFR SOLUTION from run 194
USER: SCORE 18.816280 LL:  -3.826 LR: -16.188 RR:   0.000 FEB: -10.819
USER: RMSD 2.138649
USER: SEED 193
USER: STATUS no improvement in best in 2 clusters for 5 generations
USER: GENES 20
USER: genes 0 Translation |==|  0.56982 0.56197 0.52256
USER: genes 1 Rotation |==|  0.57518 0.46019 0.52209 0.99222
USER: genes 2 Torsion [C]-CA--N-[C] |==|  0.80184
USER: genes 3 Torsion [N]-C--CA-[N] |==|  0.14698
USER: genes 4 Torsion [C]-CA--N-[H2] |==|  0.57271
USER: genes 5 Torsion [C]-CA--CB-[CG] |==|  0.49495
USER: genes 6 Torsion [CA]-CB--CG-[CD2] |==|  0.84846
USER: genes 7 Torsion [N]-CA--C-[N] |==|  0.38970
USER: genes 8 Torsion [C]-N--CA-[CB] |==|  0.48043
USER: genes 9 Torsion [N]-CA--CB-[CG] |==|  0.44251
USER: genes 10 Torsion [CA]-CB--CG-[CD] |==|  0.23698
USER: genes 11 Torsion [CB]-CG--CD-[OE2] |==|  0.88648
USER: genes 12 Torsion [N]-CA--C-[N] |==|  0.27037
USER: genes 13 Torsion [C]-N--CA-[CB] |==|  0.84236
USER: genes 14 Torsion [N]-CA--CB-[CG] |==|  0.86967
USER: genes 15 Torsion [CA]-CB--CG-[CD2] |==|  0.79254
USER: genes 16 Torsion [N]-CA--C-[O] |==|  0.27375
USER: genes 17 Torsion [N]-CA--CB-[CG] |==|  0.85220
USER: genes 18 Torsion [CA]-CB--CG-[CD] |==|  0.18961
USER: genes 19 Torsion [CB]-CG--CD-[OE1] |==|  0.71683
ROOT
ATOM      1  CA  GLU C   2     -21.454  20.286  -2.362  1.00 17.05 LIG 0.18  C 
ENDROOT
BRANCH 1 2
ATOM      2  N   GLU C   2     -22.731  20.813  -2.818  1.00 17.18 LIG-0.35  N 
ATOM      3 H    GLU C   2     -23.406  20.582  -2.337  1.00 17.18 LIG 0.16  HD
ATOM      4  C   TRP C   1     -22.812  21.586  -3.892  1.00 16.43 LIG 0.25  C 
ATOM      5 O    TRP C   1     -21.830  21.933  -4.542  1.00 19.21 LIG-0.27  OA
BRANCH 4 6
ATOM      6  CA  TRP C   1     -24.206  22.025  -4.293  1.00 16.09 LIG 0.28  C 
BRANCH 6 7
ATOM      7  N   TRP C   1     -24.941  22.659  -3.166  1.00 14.00 LIG-0.07  N 
ATOM      8 H2   TRP C   1     -25.817  22.560  -3.290  1.00 14.00 LIG 0.28  HD
ATOM      9 H1   TRP C   1     -24.743  23.526  -3.132  1.00 14.00 LIG 0.28  HD
ATOM     10 H3   TRP C   1     -24.703  22.271  -2.401  1.00 14.00 LIG 0.28  HD
ENDBRANCH 6 7
BRANCH 6 11
ATOM     11  CB  TRP C   1     -24.081  22.993  -5.475  1.00 13.46 LIG 0.08  C 
BRANCH 11 12
ATOM     12  CG  TRP C   1     -25.382  23.473  -6.000  1.00 14.84 LIG-0.03  A 
ATOM     13  CD1 TRP C   1     -25.803  24.766  -6.106  1.00 13.19 LIG 0.10  A 
ATOM     14  NE1 TRP C   1     -27.090  24.808  -6.584  1.00 14.33 LIG-0.36  N 
ATOM     15 HE1  TRP C   1     -27.549  25.522  -6.726  1.00 14.33 LIG 0.17  HD
ATOM     16  CE2 TRP C   1     -27.523  23.525  -6.796  1.00 14.48 LIG 0.04  A 
ATOM     17  CZ2 TRP C   1     -28.754  23.053  -7.268  1.00 13.61 LIG 0.03  A 
ATOM     18  CD2 TRP C   1     -26.470  22.656  -6.437  1.00 13.42 LIG-0.00  A 
ATOM     19  CH2 TRP C   1     -28.912  21.693  -7.379  1.00 12.22 LIG 0.00  A 
ATOM     20  CZ3 TRP C   1     -27.880  20.802  -7.030  1.00 14.06 LIG 0.00  A 
ATOM     21  CE3 TRP C   1     -26.658  21.271  -6.562  1.00 13.53 LIG 0.01  A 
ENDBRANCH 11 12
ENDBRANCH 6 11
ENDBRANCH 4 6
ENDBRANCH 1 2
BRANCH 1 22
ATOM     22  C   GLU C   2     -20.971  19.219  -3.320  1.00 17.76 LIG 0.24  C 
ATOM     23 O    GLU C   2     -21.762  18.428  -3.831  1.00 15.11 LIG-0.27  OA
ATOM     24  N   GLU C   3     -19.670  19.220  -3.581  1.00 16.84 LIG-0.35  N 
ATOM     25 H    GLU C   3     -19.116  19.789  -3.249  1.00 16.84 LIG 0.16  HD
BRANCH 24 26
ATOM     26  CA  GLU C   3     -19.061  18.240  -4.465  1.00 19.32 LIG 0.18  C 
BRANCH 26 27
ATOM     27  CB  GLU C   3     -17.595  18.613  -4.697  1.00 21.63 LIG 0.04  C 
BRANCH 27 28
ATOM     28  CG  GLU C   3     -16.689  17.490  -5.172  1.00 28.11 LIG 0.12  C 
BRANCH 28 29
ATOM     29  CD  GLU C   3     -16.716  17.304  -6.676  1.00 31.25 LIG 0.17  C 
ATOM     30 OE2  GLU C   3     -17.815  17.389  -7.266  1.00 33.54 LIG-0.65  OA
ATOM     31 OE1  GLU C   3     -15.644  17.055  -7.268  1.00 33.71 LIG-0.65  OA
ENDBRANCH 28 29
ENDBRANCH 27 28
ENDBRANCH 26 27
BRANCH 26 32
ATOM     32  C   GLU C   3     -19.162  16.884  -3.770  1.00 20.73 LIG 0.24  C 
ATOM     33  N   LEU C   4     -20.175  16.097  -4.124  1.00 21.37 LIG-0.34  N 
ATOM     34 H    LEU C   4     -20.767  16.306  -4.711  1.00 21.37 LIG 0.16  HD
ATOM     35 O    GLU C   3     -18.339  16.563  -2.911  1.00 19.68 LIG-0.27  OA
BRANCH 33 36
ATOM     36  CA  LEU C   4     -20.353  14.783  -3.520  1.00 23.29 LIG 0.18  C 
BRANCH 36 37
ATOM     37  CB  LEU C   4     -19.104  13.920  -3.711  1.00 22.30 LIG 0.04  C 
BRANCH 37 38
ATOM     38  CG  LEU C   4     -18.555  13.935  -5.141  1.00 23.00 LIG-0.02  C 
ATOM     39  CD2 LEU C   4     -19.442  13.094  -6.043  1.00 24.82 LIG 0.01  C 
ATOM     40  CD1 LEU C   4     -17.132  13.398  -5.148  1.00 24.76 LIG 0.01  C 
ENDBRANCH 37 38
ENDBRANCH 36 37
BRANCH 36 41
ATOM     41  C   LEU C   4     -20.631  14.921  -2.030  1.00 23.96 LIG 0.20  C 
ATOM     42 O    LEU C   4     -21.818  14.863  -1.643  1.00 25.84 LIG-0.65  OA
ATOM     43 OXT  LEU C   4     -19.651  15.070  -1.268  1.00 25.23 LIG-0.65  OA
ENDBRANCH 36 41
ENDBRANCH 33 36
ENDBRANCH 26 32
ENDBRANCH 24 26
ENDBRANCH 1 22
BRANCH 1 44
ATOM     44  CB  GLU C   2     -21.557  19.705  -0.948  1.00 20.11 LIG 0.04  C 
BRANCH 44 45
ATOM     45  CG  GLU C   2     -22.141  20.632   0.097  1.00 24.89 LIG 0.12  C 
BRANCH 45 46
ATOM     46  CD  GLU C   2     -23.619  20.904  -0.142  1.00 27.65 LIG 0.17  C 
ATOM     47 OE1  GLU C   2     -23.962  21.990  -0.662  1.00 28.60 LIG-0.65  OA
ATOM     48 OE2  GLU C   2     -24.440  20.021   0.179  1.00 30.33 LIG-0.65  OA
ENDBRANCH 45 46
ENDBRANCH 44 45
ENDBRANCH 1 44
TORSDOF 18
ENDMDL
MODEL 8
USER: ADFR SOLUTION from run 189
USER: SCORE 18.493789 LL:  -4.174 LR: -16.062 RR:   0.000 FEB: -10.693
USER: RMSD 3.699564
USER: SEED 188
USER: STATUS no improvement in best in 2 clusters for 5 generations
USER: GENES 20
USER: genes 0 Translation |==|  0.57376 0.55207 0.51205
USER: genes 1 Rotation |==|  0.47707 0.50149 0.49199 0.99941
USER: genes 2 Torsion [C]-CA--N-[C] |==|  0.68333
USER: genes 3 Torsion [N]-C--CA-[N] |==|  0.19703
USER: genes 4 Torsion [C]-CA--N-[H2] |==|  0.89955
USER: genes 5 Torsion [C]-CA--CB-[CG] |==|  0.49831
USER: genes 6 Torsion [CA]-CB--CG-[CD2] |==|  0.84756
USER: genes 7 Torsion [N]-CA--C-[N] |==|  0.64112
USER: genes 8 Torsion [C]-N--CA-[CB] |==|  0.87546
USER: genes 9 Torsion [N]-CA--CB-[CG] |==|  0.57900
USER: genes 10 Torsion [CA]-CB--CG-[CD] |==|  0.10939
USER: genes 11 Torsion [CB]-CG--CD-[OE2] |==|  0.79154
USER: genes 12 Torsion [N]-CA--C-[N] |==|  0.76409
USER: genes 13 Torsion [C]-N--CA-[CB] |==|  0.28454
USER: genes 14 Torsion [N]-CA--CB-[CG] |==|  0.86000
USER: genes 15 Torsion [CA]-CB--CG-[CD2] |==|  0.62170
USER: genes 16 Torsion [N]-CA--C-[O] |==|  0.53943
USER: genes 17 Torsion [N]-CA--CB-[CG] |==|  0.06833
USER: genes 18 Torsion [CA]-CB--CG-[CD] |==|  0.76704
USER: genes 19 Torsion [CB]-CG--CD-[OE1] |==|  0.27951
ROOT
ATOM      1  CA  GLU C   2     -21.378  20.064  -2.551  1.00 17.05 LIG 0.18  C 
ENDROOT
BRANCH 1 2
ATOM      2  N   GLU C   2     -22.664  20.577  -2.996  1.00 17.18 LIG-0.35  N 
ATOM      3 H    GLU C   2     -23.346  20.167  -2.669  1.00 17.18 LIG 0.16  HD
ATOM      4  C   TRP C   1     -22.742  21.597  -3.840  1.00 16.43 LIG 0.25  C 
ATOM      5 O    TRP C   1     -21.755  22.190  -4.266  1.00 19.21 LIG-0.27  OA
BRANCH 4 6
ATOM      6  CA  TRP C   1     -24.139  22.001  -4.268  1.00 16.09 LIG 0.28  C 
BRANCH 6 7
ATOM      7  N   TRP C   1     -24.898  22.650  -3.166  1.00 14.00 LIG-0.07  N 
ATOM      8 H2   TRP C   1     -24.688  22.262  -2.392  1.00 14.00 LIG 0.28  HD
ATOM      9 H1   TRP C   1     -25.771  22.561  -3.314  1.00 14.00 LIG 0.28  HD
ATOM     10 H3   TRP C   1     -24.690  23.514  -3.131  1.00 14.00 LIG 0.28  HD
ENDBRANCH 6 7
BRANCH 6 11
ATOM     11  CB  TRP C   1     -24.016  22.941  -5.472  1.00 13.46 LIG 0.08  C 
BRANCH 11 12
ATOM     12  CG  TRP C   1     -25.319  23.406  -6.007  1.00 14.84 LIG-0.03  A 
ATOM     13  CD1 TRP C   1     -25.744  24.697  -6.137  1.00 13.19 LIG 0.10  A 
ATOM     14  NE1 TRP C   1     -27.031  24.725  -6.616  1.00 14.33 LIG-0.36  N 
ATOM     15 HE1  TRP C   1     -27.492  25.435  -6.771  1.00 14.33 LIG 0.17  HD
ATOM     16  CE2 TRP C   1     -27.460  23.437  -6.805  1.00 14.48 LIG 0.04  A 
ATOM     17  CZ2 TRP C   1     -28.689  22.953  -7.268  1.00 13.61 LIG 0.03  A 
ATOM     18  CD2 TRP C   1     -26.404  22.578  -6.429  1.00 13.42 LIG-0.00  A 
ATOM     19  CH2 TRP C   1     -28.842  21.590  -7.353  1.00 12.22 LIG 0.00  A 
ATOM     20  CZ3 TRP C   1     -27.807  20.709  -6.988  1.00 14.06 LIG 0.00  A 
ATOM     21  CE3 TRP C   1     -26.587  21.191  -6.528  1.00 13.53 LIG 0.01  A 
ENDBRANCH 11 12
ENDBRANCH 6 11
ENDBRANCH 4 6
ENDBRANCH 1 2
BRANCH 1 22
ATOM     22  C   GLU C   2     -21.180  18.658  -3.074  1.00 17.76 LIG 0.24  C 
ATOM     23 O    GLU C   2     -21.316  18.407  -4.271  1.00 15.11 LIG-0.27  OA
ATOM     24  N   GLU C   3     -20.831  17.747  -2.173  1.00 16.84 LIG-0.35  N 
ATOM     25 H    GLU C   3     -20.705  17.922  -1.341  1.00 16.84 LIG 0.16  HD
BRANCH 24 26
ATOM     26  CA  GLU C   3     -20.627  16.352  -2.528  1.00 19.32 LIG 0.18  C 
BRANCH 26 27
ATOM     27  CB  GLU C   3     -21.768  15.892  -3.438  1.00 21.63 LIG 0.04  C 
BRANCH 27 28
ATOM     28  CG  GLU C   3     -22.117  14.415  -3.373  1.00 28.11 LIG 0.12  C 
BRANCH 28 29
ATOM     29  CD  GLU C   3     -22.062  13.855  -1.966  1.00 31.25 LIG 0.17  C 
ATOM     30 OE2  GLU C   3     -20.941  13.642  -1.455  1.00 33.54 LIG-0.65  OA
ATOM     31 OE1  GLU C   3     -23.136  13.610  -1.376  1.00 33.71 LIG-0.65  OA
ENDBRANCH 28 29
ENDBRANCH 27 28
ENDBRANCH 26 27
BRANCH 26 32
ATOM     32  C   GLU C   3     -19.292  16.266  -3.264  1.00 20.73 LIG 0.24  C 
ATOM     33  N   LEU C   4     -19.306  16.516  -4.572  1.00 21.37 LIG-0.34  N 
ATOM     34 H    LEU C   4     -20.012  16.717  -5.018  1.00 21.37 LIG 0.16  HD
ATOM     35 O    GLU C   3     -18.264  15.962  -2.657  1.00 19.68 LIG-0.27  OA
BRANCH 33 36
ATOM     36  CA  LEU C   4     -18.082  16.462  -5.361  1.00 23.29 LIG 0.18  C 
BRANCH 36 37
ATOM     37  CB  LEU C   4     -18.007  15.163  -6.165  1.00 22.30 LIG 0.04  C 
BRANCH 37 38
ATOM     38  CG  LEU C   4     -18.254  13.904  -5.328  1.00 23.00 LIG-0.02  C 
ATOM     39  CD2 LEU C   4     -17.240  12.833  -5.694  1.00 24.82 LIG 0.01  C 
ATOM     40  CD1 LEU C   4     -19.668  13.398  -5.570  1.00 24.76 LIG 0.01  C 
ENDBRANCH 37 38
ENDBRANCH 36 37
BRANCH 36 41
ATOM     41  C   LEU C   4     -18.023  17.640  -6.324  1.00 23.96 LIG 0.20  C 
ATOM     42 O    LEU C   4     -17.186  17.602  -7.251  1.00 25.84 LIG-0.65  OA
ATOM     43 OXT  LEU C   4     -18.830  18.577  -6.142  1.00 25.23 LIG-0.65  OA
ENDBRANCH 36 41
ENDBRANCH 33 36
ENDBRANCH 26 32
ENDBRANCH 24 26
ENDBRANCH 1 22
BRANCH 1 44
ATOM     44  CB  GLU C   2     -21.268  20.067  -1.023  1.00 20.11 LIG 0.04  C 
BRANCH 44 45
ATOM     45  CG  GLU C   2     -22.583  20.016  -0.275  1.00 24.89 LIG 0.12  C 
BRANCH 45 46
ATOM     46  CD  GLU C   2     -23.209  21.394  -0.123  1.00 27.65 LIG 0.17  C 
ATOM     47 OE1  GLU C   2     -24.138  21.729  -0.891  1.00 28.60 LIG-0.65  OA
ATOM     48 OE2  GLU C   2     -22.778  22.140   0.780  1.00 30.33 LIG-0.65  OA
ENDBRANCH 45 46
ENDBRANCH 44 45
ENDBRANCH 1 44
TORSDOF 18
ENDMDL
MODEL 9
USER: ADFR SOLUTION from run 83
USER: SCORE 17.960338 LL:  -3.787 LR: -15.958 RR:   0.000 FEB: -10.588
USER: RMSD 8.829483
USER: SEED 82
USER: STATUS no improvement in best in 4 clusters for 5 generations
USER: GENES 20
USER: genes 0 Translation |==|  0.45928 0.59119 0.62598
USER: genes 1 Rotation |==|  0.28115 0.59367 0.06037 0.50745
USER: genes 2 Torsion [C]-CA--N-[C] |==|  0.14705
USER: genes 3 Torsion [N]-C--CA-[N] |==|  0.78105
USER: genes 4 Torsion [C]-CA--N-[H2] |==|  0.16340
USER: genes 5 Torsion [C]-CA--CB-[CG] |==|  0.21691
USER: genes 6 Torsion [CA]-CB--CG-[CD2] |==|  0.48791
USER: genes 7 Torsion [N]-CA--C-[N] |==|  0.13761
USER: genes 8 Torsion [C]-N--CA-[CB] |==|  0.46514
USER: genes 9 Torsion [N]-CA--CB-[CG] |==|  0.60873
USER: genes 10 Torsion [CA]-CB--CG-[CD] |==|  0.60317
USER: genes 11 Torsion [CB]-CG--CD-[OE2] |==|  0.27665
USER: genes 12 Torsion [N]-CA--C-[N] |==|  0.73860
USER: genes 13 Torsion [C]-N--CA-[CB] |==|  0.29247
USER: genes 14 Torsion [N]-CA--CB-[CG] |==|  0.99629
USER: genes 15 Torsion [CA]-CB--CG-[CD2] |==|  0.74488
USER: genes 16 Torsion [N]-CA--C-[O] |==|  0.51476
USER: genes 17 Torsion [N]-CA--CB-[CG] |==|  0.64946
USER: genes 18 Torsion [CA]-CB--CG-[CD] |==|  0.46243
USER: genes 19 Torsion [CB]-CG--CD-[OE1] |==|  0.41334
ROOT
ATOM      1  CA  GLU C   2     -23.610  20.944  -0.500  1.00 17.05 LIG 0.18  C 
ENDROOT
BRANCH 1 2
ATOM      2  N   GLU C   2     -23.194  20.844  -1.891  1.00 17.18 LIG-0.35  N 
ATOM      3 H    GLU C   2     -23.566  20.206  -2.331  1.00 17.18 LIG 0.16  HD
ATOM      4  C   TRP C   1     -22.309  21.687  -2.405  1.00 16.43 LIG 0.25  C 
ATOM      5 O    TRP C   1     -21.819  22.615  -1.767  1.00 19.21 LIG-0.27  OA
BRANCH 4 6
ATOM      6  CA  TRP C   1     -21.920  21.444  -3.850  1.00 16.09 LIG 0.28  C 
BRANCH 6 7
ATOM      7  N   TRP C   1     -20.936  20.338  -3.987  1.00 14.00 LIG-0.07  N 
ATOM      8 H2   TRP C   1     -21.281  19.590  -3.650  1.00 14.00 LIG 0.28  HD
ATOM      9 H1   TRP C   1     -20.191  20.546  -3.546  1.00 14.00 LIG 0.28  HD
ATOM     10 H3   TRP C   1     -20.746  20.215  -4.848  1.00 14.00 LIG 0.28  HD
ENDBRANCH 6 7
BRANCH 6 11
ATOM     11  CB  TRP C   1     -23.195  21.140  -4.644  1.00 13.46 LIG 0.08  C 
BRANCH 11 12
ATOM     12  CG  TRP C   1     -23.995  22.343  -4.980  1.00 14.84 LIG-0.03  A 
ATOM     13  CD1 TRP C   1     -23.790  23.619  -4.542  1.00 13.19 LIG 0.10  A 
ATOM     14  NE1 TRP C   1     -24.774  24.449  -5.022  1.00 14.33 LIG-0.36  N 
ATOM     15 HE1  TRP C   1     -24.836  25.293  -4.868  1.00 14.33 LIG 0.17  HD
ATOM     16  CE2 TRP C   1     -25.639  23.710  -5.787  1.00 14.48 LIG 0.04  A 
ATOM     17  CZ2 TRP C   1     -26.791  24.100  -6.480  1.00 13.61 LIG 0.03  A 
ATOM     18  CD2 TRP C   1     -25.178  22.376  -5.781  1.00 13.42 LIG-0.00  A 
ATOM     19  CH2 TRP C   1     -27.474  23.130  -7.172  1.00 12.22 LIG 0.00  A 
ATOM     20  CZ3 TRP C   1     -27.038  21.792  -7.186  1.00 14.06 LIG 0.00  A 
ATOM     21  CE3 TRP C   1     -25.894  21.405  -6.498  1.00 13.53 LIG 0.01  A 
ENDBRANCH 11 12
ENDBRANCH 6 11
ENDBRANCH 4 6
ENDBRANCH 1 2
BRANCH 1 22
ATOM     22  C   GLU C   2     -24.078  22.352  -0.207  1.00 17.76 LIG 0.24  C 
ATOM     23 O    GLU C   2     -23.637  22.973   0.759  1.00 15.11 LIG-0.27  OA
ATOM     24  N   GLU C   3     -24.954  22.863  -1.064  1.00 16.84 LIG-0.35  N 
ATOM     25 H    GLU C   3     -25.244  22.445  -1.757  1.00 16.84 LIG 0.16  HD
BRANCH 24 26
ATOM     26  CA  GLU C   3     -25.507  24.197  -0.896  1.00 19.32 LIG 0.18  C 
BRANCH 26 27
ATOM     27  CB  GLU C   3     -26.225  24.609  -2.183  1.00 21.63 LIG 0.04  C 
BRANCH 27 28
ATOM     28  CG  GLU C   3     -26.058  26.060  -2.603  1.00 28.11 LIG 0.12  C 
BRANCH 28 29
ATOM     29  CD  GLU C   3     -27.316  26.649  -3.210  1.00 31.25 LIG 0.17  C 
ATOM     30 OE2  GLU C   3     -28.046  27.362  -2.488  1.00 33.54 LIG-0.65  OA
ATOM     31 OE1  GLU C   3     -27.586  26.386  -4.402  1.00 33.71 LIG-0.65  OA
ENDBRANCH 28 29
ENDBRANCH 27 28
ENDBRANCH 26 27
BRANCH 26 32
ATOM     32  C   GLU C   3     -26.495  24.131   0.267  1.00 20.73 LIG 0.24  C 
ATOM     33  N   LEU C   4     -27.774  23.921  -0.039  1.00 21.37 LIG-0.34  N 
ATOM     34 H    LEU C   4     -28.070  23.824  -0.840  1.00 21.37 LIG 0.16  HD
ATOM     35 O    GLU C   3     -26.105  24.284   1.424  1.00 19.68 LIG-0.27  OA
BRANCH 33 36
ATOM     36  CA  LEU C   4     -28.791  23.839   1.001  1.00 23.29 LIG 0.18  C 
BRANCH 36 37
ATOM     37  CB  LEU C   4     -29.638  25.112   1.039  1.00 22.30 LIG 0.04  C 
BRANCH 37 38
ATOM     38  CG  LEU C   4     -29.208  26.170   0.018  1.00 23.00 LIG-0.02  C 
ATOM     39  CD2 LEU C   4     -28.205  27.120   0.650  1.00 24.82 LIG 0.01  C 
ATOM     40  CD1 LEU C   4     -30.429  26.937  -0.468  1.00 24.76 LIG 0.01  C 
ENDBRANCH 37 38
ENDBRANCH 36 37
BRANCH 36 41
ATOM     41  C   LEU C   4     -29.706  22.647   0.751  1.00 23.96 LIG 0.20  C 
ATOM     42 O    LEU C   4     -30.695  22.496   1.500  1.00 25.84 LIG-0.65  OA
ATOM     43 OXT  LEU C   4     -29.424  21.892  -0.205  1.00 25.23 LIG-0.65  OA
ENDBRANCH 36 41
ENDBRANCH 33 36
ENDBRANCH 26 32
ENDBRANCH 24 26
ENDBRANCH 1 22
BRANCH 1 44
ATOM     44  CB  GLU C   2     -22.474  20.566   0.456  1.00 20.11 LIG 0.04  C 
BRANCH 44 45
ATOM     45  CG  GLU C   2     -22.807  19.491   1.469  1.00 24.89 LIG 0.12  C 
BRANCH 45 46
ATOM     46  CD  GLU C   2     -21.562  18.943   2.152  1.00 27.65 LIG 0.17  C 
ATOM     47 OE1  GLU C   2     -21.643  18.539   3.333  1.00 28.60 LIG-0.65  OA
ATOM     48 OE2  GLU C   2     -20.500  18.904   1.497  1.00 30.33 LIG-0.65  OA
ENDBRANCH 45 46
ENDBRANCH 44 45
ENDBRANCH 1 44
TORSDOF 18
ENDMDL
MODEL 10
USER: ADFR SOLUTION from run 108
USER: SCORE 18.059677 LL:  -3.076 LR: -15.916 RR:   0.000 FEB: -10.546
USER: RMSD 4.871650
USER: SEED 107
USER: STATUS no improvement in best in 1 clusters for 5 generations
USER: GENES 20
USER: genes 0 Translation |==|  0.39777 0.68183 0.59002
USER: genes 1 Rotation |==|  0.49291 0.17757 0.63295 0.85820
USER: genes 2 Torsion [C]-CA--N-[C] |==|  0.82222
USER: genes 3 Torsion [N]-C--CA-[N] |==|  0.61096
USER: genes 4 Torsion [C]-CA--N-[H2] |==|  0.82508
USER: genes 5 Torsion [C]-CA--CB-[CG] |==|  0.28556
USER: genes 6 Torsion [CA]-CB--CG-[CD2] |==|  0.48365
USER: genes 7 Torsion [N]-CA--C-[N] |==|  0.90756
USER: genes 8 Torsion [C]-N--CA-[CB] |==|  0.19554
USER: genes 9 Torsion [N]-CA--CB-[CG] |==|  0.72697
USER: genes 10 Torsion [CA]-CB--CG-[CD] |==|  0.70987
USER: genes 11 Torsion [CB]-CG--CD-[OE2] |==|  0.65022
USER: genes 12 Torsion [N]-CA--C-[N] |==|  0.49573
USER: genes 13 Torsion [C]-N--CA-[CB] |==|  0.84836
USER: genes 14 Torsion [N]-CA--CB-[CG] |==|  0.63761
USER: genes 15 Torsion [CA]-CB--CG-[CD2] |==|  0.41191
USER: genes 16 Torsion [N]-CA--C-[O] |==|  0.26869
USER: genes 17 Torsion [N]-CA--CB-[CG] |==|  0.73322
USER: genes 18 Torsion [CA]-CB--CG-[CD] |==|  0.56053
USER: genes 19 Torsion [CB]-CG--CD-[OE1] |==|  0.26728
ROOT
ATOM      1  CA  GLU C   2     -24.809  22.983  -1.148  1.00 17.05 LIG 0.18  C 
ENDROOT
BRANCH 1 2
ATOM      2  N   GLU C   2     -24.652  23.034  -2.593  1.00 17.18 LIG-0.35  N 
ATOM      3 H    GLU C   2     -25.296  22.675  -3.036  1.00 17.18 LIG 0.16  HD
ATOM      4  C   TRP C   1     -23.587  23.596  -3.148  1.00 16.43 LIG 0.25  C 
ATOM      5 O    TRP C   1     -22.697  24.134  -2.497  1.00 19.21 LIG-0.27  OA
BRANCH 4 6
ATOM      6  CA  TRP C   1     -23.516  23.535  -4.661  1.00 16.09 LIG 0.28  C 
BRANCH 6 7
ATOM      7  N   TRP C   1     -22.138  23.262  -5.149  1.00 14.00 LIG-0.07  N 
ATOM      8 H2   TRP C   1     -21.600  23.930  -4.909  1.00 14.00 LIG 0.28  HD
ATOM      9 H1   TRP C   1     -22.144  23.192  -6.036  1.00 14.00 LIG 0.28  HD
ATOM     10 H3   TRP C   1     -21.843  22.501  -4.793  1.00 14.00 LIG 0.28  HD
ENDBRANCH 6 7
BRANCH 6 11
ATOM     11  CB  TRP C   1     -24.489  22.453  -5.143  1.00 13.46 LIG 0.08  C 
BRANCH 11 12
ATOM     12  CG  TRP C   1     -25.757  22.987  -5.697  1.00 14.84 LIG-0.03  A 
ATOM     13  CD1 TRP C   1     -26.194  24.279  -5.658  1.00 13.19 LIG 0.10  A 
ATOM     14  NE1 TRP C   1     -27.442  24.373  -6.225  1.00 14.33 LIG-0.36  N 
ATOM     15 HE1  TRP C   1     -27.903  25.095  -6.303  1.00 14.33 LIG 0.17  HD
ATOM     16  CE2 TRP C   1     -27.832  23.127  -6.643  1.00 14.48 LIG 0.04  A 
ATOM     17  CZ2 TRP C   1     -29.014  22.713  -7.268  1.00 13.61 LIG 0.03  A 
ATOM     18  CD2 TRP C   1     -26.792  22.227  -6.324  1.00 13.42 LIG-0.00  A 
ATOM     19  CH2 TRP C   1     -29.135  21.379  -7.574  1.00 12.22 LIG 0.00  A 
ATOM     20  CZ3 TRP C   1     -28.114  20.459  -7.272  1.00 14.06 LIG 0.00  A 
ATOM     21  CE3 TRP C   1     -26.941  20.871  -6.650  1.00 13.53 LIG 0.01  A 
ENDBRANCH 11 12
ENDBRANCH 6 11
ENDBRANCH 4 6
ENDBRANCH 1 2
BRANCH 1 22
ATOM     22  C   GLU C   2     -23.711  22.136  -0.543  1.00 17.76 LIG 0.24  C 
ATOM     23 O    GLU C   2     -23.270  22.384   0.578  1.00 15.11 LIG-0.27  OA
ATOM     24  N   GLU C   3     -23.293  21.115  -1.282  1.00 16.84 LIG-0.35  N 
ATOM     25 H    GLU C   3     -23.618  20.918  -2.053  1.00 16.84 LIG 0.16  HD
BRANCH 24 26
ATOM     26  CA  GLU C   3     -22.230  20.229  -0.838  1.00 19.32 LIG 0.18  C 
BRANCH 26 27
ATOM     27  CB  GLU C   3     -22.742  19.369   0.320  1.00 21.63 LIG 0.04  C 
BRANCH 27 28
ATOM     28  CG  GLU C   3     -22.374  19.844   1.715  1.00 28.11 LIG 0.12  C 
BRANCH 28 29
ATOM     29  CD  GLU C   3     -21.269  19.021   2.349  1.00 31.25 LIG 0.17  C 
ATOM     30 OE2  GLU C   3     -21.475  18.517   3.474  1.00 33.54 LIG-0.65  OA
ATOM     31 OE1  GLU C   3     -20.190  18.892   1.732  1.00 33.71 LIG-0.65  OA
ENDBRANCH 28 29
ENDBRANCH 27 28
ENDBRANCH 26 27
BRANCH 26 32
ATOM     32  C   GLU C   3     -21.854  19.348  -2.029  1.00 20.73 LIG 0.24  C 
ATOM     33  N   LEU C   4     -20.866  18.475  -1.846  1.00 21.37 LIG-0.34  N 
ATOM     34 H    LEU C   4     -20.434  18.381  -1.109  1.00 21.37 LIG 0.16  HD
ATOM     35 O    GLU C   3     -22.442  19.471  -3.104  1.00 19.68 LIG-0.27  OA
BRANCH 33 36
ATOM     36  CA  LEU C   4     -20.438  17.589  -2.921  1.00 23.29 LIG 0.18  C 
BRANCH 36 37
ATOM     37  CB  LEU C   4     -21.619  16.788  -3.473  1.00 22.30 LIG 0.04  C 
BRANCH 37 38
ATOM     38  CG  LEU C   4     -21.351  15.284  -3.576  1.00 23.00 LIG-0.02  C 
ATOM     39  CD2 LEU C   4     -22.642  14.513  -3.357  1.00 24.82 LIG 0.01  C 
ATOM     40  CD1 LEU C   4     -20.311  14.877  -2.544  1.00 24.76 LIG 0.01  C 
ENDBRANCH 37 38
ENDBRANCH 36 37
BRANCH 36 41
ATOM     41  C   LEU C   4     -19.818  18.395  -4.054  1.00 23.96 LIG 0.20  C 
ATOM     42 O    LEU C   4     -18.574  18.504  -4.088  1.00 25.84 LIG-0.65  OA
ATOM     43 OXT  LEU C   4     -20.592  18.892  -4.901  1.00 25.23 LIG-0.65  OA
ENDBRANCH 36 41
ENDBRANCH 33 36
ENDBRANCH 26 32
ENDBRANCH 24 26
ENDBRANCH 1 22
BRANCH 1 44
ATOM     44  CB  GLU C   2     -26.177  22.419  -0.749  1.00 20.11 LIG 0.04  C 
BRANCH 44 45
ATOM     45  CG  GLU C   2     -27.246  23.449  -0.454  1.00 24.89 LIG 0.12  C 
BRANCH 45 46
ATOM     46  CD  GLU C   2     -28.360  22.886   0.416  1.00 27.65 LIG 0.17  C 
ATOM     47 OE1  GLU C   2     -28.320  23.071   1.653  1.00 28.60 LIG-0.65  OA
ATOM     48 OE2  GLU C   2     -29.287  22.265  -0.143  1.00 30.33 LIG-0.65  OA
ENDBRANCH 45 46
ENDBRANCH 44 45
ENDBRANCH 1 44
TORSDOF 18
ENDMDL
MODEL 11
USER: ADFR SOLUTION from run 112
USER: SCORE 17.702441 LL:  -2.589 LR: -15.914 RR:   0.000 FEB: -10.545
USER: RMSD 9.324401
USER: SEED 111
USER: STATUS no improvement in best in 6 clusters for 5 generations
USER: GENES 20
USER: genes 0 Translation |==|  0.55345 0.52197 0.51126
USER: genes 1 Rotation |==|  0.65780 0.59165 0.96045 0.56841
USER: genes 2 Torsion [C]-CA--N-[C] |==|  0.53893
USER: genes 3 Torsion [N]-C--CA-[N] |==|  0.07733
USER: genes 4 Torsion [C]-CA--N-[H2] |==|  0.23461
USER: genes 5 Torsion [C]-CA--CB-[CG] |==|  0.21786
USER: genes 6 Torsion [CA]-CB--CG-[CD2] |==|  0.05166
USER: genes 7 Torsion [N]-CA--C-[N] |==|  0.43442
USER: genes 8 Torsion [C]-N--CA-[CB] |==|  0.21041
USER: genes 9 Torsion [N]-CA--CB-[CG] |==|  0.46288
USER: genes 10 Torsion [CA]-CB--CG-[CD] |==|  0.54253
USER: genes 11 Torsion [CB]-CG--CD-[OE2] |==|  0.89408
USER: genes 12 Torsion [N]-CA--C-[N] |==|  0.96125
USER: genes 13 Torsion [C]-N--CA-[CB] |==|  0.35130
USER: genes 14 Torsion [N]-CA--CB-[CG] |==|  0.55131
USER: genes 15 Torsion [CA]-CB--CG-[CD2] |==|  0.45553
USER: genes 16 Torsion [N]-CA--C-[O] |==|  0.97887
USER: genes 17 Torsion [N]-CA--CB-[CG] |==|  0.59884
USER: genes 18 Torsion [CA]-CB--CG-[CD] |==|  0.28973
USER: genes 19 Torsion [CB]-CG--CD-[OE1] |==|  0.66015
ROOT
ATOM      1  CA  GLU C   2     -21.774  19.386  -2.565  1.00 17.05 LIG 0.18  C 
ENDROOT
BRANCH 1 2
ATOM      2  N   GLU C   2     -21.107  18.349  -3.337  1.00 17.18 LIG-0.35  N 
ATOM      3 H    GLU C   2     -20.872  18.587  -4.129  1.00 17.18 LIG 0.16  HD
ATOM      4  C   TRP C   1     -20.896  17.143  -2.828  1.00 16.43 LIG 0.25  C 
ATOM      5 O    TRP C   1     -21.208  16.836  -1.681  1.00 19.21 LIG-0.27  OA
BRANCH 4 6
ATOM      6  CA  TRP C   1     -20.241  16.136  -3.753  1.00 16.09 LIG 0.28  C 
BRANCH 6 7
ATOM      7  N   TRP C   1     -19.377  16.789  -4.773  1.00 14.00 LIG-0.07  N 
ATOM      8 H2   TRP C   1     -18.571  16.940  -4.427  1.00 14.00 LIG 0.28  HD
ATOM      9 H1   TRP C   1     -19.742  17.562  -5.021  1.00 14.00 LIG 0.28  HD
ATOM     10 H3   TRP C   1     -19.300  16.257  -5.482  1.00 14.00 LIG 0.28  HD
ENDBRANCH 6 7
BRANCH 6 11
ATOM     11  CB  TRP C   1     -19.428  15.159  -2.896  1.00 13.46 LIG 0.08  C 
BRANCH 11 12
ATOM     12  CG  TRP C   1     -20.248  14.119  -2.229  1.00 14.84 LIG-0.03  A 
ATOM     13  CD1 TRP C   1     -19.873  13.309  -1.197  1.00 13.19 LIG 0.10  A 
ATOM     14  NE1 TRP C   1     -20.886  12.433  -0.890  1.00 14.33 LIG-0.36  N 
ATOM     15 HE1  TRP C   1     -20.860  11.835  -0.273  1.00 14.33 LIG 0.17  HD
ATOM     16  CE2 TRP C   1     -21.943  12.670  -1.730  1.00 14.48 LIG 0.04  A 
ATOM     17  CZ2 TRP C   1     -23.191  12.040  -1.811  1.00 13.61 LIG 0.03  A 
ATOM     18  CD2 TRP C   1     -21.575  13.728  -2.589  1.00 13.42 LIG-0.00  A 
ATOM     19  CH2 TRP C   1     -24.068  12.491  -2.768  1.00 12.22 LIG 0.00  A 
ATOM     20  CZ3 TRP C   1     -23.730  13.545  -3.637  1.00 14.06 LIG 0.00  A 
ATOM     21  CE3 TRP C   1     -22.490  14.170  -3.556  1.00 13.53 LIG 0.01  A 
ENDBRANCH 11 12
ENDBRANCH 6 11
ENDBRANCH 4 6
ENDBRANCH 1 2
BRANCH 1 22
ATOM     22  C   GLU C   2     -22.187  20.518  -3.481  1.00 17.76 LIG 0.24  C 
ATOM     23 O    GLU C   2     -21.626  20.689  -4.562  1.00 15.11 LIG-0.27  OA
ATOM     24  N   GLU C   3     -23.191  21.273  -3.053  1.00 16.84 LIG-0.35  N 
ATOM     25 H    GLU C   3     -23.607  21.141  -2.312  1.00 16.84 LIG 0.16  HD
BRANCH 24 26
ATOM     26  CA  GLU C   3     -23.681  22.408  -3.818  1.00 19.32 LIG 0.18  C 
BRANCH 26 27
ATOM     27  CB  GLU C   3     -24.517  21.900  -4.994  1.00 21.63 LIG 0.04  C 
BRANCH 27 28
ATOM     28  CG  GLU C   3     -25.361  22.940  -5.710  1.00 28.11 LIG 0.12  C 
BRANCH 28 29
ATOM     29  CD  GLU C   3     -26.424  22.329  -6.602  1.00 31.25 LIG 0.17  C 
ATOM     30 OE2  GLU C   3     -26.139  21.294  -7.244  1.00 33.54 LIG-0.65  OA
ATOM     31 OE1  GLU C   3     -27.539  22.890  -6.676  1.00 33.71 LIG-0.65  OA
ENDBRANCH 28 29
ENDBRANCH 27 28
ENDBRANCH 26 27
BRANCH 26 32
ATOM     32  C   GLU C   3     -24.542  23.246  -2.875  1.00 20.73 LIG 0.24  C 
ATOM     33  N   LEU C   4     -24.908  22.681  -1.727  1.00 21.37 LIG-0.34  N 
ATOM     34 H    LEU C   4     -24.691  21.883  -1.491  1.00 21.37 LIG 0.16  HD
ATOM     35 O    GLU C   3     -24.885  24.386  -3.193  1.00 19.68 LIG-0.27  OA
BRANCH 33 36
ATOM     36  CA  LEU C   4     -25.727  23.401  -0.761  1.00 23.29 LIG 0.18  C 
BRANCH 36 37
ATOM     37  CB  LEU C   4     -26.969  22.590  -0.385  1.00 22.30 LIG 0.04  C 
BRANCH 37 38
ATOM     38  CG  LEU C   4     -28.083  23.426   0.252  1.00 23.00 LIG-0.02  C 
ATOM     39  CD2 LEU C   4     -29.389  22.651   0.227  1.00 24.82 LIG 0.01  C 
ATOM     40  CD1 LEU C   4     -28.232  24.739  -0.501  1.00 24.76 LIG 0.01  C 
ENDBRANCH 37 38
ENDBRANCH 36 37
BRANCH 36 41
ATOM     41  C   LEU C   4     -24.926  23.686   0.502  1.00 23.96 LIG 0.20  C 
ATOM     42 O    LEU C   4     -23.793  23.170   0.610  1.00 25.84 LIG-0.65  OA
ATOM     43 OXT  LEU C   4     -25.441  24.439   1.357  1.00 25.23 LIG-0.65  OA
ENDBRANCH 36 41
ENDBRANCH 33 36
ENDBRANCH 26 32
ENDBRANCH 24 26
ENDBRANCH 1 22
BRANCH 1 44
ATOM     44  CB  GLU C   2     -20.873  19.926  -1.450  1.00 20.11 LIG 0.04  C 
BRANCH 44 45
ATOM     45  CG  GLU C   2     -21.580  20.301  -0.165  1.00 24.89 LIG 0.12  C 
BRANCH 45 46
ATOM     46  CD  GLU C   2     -21.364  19.267   0.930  1.00 27.65 LIG 0.17  C 
ATOM     47 OE1  GLU C   2     -22.358  18.715   1.452  1.00 28.60 LIG-0.65  OA
ATOM     48 OE2  GLU C   2     -20.191  18.996   1.261  1.00 30.33 LIG-0.65  OA
ENDBRANCH 45 46
ENDBRANCH 44 45
ENDBRANCH 1 44
TORSDOF 18
ENDMDL
MODEL 12
USER: ADFR SOLUTION from run 19
USER: SCORE 18.553498 LL:  -3.126 LR: -15.889 RR:   0.000 FEB: -10.519
USER: RMSD 6.799678
USER: SEED 18
USER: STATUS 1 or 2 clusters left
USER: GENES 20
USER: genes 0 Translation |==|  0.56611 0.58288 0.39432
USER: genes 1 Rotation |==|  0.28026 0.78927 0.32927 0.79814
USER: genes 2 Torsion [C]-CA--N-[C] |==|  0.82516
USER: genes 3 Torsion [N]-C--CA-[N] |==|  0.94536
USER: genes 4 Torsion [C]-CA--N-[H2] |==|  0.36158
USER: genes 5 Torsion [C]-CA--CB-[CG] |==|  0.29242
USER: genes 6 Torsion [CA]-CB--CG-[CD2] |==|  0.77701
USER: genes 7 Torsion [N]-CA--C-[N] |==|  0.93770
USER: genes 8 Torsion [C]-N--CA-[CB] |==|  0.22640
USER: genes 9 Torsion [N]-CA--CB-[CG] |==|  0.32029
USER: genes 10 Torsion [CA]-CB--CG-[CD] |==|  0.40002
USER: genes 11 Torsion [CB]-CG--CD-[OE2] |==|  0.19465
USER: genes 12 Torsion [N]-CA--C-[N] |==|  0.00936
USER: genes 13 Torsion [C]-N--CA-[CB] |==|  0.86445
USER: genes 14 Torsion [N]-CA--CB-[CG] |==|  0.67112
USER: genes 15 Torsion [CA]-CB--CG-[CD2] |==|  0.89715
USER: genes 16 Torsion [N]-CA--C-[O] |==|  0.56433
USER: genes 17 Torsion [N]-CA--CB-[CG] |==|  0.53420
USER: genes 18 Torsion [CA]-CB--CG-[CD] |==|  0.29932
USER: genes 19 Torsion [CB]-CG--CD-[OE1] |==|  0.52237
ROOT
ATOM      1  CA  GLU C   2     -21.527  20.757  -4.670  1.00 17.05 LIG 0.18  C 
ENDROOT
BRANCH 1 2
ATOM      2  N   GLU C   2     -22.107  22.089  -4.611  1.00 17.18 LIG-0.35  N 
ATOM      3 H    GLU C   2     -21.535  22.726  -4.520  1.00 17.18 LIG 0.16  HD
ATOM      4  C   TRP C   1     -23.418  22.273  -4.693  1.00 16.43 LIG 0.25  C 
ATOM      5 O    TRP C   1     -24.213  21.352  -4.860  1.00 19.21 LIG-0.27  OA
BRANCH 4 6
ATOM      6  CA  TRP C   1     -23.899  23.704  -4.564  1.00 16.09 LIG 0.28  C 
BRANCH 6 7
ATOM      7  N   TRP C   1     -22.888  24.580  -3.913  1.00 14.00 LIG-0.07  N 
ATOM      8 H2   TRP C   1     -22.771  25.313  -4.404  1.00 14.00 LIG 0.28  HD
ATOM      9 H1   TRP C   1     -22.116  24.143  -3.844  1.00 14.00 LIG 0.28  HD
ATOM     10 H3   TRP C   1     -23.173  24.809  -3.101  1.00 14.00 LIG 0.28  HD
ENDBRANCH 6 7
BRANCH 6 11
ATOM     11  CB  TRP C   1     -24.245  24.220  -5.965  1.00 13.46 LIG 0.08  C 
BRANCH 11 12
ATOM     12  CG  TRP C   1     -25.702  24.312  -6.228  1.00 14.84 LIG-0.03  A 
ATOM     13  CD1 TRP C   1     -26.493  25.418  -6.115  1.00 13.19 LIG 0.10  A 
ATOM     14  NE1 TRP C   1     -27.801  25.095  -6.387  1.00 14.33 LIG-0.36  N 
ATOM     15 HE1  TRP C   1     -28.464  25.642  -6.372  1.00 14.33 LIG 0.17  HD
ATOM     16  CE2 TRP C   1     -27.872  23.759  -6.684  1.00 14.48 LIG 0.04  A 
ATOM     17  CZ2 TRP C   1     -28.976  22.966  -7.020  1.00 13.61 LIG 0.03  A 
ATOM     18  CD2 TRP C   1     -26.565  23.233  -6.593  1.00 13.42 LIG-0.00  A 
ATOM     19  CH2 TRP C   1     -28.748  21.634  -7.268  1.00 12.22 LIG 0.00  A 
ATOM     20  CZ3 TRP C   1     -27.456  21.082  -7.187  1.00 14.06 LIG 0.00  A 
ATOM     21  CE3 TRP C   1     -26.361  21.869  -6.853  1.00 13.53 LIG 0.01  A 
ENDBRANCH 11 12
ENDBRANCH 6 11
ENDBRANCH 4 6
ENDBRANCH 1 2
BRANCH 1 22
ATOM     22  C   GLU C   2     -22.008  19.937  -3.493  1.00 17.76 LIG 0.24  C 
ATOM     23 O    GLU C   2     -21.974  18.708  -3.527  1.00 15.11 LIG-0.27  OA
ATOM     24  N   GLU C   3     -22.431  20.626  -2.440  1.00 16.84 LIG-0.35  N 
ATOM     25 H    GLU C   3     -22.430  21.485  -2.399  1.00 16.84 LIG 0.16  HD
BRANCH 24 26
ATOM     26  CA  GLU C   3     -22.941  19.972  -1.247  1.00 19.32 LIG 0.18  C 
BRANCH 26 27
ATOM     27  CB  GLU C   3     -21.765  19.527  -0.375  1.00 21.63 LIG 0.04  C 
BRANCH 27 28
ATOM     28  CG  GLU C   3     -21.649  20.201   0.982  1.00 28.11 LIG 0.12  C 
BRANCH 28 29
ATOM     29  CD  GLU C   3     -21.147  19.267   2.066  1.00 31.25 LIG 0.17  C 
ATOM     30 OE2  GLU C   3     -19.955  18.892   2.023  1.00 33.54 LIG-0.65  OA
ATOM     31 OE1  GLU C   3     -21.947  18.892   2.950  1.00 33.71 LIG-0.65  OA
ENDBRANCH 28 29
ENDBRANCH 27 28
ENDBRANCH 26 27
BRANCH 26 32
ATOM     32  C   GLU C   3     -23.795  20.998  -0.503  1.00 20.73 LIG 0.24  C 
ATOM     33  N   LEU C   4     -23.958  22.184  -1.085  1.00 21.37 LIG-0.34  N 
ATOM     34 H    LEU C   4     -23.614  22.403  -1.842  1.00 21.37 LIG 0.16  HD
ATOM     35 O    GLU C   3     -24.287  20.722   0.591  1.00 19.68 LIG-0.27  OA
BRANCH 33 36
ATOM     36  CA  LEU C   4     -24.759  23.226  -0.456  1.00 23.29 LIG 0.18  C 
BRANCH 36 37
ATOM     37  CB  LEU C   4     -26.111  22.676   0.000  1.00 22.30 LIG 0.04  C 
BRANCH 37 38
ATOM     38  CG  LEU C   4     -27.311  23.343  -0.679  1.00 23.00 LIG-0.02  C 
ATOM     39  CD2 LEU C   4     -27.035  24.824  -0.876  1.00 24.82 LIG 0.01  C 
ATOM     40  CD1 LEU C   4     -28.556  23.146   0.173  1.00 24.76 LIG 0.01  C 
ENDBRANCH 37 38
ENDBRANCH 36 37
BRANCH 36 41
ATOM     41  C   LEU C   4     -24.028  23.797   0.751  1.00 23.96 LIG 0.20  C 
ATOM     42 O    LEU C   4     -24.704  24.353   1.642  1.00 25.84 LIG-0.65  OA
ATOM     43 OXT  LEU C   4     -22.785  23.661   0.793  1.00 25.23 LIG-0.65  OA
ENDBRANCH 36 41
ENDBRANCH 33 36
ENDBRANCH 26 32
ENDBRANCH 24 26
ENDBRANCH 1 22
BRANCH 1 44
ATOM     44  CB  GLU C   2     -19.996  20.808  -4.673  1.00 20.11 LIG 0.04  C 
BRANCH 44 45
ATOM     45  CG  GLU C   2     -19.301  19.510  -5.023  1.00 24.89 LIG 0.12  C 
BRANCH 45 46
ATOM     46  CD  GLU C   2     -18.670  19.553  -6.407  1.00 27.65 LIG 0.17  C 
ATOM     47 OE1  GLU C   2     -18.194  18.503  -6.893  1.00 28.60 LIG-0.65  OA
ATOM     48 OE2  GLU C   2     -18.663  20.642  -7.018  1.00 30.33 LIG-0.65  OA
ENDBRANCH 45 46
ENDBRANCH 44 45
ENDBRANCH 1 44
TORSDOF 18
ENDMDL
MODEL 13
USER: ADFR SOLUTION from run 13
USER: SCORE 17.926609 LL:  -3.053 LR: -15.769 RR:   0.000 FEB: -10.400
USER: RMSD 5.338426
USER: SEED 269473
USER: STATUS no improvement in best in 4 clusters for 5 generations
USER: GENES 20
USER: genes 0 Translation |==|  0.38267 0.68555 0.59355
USER: genes 1 Rotation |==|  0.49341 0.18328 0.64584 0.85830
USER: genes 2 Torsion [C]-CA--N-[C] |==|  0.81674
USER: genes 3 Torsion [N]-C--CA-[N] |==|  0.55782
USER: genes 4 Torsion [C]-CA--N-[H2] |==|  0.95398
USER: genes 5 Torsion [C]-CA--CB-[CG] |==|  0.34025
USER: genes 6 Torsion [CA]-CB--CG-[CD2] |==|  0.94694
USER: genes 7 Torsion [N]-CA--C-[N] |==|  0.91180
USER: genes 8 Torsion [C]-N--CA-[CB] |==|  0.18751
USER: genes 9 Torsion [N]-CA--CB-[CG] |==|  0.70113
USER: genes 10 Torsion [CA]-CB--CG-[CD] |==|  0.69760
USER: genes 11 Torsion [CB]-CG--CD-[OE2] |==|  0.17363
USER: genes 12 Torsion [N]-CA--C-[N] |==|  0.54069
USER: genes 13 Torsion [C]-N--CA-[CB] |==|  0.24578
USER: genes 14 Torsion [N]-CA--CB-[CG] |==|  0.72831
USER: genes 15 Torsion [CA]-CB--CG-[CD2] |==|  0.59836
USER: genes 16 Torsion [N]-CA--C-[O] |==|  0.24402
USER: genes 17 Torsion [N]-CA--CB-[CG] |==|  0.74781
USER: genes 18 Torsion [CA]-CB--CG-[CD] |==|  0.57752
USER: genes 19 Torsion [CB]-CG--CD-[OE1] |==|  0.75469
ROOT
ATOM      1  CA  GLU C   2     -25.104  23.067  -1.084  1.00 17.05 LIG 0.18  C 
ENDROOT
BRANCH 1 2
ATOM      2  N   GLU C   2     -24.973  23.068  -2.533  1.00 17.18 LIG-0.35  N 
ATOM      3 H    GLU C   2     -25.596  22.646  -2.949  1.00 17.18 LIG 0.16  HD
ATOM      4  C   TRP C   1     -23.961  23.681  -3.131  1.00 16.43 LIG 0.25  C 
ATOM      5 O    TRP C   1     -23.102  24.309  -2.518  1.00 19.21 LIG-0.27  OA
BRANCH 4 6
ATOM      6  CA  TRP C   1     -23.910  23.563  -4.641  1.00 16.09 LIG 0.28  C 
BRANCH 6 7
ATOM      7  N   TRP C   1     -22.548  23.824  -5.179  1.00 14.00 LIG-0.07  N 
ATOM      8 H2   TRP C   1     -22.058  24.234  -4.560  1.00 14.00 LIG 0.28  HD
ATOM      9 H1   TRP C   1     -22.607  24.342  -5.900  1.00 14.00 LIG 0.28  HD
ATOM     10 H3   TRP C   1     -22.162  23.053  -5.399  1.00 14.00 LIG 0.28  HD
ENDBRANCH 6 7
BRANCH 6 11
ATOM     11  CB  TRP C   1     -24.387  22.158  -5.027  1.00 13.46 LIG 0.08  C 
BRANCH 11 12
ATOM     12  CG  TRP C   1     -25.549  22.150  -5.948  1.00 14.84 LIG-0.03  A 
ATOM     13  CD1 TRP C   1     -25.933  21.142  -6.784  1.00 13.19 LIG 0.10  A 
ATOM     14  NE1 TRP C   1     -27.024  21.529  -7.523  1.00 14.33 LIG-0.36  N 
ATOM     15 HE1  TRP C   1     -27.427  21.048  -8.111  1.00 14.33 LIG 0.17  HD
ATOM     16  CE2 TRP C   1     -27.365  22.809  -7.170  1.00 14.48 LIG 0.04  A 
ATOM     17  CZ2 TRP C   1     -28.392  23.634  -7.643  1.00 13.61 LIG 0.03  A 
ATOM     18  CD2 TRP C   1     -26.453  23.233  -6.178  1.00 13.42 LIG-0.00  A 
ATOM     19  CH2 TRP C   1     -28.496  24.892  -7.101  1.00 12.22 LIG 0.00  A 
ATOM     20  CZ3 TRP C   1     -27.604  25.341  -6.109  1.00 14.06 LIG 0.00  A 
ATOM     21  CE3 TRP C   1     -26.583  24.522  -5.641  1.00 13.53 LIG 0.01  A 
ENDBRANCH 11 12
ENDBRANCH 6 11
ENDBRANCH 4 6
ENDBRANCH 1 2
BRANCH 1 22
ATOM     22  C   GLU C   2     -23.964  22.285  -0.469  1.00 17.76 LIG 0.24  C 
ATOM     23 O    GLU C   2     -23.532  22.575   0.645  1.00 15.11 LIG-0.27  OA
ATOM     24  N   GLU C   3     -23.499  21.272  -1.191  1.00 16.84 LIG-0.35  N 
ATOM     25 H    GLU C   3     -23.817  21.046  -1.957  1.00 16.84 LIG 0.16  HD
BRANCH 24 26
ATOM     26  CA  GLU C   3     -22.393  20.447  -0.735  1.00 19.32 LIG 0.18  C 
BRANCH 26 27
ATOM     27  CB  GLU C   3     -22.838  19.638   0.485  1.00 21.63 LIG 0.04  C 
BRANCH 27 28
ATOM     28  CG  GLU C   3     -22.260  20.076   1.821  1.00 28.11 LIG 0.12  C 
BRANCH 28 29
ATOM     29  CD  GLU C   3     -21.244  19.097   2.376  1.00 31.25 LIG 0.17  C 
ATOM     30 OE2  GLU C   3     -20.198  18.892   1.723  1.00 33.54 LIG-0.65  OA
ATOM     31 OE1  GLU C   3     -21.497  18.519   3.455  1.00 33.71 LIG-0.65  OA
ENDBRANCH 28 29
ENDBRANCH 27 28
ENDBRANCH 26 27
BRANCH 26 32
ATOM     32  C   GLU C   3     -22.026  19.513  -1.887  1.00 20.73 LIG 0.24  C 
ATOM     33  N   LEU C   4     -21.247  18.474  -1.598  1.00 21.37 LIG-0.34  N 
ATOM     34 H    LEU C   4     -20.941  18.302  -0.813  1.00 21.37 LIG 0.16  HD
ATOM     35 O    GLU C   3     -22.432  19.742  -3.027  1.00 19.68 LIG-0.27  OA
BRANCH 33 36
ATOM     36  CA  LEU C   4     -20.845  17.525  -2.628  1.00 23.29 LIG 0.18  C 
BRANCH 36 37
ATOM     37  CB  LEU C   4     -19.557  17.979  -3.317  1.00 22.30 LIG 0.04  C 
BRANCH 37 38
ATOM     38  CG  LEU C   4     -19.790  18.709  -4.644  1.00 23.00 LIG-0.02  C 
ATOM     39  CD2 LEU C   4     -18.681  18.367  -5.623  1.00 24.82 LIG 0.01  C 
ATOM     40  CD1 LEU C   4     -19.837  20.210  -4.400  1.00 24.76 LIG 0.01  C 
ENDBRANCH 37 38
ENDBRANCH 36 37
BRANCH 36 41
ATOM     41  C   LEU C   4     -20.617  16.149  -2.018  1.00 23.96 LIG 0.20  C 
ATOM     42 O    LEU C   4     -21.594  15.376  -1.922  1.00 25.84 LIG-0.65  OA
ATOM     43 OXT  LEU C   4     -19.454  15.860  -1.660  1.00 25.23 LIG-0.65  OA
ENDBRANCH 36 41
ENDBRANCH 33 36
ENDBRANCH 26 32
ENDBRANCH 24 26
ENDBRANCH 1 22
BRANCH 1 44
ATOM     44  CB  GLU C   2     -26.442  22.467  -0.639  1.00 20.11 LIG 0.04  C 
BRANCH 44 45
ATOM     45  CG  GLU C   2     -27.579  23.455  -0.483  1.00 24.89 LIG 0.12  C 
BRANCH 45 46
ATOM     46  CD  GLU C   2     -28.600  22.995   0.546  1.00 27.65 LIG 0.17  C 
ATOM     47 OE1  GLU C   2     -29.549  22.266   0.179  1.00 28.60 LIG-0.65  OA
ATOM     48 OE2  GLU C   2     -28.444  23.353   1.731  1.00 30.33 LIG-0.65  OA
ENDBRANCH 45 46
ENDBRANCH 44 45
ENDBRANCH 1 44
TORSDOF 18
ENDMDL
MODEL 14
USER: ADFR SOLUTION from run 6
USER: SCORE 17.117075 LL:  -3.613 LR: -15.524 RR:   0.000 FEB: -10.155
USER: RMSD 6.676353
USER: SEED 685690
USER: STATUS no improvement in best in 4 clusters for 5 generations
USER: GENES 20
USER: genes 0 Translation |==|  0.34294 0.73944 0.57084
USER: genes 1 Rotation |==|  0.55638 0.20787 0.67360 0.86242
USER: genes 2 Torsion [C]-CA--N-[C] |==|  0.61750
USER: genes 3 Torsion [N]-C--CA-[N] |==|  0.58088
USER: genes 4 Torsion [C]-CA--N-[H2] |==|  0.39939
USER: genes 5 Torsion [C]-CA--CB-[CG] |==|  0.27834
USER: genes 6 Torsion [CA]-CB--CG-[CD2] |==|  0.07872
USER: genes 7 Torsion [N]-CA--C-[N] |==|  0.75556
USER: genes 8 Torsion [C]-N--CA-[CB] |==|  0.44299
USER: genes 9 Torsion [N]-CA--CB-[CG] |==|  0.69998
USER: genes 10 Torsion [CA]-CB--CG-[CD] |==|  0.69726
USER: genes 11 Torsion [CB]-CG--CD-[OE2] |==|  0.01239
USER: genes 12 Torsion [N]-CA--C-[N] |==|  0.87619
USER: genes 13 Torsion [C]-N--CA-[CB] |==|  0.86197
USER: genes 14 Torsion [N]-CA--CB-[CG] |==|  0.83555
USER: genes 15 Torsion [CA]-CB--CG-[CD2] |==|  0.66175
USER: genes 16 Torsion [N]-CA--C-[O] |==|  0.10898
USER: genes 17 Torsion [N]-CA--CB-[CG] |==|  0.70897
USER: genes 18 Torsion [CA]-CB--CG-[CD] |==|  0.45103
USER: genes 19 Torsion [CB]-CG--CD-[OE1] |==|  0.61133
ROOT
ATOM      1  CA  GLU C   2     -25.879  24.279  -1.493  1.00 17.05 LIG 0.18  C 
ENDROOT
BRANCH 1 2
ATOM      2  N   GLU C   2     -25.990  24.402  -2.938  1.00 17.18 LIG-0.35  N 
ATOM      3 H    GLU C   2     -25.659  23.743  -3.380  1.00 17.18 LIG 0.16  HD
ATOM      4  C   TRP C   1     -26.563  25.460  -3.496  1.00 16.43 LIG 0.25  C 
ATOM      5 O    TRP C   1     -27.063  26.372  -2.844  1.00 19.21 LIG-0.27  OA
BRANCH 4 6
ATOM      6  CA  TRP C   1     -26.568  25.493  -5.011  1.00 16.09 LIG 0.28  C 
BRANCH 6 7
ATOM      7  N   TRP C   1     -26.558  26.882  -5.543  1.00 14.00 LIG-0.07  N 
ATOM      8 H2   TRP C   1     -26.065  26.913  -6.283  1.00 14.00 LIG 0.28  HD
ATOM      9 H1   TRP C   1     -26.214  27.431  -4.934  1.00 14.00 LIG 0.28  HD
ATOM     10 H3   TRP C   1     -27.391  27.133  -5.731  1.00 14.00 LIG 0.28  HD
ENDBRANCH 6 7
BRANCH 6 11
ATOM     11  CB  TRP C   1     -25.348  24.710  -5.510  1.00 13.46 LIG 0.08  C 
BRANCH 11 12
ATOM     12  CG  TRP C   1     -25.660  23.330  -5.954  1.00 14.84 LIG-0.03  A 
ATOM     13  CD1 TRP C   1     -24.809  22.264  -5.992  1.00 13.19 LIG 0.10  A 
ATOM     14  NE1 TRP C   1     -25.448  21.167  -6.520  1.00 14.33 LIG-0.36  N 
ATOM     15 HE1  TRP C   1     -25.096  20.391  -6.634  1.00 14.33 LIG 0.17  HD
ATOM     16  CE2 TRP C   1     -26.736  21.515  -6.832  1.00 14.48 LIG 0.04  A 
ATOM     17  CZ2 TRP C   1     -27.767  20.752  -7.393  1.00 13.61 LIG 0.03  A 
ATOM     18  CD2 TRP C   1     -26.904  22.874  -6.489  1.00 13.42 LIG-0.00  A 
ATOM     19  CH2 TRP C   1     -28.975  21.373  -7.601  1.00 12.22 LIG 0.00  A 
ATOM     20  CZ3 TRP C   1     -29.173  22.726  -7.267  1.00 14.06 LIG 0.00  A 
ATOM     21  CE3 TRP C   1     -28.149  23.483  -6.710  1.00 13.53 LIG 0.01  A 
ENDBRANCH 11 12
ENDBRANCH 6 11
ENDBRANCH 4 6
ENDBRANCH 1 2
BRANCH 1 22
ATOM     22  C   GLU C   2     -24.508  23.753  -1.129  1.00 17.76 LIG 0.24  C 
ATOM     23 O    GLU C   2     -23.588  24.524  -0.862  1.00 15.11 LIG-0.27  OA
ATOM     24  N   GLU C   3     -24.384  22.431  -1.094  1.00 16.84 LIG-0.35  N 
ATOM     25 H    GLU C   3     -25.031  21.886  -1.250  1.00 16.84 LIG 0.16  HD
BRANCH 24 26
ATOM     26  CA  GLU C   3     -23.121  21.784  -0.780  1.00 19.32 LIG 0.18  C 
BRANCH 26 27
ATOM     27  CB  GLU C   3     -23.391  20.350  -0.319  1.00 21.63 LIG 0.04  C 
BRANCH 27 28
ATOM     28  CG  GLU C   3     -23.187  20.078   1.162  1.00 28.11 LIG 0.12  C 
BRANCH 28 29
ATOM     29  CD  GLU C   3     -21.965  19.226   1.444  1.00 31.25 LIG 0.17  C 
ATOM     30 OE2  GLU C   3     -21.223  18.915   0.487  1.00 33.54 LIG-0.65  OA
ATOM     31 OE1  GLU C   3     -21.755  18.852   2.618  1.00 33.71 LIG-0.65  OA
ENDBRANCH 28 29
ENDBRANCH 27 28
ENDBRANCH 26 27
BRANCH 26 32
ATOM     32  C   GLU C   3     -22.288  21.783  -2.060  1.00 20.73 LIG 0.24  C 
ATOM     33  N   LEU C   4     -22.910  21.439  -3.186  1.00 21.37 LIG-0.34  N 
ATOM     34 H    LEU C   4     -23.739  21.220  -3.232  1.00 21.37 LIG 0.16  HD
ATOM     35 O    GLU C   3     -21.092  22.075  -2.025  1.00 19.68 LIG-0.27  OA
BRANCH 33 36
ATOM     36  CA  LEU C   4     -22.200  21.412  -4.459  1.00 23.29 LIG 0.18  C 
BRANCH 36 37
ATOM     37  CB  LEU C   4     -21.426  22.712  -4.680  1.00 22.30 LIG 0.04  C 
BRANCH 37 38
ATOM     38  CG  LEU C   4     -22.308  23.964  -4.684  1.00 23.00 LIG-0.02  C 
ATOM     39  CD2 LEU C   4     -22.153  24.701  -6.003  1.00 24.82 LIG 0.01  C 
ATOM     40  CD1 LEU C   4     -21.919  24.868  -3.525  1.00 24.76 LIG 0.01  C 
ENDBRANCH 37 38
ENDBRANCH 36 37
BRANCH 36 41
ATOM     41  C   LEU C   4     -21.222  20.246  -4.492  1.00 23.96 LIG 0.20  C 
ATOM     42 O    LEU C   4     -21.580  19.161  -3.986  1.00 25.84 LIG-0.65  OA
ATOM     43 OXT  LEU C   4     -20.115  20.434  -5.043  1.00 25.23 LIG-0.65  OA
ENDBRANCH 36 41
ENDBRANCH 33 36
ENDBRANCH 26 32
ENDBRANCH 24 26
ENDBRANCH 1 22
BRANCH 1 44
ATOM     44  CB  GLU C   2     -26.957  23.353  -0.921  1.00 20.11 LIG 0.04  C 
BRANCH 44 45
ATOM     45  CG  GLU C   2     -28.098  24.046  -0.207  1.00 24.89 LIG 0.12  C 
BRANCH 45 46
ATOM     46  CD  GLU C   2     -29.310  23.139  -0.051  1.00 27.65 LIG 0.17  C 
ATOM     47 OE1  GLU C   2     -30.454  23.618  -0.215  1.00 28.60 LIG-0.65  OA
ATOM     48 OE2  GLU C   2     -29.115  21.937   0.225  1.00 30.33 LIG-0.65  OA
ENDBRANCH 45 46
ENDBRANCH 44 45
ENDBRANCH 1 44
TORSDOF 18
ENDMDL
MODEL 15
USER: ADFR SOLUTION from run 12
USER: SCORE 18.748256 LL:  -3.945 LR: -15.441 RR:   0.000 FEB: -10.072
USER: RMSD 9.410195
USER: SEED 882060
USER: STATUS no improvement in best in 2 clusters for 5 generations
USER: GENES 20
USER: genes 0 Translation |==|  0.68239 0.49256 0.43937
USER: genes 1 Rotation |==|  0.10407 0.28637 0.29110 0.56295
USER: genes 2 Torsion [C]-CA--N-[C] |==|  0.77392
USER: genes 3 Torsion [N]-C--CA-[N] |==|  0.07465
USER: genes 4 Torsion [C]-CA--N-[H2] |==|  0.30937
USER: genes 5 Torsion [C]-CA--CB-[CG] |==|  0.22162
USER: genes 6 Torsion [CA]-CB--CG-[CD2] |==|  0.10053
USER: genes 7 Torsion [N]-CA--C-[N] |==|  0.38911
USER: genes 8 Torsion [C]-N--CA-[CB] |==|  0.50637
USER: genes 9 Torsion [N]-CA--CB-[CG] |==|  0.68608
USER: genes 10 Torsion [CA]-CB--CG-[CD] |==|  0.24516
USER: genes 11 Torsion [CB]-CG--CD-[OE2] |==|  0.98099
USER: genes 12 Torsion [N]-CA--C-[N] |==|  0.41114
USER: genes 13 Torsion [C]-N--CA-[CB] |==|  0.30337
USER: genes 14 Torsion [N]-CA--CB-[CG] |==|  0.48343
USER: genes 15 Torsion [CA]-CB--CG-[CD2] |==|  0.55048
USER: genes 16 Torsion [N]-CA--C-[O] |==|  0.94163
USER: genes 17 Torsion [N]-CA--CB-[CG] |==|  0.08695
USER: genes 18 Torsion [CA]-CB--CG-[CD] |==|  0.76805
USER: genes 19 Torsion [CB]-CG--CD-[OE1] |==|  0.25185
ROOT
ATOM      1  CA  GLU C   2     -19.259  18.724  -3.859  1.00 17.05 LIG 0.18  C 
ENDROOT
BRANCH 1 2
ATOM      2  N   GLU C   2     -19.456  17.447  -4.527  1.00 17.18 LIG-0.35  N 
ATOM      3 H    GLU C   2     -19.422  17.483  -5.386  1.00 17.18 LIG 0.16  HD
ATOM      4  C   TRP C   1     -19.670  16.336  -3.837  1.00 16.43 LIG 0.25  C 
ATOM      5 O    TRP C   1     -19.679  16.302  -2.609  1.00 19.21 LIG-0.27  OA
BRANCH 4 6
ATOM      6  CA  TRP C   1     -19.913  15.082  -4.652  1.00 16.09 LIG 0.28  C 
BRANCH 6 7
ATOM      7  N   TRP C   1     -19.268  15.148  -5.991  1.00 14.00 LIG-0.07  N 
ATOM      8 H2   TRP C   1     -18.598  14.564  -6.027  1.00 14.00 LIG 0.28  HD
ATOM      9 H1   TRP C   1     -18.953  15.969  -6.129  1.00 14.00 LIG 0.28  HD
ATOM     10 H3   TRP C   1     -19.867  14.952  -6.619  1.00 14.00 LIG 0.28  HD
ENDBRANCH 6 7
BRANCH 6 11
ATOM     11  CB  TRP C   1     -19.389  13.884  -3.854  1.00 13.46 LIG 0.08  C 
BRANCH 11 12
ATOM     12  CG  TRP C   1     -20.311  13.420  -2.789  1.00 14.84 LIG-0.03  A 
ATOM     13  CD1 TRP C   1     -19.973  12.878  -1.583  1.00 13.19 LIG 0.10  A 
ATOM     14  NE1 TRP C   1     -21.105  12.518  -0.893  1.00 14.33 LIG-0.36  N 
ATOM     15 HE1  TRP C   1     -21.121  12.157  -0.112  1.00 14.33 LIG 0.17  HD
ATOM     16  CE2 TRP C   1     -22.203  12.827  -1.653  1.00 14.48 LIG 0.04  A 
ATOM     17  CZ2 TRP C   1     -23.566  12.648  -1.386  1.00 13.61 LIG 0.03  A 
ATOM     18  CD2 TRP C   1     -21.739  13.398  -2.858  1.00 13.42 LIG-0.00  A 
ATOM     19  CH2 TRP C   1     -24.459  13.056  -2.348  1.00 12.22 LIG 0.00  A 
ATOM     20  CZ3 TRP C   1     -24.026  13.630  -3.557  1.00 14.06 LIG 0.00  A 
ATOM     21  CE3 TRP C   1     -22.672  13.807  -3.821  1.00 13.53 LIG 0.01  A 
ENDBRANCH 11 12
ENDBRANCH 6 11
ENDBRANCH 4 6
ENDBRANCH 1 2
BRANCH 1 22
ATOM     22  C   GLU C   2     -20.600  19.315  -3.482  1.00 17.76 LIG 0.24  C 
ATOM     23 O    GLU C   2     -21.567  19.214  -4.235  1.00 15.11 LIG-0.27  OA
ATOM     24  N   GLU C   3     -20.659  19.909  -2.296  1.00 16.84 LIG-0.35  N 
ATOM     25 H    GLU C   3     -19.995  19.957  -1.751  1.00 16.84 LIG 0.16  HD
BRANCH 24 26
ATOM     26  CA  GLU C   3     -21.876  20.539  -1.810  1.00 19.32 LIG 0.18  C 
BRANCH 26 27
ATOM     27  CB  GLU C   3     -21.602  21.177  -0.446  1.00 21.63 LIG 0.04  C 
BRANCH 27 28
ATOM     28  CG  GLU C   3     -22.317  20.551   0.738  1.00 28.11 LIG 0.12  C 
BRANCH 28 29
ATOM     29  CD  GLU C   3     -21.539  19.411   1.365  1.00 31.25 LIG 0.17  C 
ATOM     30 OE2  GLU C   3     -20.496  19.020   0.796  1.00 33.54 LIG-0.65  OA
ATOM     31 OE1  GLU C   3     -21.976  18.892   2.415  1.00 33.71 LIG-0.65  OA
ENDBRANCH 28 29
ENDBRANCH 27 28
ENDBRANCH 26 27
BRANCH 26 32
ATOM     32  C   GLU C   3     -22.266  21.608  -2.829  1.00 20.73 LIG 0.24  C 
ATOM     33  N   LEU C   4     -23.566  21.847  -2.986  1.00 21.37 LIG-0.34  N 
ATOM     34 H    LEU C   4     -24.188  21.439  -2.555  1.00 21.37 LIG 0.16  HD
ATOM     35 O    GLU C   3     -21.399  22.196  -3.476  1.00 19.68 LIG-0.27  OA
BRANCH 33 36
ATOM     36  CA  LEU C   4     -24.037  22.850  -3.932  1.00 23.29 LIG 0.18  C 
BRANCH 36 37
ATOM     37  CB  LEU C   4     -24.713  22.191  -5.136  1.00 22.30 LIG 0.04  C 
BRANCH 37 38
ATOM     38  CG  LEU C   4     -25.361  23.187  -6.102  1.00 23.00 LIG-0.02  C 
ATOM     39  CD2 LEU C   4     -26.364  22.469  -6.989  1.00 24.82 LIG 0.01  C 
ATOM     40  CD1 LEU C   4     -24.286  23.851  -6.950  1.00 24.76 LIG 0.01  C 
ENDBRANCH 37 38
ENDBRANCH 36 37
BRANCH 36 41
ATOM     41  C   LEU C   4     -25.033  23.784  -3.259  1.00 23.96 LIG 0.20  C 
ATOM     42 O    LEU C   4     -25.609  23.384  -2.224  1.00 25.84 LIG-0.65  OA
ATOM     43 OXT  LEU C   4     -25.208  24.911  -3.771  1.00 25.23 LIG-0.65  OA
ENDBRANCH 36 41
ENDBRANCH 33 36
ENDBRANCH 26 32
ENDBRANCH 24 26
ENDBRANCH 1 22
BRANCH 1 44
ATOM     44  CB  GLU C   2     -18.490  19.711  -4.744  1.00 20.11 LIG 0.04  C 
BRANCH 44 45
ATOM     45  CG  GLU C   2     -18.714  19.561  -6.234  1.00 24.89 LIG 0.12  C 
BRANCH 45 46
ATOM     46  CD  GLU C   2     -17.827  18.484  -6.840  1.00 27.65 LIG 0.17  C 
ATOM     47 OE1  GLU C   2     -18.252  17.309  -6.903  1.00 28.60 LIG-0.65  OA
ATOM     48 OE2  GLU C   2     -16.703  18.818  -7.269  1.00 30.33 LIG-0.65  OA
ENDBRANCH 45 46
ENDBRANCH 44 45
ENDBRANCH 1 44
TORSDOF 18
ENDMDL
MODEL 16
USER: ADFR SOLUTION from run 31
USER: SCORE 17.861357 LL:  -3.123 LR: -15.408 RR:   0.000 FEB: -10.038
USER: RMSD 8.496734
USER: SEED 30
USER: STATUS no improvement in best in 4 clusters for 5 generations
USER: GENES 20
USER: genes 0 Translation |==|  0.50186 0.59749 0.48121
USER: genes 1 Rotation |==|  0.10592 0.63097 0.24145 0.60342
USER: genes 2 Torsion [C]-CA--N-[C] |==|  0.16667
USER: genes 3 Torsion [N]-C--CA-[N] |==|  0.61975
USER: genes 4 Torsion [C]-CA--N-[H2] |==|  0.46285
USER: genes 5 Torsion [C]-CA--CB-[CG] |==|  0.36713
USER: genes 6 Torsion [CA]-CB--CG-[CD2] |==|  0.05014
USER: genes 7 Torsion [N]-CA--C-[N] |==|  0.10266
USER: genes 8 Torsion [C]-N--CA-[CB] |==|  0.17542
USER: genes 9 Torsion [N]-CA--CB-[CG] |==|  0.64495
USER: genes 10 Torsion [CA]-CB--CG-[CD] |==|  0.83289
USER: genes 11 Torsion [CB]-CG--CD-[OE2] |==|  0.41823
USER: genes 12 Torsion [N]-CA--C-[N] |==|  0.65745
USER: genes 13 Torsion [C]-N--CA-[CB] |==|  0.23641
USER: genes 14 Torsion [N]-CA--CB-[CG] |==|  0.75054
USER: genes 15 Torsion [CA]-CB--CG-[CD2] |==|  0.82608
USER: genes 16 Torsion [N]-CA--C-[O] |==|  0.01007
USER: genes 17 Torsion [N]-CA--CB-[CG] |==|  0.70611
USER: genes 18 Torsion [CA]-CB--CG-[CD] |==|  0.94248
USER: genes 19 Torsion [CB]-CG--CD-[OE1] |==|  0.83157
ROOT
ATOM      1  CA  GLU C   2     -22.780  21.086  -3.106  1.00 17.05 LIG 0.18  C 
ENDROOT
BRANCH 1 2
ATOM      2  N   GLU C   2     -23.683  21.481  -4.176  1.00 17.18 LIG-0.35  N 
ATOM      3 H    GLU C   2     -24.207  20.857  -4.452  1.00 17.18 LIG 0.16  HD
ATOM      4  C   TRP C   1     -23.672  22.714  -4.664  1.00 16.43 LIG 0.25  C 
ATOM      5 O    TRP C   1     -22.941  23.599  -4.230  1.00 19.21 LIG-0.27  OA
BRANCH 4 6
ATOM      6  CA  TRP C   1     -24.624  22.983  -5.812  1.00 16.09 LIG 0.28  C 
BRANCH 6 7
ATOM      7  N   TRP C   1     -23.990  23.788  -6.891  1.00 14.00 LIG-0.07  N 
ATOM      8 H2   TRP C   1     -24.500  23.762  -7.620  1.00 14.00 LIG 0.28  HD
ATOM      9 H1   TRP C   1     -23.187  23.453  -7.079  1.00 14.00 LIG 0.28  HD
ATOM     10 H3   TRP C   1     -23.903  24.631  -6.620  1.00 14.00 LIG 0.28  HD
ENDBRANCH 6 7
BRANCH 6 11
ATOM     11  CB  TRP C   1     -25.112  21.635  -6.354  1.00 13.46 LIG 0.08  C 
BRANCH 11 12
ATOM     12  CG  TRP C   1     -26.582  21.560  -6.543  1.00 14.84 LIG-0.03  A 
ATOM     13  CD1 TRP C   1     -27.332  20.437  -6.735  1.00 13.19 LIG 0.10  A 
ATOM     14  NE1 TRP C   1     -28.650  20.775  -6.929  1.00 14.33 LIG-0.36  N 
ATOM     15 HE1  TRP C   1     -29.293  20.222  -7.069  1.00 14.33 LIG 0.17  HD
ATOM     16  CE2 TRP C   1     -28.769  22.139  -6.865  1.00 14.48 LIG 0.04  A 
ATOM     17  CZ2 TRP C   1     -29.898  22.955  -7.004  1.00 13.61 LIG 0.03  A 
ATOM     18  CD2 TRP C   1     -27.482  22.667  -6.623  1.00 13.42 LIG-0.00  A 
ATOM     19  CH2 TRP C   1     -29.717  24.312  -6.893  1.00 12.22 LIG 0.00  A 
ATOM     20  CZ3 TRP C   1     -28.447  24.868  -6.650  1.00 14.06 LIG 0.00  A 
ATOM     21  CE3 TRP C   1     -27.326  24.057  -6.512  1.00 13.53 LIG 0.01  A 
ENDBRANCH 11 12
ENDBRANCH 6 11
ENDBRANCH 4 6
ENDBRANCH 1 2
BRANCH 1 22
ATOM     22  C   GLU C   2     -23.030  21.942  -1.884  1.00 17.76 LIG 0.24  C 
ATOM     23 O    GLU C   2     -22.096  22.324  -1.182  1.00 15.11 LIG-0.27  OA
ATOM     24  N   GLU C   3     -24.297  22.264  -1.651  1.00 16.84 LIG-0.35  N 
ATOM     25 H    GLU C   3     -24.952  22.025  -2.155  1.00 16.84 LIG 0.16  HD
BRANCH 24 26
ATOM     26  CA  GLU C   3     -24.689  23.063  -0.502  1.00 19.32 LIG 0.18  C 
BRANCH 26 27
ATOM     27  CB  GLU C   3     -24.056  24.452  -0.616  1.00 21.63 LIG 0.04  C 
BRANCH 27 28
ATOM     28  CG  GLU C   3     -23.275  24.929   0.597  1.00 28.11 LIG 0.12  C 
BRANCH 28 29
ATOM     29  CD  GLU C   3     -24.122  25.016   1.851  1.00 31.25 LIG 0.17  C 
ATOM     30 OE2  GLU C   3     -23.566  24.841   2.957  1.00 33.54 LIG-0.65  OA
ATOM     31 OE1  GLU C   3     -25.346  25.241   1.732  1.00 33.71 LIG-0.65  OA
ENDBRANCH 28 29
ENDBRANCH 27 28
ENDBRANCH 26 27
BRANCH 26 32
ATOM     32  C   GLU C   3     -26.213  23.170  -0.528  1.00 20.73 LIG 0.24  C 
ATOM     33  N   LEU C   4     -26.732  24.395  -0.546  1.00 21.37 LIG-0.34  N 
ATOM     34 H    LEU C   4     -26.267  25.118  -0.542  1.00 21.37 LIG 0.16  HD
ATOM     35 O    GLU C   3     -26.908  22.153  -0.516  1.00 19.68 LIG-0.27  OA
BRANCH 33 36
ATOM     36  CA  LEU C   4     -28.175  24.599  -0.575  1.00 23.29 LIG 0.18  C 
BRANCH 36 37
ATOM     37  CB  LEU C   4     -28.760  24.564   0.838  1.00 22.30 LIG 0.04  C 
BRANCH 37 38
ATOM     38  CG  LEU C   4     -29.186  23.165   1.296  1.00 23.00 LIG-0.02  C 
ATOM     39  CD2 LEU C   4     -30.294  22.643   0.398  1.00 24.82 LIG 0.01  C 
ATOM     40  CD1 LEU C   4     -29.658  23.222   2.741  1.00 24.76 LIG 0.01  C 
ENDBRANCH 37 38
ENDBRANCH 36 37
BRANCH 36 41
ATOM     41  C   LEU C   4     -28.505  25.943  -1.210  1.00 23.96 LIG 0.20  C 
ATOM     42 O    LEU C   4     -27.563  26.627  -1.665  1.00 25.84 LIG-0.65  OA
ATOM     43 OXT  LEU C   4     -29.708  26.282  -1.257  1.00 25.23 LIG-0.65  OA
ENDBRANCH 36 41
ENDBRANCH 33 36
ENDBRANCH 26 32
ENDBRANCH 24 26
ENDBRANCH 1 22
BRANCH 1 44
ATOM     44  CB  GLU C   2     -21.313  21.208  -3.532  1.00 20.11 LIG 0.04  C 
BRANCH 44 45
ATOM     45  CG  GLU C   2     -20.606  19.901  -3.816  1.00 24.89 LIG 0.12  C 
BRANCH 45 46
ATOM     46  CD  GLU C   2     -21.302  18.718  -3.158  1.00 27.65 LIG 0.17  C 
ATOM     47 OE1  GLU C   2     -21.417  18.695  -1.912  1.00 28.60 LIG-0.65  OA
ATOM     48 OE2  GLU C   2     -21.749  17.814  -3.893  1.00 30.33 LIG-0.65  OA
ENDBRANCH 45 46
ENDBRANCH 44 45
ENDBRANCH 1 44
TORSDOF 18
ENDMDL
MODEL 17
USER: ADFR SOLUTION from run 174
USER: SCORE 17.566206 LL:  -3.265 LR: -15.402 RR:   0.000 FEB: -10.032
USER: RMSD 6.661444
USER: SEED 173
USER: STATUS no improvement in best in 6 clusters for 5 generations
USER: GENES 20
USER: genes 0 Translation |==|  0.34050 0.74498 0.56061
USER: genes 1 Rotation |==|  0.57168 0.25037 0.64436 0.90213
USER: genes 2 Torsion [C]-CA--N-[C] |==|  0.73804
USER: genes 3 Torsion [N]-C--CA-[N] |==|  0.43139
USER: genes 4 Torsion [C]-CA--N-[H2] |==|  0.19298
USER: genes 5 Torsion [C]-CA--CB-[CG] |==|  0.23512
USER: genes 6 Torsion [CA]-CB--CG-[CD2] |==|  0.15437
USER: genes 7 Torsion [N]-CA--C-[N] |==|  0.44387
USER: genes 8 Torsion [C]-N--CA-[CB] |==|  0.45556
USER: genes 9 Torsion [N]-CA--CB-[CG] |==|  0.21793
USER: genes 10 Torsion [CA]-CB--CG-[CD] |==|  0.73012
USER: genes 11 Torsion [CB]-CG--CD-[OE2] |==|  0.60655
USER: genes 12 Torsion [N]-CA--C-[N] |==|  0.44705
USER: genes 13 Torsion [C]-N--CA-[CB] |==|  0.39441
USER: genes 14 Torsion [N]-CA--CB-[CG] |==|  0.79138
USER: genes 15 Torsion [CA]-CB--CG-[CD2] |==|  0.56056
USER: genes 16 Torsion [N]-CA--C-[O] |==|  0.79620
USER: genes 17 Torsion [N]-CA--CB-[CG] |==|  0.80136
USER: genes 18 Torsion [CA]-CB--CG-[CD] |==|  0.45495
USER: genes 19 Torsion [CB]-CG--CD-[OE1] |==|  0.53249
ROOT
ATOM      1  CA  GLU C   2     -25.926  24.404  -1.677  1.00 17.05 LIG 0.18  C 
ENDROOT
BRANCH 1 2
ATOM      2  N   GLU C   2     -26.379  24.602  -3.045  1.00 17.18 LIG-0.35  N 
ATOM      3 H    GLU C   2     -26.777  23.923  -3.393  1.00 17.18 LIG 0.16  HD
ATOM      4  C   TRP C   1     -26.180  25.751  -3.676  1.00 16.43 LIG 0.25  C 
ATOM      5 O    TRP C   1     -25.643  26.720  -3.147  1.00 19.21 LIG-0.27  OA
BRANCH 4 6
ATOM      6  CA  TRP C   1     -26.651  25.811  -5.115  1.00 16.09 LIG 0.28  C 
BRANCH 6 7
ATOM      7  N   TRP C   1     -26.941  27.202  -5.554  1.00 14.00 LIG-0.07  N 
ATOM      8 H2   TRP C   1     -26.179  27.659  -5.615  1.00 14.00 LIG 0.28  HD
ATOM      9 H1   TRP C   1     -27.475  27.596  -4.960  1.00 14.00 LIG 0.28  HD
ATOM     10 H3   TRP C   1     -27.342  27.186  -6.348  1.00 14.00 LIG 0.28  HD
ENDBRANCH 6 7
BRANCH 6 11
ATOM     11  CB  TRP C   1     -25.573  25.175  -5.998  1.00 13.46 LIG 0.08  C 
BRANCH 11 12
ATOM     12  CG  TRP C   1     -25.671  23.698  -6.098  1.00 14.84 LIG-0.03  A 
ATOM     13  CD1 TRP C   1     -24.681  22.788  -5.867  1.00 13.19 LIG 0.10  A 
ATOM     14  NE1 TRP C   1     -25.138  21.517  -6.119  1.00 14.33 LIG-0.36  N 
ATOM     15 HE1  TRP C   1     -24.679  20.795  -6.038  1.00 14.33 LIG 0.17  HD
ATOM     16  CE2 TRP C   1     -26.447  21.591  -6.522  1.00 14.48 LIG 0.04  A 
ATOM     17  CZ2 TRP C   1     -27.336  20.575  -6.893  1.00 13.61 LIG 0.03  A 
ATOM     18  CD2 TRP C   1     -26.815  22.954  -6.521  1.00 13.42 LIG-0.00  A 
ATOM     19  CH2 TRP C   1     -28.606  20.948  -7.261  1.00 12.22 LIG 0.00  A 
ATOM     20  CZ3 TRP C   1     -29.004  22.298  -7.267  1.00 14.06 LIG 0.00  A 
ATOM     21  CE3 TRP C   1     -28.120  23.306  -6.899  1.00 13.53 LIG 0.01  A 
ENDBRANCH 11 12
ENDBRANCH 6 11
ENDBRANCH 4 6
ENDBRANCH 1 2
BRANCH 1 22
ATOM     22  C   GLU C   2     -24.560  23.754  -1.681  1.00 17.76 LIG 0.24  C 
ATOM     23 O    GLU C   2     -24.146  23.166  -2.678  1.00 15.11 LIG-0.27  OA
ATOM     24  N   GLU C   3     -23.851  23.887  -0.567  1.00 16.84 LIG-0.35  N 
ATOM     25 H    GLU C   3     -24.122  24.322   0.124  1.00 16.84 LIG 0.16  HD
BRANCH 24 26
ATOM     26  CA  GLU C   3     -22.531  23.297  -0.419  1.00 19.32 LIG 0.18  C 
BRANCH 26 27
ATOM     27  CB  GLU C   3     -21.821  23.943   0.774  1.00 21.63 LIG 0.04  C 
BRANCH 27 28
ATOM     28  CG  GLU C   3     -22.240  23.445   2.147  1.00 28.11 LIG 0.12  C 
BRANCH 28 29
ATOM     29  CD  GLU C   3     -23.271  24.336   2.811  1.00 31.25 LIG 0.17  C 
ATOM     30 OE2  GLU C   3     -23.183  24.529   4.043  1.00 33.54 LIG-0.65  OA
ATOM     31 OE1  GLU C   3     -24.178  24.830   2.107  1.00 33.71 LIG-0.65  OA
ENDBRANCH 28 29
ENDBRANCH 27 28
ENDBRANCH 26 27
BRANCH 26 32
ATOM     32  C   GLU C   3     -22.732  21.803  -0.174  1.00 20.73 LIG 0.24  C 
ATOM     33  N   LEU C   4     -21.687  21.009  -0.395  1.00 21.37 LIG-0.34  N 
ATOM     34 H    LEU C   4     -20.918  21.284  -0.665  1.00 21.37 LIG 0.16  HD
ATOM     35 O    GLU C   3     -23.825  21.375   0.196  1.00 19.68 LIG-0.27  OA
BRANCH 33 36
ATOM     36  CA  LEU C   4     -21.779  19.569  -0.186  1.00 23.29 LIG 0.18  C 
BRANCH 36 37
ATOM     37  CB  LEU C   4     -20.995  18.811  -1.258  1.00 22.30 LIG 0.04  C 
BRANCH 37 38
ATOM     38  CG  LEU C   4     -21.691  18.774  -2.622  1.00 23.00 LIG-0.02  C 
ATOM     39  CD2 LEU C   4     -21.164  17.608  -3.440  1.00 24.82 LIG 0.01  C 
ATOM     40  CD1 LEU C   4     -21.449  20.086  -3.355  1.00 24.76 LIG 0.01  C 
ENDBRANCH 37 38
ENDBRANCH 36 37
BRANCH 36 41
ATOM     41  C   LEU C   4     -21.224  19.199   1.183  1.00 23.96 LIG 0.20  C 
ATOM     42 O    LEU C   4     -19.986  19.236   1.348  1.00 25.84 LIG-0.65  OA
ATOM     43 OXT  LEU C   4     -22.044  18.892   2.076  1.00 25.23 LIG-0.65  OA
ENDBRANCH 36 41
ENDBRANCH 33 36
ENDBRANCH 26 32
ENDBRANCH 24 26
ENDBRANCH 1 22
BRANCH 1 44
ATOM     44  CB  GLU C   2     -26.908  23.542  -0.877  1.00 20.11 LIG 0.04  C 
BRANCH 44 45
ATOM     45  CG  GLU C   2     -28.219  24.208  -0.520  1.00 24.89 LIG 0.12  C 
BRANCH 45 46
ATOM     46  CD  GLU C   2     -29.275  23.201  -0.090  1.00 27.65 LIG 0.17  C 
ATOM     47 OE1  GLU C   2     -30.464  23.574   0.022  1.00 28.60 LIG-0.65  OA
ATOM     48 OE2  GLU C   2     -28.915  22.025   0.125  1.00 30.33 LIG-0.65  OA
ENDBRANCH 45 46
ENDBRANCH 44 45
ENDBRANCH 1 44
TORSDOF 18
ENDMDL
